
  -OEChem-01062216083D

 31 30  0     1  0  0  0  0  0999 V2000
   -3.4517   -2.8583    1.5824 H   0  0  0  0  0  0  0  0  0  0  0  0
   -3.3249   -1.8902    1.0898 C   0  0  0  0  0  0  0  0  0  0  0  0
   -4.0981   -1.2066    1.4489 H   0  0  0  0  0  0  0  0  0  0  0  0
   -3.4406   -2.0264    0.0119 H   0  0  0  0  0  0  0  0  0  0  0  0
   -1.9510   -1.3241    1.3952 C   0  0  0  0  0  0  0  0  0  0  0  0
   -1.2656   -1.8365    2.2663 O   0  0  0  0  0  0  0  0  0  0  0  0
   -1.5732   -0.1220    0.8385 N   0  0  0  0  0  0  0  0  0  0  0  0
   -2.2914    0.3397    0.2769 H   0  0  0  0  0  0  0  0  0  0  0  0
   -0.2226    0.4655    0.6718 C   0  0  1  0  0  0  0  0  0  0  0  0
    0.2424    0.6236    1.6499 H   0  0  0  0  0  0  0  0  0  0  0  0
    0.7381   -0.3881   -0.2661 C   0  0  1  0  0  0  0  0  0  0  0  0
    0.2388   -0.4984   -1.2351 H   0  0  0  0  0  0  0  0  0  0  0  0
    2.0936    0.3312   -0.4910 C   0  0  0  0  0  0  0  0  0  0  0  0
    2.4160    0.8360    0.4250 H   0  0  0  0  0  0  0  0  0  0  0  0
    2.8935   -0.3481   -0.7844 H   0  0  0  0  0  0  0  0  0  0  0  0
    2.0124    1.0584   -1.3025 H   0  0  0  0  0  0  0  0  0  0  0  0
    1.0769   -1.8173    0.2435 C   0  0  0  0  0  0  0  0  0  0  0  0
    0.1579   -2.3543    0.4490 H   0  0  0  0  0  0  0  0  0  0  0  0
    1.6573   -1.7661    1.1707 H   0  0  0  0  0  0  0  0  0  0  0  0
    1.7817   -2.7148   -0.7867 C   0  0  0  0  0  0  0  0  0  0  0  0
    2.8338   -2.4489   -0.9127 H   0  0  0  0  0  0  0  0  0  0  0  0
    1.7453   -3.7553   -0.4494 H   0  0  0  0  0  0  0  0  0  0  0  0
    1.2813   -2.6515   -1.7579 H   0  0  0  0  0  0  0  0  0  0  0  0
   -0.5078    1.8475   -0.0169 C   0  0  0  0  0  0  0  0  0  0  0  0
   -1.6540    2.1507   -0.3463 O   0  0  0  0  0  0  0  0  0  0  0  0
    0.4788    2.7553   -0.3617 N   0  0  0  0  0  0  0  0  0  0  0  0
    1.4337    2.5232   -0.1069 H   0  0  0  0  0  0  0  0  0  0  0  0
    0.2229    4.0204   -1.0419 C   0  0  0  0  0  0  0  0  0  0  0  0
   -0.4226    4.6605   -0.4313 H   0  0  0  0  0  0  0  0  0  0  0  0
    1.1635    4.5495   -1.2222 H   0  0  0  0  0  0  0  0  0  0  0  0
   -0.2646    3.8455   -2.0068 H   0  0  0  0  0  0  0  0  0  0  0  0
  1  2  1  0  0  0  0
  2  3  1  0  0  0  0
  2  4  1  0  0  0  0
  2  5  1  0  0  0  0
  5  6  2  0  0  0  0
  5  7  1  0  0  0  0
  7  8  1  0  0  0  0
  7  9  1  0  0  0  0
  9 10  1  0  0  0  0
  9 11  1  0  0  0  0
  9 24  1  0  0  0  0
 11 12  1  0  0  0  0
 11 13  1  0  0  0  0
 11 17  1  0  0  0  0
 13 14  1  0  0  0  0
 13 15  1  0  0  0  0
 13 16  1  0  0  0  0
 17 18  1  0  0  0  0
 17 19  1  0  0  0  0
 17 20  1  0  0  0  0
 20 21  1  0  0  0  0
 20 22  1  0  0  0  0
 20 23  1  0  0  0  0
 24 25  2  0  0  0  0
 24 26  1  0  0  0  0
 26 27  1  0  0  0  0
 26 28  1  0  0  0  0
 28 29  1  0  0  0  0
 28 30  1  0  0  0  0
 28 31  1  0  0  0  0
M  END
$$$$

  -OEChem-01062216083D

 31 30  0     1  0  0  0  0  0999 V2000
   -3.5060   -2.7875    1.6150 H   0  0  0  0  0  0  0  0  0  0  0  0
   -3.3563   -1.8300    1.1084 C   0  0  0  0  0  0  0  0  0  0  0  0
   -4.0930   -1.1138    1.4807 H   0  0  0  0  0  0  0  0  0  0  0  0
   -3.5060   -1.9724    0.0355 H   0  0  0  0  0  0  0  0  0  0  0  0
   -1.9547   -1.3133    1.3709 C   0  0  0  0  0  0  0  0  0  0  0  0
   -1.2631   -1.8537    2.2194 O   0  0  0  0  0  0  0  0  0  0  0  0
   -1.5579   -0.1190    0.8104 N   0  0  0  0  0  0  0  0  0  0  0  0
   -2.2872    0.3928    0.3103 H   0  0  0  0  0  0  0  0  0  0  0  0
   -0.1995    0.4506    0.6443 C   0  0  1  0  0  0  0  0  0  0  0  0
    0.2632    0.6138    1.6228 H   0  0  0  0  0  0  0  0  0  0  0  0
    0.7615   -0.4112   -0.2840 C   0  0  1  0  0  0  0  0  0  0  0  0
    0.2866   -0.5053   -1.2669 H   0  0  0  0  0  0  0  0  0  0  0  0
    2.1373    0.2959   -0.4440 C   0  0  0  0  0  0  0  0  0  0  0  0
    2.3248    0.9726    0.3956 H   0  0  0  0  0  0  0  0  0  0  0  0
    2.9806   -0.3951   -0.4725 H   0  0  0  0  0  0  0  0  0  0  0  0
    2.1656    0.8595   -1.3811 H   0  0  0  0  0  0  0  0  0  0  0  0
    1.0898   -1.8433    0.2222 C   0  0  0  0  0  0  0  0  0  0  0  0
    0.1669   -2.3777    0.4196 H   0  0  0  0  0  0  0  0  0  0  0  0
    1.6660   -1.8007    1.1526 H   0  0  0  0  0  0  0  0  0  0  0  0
    1.7960   -2.7313   -0.8169 C   0  0  0  0  0  0  0  0  0  0  0  0
    2.8291   -2.4251   -0.9948 H   0  0  0  0  0  0  0  0  0  0  0  0
    1.8160   -3.7654   -0.4595 H   0  0  0  0  0  0  0  0  0  0  0  0
    1.2551   -2.7080   -1.7679 H   0  0  0  0  0  0  0  0  0  0  0  0
   -0.4895    1.8337   -0.0534 C   0  0  0  0  0  0  0  0  0  0  0  0
   -1.6435    2.2550   -0.1248 O   0  0  0  0  0  0  0  0  0  0  0  0
    0.4595    2.6223   -0.6824 N   0  0  0  0  0  0  0  0  0  0  0  0
    1.4257    2.3185   -0.6263 H   0  0  0  0  0  0  0  0  0  0  0  0
    0.1662    3.8912   -1.3411 C   0  0  0  0  0  0  0  0  0  0  0  0
   -0.2361    4.6127   -0.6220 H   0  0  0  0  0  0  0  0  0  0  0  0
    1.0784    4.3095   -1.7772 H   0  0  0  0  0  0  0  0  0  0  0  0
   -0.5647    3.7479   -2.1440 H   0  0  0  0  0  0  0  0  0  0  0  0
  1  2  1  0  0  0  0
  2  3  1  0  0  0  0
  2  4  1  0  0  0  0
  2  5  1  0  0  0  0
  5  6  2  0  0  0  0
  5  7  1  0  0  0  0
  7  8  1  0  0  0  0
  7  9  1  0  0  0  0
  9 10  1  0  0  0  0
  9 11  1  0  0  0  0
  9 24  1  0  0  0  0
 11 12  1  0  0  0  0
 11 13  1  0  0  0  0
 11 17  1  0  0  0  0
 13 14  1  0  0  0  0
 13 15  1  0  0  0  0
 13 16  1  0  0  0  0
 17 18  1  0  0  0  0
 17 19  1  0  0  0  0
 17 20  1  0  0  0  0
 20 21  1  0  0  0  0
 20 22  1  0  0  0  0
 20 23  1  0  0  0  0
 24 25  2  0  0  0  0
 24 26  1  0  0  0  0
 26 27  1  0  0  0  0
 26 28  1  0  0  0  0
 28 29  1  0  0  0  0
 28 30  1  0  0  0  0
 28 31  1  0  0  0  0
M  END
$$$$

  -OEChem-01062216083D

 31 30  0     1  0  0  0  0  0999 V2000
   -3.5950   -2.8439    1.3538 H   0  0  0  0  0  0  0  0  0  0  0  0
   -3.4408   -1.8528    0.9181 C   0  0  0  0  0  0  0  0  0  0  0  0
   -4.1710   -1.1608    1.3447 H   0  0  0  0  0  0  0  0  0  0  0  0
   -3.5959   -1.9159   -0.1616 H   0  0  0  0  0  0  0  0  0  0  0  0
   -2.0351   -1.3648    1.2123 C   0  0  0  0  0  0  0  0  0  0  0  0
   -1.3689   -1.9342    2.0613 O   0  0  0  0  0  0  0  0  0  0  0  0
   -1.6142   -0.1669    0.6764 N   0  0  0  0  0  0  0  0  0  0  0  0
   -2.3362    0.3835    0.2087 H   0  0  0  0  0  0  0  0  0  0  0  0
   -0.2542    0.4164    0.6068 C   0  0  1  0  0  0  0  0  0  0  0  0
    0.1296    0.5972    1.6159 H   0  0  0  0  0  0  0  0  0  0  0  0
    0.8060   -0.4002   -0.2399 C   0  0  1  0  0  0  0  0  0  0  0  0
    0.4273   -0.4843   -1.2647 H   0  0  0  0  0  0  0  0  0  0  0  0
    2.1764    0.3441   -0.2406 C   0  0  0  0  0  0  0  0  0  0  0  0
    2.1616    1.2132    0.4243 H   0  0  0  0  0  0  0  0  0  0  0  0
    2.4226    0.6739   -1.2547 H   0  0  0  0  0  0  0  0  0  0  0  0
    3.0024   -0.2808    0.1105 H   0  0  0  0  0  0  0  0  0  0  0  0
    1.1393   -1.8255    0.2732 C   0  0  0  0  0  0  0  0  0  0  0  0
    1.6364   -1.7847    1.2484 H   0  0  0  0  0  0  0  0  0  0  0  0
    0.2224   -2.3960    0.3858 H   0  0  0  0  0  0  0  0  0  0  0  0
    1.9612   -2.6476   -0.7319 C   0  0  0  0  0  0  0  0  0  0  0  0
    2.9577   -2.2266   -0.8876 H   0  0  0  0  0  0  0  0  0  0  0  0
    2.0820   -3.6697   -0.3599 H   0  0  0  0  0  0  0  0  0  0  0  0
    1.4471   -2.6918   -1.6970 H   0  0  0  0  0  0  0  0  0  0  0  0
   -0.5395    1.7864   -0.1181 C   0  0  0  0  0  0  0  0  0  0  0  0
   -1.6465    2.3105   -0.0067 O   0  0  0  0  0  0  0  0  0  0  0  0
    0.3464    2.4596   -0.9445 N   0  0  0  0  0  0  0  0  0  0  0  0
    1.2575    2.0385   -1.0903 H   0  0  0  0  0  0  0  0  0  0  0  0
    0.0398    3.7116   -1.6292 C   0  0  0  0  0  0  0  0  0  0  0  0
   -0.2254    4.4898   -0.9056 H   0  0  0  0  0  0  0  0  0  0  0  0
    0.9092    4.0532   -2.1990 H   0  0  0  0  0  0  0  0  0  0  0  0
   -0.7964    3.5751   -2.3230 H   0  0  0  0  0  0  0  0  0  0  0  0
  1  2  1  0  0  0  0
  2  3  1  0  0  0  0
  2  4  1  0  0  0  0
  2  5  1  0  0  0  0
  5  6  2  0  0  0  0
  5  7  1  0  0  0  0
  7  8  1  0  0  0  0
  7  9  1  0  0  0  0
  9 10  1  0  0  0  0
  9 11  1  0  0  0  0
  9 24  1  0  0  0  0
 11 12  1  0  0  0  0
 11 13  1  0  0  0  0
 11 17  1  0  0  0  0
 13 14  1  0  0  0  0
 13 15  1  0  0  0  0
 13 16  1  0  0  0  0
 17 18  1  0  0  0  0
 17 19  1  0  0  0  0
 17 20  1  0  0  0  0
 20 21  1  0  0  0  0
 20 22  1  0  0  0  0
 20 23  1  0  0  0  0
 24 25  2  0  0  0  0
 24 26  1  0  0  0  0
 26 27  1  0  0  0  0
 26 28  1  0  0  0  0
 28 29  1  0  0  0  0
 28 30  1  0  0  0  0
 28 31  1  0  0  0  0
M  END
$$$$

  -OEChem-01062216083D

 31 30  0     1  0  0  0  0  0999 V2000
   -3.6228   -2.6548    1.6712 H   0  0  0  0  0  0  0  0  0  0  0  0
   -3.4470   -1.7003    1.1673 C   0  0  0  0  0  0  0  0  0  0  0  0
   -4.1027   -0.9437    1.6051 H   0  0  0  0  0  0  0  0  0  0  0  0
   -3.6878   -1.8127    0.1076 H   0  0  0  0  0  0  0  0  0  0  0  0
   -1.9971   -1.2836    1.3275 C   0  0  0  0  0  0  0  0  0  0  0  0
   -1.2826   -1.8932    2.1058 O   0  0  0  0  0  0  0  0  0  0  0  0
   -1.5692   -0.1089    0.7463 N   0  0  0  0  0  0  0  0  0  0  0  0
   -2.3055    0.4874    0.3672 H   0  0  0  0  0  0  0  0  0  0  0  0
   -0.1939    0.4182    0.5917 C   0  0  1  0  0  0  0  0  0  0  0  0
    0.2509    0.6095    1.5736 H   0  0  0  0  0  0  0  0  0  0  0  0
    0.8092   -0.4133   -0.3004 C   0  0  1  0  0  0  0  0  0  0  0  0
    0.3870   -0.4766   -1.3094 H   0  0  0  0  0  0  0  0  0  0  0  0
    2.2083    0.2756   -0.3433 C   0  0  0  0  0  0  0  0  0  0  0  0
    2.8649   -0.1061    0.4456 H   0  0  0  0  0  0  0  0  0  0  0  0
    2.6883    0.0837   -1.3079 H   0  0  0  0  0  0  0  0  0  0  0  0
    2.1697    1.3548   -0.1923 H   0  0  0  0  0  0  0  0  0  0  0  0
    1.1321   -1.8441    0.2010 C   0  0  0  0  0  0  0  0  0  0  0  0
    0.2027   -2.3896    0.3413 H   0  0  0  0  0  0  0  0  0  0  0  0
    1.6588   -1.8271    1.1613 H   0  0  0  0  0  0  0  0  0  0  0  0
    1.8940   -2.6768   -0.8375 C   0  0  0  0  0  0  0  0  0  0  0  0
    2.9024   -2.2845   -0.9964 H   0  0  0  0  0  0  0  0  0  0  0  0
    1.9836   -3.7105   -0.4895 H   0  0  0  0  0  0  0  0  0  0  0  0
    1.3621   -2.6795   -1.7938 H   0  0  0  0  0  0  0  0  0  0  0  0
   -0.5072    1.7750   -0.1378 C   0  0  0  0  0  0  0  0  0  0  0  0
   -1.4647    2.4476    0.2359 O   0  0  0  0  0  0  0  0  0  0  0  0
    0.1753    2.2662   -1.2402 N   0  0  0  0  0  0  0  0  0  0  0  0
    0.9328    1.6968   -1.6053 H   0  0  0  0  0  0  0  0  0  0  0  0
   -0.1653    3.5061   -1.9296 C   0  0  0  0  0  0  0  0  0  0  0  0
   -0.1136    4.3553   -1.2398 H   0  0  0  0  0  0  0  0  0  0  0  0
    0.5352    3.6861   -2.7507 H   0  0  0  0  0  0  0  0  0  0  0  0
   -1.1772    3.4493   -2.3442 H   0  0  0  0  0  0  0  0  0  0  0  0
  1  2  1  0  0  0  0
  2  3  1  0  0  0  0
  2  4  1  0  0  0  0
  2  5  1  0  0  0  0
  5  6  2  0  0  0  0
  5  7  1  0  0  0  0
  7  8  1  0  0  0  0
  7  9  1  0  0  0  0
  9 10  1  0  0  0  0
  9 11  1  0  0  0  0
  9 24  1  0  0  0  0
 11 12  1  0  0  0  0
 11 13  1  0  0  0  0
 11 17  1  0  0  0  0
 13 14  1  0  0  0  0
 13 15  1  0  0  0  0
 13 16  1  0  0  0  0
 17 18  1  0  0  0  0
 17 19  1  0  0  0  0
 17 20  1  0  0  0  0
 20 21  1  0  0  0  0
 20 22  1  0  0  0  0
 20 23  1  0  0  0  0
 24 25  2  0  0  0  0
 24 26  1  0  0  0  0
 26 27  1  0  0  0  0
 26 28  1  0  0  0  0
 28 29  1  0  0  0  0
 28 30  1  0  0  0  0
 28 31  1  0  0  0  0
M  END
$$$$

  -OEChem-01062216083D

 31 30  0     1  0  0  0  0  0999 V2000
   -3.6148   -2.6690    1.6669 H   0  0  0  0  0  0  0  0  0  0  0  0
   -3.4477   -1.7241    1.1423 C   0  0  0  0  0  0  0  0  0  0  0  0
   -4.1218   -0.9683    1.5527 H   0  0  0  0  0  0  0  0  0  0  0  0
   -3.6717   -1.8663    0.0824 H   0  0  0  0  0  0  0  0  0  0  0  0
   -2.0071   -1.2798    1.3125 C   0  0  0  0  0  0  0  0  0  0  0  0
   -1.2930   -1.8651    2.1091 O   0  0  0  0  0  0  0  0  0  0  0  0
   -1.5913   -0.1076    0.7168 N   0  0  0  0  0  0  0  0  0  0  0  0
   -2.3338    0.4644    0.3163 H   0  0  0  0  0  0  0  0  0  0  0  0
   -0.2206    0.4287    0.5562 C   0  0  1  0  0  0  0  0  0  0  0  0
    0.2140    0.6404    1.5387 H   0  0  0  0  0  0  0  0  0  0  0  0
    0.8064   -0.4043   -0.3066 C   0  0  1  0  0  0  0  0  0  0  0  0
    0.3957   -0.5110   -1.3160 H   0  0  0  0  0  0  0  0  0  0  0  0
    2.1794    0.3268   -0.3574 C   0  0  0  0  0  0  0  0  0  0  0  0
    2.7305    0.1720    0.5760 H   0  0  0  0  0  0  0  0  0  0  0  0
    2.7843   -0.0566   -1.1841 H   0  0  0  0  0  0  0  0  0  0  0  0
    2.0969    1.4054   -0.4929 H   0  0  0  0  0  0  0  0  0  0  0  0
    1.1496   -1.8151    0.2343 C   0  0  0  0  0  0  0  0  0  0  0  0
    0.2282   -2.3710    0.3834 H   0  0  0  0  0  0  0  0  0  0  0  0
    1.6694   -1.7580    1.1965 H   0  0  0  0  0  0  0  0  0  0  0  0
    1.9366   -2.6708   -0.7662 C   0  0  0  0  0  0  0  0  0  0  0  0
    2.9543   -2.2928   -0.8964 H   0  0  0  0  0  0  0  0  0  0  0  0
    2.0046   -3.6996   -0.3990 H   0  0  0  0  0  0  0  0  0  0  0  0
    1.4365   -2.6845   -1.7395 H   0  0  0  0  0  0  0  0  0  0  0  0
   -0.5321    1.7703   -0.1859 C   0  0  0  0  0  0  0  0  0  0  0  0
   -1.3432    2.5442    0.3105 O   0  0  0  0  0  0  0  0  0  0  0  0
   -0.0539    2.1029   -1.4443 N   0  0  0  0  0  0  0  0  0  0  0  0
    0.5978    1.4552   -1.8775 H   0  0  0  0  0  0  0  0  0  0  0  0
   -0.3927    3.3362   -2.1456 C   0  0  0  0  0  0  0  0  0  0  0  0
   -0.0646    4.2071   -1.5685 H   0  0  0  0  0  0  0  0  0  0  0  0
    0.0999    3.3627   -3.1222 H   0  0  0  0  0  0  0  0  0  0  0  0
   -1.4742    3.4046   -2.3029 H   0  0  0  0  0  0  0  0  0  0  0  0
  1  2  1  0  0  0  0
  2  3  1  0  0  0  0
  2  4  1  0  0  0  0
  2  5  1  0  0  0  0
  5  6  2  0  0  0  0
  5  7  1  0  0  0  0
  7  8  1  0  0  0  0
  7  9  1  0  0  0  0
  9 10  1  0  0  0  0
  9 11  1  0  0  0  0
  9 24  1  0  0  0  0
 11 12  1  0  0  0  0
 11 13  1  0  0  0  0
 11 17  1  0  0  0  0
 13 14  1  0  0  0  0
 13 15  1  0  0  0  0
 13 16  1  0  0  0  0
 17 18  1  0  0  0  0
 17 19  1  0  0  0  0
 17 20  1  0  0  0  0
 20 21  1  0  0  0  0
 20 22  1  0  0  0  0
 20 23  1  0  0  0  0
 24 25  2  0  0  0  0
 24 26  1  0  0  0  0
 26 27  1  0  0  0  0
 26 28  1  0  0  0  0
 28 29  1  0  0  0  0
 28 30  1  0  0  0  0
 28 31  1  0  0  0  0
M  END
$$$$

  -OEChem-01062216083D

 31 30  0     1  0  0  0  0  0999 V2000
   -3.5828   -2.7094    1.6728 H   0  0  0  0  0  0  0  0  0  0  0  0
   -3.4336   -1.7628    1.1457 C   0  0  0  0  0  0  0  0  0  0  0  0
   -4.1299   -1.0225    1.5473 H   0  0  0  0  0  0  0  0  0  0  0  0
   -3.6449   -1.9149    0.0846 H   0  0  0  0  0  0  0  0  0  0  0  0
   -2.0056   -1.2828    1.3270 C   0  0  0  0  0  0  0  0  0  0  0  0
   -1.2850   -1.8457    2.1336 O   0  0  0  0  0  0  0  0  0  0  0  0
   -1.6100   -0.1065    0.7247 N   0  0  0  0  0  0  0  0  0  0  0  0
   -2.3579    0.4229    0.2815 H   0  0  0  0  0  0  0  0  0  0  0  0
   -0.2441    0.4354    0.5431 C   0  0  1  0  0  0  0  0  0  0  0  0
    0.1981    0.6458    1.5228 H   0  0  0  0  0  0  0  0  0  0  0  0
    0.7820   -0.3990   -0.3200 C   0  0  1  0  0  0  0  0  0  0  0  0
    0.3556   -0.5387   -1.3187 H   0  0  0  0  0  0  0  0  0  0  0  0
    2.1277    0.3694   -0.4229 C   0  0  0  0  0  0  0  0  0  0  0  0
    2.6418    0.3637    0.5439 H   0  0  0  0  0  0  0  0  0  0  0  0
    2.7822   -0.0925   -1.1665 H   0  0  0  0  0  0  0  0  0  0  0  0
    2.0044    1.4123   -0.7196 H   0  0  0  0  0  0  0  0  0  0  0  0
    1.1446   -1.7984    0.2347 C   0  0  0  0  0  0  0  0  0  0  0  0
    0.2317   -2.3609    0.4074 H   0  0  0  0  0  0  0  0  0  0  0  0
    1.6800   -1.7159    1.1864 H   0  0  0  0  0  0  0  0  0  0  0  0
    1.9289   -2.6647   -0.7589 C   0  0  0  0  0  0  0  0  0  0  0  0
    2.9456   -2.2875   -0.8988 H   0  0  0  0  0  0  0  0  0  0  0  0
    2.0008   -3.6884   -0.3786 H   0  0  0  0  0  0  0  0  0  0  0  0
    1.4241   -2.6927   -1.7295 H   0  0  0  0  0  0  0  0  0  0  0  0
   -0.5361    1.7779   -0.1901 C   0  0  0  0  0  0  0  0  0  0  0  0
   -1.1208    2.6658    0.4161 O   0  0  0  0  0  0  0  0  0  0  0  0
   -0.3129    1.9770   -1.5441 N   0  0  0  0  0  0  0  0  0  0  0  0
    0.1659    1.2369   -2.0486 H   0  0  0  0  0  0  0  0  0  0  0  0
   -0.6257    3.2181   -2.2432 C   0  0  0  0  0  0  0  0  0  0  0  0
   -0.0653    4.0532   -1.8100 H   0  0  0  0  0  0  0  0  0  0  0  0
   -0.3584    3.1337   -3.3009 H   0  0  0  0  0  0  0  0  0  0  0  0
   -1.6962    3.4384   -2.1748 H   0  0  0  0  0  0  0  0  0  0  0  0
  1  2  1  0  0  0  0
  2  3  1  0  0  0  0
  2  4  1  0  0  0  0
  2  5  1  0  0  0  0
  5  6  2  0  0  0  0
  5  7  1  0  0  0  0
  7  8  1  0  0  0  0
  7  9  1  0  0  0  0
  9 10  1  0  0  0  0
  9 11  1  0  0  0  0
  9 24  1  0  0  0  0
 11 12  1  0  0  0  0
 11 13  1  0  0  0  0
 11 17  1  0  0  0  0
 13 14  1  0  0  0  0
 13 15  1  0  0  0  0
 13 16  1  0  0  0  0
 17 18  1  0  0  0  0
 17 19  1  0  0  0  0
 17 20  1  0  0  0  0
 20 21  1  0  0  0  0
 20 22  1  0  0  0  0
 20 23  1  0  0  0  0
 24 25  2  0  0  0  0
 24 26  1  0  0  0  0
 26 27  1  0  0  0  0
 26 28  1  0  0  0  0
 28 29  1  0  0  0  0
 28 30  1  0  0  0  0
 28 31  1  0  0  0  0
M  END
$$$$

  -OEChem-01062216083D

 31 30  0     1  0  0  0  0  0999 V2000
   -3.5392   -2.7623    1.6852 H   0  0  0  0  0  0  0  0  0  0  0  0
   -3.4141   -1.8167    1.1498 C   0  0  0  0  0  0  0  0  0  0  0  0
   -4.1394   -1.0957    1.5345 H   0  0  0  0  0  0  0  0  0  0  0  0
   -3.6058   -1.9871    0.0878 H   0  0  0  0  0  0  0  0  0  0  0  0
   -2.0057   -1.2877    1.3459 C   0  0  0  0  0  0  0  0  0  0  0  0
   -1.2793   -1.8162    2.1701 O   0  0  0  0  0  0  0  0  0  0  0  0
   -1.6370   -0.1071    0.7349 N   0  0  0  0  0  0  0  0  0  0  0  0
   -2.3849    0.3663    0.2342 H   0  0  0  0  0  0  0  0  0  0  0  0
   -0.2772    0.4461    0.5423 C   0  0  1  0  0  0  0  0  0  0  0  0
    0.1688    0.6553    1.5208 H   0  0  0  0  0  0  0  0  0  0  0  0
    0.7483   -0.3863   -0.3232 C   0  0  1  0  0  0  0  0  0  0  0  0
    0.3082   -0.5478   -1.3122 H   0  0  0  0  0  0  0  0  0  0  0  0
    2.0694    0.4114   -0.4742 C   0  0  0  0  0  0  0  0  0  0  0  0
    2.5613    0.5154    0.4984 H   0  0  0  0  0  0  0  0  0  0  0  0
    2.7571   -0.0921   -1.1577 H   0  0  0  0  0  0  0  0  0  0  0  0
    1.9092    1.4135   -0.8784 H   0  0  0  0  0  0  0  0  0  0  0  0
    1.1271   -1.7789    0.2380 C   0  0  0  0  0  0  0  0  0  0  0  0
    0.2216   -2.3479    0.4283 H   0  0  0  0  0  0  0  0  0  0  0  0
    1.6740   -1.6801    1.1816 H   0  0  0  0  0  0  0  0  0  0  0  0
    1.9099   -2.6486   -0.7538 C   0  0  0  0  0  0  0  0  0  0  0  0
    2.9236   -2.2682   -0.9032 H   0  0  0  0  0  0  0  0  0  0  0  0
    1.9895   -3.6686   -0.3656 H   0  0  0  0  0  0  0  0  0  0  0  0
    1.3989   -2.6871   -1.7205 H   0  0  0  0  0  0  0  0  0  0  0  0
   -0.5465    1.7870   -0.1910 C   0  0  0  0  0  0  0  0  0  0  0  0
   -0.8441    2.7764    0.4624 O   0  0  0  0  0  0  0  0  0  0  0  0
   -0.6002    1.8821   -1.5728 N   0  0  0  0  0  0  0  0  0  0  0  0
   -0.3271    1.0618   -2.1056 H   0  0  0  0  0  0  0  0  0  0  0  0
   -0.8677    3.1274   -2.2830 C   0  0  0  0  0  0  0  0  0  0  0  0
   -0.1044    3.8757   -2.0448 H   0  0  0  0  0  0  0  0  0  0  0  0
   -0.8593    2.9561   -3.3636 H   0  0  0  0  0  0  0  0  0  0  0  0
   -1.8495    3.5246   -2.0044 H   0  0  0  0  0  0  0  0  0  0  0  0
  1  2  1  0  0  0  0
  2  3  1  0  0  0  0
  2  4  1  0  0  0  0
  2  5  1  0  0  0  0
  5  6  2  0  0  0  0
  5  7  1  0  0  0  0
  7  8  1  0  0  0  0
  7  9  1  0  0  0  0
  9 10  1  0  0  0  0
  9 11  1  0  0  0  0
  9 24  1  0  0  0  0
 11 12  1  0  0  0  0
 11 13  1  0  0  0  0
 11 17  1  0  0  0  0
 13 14  1  0  0  0  0
 13 15  1  0  0  0  0
 13 16  1  0  0  0  0
 17 18  1  0  0  0  0
 17 19  1  0  0  0  0
 17 20  1  0  0  0  0
 20 21  1  0  0  0  0
 20 22  1  0  0  0  0
 20 23  1  0  0  0  0
 24 25  2  0  0  0  0
 24 26  1  0  0  0  0
 26 27  1  0  0  0  0
 26 28  1  0  0  0  0
 28 29  1  0  0  0  0
 28 30  1  0  0  0  0
 28 31  1  0  0  0  0
M  END
$$$$

  -OEChem-01062216083D

 31 30  0     1  0  0  0  0  0999 V2000
   -3.5057   -2.7995    1.7193 H   0  0  0  0  0  0  0  0  0  0  0  0
   -3.4002   -1.8547    1.1786 C   0  0  0  0  0  0  0  0  0  0  0  0
   -4.1426   -1.1477    1.5569 H   0  0  0  0  0  0  0  0  0  0  0  0
   -3.5854   -2.0357    0.1173 H   0  0  0  0  0  0  0  0  0  0  0  0
   -2.0040   -1.2943    1.3753 C   0  0  0  0  0  0  0  0  0  0  0  0
   -1.2662   -1.8031    2.2017 O   0  0  0  0  0  0  0  0  0  0  0  0
   -1.6571   -0.1110    0.7560 N   0  0  0  0  0  0  0  0  0  0  0  0
   -2.4067    0.3299    0.2295 H   0  0  0  0  0  0  0  0  0  0  0  0
   -0.3023    0.4534    0.5566 C   0  0  1  0  0  0  0  0  0  0  0  0
    0.1507    0.6593    1.5329 H   0  0  0  0  0  0  0  0  0  0  0  0
    0.7176   -0.3676   -0.3250 C   0  0  1  0  0  0  0  0  0  0  0  0
    0.2635   -0.5267   -1.3080 H   0  0  0  0  0  0  0  0  0  0  0  0
    2.0260    0.4432   -0.5050 C   0  0  0  0  0  0  0  0  0  0  0  0
    2.5189    0.5868    0.4620 H   0  0  0  0  0  0  0  0  0  0  0  0
    2.7203   -0.0704   -1.1740 H   0  0  0  0  0  0  0  0  0  0  0  0
    1.8447    1.4274   -0.9446 H   0  0  0  0  0  0  0  0  0  0  0  0
    1.1077   -1.7616    0.2238 C   0  0  0  0  0  0  0  0  0  0  0  0
    0.2064   -2.3347    0.4227 H   0  0  0  0  0  0  0  0  0  0  0  0
    1.6654   -1.6647    1.1612 H   0  0  0  0  0  0  0  0  0  0  0  0
    1.8842   -2.6222   -0.7805 C   0  0  0  0  0  0  0  0  0  0  0  0
    2.9002   -2.2453   -0.9242 H   0  0  0  0  0  0  0  0  0  0  0  0
    1.9583   -3.6480   -0.4067 H   0  0  0  0  0  0  0  0  0  0  0  0
    1.3736   -2.6439   -1.7480 H   0  0  0  0  0  0  0  0  0  0  0  0
   -0.5603    1.7902   -0.1806 C   0  0  0  0  0  0  0  0  0  0  0  0
   -0.5476    2.8412    0.4429 O   0  0  0  0  0  0  0  0  0  0  0  0
   -0.9061    1.8204   -1.5221 N   0  0  0  0  0  0  0  0  0  0  0  0
   -0.8418    0.9471   -2.0365 H   0  0  0  0  0  0  0  0  0  0  0  0
   -1.1335    3.0575   -2.2601 C   0  0  0  0  0  0  0  0  0  0  0  0
   -0.2342    3.6824   -2.2468 H   0  0  0  0  0  0  0  0  0  0  0  0
   -1.3861    2.8365   -3.3016 H   0  0  0  0  0  0  0  0  0  0  0  0
   -1.9610    3.6218   -1.8172 H   0  0  0  0  0  0  0  0  0  0  0  0
  1  2  1  0  0  0  0
  2  3  1  0  0  0  0
  2  4  1  0  0  0  0
  2  5  1  0  0  0  0
  5  6  2  0  0  0  0
  5  7  1  0  0  0  0
  7  8  1  0  0  0  0
  7  9  1  0  0  0  0
  9 10  1  0  0  0  0
  9 11  1  0  0  0  0
  9 24  1  0  0  0  0
 11 12  1  0  0  0  0
 11 13  1  0  0  0  0
 11 17  1  0  0  0  0
 13 14  1  0  0  0  0
 13 15  1  0  0  0  0
 13 16  1  0  0  0  0
 17 18  1  0  0  0  0
 17 19  1  0  0  0  0
 17 20  1  0  0  0  0
 20 21  1  0  0  0  0
 20 22  1  0  0  0  0
 20 23  1  0  0  0  0
 24 25  2  0  0  0  0
 24 26  1  0  0  0  0
 26 27  1  0  0  0  0
 26 28  1  0  0  0  0
 28 29  1  0  0  0  0
 28 30  1  0  0  0  0
 28 31  1  0  0  0  0
M  END
$$$$

  -OEChem-01062216083D

 31 30  0     1  0  0  0  0  0999 V2000
   -3.4896   -2.8194    1.7406 H   0  0  0  0  0  0  0  0  0  0  0  0
   -3.3945   -1.8747    1.1975 C   0  0  0  0  0  0  0  0  0  0  0  0
   -4.1452   -1.1753    1.5737 H   0  0  0  0  0  0  0  0  0  0  0  0
   -3.5768   -2.0606    0.1364 H   0  0  0  0  0  0  0  0  0  0  0  0
   -2.0046   -1.2985    1.3936 C   0  0  0  0  0  0  0  0  0  0  0  0
   -1.2612   -1.7969    2.2212 O   0  0  0  0  0  0  0  0  0  0  0  0
   -1.6680   -0.1148    0.7694 N   0  0  0  0  0  0  0  0  0  0  0  0
   -2.4218    0.3214    0.2453 H   0  0  0  0  0  0  0  0  0  0  0  0
   -0.3166    0.4617    0.5753 C   0  0  1  0  0  0  0  0  0  0  0  0
    0.1388    0.6666    1.5505 H   0  0  0  0  0  0  0  0  0  0  0  0
    0.6970   -0.3501   -0.3210 C   0  0  1  0  0  0  0  0  0  0  0  0
    0.2349   -0.4964   -1.3026 H   0  0  0  0  0  0  0  0  0  0  0  0
    2.0036    0.4615   -0.5081 C   0  0  0  0  0  0  0  0  0  0  0  0
    2.4885    0.6277    0.4593 H   0  0  0  0  0  0  0  0  0  0  0  0
    2.7056   -0.0613   -1.1614 H   0  0  0  0  0  0  0  0  0  0  0  0
    1.8194    1.4347   -0.9709 H   0  0  0  0  0  0  0  0  0  0  0  0
    1.0882   -1.7500    0.2126 C   0  0  0  0  0  0  0  0  0  0  0  0
    0.1869   -2.3229    0.4118 H   0  0  0  0  0  0  0  0  0  0  0  0
    1.6514   -1.6615    1.1477 H   0  0  0  0  0  0  0  0  0  0  0  0
    1.8580   -2.6045   -0.8024 C   0  0  0  0  0  0  0  0  0  0  0  0
    2.8760   -2.2325   -0.9449 H   0  0  0  0  0  0  0  0  0  0  0  0
    1.9275   -3.6346   -0.4396 H   0  0  0  0  0  0  0  0  0  0  0  0
    1.3445   -2.6138   -1.7686 H   0  0  0  0  0  0  0  0  0  0  0  0
   -0.5675    1.7929   -0.1701 C   0  0  0  0  0  0  0  0  0  0  0  0
   -0.2944    2.8583    0.3629 O   0  0  0  0  0  0  0  0  0  0  0  0
   -1.1889    1.8025   -1.4086 N   0  0  0  0  0  0  0  0  0  0  0  0
   -1.2877    0.9078   -1.8787 H   0  0  0  0  0  0  0  0  0  0  0  0
   -1.4126    3.0244   -2.1725 C   0  0  0  0  0  0  0  0  0  0  0  0
   -0.4605    3.5185   -2.3932 H   0  0  0  0  0  0  0  0  0  0  0  0
   -1.9111    2.7938   -3.1189 H   0  0  0  0  0  0  0  0  0  0  0  0
   -2.0464    3.7175   -1.6093 H   0  0  0  0  0  0  0  0  0  0  0  0
  1  2  1  0  0  0  0
  2  3  1  0  0  0  0
  2  4  1  0  0  0  0
  2  5  1  0  0  0  0
  5  6  2  0  0  0  0
  5  7  1  0  0  0  0
  7  8  1  0  0  0  0
  7  9  1  0  0  0  0
  9 10  1  0  0  0  0
  9 11  1  0  0  0  0
  9 24  1  0  0  0  0
 11 12  1  0  0  0  0
 11 13  1  0  0  0  0
 11 17  1  0  0  0  0
 13 14  1  0  0  0  0
 13 15  1  0  0  0  0
 13 16  1  0  0  0  0
 17 18  1  0  0  0  0
 17 19  1  0  0  0  0
 17 20  1  0  0  0  0
 20 21  1  0  0  0  0
 20 22  1  0  0  0  0
 20 23  1  0  0  0  0
 24 25  2  0  0  0  0
 24 26  1  0  0  0  0
 26 27  1  0  0  0  0
 26 28  1  0  0  0  0
 28 29  1  0  0  0  0
 28 30  1  0  0  0  0
 28 31  1  0  0  0  0
M  END
$$$$

  -OEChem-01062216083D

 31 30  0     1  0  0  0  0  0999 V2000
   -3.4778   -2.8334    1.7650 H   0  0  0  0  0  0  0  0  0  0  0  0
   -3.3882   -1.8902    1.2184 C   0  0  0  0  0  0  0  0  0  0  0  0
   -4.1386   -1.1918    1.5969 H   0  0  0  0  0  0  0  0  0  0  0  0
   -3.5757   -2.0803    0.1590 H   0  0  0  0  0  0  0  0  0  0  0  0
   -1.9991   -1.3093    1.4052 C   0  0  0  0  0  0  0  0  0  0  0  0
   -1.2519   -1.8013    2.2331 O   0  0  0  0  0  0  0  0  0  0  0  0
   -1.6697   -0.1255    0.7763 N   0  0  0  0  0  0  0  0  0  0  0  0
   -2.4313    0.3183    0.2706 H   0  0  0  0  0  0  0  0  0  0  0  0
   -0.3227    0.4661    0.5879 C   0  0  1  0  0  0  0  0  0  0  0  0
    0.1333    0.6730    1.5626 H   0  0  0  0  0  0  0  0  0  0  0  0
    0.6841   -0.3441   -0.3190 C   0  0  1  0  0  0  0  0  0  0  0  0
    0.2125   -0.4821   -1.2978 H   0  0  0  0  0  0  0  0  0  0  0  0
    1.9931    0.4621   -0.5163 C   0  0  0  0  0  0  0  0  0  0  0  0
    2.4664    0.6591    0.4511 H   0  0  0  0  0  0  0  0  0  0  0  0
    2.7045   -0.0773   -1.1449 H   0  0  0  0  0  0  0  0  0  0  0  0
    1.8127    1.4190   -1.0131 H   0  0  0  0  0  0  0  0  0  0  0  0
    1.0767   -1.7480    0.2056 C   0  0  0  0  0  0  0  0  0  0  0  0
    0.1766   -2.3214    0.4074 H   0  0  0  0  0  0  0  0  0  0  0  0
    1.6453   -1.6642    1.1377 H   0  0  0  0  0  0  0  0  0  0  0  0
    1.8383   -2.6021   -0.8160 C   0  0  0  0  0  0  0  0  0  0  0  0
    2.8595   -2.2391   -0.9570 H   0  0  0  0  0  0  0  0  0  0  0  0
    1.8985   -3.6352   -0.4600 H   0  0  0  0  0  0  0  0  0  0  0  0
    1.3236   -2.5996   -1.7815 H   0  0  0  0  0  0  0  0  0  0  0  0
   -0.5678    1.7937   -0.1680 C   0  0  0  0  0  0  0  0  0  0  0  0
   -0.1029    2.8408    0.2589 O   0  0  0  0  0  0  0  0  0  0  0  0
   -1.4329    1.8387   -1.2505 N   0  0  0  0  0  0  0  0  0  0  0  0
   -1.6663    0.9495   -1.6814 H   0  0  0  0  0  0  0  0  0  0  0  0
   -1.6873    3.0634   -2.0009 C   0  0  0  0  0  0  0  0  0  0  0  0
   -0.7591    3.4445   -2.4398 H   0  0  0  0  0  0  0  0  0  0  0  0
   -2.4007    2.8723   -2.8083 H   0  0  0  0  0  0  0  0  0  0  0  0
   -2.1082    3.8337   -1.3457 H   0  0  0  0  0  0  0  0  0  0  0  0
  1  2  1  0  0  0  0
  2  3  1  0  0  0  0
  2  4  1  0  0  0  0
  2  5  1  0  0  0  0
  5  6  2  0  0  0  0
  5  7  1  0  0  0  0
  7  8  1  0  0  0  0
  7  9  1  0  0  0  0
  9 10  1  0  0  0  0
  9 11  1  0  0  0  0
  9 24  1  0  0  0  0
 11 12  1  0  0  0  0
 11 13  1  0  0  0  0
 11 17  1  0  0  0  0
 13 14  1  0  0  0  0
 13 15  1  0  0  0  0
 13 16  1  0  0  0  0
 17 18  1  0  0  0  0
 17 19  1  0  0  0  0
 17 20  1  0  0  0  0
 20 21  1  0  0  0  0
 20 22  1  0  0  0  0
 20 23  1  0  0  0  0
 24 25  2  0  0  0  0
 24 26  1  0  0  0  0
 26 27  1  0  0  0  0
 26 28  1  0  0  0  0
 28 29  1  0  0  0  0
 28 30  1  0  0  0  0
 28 31  1  0  0  0  0
M  END
$$$$

  -OEChem-01062216083D

 31 30  0     1  0  0  0  0  0999 V2000
   -3.4500   -2.8639    1.7876 H   0  0  0  0  0  0  0  0  0  0  0  0
   -3.3721   -1.9210    1.2387 C   0  0  0  0  0  0  0  0  0  0  0  0
   -4.1275   -1.2292    1.6191 H   0  0  0  0  0  0  0  0  0  0  0  0
   -3.5627   -2.1155    0.1807 H   0  0  0  0  0  0  0  0  0  0  0  0
   -1.9871   -1.3273    1.4168 C   0  0  0  0  0  0  0  0  0  0  0  0
   -1.2359   -1.8037    2.2500 O   0  0  0  0  0  0  0  0  0  0  0  0
   -1.6699   -0.1437    0.7806 N   0  0  0  0  0  0  0  0  0  0  0  0
   -2.4477    0.3149    0.3158 H   0  0  0  0  0  0  0  0  0  0  0  0
   -0.3304    0.4693    0.5916 C   0  0  1  0  0  0  0  0  0  0  0  0
    0.1274    0.6807    1.5642 H   0  0  0  0  0  0  0  0  0  0  0  0
    0.6726   -0.3462   -0.3202 C   0  0  1  0  0  0  0  0  0  0  0  0
    0.1900   -0.4901   -1.2929 H   0  0  0  0  0  0  0  0  0  0  0  0
    1.9827    0.4533   -0.5412 C   0  0  0  0  0  0  0  0  0  0  0  0
    2.4449    0.6969    0.4208 H   0  0  0  0  0  0  0  0  0  0  0  0
    2.7040   -0.1090   -1.1368 H   0  0  0  0  0  0  0  0  0  0  0  0
    1.8045    1.3837   -1.0863 H   0  0  0  0  0  0  0  0  0  0  0  0
    1.0733   -1.7470    0.2085 C   0  0  0  0  0  0  0  0  0  0  0  0
    0.1763   -2.3222    0.4167 H   0  0  0  0  0  0  0  0  0  0  0  0
    1.6468   -1.6570    1.1369 H   0  0  0  0  0  0  0  0  0  0  0  0
    1.8289   -2.6087   -0.8120 C   0  0  0  0  0  0  0  0  0  0  0  0
    2.8548   -2.2578   -0.9505 H   0  0  0  0  0  0  0  0  0  0  0  0
    1.8778   -3.6424   -0.4564 H   0  0  0  0  0  0  0  0  0  0  0  0
    1.3167   -2.6009   -1.7790 H   0  0  0  0  0  0  0  0  0  0  0  0
   -0.5723    1.7946   -0.1767 C   0  0  0  0  0  0  0  0  0  0  0  0
    0.0364    2.8060    0.1441 O   0  0  0  0  0  0  0  0  0  0  0  0
   -1.6343    1.9231   -1.0606 N   0  0  0  0  0  0  0  0  0  0  0  0
   -1.9940    1.0605   -1.4558 H   0  0  0  0  0  0  0  0  0  0  0  0
   -1.9222    3.1707   -1.7604 C   0  0  0  0  0  0  0  0  0  0  0  0
   -1.0697    3.4689   -2.3801 H   0  0  0  0  0  0  0  0  0  0  0  0
   -2.7965    3.0494   -2.4071 H   0  0  0  0  0  0  0  0  0  0  0  0
   -2.1335    3.9721   -1.0443 H   0  0  0  0  0  0  0  0  0  0  0  0
  1  2  1  0  0  0  0
  2  3  1  0  0  0  0
  2  4  1  0  0  0  0
  2  5  1  0  0  0  0
  5  6  2  0  0  0  0
  5  7  1  0  0  0  0
  7  8  1  0  0  0  0
  7  9  1  0  0  0  0
  9 10  1  0  0  0  0
  9 11  1  0  0  0  0
  9 24  1  0  0  0  0
 11 12  1  0  0  0  0
 11 13  1  0  0  0  0
 11 17  1  0  0  0  0
 13 14  1  0  0  0  0
 13 15  1  0  0  0  0
 13 16  1  0  0  0  0
 17 18  1  0  0  0  0
 17 19  1  0  0  0  0
 17 20  1  0  0  0  0
 20 21  1  0  0  0  0
 20 22  1  0  0  0  0
 20 23  1  0  0  0  0
 24 25  2  0  0  0  0
 24 26  1  0  0  0  0
 26 27  1  0  0  0  0
 26 28  1  0  0  0  0
 28 29  1  0  0  0  0
 28 30  1  0  0  0  0
 28 31  1  0  0  0  0
M  END
$$$$

  -OEChem-01062216083D

 31 30  0     1  0  0  0  0  0999 V2000
   -3.4216   -2.8868    1.8211 H   0  0  0  0  0  0  0  0  0  0  0  0
   -3.3474   -1.9590    1.2462 C   0  0  0  0  0  0  0  0  0  0  0  0
   -4.1153   -1.2656    1.5977 H   0  0  0  0  0  0  0  0  0  0  0  0
   -3.5226   -2.1857    0.1918 H   0  0  0  0  0  0  0  0  0  0  0  0
   -1.9715   -1.3448    1.4235 C   0  0  0  0  0  0  0  0  0  0  0  0
   -1.2222   -1.7950    2.2729 O   0  0  0  0  0  0  0  0  0  0  0  0
   -1.6708   -0.1613    0.7796 N   0  0  0  0  0  0  0  0  0  0  0  0
   -2.4593    0.2864    0.3257 H   0  0  0  0  0  0  0  0  0  0  0  0
   -0.3405    0.4734    0.5860 C   0  0  1  0  0  0  0  0  0  0  0  0
    0.1171    0.6932    1.5566 H   0  0  0  0  0  0  0  0  0  0  0  0
    0.6612   -0.3583   -0.3209 C   0  0  1  0  0  0  0  0  0  0  0  0
    0.1676   -0.5224   -1.2850 H   0  0  0  0  0  0  0  0  0  0  0  0
    1.9684    0.4357   -0.5785 C   0  0  0  0  0  0  0  0  0  0  0  0
    2.4012    0.7724    0.3690 H   0  0  0  0  0  0  0  0  0  0  0  0
    2.7164   -0.1613   -1.1019 H   0  0  0  0  0  0  0  0  0  0  0  0
    1.7885    1.3079   -1.2119 H   0  0  0  0  0  0  0  0  0  0  0  0
    1.0733   -1.7513    0.2252 C   0  0  0  0  0  0  0  0  0  0  0  0
    0.1820   -2.3291    0.4464 H   0  0  0  0  0  0  0  0  0  0  0  0
    1.6521   -1.6454    1.1487 H   0  0  0  0  0  0  0  0  0  0  0  0
    1.8243   -2.6291   -0.7857 C   0  0  0  0  0  0  0  0  0  0  0  0
    2.8552   -2.2928   -0.9217 H   0  0  0  0  0  0  0  0  0  0  0  0
    1.8589   -3.6607   -0.4223 H   0  0  0  0  0  0  0  0  0  0  0  0
    1.3167   -2.6222   -1.7551 H   0  0  0  0  0  0  0  0  0  0  0  0
   -0.5819    1.7984   -0.1935 C   0  0  0  0  0  0  0  0  0  0  0  0
    0.1456    2.7606    0.0131 O   0  0  0  0  0  0  0  0  0  0  0  0
   -1.7824    2.0483   -0.8467 N   0  0  0  0  0  0  0  0  0  0  0  0
   -2.2784    1.2357   -1.1947 H   0  0  0  0  0  0  0  0  0  0  0  0
   -2.0851    3.3379   -1.4604 C   0  0  0  0  0  0  0  0  0  0  0  0
   -1.3510    3.5752   -2.2377 H   0  0  0  0  0  0  0  0  0  0  0  0
   -3.0795    3.3162   -1.9164 H   0  0  0  0  0  0  0  0  0  0  0  0
   -2.0709    4.1341   -0.7083 H   0  0  0  0  0  0  0  0  0  0  0  0
  1  2  1  0  0  0  0
  2  3  1  0  0  0  0
  2  4  1  0  0  0  0
  2  5  1  0  0  0  0
  5  6  2  0  0  0  0
  5  7  1  0  0  0  0
  7  8  1  0  0  0  0
  7  9  1  0  0  0  0
  9 10  1  0  0  0  0
  9 11  1  0  0  0  0
  9 24  1  0  0  0  0
 11 12  1  0  0  0  0
 11 13  1  0  0  0  0
 11 17  1  0  0  0  0
 13 14  1  0  0  0  0
 13 15  1  0  0  0  0
 13 16  1  0  0  0  0
 17 18  1  0  0  0  0
 17 19  1  0  0  0  0
 17 20  1  0  0  0  0
 20 21  1  0  0  0  0
 20 22  1  0  0  0  0
 20 23  1  0  0  0  0
 24 25  2  0  0  0  0
 24 26  1  0  0  0  0
 26 27  1  0  0  0  0
 26 28  1  0  0  0  0
 28 29  1  0  0  0  0
 28 30  1  0  0  0  0
 28 31  1  0  0  0  0
M  END
$$$$

  -OEChem-01062216083D

 31 30  0     1  0  0  0  0  0999 V2000
   -3.1859   -2.9910    1.7078 H   0  0  0  0  0  0  0  0  0  0  0  0
   -3.1522   -2.0862    1.0944 C   0  0  0  0  0  0  0  0  0  0  0  0
   -4.0605   -1.5059    1.2736 H   0  0  0  0  0  0  0  0  0  0  0  0
   -3.1136   -2.3783    0.0423 H   0  0  0  0  0  0  0  0  0  0  0  0
   -1.9300   -1.2611    1.4504 C   0  0  0  0  0  0  0  0  0  0  0  0
   -1.2521   -1.5613    2.4182 O   0  0  0  0  0  0  0  0  0  0  0  0
   -1.6831   -0.0786    0.7857 N   0  0  0  0  0  0  0  0  0  0  0  0
   -2.3295    0.0492    0.0142 H   0  0  0  0  0  0  0  0  0  0  0  0
   -0.3454    0.5304    0.5463 C   0  0  1  0  0  0  0  0  0  0  0  0
    0.1334    0.7641    1.5034 H   0  0  0  0  0  0  0  0  0  0  0  0
    0.6248   -0.3771   -0.3322 C   0  0  1  0  0  0  0  0  0  0  0  0
    0.1087   -0.5837   -1.2757 H   0  0  0  0  0  0  0  0  0  0  0  0
    1.9482    0.3599   -0.6638 C   0  0  0  0  0  0  0  0  0  0  0  0
    2.3455    0.8514    0.2302 H   0  0  0  0  0  0  0  0  0  0  0  0
    2.7188   -0.3076   -1.0492 H   0  0  0  0  0  0  0  0  0  0  0  0
    1.7914    1.1096   -1.4433 H   0  0  0  0  0  0  0  0  0  0  0  0
    1.0175   -1.7508    0.2857 C   0  0  0  0  0  0  0  0  0  0  0  0
    0.1272   -2.3007    0.5685 H   0  0  0  0  0  0  0  0  0  0  0  0
    1.6224   -1.6008    1.1863 H   0  0  0  0  0  0  0  0  0  0  0  0
    1.7303   -2.7053   -0.6845 C   0  0  0  0  0  0  0  0  0  0  0  0
    2.7725   -2.4183   -0.8439 H   0  0  0  0  0  0  0  0  0  0  0  0
    1.7288   -3.7182   -0.2700 H   0  0  0  0  0  0  0  0  0  0  0  0
    1.2160   -2.7282   -1.6501 H   0  0  0  0  0  0  0  0  0  0  0  0
   -0.6065    1.8639   -0.2278 C   0  0  0  0  0  0  0  0  0  0  0  0
    0.2730    2.6969   -0.3973 O   0  0  0  0  0  0  0  0  0  0  0  0
   -1.8972    2.2612   -0.5547 N   0  0  0  0  0  0  0  0  0  0  0  0
   -2.6397    1.7762   -0.0643 H   0  0  0  0  0  0  0  0  0  0  0  0
   -2.2031    3.5856   -1.0880 C   0  0  0  0  0  0  0  0  0  0  0  0
   -1.6329    3.7723   -2.0043 H   0  0  0  0  0  0  0  0  0  0  0  0
   -3.2683    3.6600   -1.3273 H   0  0  0  0  0  0  0  0  0  0  0  0
   -1.9557    4.3613   -0.3555 H   0  0  0  0  0  0  0  0  0  0  0  0
  1  2  1  0  0  0  0
  2  3  1  0  0  0  0
  2  4  1  0  0  0  0
  2  5  1  0  0  0  0
  5  6  2  0  0  0  0
  5  7  1  0  0  0  0
  7  8  1  0  0  0  0
  7  9  1  0  0  0  0
  9 10  1  0  0  0  0
  9 11  1  0  0  0  0
  9 24  1  0  0  0  0
 11 12  1  0  0  0  0
 11 13  1  0  0  0  0
 11 17  1  0  0  0  0
 13 14  1  0  0  0  0
 13 15  1  0  0  0  0
 13 16  1  0  0  0  0
 17 18  1  0  0  0  0
 17 19  1  0  0  0  0
 17 20  1  0  0  0  0
 20 21  1  0  0  0  0
 20 22  1  0  0  0  0
 20 23  1  0  0  0  0
 24 25  2  0  0  0  0
 24 26  1  0  0  0  0
 26 27  1  0  0  0  0
 26 28  1  0  0  0  0
 28 29  1  0  0  0  0
 28 30  1  0  0  0  0
 28 31  1  0  0  0  0
M  END
$$$$

  -OEChem-01062216083D

 31 30  0     1  0  0  0  0  0999 V2000
   -3.2016   -2.9813    1.6546 H   0  0  0  0  0  0  0  0  0  0  0  0
   -3.1726   -2.0534    1.0761 C   0  0  0  0  0  0  0  0  0  0  0  0
   -4.0667   -1.4678    1.3034 H   0  0  0  0  0  0  0  0  0  0  0  0
   -3.1678   -2.3040    0.0125 H   0  0  0  0  0  0  0  0  0  0  0  0
   -1.9288   -1.2598    1.4284 C   0  0  0  0  0  0  0  0  0  0  0  0
   -1.2520   -1.5822    2.3901 O   0  0  0  0  0  0  0  0  0  0  0  0
   -1.6661   -0.0699    0.7839 N   0  0  0  0  0  0  0  0  0  0  0  0
   -2.3292    0.1078    0.0341 H   0  0  0  0  0  0  0  0  0  0  0  0
   -0.3229    0.5250    0.5403 C   0  0  1  0  0  0  0  0  0  0  0  0
    0.1610    0.7502    1.4964 H   0  0  0  0  0  0  0  0  0  0  0  0
    0.6428   -0.3802   -0.3452 C   0  0  1  0  0  0  0  0  0  0  0  0
    0.1420   -0.5677   -1.3008 H   0  0  0  0  0  0  0  0  0  0  0  0
    1.9841    0.3521   -0.6236 C   0  0  0  0  0  0  0  0  0  0  0  0
    2.2750    0.9592    0.2395 H   0  0  0  0  0  0  0  0  0  0  0  0
    2.8104   -0.3255   -0.8355 H   0  0  0  0  0  0  0  0  0  0  0  0
    1.8945    0.9986   -1.5005 H   0  0  0  0  0  0  0  0  0  0  0  0
    1.0261   -1.7603    0.2650 C   0  0  0  0  0  0  0  0  0  0  0  0
    0.1311   -2.3058    0.5417 H   0  0  0  0  0  0  0  0  0  0  0  0
    1.6298   -1.6214    1.1680 H   0  0  0  0  0  0  0  0  0  0  0  0
    1.7338   -2.7128   -0.7129 C   0  0  0  0  0  0  0  0  0  0  0  0
    2.7722   -2.4245   -0.8909 H   0  0  0  0  0  0  0  0  0  0  0  0
    1.7424   -3.7247   -0.2961 H   0  0  0  0  0  0  0  0  0  0  0  0
    1.2055   -2.7405   -1.6708 H   0  0  0  0  0  0  0  0  0  0  0  0
   -0.6279    1.8705   -0.2071 C   0  0  0  0  0  0  0  0  0  0  0  0
    0.2235    2.5757   -0.7277 O   0  0  0  0  0  0  0  0  0  0  0  0
   -1.9182    2.3855   -0.2062 N   0  0  0  0  0  0  0  0  0  0  0  0
   -2.5469    1.9776    0.4791 H   0  0  0  0  0  0  0  0  0  0  0  0
   -2.2528    3.7034   -0.7378 C   0  0  0  0  0  0  0  0  0  0  0  0
   -1.9631    3.7776   -1.7915 H   0  0  0  0  0  0  0  0  0  0  0  0
   -3.3306    3.8775   -0.6659 H   0  0  0  0  0  0  0  0  0  0  0  0
   -1.7351    4.4871   -0.1746 H   0  0  0  0  0  0  0  0  0  0  0  0
  1  2  1  0  0  0  0
  2  3  1  0  0  0  0
  2  4  1  0  0  0  0
  2  5  1  0  0  0  0
  5  6  2  0  0  0  0
  5  7  1  0  0  0  0
  7  8  1  0  0  0  0
  7  9  1  0  0  0  0
  9 10  1  0  0  0  0
  9 11  1  0  0  0  0
  9 24  1  0  0  0  0
 11 12  1  0  0  0  0
 11 13  1  0  0  0  0
 11 17  1  0  0  0  0
 13 14  1  0  0  0  0
 13 15  1  0  0  0  0
 13 16  1  0  0  0  0
 17 18  1  0  0  0  0
 17 19  1  0  0  0  0
 17 20  1  0  0  0  0
 20 21  1  0  0  0  0
 20 22  1  0  0  0  0
 20 23  1  0  0  0  0
 24 25  2  0  0  0  0
 24 26  1  0  0  0  0
 26 27  1  0  0  0  0
 26 28  1  0  0  0  0
 28 29  1  0  0  0  0
 28 30  1  0  0  0  0
 28 31  1  0  0  0  0
M  END
$$$$

  -OEChem-01062216083D

 31 30  0     1  0  0  0  0  0999 V2000
   -3.3014   -2.9124    1.6810 H   0  0  0  0  0  0  0  0  0  0  0  0
   -3.2282   -1.9962    1.0879 C   0  0  0  0  0  0  0  0  0  0  0  0
   -4.0906   -1.3632    1.3102 H   0  0  0  0  0  0  0  0  0  0  0  0
   -3.2420   -2.2630    0.0283 H   0  0  0  0  0  0  0  0  0  0  0  0
   -1.9438   -1.2608    1.4210 C   0  0  0  0  0  0  0  0  0  0  0  0
   -1.2517   -1.6339    2.3532 O   0  0  0  0  0  0  0  0  0  0  0  0
   -1.6565   -0.0634    0.8018 N   0  0  0  0  0  0  0  0  0  0  0  0
   -2.3390    0.1833    0.0887 H   0  0  0  0  0  0  0  0  0  0  0  0
   -0.3022    0.4983    0.5573 C   0  0  1  0  0  0  0  0  0  0  0  0
    0.1867    0.6976    1.5166 H   0  0  0  0  0  0  0  0  0  0  0  0
    0.6602   -0.3868   -0.3400 C   0  0  1  0  0  0  0  0  0  0  0  0
    0.1761   -0.5395   -1.3106 H   0  0  0  0  0  0  0  0  0  0  0  0
    2.0095    0.3619   -0.5515 C   0  0  0  0  0  0  0  0  0  0  0  0
    2.1447    1.1453    0.2007 H   0  0  0  0  0  0  0  0  0  0  0  0
    2.8827   -0.2889   -0.4801 H   0  0  0  0  0  0  0  0  0  0  0  0
    2.0312    0.8245   -1.5430 H   0  0  0  0  0  0  0  0  0  0  0  0
    1.0344   -1.7813    0.2344 C   0  0  0  0  0  0  0  0  0  0  0  0
    0.1358   -2.3299    0.4989 H   0  0  0  0  0  0  0  0  0  0  0  0
    1.6407   -1.6699    1.1396 H   0  0  0  0  0  0  0  0  0  0  0  0
    1.7415   -2.6939   -0.7811 C   0  0  0  0  0  0  0  0  0  0  0  0
    2.7385   -2.3315   -1.0412 H   0  0  0  0  0  0  0  0  0  0  0  0
    1.8524   -3.6968   -0.3574 H   0  0  0  0  0  0  0  0  0  0  0  0
    1.1499   -2.7716   -1.6985 H   0  0  0  0  0  0  0  0  0  0  0  0
   -0.6071    1.8628   -0.1542 C   0  0  0  0  0  0  0  0  0  0  0  0
    0.0462    2.3342   -1.0743 O   0  0  0  0  0  0  0  0  0  0  0  0
   -1.7853    2.5296    0.1519 N   0  0  0  0  0  0  0  0  0  0  0  0
   -2.2740    2.2109    0.9843 H   0  0  0  0  0  0  0  0  0  0  0  0
   -2.1747    3.8043   -0.4427 C   0  0  0  0  0  0  0  0  0  0  0  0
   -2.2920    3.7020   -1.5268 H   0  0  0  0  0  0  0  0  0  0  0  0
   -3.1276    4.1415   -0.0239 H   0  0  0  0  0  0  0  0  0  0  0  0
   -1.4176    4.5695   -0.2410 H   0  0  0  0  0  0  0  0  0  0  0  0
  1  2  1  0  0  0  0
  2  3  1  0  0  0  0
  2  4  1  0  0  0  0
  2  5  1  0  0  0  0
  5  6  2  0  0  0  0
  5  7  1  0  0  0  0
  7  8  1  0  0  0  0
  7  9  1  0  0  0  0
  9 10  1  0  0  0  0
  9 11  1  0  0  0  0
  9 24  1  0  0  0  0
 11 12  1  0  0  0  0
 11 13  1  0  0  0  0
 11 17  1  0  0  0  0
 13 14  1  0  0  0  0
 13 15  1  0  0  0  0
 13 16  1  0  0  0  0
 17 18  1  0  0  0  0
 17 19  1  0  0  0  0
 17 20  1  0  0  0  0
 20 21  1  0  0  0  0
 20 22  1  0  0  0  0
 20 23  1  0  0  0  0
 24 25  2  0  0  0  0
 24 26  1  0  0  0  0
 26 27  1  0  0  0  0
 26 28  1  0  0  0  0
 28 29  1  0  0  0  0
 28 30  1  0  0  0  0
 28 31  1  0  0  0  0
M  END
$$$$

  -OEChem-01062216083D

 31 30  0     1  0  0  0  0  0999 V2000
   -3.3216   -2.8638    1.6731 H   0  0  0  0  0  0  0  0  0  0  0  0
   -3.2553   -1.9258    1.1146 C   0  0  0  0  0  0  0  0  0  0  0  0
   -4.0987   -1.2892    1.3926 H   0  0  0  0  0  0  0  0  0  0  0  0
   -3.3114   -2.1494    0.0465 H   0  0  0  0  0  0  0  0  0  0  0  0
   -1.9481   -1.2237    1.4296 C   0  0  0  0  0  0  0  0  0  0  0  0
   -1.2497   -1.6186    2.3485 O   0  0  0  0  0  0  0  0  0  0  0  0
   -1.6392   -0.0342    0.8063 N   0  0  0  0  0  0  0  0  0  0  0  0
   -2.3250    0.2414    0.1065 H   0  0  0  0  0  0  0  0  0  0  0  0
   -0.2759    0.4981    0.5625 C   0  0  1  0  0  0  0  0  0  0  0  0
    0.2167    0.6976    1.5196 H   0  0  0  0  0  0  0  0  0  0  0  0
    0.6908   -0.3734   -0.3339 C   0  0  1  0  0  0  0  0  0  0  0  0
    0.2229   -0.5002   -1.3164 H   0  0  0  0  0  0  0  0  0  0  0  0
    2.0629    0.3407   -0.4956 C   0  0  0  0  0  0  0  0  0  0  0  0
    2.6204    0.3158    0.4460 H   0  0  0  0  0  0  0  0  0  0  0  0
    2.6623   -0.1476   -1.2681 H   0  0  0  0  0  0  0  0  0  0  0  0
    1.9745    1.3864   -0.7907 H   0  0  0  0  0  0  0  0  0  0  0  0
    1.0455   -1.7722    0.2386 C   0  0  0  0  0  0  0  0  0  0  0  0
    0.1328   -2.3110    0.4768 H   0  0  0  0  0  0  0  0  0  0  0  0
    1.6306   -1.6804    1.1595 H   0  0  0  0  0  0  0  0  0  0  0  0
    1.7623   -2.6797   -0.7691 C   0  0  0  0  0  0  0  0  0  0  0  0
    2.7813   -2.3340   -0.9628 H   0  0  0  0  0  0  0  0  0  0  0  0
    1.8243   -3.6972   -0.3709 H   0  0  0  0  0  0  0  0  0  0  0  0
    1.2134   -2.7122   -1.7154 H   0  0  0  0  0  0  0  0  0  0  0  0
   -0.5873    1.8539   -0.1503 C   0  0  0  0  0  0  0  0  0  0  0  0
   -0.2547    2.1124   -1.3002 O   0  0  0  0  0  0  0  0  0  0  0  0
   -1.5790    2.6623    0.3840 N   0  0  0  0  0  0  0  0  0  0  0  0
   -1.9054    2.4248    1.3171 H   0  0  0  0  0  0  0  0  0  0  0  0
   -2.0776    3.8769   -0.2526 C   0  0  0  0  0  0  0  0  0  0  0  0
   -2.5204    3.6461   -1.2273 H   0  0  0  0  0  0  0  0  0  0  0  0
   -2.8448    4.3437    0.3725 H   0  0  0  0  0  0  0  0  0  0  0  0
   -1.2642    4.5957   -0.3966 H   0  0  0  0  0  0  0  0  0  0  0  0
  1  2  1  0  0  0  0
  2  3  1  0  0  0  0
  2  4  1  0  0  0  0
  2  5  1  0  0  0  0
  5  6  2  0  0  0  0
  5  7  1  0  0  0  0
  7  8  1  0  0  0  0
  7  9  1  0  0  0  0
  9 10  1  0  0  0  0
  9 11  1  0  0  0  0
  9 24  1  0  0  0  0
 11 12  1  0  0  0  0
 11 13  1  0  0  0  0
 11 17  1  0  0  0  0
 13 14  1  0  0  0  0
 13 15  1  0  0  0  0
 13 16  1  0  0  0  0
 17 18  1  0  0  0  0
 17 19  1  0  0  0  0
 17 20  1  0  0  0  0
 20 21  1  0  0  0  0
 20 22  1  0  0  0  0
 20 23  1  0  0  0  0
 24 25  2  0  0  0  0
 24 26  1  0  0  0  0
 26 27  1  0  0  0  0
 26 28  1  0  0  0  0
 28 29  1  0  0  0  0
 28 30  1  0  0  0  0
 28 31  1  0  0  0  0
M  END
$$$$

  -OEChem-01062216083D

 31 30  0     1  0  0  0  0  0999 V2000
   -3.3544   -2.8438    1.6895 H   0  0  0  0  0  0  0  0  0  0  0  0
   -3.2671   -1.9186    1.1130 C   0  0  0  0  0  0  0  0  0  0  0  0
   -4.1042   -1.2642    1.3675 H   0  0  0  0  0  0  0  0  0  0  0  0
   -3.3135   -2.1629    0.0490 H   0  0  0  0  0  0  0  0  0  0  0  0
   -1.9536   -1.2290    1.4294 C   0  0  0  0  0  0  0  0  0  0  0  0
   -1.2560   -1.6344    2.3446 O   0  0  0  0  0  0  0  0  0  0  0  0
   -1.6365   -0.0388    0.8119 N   0  0  0  0  0  0  0  0  0  0  0  0
   -2.3185    0.2439    0.1112 H   0  0  0  0  0  0  0  0  0  0  0  0
   -0.2721    0.4863    0.5741 C   0  0  1  0  0  0  0  0  0  0  0  0
    0.2191    0.6755    1.5339 H   0  0  0  0  0  0  0  0  0  0  0  0
    0.6955   -0.3800   -0.3232 C   0  0  1  0  0  0  0  0  0  0  0  0
    0.2213   -0.5146   -1.3016 H   0  0  0  0  0  0  0  0  0  0  0  0
    2.0463    0.3610   -0.5068 C   0  0  0  0  0  0  0  0  0  0  0  0
    2.5809    0.4191    0.4465 H   0  0  0  0  0  0  0  0  0  0  0  0
    2.6806   -0.1571   -1.2300 H   0  0  0  0  0  0  0  0  0  0  0  0
    1.9197    1.3782   -0.8823 H   0  0  0  0  0  0  0  0  0  0  0  0
    1.0487   -1.7811    0.2406 C   0  0  0  0  0  0  0  0  0  0  0  0
    0.1358   -2.3198    0.4790 H   0  0  0  0  0  0  0  0  0  0  0  0
    1.6368   -1.6899    1.1598 H   0  0  0  0  0  0  0  0  0  0  0  0
    1.7675   -2.6838   -0.7698 C   0  0  0  0  0  0  0  0  0  0  0  0
    2.7864   -2.3367   -0.9602 H   0  0  0  0  0  0  0  0  0  0  0  0
    1.8293   -3.7027   -0.3756 H   0  0  0  0  0  0  0  0  0  0  0  0
    1.2202   -2.7135   -1.7170 H   0  0  0  0  0  0  0  0  0  0  0  0
   -0.5622    1.8419   -0.1315 C   0  0  0  0  0  0  0  0  0  0  0  0
   -0.4376    2.0095   -1.3388 O   0  0  0  0  0  0  0  0  0  0  0  0
   -1.3031    2.7859    0.5587 N   0  0  0  0  0  0  0  0  0  0  0  0
   -1.5199    2.5791    1.5302 H   0  0  0  0  0  0  0  0  0  0  0  0
   -1.8243    4.0099   -0.0388 C   0  0  0  0  0  0  0  0  0  0  0  0
   -2.5412    3.7742   -0.8322 H   0  0  0  0  0  0  0  0  0  0  0  0
   -2.3326    4.6132    0.7193 H   0  0  0  0  0  0  0  0  0  0  0  0
   -1.0101    4.6057   -0.4646 H   0  0  0  0  0  0  0  0  0  0  0  0
  1  2  1  0  0  0  0
  2  3  1  0  0  0  0
  2  4  1  0  0  0  0
  2  5  1  0  0  0  0
  5  6  2  0  0  0  0
  5  7  1  0  0  0  0
  7  8  1  0  0  0  0
  7  9  1  0  0  0  0
  9 10  1  0  0  0  0
  9 11  1  0  0  0  0
  9 24  1  0  0  0  0
 11 12  1  0  0  0  0
 11 13  1  0  0  0  0
 11 17  1  0  0  0  0
 13 14  1  0  0  0  0
 13 15  1  0  0  0  0
 13 16  1  0  0  0  0
 17 18  1  0  0  0  0
 17 19  1  0  0  0  0
 17 20  1  0  0  0  0
 20 21  1  0  0  0  0
 20 22  1  0  0  0  0
 20 23  1  0  0  0  0
 24 25  2  0  0  0  0
 24 26  1  0  0  0  0
 26 27  1  0  0  0  0
 26 28  1  0  0  0  0
 28 29  1  0  0  0  0
 28 30  1  0  0  0  0
 28 31  1  0  0  0  0
M  END
$$$$

  -OEChem-01062216083D

 31 30  0     1  0  0  0  0  0999 V2000
   -3.3532   -2.8756    1.6820 H   0  0  0  0  0  0  0  0  0  0  0  0
   -3.2722   -1.9435    1.1157 C   0  0  0  0  0  0  0  0  0  0  0  0
   -4.1110   -1.2953    1.3805 H   0  0  0  0  0  0  0  0  0  0  0  0
   -3.3218   -2.1755    0.0491 H   0  0  0  0  0  0  0  0  0  0  0  0
   -1.9604   -1.2521    1.4352 C   0  0  0  0  0  0  0  0  0  0  0  0
   -1.2600   -1.6626    2.3463 O   0  0  0  0  0  0  0  0  0  0  0  0
   -1.6455   -0.0596    0.8215 N   0  0  0  0  0  0  0  0  0  0  0  0
   -2.3243    0.2234    0.1173 H   0  0  0  0  0  0  0  0  0  0  0  0
   -0.2840    0.4716    0.5940 C   0  0  1  0  0  0  0  0  0  0  0  0
    0.2023    0.6527    1.5578 H   0  0  0  0  0  0  0  0  0  0  0  0
    0.6892   -0.3822   -0.3072 C   0  0  1  0  0  0  0  0  0  0  0  0
    0.2103   -0.5207   -1.2828 H   0  0  0  0  0  0  0  0  0  0  0  0
    2.0214    0.3846   -0.5062 C   0  0  0  0  0  0  0  0  0  0  0  0
    2.5438    0.4952    0.4493 H   0  0  0  0  0  0  0  0  0  0  0  0
    2.6787   -0.1419   -1.2021 H   0  0  0  0  0  0  0  0  0  0  0  0
    1.8639    1.3810   -0.9260 H   0  0  0  0  0  0  0  0  0  0  0  0
    1.0483   -1.7861    0.2435 C   0  0  0  0  0  0  0  0  0  0  0  0
    0.1381   -2.3314    0.4778 H   0  0  0  0  0  0  0  0  0  0  0  0
    1.6365   -1.6980    1.1629 H   0  0  0  0  0  0  0  0  0  0  0  0
    1.7737   -2.6752   -0.7739 C   0  0  0  0  0  0  0  0  0  0  0  0
    2.7905   -2.3204   -0.9606 H   0  0  0  0  0  0  0  0  0  0  0  0
    1.8416   -3.6969   -0.3881 H   0  0  0  0  0  0  0  0  0  0  0  0
    1.2274   -2.7000   -1.7218 H   0  0  0  0  0  0  0  0  0  0  0  0
   -0.5569    1.8258   -0.1107 C   0  0  0  0  0  0  0  0  0  0  0  0
   -0.6373    1.9241   -1.3295 O   0  0  0  0  0  0  0  0  0  0  0  0
   -1.0145    2.8856    0.6511 N   0  0  0  0  0  0  0  0  0  0  0  0
   -1.0879    2.7377    1.6540 H   0  0  0  0  0  0  0  0  0  0  0  0
   -1.4912    4.1418    0.0844 C   0  0  0  0  0  0  0  0  0  0  0  0
   -2.3737    3.9701   -0.5407 H   0  0  0  0  0  0  0  0  0  0  0  0
   -1.7627    4.8385    0.8833 H   0  0  0  0  0  0  0  0  0  0  0  0
   -0.7108    4.6064   -0.5276 H   0  0  0  0  0  0  0  0  0  0  0  0
  1  2  1  0  0  0  0
  2  3  1  0  0  0  0
  2  4  1  0  0  0  0
  2  5  1  0  0  0  0
  5  6  2  0  0  0  0
  5  7  1  0  0  0  0
  7  8  1  0  0  0  0
  7  9  1  0  0  0  0
  9 10  1  0  0  0  0
  9 11  1  0  0  0  0
  9 24  1  0  0  0  0
 11 12  1  0  0  0  0
 11 13  1  0  0  0  0
 11 17  1  0  0  0  0
 13 14  1  0  0  0  0
 13 15  1  0  0  0  0
 13 16  1  0  0  0  0
 17 18  1  0  0  0  0
 17 19  1  0  0  0  0
 17 20  1  0  0  0  0
 20 21  1  0  0  0  0
 20 22  1  0  0  0  0
 20 23  1  0  0  0  0
 24 25  2  0  0  0  0
 24 26  1  0  0  0  0
 26 27  1  0  0  0  0
 26 28  1  0  0  0  0
 28 29  1  0  0  0  0
 28 30  1  0  0  0  0
 28 31  1  0  0  0  0
M  END
$$$$

  -OEChem-01062216083D

 31 30  0     1  0  0  0  0  0999 V2000
   -3.3709   -2.8935    1.6801 H   0  0  0  0  0  0  0  0  0  0  0  0
   -3.2857   -1.9603    1.1164 C   0  0  0  0  0  0  0  0  0  0  0  0
   -4.1210   -1.3089    1.3843 H   0  0  0  0  0  0  0  0  0  0  0  0
   -3.3372   -2.1890    0.0491 H   0  0  0  0  0  0  0  0  0  0  0  0
   -1.9709   -1.2750    1.4365 C   0  0  0  0  0  0  0  0  0  0  0  0
   -1.2687   -1.6943    2.3423 O   0  0  0  0  0  0  0  0  0  0  0  0
   -1.6540   -0.0806    0.8274 N   0  0  0  0  0  0  0  0  0  0  0  0
   -2.3281    0.2079    0.1204 H   0  0  0  0  0  0  0  0  0  0  0  0
   -0.2946    0.4580    0.6144 C   0  0  1  0  0  0  0  0  0  0  0  0
    0.1835    0.6307    1.5836 H   0  0  0  0  0  0  0  0  0  0  0  0
    0.6861   -0.3807   -0.2910 C   0  0  1  0  0  0  0  0  0  0  0  0
    0.2059   -0.5156   -1.2665 H   0  0  0  0  0  0  0  0  0  0  0  0
    2.0075    0.4009   -0.4948 C   0  0  0  0  0  0  0  0  0  0  0  0
    2.5225    0.5351    0.4616 H   0  0  0  0  0  0  0  0  0  0  0  0
    2.6770   -0.1270   -1.1777 H   0  0  0  0  0  0  0  0  0  0  0  0
    1.8340    1.3867   -0.9343 H   0  0  0  0  0  0  0  0  0  0  0  0
    1.0484   -1.7891    0.2447 C   0  0  0  0  0  0  0  0  0  0  0  0
    0.1395   -2.3407    0.4705 H   0  0  0  0  0  0  0  0  0  0  0  0
    1.6332   -1.7080    1.1668 H   0  0  0  0  0  0  0  0  0  0  0  0
    1.7827   -2.6627   -0.7799 C   0  0  0  0  0  0  0  0  0  0  0  0
    2.8004   -2.3035   -0.9535 H   0  0  0  0  0  0  0  0  0  0  0  0
    1.8498   -3.6898   -0.4086 H   0  0  0  0  0  0  0  0  0  0  0  0
    1.2437   -2.6747   -1.7322 H   0  0  0  0  0  0  0  0  0  0  0  0
   -0.5526    1.8111   -0.0914 C   0  0  0  0  0  0  0  0  0  0  0  0
   -0.8438    1.8633   -1.2809 O   0  0  0  0  0  0  0  0  0  0  0  0
   -0.7123    2.9520    0.6733 N   0  0  0  0  0  0  0  0  0  0  0  0
   -0.6073    2.8573    1.6796 H   0  0  0  0  0  0  0  0  0  0  0  0
   -1.1309    4.2366    0.1248 C   0  0  0  0  0  0  0  0  0  0  0  0
   -2.1382    4.1628   -0.2983 H   0  0  0  0  0  0  0  0  0  0  0  0
   -1.1397    4.9987    0.9100 H   0  0  0  0  0  0  0  0  0  0  0  0
   -0.4410    4.5607   -0.6616 H   0  0  0  0  0  0  0  0  0  0  0  0
  1  2  1  0  0  0  0
  2  3  1  0  0  0  0
  2  4  1  0  0  0  0
  2  5  1  0  0  0  0
  5  6  2  0  0  0  0
  5  7  1  0  0  0  0
  7  8  1  0  0  0  0
  7  9  1  0  0  0  0
  9 10  1  0  0  0  0
  9 11  1  0  0  0  0
  9 24  1  0  0  0  0
 11 12  1  0  0  0  0
 11 13  1  0  0  0  0
 11 17  1  0  0  0  0
 13 14  1  0  0  0  0
 13 15  1  0  0  0  0
 13 16  1  0  0  0  0
 17 18  1  0  0  0  0
 17 19  1  0  0  0  0
 17 20  1  0  0  0  0
 20 21  1  0  0  0  0
 20 22  1  0  0  0  0
 20 23  1  0  0  0  0
 24 25  2  0  0  0  0
 24 26  1  0  0  0  0
 26 27  1  0  0  0  0
 26 28  1  0  0  0  0
 28 29  1  0  0  0  0
 28 30  1  0  0  0  0
 28 31  1  0  0  0  0
M  END
$$$$

  -OEChem-01062216083D

 31 30  0     1  0  0  0  0  0999 V2000
   -3.3857   -2.9014    1.6741 H   0  0  0  0  0  0  0  0  0  0  0  0
   -3.2952   -1.9683    1.1109 C   0  0  0  0  0  0  0  0  0  0  0  0
   -4.1301   -1.3144    1.3746 H   0  0  0  0  0  0  0  0  0  0  0  0
   -3.3425   -2.1966    0.0434 H   0  0  0  0  0  0  0  0  0  0  0  0
   -1.9798   -1.2866    1.4371 C   0  0  0  0  0  0  0  0  0  0  0  0
   -1.2773   -1.7154    2.3386 O   0  0  0  0  0  0  0  0  0  0  0  0
   -1.6572   -0.0927    0.8304 N   0  0  0  0  0  0  0  0  0  0  0  0
   -2.3261    0.2046    0.1211 H   0  0  0  0  0  0  0  0  0  0  0  0
   -0.2987    0.4507    0.6313 C   0  0  1  0  0  0  0  0  0  0  0  0
    0.1715    0.6193    1.6053 H   0  0  0  0  0  0  0  0  0  0  0  0
    0.6850   -0.3766   -0.2786 C   0  0  1  0  0  0  0  0  0  0  0  0
    0.2071   -0.5009   -1.2567 H   0  0  0  0  0  0  0  0  0  0  0  0
    2.0046    0.4095   -0.4739 C   0  0  0  0  0  0  0  0  0  0  0  0
    2.5057    0.5578    0.4880 H   0  0  0  0  0  0  0  0  0  0  0  0
    2.6870   -0.1224   -1.1407 H   0  0  0  0  0  0  0  0  0  0  0  0
    1.8303    1.3883   -0.9289 H   0  0  0  0  0  0  0  0  0  0  0  0
    1.0432   -1.7901    0.2456 C   0  0  0  0  0  0  0  0  0  0  0  0
    0.1320   -2.3420    0.4612 H   0  0  0  0  0  0  0  0  0  0  0  0
    1.6224   -1.7180    1.1720 H   0  0  0  0  0  0  0  0  0  0  0  0
    1.7820   -2.6563   -0.7821 C   0  0  0  0  0  0  0  0  0  0  0  0
    2.8022   -2.2994   -0.9449 H   0  0  0  0  0  0  0  0  0  0  0  0
    1.8423   -3.6871   -0.4197 H   0  0  0  0  0  0  0  0  0  0  0  0
    1.2497   -2.6579   -1.7383 H   0  0  0  0  0  0  0  0  0  0  0  0
   -0.5452    1.8017   -0.0793 C   0  0  0  0  0  0  0  0  0  0  0  0
   -1.0472    1.8358   -1.1976 O   0  0  0  0  0  0  0  0  0  0  0  0
   -0.4074    2.9838    0.6243 N   0  0  0  0  0  0  0  0  0  0  0  0
   -0.1068    2.9200    1.5927 H   0  0  0  0  0  0  0  0  0  0  0  0
   -0.7698    4.2876    0.0823 C   0  0  0  0  0  0  0  0  0  0  0  0
   -1.8429    4.3290   -0.1318 H   0  0  0  0  0  0  0  0  0  0  0  0
   -0.5293    5.0761    0.8017 H   0  0  0  0  0  0  0  0  0  0  0  0
   -0.2176    4.4849   -0.8427 H   0  0  0  0  0  0  0  0  0  0  0  0
  1  2  1  0  0  0  0
  2  3  1  0  0  0  0
  2  4  1  0  0  0  0
  2  5  1  0  0  0  0
  5  6  2  0  0  0  0
  5  7  1  0  0  0  0
  7  8  1  0  0  0  0
  7  9  1  0  0  0  0
  9 10  1  0  0  0  0
  9 11  1  0  0  0  0
  9 24  1  0  0  0  0
 11 12  1  0  0  0  0
 11 13  1  0  0  0  0
 11 17  1  0  0  0  0
 13 14  1  0  0  0  0
 13 15  1  0  0  0  0
 13 16  1  0  0  0  0
 17 18  1  0  0  0  0
 17 19  1  0  0  0  0
 17 20  1  0  0  0  0
 20 21  1  0  0  0  0
 20 22  1  0  0  0  0
 20 23  1  0  0  0  0
 24 25  2  0  0  0  0
 24 26  1  0  0  0  0
 26 27  1  0  0  0  0
 26 28  1  0  0  0  0
 28 29  1  0  0  0  0
 28 30  1  0  0  0  0
 28 31  1  0  0  0  0
M  END
$$$$

  -OEChem-01062216083D

 31 30  0     1  0  0  0  0  0999 V2000
   -3.3940   -2.9214    1.6636 H   0  0  0  0  0  0  0  0  0  0  0  0
   -3.3084   -1.9779    1.1173 C   0  0  0  0  0  0  0  0  0  0  0  0
   -4.1368   -1.3262    1.4055 H   0  0  0  0  0  0  0  0  0  0  0  0
   -3.3723   -2.1850    0.0463 H   0  0  0  0  0  0  0  0  0  0  0  0
   -1.9858   -1.3073    1.4375 C   0  0  0  0  0  0  0  0  0  0  0  0
   -1.2789   -1.7467    2.3306 O   0  0  0  0  0  0  0  0  0  0  0  0
   -1.6611   -0.1118    0.8355 N   0  0  0  0  0  0  0  0  0  0  0  0
   -2.3341    0.2023    0.1364 H   0  0  0  0  0  0  0  0  0  0  0  0
   -0.3062    0.4446    0.6475 C   0  0  1  0  0  0  0  0  0  0  0  0
    0.1567    0.6100    1.6254 H   0  0  0  0  0  0  0  0  0  0  0  0
    0.6828   -0.3687   -0.2690 C   0  0  1  0  0  0  0  0  0  0  0  0
    0.2027   -0.4863   -1.2470 H   0  0  0  0  0  0  0  0  0  0  0  0
    1.9996    0.4224   -0.4645 C   0  0  0  0  0  0  0  0  0  0  0  0
    2.4945    0.5821    0.4986 H   0  0  0  0  0  0  0  0  0  0  0  0
    2.6888   -0.1111   -1.1229 H   0  0  0  0  0  0  0  0  0  0  0  0
    1.8227    1.3957   -0.9303 H   0  0  0  0  0  0  0  0  0  0  0  0
    1.0458   -1.7853    0.2432 C   0  0  0  0  0  0  0  0  0  0  0  0
    0.1354   -2.3415    0.4511 H   0  0  0  0  0  0  0  0  0  0  0  0
    1.6223   -1.7194    1.1717 H   0  0  0  0  0  0  0  0  0  0  0  0
    1.7903   -2.6415   -0.7887 C   0  0  0  0  0  0  0  0  0  0  0  0
    2.8133   -2.2865   -0.9380 H   0  0  0  0  0  0  0  0  0  0  0  0
    1.8441   -3.6767   -0.4382 H   0  0  0  0  0  0  0  0  0  0  0  0
    1.2666   -2.6295   -1.7496 H   0  0  0  0  0  0  0  0  0  0  0  0
   -0.5505    1.7952   -0.0647 C   0  0  0  0  0  0  0  0  0  0  0  0
   -1.2276    1.8424   -1.0868 O   0  0  0  0  0  0  0  0  0  0  0  0
   -0.1368    2.9769    0.5221 N   0  0  0  0  0  0  0  0  0  0  0  0
    0.3471    2.9156    1.4133 H   0  0  0  0  0  0  0  0  0  0  0  0
   -0.4185    4.2920   -0.0402 C   0  0  0  0  0  0  0  0  0  0  0  0
   -1.4988    4.4634   -0.0920 H   0  0  0  0  0  0  0  0  0  0  0  0
    0.0264    5.0735    0.5831 H   0  0  0  0  0  0  0  0  0  0  0  0
    0.0006    4.3747   -1.0486 H   0  0  0  0  0  0  0  0  0  0  0  0
  1  2  1  0  0  0  0
  2  3  1  0  0  0  0
  2  4  1  0  0  0  0
  2  5  1  0  0  0  0
  5  6  2  0  0  0  0
  5  7  1  0  0  0  0
  7  8  1  0  0  0  0
  7  9  1  0  0  0  0
  9 10  1  0  0  0  0
  9 11  1  0  0  0  0
  9 24  1  0  0  0  0
 11 12  1  0  0  0  0
 11 13  1  0  0  0  0
 11 17  1  0  0  0  0
 13 14  1  0  0  0  0
 13 15  1  0  0  0  0
 13 16  1  0  0  0  0
 17 18  1  0  0  0  0
 17 19  1  0  0  0  0
 17 20  1  0  0  0  0
 20 21  1  0  0  0  0
 20 22  1  0  0  0  0
 20 23  1  0  0  0  0
 24 25  2  0  0  0  0
 24 26  1  0  0  0  0
 26 27  1  0  0  0  0
 26 28  1  0  0  0  0
 28 29  1  0  0  0  0
 28 30  1  0  0  0  0
 28 31  1  0  0  0  0
M  END
$$$$

  -OEChem-01062216083D

 31 30  0     1  0  0  0  0  0999 V2000
   -3.3972   -2.9307    1.6504 H   0  0  0  0  0  0  0  0  0  0  0  0
   -3.3124   -1.9788    1.1190 C   0  0  0  0  0  0  0  0  0  0  0  0
   -4.1344   -1.3280    1.4269 H   0  0  0  0  0  0  0  0  0  0  0  0
   -3.3876   -2.1673    0.0453 H   0  0  0  0  0  0  0  0  0  0  0  0
   -1.9839   -1.3195    1.4372 C   0  0  0  0  0  0  0  0  0  0  0  0
   -1.2768   -1.7699    2.3249 O   0  0  0  0  0  0  0  0  0  0  0  0
   -1.6548   -0.1218    0.8418 N   0  0  0  0  0  0  0  0  0  0  0  0
   -2.3340    0.2145    0.1581 H   0  0  0  0  0  0  0  0  0  0  0  0
   -0.3037    0.4490    0.6647 C   0  0  1  0  0  0  0  0  0  0  0  0
    0.1545    0.6135    1.6449 H   0  0  0  0  0  0  0  0  0  0  0  0
    0.6828   -0.3628   -0.2593 C   0  0  1  0  0  0  0  0  0  0  0  0
    0.1964   -0.4758   -1.2348 H   0  0  0  0  0  0  0  0  0  0  0  0
    2.0014    0.4222   -0.4643 C   0  0  0  0  0  0  0  0  0  0  0  0
    2.4819    0.6185    0.4992 H   0  0  0  0  0  0  0  0  0  0  0  0
    2.7024   -0.1311   -1.0925 H   0  0  0  0  0  0  0  0  0  0  0  0
    1.8278    1.3752   -0.9707 H   0  0  0  0  0  0  0  0  0  0  0  0
    1.0459   -1.7833    0.2442 C   0  0  0  0  0  0  0  0  0  0  0  0
    0.1358   -2.3407    0.4482 H   0  0  0  0  0  0  0  0  0  0  0  0
    1.6226   -1.7232    1.1728 H   0  0  0  0  0  0  0  0  0  0  0  0
    1.7867   -2.6384   -0.7920 C   0  0  0  0  0  0  0  0  0  0  0  0
    2.8145   -2.2943   -0.9332 H   0  0  0  0  0  0  0  0  0  0  0  0
    1.8274   -3.6775   -0.4507 H   0  0  0  0  0  0  0  0  0  0  0  0
    1.2678   -2.6122   -1.7552 H   0  0  0  0  0  0  0  0  0  0  0  0
   -0.5508    1.8016   -0.0483 C   0  0  0  0  0  0  0  0  0  0  0  0
   -1.3764    1.8828   -0.9533 O   0  0  0  0  0  0  0  0  0  0  0  0
    0.1016    2.9482    0.3689 N   0  0  0  0  0  0  0  0  0  0  0  0
    0.7476    2.8655    1.1485 H   0  0  0  0  0  0  0  0  0  0  0  0
   -0.1156    4.2580   -0.2330 C   0  0  0  0  0  0  0  0  0  0  0  0
   -1.1616    4.5626   -0.1220 H   0  0  0  0  0  0  0  0  0  0  0  0
    0.5160    5.0076    0.2534 H   0  0  0  0  0  0  0  0  0  0  0  0
    0.1338    4.2353   -1.2990 H   0  0  0  0  0  0  0  0  0  0  0  0
  1  2  1  0  0  0  0
  2  3  1  0  0  0  0
  2  4  1  0  0  0  0
  2  5  1  0  0  0  0
  5  6  2  0  0  0  0
  5  7  1  0  0  0  0
  7  8  1  0  0  0  0
  7  9  1  0  0  0  0
  9 10  1  0  0  0  0
  9 11  1  0  0  0  0
  9 24  1  0  0  0  0
 11 12  1  0  0  0  0
 11 13  1  0  0  0  0
 11 17  1  0  0  0  0
 13 14  1  0  0  0  0
 13 15  1  0  0  0  0
 13 16  1  0  0  0  0
 17 18  1  0  0  0  0
 17 19  1  0  0  0  0
 17 20  1  0  0  0  0
 20 21  1  0  0  0  0
 20 22  1  0  0  0  0
 20 23  1  0  0  0  0
 24 25  2  0  0  0  0
 24 26  1  0  0  0  0
 26 27  1  0  0  0  0
 26 28  1  0  0  0  0
 28 29  1  0  0  0  0
 28 30  1  0  0  0  0
 28 31  1  0  0  0  0
M  END
$$$$

  -OEChem-01062216083D

 31 30  0     1  0  0  0  0  0999 V2000
   -3.3891   -2.9386    1.5995 H   0  0  0  0  0  0  0  0  0  0  0  0
   -3.3087   -1.9676    1.1030 C   0  0  0  0  0  0  0  0  0  0  0  0
   -4.1240   -1.3260    1.4456 H   0  0  0  0  0  0  0  0  0  0  0  0
   -3.3991   -2.1159    0.0243 H   0  0  0  0  0  0  0  0  0  0  0  0
   -1.9737   -1.3249    1.4277 C   0  0  0  0  0  0  0  0  0  0  0  0
   -1.2752   -1.7881    2.3157 O   0  0  0  0  0  0  0  0  0  0  0  0
   -1.6333   -0.1240    0.8456 N   0  0  0  0  0  0  0  0  0  0  0  0
   -2.3220    0.2442    0.1875 H   0  0  0  0  0  0  0  0  0  0  0  0
   -0.2850    0.4599    0.6768 C   0  0  1  0  0  0  0  0  0  0  0  0
    0.1736    0.6221    1.6571 H   0  0  0  0  0  0  0  0  0  0  0  0
    0.6926   -0.3626   -0.2553 C   0  0  1  0  0  0  0  0  0  0  0  0
    0.1944   -0.4760   -1.2248 H   0  0  0  0  0  0  0  0  0  0  0  0
    2.0186    0.4021   -0.4849 C   0  0  0  0  0  0  0  0  0  0  0  0
    2.4763    0.6689    0.4727 H   0  0  0  0  0  0  0  0  0  0  0  0
    2.7364   -0.1923   -1.0527 H   0  0  0  0  0  0  0  0  0  0  0  0
    1.8570    1.3105   -1.0697 H   0  0  0  0  0  0  0  0  0  0  0  0
    1.0496   -1.7867    0.2471 C   0  0  0  0  0  0  0  0  0  0  0  0
    0.1374   -2.3385    0.4527 H   0  0  0  0  0  0  0  0  0  0  0  0
    1.6291   -1.7298    1.1742 H   0  0  0  0  0  0  0  0  0  0  0  0
    1.7781   -2.6551   -0.7876 C   0  0  0  0  0  0  0  0  0  0  0  0
    2.8162   -2.3390   -0.9177 H   0  0  0  0  0  0  0  0  0  0  0  0
    1.7889   -3.6964   -0.4511 H   0  0  0  0  0  0  0  0  0  0  0  0
    1.2687   -2.6112   -1.7552 H   0  0  0  0  0  0  0  0  0  0  0  0
   -0.5418    1.8202   -0.0292 C   0  0  0  0  0  0  0  0  0  0  0  0
   -1.5037    1.9572   -0.7813 O   0  0  0  0  0  0  0  0  0  0  0  0
    0.2961    2.9037    0.1715 N   0  0  0  0  0  0  0  0  0  0  0  0
    1.0811    2.7799    0.8040 H   0  0  0  0  0  0  0  0  0  0  0  0
    0.0960    4.2028   -0.4600 C   0  0  0  0  0  0  0  0  0  0  0  0
   -0.8783    4.6186   -0.1821 H   0  0  0  0  0  0  0  0  0  0  0  0
    0.8737    4.9030   -0.1399 H   0  0  0  0  0  0  0  0  0  0  0  0
    0.1417    4.1098   -1.5502 H   0  0  0  0  0  0  0  0  0  0  0  0
  1  2  1  0  0  0  0
  2  3  1  0  0  0  0
  2  4  1  0  0  0  0
  2  5  1  0  0  0  0
  5  6  2  0  0  0  0
  5  7  1  0  0  0  0
  7  8  1  0  0  0  0
  7  9  1  0  0  0  0
  9 10  1  0  0  0  0
  9 11  1  0  0  0  0
  9 24  1  0  0  0  0
 11 12  1  0  0  0  0
 11 13  1  0  0  0  0
 11 17  1  0  0  0  0
 13 14  1  0  0  0  0
 13 15  1  0  0  0  0
 13 16  1  0  0  0  0
 17 18  1  0  0  0  0
 17 19  1  0  0  0  0
 17 20  1  0  0  0  0
 20 21  1  0  0  0  0
 20 22  1  0  0  0  0
 20 23  1  0  0  0  0
 24 25  2  0  0  0  0
 24 26  1  0  0  0  0
 26 27  1  0  0  0  0
 26 28  1  0  0  0  0
 28 29  1  0  0  0  0
 28 30  1  0  0  0  0
 28 31  1  0  0  0  0
M  END
$$$$

  -OEChem-01062216083D

 31 30  0     1  0  0  0  0  0999 V2000
   -3.4161   -2.9087    1.5797 H   0  0  0  0  0  0  0  0  0  0  0  0
   -3.3121   -1.9385    1.0862 C   0  0  0  0  0  0  0  0  0  0  0  0
   -4.1122   -1.2787    1.4304 H   0  0  0  0  0  0  0  0  0  0  0  0
   -3.4059   -2.0812    0.0070 H   0  0  0  0  0  0  0  0  0  0  0  0
   -1.9624   -1.3279    1.4120 C   0  0  0  0  0  0  0  0  0  0  0  0
   -1.2734   -1.8126    2.2960 O   0  0  0  0  0  0  0  0  0  0  0  0
   -1.6052   -0.1247    0.8449 N   0  0  0  0  0  0  0  0  0  0  0  0
   -2.3071    0.2862    0.2265 H   0  0  0  0  0  0  0  0  0  0  0  0
   -0.2577    0.4673    0.6835 C   0  0  1  0  0  0  0  0  0  0  0  0
    0.2015    0.6279    1.6638 H   0  0  0  0  0  0  0  0  0  0  0  0
    0.7123   -0.3706   -0.2523 C   0  0  1  0  0  0  0  0  0  0  0  0
    0.2104   -0.4844   -1.2195 H   0  0  0  0  0  0  0  0  0  0  0  0
    2.0503    0.3723   -0.4898 C   0  0  0  0  0  0  0  0  0  0  0  0
    2.4502    0.7528    0.4553 H   0  0  0  0  0  0  0  0  0  0  0  0
    2.8083   -0.2697   -0.9392 H   0  0  0  0  0  0  0  0  0  0  0  0
    1.9168    1.2014   -1.1883 H   0  0  0  0  0  0  0  0  0  0  0  0
    1.0612   -1.7984    0.2517 C   0  0  0  0  0  0  0  0  0  0  0  0
    0.1461   -2.3441    0.4562 H   0  0  0  0  0  0  0  0  0  0  0  0
    1.6410   -1.7449    1.1790 H   0  0  0  0  0  0  0  0  0  0  0  0
    1.7784   -2.6807   -0.7808 C   0  0  0  0  0  0  0  0  0  0  0  0
    2.8269   -2.3967   -0.8985 H   0  0  0  0  0  0  0  0  0  0  0  0
    1.7554   -3.7237   -0.4502 H   0  0  0  0  0  0  0  0  0  0  0  0
    1.2812   -2.6174   -1.7536 H   0  0  0  0  0  0  0  0  0  0  0  0
   -0.5284    1.8379   -0.0147 C   0  0  0  0  0  0  0  0  0  0  0  0
   -1.5991    2.0442   -0.5831 O   0  0  0  0  0  0  0  0  0  0  0  0
    0.4222    2.8430   -0.0722 N   0  0  0  0  0  0  0  0  0  0  0  0
    1.3114    2.6724    0.3879 H   0  0  0  0  0  0  0  0  0  0  0  0
    0.2102    4.1196   -0.7447 C   0  0  0  0  0  0  0  0  0  0  0  0
   -0.6285    4.6573   -0.2902 H   0  0  0  0  0  0  0  0  0  0  0  0
    1.1052    4.7436   -0.6635 H   0  0  0  0  0  0  0  0  0  0  0  0
   -0.0058    3.9617   -1.8066 H   0  0  0  0  0  0  0  0  0  0  0  0
  1  2  1  0  0  0  0
  2  3  1  0  0  0  0
  2  4  1  0  0  0  0
  2  5  1  0  0  0  0
  5  6  2  0  0  0  0
  5  7  1  0  0  0  0
  7  8  1  0  0  0  0
  7  9  1  0  0  0  0
  9 10  1  0  0  0  0
  9 11  1  0  0  0  0
  9 24  1  0  0  0  0
 11 12  1  0  0  0  0
 11 13  1  0  0  0  0
 11 17  1  0  0  0  0
 13 14  1  0  0  0  0
 13 15  1  0  0  0  0
 13 16  1  0  0  0  0
 17 18  1  0  0  0  0
 17 19  1  0  0  0  0
 17 20  1  0  0  0  0
 20 21  1  0  0  0  0
 20 22  1  0  0  0  0
 20 23  1  0  0  0  0
 24 25  2  0  0  0  0
 24 26  1  0  0  0  0
 26 27  1  0  0  0  0
 26 28  1  0  0  0  0
 28 29  1  0  0  0  0
 28 30  1  0  0  0  0
 28 31  1  0  0  0  0
M  END
$$$$

  -OEChem-01062216083D

 31 30  0     1  0  0  0  0  0999 V2000
   -3.3901   -2.9579    1.4764 H   0  0  0  0  0  0  0  0  0  0  0  0
   -3.3165   -1.9520    1.0538 C   0  0  0  0  0  0  0  0  0  0  0  0
   -4.0232   -1.2984    1.5712 H   0  0  0  0  0  0  0  0  0  0  0  0
   -3.5792   -1.9954   -0.0058 H   0  0  0  0  0  0  0  0  0  0  0  0
   -1.9059   -1.4186    1.2159 C   0  0  0  0  0  0  0  0  0  0  0  0
   -1.1069   -2.0191    1.9179 O   0  0  0  0  0  0  0  0  0  0  0  0
   -1.5793   -0.1869    0.6897 N   0  0  0  0  0  0  0  0  0  0  0  0
   -2.3428    0.3498    0.2754 H   0  0  0  0  0  0  0  0  0  0  0  0
   -0.2432    0.4388    0.5879 C   0  0  1  0  0  0  0  0  0  0  0  0
    0.2931    0.3483    1.5381 H   0  0  0  0  0  0  0  0  0  0  0  0
    0.6105   -0.1923   -0.5900 C   0  0  1  0  0  0  0  0  0  0  0  0
    0.0295   -0.0854   -1.5127 H   0  0  0  0  0  0  0  0  0  0  0  0
    1.9620    0.5392   -0.7812 C   0  0  0  0  0  0  0  0  0  0  0  0
    2.4159    0.7644    0.1890 H   0  0  0  0  0  0  0  0  0  0  0  0
    2.6800   -0.0487   -1.3536 H   0  0  0  0  0  0  0  0  0  0  0  0
    1.8242    1.4646   -1.3453 H   0  0  0  0  0  0  0  0  0  0  0  0
    0.9275   -1.7032   -0.4105 C   0  0  0  0  0  0  0  0  0  0  0  0
    1.5810   -1.8546    0.4548 H   0  0  0  0  0  0  0  0  0  0  0  0
    0.0030   -2.2455   -0.2330 H   0  0  0  0  0  0  0  0  0  0  0  0
    1.5192   -2.3853   -1.6532 C   0  0  0  0  0  0  0  0  0  0  0  0
    2.5687   -2.1202   -1.8023 H   0  0  0  0  0  0  0  0  0  0  0  0
    1.4687   -3.4720   -1.5332 H   0  0  0  0  0  0  0  0  0  0  0  0
    0.9525   -2.1119   -2.5485 H   0  0  0  0  0  0  0  0  0  0  0  0
   -0.5341    1.9492    0.2942 C   0  0  0  0  0  0  0  0  0  0  0  0
   -1.6898    2.3339    0.1245 O   0  0  0  0  0  0  0  0  0  0  0  0
    0.4590    2.8997    0.1320 N   0  0  0  0  0  0  0  0  0  0  0  0
    1.4193    2.5959    0.2606 H   0  0  0  0  0  0  0  0  0  0  0  0
    0.2022    4.2989   -0.1910 C   0  0  0  0  0  0  0  0  0  0  0  0
   -0.4170    4.7640    0.5833 H   0  0  0  0  0  0  0  0  0  0  0  0
    1.1446    4.8510   -0.2571 H   0  0  0  0  0  0  0  0  0  0  0  0
   -0.3145    4.3814   -1.1530 H   0  0  0  0  0  0  0  0  0  0  0  0
  1  2  1  0  0  0  0
  2  3  1  0  0  0  0
  2  4  1  0  0  0  0
  2  5  1  0  0  0  0
  5  6  2  0  0  0  0
  5  7  1  0  0  0  0
  7  8  1  0  0  0  0
  7  9  1  0  0  0  0
  9 10  1  0  0  0  0
  9 11  1  0  0  0  0
  9 24  1  0  0  0  0
 11 12  1  0  0  0  0
 11 13  1  0  0  0  0
 11 17  1  0  0  0  0
 13 14  1  0  0  0  0
 13 15  1  0  0  0  0
 13 16  1  0  0  0  0
 17 18  1  0  0  0  0
 17 19  1  0  0  0  0
 17 20  1  0  0  0  0
 20 21  1  0  0  0  0
 20 22  1  0  0  0  0
 20 23  1  0  0  0  0
 24 25  2  0  0  0  0
 24 26  1  0  0  0  0
 26 27  1  0  0  0  0
 26 28  1  0  0  0  0
 28 29  1  0  0  0  0
 28 30  1  0  0  0  0
 28 31  1  0  0  0  0
M  END
$$$$

  -OEChem-01062216083D

 31 30  0     1  0  0  0  0  0999 V2000
   -3.4128   -2.9156    1.4917 H   0  0  0  0  0  0  0  0  0  0  0  0
   -3.3297   -1.9096    1.0711 C   0  0  0  0  0  0  0  0  0  0  0  0
   -4.0087   -1.2437    1.6093 H   0  0  0  0  0  0  0  0  0  0  0  0
   -3.6211   -1.9433    0.0187 H   0  0  0  0  0  0  0  0  0  0  0  0
   -1.9044   -1.4063    1.1979 C   0  0  0  0  0  0  0  0  0  0  0  0
   -1.1033   -2.0243    1.8819 O   0  0  0  0  0  0  0  0  0  0  0  0
   -1.5673   -0.1798    0.6655 N   0  0  0  0  0  0  0  0  0  0  0  0
   -2.3390    0.3929    0.3209 H   0  0  0  0  0  0  0  0  0  0  0  0
   -0.2257    0.4348    0.5569 C   0  0  1  0  0  0  0  0  0  0  0  0
    0.3100    0.3528    1.5082 H   0  0  0  0  0  0  0  0  0  0  0  0
    0.6299   -0.2105   -0.6130 C   0  0  1  0  0  0  0  0  0  0  0  0
    0.0660   -0.0984   -1.5457 H   0  0  0  0  0  0  0  0  0  0  0  0
    2.0003    0.5012   -0.7671 C   0  0  0  0  0  0  0  0  0  0  0  0
    2.3455    0.8858    0.1978 H   0  0  0  0  0  0  0  0  0  0  0  0
    2.7841   -0.1554   -1.1450 H   0  0  0  0  0  0  0  0  0  0  0  0
    1.9240    1.3235   -1.4833 H   0  0  0  0  0  0  0  0  0  0  0  0
    0.9391   -1.7220   -0.4238 C   0  0  0  0  0  0  0  0  0  0  0  0
    1.5869   -1.8746    0.4458 H   0  0  0  0  0  0  0  0  0  0  0  0
    0.0100   -2.2581   -0.2504 H   0  0  0  0  0  0  0  0  0  0  0  0
    1.5318   -2.4115   -1.6633 C   0  0  0  0  0  0  0  0  0  0  0  0
    2.5762   -2.1374   -1.8281 H   0  0  0  0  0  0  0  0  0  0  0  0
    1.4947   -3.4970   -1.5292 H   0  0  0  0  0  0  0  0  0  0  0  0
    0.9542   -2.1562   -2.5570 H   0  0  0  0  0  0  0  0  0  0  0  0
   -0.5286    1.9472    0.2569 C   0  0  0  0  0  0  0  0  0  0  0  0
   -1.6773    2.3733    0.3647 O   0  0  0  0  0  0  0  0  0  0  0  0
    0.4020    2.8597   -0.2094 N   0  0  0  0  0  0  0  0  0  0  0  0
    1.3628    2.5432   -0.2881 H   0  0  0  0  0  0  0  0  0  0  0  0
    0.1014    4.2567   -0.5048 C   0  0  0  0  0  0  0  0  0  0  0  0
   -0.2736    4.7661    0.3892 H   0  0  0  0  0  0  0  0  0  0  0  0
    1.0043    4.7738   -0.8433 H   0  0  0  0  0  0  0  0  0  0  0  0
   -0.6536    4.3283   -1.2949 H   0  0  0  0  0  0  0  0  0  0  0  0
  1  2  1  0  0  0  0
  2  3  1  0  0  0  0
  2  4  1  0  0  0  0
  2  5  1  0  0  0  0
  5  6  2  0  0  0  0
  5  7  1  0  0  0  0
  7  8  1  0  0  0  0
  7  9  1  0  0  0  0
  9 10  1  0  0  0  0
  9 11  1  0  0  0  0
  9 24  1  0  0  0  0
 11 12  1  0  0  0  0
 11 13  1  0  0  0  0
 11 17  1  0  0  0  0
 13 14  1  0  0  0  0
 13 15  1  0  0  0  0
 13 16  1  0  0  0  0
 17 18  1  0  0  0  0
 17 19  1  0  0  0  0
 17 20  1  0  0  0  0
 20 21  1  0  0  0  0
 20 22  1  0  0  0  0
 20 23  1  0  0  0  0
 24 25  2  0  0  0  0
 24 26  1  0  0  0  0
 26 27  1  0  0  0  0
 26 28  1  0  0  0  0
 28 29  1  0  0  0  0
 28 30  1  0  0  0  0
 28 31  1  0  0  0  0
M  END
$$$$

  -OEChem-01062216083D

 31 30  0     1  0  0  0  0  0999 V2000
   -3.5049   -2.8943    1.4057 H   0  0  0  0  0  0  0  0  0  0  0  0
   -3.3894   -1.8598    1.0704 C   0  0  0  0  0  0  0  0  0  0  0  0
   -3.9652   -1.2089    1.7331 H   0  0  0  0  0  0  0  0  0  0  0  0
   -3.7815   -1.7735    0.0543 H   0  0  0  0  0  0  0  0  0  0  0  0
   -1.9257   -1.4608    1.0961 C   0  0  0  0  0  0  0  0  0  0  0  0
   -1.1000   -2.2410    1.5417 O   0  0  0  0  0  0  0  0  0  0  0  0
   -1.5766   -0.1678    0.7644 N   0  0  0  0  0  0  0  0  0  0  0  0
   -2.3472    0.4979    0.7155 H   0  0  0  0  0  0  0  0  0  0  0  0
   -0.2164    0.4121    0.7014 C   0  0  1  0  0  0  0  0  0  0  0  0
    0.3366    0.1832    1.6184 H   0  0  0  0  0  0  0  0  0  0  0  0
    0.6449   -0.0103   -0.5441 C   0  0  1  0  0  0  0  0  0  0  0  0
    0.1227    0.3088   -1.4504 H   0  0  0  0  0  0  0  0  0  0  0  0
    2.0601    0.6317   -0.4668 C   0  0  0  0  0  0  0  0  0  0  0  0
    2.0678    1.6053    0.0198 H   0  0  0  0  0  0  0  0  0  0  0  0
    2.4713    0.7533   -1.4734 H   0  0  0  0  0  0  0  0  0  0  0  0
    2.7494    0.0080    0.1116 H   0  0  0  0  0  0  0  0  0  0  0  0
    0.9517   -1.5274   -0.6378 C   0  0  0  0  0  0  0  0  0  0  0  0
    1.5804   -1.8649    0.1932 H   0  0  0  0  0  0  0  0  0  0  0  0
    0.0157   -2.0807   -0.5889 H   0  0  0  0  0  0  0  0  0  0  0  0
    1.5598   -1.9264   -1.9879 C   0  0  0  0  0  0  0  0  0  0  0  0
    2.5636   -1.5093   -2.1079 H   0  0  0  0  0  0  0  0  0  0  0  0
    1.6363   -3.0161   -2.0518 H   0  0  0  0  0  0  0  0  0  0  0  0
    0.9309   -1.5755   -2.8118 H   0  0  0  0  0  0  0  0  0  0  0  0
   -0.5742    1.9454    0.6816 C   0  0  0  0  0  0  0  0  0  0  0  0
   -1.4502    2.3662    1.4271 O   0  0  0  0  0  0  0  0  0  0  0  0
    0.0675    3.0255    0.1143 N   0  0  0  0  0  0  0  0  0  0  0  0
   -0.2662    3.8765    0.5618 H   0  0  0  0  0  0  0  0  0  0  0  0
    0.2176    3.1427   -1.3334 C   0  0  0  0  0  0  0  0  0  0  0  0
   -0.0397    4.1596   -1.6458 H   0  0  0  0  0  0  0  0  0  0  0  0
    1.2477    2.9479   -1.6433 H   0  0  0  0  0  0  0  0  0  0  0  0
   -0.4511    2.4551   -1.8609 H   0  0  0  0  0  0  0  0  0  0  0  0
  1  2  1  0  0  0  0
  2  3  1  0  0  0  0
  2  4  1  0  0  0  0
  2  5  1  0  0  0  0
  5  6  2  0  0  0  0
  5  7  1  0  0  0  0
  7  8  1  0  0  0  0
  7  9  1  0  0  0  0
  9 10  1  0  0  0  0
  9 11  1  0  0  0  0
  9 24  1  0  0  0  0
 11 12  1  0  0  0  0
 11 13  1  0  0  0  0
 11 17  1  0  0  0  0
 13 14  1  0  0  0  0
 13 15  1  0  0  0  0
 13 16  1  0  0  0  0
 17 18  1  0  0  0  0
 17 19  1  0  0  0  0
 17 20  1  0  0  0  0
 20 21  1  0  0  0  0
 20 22  1  0  0  0  0
 20 23  1  0  0  0  0
 24 25  2  0  0  0  0
 24 26  1  0  0  0  0
 26 27  1  0  0  0  0
 26 28  1  0  0  0  0
 28 29  1  0  0  0  0
 28 30  1  0  0  0  0
 28 31  1  0  0  0  0
M  END
$$$$

  -OEChem-01062216083D

 31 30  0     1  0  0  0  0  0999 V2000
   -3.4766   -2.8213    1.6610 H   0  0  0  0  0  0  0  0  0  0  0  0
   -3.3784   -1.8426    1.1829 C   0  0  0  0  0  0  0  0  0  0  0  0
   -3.9871   -1.1196    1.7315 H   0  0  0  0  0  0  0  0  0  0  0  0
   -3.7460   -1.9141    0.1566 H   0  0  0  0  0  0  0  0  0  0  0  0
   -1.9265   -1.4025    1.1845 C   0  0  0  0  0  0  0  0  0  0  0  0
   -1.1001   -2.0610    1.7954 O   0  0  0  0  0  0  0  0  0  0  0  0
   -1.5903   -0.1865    0.6264 N   0  0  0  0  0  0  0  0  0  0  0  0
   -2.3691    0.4345    0.4080 H   0  0  0  0  0  0  0  0  0  0  0  0
   -0.2401    0.4043    0.5106 C   0  0  1  0  0  0  0  0  0  0  0  0
    0.2848    0.3460    1.4700 H   0  0  0  0  0  0  0  0  0  0  0  0
    0.6545   -0.2160   -0.6287 C   0  0  1  0  0  0  0  0  0  0  0  0
    0.1266   -0.0813   -1.5793 H   0  0  0  0  0  0  0  0  0  0  0  0
    2.0379    0.4983   -0.6889 C   0  0  0  0  0  0  0  0  0  0  0  0
    2.1015    1.3319    0.0164 H   0  0  0  0  0  0  0  0  0  0  0  0
    2.2174    0.8782   -1.6995 H   0  0  0  0  0  0  0  0  0  0  0  0
    2.8640   -0.1724   -0.4325 H   0  0  0  0  0  0  0  0  0  0  0  0
    0.9816   -1.7203   -0.4560 C   0  0  0  0  0  0  0  0  0  0  0  0
    1.6107   -1.8867    0.4251 H   0  0  0  0  0  0  0  0  0  0  0  0
    0.0572   -2.2778   -0.3159 H   0  0  0  0  0  0  0  0  0  0  0  0
    1.6215   -2.3316   -1.7101 C   0  0  0  0  0  0  0  0  0  0  0  0
    2.6064   -1.9004   -1.9094 H   0  0  0  0  0  0  0  0  0  0  0  0
    1.7448   -3.4103   -1.5732 H   0  0  0  0  0  0  0  0  0  0  0  0
    0.9842   -2.1662   -2.5842 H   0  0  0  0  0  0  0  0  0  0  0  0
   -0.5657    1.9020    0.1836 C   0  0  0  0  0  0  0  0  0  0  0  0
   -1.4949    2.4503    0.7691 O   0  0  0  0  0  0  0  0  0  0  0  0
    0.0635    2.6523   -0.7972 N   0  0  0  0  0  0  0  0  0  0  0  0
    0.7965    2.1954   -1.3306 H   0  0  0  0  0  0  0  0  0  0  0  0
   -0.2909    4.0287   -1.1259 C   0  0  0  0  0  0  0  0  0  0  0  0
   -0.1594    4.6768   -0.2530 H   0  0  0  0  0  0  0  0  0  0  0  0
    0.3485    4.4017   -1.9318 H   0  0  0  0  0  0  0  0  0  0  0  0
   -1.3332    4.0885   -1.4564 H   0  0  0  0  0  0  0  0  0  0  0  0
  1  2  1  0  0  0  0
  2  3  1  0  0  0  0
  2  4  1  0  0  0  0
  2  5  1  0  0  0  0
  5  6  2  0  0  0  0
  5  7  1  0  0  0  0
  7  8  1  0  0  0  0
  7  9  1  0  0  0  0
  9 10  1  0  0  0  0
  9 11  1  0  0  0  0
  9 24  1  0  0  0  0
 11 12  1  0  0  0  0
 11 13  1  0  0  0  0
 11 17  1  0  0  0  0
 13 14  1  0  0  0  0
 13 15  1  0  0  0  0
 13 16  1  0  0  0  0
 17 18  1  0  0  0  0
 17 19  1  0  0  0  0
 17 20  1  0  0  0  0
 20 21  1  0  0  0  0
 20 22  1  0  0  0  0
 20 23  1  0  0  0  0
 24 25  2  0  0  0  0
 24 26  1  0  0  0  0
 26 27  1  0  0  0  0
 26 28  1  0  0  0  0
 28 29  1  0  0  0  0
 28 30  1  0  0  0  0
 28 31  1  0  0  0  0
M  END
$$$$

  -OEChem-01062216083D

 31 30  0     1  0  0  0  0  0999 V2000
   -3.4994   -2.7971    1.6193 H   0  0  0  0  0  0  0  0  0  0  0  0
   -3.3988   -1.8146    1.1498 C   0  0  0  0  0  0  0  0  0  0  0  0
   -4.0134   -1.0969    1.6987 H   0  0  0  0  0  0  0  0  0  0  0  0
   -3.7565   -1.8787    0.1194 H   0  0  0  0  0  0  0  0  0  0  0  0
   -1.9476   -1.3728    1.1674 C   0  0  0  0  0  0  0  0  0  0  0  0
   -1.1275   -2.0292    1.7885 O   0  0  0  0  0  0  0  0  0  0  0  0
   -1.6056   -0.1624    0.5998 N   0  0  0  0  0  0  0  0  0  0  0  0
   -2.3832    0.4499    0.3596 H   0  0  0  0  0  0  0  0  0  0  0  0
   -0.2517    0.4189    0.4814 C   0  0  1  0  0  0  0  0  0  0  0  0
    0.2646    0.3746    1.4463 H   0  0  0  0  0  0  0  0  0  0  0  0
    0.6646   -0.2037   -0.6376 C   0  0  1  0  0  0  0  0  0  0  0  0
    0.1659   -0.0746   -1.6039 H   0  0  0  0  0  0  0  0  0  0  0  0
    2.0549    0.4926   -0.6526 C   0  0  0  0  0  0  0  0  0  0  0  0
    2.6642    0.1486    0.1898 H   0  0  0  0  0  0  0  0  0  0  0  0
    2.5862    0.2626   -1.5805 H   0  0  0  0  0  0  0  0  0  0  0  0
    2.0017    1.5782   -0.5756 H   0  0  0  0  0  0  0  0  0  0  0  0
    0.9887   -1.7055   -0.4340 C   0  0  0  0  0  0  0  0  0  0  0  0
    1.5943   -1.8616    0.4651 H   0  0  0  0  0  0  0  0  0  0  0  0
    0.0573   -2.2547   -0.3076 H   0  0  0  0  0  0  0  0  0  0  0  0
    1.6538   -2.3520   -1.6552 C   0  0  0  0  0  0  0  0  0  0  0  0
    2.6722   -1.9794   -1.7951 H   0  0  0  0  0  0  0  0  0  0  0  0
    1.7089   -3.4360   -1.5152 H   0  0  0  0  0  0  0  0  0  0  0  0
    1.0747   -2.1503   -2.5615 H   0  0  0  0  0  0  0  0  0  0  0  0
   -0.5877    1.9063    0.1445 C   0  0  0  0  0  0  0  0  0  0  0  0
   -1.3426    2.5230    0.8875 O   0  0  0  0  0  0  0  0  0  0  0  0
   -0.1917    2.5559   -1.0139 N   0  0  0  0  0  0  0  0  0  0  0  0
    0.3944    2.0354   -1.6598 H   0  0  0  0  0  0  0  0  0  0  0  0
   -0.5674    3.9253   -1.3483 C   0  0  0  0  0  0  0  0  0  0  0  0
   -0.1855    4.6219   -0.5946 H   0  0  0  0  0  0  0  0  0  0  0  0
   -0.1504    4.2052   -2.3203 H   0  0  0  0  0  0  0  0  0  0  0  0
   -1.6569    4.0237   -1.3993 H   0  0  0  0  0  0  0  0  0  0  0  0
  1  2  1  0  0  0  0
  2  3  1  0  0  0  0
  2  4  1  0  0  0  0
  2  5  1  0  0  0  0
  5  6  2  0  0  0  0
  5  7  1  0  0  0  0
  7  8  1  0  0  0  0
  7  9  1  0  0  0  0
  9 10  1  0  0  0  0
  9 11  1  0  0  0  0
  9 24  1  0  0  0  0
 11 12  1  0  0  0  0
 11 13  1  0  0  0  0
 11 17  1  0  0  0  0
 13 14  1  0  0  0  0
 13 15  1  0  0  0  0
 13 16  1  0  0  0  0
 17 18  1  0  0  0  0
 17 19  1  0  0  0  0
 17 20  1  0  0  0  0
 20 21  1  0  0  0  0
 20 22  1  0  0  0  0
 20 23  1  0  0  0  0
 24 25  2  0  0  0  0
 24 26  1  0  0  0  0
 26 27  1  0  0  0  0
 26 28  1  0  0  0  0
 28 29  1  0  0  0  0
 28 30  1  0  0  0  0
 28 31  1  0  0  0  0
M  END
$$$$

  -OEChem-01062216083D

 31 30  0     1  0  0  0  0  0999 V2000
   -3.4636   -2.8518    1.6128 H   0  0  0  0  0  0  0  0  0  0  0  0
   -3.3842   -1.8686    1.1408 C   0  0  0  0  0  0  0  0  0  0  0  0
   -4.0313   -1.1682    1.6745 H   0  0  0  0  0  0  0  0  0  0  0  0
   -3.7198   -1.9485    0.1042 H   0  0  0  0  0  0  0  0  0  0  0  0
   -1.9481   -1.3816    1.1853 C   0  0  0  0  0  0  0  0  0  0  0  0
   -1.1207   -2.0091    1.8260 O   0  0  0  0  0  0  0  0  0  0  0  0
   -1.6291   -0.1671    0.6122 N   0  0  0  0  0  0  0  0  0  0  0  0
   -2.4157    0.3955    0.2970 H   0  0  0  0  0  0  0  0  0  0  0  0
   -0.2835    0.4293    0.4773 C   0  0  1  0  0  0  0  0  0  0  0  0
    0.2399    0.3870    1.4389 H   0  0  0  0  0  0  0  0  0  0  0  0
    0.6328   -0.1933   -0.6410 C   0  0  1  0  0  0  0  0  0  0  0  0
    0.1178   -0.0987   -1.6026 H   0  0  0  0  0  0  0  0  0  0  0  0
    1.9917    0.5540   -0.6948 C   0  0  0  0  0  0  0  0  0  0  0  0
    2.5803    0.3350    0.2021 H   0  0  0  0  0  0  0  0  0  0  0  0
    2.5683    0.2468   -1.5712 H   0  0  0  0  0  0  0  0  0  0  0  0
    1.8812    1.6376   -0.7557 H   0  0  0  0  0  0  0  0  0  0  0  0
    0.9802   -1.6864   -0.4215 C   0  0  0  0  0  0  0  0  0  0  0  0
    1.5998   -1.8148    0.4724 H   0  0  0  0  0  0  0  0  0  0  0  0
    0.0597   -2.2485   -0.2749 H   0  0  0  0  0  0  0  0  0  0  0  0
    1.6448   -2.3427   -1.6375 C   0  0  0  0  0  0  0  0  0  0  0  0
    2.6587   -1.9630   -1.7891 H   0  0  0  0  0  0  0  0  0  0  0  0
    1.7115   -3.4240   -1.4823 H   0  0  0  0  0  0  0  0  0  0  0  0
    1.0584   -2.1597   -2.5431 H   0  0  0  0  0  0  0  0  0  0  0  0
   -0.5997    1.9150    0.1433 C   0  0  0  0  0  0  0  0  0  0  0  0
   -1.1191    2.6163    1.0010 O   0  0  0  0  0  0  0  0  0  0  0  0
   -0.4640    2.4571   -1.1253 N   0  0  0  0  0  0  0  0  0  0  0  0
   -0.0407    1.8701   -1.8379 H   0  0  0  0  0  0  0  0  0  0  0  0
   -0.7976    3.8383   -1.4544 C   0  0  0  0  0  0  0  0  0  0  0  0
   -0.1880    4.5301   -0.8637 H   0  0  0  0  0  0  0  0  0  0  0  0
   -0.6099    4.0306   -2.5150 H   0  0  0  0  0  0  0  0  0  0  0  0
   -1.8548    4.0374   -1.2497 H   0  0  0  0  0  0  0  0  0  0  0  0
  1  2  1  0  0  0  0
  2  3  1  0  0  0  0
  2  4  1  0  0  0  0
  2  5  1  0  0  0  0
  5  6  2  0  0  0  0
  5  7  1  0  0  0  0
  7  8  1  0  0  0  0
  7  9  1  0  0  0  0
  9 10  1  0  0  0  0
  9 11  1  0  0  0  0
  9 24  1  0  0  0  0
 11 12  1  0  0  0  0
 11 13  1  0  0  0  0
 11 17  1  0  0  0  0
 13 14  1  0  0  0  0
 13 15  1  0  0  0  0
 13 16  1  0  0  0  0
 17 18  1  0  0  0  0
 17 19  1  0  0  0  0
 17 20  1  0  0  0  0
 20 21  1  0  0  0  0
 20 22  1  0  0  0  0
 20 23  1  0  0  0  0
 24 25  2  0  0  0  0
 24 26  1  0  0  0  0
 26 27  1  0  0  0  0
 26 28  1  0  0  0  0
 28 29  1  0  0  0  0
 28 30  1  0  0  0  0
 28 31  1  0  0  0  0
M  END
$$$$

  -OEChem-01062216083D

 31 30  0     1  0  0  0  0  0999 V2000
   -3.4226   -2.9124    1.6046 H   0  0  0  0  0  0  0  0  0  0  0  0
   -3.3681   -1.9247    1.1380 C   0  0  0  0  0  0  0  0  0  0  0  0
   -4.0482   -1.2494    1.6627 H   0  0  0  0  0  0  0  0  0  0  0  0
   -3.6822   -2.0116    0.0952 H   0  0  0  0  0  0  0  0  0  0  0  0
   -1.9501   -1.3901    1.2112 C   0  0  0  0  0  0  0  0  0  0  0  0
   -1.1156   -1.9894    1.8690 O   0  0  0  0  0  0  0  0  0  0  0  0
   -1.6542   -0.1714    0.6339 N   0  0  0  0  0  0  0  0  0  0  0  0
   -2.4422    0.3386    0.2436 H   0  0  0  0  0  0  0  0  0  0  0  0
   -0.3154    0.4382    0.4887 C   0  0  1  0  0  0  0  0  0  0  0  0
    0.2140    0.3929    1.4472 H   0  0  0  0  0  0  0  0  0  0  0  0
    0.5975   -0.1807   -0.6339 C   0  0  1  0  0  0  0  0  0  0  0  0
    0.0661   -0.1084   -1.5881 H   0  0  0  0  0  0  0  0  0  0  0  0
    1.9276    0.6078   -0.7277 C   0  0  0  0  0  0  0  0  0  0  0  0
    2.5063    0.4838    0.1934 H   0  0  0  0  0  0  0  0  0  0  0  0
    2.5328    0.2568   -1.5669 H   0  0  0  0  0  0  0  0  0  0  0  0
    1.7677    1.6770   -0.8834 H   0  0  0  0  0  0  0  0  0  0  0  0
    0.9641   -1.6686   -0.4129 C   0  0  0  0  0  0  0  0  0  0  0  0
    1.5987   -1.7810    0.4725 H   0  0  0  0  0  0  0  0  0  0  0  0
    0.0535   -2.2421   -0.2487 H   0  0  0  0  0  0  0  0  0  0  0  0
    1.6251   -2.3227   -1.6324 C   0  0  0  0  0  0  0  0  0  0  0  0
    2.6366   -1.9389   -1.7893 H   0  0  0  0  0  0  0  0  0  0  0  0
    1.6975   -3.4035   -1.4774 H   0  0  0  0  0  0  0  0  0  0  0  0
    1.0335   -2.1427   -2.5352 H   0  0  0  0  0  0  0  0  0  0  0  0
   -0.6066    1.9242    0.1555 C   0  0  0  0  0  0  0  0  0  0  0  0
   -0.8273    2.7124    1.0635 O   0  0  0  0  0  0  0  0  0  0  0  0
   -0.7534    2.3732   -1.1474 N   0  0  0  0  0  0  0  0  0  0  0  0
   -0.5419    1.7153   -1.8916 H   0  0  0  0  0  0  0  0  0  0  0  0
   -1.0435    3.7601   -1.4924 C   0  0  0  0  0  0  0  0  0  0  0  0
   -0.2496    4.4201   -1.1269 H   0  0  0  0  0  0  0  0  0  0  0  0
   -1.1147    3.8730   -2.5785 H   0  0  0  0  0  0  0  0  0  0  0  0
   -1.9945    4.0749   -1.0500 H   0  0  0  0  0  0  0  0  0  0  0  0
  1  2  1  0  0  0  0
  2  3  1  0  0  0  0
  2  4  1  0  0  0  0
  2  5  1  0  0  0  0
  5  6  2  0  0  0  0
  5  7  1  0  0  0  0
  7  8  1  0  0  0  0
  7  9  1  0  0  0  0
  9 10  1  0  0  0  0
  9 11  1  0  0  0  0
  9 24  1  0  0  0  0
 11 12  1  0  0  0  0
 11 13  1  0  0  0  0
 11 17  1  0  0  0  0
 13 14  1  0  0  0  0
 13 15  1  0  0  0  0
 13 16  1  0  0  0  0
 17 18  1  0  0  0  0
 17 19  1  0  0  0  0
 17 20  1  0  0  0  0
 20 21  1  0  0  0  0
 20 22  1  0  0  0  0
 20 23  1  0  0  0  0
 24 25  2  0  0  0  0
 24 26  1  0  0  0  0
 26 27  1  0  0  0  0
 26 28  1  0  0  0  0
 28 29  1  0  0  0  0
 28 30  1  0  0  0  0
 28 31  1  0  0  0  0
M  END
$$$$

  -OEChem-01062216083D

 31 30  0     1  0  0  0  0  0999 V2000
   -3.4036   -2.9494    1.6249 H   0  0  0  0  0  0  0  0  0  0  0  0
   -3.3611   -1.9647    1.1506 C   0  0  0  0  0  0  0  0  0  0  0  0
   -4.0557   -1.2959    1.6649 H   0  0  0  0  0  0  0  0  0  0  0  0
   -3.6661   -2.0651    0.1063 H   0  0  0  0  0  0  0  0  0  0  0  0
   -1.9522   -1.4074    1.2303 C   0  0  0  0  0  0  0  0  0  0  0  0
   -1.1110   -1.9926    1.8918 O   0  0  0  0  0  0  0  0  0  0  0  0
   -1.6728   -0.1851    0.6518 N   0  0  0  0  0  0  0  0  0  0  0  0
   -2.4620    0.2981    0.2318 H   0  0  0  0  0  0  0  0  0  0  0  0
   -0.3398    0.4381    0.5069 C   0  0  1  0  0  0  0  0  0  0  0  0
    0.1940    0.3883    1.4629 H   0  0  0  0  0  0  0  0  0  0  0  0
    0.5698   -0.1647   -0.6257 C   0  0  1  0  0  0  0  0  0  0  0  0
    0.0277   -0.0941   -1.5740 H   0  0  0  0  0  0  0  0  0  0  0  0
    1.8806    0.6506   -0.7392 C   0  0  0  0  0  0  0  0  0  0  0  0
    2.4520    0.5803    0.1920 H   0  0  0  0  0  0  0  0  0  0  0  0
    2.5050    0.2832   -1.5570 H   0  0  0  0  0  0  0  0  0  0  0  0
    1.6891    1.7072   -0.9440 H   0  0  0  0  0  0  0  0  0  0  0  0
    0.9485   -1.6511   -0.4170 C   0  0  0  0  0  0  0  0  0  0  0  0
    1.5921   -1.7611    0.4622 H   0  0  0  0  0  0  0  0  0  0  0  0
    0.0441   -2.2326   -0.2465 H   0  0  0  0  0  0  0  0  0  0  0  0
    1.6062   -2.2938   -1.6441 C   0  0  0  0  0  0  0  0  0  0  0  0
    2.6132   -1.9006   -1.8071 H   0  0  0  0  0  0  0  0  0  0  0  0
    1.6896   -3.3747   -1.4945 H   0  0  0  0  0  0  0  0  0  0  0  0
    1.0062   -2.1152   -2.5416 H   0  0  0  0  0  0  0  0  0  0  0  0
   -0.6180    1.9223    0.1726 C   0  0  0  0  0  0  0  0  0  0  0  0
   -0.5324    2.7729    1.0459 O   0  0  0  0  0  0  0  0  0  0  0  0
   -1.0533    2.3037   -1.0861 N   0  0  0  0  0  0  0  0  0  0  0  0
   -1.0467    1.5945   -1.8129 H   0  0  0  0  0  0  0  0  0  0  0  0
   -1.3052    3.6913   -1.4565 C   0  0  0  0  0  0  0  0  0  0  0  0
   -0.3942    4.2889   -1.3459 H   0  0  0  0  0  0  0  0  0  0  0  0
   -1.6349    3.7516   -2.4981 H   0  0  0  0  0  0  0  0  0  0  0  0
   -2.0873    4.1213   -0.8217 H   0  0  0  0  0  0  0  0  0  0  0  0
  1  2  1  0  0  0  0
  2  3  1  0  0  0  0
  2  4  1  0  0  0  0
  2  5  1  0  0  0  0
  5  6  2  0  0  0  0
  5  7  1  0  0  0  0
  7  8  1  0  0  0  0
  7  9  1  0  0  0  0
  9 10  1  0  0  0  0
  9 11  1  0  0  0  0
  9 24  1  0  0  0  0
 11 12  1  0  0  0  0
 11 13  1  0  0  0  0
 11 17  1  0  0  0  0
 13 14  1  0  0  0  0
 13 15  1  0  0  0  0
 13 16  1  0  0  0  0
 17 18  1  0  0  0  0
 17 19  1  0  0  0  0
 17 20  1  0  0  0  0
 20 21  1  0  0  0  0
 20 22  1  0  0  0  0
 20 23  1  0  0  0  0
 24 25  2  0  0  0  0
 24 26  1  0  0  0  0
 26 27  1  0  0  0  0
 26 28  1  0  0  0  0
 28 29  1  0  0  0  0
 28 30  1  0  0  0  0
 28 31  1  0  0  0  0
M  END
$$$$

  -OEChem-01062216083D

 31 30  0     1  0  0  0  0  0999 V2000
   -3.3860   -2.9786    1.6371 H   0  0  0  0  0  0  0  0  0  0  0  0
   -3.3540   -1.9923    1.1658 C   0  0  0  0  0  0  0  0  0  0  0  0
   -4.0549   -1.3325    1.6829 H   0  0  0  0  0  0  0  0  0  0  0  0
   -3.6586   -2.0926    0.1215 H   0  0  0  0  0  0  0  0  0  0  0  0
   -1.9507   -1.4214    1.2461 C   0  0  0  0  0  0  0  0  0  0  0  0
   -1.1038   -1.9975    1.9080 O   0  0  0  0  0  0  0  0  0  0  0  0
   -1.6816   -0.1969    0.6667 N   0  0  0  0  0  0  0  0  0  0  0  0
   -2.4754    0.2842    0.2532 H   0  0  0  0  0  0  0  0  0  0  0  0
   -0.3523    0.4379    0.5304 C   0  0  1  0  0  0  0  0  0  0  0  0
    0.1839    0.3847    1.4848 H   0  0  0  0  0  0  0  0  0  0  0  0
    0.5505   -0.1500   -0.6143 C   0  0  1  0  0  0  0  0  0  0  0  0
   -0.0008   -0.0682   -1.5567 H   0  0  0  0  0  0  0  0  0  0  0  0
    1.8564    0.6717   -0.7352 C   0  0  0  0  0  0  0  0  0  0  0  0
    2.4260    0.6179    0.1981 H   0  0  0  0  0  0  0  0  0  0  0  0
    2.4856    0.2994   -1.5467 H   0  0  0  0  0  0  0  0  0  0  0  0
    1.6558    1.7237   -0.9555 H   0  0  0  0  0  0  0  0  0  0  0  0
    0.9320   -1.6384   -0.4242 C   0  0  0  0  0  0  0  0  0  0  0  0
    1.5826   -1.7557    0.4489 H   0  0  0  0  0  0  0  0  0  0  0  0
    0.0301   -2.2236   -0.2523 H   0  0  0  0  0  0  0  0  0  0  0  0
    1.5827   -2.2680   -1.6619 C   0  0  0  0  0  0  0  0  0  0  0  0
    2.5887   -1.8738   -1.8266 H   0  0  0  0  0  0  0  0  0  0  0  0
    1.6665   -3.3505   -1.5245 H   0  0  0  0  0  0  0  0  0  0  0  0
    0.9775   -2.0792   -2.5539 H   0  0  0  0  0  0  0  0  0  0  0  0
   -0.6244    1.9205    0.1912 C   0  0  0  0  0  0  0  0  0  0  0  0
   -0.2793    2.8043    0.9617 O   0  0  0  0  0  0  0  0  0  0  0  0
   -1.3295    2.2623   -0.9513 N   0  0  0  0  0  0  0  0  0  0  0  0
   -1.4842    1.5253   -1.6325 H   0  0  0  0  0  0  0  0  0  0  0  0
   -1.5756    3.6446   -1.3448 C   0  0  0  0  0  0  0  0  0  0  0  0
   -0.6292    4.1754   -1.4925 H   0  0  0  0  0  0  0  0  0  0  0  0
   -2.1415    3.6773   -2.2808 H   0  0  0  0  0  0  0  0  0  0  0  0
   -2.1543    4.1646   -0.5739 H   0  0  0  0  0  0  0  0  0  0  0  0
  1  2  1  0  0  0  0
  2  3  1  0  0  0  0
  2  4  1  0  0  0  0
  2  5  1  0  0  0  0
  5  6  2  0  0  0  0
  5  7  1  0  0  0  0
  7  8  1  0  0  0  0
  7  9  1  0  0  0  0
  9 10  1  0  0  0  0
  9 11  1  0  0  0  0
  9 24  1  0  0  0  0
 11 12  1  0  0  0  0
 11 13  1  0  0  0  0
 11 17  1  0  0  0  0
 13 14  1  0  0  0  0
 13 15  1  0  0  0  0
 13 16  1  0  0  0  0
 17 18  1  0  0  0  0
 17 19  1  0  0  0  0
 17 20  1  0  0  0  0
 20 21  1  0  0  0  0
 20 22  1  0  0  0  0
 20 23  1  0  0  0  0
 24 25  2  0  0  0  0
 24 26  1  0  0  0  0
 26 27  1  0  0  0  0
 26 28  1  0  0  0  0
 28 29  1  0  0  0  0
 28 30  1  0  0  0  0
 28 31  1  0  0  0  0
M  END
$$$$

  -OEChem-01062216083D

 31 30  0     1  0  0  0  0  0999 V2000
   -3.3787   -2.9960    1.6541 H   0  0  0  0  0  0  0  0  0  0  0  0
   -3.3498   -2.0097    1.1822 C   0  0  0  0  0  0  0  0  0  0  0  0
   -4.0483   -1.3500    1.7027 H   0  0  0  0  0  0  0  0  0  0  0  0
   -3.6599   -2.1108    0.1396 H   0  0  0  0  0  0  0  0  0  0  0  0
   -1.9464   -1.4380    1.2543 C   0  0  0  0  0  0  0  0  0  0  0  0
   -1.0959   -2.0132    1.9121 O   0  0  0  0  0  0  0  0  0  0  0  0
   -1.6829   -0.2124    0.6744 N   0  0  0  0  0  0  0  0  0  0  0  0
   -2.4861    0.2840    0.2998 H   0  0  0  0  0  0  0  0  0  0  0  0
   -0.3573    0.4359    0.5492 C   0  0  1  0  0  0  0  0  0  0  0  0
    0.1798    0.3805    1.5031 H   0  0  0  0  0  0  0  0  0  0  0  0
    0.5402   -0.1422   -0.6054 C   0  0  1  0  0  0  0  0  0  0  0  0
   -0.0204   -0.0520   -1.5416 H   0  0  0  0  0  0  0  0  0  0  0  0
    1.8462    0.6782   -0.7383 C   0  0  0  0  0  0  0  0  0  0  0  0
    2.4159    0.6390    0.1956 H   0  0  0  0  0  0  0  0  0  0  0  0
    2.4759    0.2956   -1.5444 H   0  0  0  0  0  0  0  0  0  0  0  0
    1.6450    1.7262   -0.9760 H   0  0  0  0  0  0  0  0  0  0  0  0
    0.9235   -1.6323   -0.4281 C   0  0  0  0  0  0  0  0  0  0  0  0
    1.5771   -1.7564    0.4419 H   0  0  0  0  0  0  0  0  0  0  0  0
    0.0224   -2.2189   -0.2581 H   0  0  0  0  0  0  0  0  0  0  0  0
    1.5684   -2.2546   -1.6723 C   0  0  0  0  0  0  0  0  0  0  0  0
    2.5799   -1.8714   -1.8296 H   0  0  0  0  0  0  0  0  0  0  0  0
    1.6386   -3.3395   -1.5477 H   0  0  0  0  0  0  0  0  0  0  0  0
    0.9674   -2.0476   -2.5630 H   0  0  0  0  0  0  0  0  0  0  0  0
   -0.6248    1.9184    0.2028 C   0  0  0  0  0  0  0  0  0  0  0  0
   -0.0875    2.8100    0.8440 O   0  0  0  0  0  0  0  0  0  0  0  0
   -1.5622    2.2549   -0.7611 N   0  0  0  0  0  0  0  0  0  0  0  0
   -1.8554    1.5113   -1.3868 H   0  0  0  0  0  0  0  0  0  0  0  0
   -1.8280    3.6352   -1.1492 C   0  0  0  0  0  0  0  0  0  0  0  0
   -0.9186    4.1066   -1.5365 H   0  0  0  0  0  0  0  0  0  0  0  0
   -2.5954    3.6686   -1.9284 H   0  0  0  0  0  0  0  0  0  0  0  0
   -2.1852    4.2128   -0.2900 H   0  0  0  0  0  0  0  0  0  0  0  0
  1  2  1  0  0  0  0
  2  3  1  0  0  0  0
  2  4  1  0  0  0  0
  2  5  1  0  0  0  0
  5  6  2  0  0  0  0
  5  7  1  0  0  0  0
  7  8  1  0  0  0  0
  7  9  1  0  0  0  0
  9 10  1  0  0  0  0
  9 11  1  0  0  0  0
  9 24  1  0  0  0  0
 11 12  1  0  0  0  0
 11 13  1  0  0  0  0
 11 17  1  0  0  0  0
 13 14  1  0  0  0  0
 13 15  1  0  0  0  0
 13 16  1  0  0  0  0
 17 18  1  0  0  0  0
 17 19  1  0  0  0  0
 17 20  1  0  0  0  0
 20 21  1  0  0  0  0
 20 22  1  0  0  0  0
 20 23  1  0  0  0  0
 24 25  2  0  0  0  0
 24 26  1  0  0  0  0
 26 27  1  0  0  0  0
 26 28  1  0  0  0  0
 28 29  1  0  0  0  0
 28 30  1  0  0  0  0
 28 31  1  0  0  0  0
M  END
$$$$

  -OEChem-01062216083D

 31 30  0     1  0  0  0  0  0999 V2000
   -3.3500   -3.0228    1.6687 H   0  0  0  0  0  0  0  0  0  0  0  0
   -3.3312   -2.0402    1.1886 C   0  0  0  0  0  0  0  0  0  0  0  0
   -4.0388   -1.3843    1.7016 H   0  0  0  0  0  0  0  0  0  0  0  0
   -3.6376   -2.1542    0.1461 H   0  0  0  0  0  0  0  0  0  0  0  0
   -1.9343   -1.4524    1.2591 C   0  0  0  0  0  0  0  0  0  0  0  0
   -1.0806   -2.0118    1.9262 O   0  0  0  0  0  0  0  0  0  0  0  0
   -1.6831   -0.2263    0.6741 N   0  0  0  0  0  0  0  0  0  0  0  0
   -2.4960    0.2714    0.3258 H   0  0  0  0  0  0  0  0  0  0  0  0
   -0.3636    0.4393    0.5553 C   0  0  1  0  0  0  0  0  0  0  0  0
    0.1739    0.3881    1.5091 H   0  0  0  0  0  0  0  0  0  0  0  0
    0.5298   -0.1471   -0.6029 C   0  0  1  0  0  0  0  0  0  0  0  0
   -0.0395   -0.0643   -1.5350 H   0  0  0  0  0  0  0  0  0  0  0  0
    1.8352    0.6711   -0.7582 C   0  0  0  0  0  0  0  0  0  0  0  0
    2.3908    0.6820    0.1850 H   0  0  0  0  0  0  0  0  0  0  0  0
    2.4806    0.2554   -1.5341 H   0  0  0  0  0  0  0  0  0  0  0  0
    1.6313    1.7037   -1.0533 H   0  0  0  0  0  0  0  0  0  0  0  0
    0.9196   -1.6362   -0.4212 C   0  0  0  0  0  0  0  0  0  0  0  0
    1.5786   -1.7534    0.4455 H   0  0  0  0  0  0  0  0  0  0  0  0
    0.0224   -2.2256   -0.2442 H   0  0  0  0  0  0  0  0  0  0  0  0
    1.5583   -2.2666   -1.6653 C   0  0  0  0  0  0  0  0  0  0  0  0
    2.5733   -1.8939   -1.8261 H   0  0  0  0  0  0  0  0  0  0  0  0
    1.6190   -3.3518   -1.5382 H   0  0  0  0  0  0  0  0  0  0  0  0
    0.9574   -2.0568   -2.5555 H   0  0  0  0  0  0  0  0  0  0  0  0
   -0.6242    1.9245    0.1979 C   0  0  0  0  0  0  0  0  0  0  0  0
    0.0505    2.8053    0.7130 O   0  0  0  0  0  0  0  0  0  0  0  0
   -1.7403    2.2958   -0.5376 N   0  0  0  0  0  0  0  0  0  0  0  0
   -2.1597    1.5724   -1.1120 H   0  0  0  0  0  0  0  0  0  0  0  0
   -2.0325    3.6871   -0.8657 C   0  0  0  0  0  0  0  0  0  0  0  0
   -1.2193    4.1209   -1.4572 H   0  0  0  0  0  0  0  0  0  0  0  0
   -2.9577    3.7530   -1.4460 H   0  0  0  0  0  0  0  0  0  0  0  0
   -2.1575    4.2790    0.0473 H   0  0  0  0  0  0  0  0  0  0  0  0
  1  2  1  0  0  0  0
  2  3  1  0  0  0  0
  2  4  1  0  0  0  0
  2  5  1  0  0  0  0
  5  6  2  0  0  0  0
  5  7  1  0  0  0  0
  7  8  1  0  0  0  0
  7  9  1  0  0  0  0
  9 10  1  0  0  0  0
  9 11  1  0  0  0  0
  9 24  1  0  0  0  0
 11 12  1  0  0  0  0
 11 13  1  0  0  0  0
 11 17  1  0  0  0  0
 13 14  1  0  0  0  0
 13 15  1  0  0  0  0
 13 16  1  0  0  0  0
 17 18  1  0  0  0  0
 17 19  1  0  0  0  0
 17 20  1  0  0  0  0
 20 21  1  0  0  0  0
 20 22  1  0  0  0  0
 20 23  1  0  0  0  0
 24 25  2  0  0  0  0
 24 26  1  0  0  0  0
 26 27  1  0  0  0  0
 26 28  1  0  0  0  0
 28 29  1  0  0  0  0
 28 30  1  0  0  0  0
 28 31  1  0  0  0  0
M  END
$$$$

  -OEChem-01062216083D

 31 30  0     1  0  0  0  0  0999 V2000
   -3.1126   -3.1326    1.5597 H   0  0  0  0  0  0  0  0  0  0  0  0
   -3.1464   -2.1797    1.0238 C   0  0  0  0  0  0  0  0  0  0  0  0
   -4.0308   -1.6256    1.3472 H   0  0  0  0  0  0  0  0  0  0  0  0
   -3.2206   -2.3830   -0.0472 H   0  0  0  0  0  0  0  0  0  0  0  0
   -1.8941   -1.3745    1.3147 C   0  0  0  0  0  0  0  0  0  0  0  0
   -1.0927   -1.7761    2.1413 O   0  0  0  0  0  0  0  0  0  0  0  0
   -1.7028   -0.1550    0.6948 N   0  0  0  0  0  0  0  0  0  0  0  0
   -2.3807    0.0280   -0.0357 H   0  0  0  0  0  0  0  0  0  0  0  0
   -0.3833    0.5089    0.5350 C   0  0  1  0  0  0  0  0  0  0  0  0
    0.1686    0.4782    1.4814 H   0  0  0  0  0  0  0  0  0  0  0  0
    0.4813   -0.1606   -0.6081 C   0  0  1  0  0  0  0  0  0  0  0  0
   -0.1129   -0.1298   -1.5275 H   0  0  0  0  0  0  0  0  0  0  0  0
    1.7919    0.6223   -0.8649 C   0  0  0  0  0  0  0  0  0  0  0  0
    2.3416    0.7620    0.0714 H   0  0  0  0  0  0  0  0  0  0  0  0
    2.4447    0.1086   -1.5721 H   0  0  0  0  0  0  0  0  0  0  0  0
    1.5878    1.6021   -1.3037 H   0  0  0  0  0  0  0  0  0  0  0  0
    0.8595   -1.6446   -0.3434 C   0  0  0  0  0  0  0  0  0  0  0  0
    1.5389   -1.7112    0.5130 H   0  0  0  0  0  0  0  0  0  0  0  0
   -0.0322   -2.2190   -0.1057 H   0  0  0  0  0  0  0  0  0  0  0  0
    1.4642   -2.3654   -1.5556 C   0  0  0  0  0  0  0  0  0  0  0  0
    2.4850   -2.0299   -1.7542 H   0  0  0  0  0  0  0  0  0  0  0  0
    1.5020   -3.4417   -1.3621 H   0  0  0  0  0  0  0  0  0  0  0  0
    0.8540   -2.1969   -2.4480 H   0  0  0  0  0  0  0  0  0  0  0  0
   -0.6196    2.0005    0.1595 C   0  0  0  0  0  0  0  0  0  0  0  0
    0.2395    2.8410    0.3902 O   0  0  0  0  0  0  0  0  0  0  0  0
   -1.8536    2.4599   -0.2780 N   0  0  0  0  0  0  0  0  0  0  0  0
   -2.6298    1.8136   -0.2206 H   0  0  0  0  0  0  0  0  0  0  0  0
   -2.1522    3.8772   -0.4562 C   0  0  0  0  0  0  0  0  0  0  0  0
   -1.4476    4.3323   -1.1606 H   0  0  0  0  0  0  0  0  0  0  0  0
   -3.1637    4.0042   -0.8534 H   0  0  0  0  0  0  0  0  0  0  0  0
   -2.0847    4.4064    0.5002 H   0  0  0  0  0  0  0  0  0  0  0  0
  1  2  1  0  0  0  0
  2  3  1  0  0  0  0
  2  4  1  0  0  0  0
  2  5  1  0  0  0  0
  5  6  2  0  0  0  0
  5  7  1  0  0  0  0
  7  8  1  0  0  0  0
  7  9  1  0  0  0  0
  9 10  1  0  0  0  0
  9 11  1  0  0  0  0
  9 24  1  0  0  0  0
 11 12  1  0  0  0  0
 11 13  1  0  0  0  0
 11 17  1  0  0  0  0
 13 14  1  0  0  0  0
 13 15  1  0  0  0  0
 13 16  1  0  0  0  0
 17 18  1  0  0  0  0
 17 19  1  0  0  0  0
 17 20  1  0  0  0  0
 20 21  1  0  0  0  0
 20 22  1  0  0  0  0
 20 23  1  0  0  0  0
 24 25  2  0  0  0  0
 24 26  1  0  0  0  0
 26 27  1  0  0  0  0
 26 28  1  0  0  0  0
 28 29  1  0  0  0  0
 28 30  1  0  0  0  0
 28 31  1  0  0  0  0
M  END
$$$$

  -OEChem-01062216083D

 31 30  0     1  0  0  0  0  0999 V2000
   -3.1250   -3.1054    1.5491 H   0  0  0  0  0  0  0  0  0  0  0  0
   -3.1399   -2.1624    0.9950 C   0  0  0  0  0  0  0  0  0  0  0  0
   -4.0266   -1.5958    1.2892 H   0  0  0  0  0  0  0  0  0  0  0  0
   -3.1937   -2.3849   -0.0734 H   0  0  0  0  0  0  0  0  0  0  0  0
   -1.8873   -1.3617    1.2974 C   0  0  0  0  0  0  0  0  0  0  0  0
   -1.0972   -1.7607    2.1360 O   0  0  0  0  0  0  0  0  0  0  0  0
   -1.6889   -0.1396    0.6861 N   0  0  0  0  0  0  0  0  0  0  0  0
   -2.3577    0.0459   -0.0550 H   0  0  0  0  0  0  0  0  0  0  0  0
   -0.3675    0.5214    0.5223 C   0  0  1  0  0  0  0  0  0  0  0  0
    0.1870    0.4941    1.4671 H   0  0  0  0  0  0  0  0  0  0  0  0
    0.4928   -0.1628   -0.6202 C   0  0  1  0  0  0  0  0  0  0  0  0
   -0.1030   -0.1366   -1.5388 H   0  0  0  0  0  0  0  0  0  0  0  0
    1.8109    0.6044   -0.8874 C   0  0  0  0  0  0  0  0  0  0  0  0
    2.3242    0.8215    0.0549 H   0  0  0  0  0  0  0  0  0  0  0  0
    2.4956    0.0446   -1.5254 H   0  0  0  0  0  0  0  0  0  0  0  0
    1.6170    1.5435   -1.4116 H   0  0  0  0  0  0  0  0  0  0  0  0
    0.8649   -1.6476   -0.3448 C   0  0  0  0  0  0  0  0  0  0  0  0
    1.5447   -1.7110    0.5115 H   0  0  0  0  0  0  0  0  0  0  0  0
   -0.0288   -2.2152   -0.1024 H   0  0  0  0  0  0  0  0  0  0  0  0
    1.4636   -2.3864   -1.5503 C   0  0  0  0  0  0  0  0  0  0  0  0
    2.4950   -2.0795   -1.7410 H   0  0  0  0  0  0  0  0  0  0  0  0
    1.4714   -3.4629   -1.3536 H   0  0  0  0  0  0  0  0  0  0  0  0
    0.8666   -2.2054   -2.4493 H   0  0  0  0  0  0  0  0  0  0  0  0
   -0.6366    2.0148    0.1594 C   0  0  0  0  0  0  0  0  0  0  0  0
    0.2596    2.8474    0.1457 O   0  0  0  0  0  0  0  0  0  0  0  0
   -1.9337    2.4947    0.0442 N   0  0  0  0  0  0  0  0  0  0  0  0
   -2.6592    1.8814    0.3985 H   0  0  0  0  0  0  0  0  0  0  0  0
   -2.2440    3.9163   -0.0745 C   0  0  0  0  0  0  0  0  0  0  0  0
   -1.7316    4.3501   -0.9399 H   0  0  0  0  0  0  0  0  0  0  0  0
   -3.3206    4.0587   -0.2076 H   0  0  0  0  0  0  0  0  0  0  0  0
   -1.9302    4.4546    0.8261 H   0  0  0  0  0  0  0  0  0  0  0  0
  1  2  1  0  0  0  0
  2  3  1  0  0  0  0
  2  4  1  0  0  0  0
  2  5  1  0  0  0  0
  5  6  2  0  0  0  0
  5  7  1  0  0  0  0
  7  8  1  0  0  0  0
  7  9  1  0  0  0  0
  9 10  1  0  0  0  0
  9 11  1  0  0  0  0
  9 24  1  0  0  0  0
 11 12  1  0  0  0  0
 11 13  1  0  0  0  0
 11 17  1  0  0  0  0
 13 14  1  0  0  0  0
 13 15  1  0  0  0  0
 13 16  1  0  0  0  0
 17 18  1  0  0  0  0
 17 19  1  0  0  0  0
 17 20  1  0  0  0  0
 20 21  1  0  0  0  0
 20 22  1  0  0  0  0
 20 23  1  0  0  0  0
 24 25  2  0  0  0  0
 24 26  1  0  0  0  0
 26 27  1  0  0  0  0
 26 28  1  0  0  0  0
 28 29  1  0  0  0  0
 28 30  1  0  0  0  0
 28 31  1  0  0  0  0
M  END
$$$$

  -OEChem-01062216083D

 31 30  0     1  0  0  0  0  0999 V2000
   -3.1541   -3.0725    1.5345 H   0  0  0  0  0  0  0  0  0  0  0  0
   -3.1489   -2.1318    0.9764 C   0  0  0  0  0  0  0  0  0  0  0  0
   -4.0285   -1.5495    1.2613 H   0  0  0  0  0  0  0  0  0  0  0  0
   -3.1983   -2.3577   -0.0916 H   0  0  0  0  0  0  0  0  0  0  0  0
   -1.8844   -1.3510    1.2822 C   0  0  0  0  0  0  0  0  0  0  0  0
   -1.0972   -1.7653    2.1164 O   0  0  0  0  0  0  0  0  0  0  0  0
   -1.6719   -0.1242    0.6860 N   0  0  0  0  0  0  0  0  0  0  0  0
   -2.3597    0.1036   -0.0269 H   0  0  0  0  0  0  0  0  0  0  0  0
   -0.3468    0.5275    0.5112 C   0  0  1  0  0  0  0  0  0  0  0  0
    0.2135    0.4978    1.4520 H   0  0  0  0  0  0  0  0  0  0  0  0
    0.5081   -0.1630   -0.6340 C   0  0  1  0  0  0  0  0  0  0  0  0
   -0.0822   -0.1318   -1.5558 H   0  0  0  0  0  0  0  0  0  0  0  0
    1.8412    0.5869   -0.8858 C   0  0  0  0  0  0  0  0  0  0  0  0
    2.2934    0.8914    0.0635 H   0  0  0  0  0  0  0  0  0  0  0  0
    2.5715   -0.0173   -1.4239 H   0  0  0  0  0  0  0  0  0  0  0  0
    1.6773    1.4729   -1.5039 H   0  0  0  0  0  0  0  0  0  0  0  0
    0.8722   -1.6498   -0.3532 C   0  0  0  0  0  0  0  0  0  0  0  0
    1.5506   -1.7156    0.5040 H   0  0  0  0  0  0  0  0  0  0  0  0
   -0.0257   -2.2107   -0.1105 H   0  0  0  0  0  0  0  0  0  0  0  0
    1.4641   -2.3987   -1.5569 C   0  0  0  0  0  0  0  0  0  0  0  0
    2.5005   -2.1098   -1.7472 H   0  0  0  0  0  0  0  0  0  0  0  0
    1.4545   -3.4749   -1.3595 H   0  0  0  0  0  0  0  0  0  0  0  0
    0.8721   -2.2088   -2.4573 H   0  0  0  0  0  0  0  0  0  0  0  0
   -0.6525    2.0243    0.1729 C   0  0  0  0  0  0  0  0  0  0  0  0
    0.2002    2.8326   -0.1635 O   0  0  0  0  0  0  0  0  0  0  0  0
   -1.9230    2.5345    0.3993 N   0  0  0  0  0  0  0  0  0  0  0  0
   -2.5390    1.9401    0.9455 H   0  0  0  0  0  0  0  0  0  0  0  0
   -2.2457    3.9548    0.3032 C   0  0  0  0  0  0  0  0  0  0  0  0
   -2.0155    4.3345   -0.6980 H   0  0  0  0  0  0  0  0  0  0  0  0
   -3.3114    4.1137    0.4932 H   0  0  0  0  0  0  0  0  0  0  0  0
   -1.6720    4.5296    1.0379 H   0  0  0  0  0  0  0  0  0  0  0  0
  1  2  1  0  0  0  0
  2  3  1  0  0  0  0
  2  4  1  0  0  0  0
  2  5  1  0  0  0  0
  5  6  2  0  0  0  0
  5  7  1  0  0  0  0
  7  8  1  0  0  0  0
  7  9  1  0  0  0  0
  9 10  1  0  0  0  0
  9 11  1  0  0  0  0
  9 24  1  0  0  0  0
 11 12  1  0  0  0  0
 11 13  1  0  0  0  0
 11 17  1  0  0  0  0
 13 14  1  0  0  0  0
 13 15  1  0  0  0  0
 13 16  1  0  0  0  0
 17 18  1  0  0  0  0
 17 19  1  0  0  0  0
 17 20  1  0  0  0  0
 20 21  1  0  0  0  0
 20 22  1  0  0  0  0
 20 23  1  0  0  0  0
 24 25  2  0  0  0  0
 24 26  1  0  0  0  0
 26 27  1  0  0  0  0
 26 28  1  0  0  0  0
 28 29  1  0  0  0  0
 28 30  1  0  0  0  0
 28 31  1  0  0  0  0
M  END
$$$$

  -OEChem-01062216083D

 31 30  0     1  0  0  0  0  0999 V2000
   -3.1966   -3.0460    1.4862 H   0  0  0  0  0  0  0  0  0  0  0  0
   -3.1934   -2.0721    0.9885 C   0  0  0  0  0  0  0  0  0  0  0  0
   -4.0357   -1.4836    1.3600 H   0  0  0  0  0  0  0  0  0  0  0  0
   -3.3110   -2.2280   -0.0867 H   0  0  0  0  0  0  0  0  0  0  0  0
   -1.8900   -1.3483    1.2686 C   0  0  0  0  0  0  0  0  0  0  0  0
   -1.0958   -1.8082    2.0718 O   0  0  0  0  0  0  0  0  0  0  0  0
   -1.6530   -0.1131    0.7012 N   0  0  0  0  0  0  0  0  0  0  0  0
   -2.3651    0.1821    0.0377 H   0  0  0  0  0  0  0  0  0  0  0  0
   -0.3173    0.5079    0.5133 C   0  0  1  0  0  0  0  0  0  0  0  0
    0.2495    0.4527    1.4490 H   0  0  0  0  0  0  0  0  0  0  0  0
    0.5334   -0.1621   -0.6414 C   0  0  1  0  0  0  0  0  0  0  0  0
   -0.0349   -0.0955   -1.5750 H   0  0  0  0  0  0  0  0  0  0  0  0
    1.8867    0.5814   -0.8161 C   0  0  0  0  0  0  0  0  0  0  0  0
    2.2390    0.9684    0.1451 H   0  0  0  0  0  0  0  0  0  0  0  0
    2.6749   -0.0548   -1.2185 H   0  0  0  0  0  0  0  0  0  0  0  0
    1.7841    1.4146   -1.5157 H   0  0  0  0  0  0  0  0  0  0  0  0
    0.8817   -1.6558   -0.3864 C   0  0  0  0  0  0  0  0  0  0  0  0
    1.5577   -1.7456    0.4705 H   0  0  0  0  0  0  0  0  0  0  0  0
   -0.0240   -2.2102   -0.1552 H   0  0  0  0  0  0  0  0  0  0  0  0
    1.4699   -2.3815   -1.6064 C   0  0  0  0  0  0  0  0  0  0  0  0
    2.4967   -2.0726   -1.8144 H   0  0  0  0  0  0  0  0  0  0  0  0
    1.4822   -3.4597   -1.4197 H   0  0  0  0  0  0  0  0  0  0  0  0
    0.8586   -2.1930   -2.4943 H   0  0  0  0  0  0  0  0  0  0  0  0
   -0.6333    2.0134    0.2235 C   0  0  0  0  0  0  0  0  0  0  0  0
   -0.0086    2.7237   -0.5501 O   0  0  0  0  0  0  0  0  0  0  0  0
   -1.7684    2.5787    0.7850 N   0  0  0  0  0  0  0  0  0  0  0  0
   -2.2327    2.0289    1.5027 H   0  0  0  0  0  0  0  0  0  0  0  0
   -2.1591    3.9727    0.6029 C   0  0  0  0  0  0  0  0  0  0  0  0
   -2.3412    4.1844   -0.4560 H   0  0  0  0  0  0  0  0  0  0  0  0
   -3.0774    4.1835    1.1590 H   0  0  0  0  0  0  0  0  0  0  0  0
   -1.3725    4.6426    0.9657 H   0  0  0  0  0  0  0  0  0  0  0  0
  1  2  1  0  0  0  0
  2  3  1  0  0  0  0
  2  4  1  0  0  0  0
  2  5  1  0  0  0  0
  5  6  2  0  0  0  0
  5  7  1  0  0  0  0
  7  8  1  0  0  0  0
  7  9  1  0  0  0  0
  9 10  1  0  0  0  0
  9 11  1  0  0  0  0
  9 24  1  0  0  0  0
 11 12  1  0  0  0  0
 11 13  1  0  0  0  0
 11 17  1  0  0  0  0
 13 14  1  0  0  0  0
 13 15  1  0  0  0  0
 13 16  1  0  0  0  0
 17 18  1  0  0  0  0
 17 19  1  0  0  0  0
 17 20  1  0  0  0  0
 20 21  1  0  0  0  0
 20 22  1  0  0  0  0
 20 23  1  0  0  0  0
 24 25  2  0  0  0  0
 24 26  1  0  0  0  0
 26 27  1  0  0  0  0
 26 28  1  0  0  0  0
 28 29  1  0  0  0  0
 28 30  1  0  0  0  0
 28 31  1  0  0  0  0
M  END
$$$$

  -OEChem-01062216083D

 31 30  0     1  0  0  0  0  0999 V2000
   -3.2593   -2.9655    1.5352 H   0  0  0  0  0  0  0  0  0  0  0  0
   -3.2316   -1.9949    1.0321 C   0  0  0  0  0  0  0  0  0  0  0  0
   -4.0431   -1.3742    1.4193 H   0  0  0  0  0  0  0  0  0  0  0  0
   -3.3791   -2.1508   -0.0392 H   0  0  0  0  0  0  0  0  0  0  0  0
   -1.8966   -1.3182    1.2786 C   0  0  0  0  0  0  0  0  0  0  0  0
   -1.0962   -1.8104    2.0568 O   0  0  0  0  0  0  0  0  0  0  0  0
   -1.6329   -0.0882    0.7126 N   0  0  0  0  0  0  0  0  0  0  0  0
   -2.3471    0.2447    0.0689 H   0  0  0  0  0  0  0  0  0  0  0  0
   -0.2842    0.4966    0.5270 C   0  0  1  0  0  0  0  0  0  0  0  0
    0.2826    0.4294    1.4615 H   0  0  0  0  0  0  0  0  0  0  0  0
    0.5671   -0.1539   -0.6285 C   0  0  1  0  0  0  0  0  0  0  0  0
    0.0171   -0.0386   -1.5687 H   0  0  0  0  0  0  0  0  0  0  0  0
    1.9522    0.5395   -0.7459 C   0  0  0  0  0  0  0  0  0  0  0  0
    2.5596    0.3308    0.1404 H   0  0  0  0  0  0  0  0  0  0  0  0
    2.4899    0.1832   -1.6279 H   0  0  0  0  0  0  0  0  0  0  0  0
    1.8834    1.6224   -0.8480 H   0  0  0  0  0  0  0  0  0  0  0  0
    0.8886   -1.6557   -0.4011 C   0  0  0  0  0  0  0  0  0  0  0  0
    1.5496   -1.7831    0.4627 H   0  0  0  0  0  0  0  0  0  0  0  0
   -0.0323   -2.1974   -0.1952 H   0  0  0  0  0  0  0  0  0  0  0  0
    1.4819   -2.3490   -1.6340 C   0  0  0  0  0  0  0  0  0  0  0  0
    2.5015   -2.0080   -1.8320 H   0  0  0  0  0  0  0  0  0  0  0  0
    1.5173   -3.4301   -1.4680 H   0  0  0  0  0  0  0  0  0  0  0  0
    0.8659   -2.1556   -2.5176 H   0  0  0  0  0  0  0  0  0  0  0  0
   -0.5921    1.9996    0.2416 C   0  0  0  0  0  0  0  0  0  0  0  0
   -0.3106    2.5641   -0.8075 O   0  0  0  0  0  0  0  0  0  0  0  0
   -1.5199    2.6423    1.0458 N   0  0  0  0  0  0  0  0  0  0  0  0
   -1.8217    2.1452    1.8796 H   0  0  0  0  0  0  0  0  0  0  0  0
   -2.0276    3.9872    0.7979 C   0  0  0  0  0  0  0  0  0  0  0  0
   -2.5626    4.0257   -0.1567 H   0  0  0  0  0  0  0  0  0  0  0  0
   -2.7182    4.2829    1.5933 H   0  0  0  0  0  0  0  0  0  0  0  0
   -1.2043    4.7087    0.7699 H   0  0  0  0  0  0  0  0  0  0  0  0
  1  2  1  0  0  0  0
  2  3  1  0  0  0  0
  2  4  1  0  0  0  0
  2  5  1  0  0  0  0
  5  6  2  0  0  0  0
  5  7  1  0  0  0  0
  7  8  1  0  0  0  0
  7  9  1  0  0  0  0
  9 10  1  0  0  0  0
  9 11  1  0  0  0  0
  9 24  1  0  0  0  0
 11 12  1  0  0  0  0
 11 13  1  0  0  0  0
 11 17  1  0  0  0  0
 13 14  1  0  0  0  0
 13 15  1  0  0  0  0
 13 16  1  0  0  0  0
 17 18  1  0  0  0  0
 17 19  1  0  0  0  0
 17 20  1  0  0  0  0
 20 21  1  0  0  0  0
 20 22  1  0  0  0  0
 20 23  1  0  0  0  0
 24 25  2  0  0  0  0
 24 26  1  0  0  0  0
 26 27  1  0  0  0  0
 26 28  1  0  0  0  0
 28 29  1  0  0  0  0
 28 30  1  0  0  0  0
 28 31  1  0  0  0  0
M  END
$$$$

  -OEChem-01062216083D

 31 30  0     1  0  0  0  0  0999 V2000
   -3.2806   -2.9566    1.5388 H   0  0  0  0  0  0  0  0  0  0  0  0
   -3.2437   -1.9877    1.0329 C   0  0  0  0  0  0  0  0  0  0  0  0
   -4.0510   -1.3588    1.4160 H   0  0  0  0  0  0  0  0  0  0  0  0
   -3.3903   -2.1462   -0.0382 H   0  0  0  0  0  0  0  0  0  0  0  0
   -1.9037   -1.3210    1.2800 C   0  0  0  0  0  0  0  0  0  0  0  0
   -1.1047   -1.8213    2.0547 O   0  0  0  0  0  0  0  0  0  0  0  0
   -1.6311   -0.0933    0.7140 N   0  0  0  0  0  0  0  0  0  0  0  0
   -2.3430    0.2490    0.0726 H   0  0  0  0  0  0  0  0  0  0  0  0
   -0.2812    0.4827    0.5338 C   0  0  1  0  0  0  0  0  0  0  0  0
    0.2831    0.4086    1.4693 H   0  0  0  0  0  0  0  0  0  0  0  0
    0.5717   -0.1638   -0.6193 C   0  0  1  0  0  0  0  0  0  0  0  0
    0.0171   -0.0553   -1.5577 H   0  0  0  0  0  0  0  0  0  0  0  0
    1.9368    0.5600   -0.7457 C   0  0  0  0  0  0  0  0  0  0  0  0
    2.5401    0.3960    0.1529 H   0  0  0  0  0  0  0  0  0  0  0  0
    2.4945    0.1927   -1.6104 H   0  0  0  0  0  0  0  0  0  0  0  0
    1.8271    1.6370   -0.8845 H   0  0  0  0  0  0  0  0  0  0  0  0
    0.8911   -1.6659   -0.4008 C   0  0  0  0  0  0  0  0  0  0  0  0
    1.5548   -1.7948    0.4608 H   0  0  0  0  0  0  0  0  0  0  0  0
   -0.0295   -2.2092   -0.1950 H   0  0  0  0  0  0  0  0  0  0  0  0
    1.4872   -2.3497   -1.6372 C   0  0  0  0  0  0  0  0  0  0  0  0
    2.5024   -1.9971   -1.8365 H   0  0  0  0  0  0  0  0  0  0  0  0
    1.5344   -3.4309   -1.4748 H   0  0  0  0  0  0  0  0  0  0  0  0
    0.8668   -2.1598   -2.5186 H   0  0  0  0  0  0  0  0  0  0  0  0
   -0.5673    1.9821    0.2458 C   0  0  0  0  0  0  0  0  0  0  0  0
   -0.4966    2.4705   -0.8754 O   0  0  0  0  0  0  0  0  0  0  0  0
   -1.2340    2.7152    1.2120 N   0  0  0  0  0  0  0  0  0  0  0  0
   -1.4135    2.2510    2.0984 H   0  0  0  0  0  0  0  0  0  0  0  0
   -1.7441    4.0651    1.0020 C   0  0  0  0  0  0  0  0  0  0  0  0
   -2.5110    4.0686    0.2202 H   0  0  0  0  0  0  0  0  0  0  0  0
   -2.1889    4.4491    1.9251 H   0  0  0  0  0  0  0  0  0  0  0  0
   -0.9336    4.7386    0.7039 H   0  0  0  0  0  0  0  0  0  0  0  0
  1  2  1  0  0  0  0
  2  3  1  0  0  0  0
  2  4  1  0  0  0  0
  2  5  1  0  0  0  0
  5  6  2  0  0  0  0
  5  7  1  0  0  0  0
  7  8  1  0  0  0  0
  7  9  1  0  0  0  0
  9 10  1  0  0  0  0
  9 11  1  0  0  0  0
  9 24  1  0  0  0  0
 11 12  1  0  0  0  0
 11 13  1  0  0  0  0
 11 17  1  0  0  0  0
 13 14  1  0  0  0  0
 13 15  1  0  0  0  0
 13 16  1  0  0  0  0
 17 18  1  0  0  0  0
 17 19  1  0  0  0  0
 17 20  1  0  0  0  0
 20 21  1  0  0  0  0
 20 22  1  0  0  0  0
 20 23  1  0  0  0  0
 24 25  2  0  0  0  0
 24 26  1  0  0  0  0
 26 27  1  0  0  0  0
 26 28  1  0  0  0  0
 28 29  1  0  0  0  0
 28 30  1  0  0  0  0
 28 31  1  0  0  0  0
M  END
$$$$

  -OEChem-01062216083D

 31 30  0     1  0  0  0  0  0999 V2000
   -3.2909   -2.9682    1.5346 H   0  0  0  0  0  0  0  0  0  0  0  0
   -3.2491   -2.0005    1.0268 C   0  0  0  0  0  0  0  0  0  0  0  0
   -4.0577   -1.3693    1.4032 H   0  0  0  0  0  0  0  0  0  0  0  0
   -3.3884   -2.1603   -0.0451 H   0  0  0  0  0  0  0  0  0  0  0  0
   -1.9101   -1.3351    1.2813 C   0  0  0  0  0  0  0  0  0  0  0  0
   -1.1128   -1.8395    2.0556 O   0  0  0  0  0  0  0  0  0  0  0  0
   -1.6344   -0.1079    0.7162 N   0  0  0  0  0  0  0  0  0  0  0  0
   -2.3433    0.2377    0.0727 H   0  0  0  0  0  0  0  0  0  0  0  0
   -0.2859    0.4688    0.5447 C   0  0  1  0  0  0  0  0  0  0  0  0
    0.2749    0.3869    1.4816 H   0  0  0  0  0  0  0  0  0  0  0  0
    0.5691   -0.1714   -0.6077 C   0  0  1  0  0  0  0  0  0  0  0  0
    0.0082   -0.0695   -1.5431 H   0  0  0  0  0  0  0  0  0  0  0  0
    1.9166    0.5780   -0.7470 C   0  0  0  0  0  0  0  0  0  0  0  0
    2.5174    0.4548    0.1596 H   0  0  0  0  0  0  0  0  0  0  0  0
    2.4892    0.1997   -1.5971 H   0  0  0  0  0  0  0  0  0  0  0  0
    1.7745    1.6475   -0.9195 H   0  0  0  0  0  0  0  0  0  0  0  0
    0.8905   -1.6732   -0.3970 C   0  0  0  0  0  0  0  0  0  0  0  0
    1.5558   -1.8031    0.4629 H   0  0  0  0  0  0  0  0  0  0  0  0
   -0.0281   -2.2203   -0.1920 H   0  0  0  0  0  0  0  0  0  0  0  0
    1.4896   -2.3475   -1.6368 C   0  0  0  0  0  0  0  0  0  0  0  0
    2.5027   -1.9881   -1.8356 H   0  0  0  0  0  0  0  0  0  0  0  0
    1.5426   -3.4293   -1.4797 H   0  0  0  0  0  0  0  0  0  0  0  0
    0.8671   -2.1564   -2.5163 H   0  0  0  0  0  0  0  0  0  0  0  0
   -0.5519    1.9669    0.2523 C   0  0  0  0  0  0  0  0  0  0  0  0
   -0.6867    2.3932   -0.8887 O   0  0  0  0  0  0  0  0  0  0  0  0
   -0.9256    2.7895    1.2996 N   0  0  0  0  0  0  0  0  0  0  0  0
   -0.9564    2.3726    2.2262 H   0  0  0  0  0  0  0  0  0  0  0  0
   -1.4042    4.1557    1.1231 C   0  0  0  0  0  0  0  0  0  0  0  0
   -2.3388    4.1637    0.5525 H   0  0  0  0  0  0  0  0  0  0  0  0
   -1.5883    4.6210    2.0963 H   0  0  0  0  0  0  0  0  0  0  0  0
   -0.6605    4.7568    0.5894 H   0  0  0  0  0  0  0  0  0  0  0  0
  1  2  1  0  0  0  0
  2  3  1  0  0  0  0
  2  4  1  0  0  0  0
  2  5  1  0  0  0  0
  5  6  2  0  0  0  0
  5  7  1  0  0  0  0
  7  8  1  0  0  0  0
  7  9  1  0  0  0  0
  9 10  1  0  0  0  0
  9 11  1  0  0  0  0
  9 24  1  0  0  0  0
 11 12  1  0  0  0  0
 11 13  1  0  0  0  0
 11 17  1  0  0  0  0
 13 14  1  0  0  0  0
 13 15  1  0  0  0  0
 13 16  1  0  0  0  0
 17 18  1  0  0  0  0
 17 19  1  0  0  0  0
 17 20  1  0  0  0  0
 20 21  1  0  0  0  0
 20 22  1  0  0  0  0
 20 23  1  0  0  0  0
 24 25  2  0  0  0  0
 24 26  1  0  0  0  0
 26 27  1  0  0  0  0
 26 28  1  0  0  0  0
 28 29  1  0  0  0  0
 28 30  1  0  0  0  0
 28 31  1  0  0  0  0
M  END
$$$$

  -OEChem-01062216083D

 31 30  0     1  0  0  0  0  0999 V2000
   -3.2994   -2.9877    1.5307 H   0  0  0  0  0  0  0  0  0  0  0  0
   -3.2584   -2.0174    1.0282 C   0  0  0  0  0  0  0  0  0  0  0  0
   -4.0656   -1.3876    1.4099 H   0  0  0  0  0  0  0  0  0  0  0  0
   -3.4003   -2.1716   -0.0442 H   0  0  0  0  0  0  0  0  0  0  0  0
   -1.9183   -1.3546    1.2828 C   0  0  0  0  0  0  0  0  0  0  0  0
   -1.1185   -1.8650    2.0511 O   0  0  0  0  0  0  0  0  0  0  0  0
   -1.6410   -0.1279    0.7178 N   0  0  0  0  0  0  0  0  0  0  0  0
   -2.3490    0.2245    0.0764 H   0  0  0  0  0  0  0  0  0  0  0  0
   -0.2951    0.4542    0.5566 C   0  0  1  0  0  0  0  0  0  0  0  0
    0.2607    0.3664    1.4957 H   0  0  0  0  0  0  0  0  0  0  0  0
    0.5647   -0.1745   -0.5973 C   0  0  1  0  0  0  0  0  0  0  0  0
    0.0005   -0.0742   -1.5312 H   0  0  0  0  0  0  0  0  0  0  0  0
    1.8995    0.5934   -0.7426 C   0  0  0  0  0  0  0  0  0  0  0  0
    2.4972    0.4958    0.1691 H   0  0  0  0  0  0  0  0  0  0  0  0
    2.4832    0.2107   -1.5832 H   0  0  0  0  0  0  0  0  0  0  0  0
    1.7356    1.6568   -0.9361 H   0  0  0  0  0  0  0  0  0  0  0  0
    0.8902   -1.6759   -0.3964 C   0  0  0  0  0  0  0  0  0  0  0  0
    1.5537   -1.8085    0.4646 H   0  0  0  0  0  0  0  0  0  0  0  0
   -0.0277   -2.2261   -0.1968 H   0  0  0  0  0  0  0  0  0  0  0  0
    1.4950   -2.3399   -1.6388 C   0  0  0  0  0  0  0  0  0  0  0  0
    2.5084   -1.9779   -1.8306 H   0  0  0  0  0  0  0  0  0  0  0  0
    1.5486   -3.4226   -1.4892 H   0  0  0  0  0  0  0  0  0  0  0  0
    0.8762   -2.1432   -2.5197 H   0  0  0  0  0  0  0  0  0  0  0  0
   -0.5484    1.9505    0.2577 C   0  0  0  0  0  0  0  0  0  0  0  0
   -0.8896    2.3258   -0.8580 O   0  0  0  0  0  0  0  0  0  0  0  0
   -0.6203    2.8484    1.3068 N   0  0  0  0  0  0  0  0  0  0  0  0
   -0.4720    2.4822    2.2431 H   0  0  0  0  0  0  0  0  0  0  0  0
   -1.0345    4.2376    1.1489 C   0  0  0  0  0  0  0  0  0  0  0  0
   -2.0693    4.2914    0.7948 H   0  0  0  0  0  0  0  0  0  0  0  0
   -0.9681    4.7632    2.1063 H   0  0  0  0  0  0  0  0  0  0  0  0
   -0.3886    4.7509    0.4288 H   0  0  0  0  0  0  0  0  0  0  0  0
  1  2  1  0  0  0  0
  2  3  1  0  0  0  0
  2  4  1  0  0  0  0
  2  5  1  0  0  0  0
  5  6  2  0  0  0  0
  5  7  1  0  0  0  0
  7  8  1  0  0  0  0
  7  9  1  0  0  0  0
  9 10  1  0  0  0  0
  9 11  1  0  0  0  0
  9 24  1  0  0  0  0
 11 12  1  0  0  0  0
 11 13  1  0  0  0  0
 11 17  1  0  0  0  0
 13 14  1  0  0  0  0
 13 15  1  0  0  0  0
 13 16  1  0  0  0  0
 17 18  1  0  0  0  0
 17 19  1  0  0  0  0
 17 20  1  0  0  0  0
 20 21  1  0  0  0  0
 20 22  1  0  0  0  0
 20 23  1  0  0  0  0
 24 25  2  0  0  0  0
 24 26  1  0  0  0  0
 26 27  1  0  0  0  0
 26 28  1  0  0  0  0
 28 29  1  0  0  0  0
 28 30  1  0  0  0  0
 28 31  1  0  0  0  0
M  END
$$$$

  -OEChem-01062216083D

 31 30  0     1  0  0  0  0  0999 V2000
   -3.3271   -2.9832    1.5572 H   0  0  0  0  0  0  0  0  0  0  0  0
   -3.2730   -2.0236    1.0351 C   0  0  0  0  0  0  0  0  0  0  0  0
   -4.0734   -1.3766    1.4022 H   0  0  0  0  0  0  0  0  0  0  0  0
   -3.4144   -2.1966   -0.0346 H   0  0  0  0  0  0  0  0  0  0  0  0
   -1.9256   -1.3714    1.2797 C   0  0  0  0  0  0  0  0  0  0  0  0
   -1.1225   -1.8915    2.0382 O   0  0  0  0  0  0  0  0  0  0  0  0
   -1.6433   -0.1458    0.7152 N   0  0  0  0  0  0  0  0  0  0  0  0
   -2.3532    0.2228    0.0844 H   0  0  0  0  0  0  0  0  0  0  0  0
   -0.2991    0.4416    0.5662 C   0  0  1  0  0  0  0  0  0  0  0  0
    0.2503    0.3508    1.5087 H   0  0  0  0  0  0  0  0  0  0  0  0
    0.5650   -0.1740   -0.5898 C   0  0  1  0  0  0  0  0  0  0  0  0
    0.0007   -0.0677   -1.5230 H   0  0  0  0  0  0  0  0  0  0  0  0
    1.8954    0.6017   -0.7311 C   0  0  0  0  0  0  0  0  0  0  0  0
    2.4890    0.5111    0.1840 H   0  0  0  0  0  0  0  0  0  0  0  0
    2.4863    0.2198   -1.5670 H   0  0  0  0  0  0  0  0  0  0  0  0
    1.7243    1.6631   -0.9300 H   0  0  0  0  0  0  0  0  0  0  0  0
    0.8915   -1.6765   -0.4000 C   0  0  0  0  0  0  0  0  0  0  0  0
    1.5522   -1.8150    0.4622 H   0  0  0  0  0  0  0  0  0  0  0  0
   -0.0270   -2.2289   -0.2080 H   0  0  0  0  0  0  0  0  0  0  0  0
    1.5017   -2.3302   -1.6451 C   0  0  0  0  0  0  0  0  0  0  0  0
    2.5165   -1.9674   -1.8283 H   0  0  0  0  0  0  0  0  0  0  0  0
    1.5534   -3.4143   -1.5050 H   0  0  0  0  0  0  0  0  0  0  0  0
    0.8870   -2.1252   -2.5272 H   0  0  0  0  0  0  0  0  0  0  0  0
   -0.5456    1.9360    0.2600 C   0  0  0  0  0  0  0  0  0  0  0  0
   -1.0891    2.2758   -0.7850 O   0  0  0  0  0  0  0  0  0  0  0  0
   -0.3251    2.8873    1.2390 N   0  0  0  0  0  0  0  0  0  0  0  0
    0.0072    2.5606    2.1418 H   0  0  0  0  0  0  0  0  0  0  0  0
   -0.6779    4.2934    1.0837 C   0  0  0  0  0  0  0  0  0  0  0  0
   -1.7629    4.4080    0.9904 H   0  0  0  0  0  0  0  0  0  0  0  0
   -0.3418    4.8665    1.9532 H   0  0  0  0  0  0  0  0  0  0  0  0
   -0.2012    4.7123    0.1912 H   0  0  0  0  0  0  0  0  0  0  0  0
  1  2  1  0  0  0  0
  2  3  1  0  0  0  0
  2  4  1  0  0  0  0
  2  5  1  0  0  0  0
  5  6  2  0  0  0  0
  5  7  1  0  0  0  0
  7  8  1  0  0  0  0
  7  9  1  0  0  0  0
  9 10  1  0  0  0  0
  9 11  1  0  0  0  0
  9 24  1  0  0  0  0
 11 12  1  0  0  0  0
 11 13  1  0  0  0  0
 11 17  1  0  0  0  0
 13 14  1  0  0  0  0
 13 15  1  0  0  0  0
 13 16  1  0  0  0  0
 17 18  1  0  0  0  0
 17 19  1  0  0  0  0
 17 20  1  0  0  0  0
 20 21  1  0  0  0  0
 20 22  1  0  0  0  0
 20 23  1  0  0  0  0
 24 25  2  0  0  0  0
 24 26  1  0  0  0  0
 26 27  1  0  0  0  0
 26 28  1  0  0  0  0
 28 29  1  0  0  0  0
 28 30  1  0  0  0  0
 28 31  1  0  0  0  0
M  END
$$$$

  -OEChem-01062216083D

 31 30  0     1  0  0  0  0  0999 V2000
   -3.3465   -2.9996    1.5449 H   0  0  0  0  0  0  0  0  0  0  0  0
   -3.2951   -2.0261    1.0496 C   0  0  0  0  0  0  0  0  0  0  0  0
   -4.0785   -1.3816    1.4556 H   0  0  0  0  0  0  0  0  0  0  0  0
   -3.4662   -2.1664   -0.0205 H   0  0  0  0  0  0  0  0  0  0  0  0
   -1.9350   -1.3942    1.2775 C   0  0  0  0  0  0  0  0  0  0  0  0
   -1.1286   -1.9279    2.0232 O   0  0  0  0  0  0  0  0  0  0  0  0
   -1.6469   -0.1692    0.7147 N   0  0  0  0  0  0  0  0  0  0  0  0
   -2.3648    0.2234    0.1070 H   0  0  0  0  0  0  0  0  0  0  0  0
   -0.3066    0.4289    0.5752 C   0  0  1  0  0  0  0  0  0  0  0  0
    0.2363    0.3381    1.5215 H   0  0  0  0  0  0  0  0  0  0  0  0
    0.5634   -0.1728   -0.5826 C   0  0  1  0  0  0  0  0  0  0  0  0
   -0.0025   -0.0645   -1.5146 H   0  0  0  0  0  0  0  0  0  0  0  0
    1.8875    0.6142   -0.7223 C   0  0  0  0  0  0  0  0  0  0  0  0
    2.4739    0.5411    0.1990 H   0  0  0  0  0  0  0  0  0  0  0  0
    2.4903    0.2294   -1.5480 H   0  0  0  0  0  0  0  0  0  0  0  0
    1.7066    1.6710   -0.9370 H   0  0  0  0  0  0  0  0  0  0  0  0
    0.8982   -1.6742   -0.4019 C   0  0  0  0  0  0  0  0  0  0  0  0
    1.5583   -1.8137    0.4605 H   0  0  0  0  0  0  0  0  0  0  0  0
   -0.0176   -2.2329   -0.2144 H   0  0  0  0  0  0  0  0  0  0  0  0
    1.5149   -2.3161   -1.6500 C   0  0  0  0  0  0  0  0  0  0  0  0
    2.5273   -1.9453   -1.8300 H   0  0  0  0  0  0  0  0  0  0  0  0
    1.5745   -3.4004   -1.5163 H   0  0  0  0  0  0  0  0  0  0  0  0
    0.9001   -2.1104   -2.5317 H   0  0  0  0  0  0  0  0  0  0  0  0
   -0.5545    1.9219    0.2630 C   0  0  0  0  0  0  0  0  0  0  0  0
   -1.2803    2.2448   -0.6715 O   0  0  0  0  0  0  0  0  0  0  0  0
   -0.0660    2.9026    1.1065 N   0  0  0  0  0  0  0  0  0  0  0  0
    0.4654    2.6022    1.9185 H   0  0  0  0  0  0  0  0  0  0  0  0
   -0.3358    4.3234    0.9238 C   0  0  0  0  0  0  0  0  0  0  0  0
   -1.4094    4.5231    1.0042 H   0  0  0  0  0  0  0  0  0  0  0  0
    0.1837    4.9082    1.6889 H   0  0  0  0  0  0  0  0  0  0  0  0
    0.0121    4.6565   -0.0597 H   0  0  0  0  0  0  0  0  0  0  0  0
  1  2  1  0  0  0  0
  2  3  1  0  0  0  0
  2  4  1  0  0  0  0
  2  5  1  0  0  0  0
  5  6  2  0  0  0  0
  5  7  1  0  0  0  0
  7  8  1  0  0  0  0
  7  9  1  0  0  0  0
  9 10  1  0  0  0  0
  9 11  1  0  0  0  0
  9 24  1  0  0  0  0
 11 12  1  0  0  0  0
 11 13  1  0  0  0  0
 11 17  1  0  0  0  0
 13 14  1  0  0  0  0
 13 15  1  0  0  0  0
 13 16  1  0  0  0  0
 17 18  1  0  0  0  0
 17 19  1  0  0  0  0
 17 20  1  0  0  0  0
 20 21  1  0  0  0  0
 20 22  1  0  0  0  0
 20 23  1  0  0  0  0
 24 25  2  0  0  0  0
 24 26  1  0  0  0  0
 26 27  1  0  0  0  0
 26 28  1  0  0  0  0
 28 29  1  0  0  0  0
 28 30  1  0  0  0  0
 28 31  1  0  0  0  0
M  END
$$$$

  -OEChem-01062216083D

 31 30  0     1  0  0  0  0  0999 V2000
   -3.3599   -3.0040    1.5467 H   0  0  0  0  0  0  0  0  0  0  0  0
   -3.3065   -2.0270    1.0584 C   0  0  0  0  0  0  0  0  0  0  0  0
   -4.0766   -1.3780    1.4822 H   0  0  0  0  0  0  0  0  0  0  0  0
   -3.4959   -2.1567   -0.0098 H   0  0  0  0  0  0  0  0  0  0  0  0
   -1.9365   -1.4109    1.2695 C   0  0  0  0  0  0  0  0  0  0  0  0
   -1.1267   -1.9574    2.0022 O   0  0  0  0  0  0  0  0  0  0  0  0
   -1.6446   -0.1844    0.7118 N   0  0  0  0  0  0  0  0  0  0  0  0
   -2.3725    0.2353    0.1338 H   0  0  0  0  0  0  0  0  0  0  0  0
   -0.3081    0.4261    0.5856 C   0  0  1  0  0  0  0  0  0  0  0  0
    0.2295    0.3364    1.5351 H   0  0  0  0  0  0  0  0  0  0  0  0
    0.5640   -0.1692   -0.5763 C   0  0  1  0  0  0  0  0  0  0  0  0
   -0.0059   -0.0590   -1.5058 H   0  0  0  0  0  0  0  0  0  0  0  0
    1.8871    0.6186   -0.7236 C   0  0  0  0  0  0  0  0  0  0  0  0
    2.4641    0.5737    0.2054 H   0  0  0  0  0  0  0  0  0  0  0  0
    2.5016    0.2154   -1.5316 H   0  0  0  0  0  0  0  0  0  0  0  0
    1.7032    1.6673   -0.9718 H   0  0  0  0  0  0  0  0  0  0  0  0
    0.9027   -1.6712   -0.4031 C   0  0  0  0  0  0  0  0  0  0  0  0
    1.5610   -1.8135    0.4601 H   0  0  0  0  0  0  0  0  0  0  0  0
   -0.0125   -2.2323   -0.2212 H   0  0  0  0  0  0  0  0  0  0  0  0
    1.5210   -2.3099   -1.6524 C   0  0  0  0  0  0  0  0  0  0  0  0
    2.5389   -1.9498   -1.8228 H   0  0  0  0  0  0  0  0  0  0  0  0
    1.5679   -3.3958   -1.5265 H   0  0  0  0  0  0  0  0  0  0  0  0
    0.9144   -2.0906   -2.5365 H   0  0  0  0  0  0  0  0  0  0  0  0
   -0.5602    1.9198    0.2711 C   0  0  0  0  0  0  0  0  0  0  0  0
   -1.4326    2.2448   -0.5287 O   0  0  0  0  0  0  0  0  0  0  0  0
    0.1548    2.9071    0.9250 N   0  0  0  0  0  0  0  0  0  0  0  0
    0.8406    2.6137    1.6145 H   0  0  0  0  0  0  0  0  0  0  0  0
   -0.0532    4.3316    0.6966 C   0  0  0  0  0  0  0  0  0  0  0  0
   -1.0743    4.6186    0.9690 H   0  0  0  0  0  0  0  0  0  0  0  0
    0.6444    4.9175    1.3025 H   0  0  0  0  0  0  0  0  0  0  0  0
    0.1136    4.5790   -0.3571 H   0  0  0  0  0  0  0  0  0  0  0  0
  1  2  1  0  0  0  0
  2  3  1  0  0  0  0
  2  4  1  0  0  0  0
  2  5  1  0  0  0  0
  5  6  2  0  0  0  0
  5  7  1  0  0  0  0
  7  8  1  0  0  0  0
  7  9  1  0  0  0  0
  9 10  1  0  0  0  0
  9 11  1  0  0  0  0
  9 24  1  0  0  0  0
 11 12  1  0  0  0  0
 11 13  1  0  0  0  0
 11 17  1  0  0  0  0
 13 14  1  0  0  0  0
 13 15  1  0  0  0  0
 13 16  1  0  0  0  0
 17 18  1  0  0  0  0
 17 19  1  0  0  0  0
 17 20  1  0  0  0  0
 20 21  1  0  0  0  0
 20 22  1  0  0  0  0
 20 23  1  0  0  0  0
 24 25  2  0  0  0  0
 24 26  1  0  0  0  0
 26 27  1  0  0  0  0
 26 28  1  0  0  0  0
 28 29  1  0  0  0  0
 28 30  1  0  0  0  0
 28 31  1  0  0  0  0
M  END
$$$$

  -OEChem-01062216083D

 31 30  0     1  0  0  0  0  0999 V2000
   -3.3526   -3.0191    1.4810 H   0  0  0  0  0  0  0  0  0  0  0  0
   -3.3098   -2.0126    1.0554 C   0  0  0  0  0  0  0  0  0  0  0  0
   -4.0595   -1.3878    1.5471 H   0  0  0  0  0  0  0  0  0  0  0  0
   -3.5379   -2.0721   -0.0117 H   0  0  0  0  0  0  0  0  0  0  0  0
   -1.9289   -1.4184    1.2581 C   0  0  0  0  0  0  0  0  0  0  0  0
   -1.1229   -1.9799    1.9837 O   0  0  0  0  0  0  0  0  0  0  0  0
   -1.6266   -0.1904    0.7103 N   0  0  0  0  0  0  0  0  0  0  0  0
   -2.3662    0.2649    0.1747 H   0  0  0  0  0  0  0  0  0  0  0  0
   -0.2930    0.4312    0.5966 C   0  0  1  0  0  0  0  0  0  0  0  0
    0.2424    0.3422    1.5473 H   0  0  0  0  0  0  0  0  0  0  0  0
    0.5732   -0.1716   -0.5714 C   0  0  1  0  0  0  0  0  0  0  0  0
   -0.0070   -0.0657   -1.4950 H   0  0  0  0  0  0  0  0  0  0  0  0
    1.8976    0.6068   -0.7475 C   0  0  0  0  0  0  0  0  0  0  0  0
    2.4583    0.6259    0.1922 H   0  0  0  0  0  0  0  0  0  0  0  0
    2.5294    0.1560   -1.5153 H   0  0  0  0  0  0  0  0  0  0  0  0
    1.7131    1.6335   -1.0731 H   0  0  0  0  0  0  0  0  0  0  0  0
    0.9092   -1.6760   -0.3988 C   0  0  0  0  0  0  0  0  0  0  0  0
    1.5694   -1.8201    0.4629 H   0  0  0  0  0  0  0  0  0  0  0  0
   -0.0062   -2.2348   -0.2154 H   0  0  0  0  0  0  0  0  0  0  0  0
    1.5194   -2.3245   -1.6478 C   0  0  0  0  0  0  0  0  0  0  0  0
    2.5482   -1.9928   -1.8089 H   0  0  0  0  0  0  0  0  0  0  0  0
    1.5352   -3.4120   -1.5275 H   0  0  0  0  0  0  0  0  0  0  0  0
    0.9255   -2.0848   -2.5352 H   0  0  0  0  0  0  0  0  0  0  0  0
   -0.5555    1.9278    0.2849 C   0  0  0  0  0  0  0  0  0  0  0  0
   -1.5565    2.2636   -0.3425 O   0  0  0  0  0  0  0  0  0  0  0  0
    0.3273    2.9101    0.6990 N   0  0  0  0  0  0  0  0  0  0  0  0
    1.1486    2.6161    1.2194 H   0  0  0  0  0  0  0  0  0  0  0  0
    0.1342    4.3287    0.4248 C   0  0  0  0  0  0  0  0  0  0  0  0
   -0.8137    4.6755    0.8498 H   0  0  0  0  0  0  0  0  0  0  0  0
    0.9456    4.9139    0.8679 H   0  0  0  0  0  0  0  0  0  0  0  0
    0.1248    4.5120   -0.6548 H   0  0  0  0  0  0  0  0  0  0  0  0
  1  2  1  0  0  0  0
  2  3  1  0  0  0  0
  2  4  1  0  0  0  0
  2  5  1  0  0  0  0
  5  6  2  0  0  0  0
  5  7  1  0  0  0  0
  7  8  1  0  0  0  0
  7  9  1  0  0  0  0
  9 10  1  0  0  0  0
  9 11  1  0  0  0  0
  9 24  1  0  0  0  0
 11 12  1  0  0  0  0
 11 13  1  0  0  0  0
 11 17  1  0  0  0  0
 13 14  1  0  0  0  0
 13 15  1  0  0  0  0
 13 16  1  0  0  0  0
 17 18  1  0  0  0  0
 17 19  1  0  0  0  0
 17 20  1  0  0  0  0
 20 21  1  0  0  0  0
 20 22  1  0  0  0  0
 20 23  1  0  0  0  0
 24 25  2  0  0  0  0
 24 26  1  0  0  0  0
 26 27  1  0  0  0  0
 26 28  1  0  0  0  0
 28 29  1  0  0  0  0
 28 30  1  0  0  0  0
 28 31  1  0  0  0  0
M  END
$$$$

  -OEChem-01062216083D

 31 30  0     1  0  0  0  0  0999 V2000
   -3.3682   -2.9967    1.4783 H   0  0  0  0  0  0  0  0  0  0  0  0
   -3.3107   -1.9914    1.0519 C   0  0  0  0  0  0  0  0  0  0  0  0
   -4.0422   -1.3522    1.5523 H   0  0  0  0  0  0  0  0  0  0  0  0
   -3.5524   -2.0467   -0.0122 H   0  0  0  0  0  0  0  0  0  0  0  0
   -1.9165   -1.4233    1.2386 C   0  0  0  0  0  0  0  0  0  0  0  0
   -1.1141   -2.0024    1.9545 O   0  0  0  0  0  0  0  0  0  0  0  0
   -1.6036   -0.1918    0.7040 N   0  0  0  0  0  0  0  0  0  0  0  0
   -2.3551    0.3017    0.2203 H   0  0  0  0  0  0  0  0  0  0  0  0
   -0.2703    0.4368    0.6021 C   0  0  1  0  0  0  0  0  0  0  0  0
    0.2649    0.3460    1.5529 H   0  0  0  0  0  0  0  0  0  0  0  0
    0.5887   -0.1774   -0.5741 C   0  0  1  0  0  0  0  0  0  0  0  0
    0.0038   -0.0709   -1.4945 H   0  0  0  0  0  0  0  0  0  0  0  0
    1.9239    0.5790   -0.7682 C   0  0  0  0  0  0  0  0  0  0  0  0
    2.4465    0.6842    0.1877 H   0  0  0  0  0  0  0  0  0  0  0  0
    2.5887    0.0644   -1.4636 H   0  0  0  0  0  0  0  0  0  0  0  0
    1.7544    1.5682   -1.1994 H   0  0  0  0  0  0  0  0  0  0  0  0
    0.9158   -1.6855   -0.4022 C   0  0  0  0  0  0  0  0  0  0  0  0
    1.5727   -1.8357    0.4607 H   0  0  0  0  0  0  0  0  0  0  0  0
   -0.0041   -2.2365   -0.2230 H   0  0  0  0  0  0  0  0  0  0  0  0
    1.5156   -2.3483   -1.6500 C   0  0  0  0  0  0  0  0  0  0  0  0
    2.5568   -2.0531   -1.8016 H   0  0  0  0  0  0  0  0  0  0  0  0
    1.4942   -3.4364   -1.5346 H   0  0  0  0  0  0  0  0  0  0  0  0
    0.9377   -2.0852   -2.5414 H   0  0  0  0  0  0  0  0  0  0  0  0
   -0.5470    1.9402    0.2996 C   0  0  0  0  0  0  0  0  0  0  0  0
   -1.6441    2.2951   -0.1257 O   0  0  0  0  0  0  0  0  0  0  0  0
    0.4305    2.9106    0.4388 N   0  0  0  0  0  0  0  0  0  0  0  0
    1.3402    2.6127    0.7783 H   0  0  0  0  0  0  0  0  0  0  0  0
    0.2227    4.3187    0.1210 C   0  0  0  0  0  0  0  0  0  0  0  0
   -0.5842    4.7353    0.7331 H   0  0  0  0  0  0  0  0  0  0  0  0
    1.1350    4.8899    0.3180 H   0  0  0  0  0  0  0  0  0  0  0  0
   -0.0384    4.4384   -0.9358 H   0  0  0  0  0  0  0  0  0  0  0  0
  1  2  1  0  0  0  0
  2  3  1  0  0  0  0
  2  4  1  0  0  0  0
  2  5  1  0  0  0  0
  5  6  2  0  0  0  0
  5  7  1  0  0  0  0
  7  8  1  0  0  0  0
  7  9  1  0  0  0  0
  9 10  1  0  0  0  0
  9 11  1  0  0  0  0
  9 24  1  0  0  0  0
 11 12  1  0  0  0  0
 11 13  1  0  0  0  0
 11 17  1  0  0  0  0
 13 14  1  0  0  0  0
 13 15  1  0  0  0  0
 13 16  1  0  0  0  0
 17 18  1  0  0  0  0
 17 19  1  0  0  0  0
 17 20  1  0  0  0  0
 20 21  1  0  0  0  0
 20 22  1  0  0  0  0
 20 23  1  0  0  0  0
 24 25  2  0  0  0  0
 24 26  1  0  0  0  0
 26 27  1  0  0  0  0
 26 28  1  0  0  0  0
 28 29  1  0  0  0  0
 28 30  1  0  0  0  0
 28 31  1  0  0  0  0
M  END
$$$$

  -OEChem-01062216083D

 31 30  0     1  0  0  0  0  0999 V2000
   -3.3182   -2.9748    1.5290 H   0  0  0  0  0  0  0  0  0  0  0  0
   -3.2813   -1.9685    1.1022 C   0  0  0  0  0  0  0  0  0  0  0  0
   -3.9042   -1.3054    1.7074 H   0  0  0  0  0  0  0  0  0  0  0  0
   -3.6782   -2.0025    0.0849 H   0  0  0  0  0  0  0  0  0  0  0  0
   -1.8520   -1.4608    1.0827 C   0  0  0  0  0  0  0  0  0  0  0  0
   -0.9629   -2.1301    1.5862 O   0  0  0  0  0  0  0  0  0  0  0  0
   -1.5806   -0.2079    0.5724 N   0  0  0  0  0  0  0  0  0  0  0  0
   -2.3811    0.3891    0.3625 H   0  0  0  0  0  0  0  0  0  0  0  0
   -0.2560    0.4408    0.4999 C   0  0  1  0  0  0  0  0  0  0  0  0
    0.3724    0.1312    1.3415 H   0  0  0  0  0  0  0  0  0  0  0  0
    0.4441    0.0686   -0.8650 C   0  0  1  0  0  0  0  0  0  0  0  0
   -0.2325    0.3596   -1.6762 H   0  0  0  0  0  0  0  0  0  0  0  0
    1.7826    0.8169   -1.0651 C   0  0  0  0  0  0  0  0  0  0  0  0
    2.3841    0.7787   -0.1513 H   0  0  0  0  0  0  0  0  0  0  0  0
    2.3754    0.3911   -1.8758 H   0  0  0  0  0  0  0  0  0  0  0  0
    1.6067    1.8583   -1.3433 H   0  0  0  0  0  0  0  0  0  0  0  0
    0.7220   -1.4541   -1.0014 C   0  0  0  0  0  0  0  0  0  0  0  0
    1.4653   -1.7695   -0.2619 H   0  0  0  0  0  0  0  0  0  0  0  0
   -0.1950   -2.0084   -0.8074 H   0  0  0  0  0  0  0  0  0  0  0  0
    1.1550   -1.8958   -2.4062 C   0  0  0  0  0  0  0  0  0  0  0  0
    2.1844   -1.6010   -2.6238 H   0  0  0  0  0  0  0  0  0  0  0  0
    1.1012   -2.9863   -2.4806 H   0  0  0  0  0  0  0  0  0  0  0  0
    0.4940   -1.4656   -3.1649 H   0  0  0  0  0  0  0  0  0  0  0  0
   -0.5236    1.9750    0.6165 C   0  0  0  0  0  0  0  0  0  0  0  0
   -1.6771    2.3960    0.6728 O   0  0  0  0  0  0  0  0  0  0  0  0
    0.4858    2.9215    0.5948 N   0  0  0  0  0  0  0  0  0  0  0  0
    1.4414    2.5819    0.5432 H   0  0  0  0  0  0  0  0  0  0  0  0
    0.2526    4.3598    0.6628 C   0  0  0  0  0  0  0  0  0  0  0  0
   -0.2742    4.6201    1.5869 H   0  0  0  0  0  0  0  0  0  0  0  0
    1.2049    4.8985    0.6452 H   0  0  0  0  0  0  0  0  0  0  0  0
   -0.3477    4.6917   -0.1908 H   0  0  0  0  0  0  0  0  0  0  0  0
  1  2  1  0  0  0  0
  2  3  1  0  0  0  0
  2  4  1  0  0  0  0
  2  5  1  0  0  0  0
  5  6  2  0  0  0  0
  5  7  1  0  0  0  0
  7  8  1  0  0  0  0
  7  9  1  0  0  0  0
  9 10  1  0  0  0  0
  9 11  1  0  0  0  0
  9 24  1  0  0  0  0
 11 12  1  0  0  0  0
 11 13  1  0  0  0  0
 11 17  1  0  0  0  0
 13 14  1  0  0  0  0
 13 15  1  0  0  0  0
 13 16  1  0  0  0  0
 17 18  1  0  0  0  0
 17 19  1  0  0  0  0
 17 20  1  0  0  0  0
 20 21  1  0  0  0  0
 20 22  1  0  0  0  0
 20 23  1  0  0  0  0
 24 25  2  0  0  0  0
 24 26  1  0  0  0  0
 26 27  1  0  0  0  0
 26 28  1  0  0  0  0
 28 29  1  0  0  0  0
 28 30  1  0  0  0  0
 28 31  1  0  0  0  0
M  END
$$$$

  -OEChem-01062216083D

 31 30  0     1  0  0  0  0  0999 V2000
   -3.3294   -2.9321    1.5622 H   0  0  0  0  0  0  0  0  0  0  0  0
   -3.2870   -1.9300    1.1266 C   0  0  0  0  0  0  0  0  0  0  0  0
   -3.8791   -1.2511    1.7450 H   0  0  0  0  0  0  0  0  0  0  0  0
   -3.7151   -1.9642    0.1220 H   0  0  0  0  0  0  0  0  0  0  0  0
   -1.8501   -1.4486    1.0603 C   0  0  0  0  0  0  0  0  0  0  0  0
   -0.9599   -2.1323    1.5423 O   0  0  0  0  0  0  0  0  0  0  0  0
   -1.5757   -0.1974    0.5465 N   0  0  0  0  0  0  0  0  0  0  0  0
   -2.3746    0.4227    0.4102 H   0  0  0  0  0  0  0  0  0  0  0  0
   -0.2458    0.4420    0.4684 C   0  0  1  0  0  0  0  0  0  0  0  0
    0.3802    0.1368    1.3135 H   0  0  0  0  0  0  0  0  0  0  0  0
    0.4599    0.0553   -0.8923 C   0  0  1  0  0  0  0  0  0  0  0  0
   -0.2009    0.3504   -1.7146 H   0  0  0  0  0  0  0  0  0  0  0  0
    1.8178    0.7798   -1.0658 C   0  0  0  0  0  0  0  0  0  0  0  0
    2.3310    0.8697   -0.1030 H   0  0  0  0  0  0  0  0  0  0  0  0
    2.4901    0.2567   -1.7463 H   0  0  0  0  0  0  0  0  0  0  0  0
    1.6707    1.7728   -1.4974 H   0  0  0  0  0  0  0  0  0  0  0  0
    0.7306   -1.4703   -1.0188 C   0  0  0  0  0  0  0  0  0  0  0  0
    1.4665   -1.7875   -0.2724 H   0  0  0  0  0  0  0  0  0  0  0  0
   -0.1921   -2.0164   -0.8293 H   0  0  0  0  0  0  0  0  0  0  0  0
    1.1678   -1.9250   -2.4195 C   0  0  0  0  0  0  0  0  0  0  0  0
    2.2000   -1.6420   -2.6379 H   0  0  0  0  0  0  0  0  0  0  0  0
    1.1045   -3.0156   -2.4864 H   0  0  0  0  0  0  0  0  0  0  0  0
    0.5133   -1.4954   -3.1841 H   0  0  0  0  0  0  0  0  0  0  0  0
   -0.5258    1.9790    0.5868 C   0  0  0  0  0  0  0  0  0  0  0  0
   -1.6459    2.3696    0.9095 O   0  0  0  0  0  0  0  0  0  0  0  0
    0.3918    2.9664    0.2736 N   0  0  0  0  0  0  0  0  0  0  0  0
    1.3294    2.6670    0.0260 H   0  0  0  0  0  0  0  0  0  0  0  0
    0.1137    4.3959    0.3609 C   0  0  0  0  0  0  0  0  0  0  0  0
   -0.1571    4.6719    1.3855 H   0  0  0  0  0  0  0  0  0  0  0  0
    0.9980    4.9712    0.0702 H   0  0  0  0  0  0  0  0  0  0  0  0
   -0.7100    4.6682   -0.3075 H   0  0  0  0  0  0  0  0  0  0  0  0
  1  2  1  0  0  0  0
  2  3  1  0  0  0  0
  2  4  1  0  0  0  0
  2  5  1  0  0  0  0
  5  6  2  0  0  0  0
  5  7  1  0  0  0  0
  7  8  1  0  0  0  0
  7  9  1  0  0  0  0
  9 10  1  0  0  0  0
  9 11  1  0  0  0  0
  9 24  1  0  0  0  0
 11 12  1  0  0  0  0
 11 13  1  0  0  0  0
 11 17  1  0  0  0  0
 13 14  1  0  0  0  0
 13 15  1  0  0  0  0
 13 16  1  0  0  0  0
 17 18  1  0  0  0  0
 17 19  1  0  0  0  0
 17 20  1  0  0  0  0
 20 21  1  0  0  0  0
 20 22  1  0  0  0  0
 20 23  1  0  0  0  0
 24 25  2  0  0  0  0
 24 26  1  0  0  0  0
 26 27  1  0  0  0  0
 26 28  1  0  0  0  0
 28 29  1  0  0  0  0
 28 30  1  0  0  0  0
 28 31  1  0  0  0  0
M  END
$$$$

  -OEChem-01062216083D

 31 30  0     1  0  0  0  0  0999 V2000
   -3.3743   -2.9216    1.5131 H   0  0  0  0  0  0  0  0  0  0  0  0
   -3.3277   -1.9154    1.0873 C   0  0  0  0  0  0  0  0  0  0  0  0
   -3.9050   -1.2375    1.7210 H   0  0  0  0  0  0  0  0  0  0  0  0
   -3.7694   -1.9347    0.0880 H   0  0  0  0  0  0  0  0  0  0  0  0
   -1.8867   -1.4475    1.0074 C   0  0  0  0  0  0  0  0  0  0  0  0
   -1.0008   -2.1366    1.4892 O   0  0  0  0  0  0  0  0  0  0  0  0
   -1.6072   -0.2017    0.4826 N   0  0  0  0  0  0  0  0  0  0  0  0
   -2.4033    0.4286    0.3861 H   0  0  0  0  0  0  0  0  0  0  0  0
   -0.2748    0.4358    0.4374 C   0  0  1  0  0  0  0  0  0  0  0  0
    0.3198    0.1489    1.3113 H   0  0  0  0  0  0  0  0  0  0  0  0
    0.4958    0.0482   -0.8834 C   0  0  1  0  0  0  0  0  0  0  0  0
   -0.1146    0.3476   -1.7424 H   0  0  0  0  0  0  0  0  0  0  0  0
    1.8697    0.7693   -0.9534 C   0  0  0  0  0  0  0  0  0  0  0  0
    2.1928    1.0904    0.0421 H   0  0  0  0  0  0  0  0  0  0  0  0
    1.8062    1.6409   -1.6113 H   0  0  0  0  0  0  0  0  0  0  0  0
    2.6654    0.1349   -1.3472 H   0  0  0  0  0  0  0  0  0  0  0  0
    0.7844   -1.4733   -0.9951 C   0  0  0  0  0  0  0  0  0  0  0  0
    1.4912   -1.7839   -0.2183 H   0  0  0  0  0  0  0  0  0  0  0  0
   -0.1407   -2.0286   -0.8451 H   0  0  0  0  0  0  0  0  0  0  0  0
    1.2895   -1.9105   -2.3793 C   0  0  0  0  0  0  0  0  0  0  0  0
    2.2992   -1.5484   -2.5852 H   0  0  0  0  0  0  0  0  0  0  0  0
    1.3123   -3.0033   -2.4316 H   0  0  0  0  0  0  0  0  0  0  0  0
    0.6194   -1.5432   -3.1627 H   0  0  0  0  0  0  0  0  0  0  0  0
   -0.5832    1.9699    0.5270 C   0  0  0  0  0  0  0  0  0  0  0  0
   -1.6233    2.3402    1.0662 O   0  0  0  0  0  0  0  0  0  0  0  0
    0.1909    2.9699   -0.0363 N   0  0  0  0  0  0  0  0  0  0  0  0
    1.0516    2.6906   -0.4938 H   0  0  0  0  0  0  0  0  0  0  0  0
   -0.1442    4.3890    0.0166 C   0  0  0  0  0  0  0  0  0  0  0  0
   -0.2488    4.7205    1.0551 H   0  0  0  0  0  0  0  0  0  0  0  0
    0.6451    4.9816   -0.4559 H   0  0  0  0  0  0  0  0  0  0  0  0
   -1.0843    4.5804   -0.5115 H   0  0  0  0  0  0  0  0  0  0  0  0
  1  2  1  0  0  0  0
  2  3  1  0  0  0  0
  2  4  1  0  0  0  0
  2  5  1  0  0  0  0
  5  6  2  0  0  0  0
  5  7  1  0  0  0  0
  7  8  1  0  0  0  0
  7  9  1  0  0  0  0
  9 10  1  0  0  0  0
  9 11  1  0  0  0  0
  9 24  1  0  0  0  0
 11 12  1  0  0  0  0
 11 13  1  0  0  0  0
 11 17  1  0  0  0  0
 13 14  1  0  0  0  0
 13 15  1  0  0  0  0
 13 16  1  0  0  0  0
 17 18  1  0  0  0  0
 17 19  1  0  0  0  0
 17 20  1  0  0  0  0
 20 21  1  0  0  0  0
 20 22  1  0  0  0  0
 20 23  1  0  0  0  0
 24 25  2  0  0  0  0
 24 26  1  0  0  0  0
 26 27  1  0  0  0  0
 26 28  1  0  0  0  0
 28 29  1  0  0  0  0
 28 30  1  0  0  0  0
 28 31  1  0  0  0  0
M  END
$$$$

  -OEChem-01062216083D

 31 30  0     1  0  0  0  0  0999 V2000
   -3.3268   -2.8917    1.6906 H   0  0  0  0  0  0  0  0  0  0  0  0
   -3.2974   -1.9010    1.2286 C   0  0  0  0  0  0  0  0  0  0  0  0
   -3.8416   -1.1994    1.8655 H   0  0  0  0  0  0  0  0  0  0  0  0
   -3.7863   -1.9527    0.2529 H   0  0  0  0  0  0  0  0  0  0  0  0
   -1.8605   -1.4433    1.0640 C   0  0  0  0  0  0  0  0  0  0  0  0
   -0.9533   -2.1430    1.4867 O   0  0  0  0  0  0  0  0  0  0  0  0
   -1.6043   -0.2004    0.5201 N   0  0  0  0  0  0  0  0  0  0  0  0
   -2.4020    0.4321    0.4726 H   0  0  0  0  0  0  0  0  0  0  0  0
   -0.2707    0.4265    0.4231 C   0  0  1  0  0  0  0  0  0  0  0  0
    0.3496    0.1449    1.2811 H   0  0  0  0  0  0  0  0  0  0  0  0
    0.4713    0.0502   -0.9104 C   0  0  1  0  0  0  0  0  0  0  0  0
   -0.1560    0.3606   -1.7531 H   0  0  0  0  0  0  0  0  0  0  0  0
    1.8478    0.7705   -0.9915 C   0  0  0  0  0  0  0  0  0  0  0  0
    2.0803    1.2944   -0.0591 H   0  0  0  0  0  0  0  0  0  0  0  0
    1.8453    1.4944   -1.8120 H   0  0  0  0  0  0  0  0  0  0  0  0
    2.6756    0.0776   -1.1652 H   0  0  0  0  0  0  0  0  0  0  0  0
    0.7616   -1.4666   -1.0417 C   0  0  0  0  0  0  0  0  0  0  0  0
    1.4882   -1.7843   -0.2863 H   0  0  0  0  0  0  0  0  0  0  0  0
   -0.1569   -2.0299   -0.8755 H   0  0  0  0  0  0  0  0  0  0  0  0
    1.2384   -1.8654   -2.4456 C   0  0  0  0  0  0  0  0  0  0  0  0
    2.2106   -1.4281   -2.6862 H   0  0  0  0  0  0  0  0  0  0  0  0
    1.3333   -2.9539   -2.5066 H   0  0  0  0  0  0  0  0  0  0  0  0
    0.5143   -1.5407   -3.1991 H   0  0  0  0  0  0  0  0  0  0  0  0
   -0.5749    1.9567    0.5155 C   0  0  0  0  0  0  0  0  0  0  0  0
   -1.4324    2.3442    1.3029 O   0  0  0  0  0  0  0  0  0  0  0  0
   -0.0142    2.9194   -0.3071 N   0  0  0  0  0  0  0  0  0  0  0  0
    0.6566    2.6038   -1.0002 H   0  0  0  0  0  0  0  0  0  0  0  0
   -0.3460    4.3384   -0.2447 C   0  0  0  0  0  0  0  0  0  0  0  0
   -0.1061    4.7442    0.7437 H   0  0  0  0  0  0  0  0  0  0  0  0
    0.2263    4.8933   -0.9941 H   0  0  0  0  0  0  0  0  0  0  0  0
   -1.4122    4.4931   -0.4403 H   0  0  0  0  0  0  0  0  0  0  0  0
  1  2  1  0  0  0  0
  2  3  1  0  0  0  0
  2  4  1  0  0  0  0
  2  5  1  0  0  0  0
  5  6  2  0  0  0  0
  5  7  1  0  0  0  0
  7  8  1  0  0  0  0
  7  9  1  0  0  0  0
  9 10  1  0  0  0  0
  9 11  1  0  0  0  0
  9 24  1  0  0  0  0
 11 12  1  0  0  0  0
 11 13  1  0  0  0  0
 11 17  1  0  0  0  0
 13 14  1  0  0  0  0
 13 15  1  0  0  0  0
 13 16  1  0  0  0  0
 17 18  1  0  0  0  0
 17 19  1  0  0  0  0
 17 20  1  0  0  0  0
 20 21  1  0  0  0  0
 20 22  1  0  0  0  0
 20 23  1  0  0  0  0
 24 25  2  0  0  0  0
 24 26  1  0  0  0  0
 26 27  1  0  0  0  0
 26 28  1  0  0  0  0
 28 29  1  0  0  0  0
 28 30  1  0  0  0  0
 28 31  1  0  0  0  0
M  END
$$$$

  -OEChem-01062216083D

 31 30  0     1  0  0  0  0  0999 V2000
   -3.3591   -2.8479    1.6917 H   0  0  0  0  0  0  0  0  0  0  0  0
   -3.3213   -1.8604    1.2235 C   0  0  0  0  0  0  0  0  0  0  0  0
   -3.8590   -1.1501    1.8563 H   0  0  0  0  0  0  0  0  0  0  0  0
   -3.8109   -1.9139    0.2484 H   0  0  0  0  0  0  0  0  0  0  0  0
   -1.8806   -1.4159    1.0555 C   0  0  0  0  0  0  0  0  0  0  0  0
   -0.9784   -2.1246    1.4732 O   0  0  0  0  0  0  0  0  0  0  0  0
   -1.6167   -0.1772    0.5050 N   0  0  0  0  0  0  0  0  0  0  0  0
   -2.4134    0.4536    0.4444 H   0  0  0  0  0  0  0  0  0  0  0  0
   -0.2778    0.4377    0.4031 C   0  0  1  0  0  0  0  0  0  0  0  0
    0.3380    0.1643    1.2670 H   0  0  0  0  0  0  0  0  0  0  0  0
    0.4841    0.0665   -0.9183 C   0  0  1  0  0  0  0  0  0  0  0  0
   -0.1166    0.3933   -1.7737 H   0  0  0  0  0  0  0  0  0  0  0  0
    1.8852    0.7364   -0.9580 C   0  0  0  0  0  0  0  0  0  0  0  0
    2.5531    0.2638   -0.2304 H   0  0  0  0  0  0  0  0  0  0  0  0
    2.3295    0.6361   -1.9518 H   0  0  0  0  0  0  0  0  0  0  0  0
    1.8675    1.8003   -0.7268 H   0  0  0  0  0  0  0  0  0  0  0  0
    0.7682   -1.4534   -1.0353 C   0  0  0  0  0  0  0  0  0  0  0  0
    1.4700   -1.7812   -0.2610 H   0  0  0  0  0  0  0  0  0  0  0  0
   -0.1627   -2.0022   -0.8881 H   0  0  0  0  0  0  0  0  0  0  0  0
    1.2691   -1.8721   -2.4225 C   0  0  0  0  0  0  0  0  0  0  0  0
    2.2794   -1.4983   -2.6093 H   0  0  0  0  0  0  0  0  0  0  0  0
    1.2968   -2.9639   -2.4903 H   0  0  0  0  0  0  0  0  0  0  0  0
    0.6015   -1.4947   -3.2033 H   0  0  0  0  0  0  0  0  0  0  0  0
   -0.6024    1.9599    0.4911 C   0  0  0  0  0  0  0  0  0  0  0  0
   -1.2651    2.3683    1.4376 O   0  0  0  0  0  0  0  0  0  0  0  0
   -0.3007    2.8775   -0.5016 N   0  0  0  0  0  0  0  0  0  0  0  0
    0.2001    2.5326   -1.3151 H   0  0  0  0  0  0  0  0  0  0  0  0
   -0.6623    4.2893   -0.4418 C   0  0  0  0  0  0  0  0  0  0  0  0
   -0.1957    4.7672    0.4261 H   0  0  0  0  0  0  0  0  0  0  0  0
   -0.3223    4.8054   -1.3448 H   0  0  0  0  0  0  0  0  0  0  0  0
   -1.7487    4.4052   -0.3666 H   0  0  0  0  0  0  0  0  0  0  0  0
  1  2  1  0  0  0  0
  2  3  1  0  0  0  0
  2  4  1  0  0  0  0
  2  5  1  0  0  0  0
  5  6  2  0  0  0  0
  5  7  1  0  0  0  0
  7  8  1  0  0  0  0
  7  9  1  0  0  0  0
  9 10  1  0  0  0  0
  9 11  1  0  0  0  0
  9 24  1  0  0  0  0
 11 12  1  0  0  0  0
 11 13  1  0  0  0  0
 11 17  1  0  0  0  0
 13 14  1  0  0  0  0
 13 15  1  0  0  0  0
 13 16  1  0  0  0  0
 17 18  1  0  0  0  0
 17 19  1  0  0  0  0
 17 20  1  0  0  0  0
 20 21  1  0  0  0  0
 20 22  1  0  0  0  0
 20 23  1  0  0  0  0
 24 25  2  0  0  0  0
 24 26  1  0  0  0  0
 26 27  1  0  0  0  0
 26 28  1  0  0  0  0
 28 29  1  0  0  0  0
 28 30  1  0  0  0  0
 28 31  1  0  0  0  0
M  END
$$$$

  -OEChem-01062216083D

 31 30  0     1  0  0  0  0  0999 V2000
   -3.3382   -2.9041    1.6658 H   0  0  0  0  0  0  0  0  0  0  0  0
   -3.3164   -1.9143    1.2010 C   0  0  0  0  0  0  0  0  0  0  0  0
   -3.8935   -1.2226    1.8195 H   0  0  0  0  0  0  0  0  0  0  0  0
   -3.7756   -1.9801    0.2118 H   0  0  0  0  0  0  0  0  0  0  0  0
   -1.8851   -1.4269    1.0763 C   0  0  0  0  0  0  0  0  0  0  0  0
   -0.9756   -2.1113    1.5168 O   0  0  0  0  0  0  0  0  0  0  0  0
   -1.6381   -0.1851    0.5245 N   0  0  0  0  0  0  0  0  0  0  0  0
   -2.4516    0.4078    0.3798 H   0  0  0  0  0  0  0  0  0  0  0  0
   -0.3088    0.4473    0.4110 C   0  0  1  0  0  0  0  0  0  0  0  0
    0.3135    0.1762    1.2715 H   0  0  0  0  0  0  0  0  0  0  0  0
    0.4530    0.0764   -0.9089 C   0  0  1  0  0  0  0  0  0  0  0  0
   -0.1643    0.3718   -1.7639 H   0  0  0  0  0  0  0  0  0  0  0  0
    1.8197    0.8054   -0.9713 C   0  0  0  0  0  0  0  0  0  0  0  0
    2.4909    0.4193   -0.1972 H   0  0  0  0  0  0  0  0  0  0  0  0
    2.2932    0.6575   -1.9454 H   0  0  0  0  0  0  0  0  0  0  0  0
    1.7337    1.8826   -0.8236 H   0  0  0  0  0  0  0  0  0  0  0  0
    0.7634   -1.4377   -1.0155 C   0  0  0  0  0  0  0  0  0  0  0  0
    1.4807   -1.7389   -0.2446 H   0  0  0  0  0  0  0  0  0  0  0  0
   -0.1534   -2.0050   -0.8528 H   0  0  0  0  0  0  0  0  0  0  0  0
    1.2650   -1.8593   -2.4015 C   0  0  0  0  0  0  0  0  0  0  0  0
    2.2679   -1.4701   -2.5963 H   0  0  0  0  0  0  0  0  0  0  0  0
    1.3111   -2.9511   -2.4607 H   0  0  0  0  0  0  0  0  0  0  0  0
    0.5875   -1.5000   -3.1822 H   0  0  0  0  0  0  0  0  0  0  0  0
   -0.6099    1.9682    0.4979 C   0  0  0  0  0  0  0  0  0  0  0  0
   -1.0215    2.4335    1.5519 O   0  0  0  0  0  0  0  0  0  0  0  0
   -0.5796    2.8073   -0.6042 N   0  0  0  0  0  0  0  0  0  0  0  0
   -0.2531    2.4106   -1.4803 H   0  0  0  0  0  0  0  0  0  0  0  0
   -0.9059    4.2276   -0.5496 C   0  0  0  0  0  0  0  0  0  0  0  0
   -0.2169    4.7532    0.1198 H   0  0  0  0  0  0  0  0  0  0  0  0
   -0.8271    4.6723   -1.5462 H   0  0  0  0  0  0  0  0  0  0  0  0
   -1.9290    4.3730   -0.1873 H   0  0  0  0  0  0  0  0  0  0  0  0
  1  2  1  0  0  0  0
  2  3  1  0  0  0  0
  2  4  1  0  0  0  0
  2  5  1  0  0  0  0
  5  6  2  0  0  0  0
  5  7  1  0  0  0  0
  7  8  1  0  0  0  0
  7  9  1  0  0  0  0
  9 10  1  0  0  0  0
  9 11  1  0  0  0  0
  9 24  1  0  0  0  0
 11 12  1  0  0  0  0
 11 13  1  0  0  0  0
 11 17  1  0  0  0  0
 13 14  1  0  0  0  0
 13 15  1  0  0  0  0
 13 16  1  0  0  0  0
 17 18  1  0  0  0  0
 17 19  1  0  0  0  0
 17 20  1  0  0  0  0
 20 21  1  0  0  0  0
 20 22  1  0  0  0  0
 20 23  1  0  0  0  0
 24 25  2  0  0  0  0
 24 26  1  0  0  0  0
 26 27  1  0  0  0  0
 26 28  1  0  0  0  0
 28 29  1  0  0  0  0
 28 30  1  0  0  0  0
 28 31  1  0  0  0  0
M  END
$$$$

  -OEChem-01062216083D

 31 30  0     1  0  0  0  0  0999 V2000
   -3.3161   -2.9609    1.6493 H   0  0  0  0  0  0  0  0  0  0  0  0
   -3.3092   -1.9689    1.1890 C   0  0  0  0  0  0  0  0  0  0  0  0
   -3.9166   -1.2948    1.7978 H   0  0  0  0  0  0  0  0  0  0  0  0
   -3.7454   -2.0417    0.1900 H   0  0  0  0  0  0  0  0  0  0  0  0
   -1.8881   -1.4458    1.0975 C   0  0  0  0  0  0  0  0  0  0  0  0
   -0.9712   -2.1080    1.5555 O   0  0  0  0  0  0  0  0  0  0  0  0
   -1.6583   -0.2006    0.5456 N   0  0  0  0  0  0  0  0  0  0  0  0
   -2.4816    0.3547    0.3294 H   0  0  0  0  0  0  0  0  0  0  0  0
   -0.3380    0.4499    0.4278 C   0  0  1  0  0  0  0  0  0  0  0  0
    0.2900    0.1781    1.2845 H   0  0  0  0  0  0  0  0  0  0  0  0
    0.4211    0.0878   -0.8942 C   0  0  1  0  0  0  0  0  0  0  0  0
   -0.2126    0.3602   -1.7442 H   0  0  0  0  0  0  0  0  0  0  0  0
    1.7539    0.8695   -0.9795 C   0  0  0  0  0  0  0  0  0  0  0  0
    2.4250    0.5644   -0.1699 H   0  0  0  0  0  0  0  0  0  0  0  0
    2.2550    0.6849   -1.9329 H   0  0  0  0  0  0  0  0  0  0  0  0
    1.6050    1.9491   -0.9060 H   0  0  0  0  0  0  0  0  0  0  0  0
    0.7535   -1.4205   -1.0014 C   0  0  0  0  0  0  0  0  0  0  0  0
    1.4833   -1.7055   -0.2362 H   0  0  0  0  0  0  0  0  0  0  0  0
   -0.1522   -2.0028   -0.8289 H   0  0  0  0  0  0  0  0  0  0  0  0
    1.2534   -1.8361   -2.3895 C   0  0  0  0  0  0  0  0  0  0  0  0
    2.2498   -1.4331   -2.5896 H   0  0  0  0  0  0  0  0  0  0  0  0
    1.3144   -2.9272   -2.4484 H   0  0  0  0  0  0  0  0  0  0  0  0
    0.5667   -1.4870   -3.1668 H   0  0  0  0  0  0  0  0  0  0  0  0
   -0.6182    1.9706    0.5117 C   0  0  0  0  0  0  0  0  0  0  0  0
   -0.7312    2.5057    1.6050 O   0  0  0  0  0  0  0  0  0  0  0  0
   -0.8766    2.7288   -0.6187 N   0  0  0  0  0  0  0  0  0  0  0  0
   -0.7561    2.2755   -1.5194 H   0  0  0  0  0  0  0  0  0  0  0  0
   -1.1575    4.1590   -0.5794 C   0  0  0  0  0  0  0  0  0  0  0  0
   -0.3110    4.7035   -0.1479 H   0  0  0  0  0  0  0  0  0  0  0  0
   -1.3339    4.5380   -1.5906 H   0  0  0  0  0  0  0  0  0  0  0  0
   -2.0493    4.3585    0.0240 H   0  0  0  0  0  0  0  0  0  0  0  0
  1  2  1  0  0  0  0
  2  3  1  0  0  0  0
  2  4  1  0  0  0  0
  2  5  1  0  0  0  0
  5  6  2  0  0  0  0
  5  7  1  0  0  0  0
  7  8  1  0  0  0  0
  7  9  1  0  0  0  0
  9 10  1  0  0  0  0
  9 11  1  0  0  0  0
  9 24  1  0  0  0  0
 11 12  1  0  0  0  0
 11 13  1  0  0  0  0
 11 17  1  0  0  0  0
 13 14  1  0  0  0  0
 13 15  1  0  0  0  0
 13 16  1  0  0  0  0
 17 18  1  0  0  0  0
 17 19  1  0  0  0  0
 17 20  1  0  0  0  0
 20 21  1  0  0  0  0
 20 22  1  0  0  0  0
 20 23  1  0  0  0  0
 24 25  2  0  0  0  0
 24 26  1  0  0  0  0
 26 27  1  0  0  0  0
 26 28  1  0  0  0  0
 28 29  1  0  0  0  0
 28 30  1  0  0  0  0
 28 31  1  0  0  0  0
M  END
$$$$

  -OEChem-01062216083D

 31 30  0     1  0  0  0  0  0999 V2000
   -3.2997   -3.0075    1.6449 H   0  0  0  0  0  0  0  0  0  0  0  0
   -3.3039   -2.0138    1.1879 C   0  0  0  0  0  0  0  0  0  0  0  0
   -3.9297   -1.3519    1.7916 H   0  0  0  0  0  0  0  0  0  0  0  0
   -3.7270   -2.0905    0.1836 H   0  0  0  0  0  0  0  0  0  0  0  0
   -1.8906   -1.4670    1.1160 C   0  0  0  0  0  0  0  0  0  0  0  0
   -0.9690   -2.1146    1.5845 O   0  0  0  0  0  0  0  0  0  0  0  0
   -1.6725   -0.2186    0.5658 N   0  0  0  0  0  0  0  0  0  0  0  0
   -2.4996    0.3138    0.3114 H   0  0  0  0  0  0  0  0  0  0  0  0
   -0.3585    0.4458    0.4520 C   0  0  1  0  0  0  0  0  0  0  0  0
    0.2739    0.1698    1.3042 H   0  0  0  0  0  0  0  0  0  0  0  0
    0.3955    0.1012   -0.8761 C   0  0  1  0  0  0  0  0  0  0  0  0
   -0.2505    0.3680   -1.7187 H   0  0  0  0  0  0  0  0  0  0  0  0
    1.7055    0.9163   -0.9757 C   0  0  0  0  0  0  0  0  0  0  0  0
    2.3773    0.6591   -0.1503 H   0  0  0  0  0  0  0  0  0  0  0  0
    2.2222    0.7172   -1.9176 H   0  0  0  0  0  0  0  0  0  0  0  0
    1.5170    1.9926   -0.9412 H   0  0  0  0  0  0  0  0  0  0  0  0
    0.7399   -1.4029   -0.9963 C   0  0  0  0  0  0  0  0  0  0  0  0
    1.4792   -1.6837   -0.2388 H   0  0  0  0  0  0  0  0  0  0  0  0
   -0.1580   -1.9959   -0.8185 H   0  0  0  0  0  0  0  0  0  0  0  0
    1.2350   -1.8034   -2.3903 C   0  0  0  0  0  0  0  0  0  0  0  0
    2.2263   -1.3895   -2.5929 H   0  0  0  0  0  0  0  0  0  0  0  0
    1.3062   -2.8933   -2.4576 H   0  0  0  0  0  0  0  0  0  0  0  0
    0.5407   -1.4542   -3.1605 H   0  0  0  0  0  0  0  0  0  0  0  0
   -0.6250    1.9655    0.5335 C   0  0  0  0  0  0  0  0  0  0  0  0
   -0.4344    2.5693    1.5787 O   0  0  0  0  0  0  0  0  0  0  0  0
   -1.1690    2.6476   -0.5421 N   0  0  0  0  0  0  0  0  0  0  0  0
   -1.2493    2.1406   -1.4183 H   0  0  0  0  0  0  0  0  0  0  0  0
   -1.4157    4.0843   -0.5327 C   0  0  0  0  0  0  0  0  0  0  0  0
   -0.4821    4.6320   -0.3668 H   0  0  0  0  0  0  0  0  0  0  0  0
   -1.8384    4.4020   -1.4907 H   0  0  0  0  0  0  0  0  0  0  0  0
   -2.1236    4.3464    0.2607 H   0  0  0  0  0  0  0  0  0  0  0  0
  1  2  1  0  0  0  0
  2  3  1  0  0  0  0
  2  4  1  0  0  0  0
  2  5  1  0  0  0  0
  5  6  2  0  0  0  0
  5  7  1  0  0  0  0
  7  8  1  0  0  0  0
  7  9  1  0  0  0  0
  9 10  1  0  0  0  0
  9 11  1  0  0  0  0
  9 24  1  0  0  0  0
 11 12  1  0  0  0  0
 11 13  1  0  0  0  0
 11 17  1  0  0  0  0
 13 14  1  0  0  0  0
 13 15  1  0  0  0  0
 13 16  1  0  0  0  0
 17 18  1  0  0  0  0
 17 19  1  0  0  0  0
 17 20  1  0  0  0  0
 20 21  1  0  0  0  0
 20 22  1  0  0  0  0
 20 23  1  0  0  0  0
 24 25  2  0  0  0  0
 24 26  1  0  0  0  0
 26 27  1  0  0  0  0
 26 28  1  0  0  0  0
 28 29  1  0  0  0  0
 28 30  1  0  0  0  0
 28 31  1  0  0  0  0
M  END
$$$$

  -OEChem-01062216083D

 31 30  0     1  0  0  0  0  0999 V2000
   -3.2902   -3.0368    1.6538 H   0  0  0  0  0  0  0  0  0  0  0  0
   -3.2996   -2.0432    1.1966 C   0  0  0  0  0  0  0  0  0  0  0  0
   -3.9308   -1.3856    1.7991 H   0  0  0  0  0  0  0  0  0  0  0  0
   -3.7201   -2.1230    0.1914 H   0  0  0  0  0  0  0  0  0  0  0  0
   -1.8897   -1.4871    1.1268 C   0  0  0  0  0  0  0  0  0  0  0  0
   -0.9645   -2.1283    1.5965 O   0  0  0  0  0  0  0  0  0  0  0  0
   -1.6795   -0.2362    0.5786 N   0  0  0  0  0  0  0  0  0  0  0  0
   -2.5102    0.2916    0.3273 H   0  0  0  0  0  0  0  0  0  0  0  0
   -0.3687    0.4385    0.4754 C   0  0  1  0  0  0  0  0  0  0  0  0
    0.2670    0.1586    1.3238 H   0  0  0  0  0  0  0  0  0  0  0  0
    0.3792    0.1124   -0.8594 C   0  0  1  0  0  0  0  0  0  0  0  0
   -0.2744    0.3871   -1.6938 H   0  0  0  0  0  0  0  0  0  0  0  0
    1.6815    0.9385   -0.9634 C   0  0  0  0  0  0  0  0  0  0  0  0
    2.3541    0.6944   -0.1347 H   0  0  0  0  0  0  0  0  0  0  0  0
    2.2024    0.7383   -1.9027 H   0  0  0  0  0  0  0  0  0  0  0  0
    1.4800    2.0131   -0.9384 H   0  0  0  0  0  0  0  0  0  0  0  0
    0.7278   -1.3893   -0.9981 C   0  0  0  0  0  0  0  0  0  0  0  0
    1.4726   -1.6751   -0.2478 H   0  0  0  0  0  0  0  0  0  0  0  0
   -0.1671   -1.9874   -0.8220 H   0  0  0  0  0  0  0  0  0  0  0  0
    1.2171   -1.7727   -2.3987 C   0  0  0  0  0  0  0  0  0  0  0  0
    2.2065   -1.3546   -2.6017 H   0  0  0  0  0  0  0  0  0  0  0  0
    1.2901   -2.8615   -2.4786 H   0  0  0  0  0  0  0  0  0  0  0  0
    0.5181   -1.4164   -3.1614 H   0  0  0  0  0  0  0  0  0  0  0  0
   -0.6298    1.9576    0.5542 C   0  0  0  0  0  0  0  0  0  0  0  0
   -0.1793    2.6182    1.4784 O   0  0  0  0  0  0  0  0  0  0  0  0
   -1.4344    2.5762   -0.3881 N   0  0  0  0  0  0  0  0  0  0  0  0
   -1.6835    2.0314   -1.2078 H   0  0  0  0  0  0  0  0  0  0  0  0
   -1.6733    4.0143   -0.4019 C   0  0  0  0  0  0  0  0  0  0  0  0
   -0.7292    4.5585   -0.5117 H   0  0  0  0  0  0  0  0  0  0  0  0
   -2.3270    4.2817   -1.2376 H   0  0  0  0  0  0  0  0  0  0  0  0
   -2.1562    4.3310    0.5287 H   0  0  0  0  0  0  0  0  0  0  0  0
  1  2  1  0  0  0  0
  2  3  1  0  0  0  0
  2  4  1  0  0  0  0
  2  5  1  0  0  0  0
  5  6  2  0  0  0  0
  5  7  1  0  0  0  0
  7  8  1  0  0  0  0
  7  9  1  0  0  0  0
  9 10  1  0  0  0  0
  9 11  1  0  0  0  0
  9 24  1  0  0  0  0
 11 12  1  0  0  0  0
 11 13  1  0  0  0  0
 11 17  1  0  0  0  0
 13 14  1  0  0  0  0
 13 15  1  0  0  0  0
 13 16  1  0  0  0  0
 17 18  1  0  0  0  0
 17 19  1  0  0  0  0
 17 20  1  0  0  0  0
 20 21  1  0  0  0  0
 20 22  1  0  0  0  0
 20 23  1  0  0  0  0
 24 25  2  0  0  0  0
 24 26  1  0  0  0  0
 26 27  1  0  0  0  0
 26 28  1  0  0  0  0
 28 29  1  0  0  0  0
 28 30  1  0  0  0  0
 28 31  1  0  0  0  0
M  END
$$$$

  -OEChem-01062216083D

 31 30  0     1  0  0  0  0  0999 V2000
   -3.2722   -3.0635    1.6540 H   0  0  0  0  0  0  0  0  0  0  0  0
   -3.2897   -2.0695    1.1979 C   0  0  0  0  0  0  0  0  0  0  0  0
   -3.9274   -1.4182    1.8004 H   0  0  0  0  0  0  0  0  0  0  0  0
   -3.7078   -2.1525    0.1919 H   0  0  0  0  0  0  0  0  0  0  0  0
   -1.8844   -1.5016    1.1310 C   0  0  0  0  0  0  0  0  0  0  0  0
   -0.9561   -2.1340    1.6060 O   0  0  0  0  0  0  0  0  0  0  0  0
   -1.6824   -0.2488    0.5832 N   0  0  0  0  0  0  0  0  0  0  0  0
   -2.5182    0.2817    0.3579 H   0  0  0  0  0  0  0  0  0  0  0  0
   -0.3741    0.4361    0.4903 C   0  0  1  0  0  0  0  0  0  0  0  0
    0.2619    0.1550    1.3380 H   0  0  0  0  0  0  0  0  0  0  0  0
    0.3685    0.1151   -0.8502 C   0  0  1  0  0  0  0  0  0  0  0  0
   -0.2921    0.3922   -1.6784 H   0  0  0  0  0  0  0  0  0  0  0  0
    1.6685    0.9436   -0.9649 C   0  0  0  0  0  0  0  0  0  0  0  0
    2.3398    0.7155   -0.1308 H   0  0  0  0  0  0  0  0  0  0  0  0
    2.1927    0.7319   -1.8995 H   0  0  0  0  0  0  0  0  0  0  0  0
    1.4622    2.0175   -0.9589 H   0  0  0  0  0  0  0  0  0  0  0  0
    0.7200   -1.3862   -0.9964 C   0  0  0  0  0  0  0  0  0  0  0  0
    1.4697   -1.6710   -0.2507 H   0  0  0  0  0  0  0  0  0  0  0  0
   -0.1712   -1.9881   -0.8162 H   0  0  0  0  0  0  0  0  0  0  0  0
    1.2036   -1.7672   -2.4004 C   0  0  0  0  0  0  0  0  0  0  0  0
    2.1919   -1.3488   -2.6077 H   0  0  0  0  0  0  0  0  0  0  0  0
    1.2767   -2.8559   -2.4828 H   0  0  0  0  0  0  0  0  0  0  0  0
    0.5012   -1.4100   -3.1596 H   0  0  0  0  0  0  0  0  0  0  0  0
   -0.6280    1.9579    0.5649 C   0  0  0  0  0  0  0  0  0  0  0  0
    0.0128    2.6558    1.3375 O   0  0  0  0  0  0  0  0  0  0  0  0
   -1.6475    2.5347   -0.1756 N   0  0  0  0  0  0  0  0  0  0  0  0
   -2.0338    1.9757   -0.9294 H   0  0  0  0  0  0  0  0  0  0  0  0
   -1.9030    3.9706   -0.1735 C   0  0  0  0  0  0  0  0  0  0  0  0
   -1.0247    4.5171   -0.5332 H   0  0  0  0  0  0  0  0  0  0  0  0
   -2.7498    4.2060   -0.8252 H   0  0  0  0  0  0  0  0  0  0  0  0
   -2.1416    4.3157    0.8382 H   0  0  0  0  0  0  0  0  0  0  0  0
  1  2  1  0  0  0  0
  2  3  1  0  0  0  0
  2  4  1  0  0  0  0
  2  5  1  0  0  0  0
  5  6  2  0  0  0  0
  5  7  1  0  0  0  0
  7  8  1  0  0  0  0
  7  9  1  0  0  0  0
  9 10  1  0  0  0  0
  9 11  1  0  0  0  0
  9 24  1  0  0  0  0
 11 12  1  0  0  0  0
 11 13  1  0  0  0  0
 11 17  1  0  0  0  0
 13 14  1  0  0  0  0
 13 15  1  0  0  0  0
 13 16  1  0  0  0  0
 17 18  1  0  0  0  0
 17 19  1  0  0  0  0
 17 20  1  0  0  0  0
 20 21  1  0  0  0  0
 20 22  1  0  0  0  0
 20 23  1  0  0  0  0
 24 25  2  0  0  0  0
 24 26  1  0  0  0  0
 26 27  1  0  0  0  0
 26 28  1  0  0  0  0
 28 29  1  0  0  0  0
 28 30  1  0  0  0  0
 28 31  1  0  0  0  0
M  END
$$$$

  -OEChem-01062216083D

 31 30  0     1  0  0  0  0  0999 V2000
   -3.2425   -3.0930    1.6440 H   0  0  0  0  0  0  0  0  0  0  0  0
   -3.2671   -2.1053    1.1748 C   0  0  0  0  0  0  0  0  0  0  0  0
   -3.9333   -1.4589    1.7514 H   0  0  0  0  0  0  0  0  0  0  0  0
   -3.6565   -2.2092    0.1593 H   0  0  0  0  0  0  0  0  0  0  0  0
   -1.8716   -1.5112    1.1371 C   0  0  0  0  0  0  0  0  0  0  0  0
   -0.9426   -2.1234    1.6363 O   0  0  0  0  0  0  0  0  0  0  0  0
   -1.6806   -0.2576    0.5868 N   0  0  0  0  0  0  0  0  0  0  0  0
   -2.5208    0.2515    0.3361 H   0  0  0  0  0  0  0  0  0  0  0  0
   -0.3782    0.4426    0.4980 C   0  0  1  0  0  0  0  0  0  0  0  0
    0.2607    0.1654    1.3448 H   0  0  0  0  0  0  0  0  0  0  0  0
    0.3575    0.1114   -0.8471 C   0  0  1  0  0  0  0  0  0  0  0  0
   -0.3131    0.3767   -1.6714 H   0  0  0  0  0  0  0  0  0  0  0  0
    1.6533    0.9426   -0.9910 C   0  0  0  0  0  0  0  0  0  0  0  0
    2.3217    0.7548   -0.1446 H   0  0  0  0  0  0  0  0  0  0  0  0
    2.1851    0.6979   -1.9128 H   0  0  0  0  0  0  0  0  0  0  0  0
    1.4385    2.0137   -1.0333 H   0  0  0  0  0  0  0  0  0  0  0  0
    0.7157   -1.3905   -0.9819 C   0  0  0  0  0  0  0  0  0  0  0  0
    1.4719   -1.6643   -0.2385 H   0  0  0  0  0  0  0  0  0  0  0  0
   -0.1702   -1.9962   -0.7909 H   0  0  0  0  0  0  0  0  0  0  0  0
    1.1911   -1.7863   -2.3846 C   0  0  0  0  0  0  0  0  0  0  0  0
    2.1797   -1.3737   -2.6019 H   0  0  0  0  0  0  0  0  0  0  0  0
    1.2607   -2.8759   -2.4565 H   0  0  0  0  0  0  0  0  0  0  0  0
    0.4852   -1.4349   -3.1433 H   0  0  0  0  0  0  0  0  0  0  0  0
   -0.6244    1.9697    0.5657 C   0  0  0  0  0  0  0  0  0  0  0  0
    0.1519    2.6885    1.1794 O   0  0  0  0  0  0  0  0  0  0  0  0
   -1.7986    2.5276    0.0825 N   0  0  0  0  0  0  0  0  0  0  0  0
   -2.3250    1.9713   -0.5816 H   0  0  0  0  0  0  0  0  0  0  0  0
   -2.0695    3.9597    0.1482 C   0  0  0  0  0  0  0  0  0  0  0  0
   -1.3247    4.5176   -0.4290 H   0  0  0  0  0  0  0  0  0  0  0  0
   -3.0610    4.1772   -0.2605 H   0  0  0  0  0  0  0  0  0  0  0  0
   -2.0429    4.3080    1.1864 H   0  0  0  0  0  0  0  0  0  0  0  0
  1  2  1  0  0  0  0
  2  3  1  0  0  0  0
  2  4  1  0  0  0  0
  2  5  1  0  0  0  0
  5  6  2  0  0  0  0
  5  7  1  0  0  0  0
  7  8  1  0  0  0  0
  7  9  1  0  0  0  0
  9 10  1  0  0  0  0
  9 11  1  0  0  0  0
  9 24  1  0  0  0  0
 11 12  1  0  0  0  0
 11 13  1  0  0  0  0
 11 17  1  0  0  0  0
 13 14  1  0  0  0  0
 13 15  1  0  0  0  0
 13 16  1  0  0  0  0
 17 18  1  0  0  0  0
 17 19  1  0  0  0  0
 17 20  1  0  0  0  0
 20 21  1  0  0  0  0
 20 22  1  0  0  0  0
 20 23  1  0  0  0  0
 24 25  2  0  0  0  0
 24 26  1  0  0  0  0
 26 27  1  0  0  0  0
 26 28  1  0  0  0  0
 28 29  1  0  0  0  0
 28 30  1  0  0  0  0
 28 31  1  0  0  0  0
M  END
$$$$

  -OEChem-01062216083D

 31 30  0     1  0  0  0  0  0999 V2000
   -3.0525   -3.1910    1.4272 H   0  0  0  0  0  0  0  0  0  0  0  0
   -3.1317   -2.1956    0.9806 C   0  0  0  0  0  0  0  0  0  0  0  0
   -3.9680   -1.6676    1.4451 H   0  0  0  0  0  0  0  0  0  0  0  0
   -3.3260   -2.3064   -0.0888 H   0  0  0  0  0  0  0  0  0  0  0  0
   -1.8444   -1.4230    1.1993 C   0  0  0  0  0  0  0  0  0  0  0  0
   -0.9630   -1.9003    1.8932 O   0  0  0  0  0  0  0  0  0  0  0  0
   -1.6880   -0.1766    0.6220 N   0  0  0  0  0  0  0  0  0  0  0  0
   -2.3975    0.0576   -0.0642 H   0  0  0  0  0  0  0  0  0  0  0  0
   -0.3834    0.5187    0.4959 C   0  0  1  0  0  0  0  0  0  0  0  0
    0.2686    0.2607    1.3385 H   0  0  0  0  0  0  0  0  0  0  0  0
    0.3219    0.1080   -0.8487 C   0  0  1  0  0  0  0  0  0  0  0  0
   -0.3680    0.3335   -1.6688 H   0  0  0  0  0  0  0  0  0  0  0  0
    1.6198    0.9127   -1.0861 C   0  0  0  0  0  0  0  0  0  0  0  0
    2.2886    0.8209   -0.2243 H   0  0  0  0  0  0  0  0  0  0  0  0
    2.1529    0.5691   -1.9744 H   0  0  0  0  0  0  0  0  0  0  0  0
    1.4026    1.9711   -1.2518 H   0  0  0  0  0  0  0  0  0  0  0  0
    0.6631   -1.4056   -0.9091 C   0  0  0  0  0  0  0  0  0  0  0  0
    1.4339   -1.6427   -0.1682 H   0  0  0  0  0  0  0  0  0  0  0  0
   -0.2193   -1.9957   -0.6655 H   0  0  0  0  0  0  0  0  0  0  0  0
    1.1051   -1.8888   -2.2958 C   0  0  0  0  0  0  0  0  0  0  0  0
    2.1012   -1.5177   -2.5503 H   0  0  0  0  0  0  0  0  0  0  0  0
    1.1446   -2.9823   -2.3095 H   0  0  0  0  0  0  0  0  0  0  0  0
    0.3968   -1.5591   -3.0621 H   0  0  0  0  0  0  0  0  0  0  0  0
   -0.6090    2.0549    0.5480 C   0  0  0  0  0  0  0  0  0  0  0  0
    0.3060    2.8111    0.8455 O   0  0  0  0  0  0  0  0  0  0  0  0
   -1.8709    2.6044    0.3832 N   0  0  0  0  0  0  0  0  0  0  0  0
   -2.6494    1.9568    0.3905 H   0  0  0  0  0  0  0  0  0  0  0  0
   -2.1495    4.0227    0.5814 C   0  0  0  0  0  0  0  0  0  0  0  0
   -1.5142    4.6330   -0.0694 H   0  0  0  0  0  0  0  0  0  0  0  0
   -3.1945    4.2405    0.3417 H   0  0  0  0  0  0  0  0  0  0  0  0
   -1.9641    4.3084    1.6222 H   0  0  0  0  0  0  0  0  0  0  0  0
  1  2  1  0  0  0  0
  2  3  1  0  0  0  0
  2  4  1  0  0  0  0
  2  5  1  0  0  0  0
  5  6  2  0  0  0  0
  5  7  1  0  0  0  0
  7  8  1  0  0  0  0
  7  9  1  0  0  0  0
  9 10  1  0  0  0  0
  9 11  1  0  0  0  0
  9 24  1  0  0  0  0
 11 12  1  0  0  0  0
 11 13  1  0  0  0  0
 11 17  1  0  0  0  0
 13 14  1  0  0  0  0
 13 15  1  0  0  0  0
 13 16  1  0  0  0  0
 17 18  1  0  0  0  0
 17 19  1  0  0  0  0
 17 20  1  0  0  0  0
 20 21  1  0  0  0  0
 20 22  1  0  0  0  0
 20 23  1  0  0  0  0
 24 25  2  0  0  0  0
 24 26  1  0  0  0  0
 26 27  1  0  0  0  0
 26 28  1  0  0  0  0
 28 29  1  0  0  0  0
 28 30  1  0  0  0  0
 28 31  1  0  0  0  0
M  END
$$$$

  -OEChem-01062216083D

 31 30  0     1  0  0  0  0  0999 V2000
   -3.0788   -3.1443    1.4679 H   0  0  0  0  0  0  0  0  0  0  0  0
   -3.1207   -2.1809    0.9516 C   0  0  0  0  0  0  0  0  0  0  0  0
   -3.9737   -1.6147    1.3331 H   0  0  0  0  0  0  0  0  0  0  0  0
   -3.2583   -2.3615   -0.1172 H   0  0  0  0  0  0  0  0  0  0  0  0
   -1.8370   -1.4074    1.1868 C   0  0  0  0  0  0  0  0  0  0  0  0
   -0.9639   -1.8802    1.8943 O   0  0  0  0  0  0  0  0  0  0  0  0
   -1.6754   -0.1592    0.6156 N   0  0  0  0  0  0  0  0  0  0  0  0
   -2.3838    0.0852   -0.0701 H   0  0  0  0  0  0  0  0  0  0  0  0
   -0.3696    0.5355    0.4890 C   0  0  1  0  0  0  0  0  0  0  0  0
    0.2836    0.2801    1.3309 H   0  0  0  0  0  0  0  0  0  0  0  0
    0.3288    0.1105   -0.8587 C   0  0  1  0  0  0  0  0  0  0  0  0
   -0.3649    0.3311   -1.6768 H   0  0  0  0  0  0  0  0  0  0  0  0
    1.6312    0.9021   -1.1159 C   0  0  0  0  0  0  0  0  0  0  0  0
    2.2770    0.8737   -0.2326 H   0  0  0  0  0  0  0  0  0  0  0  0
    2.1914    0.5041   -1.9632 H   0  0  0  0  0  0  0  0  0  0  0  0
    1.4126    1.9442   -1.3617 H   0  0  0  0  0  0  0  0  0  0  0  0
    0.6631   -1.4066   -0.9091 C   0  0  0  0  0  0  0  0  0  0  0  0
    1.4351   -1.6419   -0.1688 H   0  0  0  0  0  0  0  0  0  0  0  0
   -0.2210   -1.9905   -0.6592 H   0  0  0  0  0  0  0  0  0  0  0  0
    1.0967   -1.9093   -2.2923 C   0  0  0  0  0  0  0  0  0  0  0  0
    2.1023   -1.5659   -2.5477 H   0  0  0  0  0  0  0  0  0  0  0  0
    1.1092   -3.0036   -2.2984 H   0  0  0  0  0  0  0  0  0  0  0  0
    0.3983   -1.5679   -3.0623 H   0  0  0  0  0  0  0  0  0  0  0  0
   -0.6185    2.0710    0.5514 C   0  0  0  0  0  0  0  0  0  0  0  0
    0.3032    2.8716    0.6273 O   0  0  0  0  0  0  0  0  0  0  0  0
   -1.9033    2.5699    0.7018 N   0  0  0  0  0  0  0  0  0  0  0  0
   -2.6162    1.8856    0.9297 H   0  0  0  0  0  0  0  0  0  0  0  0
   -2.1833    3.9749    0.9789 C   0  0  0  0  0  0  0  0  0  0  0  0
   -1.7537    4.6133    0.1994 H   0  0  0  0  0  0  0  0  0  0  0  0
   -3.2636    4.1468    1.0056 H   0  0  0  0  0  0  0  0  0  0  0  0
   -1.7600    4.2675    1.9456 H   0  0  0  0  0  0  0  0  0  0  0  0
  1  2  1  0  0  0  0
  2  3  1  0  0  0  0
  2  4  1  0  0  0  0
  2  5  1  0  0  0  0
  5  6  2  0  0  0  0
  5  7  1  0  0  0  0
  7  8  1  0  0  0  0
  7  9  1  0  0  0  0
  9 10  1  0  0  0  0
  9 11  1  0  0  0  0
  9 24  1  0  0  0  0
 11 12  1  0  0  0  0
 11 13  1  0  0  0  0
 11 17  1  0  0  0  0
 13 14  1  0  0  0  0
 13 15  1  0  0  0  0
 13 16  1  0  0  0  0
 17 18  1  0  0  0  0
 17 19  1  0  0  0  0
 17 20  1  0  0  0  0
 20 21  1  0  0  0  0
 20 22  1  0  0  0  0
 20 23  1  0  0  0  0
 24 25  2  0  0  0  0
 24 26  1  0  0  0  0
 26 27  1  0  0  0  0
 26 28  1  0  0  0  0
 28 29  1  0  0  0  0
 28 30  1  0  0  0  0
 28 31  1  0  0  0  0
M  END
$$$$

  -OEChem-01062216083D

 31 30  0     1  0  0  0  0  0999 V2000
   -3.0642   -3.1516    1.3779 H   0  0  0  0  0  0  0  0  0  0  0  0
   -3.1320   -2.1492    0.9453 C   0  0  0  0  0  0  0  0  0  0  0  0
   -3.9610   -1.6170    1.4180 H   0  0  0  0  0  0  0  0  0  0  0  0
   -3.3294   -2.2427   -0.1253 H   0  0  0  0  0  0  0  0  0  0  0  0
   -1.8346   -1.3961    1.1709 C   0  0  0  0  0  0  0  0  0  0  0  0
   -0.9623   -1.8823    1.8703 O   0  0  0  0  0  0  0  0  0  0  0  0
   -1.6623   -0.1433    0.6139 N   0  0  0  0  0  0  0  0  0  0  0  0
   -2.3899    0.1402   -0.0367 H   0  0  0  0  0  0  0  0  0  0  0  0
   -0.3539    0.5452    0.4786 C   0  0  1  0  0  0  0  0  0  0  0  0
    0.3015    0.2877    1.3178 H   0  0  0  0  0  0  0  0  0  0  0  0
    0.3421    0.1128   -0.8717 C   0  0  1  0  0  0  0  0  0  0  0  0
   -0.3459    0.3371   -1.6935 H   0  0  0  0  0  0  0  0  0  0  0  0
    1.6596    0.8849   -1.1219 C   0  0  0  0  0  0  0  0  0  0  0  0
    2.2606    0.9226   -0.2078 H   0  0  0  0  0  0  0  0  0  0  0  0
    2.2652    0.4302   -1.9063 H   0  0  0  0  0  0  0  0  0  0  0  0
    1.4558    1.9048   -1.4565 H   0  0  0  0  0  0  0  0  0  0  0  0
    0.6698   -1.4074   -0.9157 C   0  0  0  0  0  0  0  0  0  0  0  0
    1.4400   -1.6441   -0.1738 H   0  0  0  0  0  0  0  0  0  0  0  0
   -0.2174   -1.9854   -0.6644 H   0  0  0  0  0  0  0  0  0  0  0  0
    1.0996   -1.9211   -2.2971 C   0  0  0  0  0  0  0  0  0  0  0  0
    2.1093   -1.5929   -2.5553 H   0  0  0  0  0  0  0  0  0  0  0  0
    1.0984   -3.0154   -2.2990 H   0  0  0  0  0  0  0  0  0  0  0  0
    0.4057   -1.5745   -3.0690 H   0  0  0  0  0  0  0  0  0  0  0  0
   -0.6313    2.0787    0.5663 C   0  0  0  0  0  0  0  0  0  0  0  0
    0.2200    2.9299    0.3548 O   0  0  0  0  0  0  0  0  0  0  0  0
   -1.8526    2.5286    1.0446 N   0  0  0  0  0  0  0  0  0  0  0  0
   -2.4545    1.8178    1.4489 H   0  0  0  0  0  0  0  0  0  0  0  0
   -2.1329    3.9293    1.3428 C   0  0  0  0  0  0  0  0  0  0  0  0
   -1.9777    4.5500    0.4539 H   0  0  0  0  0  0  0  0  0  0  0  0
   -3.1717    4.0466    1.6655 H   0  0  0  0  0  0  0  0  0  0  0  0
   -1.4773    4.2901    2.1424 H   0  0  0  0  0  0  0  0  0  0  0  0
  1  2  1  0  0  0  0
  2  3  1  0  0  0  0
  2  4  1  0  0  0  0
  2  5  1  0  0  0  0
  5  6  2  0  0  0  0
  5  7  1  0  0  0  0
  7  8  1  0  0  0  0
  7  9  1  0  0  0  0
  9 10  1  0  0  0  0
  9 11  1  0  0  0  0
  9 24  1  0  0  0  0
 11 12  1  0  0  0  0
 11 13  1  0  0  0  0
 11 17  1  0  0  0  0
 13 14  1  0  0  0  0
 13 15  1  0  0  0  0
 13 16  1  0  0  0  0
 17 18  1  0  0  0  0
 17 19  1  0  0  0  0
 17 20  1  0  0  0  0
 20 21  1  0  0  0  0
 20 22  1  0  0  0  0
 20 23  1  0  0  0  0
 24 25  2  0  0  0  0
 24 26  1  0  0  0  0
 26 27  1  0  0  0  0
 26 28  1  0  0  0  0
 28 29  1  0  0  0  0
 28 30  1  0  0  0  0
 28 31  1  0  0  0  0
M  END
$$$$

  -OEChem-01062216083D

 31 30  0     1  0  0  0  0  0999 V2000
   -3.1225   -3.0959    1.4126 H   0  0  0  0  0  0  0  0  0  0  0  0
   -3.1600   -2.0996    0.9628 C   0  0  0  0  0  0  0  0  0  0  0  0
   -3.9639   -1.5300    1.4352 H   0  0  0  0  0  0  0  0  0  0  0  0
   -3.3735   -2.2045   -0.1037 H   0  0  0  0  0  0  0  0  0  0  0  0
   -1.8344   -1.3885    1.1592 C   0  0  0  0  0  0  0  0  0  0  0  0
   -0.9564   -1.9074    1.8277 O   0  0  0  0  0  0  0  0  0  0  0  0
   -1.6451   -0.1287    0.6260 N   0  0  0  0  0  0  0  0  0  0  0  0
   -2.3960    0.2078    0.0286 H   0  0  0  0  0  0  0  0  0  0  0  0
   -0.3291    0.5372    0.4689 C   0  0  1  0  0  0  0  0  0  0  0  0
    0.3333    0.2619    1.2966 H   0  0  0  0  0  0  0  0  0  0  0  0
    0.3621    0.1208   -0.8867 C   0  0  1  0  0  0  0  0  0  0  0  0
   -0.3099    0.3729   -1.7139 H   0  0  0  0  0  0  0  0  0  0  0  0
    1.7062    0.8679   -1.0877 C   0  0  0  0  0  0  0  0  0  0  0  0
    2.2463    0.9454   -0.1390 H   0  0  0  0  0  0  0  0  0  0  0  0
    2.3599    0.3690   -1.8034 H   0  0  0  0  0  0  0  0  0  0  0  0
    1.5422    1.8719   -1.4850 H   0  0  0  0  0  0  0  0  0  0  0  0
    0.6731   -1.4017   -0.9434 C   0  0  0  0  0  0  0  0  0  0  0  0
    1.4381   -1.6551   -0.2016 H   0  0  0  0  0  0  0  0  0  0  0  0
   -0.2232   -1.9691   -0.6989 H   0  0  0  0  0  0  0  0  0  0  0  0
    1.0980   -1.9085   -2.3292 C   0  0  0  0  0  0  0  0  0  0  0  0
    2.1082   -1.5849   -2.5903 H   0  0  0  0  0  0  0  0  0  0  0  0
    1.0900   -3.0027   -2.3376 H   0  0  0  0  0  0  0  0  0  0  0  0
    0.4031   -1.5536   -3.0963 H   0  0  0  0  0  0  0  0  0  0  0  0
   -0.6169    2.0661    0.6029 C   0  0  0  0  0  0  0  0  0  0  0  0
   -0.0091    2.9429    0.0078 O   0  0  0  0  0  0  0  0  0  0  0  0
   -1.6711    2.4795    1.4020 N   0  0  0  0  0  0  0  0  0  0  0  0
   -2.1079    1.7613    1.9728 H   0  0  0  0  0  0  0  0  0  0  0  0
   -2.0058    3.8778    1.6478 C   0  0  0  0  0  0  0  0  0  0  0  0
   -2.2410    4.3871    0.7072 H   0  0  0  0  0  0  0  0  0  0  0  0
   -2.8783    3.9481    2.3043 H   0  0  0  0  0  0  0  0  0  0  0  0
   -1.1677    4.3935    2.1282 H   0  0  0  0  0  0  0  0  0  0  0  0
  1  2  1  0  0  0  0
  2  3  1  0  0  0  0
  2  4  1  0  0  0  0
  2  5  1  0  0  0  0
  5  6  2  0  0  0  0
  5  7  1  0  0  0  0
  7  8  1  0  0  0  0
  7  9  1  0  0  0  0
  9 10  1  0  0  0  0
  9 11  1  0  0  0  0
  9 24  1  0  0  0  0
 11 12  1  0  0  0  0
 11 13  1  0  0  0  0
 11 17  1  0  0  0  0
 13 14  1  0  0  0  0
 13 15  1  0  0  0  0
 13 16  1  0  0  0  0
 17 18  1  0  0  0  0
 17 19  1  0  0  0  0
 17 20  1  0  0  0  0
 20 21  1  0  0  0  0
 20 22  1  0  0  0  0
 20 23  1  0  0  0  0
 24 25  2  0  0  0  0
 24 26  1  0  0  0  0
 26 27  1  0  0  0  0
 26 28  1  0  0  0  0
 28 29  1  0  0  0  0
 28 30  1  0  0  0  0
 28 31  1  0  0  0  0
M  END
$$$$

  -OEChem-01062216083D

 31 30  0     1  0  0  0  0  0999 V2000
   -3.1758   -3.0228    1.4729 H   0  0  0  0  0  0  0  0  0  0  0  0
   -3.1868   -2.0294    1.0155 C   0  0  0  0  0  0  0  0  0  0  0  0
   -3.9609   -1.4277    1.4978 H   0  0  0  0  0  0  0  0  0  0  0  0
   -3.4241   -2.1345   -0.0460 H   0  0  0  0  0  0  0  0  0  0  0  0
   -1.8335   -1.3640    1.1801 C   0  0  0  0  0  0  0  0  0  0  0  0
   -0.9548   -1.9153    1.8219 O   0  0  0  0  0  0  0  0  0  0  0  0
   -1.6163   -0.1082    0.6497 N   0  0  0  0  0  0  0  0  0  0  0  0
   -2.3739    0.2721    0.0875 H   0  0  0  0  0  0  0  0  0  0  0  0
   -0.2874    0.5203    0.4801 C   0  0  1  0  0  0  0  0  0  0  0  0
    0.3775    0.2271    1.2996 H   0  0  0  0  0  0  0  0  0  0  0  0
    0.3962    0.1249   -0.8772 C   0  0  1  0  0  0  0  0  0  0  0  0
   -0.2595    0.4289   -1.7002 H   0  0  0  0  0  0  0  0  0  0  0  0
    1.7763    0.8164   -1.0338 C   0  0  0  0  0  0  0  0  0  0  0  0
    2.4587    0.4888   -0.2432 H   0  0  0  0  0  0  0  0  0  0  0  0
    2.2253    0.5771   -2.0005 H   0  0  0  0  0  0  0  0  0  0  0  0
    1.7131    1.9036   -0.9908 H   0  0  0  0  0  0  0  0  0  0  0  0
    0.6748   -1.4002   -0.9656 C   0  0  0  0  0  0  0  0  0  0  0  0
    1.4312   -1.6928   -0.2298 H   0  0  0  0  0  0  0  0  0  0  0  0
   -0.2360   -1.9524   -0.7356 H   0  0  0  0  0  0  0  0  0  0  0  0
    1.0933   -1.8679   -2.3646 C   0  0  0  0  0  0  0  0  0  0  0  0
    2.0988   -1.5216   -2.6174 H   0  0  0  0  0  0  0  0  0  0  0  0
    1.0975   -2.9616   -2.4022 H   0  0  0  0  0  0  0  0  0  0  0  0
    0.3914   -1.4989   -3.1188 H   0  0  0  0  0  0  0  0  0  0  0  0
   -0.5633    2.0461    0.6263 C   0  0  0  0  0  0  0  0  0  0  0  0
   -0.3438    2.8623   -0.2583 O   0  0  0  0  0  0  0  0  0  0  0  0
   -1.3783    2.4683    1.6639 N   0  0  0  0  0  0  0  0  0  0  0  0
   -1.6269    1.7710    2.3604 H   0  0  0  0  0  0  0  0  0  0  0  0
   -1.8505    3.8385    1.8289 C   0  0  0  0  0  0  0  0  0  0  0  0
   -2.4600    4.1404    0.9706 H   0  0  0  0  0  0  0  0  0  0  0  0
   -2.4619    3.9214    2.7326 H   0  0  0  0  0  0  0  0  0  0  0  0
   -1.0040    4.5273    1.9197 H   0  0  0  0  0  0  0  0  0  0  0  0
  1  2  1  0  0  0  0
  2  3  1  0  0  0  0
  2  4  1  0  0  0  0
  2  5  1  0  0  0  0
  5  6  2  0  0  0  0
  5  7  1  0  0  0  0
  7  8  1  0  0  0  0
  7  9  1  0  0  0  0
  9 10  1  0  0  0  0
  9 11  1  0  0  0  0
  9 24  1  0  0  0  0
 11 12  1  0  0  0  0
 11 13  1  0  0  0  0
 11 17  1  0  0  0  0
 13 14  1  0  0  0  0
 13 15  1  0  0  0  0
 13 16  1  0  0  0  0
 17 18  1  0  0  0  0
 17 19  1  0  0  0  0
 17 20  1  0  0  0  0
 20 21  1  0  0  0  0
 20 22  1  0  0  0  0
 20 23  1  0  0  0  0
 24 25  2  0  0  0  0
 24 26  1  0  0  0  0
 26 27  1  0  0  0  0
 26 28  1  0  0  0  0
 28 29  1  0  0  0  0
 28 30  1  0  0  0  0
 28 31  1  0  0  0  0
M  END
$$$$

  -OEChem-01062216083D

 31 30  0     1  0  0  0  0  0999 V2000
   -3.2104   -2.9982    1.5085 H   0  0  0  0  0  0  0  0  0  0  0  0
   -3.2059   -2.0131    1.0335 C   0  0  0  0  0  0  0  0  0  0  0  0
   -3.9689   -1.3902    1.5065 H   0  0  0  0  0  0  0  0  0  0  0  0
   -3.4473   -2.1329   -0.0254 H   0  0  0  0  0  0  0  0  0  0  0  0
   -1.8419   -1.3668    1.1838 C   0  0  0  0  0  0  0  0  0  0  0  0
   -0.9635   -1.9302    1.8160 O   0  0  0  0  0  0  0  0  0  0  0  0
   -1.6125   -0.1155    0.6492 N   0  0  0  0  0  0  0  0  0  0  0  0
   -2.3699    0.2799    0.0970 H   0  0  0  0  0  0  0  0  0  0  0  0
   -0.2805    0.5012    0.4837 C   0  0  1  0  0  0  0  0  0  0  0  0
    0.3812    0.2019    1.3036 H   0  0  0  0  0  0  0  0  0  0  0  0
    0.4053    0.1124   -0.8699 C   0  0  1  0  0  0  0  0  0  0  0  0
   -0.2511    0.4176   -1.6920 H   0  0  0  0  0  0  0  0  0  0  0  0
    1.7704    0.8291   -1.0142 C   0  0  0  0  0  0  0  0  0  0  0  0
    2.4615    0.4937   -0.2346 H   0  0  0  0  0  0  0  0  0  0  0  0
    2.2187    0.6218   -1.9887 H   0  0  0  0  0  0  0  0  0  0  0  0
    1.6786    1.9142   -0.9396 H   0  0  0  0  0  0  0  0  0  0  0  0
    0.6796   -1.4105   -0.9739 C   0  0  0  0  0  0  0  0  0  0  0  0
    1.4372   -1.7106   -0.2422 H   0  0  0  0  0  0  0  0  0  0  0  0
   -0.2323   -1.9637   -0.7477 H   0  0  0  0  0  0  0  0  0  0  0  0
    1.1011   -1.8574   -2.3783 C   0  0  0  0  0  0  0  0  0  0  0  0
    2.0969   -1.4850   -2.6324 H   0  0  0  0  0  0  0  0  0  0  0  0
    1.1286   -2.9502   -2.4254 H   0  0  0  0  0  0  0  0  0  0  0  0
    0.3873   -1.4977   -3.1258 H   0  0  0  0  0  0  0  0  0  0  0  0
   -0.5350    2.0254    0.6193 C   0  0  0  0  0  0  0  0  0  0  0  0
   -0.5459    2.7829   -0.3431 O   0  0  0  0  0  0  0  0  0  0  0  0
   -1.0731    2.4949    1.8044 N   0  0  0  0  0  0  0  0  0  0  0  0
   -1.1844    1.8210    2.5571 H   0  0  0  0  0  0  0  0  0  0  0  0
   -1.5509    3.8590    1.9955 C   0  0  0  0  0  0  0  0  0  0  0  0
   -2.3916    4.0677    1.3255 H   0  0  0  0  0  0  0  0  0  0  0  0
   -1.8863    4.0016    3.0272 H   0  0  0  0  0  0  0  0  0  0  0  0
   -0.7502    4.5774    1.7906 H   0  0  0  0  0  0  0  0  0  0  0  0
  1  2  1  0  0  0  0
  2  3  1  0  0  0  0
  2  4  1  0  0  0  0
  2  5  1  0  0  0  0
  5  6  2  0  0  0  0
  5  7  1  0  0  0  0
  7  8  1  0  0  0  0
  7  9  1  0  0  0  0
  9 10  1  0  0  0  0
  9 11  1  0  0  0  0
  9 24  1  0  0  0  0
 11 12  1  0  0  0  0
 11 13  1  0  0  0  0
 11 17  1  0  0  0  0
 13 14  1  0  0  0  0
 13 15  1  0  0  0  0
 13 16  1  0  0  0  0
 17 18  1  0  0  0  0
 17 19  1  0  0  0  0
 17 20  1  0  0  0  0
 20 21  1  0  0  0  0
 20 22  1  0  0  0  0
 20 23  1  0  0  0  0
 24 25  2  0  0  0  0
 24 26  1  0  0  0  0
 26 27  1  0  0  0  0
 26 28  1  0  0  0  0
 28 29  1  0  0  0  0
 28 30  1  0  0  0  0
 28 31  1  0  0  0  0
M  END
$$$$

  -OEChem-01062216083D

 31 30  0     1  0  0  0  0  0999 V2000
   -3.2259   -3.0057    1.5128 H   0  0  0  0  0  0  0  0  0  0  0  0
   -3.2185   -2.0209    1.0374 C   0  0  0  0  0  0  0  0  0  0  0  0
   -3.9764   -1.3939    1.5133 H   0  0  0  0  0  0  0  0  0  0  0  0
   -3.4648   -2.1397   -0.0205 H   0  0  0  0  0  0  0  0  0  0  0  0
   -1.8505   -1.3815    1.1818 C   0  0  0  0  0  0  0  0  0  0  0  0
   -0.9714   -1.9511    1.8082 O   0  0  0  0  0  0  0  0  0  0  0  0
   -1.6165   -0.1323    0.6448 N   0  0  0  0  0  0  0  0  0  0  0  0
   -2.3736    0.2718    0.0981 H   0  0  0  0  0  0  0  0  0  0  0  0
   -0.2858    0.4846    0.4880 C   0  0  1  0  0  0  0  0  0  0  0  0
    0.3724    0.1807    1.3088 H   0  0  0  0  0  0  0  0  0  0  0  0
    0.4048    0.1019   -0.8628 C   0  0  1  0  0  0  0  0  0  0  0  0
   -0.2567    0.4001   -1.6836 H   0  0  0  0  0  0  0  0  0  0  0  0
    1.7513    0.8481   -1.0092 C   0  0  0  0  0  0  0  0  0  0  0  0
    2.4447    0.5438   -0.2191 H   0  0  0  0  0  0  0  0  0  0  0  0
    2.2124    0.6369   -1.9769 H   0  0  0  0  0  0  0  0  0  0  0  0
    1.6231    1.9318   -0.9536 H   0  0  0  0  0  0  0  0  0  0  0  0
    0.6832   -1.4188   -0.9749 C   0  0  0  0  0  0  0  0  0  0  0  0
    1.4421   -1.7180   -0.2443 H   0  0  0  0  0  0  0  0  0  0  0  0
   -0.2266   -1.9768   -0.7514 H   0  0  0  0  0  0  0  0  0  0  0  0
    1.1104   -1.8548   -2.3808 C   0  0  0  0  0  0  0  0  0  0  0  0
    2.1028   -1.4710   -2.6319 H   0  0  0  0  0  0  0  0  0  0  0  0
    1.1494   -2.9471   -2.4333 H   0  0  0  0  0  0  0  0  0  0  0  0
    0.3940   -1.4988   -3.1275 H   0  0  0  0  0  0  0  0  0  0  0  0
   -0.5249    2.0083    0.6129 C   0  0  0  0  0  0  0  0  0  0  0  0
   -0.7392    2.7126   -0.3665 O   0  0  0  0  0  0  0  0  0  0  0  0
   -0.7637    2.5415    1.8663 N   0  0  0  0  0  0  0  0  0  0  0  0
   -0.7239    1.9019    2.6553 H   0  0  0  0  0  0  0  0  0  0  0  0
   -1.1944    3.9163    2.0903 C   0  0  0  0  0  0  0  0  0  0  0  0
   -2.1743    4.0902    1.6335 H   0  0  0  0  0  0  0  0  0  0  0  0
   -1.2709    4.1185    3.1629 H   0  0  0  0  0  0  0  0  0  0  0  0
   -0.4743    4.6190    1.6579 H   0  0  0  0  0  0  0  0  0  0  0  0
  1  2  1  0  0  0  0
  2  3  1  0  0  0  0
  2  4  1  0  0  0  0
  2  5  1  0  0  0  0
  5  6  2  0  0  0  0
  5  7  1  0  0  0  0
  7  8  1  0  0  0  0
  7  9  1  0  0  0  0
  9 10  1  0  0  0  0
  9 11  1  0  0  0  0
  9 24  1  0  0  0  0
 11 12  1  0  0  0  0
 11 13  1  0  0  0  0
 11 17  1  0  0  0  0
 13 14  1  0  0  0  0
 13 15  1  0  0  0  0
 13 16  1  0  0  0  0
 17 18  1  0  0  0  0
 17 19  1  0  0  0  0
 17 20  1  0  0  0  0
 20 21  1  0  0  0  0
 20 22  1  0  0  0  0
 20 23  1  0  0  0  0
 24 25  2  0  0  0  0
 24 26  1  0  0  0  0
 26 27  1  0  0  0  0
 26 28  1  0  0  0  0
 28 29  1  0  0  0  0
 28 30  1  0  0  0  0
 28 31  1  0  0  0  0
M  END
$$$$

  -OEChem-01062216083D

 31 30  0     1  0  0  0  0  0999 V2000
   -3.2399   -3.0207    1.5103 H   0  0  0  0  0  0  0  0  0  0  0  0
   -3.2304   -2.0333    1.0401 C   0  0  0  0  0  0  0  0  0  0  0  0
   -3.9824   -1.4052    1.5236 H   0  0  0  0  0  0  0  0  0  0  0  0
   -3.4831   -2.1449   -0.0171 H   0  0  0  0  0  0  0  0  0  0  0  0
   -1.8588   -1.4010    1.1802 C   0  0  0  0  0  0  0  0  0  0  0  0
   -0.9792   -1.9770    1.8006 O   0  0  0  0  0  0  0  0  0  0  0  0
   -1.6209   -0.1534    0.6417 N   0  0  0  0  0  0  0  0  0  0  0  0
   -2.3802    0.2631    0.1069 H   0  0  0  0  0  0  0  0  0  0  0  0
   -0.2921    0.4669    0.4955 C   0  0  1  0  0  0  0  0  0  0  0  0
    0.3618    0.1569    1.3175 H   0  0  0  0  0  0  0  0  0  0  0  0
    0.4026    0.0957   -0.8545 C   0  0  1  0  0  0  0  0  0  0  0  0
   -0.2627    0.3917   -1.6732 H   0  0  0  0  0  0  0  0  0  0  0  0
    1.7365    0.8620   -1.0011 C   0  0  0  0  0  0  0  0  0  0  0  0
    2.4312    0.5779   -0.2044 H   0  0  0  0  0  0  0  0  0  0  0  0
    2.2069    0.6493   -1.9642 H   0  0  0  0  0  0  0  0  0  0  0  0
    1.5845    1.9439   -0.9576 H   0  0  0  0  0  0  0  0  0  0  0  0
    0.6847   -1.4224   -0.9765 C   0  0  0  0  0  0  0  0  0  0  0  0
    1.4426   -1.7239   -0.2459 H   0  0  0  0  0  0  0  0  0  0  0  0
   -0.2248   -1.9833   -0.7587 H   0  0  0  0  0  0  0  0  0  0  0  0
    1.1170   -1.8472   -2.3839 C   0  0  0  0  0  0  0  0  0  0  0  0
    2.1082   -1.4573   -2.6300 H   0  0  0  0  0  0  0  0  0  0  0  0
    1.1607   -2.9390   -2.4432 H   0  0  0  0  0  0  0  0  0  0  0  0
    0.4005   -1.4892   -3.1295 H   0  0  0  0  0  0  0  0  0  0  0  0
   -0.5188    1.9910    0.6102 C   0  0  0  0  0  0  0  0  0  0  0  0
   -0.9358    2.6416   -0.3409 O   0  0  0  0  0  0  0  0  0  0  0  0
   -0.4548    2.5959    1.8519 N   0  0  0  0  0  0  0  0  0  0  0  0
   -0.2371    2.0026    2.6478 H   0  0  0  0  0  0  0  0  0  0  0  0
   -0.8257    3.9861    2.0877 C   0  0  0  0  0  0  0  0  0  0  0  0
   -1.8847    4.1441    1.8585 H   0  0  0  0  0  0  0  0  0  0  0  0
   -0.6546    4.2509    3.1356 H   0  0  0  0  0  0  0  0  0  0  0  0
   -0.2257    4.6544    1.4609 H   0  0  0  0  0  0  0  0  0  0  0  0
  1  2  1  0  0  0  0
  2  3  1  0  0  0  0
  2  4  1  0  0  0  0
  2  5  1  0  0  0  0
  5  6  2  0  0  0  0
  5  7  1  0  0  0  0
  7  8  1  0  0  0  0
  7  9  1  0  0  0  0
  9 10  1  0  0  0  0
  9 11  1  0  0  0  0
  9 24  1  0  0  0  0
 11 12  1  0  0  0  0
 11 13  1  0  0  0  0
 11 17  1  0  0  0  0
 13 14  1  0  0  0  0
 13 15  1  0  0  0  0
 13 16  1  0  0  0  0
 17 18  1  0  0  0  0
 17 19  1  0  0  0  0
 17 20  1  0  0  0  0
 20 21  1  0  0  0  0
 20 22  1  0  0  0  0
 20 23  1  0  0  0  0
 24 25  2  0  0  0  0
 24 26  1  0  0  0  0
 26 27  1  0  0  0  0
 26 28  1  0  0  0  0
 28 29  1  0  0  0  0
 28 30  1  0  0  0  0
 28 31  1  0  0  0  0
M  END
$$$$

  -OEChem-01062216083D

 31 30  0     1  0  0  0  0  0999 V2000
   -3.2638   -3.0214    1.5295 H   0  0  0  0  0  0  0  0  0  0  0  0
   -3.2487   -2.0361    1.0552 C   0  0  0  0  0  0  0  0  0  0  0  0
   -3.9864   -1.3971    1.5466 H   0  0  0  0  0  0  0  0  0  0  0  0
   -3.5175   -2.1489    0.0021 H   0  0  0  0  0  0  0  0  0  0  0  0
   -1.8675   -1.4201    1.1734 C   0  0  0  0  0  0  0  0  0  0  0  0
   -0.9838   -2.0100    1.7750 O   0  0  0  0  0  0  0  0  0  0  0  0
   -1.6237   -0.1739    0.6343 N   0  0  0  0  0  0  0  0  0  0  0  0
   -2.3882    0.2659    0.1253 H   0  0  0  0  0  0  0  0  0  0  0  0
   -0.2966    0.4509    0.5002 C   0  0  1  0  0  0  0  0  0  0  0  0
    0.3508    0.1385    1.3262 H   0  0  0  0  0  0  0  0  0  0  0  0
    0.4039    0.0919   -0.8491 C   0  0  1  0  0  0  0  0  0  0  0  0
   -0.2619    0.3900   -1.6666 H   0  0  0  0  0  0  0  0  0  0  0  0
    1.7311    0.8698   -0.9909 C   0  0  0  0  0  0  0  0  0  0  0  0
    2.4244    0.5940   -0.1900 H   0  0  0  0  0  0  0  0  0  0  0  0
    2.2086    0.6591   -1.9509 H   0  0  0  0  0  0  0  0  0  0  0  0
    1.5670    1.9504   -0.9511 H   0  0  0  0  0  0  0  0  0  0  0  0
    0.6904   -1.4244   -0.9818 C   0  0  0  0  0  0  0  0  0  0  0  0
    1.4465   -1.7290   -0.2508 H   0  0  0  0  0  0  0  0  0  0  0  0
   -0.2185   -1.9893   -0.7708 H   0  0  0  0  0  0  0  0  0  0  0  0
    1.1293   -1.8371   -2.3910 C   0  0  0  0  0  0  0  0  0  0  0  0
    2.1223   -1.4464   -2.6282 H   0  0  0  0  0  0  0  0  0  0  0  0
    1.1725   -2.9283   -2.4602 H   0  0  0  0  0  0  0  0  0  0  0  0
    0.4175   -1.4715   -3.1376 H   0  0  0  0  0  0  0  0  0  0  0  0
   -0.5195    1.9750    0.6057 C   0  0  0  0  0  0  0  0  0  0  0  0
   -1.1311    2.5750   -0.2709 O   0  0  0  0  0  0  0  0  0  0  0  0
   -0.1706    2.6479    1.7621 N   0  0  0  0  0  0  0  0  0  0  0  0
    0.2299    2.1006    2.5189 H   0  0  0  0  0  0  0  0  0  0  0  0
   -0.4772    4.0542    1.9928 C   0  0  0  0  0  0  0  0  0  0  0  0
   -1.5607    4.2115    2.0128 H   0  0  0  0  0  0  0  0  0  0  0  0
   -0.0616    4.3796    2.9514 H   0  0  0  0  0  0  0  0  0  0  0  0
   -0.0453    4.6758    1.2011 H   0  0  0  0  0  0  0  0  0  0  0  0
  1  2  1  0  0  0  0
  2  3  1  0  0  0  0
  2  4  1  0  0  0  0
  2  5  1  0  0  0  0
  5  6  2  0  0  0  0
  5  7  1  0  0  0  0
  7  8  1  0  0  0  0
  7  9  1  0  0  0  0
  9 10  1  0  0  0  0
  9 11  1  0  0  0  0
  9 24  1  0  0  0  0
 11 12  1  0  0  0  0
 11 13  1  0  0  0  0
 11 17  1  0  0  0  0
 13 14  1  0  0  0  0
 13 15  1  0  0  0  0
 13 16  1  0  0  0  0
 17 18  1  0  0  0  0
 17 19  1  0  0  0  0
 17 20  1  0  0  0  0
 20 21  1  0  0  0  0
 20 22  1  0  0  0  0
 20 23  1  0  0  0  0
 24 25  2  0  0  0  0
 24 26  1  0  0  0  0
 26 27  1  0  0  0  0
 26 28  1  0  0  0  0
 28 29  1  0  0  0  0
 28 30  1  0  0  0  0
 28 31  1  0  0  0  0
M  END
$$$$

  -OEChem-01062216083D

 31 30  0     1  0  0  0  0  0999 V2000
   -3.2879   -3.0234    1.5451 H   0  0  0  0  0  0  0  0  0  0  0  0
   -3.2701   -2.0342    1.0790 C   0  0  0  0  0  0  0  0  0  0  0  0
   -3.9816   -1.3871    1.5976 H   0  0  0  0  0  0  0  0  0  0  0  0
   -3.5718   -2.1322    0.0334 H   0  0  0  0  0  0  0  0  0  0  0  0
   -1.8759   -1.4422    1.1617 C   0  0  0  0  0  0  0  0  0  0  0  0
   -0.9868   -2.0490    1.7383 O   0  0  0  0  0  0  0  0  0  0  0  0
   -1.6277   -0.1966    0.6238 N   0  0  0  0  0  0  0  0  0  0  0  0
   -2.4028    0.2747    0.1601 H   0  0  0  0  0  0  0  0  0  0  0  0
   -0.3035    0.4360    0.5010 C   0  0  1  0  0  0  0  0  0  0  0  0
    0.3376    0.1236    1.3319 H   0  0  0  0  0  0  0  0  0  0  0  0
    0.4052    0.0908   -0.8469 C   0  0  1  0  0  0  0  0  0  0  0  0
   -0.2602    0.3904   -1.6642 H   0  0  0  0  0  0  0  0  0  0  0  0
    1.7277    0.8779   -0.9809 C   0  0  0  0  0  0  0  0  0  0  0  0
    2.4153    0.6109   -0.1723 H   0  0  0  0  0  0  0  0  0  0  0  0
    2.2158    0.6663   -1.9353 H   0  0  0  0  0  0  0  0  0  0  0  0
    1.5547    1.9573   -0.9489 H   0  0  0  0  0  0  0  0  0  0  0  0
    0.6997   -1.4231   -0.9879 C   0  0  0  0  0  0  0  0  0  0  0  0
    1.4533   -1.7289   -0.2546 H   0  0  0  0  0  0  0  0  0  0  0  0
   -0.2080   -1.9934   -0.7852 H   0  0  0  0  0  0  0  0  0  0  0  0
    1.1477   -1.8254   -2.3972 C   0  0  0  0  0  0  0  0  0  0  0  0
    2.1410   -1.4308   -2.6259 H   0  0  0  0  0  0  0  0  0  0  0  0
    1.1939   -2.9161   -2.4729 H   0  0  0  0  0  0  0  0  0  0  0  0
    0.4391   -1.4566   -3.1453 H   0  0  0  0  0  0  0  0  0  0  0  0
   -0.5301    1.9599    0.6003 C   0  0  0  0  0  0  0  0  0  0  0  0
   -1.3208    2.5154   -0.1546 O   0  0  0  0  0  0  0  0  0  0  0  0
    0.0727    2.6932    1.6057 N   0  0  0  0  0  0  0  0  0  0  0  0
    0.6607    2.1921    2.2656 H   0  0  0  0  0  0  0  0  0  0  0  0
   -0.1632    4.1173    1.8086 C   0  0  0  0  0  0  0  0  0  0  0  0
   -1.2177    4.3022    2.0390 H   0  0  0  0  0  0  0  0  0  0  0  0
    0.4432    4.4865    2.6413 H   0  0  0  0  0  0  0  0  0  0  0  0
    0.1055    4.6817    0.9094 H   0  0  0  0  0  0  0  0  0  0  0  0
  1  2  1  0  0  0  0
  2  3  1  0  0  0  0
  2  4  1  0  0  0  0
  2  5  1  0  0  0  0
  5  6  2  0  0  0  0
  5  7  1  0  0  0  0
  7  8  1  0  0  0  0
  7  9  1  0  0  0  0
  9 10  1  0  0  0  0
  9 11  1  0  0  0  0
  9 24  1  0  0  0  0
 11 12  1  0  0  0  0
 11 13  1  0  0  0  0
 11 17  1  0  0  0  0
 13 14  1  0  0  0  0
 13 15  1  0  0  0  0
 13 16  1  0  0  0  0
 17 18  1  0  0  0  0
 17 19  1  0  0  0  0
 17 20  1  0  0  0  0
 20 21  1  0  0  0  0
 20 22  1  0  0  0  0
 20 23  1  0  0  0  0
 24 25  2  0  0  0  0
 24 26  1  0  0  0  0
 26 27  1  0  0  0  0
 26 28  1  0  0  0  0
 28 29  1  0  0  0  0
 28 30  1  0  0  0  0
 28 31  1  0  0  0  0
M  END
$$$$

  -OEChem-01062216083D

 31 30  0     1  0  0  0  0  0999 V2000
   -3.3013   -3.0335    1.5349 H   0  0  0  0  0  0  0  0  0  0  0  0
   -3.2842   -2.0324    1.0950 C   0  0  0  0  0  0  0  0  0  0  0  0
   -3.9703   -1.3903    1.6524 H   0  0  0  0  0  0  0  0  0  0  0  0
   -3.6197   -2.0983    0.0573 H   0  0  0  0  0  0  0  0  0  0  0  0
   -1.8803   -1.4603    1.1500 C   0  0  0  0  0  0  0  0  0  0  0  0
   -0.9880   -2.0827    1.7049 O   0  0  0  0  0  0  0  0  0  0  0  0
   -1.6273   -0.2141    0.6155 N   0  0  0  0  0  0  0  0  0  0  0  0
   -2.4123    0.2897    0.2045 H   0  0  0  0  0  0  0  0  0  0  0  0
   -0.3058    0.4275    0.5070 C   0  0  1  0  0  0  0  0  0  0  0  0
    0.3296    0.1166    1.3427 H   0  0  0  0  0  0  0  0  0  0  0  0
    0.4073    0.0897   -0.8415 C   0  0  1  0  0  0  0  0  0  0  0  0
   -0.2612    0.3888   -1.6567 H   0  0  0  0  0  0  0  0  0  0  0  0
    1.7265    0.8814   -0.9813 C   0  0  0  0  0  0  0  0  0  0  0  0
    2.4139    0.6271   -0.1685 H   0  0  0  0  0  0  0  0  0  0  0  0
    2.2181    0.6621   -1.9319 H   0  0  0  0  0  0  0  0  0  0  0  0
    1.5479    1.9600   -0.9638 H   0  0  0  0  0  0  0  0  0  0  0  0
    0.7074   -1.4228   -0.9888 C   0  0  0  0  0  0  0  0  0  0  0  0
    1.4587   -1.7313   -0.2545 H   0  0  0  0  0  0  0  0  0  0  0  0
   -0.1997   -1.9963   -0.7927 H   0  0  0  0  0  0  0  0  0  0  0  0
    1.1599   -1.8180   -2.3987 C   0  0  0  0  0  0  0  0  0  0  0  0
    2.1586   -1.4318   -2.6179 H   0  0  0  0  0  0  0  0  0  0  0  0
    1.1959   -2.9084   -2.4836 H   0  0  0  0  0  0  0  0  0  0  0  0
    0.4601   -1.4358   -3.1482 H   0  0  0  0  0  0  0  0  0  0  0  0
   -0.5382    1.9524    0.6024 C   0  0  0  0  0  0  0  0  0  0  0  0
   -1.4745    2.4712    0.0029 O   0  0  0  0  0  0  0  0  0  0  0  0
    0.2711    2.7401    1.4010 N   0  0  0  0  0  0  0  0  0  0  0  0
    1.0195    2.2810    1.9120 H   0  0  0  0  0  0  0  0  0  0  0  0
    0.0885    4.1783    1.5538 C   0  0  0  0  0  0  0  0  0  0  0  0
   -0.9047    4.3976    1.9594 H   0  0  0  0  0  0  0  0  0  0  0  0
    0.8389    4.5842    2.2390 H   0  0  0  0  0  0  0  0  0  0  0  0
    0.1939    4.6825    0.5874 H   0  0  0  0  0  0  0  0  0  0  0  0
  1  2  1  0  0  0  0
  2  3  1  0  0  0  0
  2  4  1  0  0  0  0
  2  5  1  0  0  0  0
  5  6  2  0  0  0  0
  5  7  1  0  0  0  0
  7  8  1  0  0  0  0
  7  9  1  0  0  0  0
  9 10  1  0  0  0  0
  9 11  1  0  0  0  0
  9 24  1  0  0  0  0
 11 12  1  0  0  0  0
 11 13  1  0  0  0  0
 11 17  1  0  0  0  0
 13 14  1  0  0  0  0
 13 15  1  0  0  0  0
 13 16  1  0  0  0  0
 17 18  1  0  0  0  0
 17 19  1  0  0  0  0
 17 20  1  0  0  0  0
 20 21  1  0  0  0  0
 20 22  1  0  0  0  0
 20 23  1  0  0  0  0
 24 25  2  0  0  0  0
 24 26  1  0  0  0  0
 26 27  1  0  0  0  0
 26 28  1  0  0  0  0
 28 29  1  0  0  0  0
 28 30  1  0  0  0  0
 28 31  1  0  0  0  0
M  END
$$$$

  -OEChem-01062216083D

 31 30  0     1  0  0  0  0  0999 V2000
   -3.2987   -3.0332    1.5132 H   0  0  0  0  0  0  0  0  0  0  0  0
   -3.2820   -2.0238    1.0930 C   0  0  0  0  0  0  0  0  0  0  0  0
   -3.9519   -1.3872    1.6758 H   0  0  0  0  0  0  0  0  0  0  0  0
   -3.6371   -2.0664    0.0606 H   0  0  0  0  0  0  0  0  0  0  0  0
   -1.8727   -1.4647    1.1332 C   0  0  0  0  0  0  0  0  0  0  0  0
   -0.9807   -2.0965    1.6779 O   0  0  0  0  0  0  0  0  0  0  0  0
   -1.6163   -0.2167    0.6049 N   0  0  0  0  0  0  0  0  0  0  0  0
   -2.4087    0.3146    0.2449 H   0  0  0  0  0  0  0  0  0  0  0  0
   -0.2966    0.4328    0.5114 C   0  0  1  0  0  0  0  0  0  0  0  0
    0.3354    0.1242    1.3503 H   0  0  0  0  0  0  0  0  0  0  0  0
    0.4122    0.0871   -0.8423 C   0  0  1  0  0  0  0  0  0  0  0  0
   -0.2629    0.3795   -1.6543 H   0  0  0  0  0  0  0  0  0  0  0  0
    1.7300    0.8753   -1.0075 C   0  0  0  0  0  0  0  0  0  0  0  0
    2.4046    0.6732   -0.1698 H   0  0  0  0  0  0  0  0  0  0  0  0
    2.2407    0.6062   -1.9346 H   0  0  0  0  0  0  0  0  0  0  0  0
    1.5430    1.9508   -1.0608 H   0  0  0  0  0  0  0  0  0  0  0  0
    0.7105   -1.4272   -0.9867 C   0  0  0  0  0  0  0  0  0  0  0  0
    1.4629   -1.7327   -0.2522 H   0  0  0  0  0  0  0  0  0  0  0  0
   -0.1961   -1.9995   -0.7879 H   0  0  0  0  0  0  0  0  0  0  0  0
    1.1572   -1.8355   -2.3952 C   0  0  0  0  0  0  0  0  0  0  0  0
    2.1632   -1.4698   -2.6160 H   0  0  0  0  0  0  0  0  0  0  0  0
    1.1732   -2.9267   -2.4753 H   0  0  0  0  0  0  0  0  0  0  0  0
    0.4646   -1.4446   -3.1469 H   0  0  0  0  0  0  0  0  0  0  0  0
   -0.5370    1.9598    0.6082 C   0  0  0  0  0  0  0  0  0  0  0  0
   -1.5849    2.4489    0.1966 O   0  0  0  0  0  0  0  0  0  0  0  0
    0.4191    2.7963    1.1569 N   0  0  0  0  0  0  0  0  0  0  0  0
    1.2729    2.3698    1.5046 H   0  0  0  0  0  0  0  0  0  0  0  0
    0.2512    4.2395    1.2734 C   0  0  0  0  0  0  0  0  0  0  0  0
   -0.6411    4.4757    1.8626 H   0  0  0  0  0  0  0  0  0  0  0  0
    1.1196    4.6827    1.7702 H   0  0  0  0  0  0  0  0  0  0  0  0
    0.1499    4.6938    0.2823 H   0  0  0  0  0  0  0  0  0  0  0  0
  1  2  1  0  0  0  0
  2  3  1  0  0  0  0
  2  4  1  0  0  0  0
  2  5  1  0  0  0  0
  5  6  2  0  0  0  0
  5  7  1  0  0  0  0
  7  8  1  0  0  0  0
  7  9  1  0  0  0  0
  9 10  1  0  0  0  0
  9 11  1  0  0  0  0
  9 24  1  0  0  0  0
 11 12  1  0  0  0  0
 11 13  1  0  0  0  0
 11 17  1  0  0  0  0
 13 14  1  0  0  0  0
 13 15  1  0  0  0  0
 13 16  1  0  0  0  0
 17 18  1  0  0  0  0
 17 19  1  0  0  0  0
 17 20  1  0  0  0  0
 20 21  1  0  0  0  0
 20 22  1  0  0  0  0
 20 23  1  0  0  0  0
 24 25  2  0  0  0  0
 24 26  1  0  0  0  0
 26 27  1  0  0  0  0
 26 28  1  0  0  0  0
 28 29  1  0  0  0  0
 28 30  1  0  0  0  0
 28 31  1  0  0  0  0
M  END
$$$$

  -OEChem-01062216083D

 31 30  0     1  0  0  0  0  0999 V2000
   -3.3093   -3.0096    1.5156 H   0  0  0  0  0  0  0  0  0  0  0  0
   -3.2814   -2.0014    1.0929 C   0  0  0  0  0  0  0  0  0  0  0  0
   -3.9313   -1.3522    1.6847 H   0  0  0  0  0  0  0  0  0  0  0  0
   -3.6531   -2.0395    0.0661 H   0  0  0  0  0  0  0  0  0  0  0  0
   -1.8621   -1.4666    1.1096 C   0  0  0  0  0  0  0  0  0  0  0  0
   -0.9716   -2.1175    1.6342 O   0  0  0  0  0  0  0  0  0  0  0  0
   -1.5972   -0.2156    0.5921 N   0  0  0  0  0  0  0  0  0  0  0  0
   -2.3953    0.3507    0.3035 H   0  0  0  0  0  0  0  0  0  0  0  0
   -0.2761    0.4367    0.5141 C   0  0  1  0  0  0  0  0  0  0  0  0
    0.3535    0.1269    1.3547 H   0  0  0  0  0  0  0  0  0  0  0  0
    0.4267    0.0803   -0.8472 C   0  0  1  0  0  0  0  0  0  0  0  0
   -0.2532    0.3712   -1.6555 H   0  0  0  0  0  0  0  0  0  0  0  0
    1.7509    0.8525   -1.0390 C   0  0  0  0  0  0  0  0  0  0  0  0
    2.4003    0.7217   -0.1679 H   0  0  0  0  0  0  0  0  0  0  0  0
    2.2924    0.5118   -1.9236 H   0  0  0  0  0  0  0  0  0  0  0  0
    1.5640    1.9178   -1.1929 H   0  0  0  0  0  0  0  0  0  0  0  0
    0.7159   -1.4377   -0.9910 C   0  0  0  0  0  0  0  0  0  0  0  0
    1.4662   -1.7475   -0.2560 H   0  0  0  0  0  0  0  0  0  0  0  0
   -0.1945   -2.0025   -0.7932 H   0  0  0  0  0  0  0  0  0  0  0  0
    1.1541   -1.8613   -2.3990 C   0  0  0  0  0  0  0  0  0  0  0  0
    2.1725   -1.5315   -2.6195 H   0  0  0  0  0  0  0  0  0  0  0  0
    1.1335   -2.9526   -2.4774 H   0  0  0  0  0  0  0  0  0  0  0  0
    0.4762   -1.4495   -3.1530 H   0  0  0  0  0  0  0  0  0  0  0  0
   -0.5309    1.9667    0.6201 C   0  0  0  0  0  0  0  0  0  0  0  0
   -1.6553    2.4220    0.4260 O   0  0  0  0  0  0  0  0  0  0  0  0
    0.4920    2.8586    0.8915 N   0  0  0  0  0  0  0  0  0  0  0  0
    1.4195    2.4744    1.0450 H   0  0  0  0  0  0  0  0  0  0  0  0
    0.3039    4.3023    0.9693 C   0  0  0  0  0  0  0  0  0  0  0  0
   -0.4285    4.5527    1.7441 H   0  0  0  0  0  0  0  0  0  0  0  0
    1.2495    4.7941    1.2167 H   0  0  0  0  0  0  0  0  0  0  0  0
   -0.0493    4.6943    0.0097 H   0  0  0  0  0  0  0  0  0  0  0  0
  1  2  1  0  0  0  0
  2  3  1  0  0  0  0
  2  4  1  0  0  0  0
  2  5  1  0  0  0  0
  5  6  2  0  0  0  0
  5  7  1  0  0  0  0
  7  8  1  0  0  0  0
  7  9  1  0  0  0  0
  9 10  1  0  0  0  0
  9 11  1  0  0  0  0
  9 24  1  0  0  0  0
 11 12  1  0  0  0  0
 11 13  1  0  0  0  0
 11 17  1  0  0  0  0
 13 14  1  0  0  0  0
 13 15  1  0  0  0  0
 13 16  1  0  0  0  0
 17 18  1  0  0  0  0
 17 19  1  0  0  0  0
 17 20  1  0  0  0  0
 20 21  1  0  0  0  0
 20 22  1  0  0  0  0
 20 23  1  0  0  0  0
 24 25  2  0  0  0  0
 24 26  1  0  0  0  0
 26 27  1  0  0  0  0
 26 28  1  0  0  0  0
 28 29  1  0  0  0  0
 28 30  1  0  0  0  0
 28 31  1  0  0  0  0
M  END
$$$$

  -OEChem-01062216083D

 31 30  0     1  0  0  0  0  0999 V2000
   -3.2475   -2.9657    1.5705 H   0  0  0  0  0  0  0  0  0  0  0  0
   -3.2473   -1.9600    1.1409 C   0  0  0  0  0  0  0  0  0  0  0  0
   -3.7873   -1.2892    1.8136 H   0  0  0  0  0  0  0  0  0  0  0  0
   -3.7604   -1.9884    0.1767 H   0  0  0  0  0  0  0  0  0  0  0  0
   -1.8235   -1.4706    0.9548 C   0  0  0  0  0  0  0  0  0  0  0  0
   -0.8874   -2.1931    1.2614 O   0  0  0  0  0  0  0  0  0  0  0  0
   -1.5986   -0.1986    0.4684 N   0  0  0  0  0  0  0  0  0  0  0  0
   -2.4047    0.4264    0.4548 H   0  0  0  0  0  0  0  0  0  0  0  0
   -0.2786    0.4600    0.4242 C   0  0  1  0  0  0  0  0  0  0  0  0
    0.4302   -0.0377    1.0945 H   0  0  0  0  0  0  0  0  0  0  0  0
    0.2560    0.3870   -1.0513 C   0  0  1  0  0  0  0  0  0  0  0  0
   -0.4995    0.8359   -1.7055 H   0  0  0  0  0  0  0  0  0  0  0  0
    1.5776    1.1616   -1.2457 C   0  0  0  0  0  0  0  0  0  0  0  0
    2.2972    0.8956   -0.4651 H   0  0  0  0  0  0  0  0  0  0  0  0
    2.0333    0.9499   -2.2144 H   0  0  0  0  0  0  0  0  0  0  0  0
    1.4024    2.2395   -1.2269 H   0  0  0  0  0  0  0  0  0  0  0  0
    0.4719   -1.0851   -1.5001 C   0  0  0  0  0  0  0  0  0  0  0  0
    1.2907   -1.5336   -0.9279 H   0  0  0  0  0  0  0  0  0  0  0  0
   -0.4276   -1.6672   -1.2941 H   0  0  0  0  0  0  0  0  0  0  0  0
    0.7363   -1.2504   -3.0019 C   0  0  0  0  0  0  0  0  0  0  0  0
    1.7345   -0.9006   -3.2760 H   0  0  0  0  0  0  0  0  0  0  0  0
    0.6696   -2.3087   -3.2721 H   0  0  0  0  0  0  0  0  0  0  0  0
   -0.0067   -0.6985   -3.5858 H   0  0  0  0  0  0  0  0  0  0  0  0
   -0.4781    1.9144    0.9472 C   0  0  0  0  0  0  0  0  0  0  0  0
   -1.6036    2.3132    1.2372 O   0  0  0  0  0  0  0  0  0  0  0  0
    0.5605    2.8230    1.0478 N   0  0  0  0  0  0  0  0  0  0  0  0
    1.4907    2.4968    0.8036 H   0  0  0  0  0  0  0  0  0  0  0  0
    0.3921    4.2006    1.4964 C   0  0  0  0  0  0  0  0  0  0  0  0
   -0.0265    4.2262    2.5079 H   0  0  0  0  0  0  0  0  0  0  0  0
    1.3579    4.7146    1.5097 H   0  0  0  0  0  0  0  0  0  0  0  0
   -0.2795    4.7439    0.8234 H   0  0  0  0  0  0  0  0  0  0  0  0
  1  2  1  0  0  0  0
  2  3  1  0  0  0  0
  2  4  1  0  0  0  0
  2  5  1  0  0  0  0
  5  6  2  0  0  0  0
  5  7  1  0  0  0  0
  7  8  1  0  0  0  0
  7  9  1  0  0  0  0
  9 10  1  0  0  0  0
  9 11  1  0  0  0  0
  9 24  1  0  0  0  0
 11 12  1  0  0  0  0
 11 13  1  0  0  0  0
 11 17  1  0  0  0  0
 13 14  1  0  0  0  0
 13 15  1  0  0  0  0
 13 16  1  0  0  0  0
 17 18  1  0  0  0  0
 17 19  1  0  0  0  0
 17 20  1  0  0  0  0
 20 21  1  0  0  0  0
 20 22  1  0  0  0  0
 20 23  1  0  0  0  0
 24 25  2  0  0  0  0
 24 26  1  0  0  0  0
 26 27  1  0  0  0  0
 26 28  1  0  0  0  0
 28 29  1  0  0  0  0
 28 30  1  0  0  0  0
 28 31  1  0  0  0  0
M  END
$$$$

  -OEChem-01062216083D

 31 30  0     1  0  0  0  0  0999 V2000
   -3.2439   -2.9320    1.5949 H   0  0  0  0  0  0  0  0  0  0  0  0
   -3.2441   -1.9280    1.1613 C   0  0  0  0  0  0  0  0  0  0  0  0
   -3.7559   -1.2484    1.8472 H   0  0  0  0  0  0  0  0  0  0  0  0
   -3.7850   -1.9535    0.2122 H   0  0  0  0  0  0  0  0  0  0  0  0
   -1.8208   -1.4561    0.9319 C   0  0  0  0  0  0  0  0  0  0  0  0
   -0.8855   -2.1890    1.2157 O   0  0  0  0  0  0  0  0  0  0  0  0
   -1.5983   -0.1833    0.4453 N   0  0  0  0  0  0  0  0  0  0  0  0
   -2.3976    0.4486    0.4876 H   0  0  0  0  0  0  0  0  0  0  0  0
   -0.2745    0.4701    0.3967 C   0  0  1  0  0  0  0  0  0  0  0  0
    0.4325   -0.0247    1.0712 H   0  0  0  0  0  0  0  0  0  0  0  0
    0.2657    0.3793   -1.0794 C   0  0  1  0  0  0  0  0  0  0  0  0
   -0.4809    0.8271   -1.7443 H   0  0  0  0  0  0  0  0  0  0  0  0
    1.6018    1.1331   -1.2716 C   0  0  0  0  0  0  0  0  0  0  0  0
    2.2662    0.9604   -0.4190 H   0  0  0  0  0  0  0  0  0  0  0  0
    2.1279    0.8188   -2.1738 H   0  0  0  0  0  0  0  0  0  0  0  0
    1.4268    2.2049   -1.3883 H   0  0  0  0  0  0  0  0  0  0  0  0
    0.4766   -1.0994   -1.5124 C   0  0  0  0  0  0  0  0  0  0  0  0
    1.2896   -1.5461   -0.9304 H   0  0  0  0  0  0  0  0  0  0  0  0
   -0.4274   -1.6736   -1.3053 H   0  0  0  0  0  0  0  0  0  0  0  0
    0.7453   -1.2881   -3.0119 C   0  0  0  0  0  0  0  0  0  0  0  0
    1.7497   -0.9596   -3.2890 H   0  0  0  0  0  0  0  0  0  0  0  0
    0.6622   -2.3488   -3.2683 H   0  0  0  0  0  0  0  0  0  0  0  0
    0.0132   -0.7321   -3.6056 H   0  0  0  0  0  0  0  0  0  0  0  0
   -0.4846    1.9247    0.9276 C   0  0  0  0  0  0  0  0  0  0  0  0
   -1.5522    2.2291    1.4542 O   0  0  0  0  0  0  0  0  0  0  0  0
    0.4364    2.9449    0.7697 N   0  0  0  0  0  0  0  0  0  0  0  0
    1.3293    2.7038    0.3515 H   0  0  0  0  0  0  0  0  0  0  0  0
    0.2268    4.3109    1.2368 C   0  0  0  0  0  0  0  0  0  0  0  0
    0.0694    4.3266    2.3205 H   0  0  0  0  0  0  0  0  0  0  0  0
    1.1009    4.9274    1.0060 H   0  0  0  0  0  0  0  0  0  0  0  0
   -0.6467    4.7535    0.7467 H   0  0  0  0  0  0  0  0  0  0  0  0
  1  2  1  0  0  0  0
  2  3  1  0  0  0  0
  2  4  1  0  0  0  0
  2  5  1  0  0  0  0
  5  6  2  0  0  0  0
  5  7  1  0  0  0  0
  7  8  1  0  0  0  0
  7  9  1  0  0  0  0
  9 10  1  0  0  0  0
  9 11  1  0  0  0  0
  9 24  1  0  0  0  0
 11 12  1  0  0  0  0
 11 13  1  0  0  0  0
 11 17  1  0  0  0  0
 13 14  1  0  0  0  0
 13 15  1  0  0  0  0
 13 16  1  0  0  0  0
 17 18  1  0  0  0  0
 17 19  1  0  0  0  0
 17 20  1  0  0  0  0
 20 21  1  0  0  0  0
 20 22  1  0  0  0  0
 20 23  1  0  0  0  0
 24 25  2  0  0  0  0
 24 26  1  0  0  0  0
 26 27  1  0  0  0  0
 26 28  1  0  0  0  0
 28 29  1  0  0  0  0
 28 30  1  0  0  0  0
 28 31  1  0  0  0  0
M  END
$$$$

  -OEChem-01062216083D

 31 30  0     1  0  0  0  0  0999 V2000
   -3.2963   -2.9153    1.5207 H   0  0  0  0  0  0  0  0  0  0  0  0
   -3.2875   -1.9010    1.1122 C   0  0  0  0  0  0  0  0  0  0  0  0
   -3.7828   -1.2316    1.8199 H   0  0  0  0  0  0  0  0  0  0  0  0
   -3.8384   -1.8958    0.1688 H   0  0  0  0  0  0  0  0  0  0  0  0
   -1.8604   -1.4426    0.8797 C   0  0  0  0  0  0  0  0  0  0  0  0
   -0.9319   -2.1800    1.1735 O   0  0  0  0  0  0  0  0  0  0  0  0
   -1.6303   -0.1754    0.3813 N   0  0  0  0  0  0  0  0  0  0  0  0
   -2.4285    0.4566    0.4295 H   0  0  0  0  0  0  0  0  0  0  0  0
   -0.3044    0.4760    0.3669 C   0  0  1  0  0  0  0  0  0  0  0  0
    0.3758   -0.0038    1.0791 H   0  0  0  0  0  0  0  0  0  0  0  0
    0.3053    0.3687   -1.0793 C   0  0  1  0  0  0  0  0  0  0  0  0
   -0.3978    0.8162   -1.7901 H   0  0  0  0  0  0  0  0  0  0  0  0
    1.6639    1.1057   -1.1834 C   0  0  0  0  0  0  0  0  0  0  0  0
    2.1882    1.0867   -0.2225 H   0  0  0  0  0  0  0  0  0  0  0  0
    1.5131    2.1420   -1.4958 H   0  0  0  0  0  0  0  0  0  0  0  0
    2.3295    0.6592   -1.9228 H   0  0  0  0  0  0  0  0  0  0  0  0
    0.5373   -1.1137   -1.4855 C   0  0  0  0  0  0  0  0  0  0  0  0
    1.3220   -1.5549   -0.8618 H   0  0  0  0  0  0  0  0  0  0  0  0
   -0.3764   -1.6853   -1.3159 H   0  0  0  0  0  0  0  0  0  0  0  0
    0.8764   -1.3131   -2.9703 C   0  0  0  0  0  0  0  0  0  0  0  0
    1.8784   -0.9546   -3.2164 H   0  0  0  0  0  0  0  0  0  0  0  0
    0.8379   -2.3793   -3.2138 H   0  0  0  0  0  0  0  0  0  0  0  0
    0.1504   -0.7904   -3.6005 H   0  0  0  0  0  0  0  0  0  0  0  0
   -0.5531    1.9342    0.8738 C   0  0  0  0  0  0  0  0  0  0  0  0
   -1.5315    2.1608    1.5808 O   0  0  0  0  0  0  0  0  0  0  0  0
    0.1939    3.0368    0.4988 N   0  0  0  0  0  0  0  0  0  0  0  0
    1.0198    2.8690   -0.0649 H   0  0  0  0  0  0  0  0  0  0  0  0
   -0.0800    4.3970    0.9500 C   0  0  0  0  0  0  0  0  0  0  0  0
   -0.0513    4.4516    2.0434 H   0  0  0  0  0  0  0  0  0  0  0  0
    0.6699    5.0862    0.5503 H   0  0  0  0  0  0  0  0  0  0  0  0
   -1.0670    4.7234    0.6059 H   0  0  0  0  0  0  0  0  0  0  0  0
  1  2  1  0  0  0  0
  2  3  1  0  0  0  0
  2  4  1  0  0  0  0
  2  5  1  0  0  0  0
  5  6  2  0  0  0  0
  5  7  1  0  0  0  0
  7  8  1  0  0  0  0
  7  9  1  0  0  0  0
  9 10  1  0  0  0  0
  9 11  1  0  0  0  0
  9 24  1  0  0  0  0
 11 12  1  0  0  0  0
 11 13  1  0  0  0  0
 11 17  1  0  0  0  0
 13 14  1  0  0  0  0
 13 15  1  0  0  0  0
 13 16  1  0  0  0  0
 17 18  1  0  0  0  0
 17 19  1  0  0  0  0
 17 20  1  0  0  0  0
 20 21  1  0  0  0  0
 20 22  1  0  0  0  0
 20 23  1  0  0  0  0
 24 25  2  0  0  0  0
 24 26  1  0  0  0  0
 26 27  1  0  0  0  0
 26 28  1  0  0  0  0
 28 29  1  0  0  0  0
 28 30  1  0  0  0  0
 28 31  1  0  0  0  0
M  END
$$$$

  -OEChem-01062216083D

 31 30  0     1  0  0  0  0  0999 V2000
   -3.2101   -2.9216    1.6794 H   0  0  0  0  0  0  0  0  0  0  0  0
   -3.2302   -1.9166    1.2489 C   0  0  0  0  0  0  0  0  0  0  0  0
   -3.6971   -1.2363    1.9655 H   0  0  0  0  0  0  0  0  0  0  0  0
   -3.8260   -1.9368    0.3334 H   0  0  0  0  0  0  0  0  0  0  0  0
   -1.8199   -1.4522    0.9383 C   0  0  0  0  0  0  0  0  0  0  0  0
   -0.8754   -2.1915    1.1686 O   0  0  0  0  0  0  0  0  0  0  0  0
   -1.6232   -0.1843    0.4271 N   0  0  0  0  0  0  0  0  0  0  0  0
   -2.4230    0.4394    0.5164 H   0  0  0  0  0  0  0  0  0  0  0  0
   -0.3015    0.4697    0.3500 C   0  0  1  0  0  0  0  0  0  0  0  0
    0.4055   -0.0047    1.0397 H   0  0  0  0  0  0  0  0  0  0  0  0
    0.2735    0.3768   -1.1062 C   0  0  1  0  0  0  0  0  0  0  0  0
   -0.4435    0.8303   -1.7992 H   0  0  0  0  0  0  0  0  0  0  0  0
    1.6334    1.1180   -1.2113 C   0  0  0  0  0  0  0  0  0  0  0  0
    2.0696    1.2791   -0.2202 H   0  0  0  0  0  0  0  0  0  0  0  0
    1.5017    2.0857   -1.7034 H   0  0  0  0  0  0  0  0  0  0  0  0
    2.3726    0.5623   -1.7915 H   0  0  0  0  0  0  0  0  0  0  0  0
    0.5071   -1.0984   -1.5285 C   0  0  0  0  0  0  0  0  0  0  0  0
    1.3131   -1.5369   -0.9303 H   0  0  0  0  0  0  0  0  0  0  0  0
   -0.3961   -1.6812   -1.3381 H   0  0  0  0  0  0  0  0  0  0  0  0
    0.8117   -1.2682   -3.0241 C   0  0  0  0  0  0  0  0  0  0  0  0
    1.7759   -0.8351   -3.3000 H   0  0  0  0  0  0  0  0  0  0  0  0
    0.8398   -2.3333   -3.2735 H   0  0  0  0  0  0  0  0  0  0  0  0
    0.0307   -0.7946   -3.6268 H   0  0  0  0  0  0  0  0  0  0  0  0
   -0.5373    1.9224    0.8656 C   0  0  0  0  0  0  0  0  0  0  0  0
   -1.2943    2.0978    1.8145 O   0  0  0  0  0  0  0  0  0  0  0  0
   -0.0365    3.0587    0.2548 N   0  0  0  0  0  0  0  0  0  0  0  0
    0.5447    2.9284   -0.5660 H   0  0  0  0  0  0  0  0  0  0  0  0
   -0.3158    4.4161    0.7098 C   0  0  0  0  0  0  0  0  0  0  0  0
    0.0328    4.5543    1.7387 H   0  0  0  0  0  0  0  0  0  0  0  0
    0.1969    5.1421    0.0715 H   0  0  0  0  0  0  0  0  0  0  0  0
   -1.3909    4.6206    0.6709 H   0  0  0  0  0  0  0  0  0  0  0  0
  1  2  1  0  0  0  0
  2  3  1  0  0  0  0
  2  4  1  0  0  0  0
  2  5  1  0  0  0  0
  5  6  2  0  0  0  0
  5  7  1  0  0  0  0
  7  8  1  0  0  0  0
  7  9  1  0  0  0  0
  9 10  1  0  0  0  0
  9 11  1  0  0  0  0
  9 24  1  0  0  0  0
 11 12  1  0  0  0  0
 11 13  1  0  0  0  0
 11 17  1  0  0  0  0
 13 14  1  0  0  0  0
 13 15  1  0  0  0  0
 13 16  1  0  0  0  0
 17 18  1  0  0  0  0
 17 19  1  0  0  0  0
 17 20  1  0  0  0  0
 20 21  1  0  0  0  0
 20 22  1  0  0  0  0
 20 23  1  0  0  0  0
 24 25  2  0  0  0  0
 24 26  1  0  0  0  0
 26 27  1  0  0  0  0
 26 28  1  0  0  0  0
 28 29  1  0  0  0  0
 28 30  1  0  0  0  0
 28 31  1  0  0  0  0
M  END
$$$$

  -OEChem-01062216083D

 31 30  0     1  0  0  0  0  0999 V2000
   -3.2390   -2.8901    1.6877 H   0  0  0  0  0  0  0  0  0  0  0  0
   -3.2538   -1.8826    1.2626 C   0  0  0  0  0  0  0  0  0  0  0  0
   -3.7084   -1.2023    1.9870 H   0  0  0  0  0  0  0  0  0  0  0  0
   -3.8579   -1.8931    0.3523 H   0  0  0  0  0  0  0  0  0  0  0  0
   -1.8418   -1.4292    0.9427 C   0  0  0  0  0  0  0  0  0  0  0  0
   -0.9018   -2.1753    1.1679 O   0  0  0  0  0  0  0  0  0  0  0  0
   -1.6380   -0.1660    0.4220 N   0  0  0  0  0  0  0  0  0  0  0  0
   -2.4395    0.4573    0.4859 H   0  0  0  0  0  0  0  0  0  0  0  0
   -0.3105    0.4756    0.3415 C   0  0  1  0  0  0  0  0  0  0  0  0
    0.3930    0.0072    1.0390 H   0  0  0  0  0  0  0  0  0  0  0  0
    0.2833    0.3929   -1.1041 C   0  0  1  0  0  0  0  0  0  0  0  0
   -0.4086    0.8789   -1.7998 H   0  0  0  0  0  0  0  0  0  0  0  0
    1.6802    1.0637   -1.1859 C   0  0  0  0  0  0  0  0  0  0  0  0
    2.4091    0.4954   -0.5987 H   0  0  0  0  0  0  0  0  0  0  0  0
    2.0267    1.1040   -2.2219 H   0  0  0  0  0  0  0  0  0  0  0  0
    1.6929    2.0866   -0.8136 H   0  0  0  0  0  0  0  0  0  0  0  0
    0.5087   -1.0830   -1.5278 C   0  0  0  0  0  0  0  0  0  0  0  0
    1.2947   -1.5428   -0.9191 H   0  0  0  0  0  0  0  0  0  0  0  0
   -0.4078   -1.6516   -1.3566 H   0  0  0  0  0  0  0  0  0  0  0  0
    0.8352   -1.2457   -3.0167 C   0  0  0  0  0  0  0  0  0  0  0  0
    1.8291   -0.8554   -3.2512 H   0  0  0  0  0  0  0  0  0  0  0  0
    0.8199   -2.3067   -3.2841 H   0  0  0  0  0  0  0  0  0  0  0  0
    0.0952   -0.7238   -3.6311 H   0  0  0  0  0  0  0  0  0  0  0  0
   -0.5708    1.9228    0.8508 C   0  0  0  0  0  0  0  0  0  0  0  0
   -1.1164    2.0795    1.9364 O   0  0  0  0  0  0  0  0  0  0  0  0
   -0.3441    3.0582    0.0923 N   0  0  0  0  0  0  0  0  0  0  0  0
    0.0470    2.9258   -0.8356 H   0  0  0  0  0  0  0  0  0  0  0  0
   -0.6459    4.4115    0.5447 C   0  0  0  0  0  0  0  0  0  0  0  0
   -0.0941    4.6406    1.4625 H   0  0  0  0  0  0  0  0  0  0  0  0
   -0.3584    5.1387   -0.2207 H   0  0  0  0  0  0  0  0  0  0  0  0
   -1.7177    4.5209    0.7407 H   0  0  0  0  0  0  0  0  0  0  0  0
  1  2  1  0  0  0  0
  2  3  1  0  0  0  0
  2  4  1  0  0  0  0
  2  5  1  0  0  0  0
  5  6  2  0  0  0  0
  5  7  1  0  0  0  0
  7  8  1  0  0  0  0
  7  9  1  0  0  0  0
  9 10  1  0  0  0  0
  9 11  1  0  0  0  0
  9 24  1  0  0  0  0
 11 12  1  0  0  0  0
 11 13  1  0  0  0  0
 11 17  1  0  0  0  0
 13 14  1  0  0  0  0
 13 15  1  0  0  0  0
 13 16  1  0  0  0  0
 17 18  1  0  0  0  0
 17 19  1  0  0  0  0
 17 20  1  0  0  0  0
 20 21  1  0  0  0  0
 20 22  1  0  0  0  0
 20 23  1  0  0  0  0
 24 25  2  0  0  0  0
 24 26  1  0  0  0  0
 26 27  1  0  0  0  0
 26 28  1  0  0  0  0
 28 29  1  0  0  0  0
 28 30  1  0  0  0  0
 28 31  1  0  0  0  0
M  END
$$$$

  -OEChem-01062216083D

 31 30  0     1  0  0  0  0  0999 V2000
   -3.2364   -2.9322    1.6756 H   0  0  0  0  0  0  0  0  0  0  0  0
   -3.2612   -1.9285    1.2419 C   0  0  0  0  0  0  0  0  0  0  0  0
   -3.7524   -1.2533    1.9470 H   0  0  0  0  0  0  0  0  0  0  0  0
   -3.8373   -1.9598    0.3140 H   0  0  0  0  0  0  0  0  0  0  0  0
   -1.8507   -1.4460    0.9603 C   0  0  0  0  0  0  0  0  0  0  0  0
   -0.9030   -2.1761    1.2038 O   0  0  0  0  0  0  0  0  0  0  0  0
   -1.6582   -0.1811    0.4387 N   0  0  0  0  0  0  0  0  0  0  0  0
   -2.4770    0.4213    0.4424 H   0  0  0  0  0  0  0  0  0  0  0  0
   -0.3395    0.4762    0.3555 C   0  0  1  0  0  0  0  0  0  0  0  0
    0.3679    0.0108    1.0516 H   0  0  0  0  0  0  0  0  0  0  0  0
    0.2576    0.3998   -1.0864 C   0  0  1  0  0  0  0  0  0  0  0  0
   -0.4453    0.8645   -1.7856 H   0  0  0  0  0  0  0  0  0  0  0  0
    1.6240    1.1257   -1.1559 C   0  0  0  0  0  0  0  0  0  0  0  0
    2.3623    0.6045   -0.5378 H   0  0  0  0  0  0  0  0  0  0  0  0
    1.9941    1.1576   -2.1838 H   0  0  0  0  0  0  0  0  0  0  0  0
    1.5709    2.1579   -0.8076 H   0  0  0  0  0  0  0  0  0  0  0  0
    0.5081   -1.0697   -1.5121 C   0  0  0  0  0  0  0  0  0  0  0  0
    1.3049   -1.5124   -0.9046 H   0  0  0  0  0  0  0  0  0  0  0  0
   -0.3966   -1.6567   -1.3392 H   0  0  0  0  0  0  0  0  0  0  0  0
    0.8395   -1.2207   -3.0011 C   0  0  0  0  0  0  0  0  0  0  0  0
    1.8178   -0.7929   -3.2357 H   0  0  0  0  0  0  0  0  0  0  0  0
    0.8636   -2.2816   -3.2684 H   0  0  0  0  0  0  0  0  0  0  0  0
    0.0802   -0.7275   -3.6156 H   0  0  0  0  0  0  0  0  0  0  0  0
   -0.5804    1.9240    0.8564 C   0  0  0  0  0  0  0  0  0  0  0  0
   -0.8712    2.1099    2.0301 O   0  0  0  0  0  0  0  0  0  0  0  0
   -0.6353    3.0100   -0.0012 N   0  0  0  0  0  0  0  0  0  0  0  0
   -0.4126    2.8418   -0.9780 H   0  0  0  0  0  0  0  0  0  0  0  0
   -0.9085    4.3735    0.4379 C   0  0  0  0  0  0  0  0  0  0  0  0
   -0.1460    4.7057    1.1505 H   0  0  0  0  0  0  0  0  0  0  0  0
   -0.9028    5.0549   -0.4183 H   0  0  0  0  0  0  0  0  0  0  0  0
   -1.8903    4.4329    0.9193 H   0  0  0  0  0  0  0  0  0  0  0  0
  1  2  1  0  0  0  0
  2  3  1  0  0  0  0
  2  4  1  0  0  0  0
  2  5  1  0  0  0  0
  5  6  2  0  0  0  0
  5  7  1  0  0  0  0
  7  8  1  0  0  0  0
  7  9  1  0  0  0  0
  9 10  1  0  0  0  0
  9 11  1  0  0  0  0
  9 24  1  0  0  0  0
 11 12  1  0  0  0  0
 11 13  1  0  0  0  0
 11 17  1  0  0  0  0
 13 14  1  0  0  0  0
 13 15  1  0  0  0  0
 13 16  1  0  0  0  0
 17 18  1  0  0  0  0
 17 19  1  0  0  0  0
 17 20  1  0  0  0  0
 20 21  1  0  0  0  0
 20 22  1  0  0  0  0
 20 23  1  0  0  0  0
 24 25  2  0  0  0  0
 24 26  1  0  0  0  0
 26 27  1  0  0  0  0
 26 28  1  0  0  0  0
 28 29  1  0  0  0  0
 28 30  1  0  0  0  0
 28 31  1  0  0  0  0
M  END
$$$$

  -OEChem-01062216083D

 31 30  0     1  0  0  0  0  0999 V2000
   -3.2273   -2.9866    1.6571 H   0  0  0  0  0  0  0  0  0  0  0  0
   -3.2629   -1.9892    1.2097 C   0  0  0  0  0  0  0  0  0  0  0  0
   -3.8018   -1.3209    1.8857 H   0  0  0  0  0  0  0  0  0  0  0  0
   -3.7994   -2.0485    0.2598 H   0  0  0  0  0  0  0  0  0  0  0  0
   -1.8560   -1.4700    0.9795 C   0  0  0  0  0  0  0  0  0  0  0  0
   -0.9000   -2.1778    1.2526 O   0  0  0  0  0  0  0  0  0  0  0  0
   -1.6750   -0.2018    0.4611 N   0  0  0  0  0  0  0  0  0  0  0  0
   -2.5098    0.3732    0.3907 H   0  0  0  0  0  0  0  0  0  0  0  0
   -0.3662    0.4756    0.3785 C   0  0  1  0  0  0  0  0  0  0  0  0
    0.3472    0.0102    1.0689 H   0  0  0  0  0  0  0  0  0  0  0  0
    0.2276    0.4083   -1.0636 C   0  0  1  0  0  0  0  0  0  0  0  0
   -0.4919    0.8493   -1.7612 H   0  0  0  0  0  0  0  0  0  0  0  0
    1.5583    1.1919   -1.1406 C   0  0  0  0  0  0  0  0  0  0  0  0
    2.3048    0.7397   -0.4795 H   0  0  0  0  0  0  0  0  0  0  0  0
    1.9535    1.1920   -2.1596 H   0  0  0  0  0  0  0  0  0  0  0  0
    1.4350    2.2371   -0.8481 H   0  0  0  0  0  0  0  0  0  0  0  0
    0.5018   -1.0553   -1.4911 C   0  0  0  0  0  0  0  0  0  0  0  0
    1.3115   -1.4790   -0.8876 H   0  0  0  0  0  0  0  0  0  0  0  0
   -0.3894   -1.6607   -1.3119 H   0  0  0  0  0  0  0  0  0  0  0  0
    0.8314   -1.1996   -2.9807 C   0  0  0  0  0  0  0  0  0  0  0  0
    1.8022   -0.7560   -3.2170 H   0  0  0  0  0  0  0  0  0  0  0  0
    0.8718   -2.2597   -3.2492 H   0  0  0  0  0  0  0  0  0  0  0  0
    0.0631   -0.7176   -3.5928 H   0  0  0  0  0  0  0  0  0  0  0  0
   -0.5850    1.9249    0.8737 C   0  0  0  0  0  0  0  0  0  0  0  0
   -0.5692    2.1673    2.0718 O   0  0  0  0  0  0  0  0  0  0  0  0
   -0.9342    2.9420    0.0010 N   0  0  0  0  0  0  0  0  0  0  0  0
   -0.9199    2.7270   -0.9915 H   0  0  0  0  0  0  0  0  0  0  0  0
   -1.1602    4.3194    0.4229 C   0  0  0  0  0  0  0  0  0  0  0  0
   -0.2544    4.7340    0.8777 H   0  0  0  0  0  0  0  0  0  0  0  0
   -1.4303    4.9392   -0.4374 H   0  0  0  0  0  0  0  0  0  0  0  0
   -1.9752    4.3687    1.1527 H   0  0  0  0  0  0  0  0  0  0  0  0
  1  2  1  0  0  0  0
  2  3  1  0  0  0  0
  2  4  1  0  0  0  0
  2  5  1  0  0  0  0
  5  6  2  0  0  0  0
  5  7  1  0  0  0  0
  7  8  1  0  0  0  0
  7  9  1  0  0  0  0
  9 10  1  0  0  0  0
  9 11  1  0  0  0  0
  9 24  1  0  0  0  0
 11 12  1  0  0  0  0
 11 13  1  0  0  0  0
 11 17  1  0  0  0  0
 13 14  1  0  0  0  0
 13 15  1  0  0  0  0
 13 16  1  0  0  0  0
 17 18  1  0  0  0  0
 17 19  1  0  0  0  0
 17 20  1  0  0  0  0
 20 21  1  0  0  0  0
 20 22  1  0  0  0  0
 20 23  1  0  0  0  0
 24 25  2  0  0  0  0
 24 26  1  0  0  0  0
 26 27  1  0  0  0  0
 26 28  1  0  0  0  0
 28 29  1  0  0  0  0
 28 30  1  0  0  0  0
 28 31  1  0  0  0  0
M  END
$$$$

  -OEChem-01062216083D

 31 30  0     1  0  0  0  0  0999 V2000
   -3.2229   -3.0330    1.6426 H   0  0  0  0  0  0  0  0  0  0  0  0
   -3.2645   -2.0334    1.2006 C   0  0  0  0  0  0  0  0  0  0  0  0
   -3.8210   -1.3760    1.8730 H   0  0  0  0  0  0  0  0  0  0  0  0
   -3.7866   -2.0937    0.2428 H   0  0  0  0  0  0  0  0  0  0  0  0
   -1.8607   -1.4959    0.9934 C   0  0  0  0  0  0  0  0  0  0  0  0
   -0.9006   -2.1912    1.2817 O   0  0  0  0  0  0  0  0  0  0  0  0
   -1.6865   -0.2253    0.4780 N   0  0  0  0  0  0  0  0  0  0  0  0
   -2.5279    0.3342    0.3739 H   0  0  0  0  0  0  0  0  0  0  0  0
   -0.3833    0.4648    0.4032 C   0  0  1  0  0  0  0  0  0  0  0  0
    0.3343   -0.0032    1.0875 H   0  0  0  0  0  0  0  0  0  0  0  0
    0.2064    0.4165   -1.0393 C   0  0  1  0  0  0  0  0  0  0  0  0
   -0.5238    0.8510   -1.7298 H   0  0  0  0  0  0  0  0  0  0  0  0
    1.5137    1.2353   -1.1170 C   0  0  0  0  0  0  0  0  0  0  0  0
    2.2662    0.8170   -0.4406 H   0  0  0  0  0  0  0  0  0  0  0  0
    1.9195    1.2316   -2.1316 H   0  0  0  0  0  0  0  0  0  0  0  0
    1.3497    2.2811   -0.8435 H   0  0  0  0  0  0  0  0  0  0  0  0
    0.4934   -1.0393   -1.4816 C   0  0  0  0  0  0  0  0  0  0  0  0
    1.3115   -1.4572   -0.8854 H   0  0  0  0  0  0  0  0  0  0  0  0
   -0.3895   -1.6574   -1.3034 H   0  0  0  0  0  0  0  0  0  0  0  0
    0.8199   -1.1651   -2.9733 C   0  0  0  0  0  0  0  0  0  0  0  0
    1.7836   -0.7057   -3.2085 H   0  0  0  0  0  0  0  0  0  0  0  0
    0.8743   -2.2221   -3.2512 H   0  0  0  0  0  0  0  0  0  0  0  0
    0.0429   -0.6881   -3.5785 H   0  0  0  0  0  0  0  0  0  0  0  0
   -0.5890    1.9147    0.8934 C   0  0  0  0  0  0  0  0  0  0  0  0
   -0.2730    2.2341    2.0298 O   0  0  0  0  0  0  0  0  0  0  0  0
   -1.2195    2.8474    0.0873 N   0  0  0  0  0  0  0  0  0  0  0  0
   -1.4010    2.5790   -0.8750 H   0  0  0  0  0  0  0  0  0  0  0  0
   -1.4174    4.2374    0.4805 C   0  0  0  0  0  0  0  0  0  0  0  0
   -0.4538    4.7241    0.6651 H   0  0  0  0  0  0  0  0  0  0  0  0
   -1.9358    4.7846   -0.3127 H   0  0  0  0  0  0  0  0  0  0  0  0
   -2.0220    4.2964    1.3917 H   0  0  0  0  0  0  0  0  0  0  0  0
  1  2  1  0  0  0  0
  2  3  1  0  0  0  0
  2  4  1  0  0  0  0
  2  5  1  0  0  0  0
  5  6  2  0  0  0  0
  5  7  1  0  0  0  0
  7  8  1  0  0  0  0
  7  9  1  0  0  0  0
  9 10  1  0  0  0  0
  9 11  1  0  0  0  0
  9 24  1  0  0  0  0
 11 12  1  0  0  0  0
 11 13  1  0  0  0  0
 11 17  1  0  0  0  0
 13 14  1  0  0  0  0
 13 15  1  0  0  0  0
 13 16  1  0  0  0  0
 17 18  1  0  0  0  0
 17 19  1  0  0  0  0
 17 20  1  0  0  0  0
 20 21  1  0  0  0  0
 20 22  1  0  0  0  0
 20 23  1  0  0  0  0
 24 25  2  0  0  0  0
 24 26  1  0  0  0  0
 26 27  1  0  0  0  0
 26 28  1  0  0  0  0
 28 29  1  0  0  0  0
 28 30  1  0  0  0  0
 28 31  1  0  0  0  0
M  END
$$$$

  -OEChem-01062216083D

 31 30  0     1  0  0  0  0  0999 V2000
   -3.2204   -3.0656    1.6329 H   0  0  0  0  0  0  0  0  0  0  0  0
   -3.2627   -2.0646    1.1938 C   0  0  0  0  0  0  0  0  0  0  0  0
   -3.8315   -1.4127    1.8612 H   0  0  0  0  0  0  0  0  0  0  0  0
   -3.7723   -2.1247    0.2292 H   0  0  0  0  0  0  0  0  0  0  0  0
   -1.8600   -1.5178    1.0057 C   0  0  0  0  0  0  0  0  0  0  0  0
   -0.8986   -2.2050    1.3074 O   0  0  0  0  0  0  0  0  0  0  0  0
   -1.6894   -0.2455    0.4935 N   0  0  0  0  0  0  0  0  0  0  0  0
   -2.5341    0.3068    0.3817 H   0  0  0  0  0  0  0  0  0  0  0  0
   -0.3890    0.4528    0.4274 C   0  0  1  0  0  0  0  0  0  0  0  0
    0.3315   -0.0178    1.1069 H   0  0  0  0  0  0  0  0  0  0  0  0
    0.1933    0.4223   -1.0177 C   0  0  1  0  0  0  0  0  0  0  0  0
   -0.5455    0.8590   -1.6975 H   0  0  0  0  0  0  0  0  0  0  0  0
    1.4890    1.2578   -1.0987 C   0  0  0  0  0  0  0  0  0  0  0  0
    2.2464    0.8535   -0.4193 H   0  0  0  0  0  0  0  0  0  0  0  0
    1.8957    1.2557   -2.1128 H   0  0  0  0  0  0  0  0  0  0  0  0
    1.3076    2.3026   -0.8310 H   0  0  0  0  0  0  0  0  0  0  0  0
    0.4849   -1.0275   -1.4773 C   0  0  0  0  0  0  0  0  0  0  0  0
    1.3091   -1.4469   -0.8907 H   0  0  0  0  0  0  0  0  0  0  0  0
   -0.3931   -1.6526   -1.2999 H   0  0  0  0  0  0  0  0  0  0  0  0
    0.8044   -1.1355   -2.9721 C   0  0  0  0  0  0  0  0  0  0  0  0
    1.7649   -0.6692   -3.2070 H   0  0  0  0  0  0  0  0  0  0  0  0
    0.8620   -2.1890   -3.2626 H   0  0  0  0  0  0  0  0  0  0  0  0
    0.0223   -0.6554   -3.5682 H   0  0  0  0  0  0  0  0  0  0  0  0
   -0.5903    1.9027    0.9155 C   0  0  0  0  0  0  0  0  0  0  0  0
   -0.0171    2.3087    1.9156 O   0  0  0  0  0  0  0  0  0  0  0  0
   -1.4715    2.7423    0.2550 N   0  0  0  0  0  0  0  0  0  0  0  0
   -1.8248    2.4233   -0.6416 H   0  0  0  0  0  0  0  0  0  0  0  0
   -1.6586    4.1403    0.6251 C   0  0  0  0  0  0  0  0  0  0  0  0
   -0.7156    4.6900    0.5352 H   0  0  0  0  0  0  0  0  0  0  0  0
   -2.3980    4.6100   -0.0307 H   0  0  0  0  0  0  0  0  0  0  0  0
   -2.0148    4.2195    1.6579 H   0  0  0  0  0  0  0  0  0  0  0  0
  1  2  1  0  0  0  0
  2  3  1  0  0  0  0
  2  4  1  0  0  0  0
  2  5  1  0  0  0  0
  5  6  2  0  0  0  0
  5  7  1  0  0  0  0
  7  8  1  0  0  0  0
  7  9  1  0  0  0  0
  9 10  1  0  0  0  0
  9 11  1  0  0  0  0
  9 24  1  0  0  0  0
 11 12  1  0  0  0  0
 11 13  1  0  0  0  0
 11 17  1  0  0  0  0
 13 14  1  0  0  0  0
 13 15  1  0  0  0  0
 13 16  1  0  0  0  0
 17 18  1  0  0  0  0
 17 19  1  0  0  0  0
 17 20  1  0  0  0  0
 20 21  1  0  0  0  0
 20 22  1  0  0  0  0
 20 23  1  0  0  0  0
 24 25  2  0  0  0  0
 24 26  1  0  0  0  0
 26 27  1  0  0  0  0
 26 28  1  0  0  0  0
 28 29  1  0  0  0  0
 28 30  1  0  0  0  0
 28 31  1  0  0  0  0
M  END
$$$$

  -OEChem-01062216083D

 31 30  0     1  0  0  0  0  0999 V2000
   -3.2046   -3.1002    1.6082 H   0  0  0  0  0  0  0  0  0  0  0  0
   -3.2515   -2.0979    1.1728 C   0  0  0  0  0  0  0  0  0  0  0  0
   -3.8420   -1.4567    1.8316 H   0  0  0  0  0  0  0  0  0  0  0  0
   -3.7417   -2.1609    0.1983 H   0  0  0  0  0  0  0  0  0  0  0  0
   -1.8528   -1.5321    1.0139 C   0  0  0  0  0  0  0  0  0  0  0  0
   -0.8891   -2.2062    1.3368 O   0  0  0  0  0  0  0  0  0  0  0  0
   -1.6891   -0.2580    0.5034 N   0  0  0  0  0  0  0  0  0  0  0  0
   -2.5383    0.2832    0.3787 H   0  0  0  0  0  0  0  0  0  0  0  0
   -0.3921    0.4503    0.4454 C   0  0  1  0  0  0  0  0  0  0  0  0
    0.3311   -0.0205    1.1220 H   0  0  0  0  0  0  0  0  0  0  0  0
    0.1812    0.4233   -1.0042 C   0  0  1  0  0  0  0  0  0  0  0  0
   -0.5656    0.8579   -1.6769 H   0  0  0  0  0  0  0  0  0  0  0  0
    1.4721    1.2655   -1.0993 C   0  0  0  0  0  0  0  0  0  0  0  0
    2.2332    0.8763   -0.4154 H   0  0  0  0  0  0  0  0  0  0  0  0
    1.8781    1.2531   -2.1134 H   0  0  0  0  0  0  0  0  0  0  0  0
    1.2838    2.3128   -0.8466 H   0  0  0  0  0  0  0  0  0  0  0  0
    0.4769   -1.0254   -1.4678 C   0  0  0  0  0  0  0  0  0  0  0  0
    1.3080   -1.4398   -0.8874 H   0  0  0  0  0  0  0  0  0  0  0  0
   -0.3953   -1.6569   -1.2844 H   0  0  0  0  0  0  0  0  0  0  0  0
    0.7869   -1.1317   -2.9647 C   0  0  0  0  0  0  0  0  0  0  0  0
    1.7449   -0.6639   -3.2057 H   0  0  0  0  0  0  0  0  0  0  0  0
    0.8446   -2.1847   -3.2567 H   0  0  0  0  0  0  0  0  0  0  0  0
    0.0001   -0.6522   -3.5547 H   0  0  0  0  0  0  0  0  0  0  0  0
   -0.5851    1.9039    0.9306 C   0  0  0  0  0  0  0  0  0  0  0  0
    0.1756    2.3880    1.7562 O   0  0  0  0  0  0  0  0  0  0  0  0
   -1.6608    2.6554    0.4853 N   0  0  0  0  0  0  0  0  0  0  0  0
   -2.1620    2.3013   -0.3227 H   0  0  0  0  0  0  0  0  0  0  0  0
   -1.8543    4.0499    0.8668 C   0  0  0  0  0  0  0  0  0  0  0  0
   -1.0073    4.6594    0.5345 H   0  0  0  0  0  0  0  0  0  0  0  0
   -2.7667    4.4451    0.4104 H   0  0  0  0  0  0  0  0  0  0  0  0
   -1.9472    4.1405    1.9543 H   0  0  0  0  0  0  0  0  0  0  0  0
  1  2  1  0  0  0  0
  2  3  1  0  0  0  0
  2  4  1  0  0  0  0
  2  5  1  0  0  0  0
  5  6  2  0  0  0  0
  5  7  1  0  0  0  0
  7  8  1  0  0  0  0
  7  9  1  0  0  0  0
  9 10  1  0  0  0  0
  9 11  1  0  0  0  0
  9 24  1  0  0  0  0
 11 12  1  0  0  0  0
 11 13  1  0  0  0  0
 11 17  1  0  0  0  0
 13 14  1  0  0  0  0
 13 15  1  0  0  0  0
 13 16  1  0  0  0  0
 17 18  1  0  0  0  0
 17 19  1  0  0  0  0
 17 20  1  0  0  0  0
 20 21  1  0  0  0  0
 20 22  1  0  0  0  0
 20 23  1  0  0  0  0
 24 25  2  0  0  0  0
 24 26  1  0  0  0  0
 26 27  1  0  0  0  0
 26 28  1  0  0  0  0
 28 29  1  0  0  0  0
 28 30  1  0  0  0  0
 28 31  1  0  0  0  0
M  END
$$$$

  -OEChem-01062216083D

 31 30  0     1  0  0  0  0  0999 V2000
   -3.0935   -3.1940    1.3948 H   0  0  0  0  0  0  0  0  0  0  0  0
   -3.1634   -2.1890    0.9687 C   0  0  0  0  0  0  0  0  0  0  0  0
   -3.9391   -1.6347    1.5024 H   0  0  0  0  0  0  0  0  0  0  0  0
   -3.4420   -2.2735   -0.0844 H   0  0  0  0  0  0  0  0  0  0  0  0
   -1.8318   -1.4737    1.1004 C   0  0  0  0  0  0  0  0  0  0  0  0
   -0.9020   -2.0298    1.6591 O   0  0  0  0  0  0  0  0  0  0  0  0
   -1.6838   -0.2059    0.5686 N   0  0  0  0  0  0  0  0  0  0  0  0
   -2.4506    0.1202   -0.0089 H   0  0  0  0  0  0  0  0  0  0  0  0
   -0.3895    0.5085    0.4780 C   0  0  1  0  0  0  0  0  0  0  0  0
    0.3484    0.0502    1.1470 H   0  0  0  0  0  0  0  0  0  0  0  0
    0.1448    0.4243   -0.9868 C   0  0  1  0  0  0  0  0  0  0  0  0
   -0.6232    0.8302   -1.6537 H   0  0  0  0  0  0  0  0  0  0  0  0
    1.4287    1.2622   -1.1678 C   0  0  0  0  0  0  0  0  0  0  0  0
    2.2019    0.9327   -0.4663 H   0  0  0  0  0  0  0  0  0  0  0  0
    1.8214    1.1754   -2.1832 H   0  0  0  0  0  0  0  0  0  0  0  0
    1.2339    2.3247   -0.9973 H   0  0  0  0  0  0  0  0  0  0  0  0
    0.4299   -1.0440   -1.3974 C   0  0  0  0  0  0  0  0  0  0  0  0
    1.2786   -1.4312   -0.8235 H   0  0  0  0  0  0  0  0  0  0  0  0
   -0.4328   -1.6706   -1.1639 H   0  0  0  0  0  0  0  0  0  0  0  0
    0.6996   -1.2166   -2.8962 C   0  0  0  0  0  0  0  0  0  0  0  0
    1.6554   -0.7702   -3.1831 H   0  0  0  0  0  0  0  0  0  0  0  0
    0.7398   -2.2817   -3.1437 H   0  0  0  0  0  0  0  0  0  0  0  0
   -0.0982   -0.7545   -3.4856 H   0  0  0  0  0  0  0  0  0  0  0  0
   -0.5456    1.9777    0.9423 C   0  0  0  0  0  0  0  0  0  0  0  0
    0.3891    2.5591    1.4765 O   0  0  0  0  0  0  0  0  0  0  0  0
   -1.7405    2.6607    0.7860 N   0  0  0  0  0  0  0  0  0  0  0  0
   -2.5305    2.1444    0.4195 H   0  0  0  0  0  0  0  0  0  0  0  0
   -1.9442    4.0287    1.2482 C   0  0  0  0  0  0  0  0  0  0  0  0
   -1.2279    4.7051    0.7699 H   0  0  0  0  0  0  0  0  0  0  0  0
   -2.9549    4.3662    1.0000 H   0  0  0  0  0  0  0  0  0  0  0  0
   -1.8148    4.0895    2.3339 H   0  0  0  0  0  0  0  0  0  0  0  0
  1  2  1  0  0  0  0
  2  3  1  0  0  0  0
  2  4  1  0  0  0  0
  2  5  1  0  0  0  0
  5  6  2  0  0  0  0
  5  7  1  0  0  0  0
  7  8  1  0  0  0  0
  7  9  1  0  0  0  0
  9 10  1  0  0  0  0
  9 11  1  0  0  0  0
  9 24  1  0  0  0  0
 11 12  1  0  0  0  0
 11 13  1  0  0  0  0
 11 17  1  0  0  0  0
 13 14  1  0  0  0  0
 13 15  1  0  0  0  0
 13 16  1  0  0  0  0
 17 18  1  0  0  0  0
 17 19  1  0  0  0  0
 17 20  1  0  0  0  0
 20 21  1  0  0  0  0
 20 22  1  0  0  0  0
 20 23  1  0  0  0  0
 24 25  2  0  0  0  0
 24 26  1  0  0  0  0
 26 27  1  0  0  0  0
 26 28  1  0  0  0  0
 28 29  1  0  0  0  0
 28 30  1  0  0  0  0
 28 31  1  0  0  0  0
M  END
$$$$

  -OEChem-01062216083D

 31 30  0     1  0  0  0  0  0999 V2000
   -3.0656   -3.1875    1.3337 H   0  0  0  0  0  0  0  0  0  0  0  0
   -3.1427   -2.1765    0.9235 C   0  0  0  0  0  0  0  0  0  0  0  0
   -3.9389   -1.6438    1.4491 H   0  0  0  0  0  0  0  0  0  0  0  0
   -3.3966   -2.2472   -0.1368 H   0  0  0  0  0  0  0  0  0  0  0  0
   -1.8265   -1.4424    1.0970 C   0  0  0  0  0  0  0  0  0  0  0  0
   -0.9120   -1.9757    1.7011 O   0  0  0  0  0  0  0  0  0  0  0  0
   -1.6778   -0.1765    0.5612 N   0  0  0  0  0  0  0  0  0  0  0  0
   -2.4155    0.1174   -0.0710 H   0  0  0  0  0  0  0  0  0  0  0  0
   -0.3815    0.5360    0.4707 C   0  0  1  0  0  0  0  0  0  0  0  0
    0.3559    0.0835    1.1437 H   0  0  0  0  0  0  0  0  0  0  0  0
    0.1475    0.4258   -0.9982 C   0  0  1  0  0  0  0  0  0  0  0  0
   -0.6246    0.8203   -1.6674 H   0  0  0  0  0  0  0  0  0  0  0  0
    1.4313    1.2553   -1.2121 C   0  0  0  0  0  0  0  0  0  0  0  0
    2.1983    0.9675   -0.4860 H   0  0  0  0  0  0  0  0  0  0  0  0
    1.8361    1.1169   -2.2166 H   0  0  0  0  0  0  0  0  0  0  0  0
    1.2294    2.3243   -1.1042 H   0  0  0  0  0  0  0  0  0  0  0  0
    0.4258   -1.0513   -1.3864 C   0  0  0  0  0  0  0  0  0  0  0  0
    1.2751   -1.4301   -0.8078 H   0  0  0  0  0  0  0  0  0  0  0  0
   -0.4374   -1.6721   -1.1409 H   0  0  0  0  0  0  0  0  0  0  0  0
    0.6893   -1.2553   -2.8828 C   0  0  0  0  0  0  0  0  0  0  0  0
    1.6526   -0.8323   -3.1792 H   0  0  0  0  0  0  0  0  0  0  0  0
    0.7103   -2.3252   -3.1113 H   0  0  0  0  0  0  0  0  0  0  0  0
   -0.1008   -0.7899   -3.4799 H   0  0  0  0  0  0  0  0  0  0  0  0
   -0.5466    2.0076    0.9336 C   0  0  0  0  0  0  0  0  0  0  0  0
    0.4236    2.6722    1.2718 O   0  0  0  0  0  0  0  0  0  0  0  0
   -1.8026    2.5789    1.0574 N   0  0  0  0  0  0  0  0  0  0  0  0
   -2.5917    1.9472    0.9864 H   0  0  0  0  0  0  0  0  0  0  0  0
   -2.0202    3.9028    1.6296 C   0  0  0  0  0  0  0  0  0  0  0  0
   -1.4566    4.6590    1.0728 H   0  0  0  0  0  0  0  0  0  0  0  0
   -3.0817    4.1647    1.5853 H   0  0  0  0  0  0  0  0  0  0  0  0
   -1.7001    3.9250    2.6766 H   0  0  0  0  0  0  0  0  0  0  0  0
  1  2  1  0  0  0  0
  2  3  1  0  0  0  0
  2  4  1  0  0  0  0
  2  5  1  0  0  0  0
  5  6  2  0  0  0  0
  5  7  1  0  0  0  0
  7  8  1  0  0  0  0
  7  9  1  0  0  0  0
  9 10  1  0  0  0  0
  9 11  1  0  0  0  0
  9 24  1  0  0  0  0
 11 12  1  0  0  0  0
 11 13  1  0  0  0  0
 11 17  1  0  0  0  0
 13 14  1  0  0  0  0
 13 15  1  0  0  0  0
 13 16  1  0  0  0  0
 17 18  1  0  0  0  0
 17 19  1  0  0  0  0
 17 20  1  0  0  0  0
 20 21  1  0  0  0  0
 20 22  1  0  0  0  0
 20 23  1  0  0  0  0
 24 25  2  0  0  0  0
 24 26  1  0  0  0  0
 26 27  1  0  0  0  0
 26 28  1  0  0  0  0
 28 29  1  0  0  0  0
 28 30  1  0  0  0  0
 28 31  1  0  0  0  0
M  END
$$$$

  -OEChem-01062216083D

 31 30  0     1  0  0  0  0  0999 V2000
   -3.0575   -3.1777    1.3009 H   0  0  0  0  0  0  0  0  0  0  0  0
   -3.1344   -2.1649    0.8950 C   0  0  0  0  0  0  0  0  0  0  0  0
   -3.9386   -1.6383    1.4143 H   0  0  0  0  0  0  0  0  0  0  0  0
   -3.3770   -2.2316   -0.1683 H   0  0  0  0  0  0  0  0  0  0  0  0
   -1.8231   -1.4259    1.0848 C   0  0  0  0  0  0  0  0  0  0  0  0
   -0.9146   -1.9545    1.7016 O   0  0  0  0  0  0  0  0  0  0  0  0
   -1.6712   -0.1574    0.5562 N   0  0  0  0  0  0  0  0  0  0  0  0
   -2.4117    0.1494   -0.0679 H   0  0  0  0  0  0  0  0  0  0  0  0
   -0.3738    0.5555    0.4668 C   0  0  1  0  0  0  0  0  0  0  0  0
    0.3640    0.1053    1.1404 H   0  0  0  0  0  0  0  0  0  0  0  0
    0.1512    0.4314   -1.0064 C   0  0  1  0  0  0  0  0  0  0  0  0
   -0.6230    0.8203   -1.6760 H   0  0  0  0  0  0  0  0  0  0  0  0
    1.4380    1.2512   -1.2438 C   0  0  0  0  0  0  0  0  0  0  0  0
    2.1920    1.0079   -0.4884 H   0  0  0  0  0  0  0  0  0  0  0  0
    1.8641    1.0598   -2.2303 H   0  0  0  0  0  0  0  0  0  0  0  0
    1.2304    2.3234   -1.2034 H   0  0  0  0  0  0  0  0  0  0  0  0
    0.4250   -1.0517   -1.3810 C   0  0  0  0  0  0  0  0  0  0  0  0
    1.2744   -1.4273   -0.8004 H   0  0  0  0  0  0  0  0  0  0  0  0
   -0.4392   -1.6677   -1.1285 H   0  0  0  0  0  0  0  0  0  0  0  0
    0.6835   -1.2775   -2.8755 C   0  0  0  0  0  0  0  0  0  0  0  0
    1.6534   -0.8757   -3.1795 H   0  0  0  0  0  0  0  0  0  0  0  0
    0.6859   -2.3505   -3.0906 H   0  0  0  0  0  0  0  0  0  0  0  0
   -0.1001   -0.8066   -3.4769 H   0  0  0  0  0  0  0  0  0  0  0  0
   -0.5558    2.0245    0.9424 C   0  0  0  0  0  0  0  0  0  0  0  0
    0.3966    2.7796    1.0804 O   0  0  0  0  0  0  0  0  0  0  0  0
   -1.7967    2.4767    1.3614 N   0  0  0  0  0  0  0  0  0  0  0  0
   -2.5099    1.7644    1.4761 H   0  0  0  0  0  0  0  0  0  0  0  0
   -1.9989    3.7728    1.9997 C   0  0  0  0  0  0  0  0  0  0  0  0
   -1.6500    4.5806    1.3476 H   0  0  0  0  0  0  0  0  0  0  0  0
   -3.0618    3.9326    2.2041 H   0  0  0  0  0  0  0  0  0  0  0  0
   -1.4507    3.8234    2.9464 H   0  0  0  0  0  0  0  0  0  0  0  0
  1  2  1  0  0  0  0
  2  3  1  0  0  0  0
  2  4  1  0  0  0  0
  2  5  1  0  0  0  0
  5  6  2  0  0  0  0
  5  7  1  0  0  0  0
  7  8  1  0  0  0  0
  7  9  1  0  0  0  0
  9 10  1  0  0  0  0
  9 11  1  0  0  0  0
  9 24  1  0  0  0  0
 11 12  1  0  0  0  0
 11 13  1  0  0  0  0
 11 17  1  0  0  0  0
 13 14  1  0  0  0  0
 13 15  1  0  0  0  0
 13 16  1  0  0  0  0
 17 18  1  0  0  0  0
 17 19  1  0  0  0  0
 17 20  1  0  0  0  0
 20 21  1  0  0  0  0
 20 22  1  0  0  0  0
 20 23  1  0  0  0  0
 24 25  2  0  0  0  0
 24 26  1  0  0  0  0
 26 27  1  0  0  0  0
 26 28  1  0  0  0  0
 28 29  1  0  0  0  0
 28 30  1  0  0  0  0
 28 31  1  0  0  0  0
M  END
$$$$

  -OEChem-01062216083D

 31 30  0     1  0  0  0  0  0999 V2000
   -3.0734   -3.1459    1.3011 H   0  0  0  0  0  0  0  0  0  0  0  0
   -3.1419   -2.1317    0.8973 C   0  0  0  0  0  0  0  0  0  0  0  0
   -3.9303   -1.5940    1.4293 H   0  0  0  0  0  0  0  0  0  0  0  0
   -3.4019   -2.1936   -0.1622 H   0  0  0  0  0  0  0  0  0  0  0  0
   -1.8170   -1.4123    1.0673 C   0  0  0  0  0  0  0  0  0  0  0  0
   -0.9055   -1.9531    1.6691 O   0  0  0  0  0  0  0  0  0  0  0  0
   -1.6584   -0.1391    0.5536 N   0  0  0  0  0  0  0  0  0  0  0  0
   -2.4179    0.2034   -0.0286 H   0  0  0  0  0  0  0  0  0  0  0  0
   -0.3593    0.5695    0.4562 C   0  0  1  0  0  0  0  0  0  0  0  0
    0.3807    0.1169    1.1254 H   0  0  0  0  0  0  0  0  0  0  0  0
    0.1620    0.4395   -1.0207 C   0  0  1  0  0  0  0  0  0  0  0  0
   -0.6082    0.8324   -1.6929 H   0  0  0  0  0  0  0  0  0  0  0  0
    1.4624    1.2396   -1.2599 C   0  0  0  0  0  0  0  0  0  0  0  0
    2.1839    1.0452   -0.4600 H   0  0  0  0  0  0  0  0  0  0  0  0
    1.9311    0.9858   -2.2117 H   0  0  0  0  0  0  0  0  0  0  0  0
    1.2582    2.3122   -1.3009 H   0  0  0  0  0  0  0  0  0  0  0  0
    0.4283   -1.0478   -1.3884 C   0  0  0  0  0  0  0  0  0  0  0  0
    1.2748   -1.4264   -0.8057 H   0  0  0  0  0  0  0  0  0  0  0  0
   -0.4399   -1.6562   -1.1334 H   0  0  0  0  0  0  0  0  0  0  0  0
    0.6823   -1.2873   -2.8822 C   0  0  0  0  0  0  0  0  0  0  0  0
    1.6598   -0.9082   -3.1904 H   0  0  0  0  0  0  0  0  0  0  0  0
    0.6623   -2.3613   -3.0914 H   0  0  0  0  0  0  0  0  0  0  0  0
   -0.0921   -0.8042   -3.4859 H   0  0  0  0  0  0  0  0  0  0  0  0
   -0.5636    2.0300    0.9591 C   0  0  0  0  0  0  0  0  0  0  0  0
    0.2879    2.9002    0.8503 O   0  0  0  0  0  0  0  0  0  0  0  0
   -1.7061    2.3543    1.6732 N   0  0  0  0  0  0  0  0  0  0  0  0
   -2.2980    1.5726    1.9365 H   0  0  0  0  0  0  0  0  0  0  0  0
   -1.9018    3.6367    2.3404 C   0  0  0  0  0  0  0  0  0  0  0  0
   -1.8320    4.4588    1.6201 H   0  0  0  0  0  0  0  0  0  0  0  0
   -2.8905    3.6731    2.8076 H   0  0  0  0  0  0  0  0  0  0  0  0
   -1.1443    3.7840    3.1173 H   0  0  0  0  0  0  0  0  0  0  0  0
  1  2  1  0  0  0  0
  2  3  1  0  0  0  0
  2  4  1  0  0  0  0
  2  5  1  0  0  0  0
  5  6  2  0  0  0  0
  5  7  1  0  0  0  0
  7  8  1  0  0  0  0
  7  9  1  0  0  0  0
  9 10  1  0  0  0  0
  9 11  1  0  0  0  0
  9 24  1  0  0  0  0
 11 12  1  0  0  0  0
 11 13  1  0  0  0  0
 11 17  1  0  0  0  0
 13 14  1  0  0  0  0
 13 15  1  0  0  0  0
 13 16  1  0  0  0  0
 17 18  1  0  0  0  0
 17 19  1  0  0  0  0
 17 20  1  0  0  0  0
 20 21  1  0  0  0  0
 20 22  1  0  0  0  0
 20 23  1  0  0  0  0
 24 25  2  0  0  0  0
 24 26  1  0  0  0  0
 26 27  1  0  0  0  0
 26 28  1  0  0  0  0
 28 29  1  0  0  0  0
 28 30  1  0  0  0  0
 28 31  1  0  0  0  0
M  END
$$$$

  -OEChem-01062216083D

 31 30  0     1  0  0  0  0  0999 V2000
   -3.1052   -3.1048    1.3291 H   0  0  0  0  0  0  0  0  0  0  0  0
   -3.1561   -2.0930    0.9167 C   0  0  0  0  0  0  0  0  0  0  0  0
   -3.9245   -1.5322    1.4542 H   0  0  0  0  0  0  0  0  0  0  0  0
   -3.4319   -2.1583   -0.1386 H   0  0  0  0  0  0  0  0  0  0  0  0
   -1.8130   -1.4026    1.0605 C   0  0  0  0  0  0  0  0  0  0  0  0
   -0.8967   -1.9657    1.6344 O   0  0  0  0  0  0  0  0  0  0  0  0
   -1.6434   -0.1238    0.5667 N   0  0  0  0  0  0  0  0  0  0  0  0
   -2.4225    0.2605    0.0384 H   0  0  0  0  0  0  0  0  0  0  0  0
   -0.3390    0.5691    0.4484 C   0  0  1  0  0  0  0  0  0  0  0  0
    0.4042    0.1043    1.1055 H   0  0  0  0  0  0  0  0  0  0  0  0
    0.1769    0.4492   -1.0309 C   0  0  1  0  0  0  0  0  0  0  0  0
   -0.5819    0.8642   -1.7027 H   0  0  0  0  0  0  0  0  0  0  0  0
    1.5035    1.2175   -1.2467 C   0  0  0  0  0  0  0  0  0  0  0  0
    2.1918    1.0335   -0.4159 H   0  0  0  0  0  0  0  0  0  0  0  0
    2.0026    0.9256   -2.1714 H   0  0  0  0  0  0  0  0  0  0  0  0
    1.3287    2.2921   -1.3298 H   0  0  0  0  0  0  0  0  0  0  0  0
    0.4262   -1.0392   -1.4070 C   0  0  0  0  0  0  0  0  0  0  0  0
    1.2694   -1.4314   -0.8285 H   0  0  0  0  0  0  0  0  0  0  0  0
   -0.4490   -1.6382   -1.1527 H   0  0  0  0  0  0  0  0  0  0  0  0
    0.6737   -1.2749   -2.9030 C   0  0  0  0  0  0  0  0  0  0  0  0
    1.6538   -0.9061   -3.2150 H   0  0  0  0  0  0  0  0  0  0  0  0
    0.6406   -2.3476   -3.1165 H   0  0  0  0  0  0  0  0  0  0  0  0
   -0.0976   -0.7805   -3.5015 H   0  0  0  0  0  0  0  0  0  0  0  0
   -0.5486    2.0157    0.9897 C   0  0  0  0  0  0  0  0  0  0  0  0
    0.0455    2.9994    0.5749 O   0  0  0  0  0  0  0  0  0  0  0  0
   -1.4959    2.2291    1.9776 N   0  0  0  0  0  0  0  0  0  0  0  0
   -1.9102    1.3970    2.3876 H   0  0  0  0  0  0  0  0  0  0  0  0
   -1.7344    3.5223    2.6084 C   0  0  0  0  0  0  0  0  0  0  0  0
   -2.0294    4.2655    1.8601 H   0  0  0  0  0  0  0  0  0  0  0  0
   -2.5372    3.4406    3.3473 H   0  0  0  0  0  0  0  0  0  0  0  0
   -0.8298    3.8730    3.1161 H   0  0  0  0  0  0  0  0  0  0  0  0
  1  2  1  0  0  0  0
  2  3  1  0  0  0  0
  2  4  1  0  0  0  0
  2  5  1  0  0  0  0
  5  6  2  0  0  0  0
  5  7  1  0  0  0  0
  7  8  1  0  0  0  0
  7  9  1  0  0  0  0
  9 10  1  0  0  0  0
  9 11  1  0  0  0  0
  9 24  1  0  0  0  0
 11 12  1  0  0  0  0
 11 13  1  0  0  0  0
 11 17  1  0  0  0  0
 13 14  1  0  0  0  0
 13 15  1  0  0  0  0
 13 16  1  0  0  0  0
 17 18  1  0  0  0  0
 17 19  1  0  0  0  0
 17 20  1  0  0  0  0
 20 21  1  0  0  0  0
 20 22  1  0  0  0  0
 20 23  1  0  0  0  0
 24 25  2  0  0  0  0
 24 26  1  0  0  0  0
 26 27  1  0  0  0  0
 26 28  1  0  0  0  0
 28 29  1  0  0  0  0
 28 30  1  0  0  0  0
 28 31  1  0  0  0  0
M  END
$$$$

  -OEChem-01062216083D

 31 30  0     1  0  0  0  0  0999 V2000
   -3.1386   -3.0492    1.3925 H   0  0  0  0  0  0  0  0  0  0  0  0
   -3.1706   -2.0387    0.9752 C   0  0  0  0  0  0  0  0  0  0  0  0
   -3.9110   -1.4531    1.5254 H   0  0  0  0  0  0  0  0  0  0  0  0
   -3.4710   -2.1012   -0.0736 H   0  0  0  0  0  0  0  0  0  0  0  0
   -1.8061   -1.3853    1.0840 C   0  0  0  0  0  0  0  0  0  0  0  0
   -0.8881   -1.9746    1.6293 O   0  0  0  0  0  0  0  0  0  0  0  0
   -1.6158   -0.1100    0.5913 N   0  0  0  0  0  0  0  0  0  0  0  0
   -2.4060    0.3155    0.1129 H   0  0  0  0  0  0  0  0  0  0  0  0
   -0.3018    0.5533    0.4478 C   0  0  1  0  0  0  0  0  0  0  0  0
    0.4436    0.0735    1.0910 H   0  0  0  0  0  0  0  0  0  0  0  0
    0.2057    0.4530   -1.0302 C   0  0  1  0  0  0  0  0  0  0  0  0
   -0.5385    0.9097   -1.6915 H   0  0  0  0  0  0  0  0  0  0  0  0
    1.5654    1.1709   -1.2191 C   0  0  0  0  0  0  0  0  0  0  0  0
    2.3163    0.7504   -0.5428 H   0  0  0  0  0  0  0  0  0  0  0  0
    1.9263    1.0666   -2.2447 H   0  0  0  0  0  0  0  0  0  0  0  0
    1.4995    2.2427   -1.0303 H   0  0  0  0  0  0  0  0  0  0  0  0
    0.4241   -1.0323   -1.4305 C   0  0  0  0  0  0  0  0  0  0  0  0
    1.2590   -1.4557   -0.8620 H   0  0  0  0  0  0  0  0  0  0  0  0
   -0.4649   -1.6148   -1.1829 H   0  0  0  0  0  0  0  0  0  0  0  0
    0.6630   -1.2389   -2.9310 C   0  0  0  0  0  0  0  0  0  0  0  0
    1.6401   -0.8562   -3.2369 H   0  0  0  0  0  0  0  0  0  0  0  0
    0.6348   -2.3076   -3.1651 H   0  0  0  0  0  0  0  0  0  0  0  0
   -0.1133   -0.7364   -3.5163 H   0  0  0  0  0  0  0  0  0  0  0  0
   -0.4980    1.9926    1.0023 C   0  0  0  0  0  0  0  0  0  0  0  0
   -0.3034    3.0046    0.3437 O   0  0  0  0  0  0  0  0  0  0  0  0
   -1.1794    2.1467    2.1980 N   0  0  0  0  0  0  0  0  0  0  0  0
   -1.3822    1.2979    2.7194 H   0  0  0  0  0  0  0  0  0  0  0  0
   -1.5433    3.4376    2.7705 C   0  0  0  0  0  0  0  0  0  0  0  0
   -2.1961    3.9902    2.0867 H   0  0  0  0  0  0  0  0  0  0  0  0
   -2.0756    3.2950    3.7159 H   0  0  0  0  0  0  0  0  0  0  0  0
   -0.6475    4.0370    2.9644 H   0  0  0  0  0  0  0  0  0  0  0  0
  1  2  1  0  0  0  0
  2  3  1  0  0  0  0
  2  4  1  0  0  0  0
  2  5  1  0  0  0  0
  5  6  2  0  0  0  0
  5  7  1  0  0  0  0
  7  8  1  0  0  0  0
  7  9  1  0  0  0  0
  9 10  1  0  0  0  0
  9 11  1  0  0  0  0
  9 24  1  0  0  0  0
 11 12  1  0  0  0  0
 11 13  1  0  0  0  0
 11 17  1  0  0  0  0
 13 14  1  0  0  0  0
 13 15  1  0  0  0  0
 13 16  1  0  0  0  0
 17 18  1  0  0  0  0
 17 19  1  0  0  0  0
 17 20  1  0  0  0  0
 20 21  1  0  0  0  0
 20 22  1  0  0  0  0
 20 23  1  0  0  0  0
 24 25  2  0  0  0  0
 24 26  1  0  0  0  0
 26 27  1  0  0  0  0
 26 28  1  0  0  0  0
 28 29  1  0  0  0  0
 28 30  1  0  0  0  0
 28 31  1  0  0  0  0
M  END
$$$$

  -OEChem-01062216083D

 31 30  0     1  0  0  0  0  0999 V2000
   -3.1704   -3.0190    1.4581 H   0  0  0  0  0  0  0  0  0  0  0  0
   -3.1876   -2.0187    1.0162 C   0  0  0  0  0  0  0  0  0  0  0  0
   -3.9116   -1.4063    1.5590 H   0  0  0  0  0  0  0  0  0  0  0  0
   -3.4995   -2.1013   -0.0278 H   0  0  0  0  0  0  0  0  0  0  0  0
   -1.8103   -1.3880    1.0972 C   0  0  0  0  0  0  0  0  0  0  0  0
   -0.8941   -1.9871    1.6356 O   0  0  0  0  0  0  0  0  0  0  0  0
   -1.6060   -0.1196    0.5933 N   0  0  0  0  0  0  0  0  0  0  0  0
   -2.3951    0.3206    0.1264 H   0  0  0  0  0  0  0  0  0  0  0  0
   -0.2874    0.5279    0.4485 C   0  0  1  0  0  0  0  0  0  0  0  0
    0.4560    0.0420    1.0893 H   0  0  0  0  0  0  0  0  0  0  0  0
    0.2201    0.4389   -1.0250 C   0  0  1  0  0  0  0  0  0  0  0  0
   -0.5220    0.9077   -1.6804 H   0  0  0  0  0  0  0  0  0  0  0  0
    1.5755    1.1661   -1.1902 C   0  0  0  0  0  0  0  0  0  0  0  0
    2.3431    0.6895   -0.5724 H   0  0  0  0  0  0  0  0  0  0  0  0
    1.9048    1.1442   -2.2318 H   0  0  0  0  0  0  0  0  0  0  0  0
    1.5150    2.2180   -0.9049 H   0  0  0  0  0  0  0  0  0  0  0  0
    0.4278   -1.0388   -1.4483 C   0  0  0  0  0  0  0  0  0  0  0  0
    1.2610   -1.4769   -0.8887 H   0  0  0  0  0  0  0  0  0  0  0  0
   -0.4650   -1.6197   -1.2089 H   0  0  0  0  0  0  0  0  0  0  0  0
    0.6666   -1.2108   -2.9523 C   0  0  0  0  0  0  0  0  0  0  0  0
    1.6340   -0.7988   -3.2516 H   0  0  0  0  0  0  0  0  0  0  0  0
    0.6610   -2.2747   -3.2081 H   0  0  0  0  0  0  0  0  0  0  0  0
   -0.1222   -0.7133   -3.5250 H   0  0  0  0  0  0  0  0  0  0  0  0
   -0.4675    1.9699    0.9860 C   0  0  0  0  0  0  0  0  0  0  0  0
   -0.5314    2.9459    0.2492 O   0  0  0  0  0  0  0  0  0  0  0  0
   -0.8585    2.1328    2.3031 N   0  0  0  0  0  0  0  0  0  0  0  0
   -0.9135    1.2927    2.8735 H   0  0  0  0  0  0  0  0  0  0  0  0
   -1.2420    3.4139    2.8839 C   0  0  0  0  0  0  0  0  0  0  0  0
   -2.1301    3.8116    2.3816 H   0  0  0  0  0  0  0  0  0  0  0  0
   -1.4697    3.2940    3.9474 H   0  0  0  0  0  0  0  0  0  0  0  0
   -0.4268    4.1385    2.7853 H   0  0  0  0  0  0  0  0  0  0  0  0
  1  2  1  0  0  0  0
  2  3  1  0  0  0  0
  2  4  1  0  0  0  0
  2  5  1  0  0  0  0
  5  6  2  0  0  0  0
  5  7  1  0  0  0  0
  7  8  1  0  0  0  0
  7  9  1  0  0  0  0
  9 10  1  0  0  0  0
  9 11  1  0  0  0  0
  9 24  1  0  0  0  0
 11 12  1  0  0  0  0
 11 13  1  0  0  0  0
 11 17  1  0  0  0  0
 13 14  1  0  0  0  0
 13 15  1  0  0  0  0
 13 16  1  0  0  0  0
 17 18  1  0  0  0  0
 17 19  1  0  0  0  0
 17 20  1  0  0  0  0
 20 21  1  0  0  0  0
 20 22  1  0  0  0  0
 20 23  1  0  0  0  0
 24 25  2  0  0  0  0
 24 26  1  0  0  0  0
 26 27  1  0  0  0  0
 26 28  1  0  0  0  0
 28 29  1  0  0  0  0
 28 30  1  0  0  0  0
 28 31  1  0  0  0  0
M  END
$$$$

  -OEChem-01062216083D

 31 30  0     1  0  0  0  0  0999 V2000
   -3.1860   -3.0217    1.4738 H   0  0  0  0  0  0  0  0  0  0  0  0
   -3.2006   -2.0208    1.0333 C   0  0  0  0  0  0  0  0  0  0  0  0
   -3.9111   -1.4025    1.5870 H   0  0  0  0  0  0  0  0  0  0  0  0
   -3.5277   -2.0987   -0.0063 H   0  0  0  0  0  0  0  0  0  0  0  0
   -1.8168   -1.4031    1.0948 C   0  0  0  0  0  0  0  0  0  0  0  0
   -0.8971   -2.0136    1.6151 O   0  0  0  0  0  0  0  0  0  0  0  0
   -1.6080   -0.1378    0.5855 N   0  0  0  0  0  0  0  0  0  0  0  0
   -2.4008    0.3188    0.1408 H   0  0  0  0  0  0  0  0  0  0  0  0
   -0.2901    0.5084    0.4481 C   0  0  1  0  0  0  0  0  0  0  0  0
    0.4500    0.0186    1.0895 H   0  0  0  0  0  0  0  0  0  0  0  0
    0.2219    0.4271   -1.0222 C   0  0  1  0  0  0  0  0  0  0  0  0
   -0.5241    0.8917   -1.6766 H   0  0  0  0  0  0  0  0  0  0  0  0
    1.5620    1.1811   -1.1769 C   0  0  0  0  0  0  0  0  0  0  0  0
    2.3350    0.7215   -0.5532 H   0  0  0  0  0  0  0  0  0  0  0  0
    1.9001    1.1670   -2.2159 H   0  0  0  0  0  0  0  0  0  0  0  0
    1.4697    2.2312   -0.8896 H   0  0  0  0  0  0  0  0  0  0  0  0
    0.4329   -1.0462   -1.4561 C   0  0  0  0  0  0  0  0  0  0  0  0
    1.2676   -1.4846   -0.8989 H   0  0  0  0  0  0  0  0  0  0  0  0
   -0.4586   -1.6316   -1.2208 H   0  0  0  0  0  0  0  0  0  0  0  0
    0.6767   -1.2041   -2.9606 C   0  0  0  0  0  0  0  0  0  0  0  0
    1.6385   -0.7757   -3.2542 H   0  0  0  0  0  0  0  0  0  0  0  0
    0.6873   -2.2660   -3.2242 H   0  0  0  0  0  0  0  0  0  0  0  0
   -0.1177   -0.7138   -3.5315 H   0  0  0  0  0  0  0  0  0  0  0  0
   -0.4582    1.9533    0.9710 C   0  0  0  0  0  0  0  0  0  0  0  0
   -0.7278    2.8847    0.2225 O   0  0  0  0  0  0  0  0  0  0  0  0
   -0.5432    2.1594    2.3356 N   0  0  0  0  0  0  0  0  0  0  0  0
   -0.4508    1.3417    2.9329 H   0  0  0  0  0  0  0  0  0  0  0  0
   -0.8827    3.4427    2.9378 C   0  0  0  0  0  0  0  0  0  0  0  0
   -1.8881    3.7540    2.6360 H   0  0  0  0  0  0  0  0  0  0  0  0
   -0.8563    3.3672    4.0290 H   0  0  0  0  0  0  0  0  0  0  0  0
   -0.1678    4.2122    2.6281 H   0  0  0  0  0  0  0  0  0  0  0  0
  1  2  1  0  0  0  0
  2  3  1  0  0  0  0
  2  4  1  0  0  0  0
  2  5  1  0  0  0  0
  5  6  2  0  0  0  0
  5  7  1  0  0  0  0
  7  8  1  0  0  0  0
  7  9  1  0  0  0  0
  9 10  1  0  0  0  0
  9 11  1  0  0  0  0
  9 24  1  0  0  0  0
 11 12  1  0  0  0  0
 11 13  1  0  0  0  0
 11 17  1  0  0  0  0
 13 14  1  0  0  0  0
 13 15  1  0  0  0  0
 13 16  1  0  0  0  0
 17 18  1  0  0  0  0
 17 19  1  0  0  0  0
 17 20  1  0  0  0  0
 20 21  1  0  0  0  0
 20 22  1  0  0  0  0
 20 23  1  0  0  0  0
 24 25  2  0  0  0  0
 24 26  1  0  0  0  0
 26 27  1  0  0  0  0
 26 28  1  0  0  0  0
 28 29  1  0  0  0  0
 28 30  1  0  0  0  0
 28 31  1  0  0  0  0
M  END
$$$$

  -OEChem-01062216083D

 31 30  0     1  0  0  0  0  0999 V2000
   -3.2053   -3.0282    1.4861 H   0  0  0  0  0  0  0  0  0  0  0  0
   -3.2166   -2.0262    1.0478 C   0  0  0  0  0  0  0  0  0  0  0  0
   -3.9112   -1.4015    1.6145 H   0  0  0  0  0  0  0  0  0  0  0  0
   -3.5629   -2.0987    0.0139 H   0  0  0  0  0  0  0  0  0  0  0  0
   -1.8253   -1.4227    1.0872 C   0  0  0  0  0  0  0  0  0  0  0  0
   -0.9029   -2.0454    1.5887 O   0  0  0  0  0  0  0  0  0  0  0  0
   -1.6110   -0.1595    0.5753 N   0  0  0  0  0  0  0  0  0  0  0  0
   -2.4083    0.3174    0.1604 H   0  0  0  0  0  0  0  0  0  0  0  0
   -0.2943    0.4886    0.4487 C   0  0  1  0  0  0  0  0  0  0  0  0
    0.4425   -0.0050    1.0911 H   0  0  0  0  0  0  0  0  0  0  0  0
    0.2232    0.4176   -1.0187 C   0  0  1  0  0  0  0  0  0  0  0  0
   -0.5261    0.8786   -1.6717 H   0  0  0  0  0  0  0  0  0  0  0  0
    1.5501    1.1932   -1.1660 C   0  0  0  0  0  0  0  0  0  0  0  0
    2.3266    0.7492   -0.5352 H   0  0  0  0  0  0  0  0  0  0  0  0
    1.8963    1.1825   -2.2025 H   0  0  0  0  0  0  0  0  0  0  0  0
    1.4316    2.2424   -0.8817 H   0  0  0  0  0  0  0  0  0  0  0  0
    0.4396   -1.0508   -1.4631 C   0  0  0  0  0  0  0  0  0  0  0  0
    1.2737   -1.4903   -0.9061 H   0  0  0  0  0  0  0  0  0  0  0  0
   -0.4512   -1.6403   -1.2348 H   0  0  0  0  0  0  0  0  0  0  0  0
    0.6895   -1.1953   -2.9678 C   0  0  0  0  0  0  0  0  0  0  0  0
    1.6509   -0.7607   -3.2540 H   0  0  0  0  0  0  0  0  0  0  0  0
    0.7038   -2.2550   -3.2402 H   0  0  0  0  0  0  0  0  0  0  0  0
   -0.1049   -0.7031   -3.5371 H   0  0  0  0  0  0  0  0  0  0  0  0
   -0.4541    1.9368    0.9594 C   0  0  0  0  0  0  0  0  0  0  0  0
   -0.9255    2.8118    0.2427 O   0  0  0  0  0  0  0  0  0  0  0  0
   -0.2379    2.2120    2.2968 N   0  0  0  0  0  0  0  0  0  0  0  0
    0.0251    1.4329    2.8945 H   0  0  0  0  0  0  0  0  0  0  0  0
   -0.5207    3.5057    2.9058 C   0  0  0  0  0  0  0  0  0  0  0  0
   -1.5875    3.7401    2.8294 H   0  0  0  0  0  0  0  0  0  0  0  0
   -0.2435    3.4939    3.9643 H   0  0  0  0  0  0  0  0  0  0  0  0
    0.0508    4.2963    2.4083 H   0  0  0  0  0  0  0  0  0  0  0  0
  1  2  1  0  0  0  0
  2  3  1  0  0  0  0
  2  4  1  0  0  0  0
  2  5  1  0  0  0  0
  5  6  2  0  0  0  0
  5  7  1  0  0  0  0
  7  8  1  0  0  0  0
  7  9  1  0  0  0  0
  9 10  1  0  0  0  0
  9 11  1  0  0  0  0
  9 24  1  0  0  0  0
 11 12  1  0  0  0  0
 11 13  1  0  0  0  0
 11 17  1  0  0  0  0
 13 14  1  0  0  0  0
 13 15  1  0  0  0  0
 13 16  1  0  0  0  0
 17 18  1  0  0  0  0
 17 19  1  0  0  0  0
 17 20  1  0  0  0  0
 20 21  1  0  0  0  0
 20 22  1  0  0  0  0
 20 23  1  0  0  0  0
 24 25  2  0  0  0  0
 24 26  1  0  0  0  0
 26 27  1  0  0  0  0
 26 28  1  0  0  0  0
 28 29  1  0  0  0  0
 28 30  1  0  0  0  0
 28 31  1  0  0  0  0
M  END
$$$$

  -OEChem-01062216083D

 31 30  0     1  0  0  0  0  0999 V2000
   -3.2266   -3.0351    1.5043 H   0  0  0  0  0  0  0  0  0  0  0  0
   -3.2360   -2.0302    1.0727 C   0  0  0  0  0  0  0  0  0  0  0  0
   -3.9034   -1.3990    1.6644 H   0  0  0  0  0  0  0  0  0  0  0  0
   -3.6144   -2.0905    0.0493 H   0  0  0  0  0  0  0  0  0  0  0  0
   -1.8351   -1.4479    1.0728 C   0  0  0  0  0  0  0  0  0  0  0  0
   -0.9067   -2.0902    1.5376 O   0  0  0  0  0  0  0  0  0  0  0  0
   -1.6176   -0.1851    0.5613 N   0  0  0  0  0  0  0  0  0  0  0  0
   -2.4232    0.3207    0.1987 H   0  0  0  0  0  0  0  0  0  0  0  0
   -0.3033    0.4688    0.4471 C   0  0  1  0  0  0  0  0  0  0  0  0
    0.4283   -0.0273    1.0933 H   0  0  0  0  0  0  0  0  0  0  0  0
    0.2230    0.4102   -1.0165 C   0  0  1  0  0  0  0  0  0  0  0  0
   -0.5279    0.8692   -1.6693 H   0  0  0  0  0  0  0  0  0  0  0  0
    1.5398    1.2028   -1.1536 C   0  0  0  0  0  0  0  0  0  0  0  0
    2.3165    0.7700   -0.5153 H   0  0  0  0  0  0  0  0  0  0  0  0
    1.8949    1.1949   -2.1871 H   0  0  0  0  0  0  0  0  0  0  0  0
    1.4027    2.2509   -0.8725 H   0  0  0  0  0  0  0  0  0  0  0  0
    0.4495   -1.0530   -1.4719 C   0  0  0  0  0  0  0  0  0  0  0  0
    1.2831   -1.4923   -0.9141 H   0  0  0  0  0  0  0  0  0  0  0  0
   -0.4393   -1.6492   -1.2533 H   0  0  0  0  0  0  0  0  0  0  0  0
    0.7092   -1.1829   -2.9762 C   0  0  0  0  0  0  0  0  0  0  0  0
    1.6712   -0.7431   -3.2526 H   0  0  0  0  0  0  0  0  0  0  0  0
    0.7288   -2.2401   -3.2582 H   0  0  0  0  0  0  0  0  0  0  0  0
   -0.0828   -0.6879   -3.5466 H   0  0  0  0  0  0  0  0  0  0  0  0
   -0.4620    1.9192    0.9499 C   0  0  0  0  0  0  0  0  0  0  0  0
   -1.1233    2.7290    0.3109 O   0  0  0  0  0  0  0  0  0  0  0  0
    0.0314    2.2807    2.1899 N   0  0  0  0  0  0  0  0  0  0  0  0
    0.4814    1.5566    2.7432 H   0  0  0  0  0  0  0  0  0  0  0  0
   -0.1798    3.5952    2.7836 C   0  0  0  0  0  0  0  0  0  0  0  0
   -1.2495    3.7891    2.9157 H   0  0  0  0  0  0  0  0  0  0  0  0
    0.3054    3.6505    3.7628 H   0  0  0  0  0  0  0  0  0  0  0  0
    0.2435    4.3767    2.1438 H   0  0  0  0  0  0  0  0  0  0  0  0
  1  2  1  0  0  0  0
  2  3  1  0  0  0  0
  2  4  1  0  0  0  0
  2  5  1  0  0  0  0
  5  6  2  0  0  0  0
  5  7  1  0  0  0  0
  7  8  1  0  0  0  0
  7  9  1  0  0  0  0
  9 10  1  0  0  0  0
  9 11  1  0  0  0  0
  9 24  1  0  0  0  0
 11 12  1  0  0  0  0
 11 13  1  0  0  0  0
 11 17  1  0  0  0  0
 13 14  1  0  0  0  0
 13 15  1  0  0  0  0
 13 16  1  0  0  0  0
 17 18  1  0  0  0  0
 17 19  1  0  0  0  0
 17 20  1  0  0  0  0
 20 21  1  0  0  0  0
 20 22  1  0  0  0  0
 20 23  1  0  0  0  0
 24 25  2  0  0  0  0
 24 26  1  0  0  0  0
 26 27  1  0  0  0  0
 26 28  1  0  0  0  0
 28 29  1  0  0  0  0
 28 30  1  0  0  0  0
 28 31  1  0  0  0  0
M  END
$$$$

  -OEChem-01062216083D

 31 30  0     1  0  0  0  0  0999 V2000
   -3.2490   -3.0259    1.5376 H   0  0  0  0  0  0  0  0  0  0  0  0
   -3.2537   -2.0213    1.1052 C   0  0  0  0  0  0  0  0  0  0  0  0
   -3.8870   -1.3763    1.7191 H   0  0  0  0  0  0  0  0  0  0  0  0
   -3.6690   -2.0741    0.0959 H   0  0  0  0  0  0  0  0  0  0  0  0
   -1.8426   -1.4669    1.0559 C   0  0  0  0  0  0  0  0  0  0  0  0
   -0.9105   -2.1296    1.4836 O   0  0  0  0  0  0  0  0  0  0  0  0
   -1.6204   -0.2055    0.5438 N   0  0  0  0  0  0  0  0  0  0  0  0
   -2.4320    0.3328    0.2458 H   0  0  0  0  0  0  0  0  0  0  0  0
   -0.3071    0.4517    0.4421 C   0  0  1  0  0  0  0  0  0  0  0  0
    0.4180   -0.0459    1.0943 H   0  0  0  0  0  0  0  0  0  0  0  0
    0.2278    0.4057   -1.0181 C   0  0  1  0  0  0  0  0  0  0  0  0
   -0.5220    0.8669   -1.6706 H   0  0  0  0  0  0  0  0  0  0  0  0
    1.5414    1.2058   -1.1433 C   0  0  0  0  0  0  0  0  0  0  0  0
    2.3134    0.7798   -0.4949 H   0  0  0  0  0  0  0  0  0  0  0  0
    1.9087    1.1971   -2.1725 H   0  0  0  0  0  0  0  0  0  0  0  0
    1.3940    2.2540   -0.8677 H   0  0  0  0  0  0  0  0  0  0  0  0
    0.4597   -1.0534   -1.4831 C   0  0  0  0  0  0  0  0  0  0  0  0
    1.2906   -1.4957   -0.9236 H   0  0  0  0  0  0  0  0  0  0  0  0
   -0.4295   -1.6523   -1.2735 H   0  0  0  0  0  0  0  0  0  0  0  0
    0.7285   -1.1720   -2.9868 C   0  0  0  0  0  0  0  0  0  0  0  0
    1.6918   -0.7296   -3.2540 H   0  0  0  0  0  0  0  0  0  0  0  0
    0.7501   -2.2270   -3.2763 H   0  0  0  0  0  0  0  0  0  0  0  0
   -0.0605   -0.6731   -3.5580 H   0  0  0  0  0  0  0  0  0  0  0  0
   -0.4700    1.9037    0.9377 C   0  0  0  0  0  0  0  0  0  0  0  0
   -1.3092    2.6368    0.4268 O   0  0  0  0  0  0  0  0  0  0  0  0
    0.2609    2.3615    2.0184 N   0  0  0  0  0  0  0  0  0  0  0  0
    0.8887    1.7046    2.4731 H   0  0  0  0  0  0  0  0  0  0  0  0
    0.1000    3.6946    2.5858 C   0  0  0  0  0  0  0  0  0  0  0  0
   -0.9249    3.8380    2.9438 H   0  0  0  0  0  0  0  0  0  0  0  0
    0.7834    3.8315    3.4294 H   0  0  0  0  0  0  0  0  0  0  0  0
    0.3212    4.4601    1.8346 H   0  0  0  0  0  0  0  0  0  0  0  0
  1  2  1  0  0  0  0
  2  3  1  0  0  0  0
  2  4  1  0  0  0  0
  2  5  1  0  0  0  0
  5  6  2  0  0  0  0
  5  7  1  0  0  0  0
  7  8  1  0  0  0  0
  7  9  1  0  0  0  0
  9 10  1  0  0  0  0
  9 11  1  0  0  0  0
  9 24  1  0  0  0  0
 11 12  1  0  0  0  0
 11 13  1  0  0  0  0
 11 17  1  0  0  0  0
 13 14  1  0  0  0  0
 13 15  1  0  0  0  0
 13 16  1  0  0  0  0
 17 18  1  0  0  0  0
 17 19  1  0  0  0  0
 17 20  1  0  0  0  0
 20 21  1  0  0  0  0
 20 22  1  0  0  0  0
 20 23  1  0  0  0  0
 24 25  2  0  0  0  0
 24 26  1  0  0  0  0
 26 27  1  0  0  0  0
 26 28  1  0  0  0  0
 28 29  1  0  0  0  0
 28 30  1  0  0  0  0
 28 31  1  0  0  0  0
M  END
$$$$

  -OEChem-01062216083D

 31 30  0     1  0  0  0  0  0999 V2000
   -3.2621   -3.0183    1.5610 H   0  0  0  0  0  0  0  0  0  0  0  0
   -3.2653   -2.0134    1.1298 C   0  0  0  0  0  0  0  0  0  0  0  0
   -3.8670   -1.3591    1.7651 H   0  0  0  0  0  0  0  0  0  0  0  0
   -3.7150   -2.0582    0.1351 H   0  0  0  0  0  0  0  0  0  0  0  0
   -1.8482   -1.4808    1.0333 C   0  0  0  0  0  0  0  0  0  0  0  0
   -0.9122   -2.1612    1.4236 O   0  0  0  0  0  0  0  0  0  0  0  0
   -1.6253   -0.2185    0.5236 N   0  0  0  0  0  0  0  0  0  0  0  0
   -2.4409    0.3506    0.3013 H   0  0  0  0  0  0  0  0  0  0  0  0
   -0.3128    0.4434    0.4372 C   0  0  1  0  0  0  0  0  0  0  0  0
    0.4055   -0.0538    1.0969 H   0  0  0  0  0  0  0  0  0  0  0  0
    0.2307    0.4025   -1.0207 C   0  0  1  0  0  0  0  0  0  0  0  0
   -0.5190    0.8615   -1.6747 H   0  0  0  0  0  0  0  0  0  0  0  0
    1.5416    1.2072   -1.1444 C   0  0  0  0  0  0  0  0  0  0  0  0
    2.3108    0.7907   -0.4866 H   0  0  0  0  0  0  0  0  0  0  0  0
    1.9171    1.1912   -2.1703 H   0  0  0  0  0  0  0  0  0  0  0  0
    1.3871    2.2573   -0.8812 H   0  0  0  0  0  0  0  0  0  0  0  0
    0.4688   -1.0550   -1.4880 C   0  0  0  0  0  0  0  0  0  0  0  0
    1.2976   -1.4962   -0.9245 H   0  0  0  0  0  0  0  0  0  0  0  0
   -0.4205   -1.6569   -1.2861 H   0  0  0  0  0  0  0  0  0  0  0  0
    0.7465   -1.1696   -2.9904 C   0  0  0  0  0  0  0  0  0  0  0  0
    1.7133   -0.7306   -3.2500 H   0  0  0  0  0  0  0  0  0  0  0  0
    0.7660   -2.2235   -3.2834 H   0  0  0  0  0  0  0  0  0  0  0  0
   -0.0369   -0.6657   -3.5648 H   0  0  0  0  0  0  0  0  0  0  0  0
   -0.4809    1.8969    0.9303 C   0  0  0  0  0  0  0  0  0  0  0  0
   -1.4585    2.5530    0.5866 O   0  0  0  0  0  0  0  0  0  0  0  0
    0.4366    2.4557    1.8014 N   0  0  0  0  0  0  0  0  0  0  0  0
    1.2130    1.8746    2.1042 H   0  0  0  0  0  0  0  0  0  0  0  0
    0.3155    3.8074    2.3331 C   0  0  0  0  0  0  0  0  0  0  0  0
   -0.6180    3.9163    2.8951 H   0  0  0  0  0  0  0  0  0  0  0  0
    1.1509    4.0256    3.0053 H   0  0  0  0  0  0  0  0  0  0  0  0
    0.3253    4.5411    1.5202 H   0  0  0  0  0  0  0  0  0  0  0  0
  1  2  1  0  0  0  0
  2  3  1  0  0  0  0
  2  4  1  0  0  0  0
  2  5  1  0  0  0  0
  5  6  2  0  0  0  0
  5  7  1  0  0  0  0
  7  8  1  0  0  0  0
  7  9  1  0  0  0  0
  9 10  1  0  0  0  0
  9 11  1  0  0  0  0
  9 24  1  0  0  0  0
 11 12  1  0  0  0  0
 11 13  1  0  0  0  0
 11 17  1  0  0  0  0
 13 14  1  0  0  0  0
 13 15  1  0  0  0  0
 13 16  1  0  0  0  0
 17 18  1  0  0  0  0
 17 19  1  0  0  0  0
 17 20  1  0  0  0  0
 20 21  1  0  0  0  0
 20 22  1  0  0  0  0
 20 23  1  0  0  0  0
 24 25  2  0  0  0  0
 24 26  1  0  0  0  0
 26 27  1  0  0  0  0
 26 28  1  0  0  0  0
 28 29  1  0  0  0  0
 28 30  1  0  0  0  0
 28 31  1  0  0  0  0
M  END
$$$$

  -OEChem-01062216083D

 31 30  0     1  0  0  0  0  0999 V2000
   -3.2609   -3.0143    1.5588 H   0  0  0  0  0  0  0  0  0  0  0  0
   -3.2631   -2.0080    1.1305 C   0  0  0  0  0  0  0  0  0  0  0  0
   -3.8496   -1.3511    1.7775 H   0  0  0  0  0  0  0  0  0  0  0  0
   -3.7288   -2.0466    0.1427 H   0  0  0  0  0  0  0  0  0  0  0  0
   -1.8434   -1.4864    1.0125 C   0  0  0  0  0  0  0  0  0  0  0  0
   -0.9066   -2.1800    1.3770 O   0  0  0  0  0  0  0  0  0  0  0  0
   -1.6188   -0.2216    0.5097 N   0  0  0  0  0  0  0  0  0  0  0  0
   -2.4342    0.3694    0.3510 H   0  0  0  0  0  0  0  0  0  0  0  0
   -0.3055    0.4427    0.4425 C   0  0  1  0  0  0  0  0  0  0  0  0
    0.4089   -0.0543    1.1070 H   0  0  0  0  0  0  0  0  0  0  0  0
    0.2353    0.3993   -1.0201 C   0  0  1  0  0  0  0  0  0  0  0  0
   -0.5188    0.8552   -1.6713 H   0  0  0  0  0  0  0  0  0  0  0  0
    1.5442    1.2037   -1.1644 C   0  0  0  0  0  0  0  0  0  0  0  0
    2.3096    0.8171   -0.4843 H   0  0  0  0  0  0  0  0  0  0  0  0
    1.9301    1.1505   -2.1852 H   0  0  0  0  0  0  0  0  0  0  0  0
    1.3807    2.2626   -0.9472 H   0  0  0  0  0  0  0  0  0  0  0  0
    0.4701   -1.0598   -1.4883 C   0  0  0  0  0  0  0  0  0  0  0  0
    1.2973   -1.5034   -0.9245 H   0  0  0  0  0  0  0  0  0  0  0  0
   -0.4206   -1.6589   -1.2870 H   0  0  0  0  0  0  0  0  0  0  0  0
    0.7442   -1.1813   -2.9911 C   0  0  0  0  0  0  0  0  0  0  0  0
    1.7211   -0.7663   -3.2525 H   0  0  0  0  0  0  0  0  0  0  0  0
    0.7381   -2.2358   -3.2834 H   0  0  0  0  0  0  0  0  0  0  0  0
   -0.0279   -0.6596   -3.5650 H   0  0  0  0  0  0  0  0  0  0  0  0
   -0.4831    1.8970    0.9401 C   0  0  0  0  0  0  0  0  0  0  0  0
   -1.5541    2.4753    0.7835 O   0  0  0  0  0  0  0  0  0  0  0  0
    0.5525    2.5655    1.5688 N   0  0  0  0  0  0  0  0  0  0  0  0
    1.4252    2.0630    1.7020 H   0  0  0  0  0  0  0  0  0  0  0  0
    0.4464    3.9379    2.0489 C   0  0  0  0  0  0  0  0  0  0  0  0
   -0.3629    4.0267    2.7814 H   0  0  0  0  0  0  0  0  0  0  0  0
    1.3810    4.2446    2.5281 H   0  0  0  0  0  0  0  0  0  0  0  0
    0.2447    4.6198    1.2162 H   0  0  0  0  0  0  0  0  0  0  0  0
  1  2  1  0  0  0  0
  2  3  1  0  0  0  0
  2  4  1  0  0  0  0
  2  5  1  0  0  0  0
  5  6  2  0  0  0  0
  5  7  1  0  0  0  0
  7  8  1  0  0  0  0
  7  9  1  0  0  0  0
  9 10  1  0  0  0  0
  9 11  1  0  0  0  0
  9 24  1  0  0  0  0
 11 12  1  0  0  0  0
 11 13  1  0  0  0  0
 11 17  1  0  0  0  0
 13 14  1  0  0  0  0
 13 15  1  0  0  0  0
 13 16  1  0  0  0  0
 17 18  1  0  0  0  0
 17 19  1  0  0  0  0
 17 20  1  0  0  0  0
 20 21  1  0  0  0  0
 20 22  1  0  0  0  0
 20 23  1  0  0  0  0
 24 25  2  0  0  0  0
 24 26  1  0  0  0  0
 26 27  1  0  0  0  0
 26 28  1  0  0  0  0
 28 29  1  0  0  0  0
 28 30  1  0  0  0  0
 28 31  1  0  0  0  0
M  END
$$$$

  -OEChem-01062216083D

 31 30  0     1  0  0  0  0  0999 V2000
   -3.2570   -2.9930    1.5623 H   0  0  0  0  0  0  0  0  0  0  0  0
   -3.2573   -1.9866    1.1341 C   0  0  0  0  0  0  0  0  0  0  0  0
   -3.8186   -1.3221    1.7954 H   0  0  0  0  0  0  0  0  0  0  0  0
   -3.7483   -2.0184    0.1585 H   0  0  0  0  0  0  0  0  0  0  0  0
   -1.8346   -1.4831    0.9806 C   0  0  0  0  0  0  0  0  0  0  0  0
   -0.8979   -2.1928    1.3135 O   0  0  0  0  0  0  0  0  0  0  0  0
   -1.6091   -0.2139    0.4883 N   0  0  0  0  0  0  0  0  0  0  0  0
   -2.4209    0.3981    0.4071 H   0  0  0  0  0  0  0  0  0  0  0  0
   -0.2932    0.4496    0.4384 C   0  0  1  0  0  0  0  0  0  0  0  0
    0.4175   -0.0479    1.1066 H   0  0  0  0  0  0  0  0  0  0  0  0
    0.2449    0.3937   -1.0306 C   0  0  1  0  0  0  0  0  0  0  0  0
   -0.5133    0.8432   -1.6814 H   0  0  0  0  0  0  0  0  0  0  0  0
    1.5543    1.1910   -1.2052 C   0  0  0  0  0  0  0  0  0  0  0  0
    2.3061    0.8584   -0.4827 H   0  0  0  0  0  0  0  0  0  0  0  0
    1.9649    1.0693   -2.2096 H   0  0  0  0  0  0  0  0  0  0  0  0
    1.3792    2.2615   -1.0746 H   0  0  0  0  0  0  0  0  0  0  0  0
    0.4725   -1.0711   -1.4916 C   0  0  0  0  0  0  0  0  0  0  0  0
    1.2964   -1.5170   -0.9244 H   0  0  0  0  0  0  0  0  0  0  0  0
   -0.4216   -1.6638   -1.2885 H   0  0  0  0  0  0  0  0  0  0  0  0
    0.7424   -1.2123   -2.9942 C   0  0  0  0  0  0  0  0  0  0  0  0
    1.7289   -0.8249   -3.2610 H   0  0  0  0  0  0  0  0  0  0  0  0
    0.7113   -2.2691   -3.2763 H   0  0  0  0  0  0  0  0  0  0  0  0
   -0.0175   -0.6783   -3.5731 H   0  0  0  0  0  0  0  0  0  0  0  0
   -0.4812    1.9038    0.9485 C   0  0  0  0  0  0  0  0  0  0  0  0
   -1.6043    2.3971    1.0058 O   0  0  0  0  0  0  0  0  0  0  0  0
    0.5974    2.6890    1.3164 N   0  0  0  0  0  0  0  0  0  0  0  0
    1.5217    2.2714    1.2608 H   0  0  0  0  0  0  0  0  0  0  0  0
    0.4718    4.0695    1.7688 C   0  0  0  0  0  0  0  0  0  0  0  0
   -0.1616    4.1254    2.6604 H   0  0  0  0  0  0  0  0  0  0  0  0
    1.4560    4.4768    2.0190 H   0  0  0  0  0  0  0  0  0  0  0  0
    0.0295    4.6907    0.9829 H   0  0  0  0  0  0  0  0  0  0  0  0
  1  2  1  0  0  0  0
  2  3  1  0  0  0  0
  2  4  1  0  0  0  0
  2  5  1  0  0  0  0
  5  6  2  0  0  0  0
  5  7  1  0  0  0  0
  7  8  1  0  0  0  0
  7  9  1  0  0  0  0
  9 10  1  0  0  0  0
  9 11  1  0  0  0  0
  9 24  1  0  0  0  0
 11 12  1  0  0  0  0
 11 13  1  0  0  0  0
 11 17  1  0  0  0  0
 13 14  1  0  0  0  0
 13 15  1  0  0  0  0
 13 16  1  0  0  0  0
 17 18  1  0  0  0  0
 17 19  1  0  0  0  0
 17 20  1  0  0  0  0
 20 21  1  0  0  0  0
 20 22  1  0  0  0  0
 20 23  1  0  0  0  0
 24 25  2  0  0  0  0
 24 26  1  0  0  0  0
 26 27  1  0  0  0  0
 26 28  1  0  0  0  0
 28 29  1  0  0  0  0
 28 30  1  0  0  0  0
 28 31  1  0  0  0  0
M  END
$$$$

  -OEChem-01062216083D

 31 30  0     1  0  0  0  0  0999 V2000
   -3.1900   -2.9447    1.6125 H   0  0  0  0  0  0  0  0  0  0  0  0
   -3.2180   -1.9352    1.1931 C   0  0  0  0  0  0  0  0  0  0  0  0
   -3.6759   -1.2634    1.9233 H   0  0  0  0  0  0  0  0  0  0  0  0
   -3.8268   -1.9459    0.2860 H   0  0  0  0  0  0  0  0  0  0  0  0
   -1.8137   -1.4640    0.8663 C   0  0  0  0  0  0  0  0  0  0  0  0
   -0.8666   -2.2204    1.0178 O   0  0  0  0  0  0  0  0  0  0  0  0
   -1.6206   -0.1794    0.4010 N   0  0  0  0  0  0  0  0  0  0  0  0
   -2.4166    0.4456    0.5222 H   0  0  0  0  0  0  0  0  0  0  0  0
   -0.3022    0.4831    0.3729 C   0  0  1  0  0  0  0  0  0  0  0  0
    0.4703   -0.1532    0.8172 H   0  0  0  0  0  0  0  0  0  0  0  0
    0.0579    0.7361   -1.1295 C   0  0  1  0  0  0  0  0  0  0  0  0
   -0.7600    1.3063   -1.5836 H   0  0  0  0  0  0  0  0  0  0  0  0
    1.3592    1.5462   -1.3056 C   0  0  0  0  0  0  0  0  0  0  0  0
    2.1679    1.1092   -0.7114 H   0  0  0  0  0  0  0  0  0  0  0  0
    1.6786    1.5736   -2.3491 H   0  0  0  0  0  0  0  0  0  0  0  0
    1.2115    2.5865   -1.0072 H   0  0  0  0  0  0  0  0  0  0  0  0
    0.1915   -0.6157   -1.8851 C   0  0  0  0  0  0  0  0  0  0  0  0
    1.0697   -1.1579   -1.5190 H   0  0  0  0  0  0  0  0  0  0  0  0
   -0.6811   -1.2422   -1.6848 H   0  0  0  0  0  0  0  0  0  0  0  0
    0.2785   -0.4697   -3.4093 C   0  0  0  0  0  0  0  0  0  0  0  0
    1.2362   -0.0431   -3.7180 H   0  0  0  0  0  0  0  0  0  0  0  0
    0.1854   -1.4534   -3.8798 H   0  0  0  0  0  0  0  0  0  0  0  0
   -0.5302    0.1676   -3.7800 H   0  0  0  0  0  0  0  0  0  0  0  0
   -0.3928    1.7618    1.2552 C   0  0  0  0  0  0  0  0  0  0  0  0
   -1.4652    2.0822    1.7609 O   0  0  0  0  0  0  0  0  0  0  0  0
    0.6816    2.6124    1.4450 N   0  0  0  0  0  0  0  0  0  0  0  0
    1.5649    2.3511    1.0173 H   0  0  0  0  0  0  0  0  0  0  0  0
    0.6153    3.8371    2.2340 C   0  0  0  0  0  0  0  0  0  0  0  0
    0.3194    3.6141    3.2645 H   0  0  0  0  0  0  0  0  0  0  0  0
    1.5934    4.3271    2.2543 H   0  0  0  0  0  0  0  0  0  0  0  0
   -0.1113    4.5328    1.8012 H   0  0  0  0  0  0  0  0  0  0  0  0
  1  2  1  0  0  0  0
  2  3  1  0  0  0  0
  2  4  1  0  0  0  0
  2  5  1  0  0  0  0
  5  6  2  0  0  0  0
  5  7  1  0  0  0  0
  7  8  1  0  0  0  0
  7  9  1  0  0  0  0
  9 10  1  0  0  0  0
  9 11  1  0  0  0  0
  9 24  1  0  0  0  0
 11 12  1  0  0  0  0
 11 13  1  0  0  0  0
 11 17  1  0  0  0  0
 13 14  1  0  0  0  0
 13 15  1  0  0  0  0
 13 16  1  0  0  0  0
 17 18  1  0  0  0  0
 17 19  1  0  0  0  0
 17 20  1  0  0  0  0
 20 21  1  0  0  0  0
 20 22  1  0  0  0  0
 20 23  1  0  0  0  0
 24 25  2  0  0  0  0
 24 26  1  0  0  0  0
 26 27  1  0  0  0  0
 26 28  1  0  0  0  0
 28 29  1  0  0  0  0
 28 30  1  0  0  0  0
 28 31  1  0  0  0  0
M  END
$$$$

  -OEChem-01062216083D

 31 30  0     1  0  0  0  0  0999 V2000
   -3.1656   -2.9119    1.6419 H   0  0  0  0  0  0  0  0  0  0  0  0
   -3.2056   -1.9072    1.2119 C   0  0  0  0  0  0  0  0  0  0  0  0
   -3.6417   -1.2271    1.9478 H   0  0  0  0  0  0  0  0  0  0  0  0
   -3.8406   -1.9279    0.3231 H   0  0  0  0  0  0  0  0  0  0  0  0
   -1.8106   -1.4415    0.8404 C   0  0  0  0  0  0  0  0  0  0  0  0
   -0.8646   -2.2056    0.9568 O   0  0  0  0  0  0  0  0  0  0  0  0
   -1.6253   -0.1542    0.3774 N   0  0  0  0  0  0  0  0  0  0  0  0
   -2.4143    0.4695    0.5408 H   0  0  0  0  0  0  0  0  0  0  0  0
   -0.3038    0.5044    0.3467 C   0  0  1  0  0  0  0  0  0  0  0  0
    0.4670   -0.1301    0.7971 H   0  0  0  0  0  0  0  0  0  0  0  0
    0.0623    0.7369   -1.1609 C   0  0  1  0  0  0  0  0  0  0  0  0
   -0.7480    1.3068   -1.6287 H   0  0  0  0  0  0  0  0  0  0  0  0
    1.3774    1.5248   -1.3463 C   0  0  0  0  0  0  0  0  0  0  0  0
    2.1506    1.1469   -0.6700 H   0  0  0  0  0  0  0  0  0  0  0  0
    1.7559    1.4512   -2.3669 H   0  0  0  0  0  0  0  0  0  0  0  0
    1.2202    2.5896   -1.1618 H   0  0  0  0  0  0  0  0  0  0  0  0
    0.1916   -0.6292   -1.8943 C   0  0  0  0  0  0  0  0  0  0  0  0
    1.0637   -1.1716   -1.5140 H   0  0  0  0  0  0  0  0  0  0  0  0
   -0.6861   -1.2461   -1.6879 H   0  0  0  0  0  0  0  0  0  0  0  0
    0.2834   -0.5159   -3.4216 C   0  0  0  0  0  0  0  0  0  0  0  0
    1.2501   -0.1187   -3.7404 H   0  0  0  0  0  0  0  0  0  0  0  0
    0.1681   -1.5074   -3.8702 H   0  0  0  0  0  0  0  0  0  0  0  0
   -0.5107    0.1309   -3.8071 H   0  0  0  0  0  0  0  0  0  0  0  0
   -0.4035    1.7792    1.2407 C   0  0  0  0  0  0  0  0  0  0  0  0
   -1.3963    1.9501    1.9434 O   0  0  0  0  0  0  0  0  0  0  0  0
    0.5290    2.8007    1.2249 N   0  0  0  0  0  0  0  0  0  0  0  0
    1.3599    2.6633    0.6582 H   0  0  0  0  0  0  0  0  0  0  0  0
    0.4259    4.0069    2.0388 C   0  0  0  0  0  0  0  0  0  0  0  0
    0.3912    3.7498    3.1029 H   0  0  0  0  0  0  0  0  0  0  0  0
    1.2921    4.6532    1.8678 H   0  0  0  0  0  0  0  0  0  0  0  0
   -0.4792    4.5672    1.7815 H   0  0  0  0  0  0  0  0  0  0  0  0
  1  2  1  0  0  0  0
  2  3  1  0  0  0  0
  2  4  1  0  0  0  0
  2  5  1  0  0  0  0
  5  6  2  0  0  0  0
  5  7  1  0  0  0  0
  7  8  1  0  0  0  0
  7  9  1  0  0  0  0
  9 10  1  0  0  0  0
  9 11  1  0  0  0  0
  9 24  1  0  0  0  0
 11 12  1  0  0  0  0
 11 13  1  0  0  0  0
 11 17  1  0  0  0  0
 13 14  1  0  0  0  0
 13 15  1  0  0  0  0
 13 16  1  0  0  0  0
 17 18  1  0  0  0  0
 17 19  1  0  0  0  0
 17 20  1  0  0  0  0
 20 21  1  0  0  0  0
 20 22  1  0  0  0  0
 20 23  1  0  0  0  0
 24 25  2  0  0  0  0
 24 26  1  0  0  0  0
 26 27  1  0  0  0  0
 26 28  1  0  0  0  0
 28 29  1  0  0  0  0
 28 30  1  0  0  0  0
 28 31  1  0  0  0  0
M  END
$$$$

  -OEChem-01062216083D

 31 30  0     1  0  0  0  0  0999 V2000
   -3.2347   -2.8951    1.5342 H   0  0  0  0  0  0  0  0  0  0  0  0
   -3.2564   -1.8714    1.1505 C   0  0  0  0  0  0  0  0  0  0  0  0
   -3.6764   -1.2165    1.9181 H   0  0  0  0  0  0  0  0  0  0  0  0
   -3.8942   -1.8398    0.2641 H   0  0  0  0  0  0  0  0  0  0  0  0
   -1.8540   -1.4159    0.7952 C   0  0  0  0  0  0  0  0  0  0  0  0
   -0.9142   -2.1850    0.9276 O   0  0  0  0  0  0  0  0  0  0  0  0
   -1.6579   -0.1329    0.3236 N   0  0  0  0  0  0  0  0  0  0  0  0
   -2.4496    0.4895    0.4725 H   0  0  0  0  0  0  0  0  0  0  0  0
   -0.3337    0.5217    0.3271 C   0  0  1  0  0  0  0  0  0  0  0  0
    0.4171   -0.1058    0.8191 H   0  0  0  0  0  0  0  0  0  0  0  0
    0.1010    0.7264   -1.1663 C   0  0  1  0  0  0  0  0  0  0  0  0
   -0.6775    1.2959   -1.6855 H   0  0  0  0  0  0  0  0  0  0  0  0
    1.4398    1.4908   -1.2889 C   0  0  0  0  0  0  0  0  0  0  0  0
    2.1211    1.2066   -0.4805 H   0  0  0  0  0  0  0  0  0  0  0  0
    1.2705    2.5694   -1.2611 H   0  0  0  0  0  0  0  0  0  0  0  0
    1.9466    1.2906   -2.2337 H   0  0  0  0  0  0  0  0  0  0  0  0
    0.2566   -0.6539   -1.8676 C   0  0  0  0  0  0  0  0  0  0  0  0
    1.1077   -1.1931   -1.4383 H   0  0  0  0  0  0  0  0  0  0  0  0
   -0.6333   -1.2622   -1.6897 H   0  0  0  0  0  0  0  0  0  0  0  0
    0.4170   -0.5697   -3.3920 C   0  0  0  0  0  0  0  0  0  0  0  0
    1.3925   -0.1706   -3.6792 H   0  0  0  0  0  0  0  0  0  0  0  0
    0.3282   -1.5705   -3.8257 H   0  0  0  0  0  0  0  0  0  0  0  0
   -0.3650    0.0624   -3.8235 H   0  0  0  0  0  0  0  0  0  0  0  0
   -0.4733    1.8028    1.2081 C   0  0  0  0  0  0  0  0  0  0  0  0
   -1.3599    1.8498    2.0558 O   0  0  0  0  0  0  0  0  0  0  0  0
    0.2621    2.9601    1.0265 N   0  0  0  0  0  0  0  0  0  0  0  0
    1.0213    2.9278    0.3551 H   0  0  0  0  0  0  0  0  0  0  0  0
    0.0926    4.1641    1.8328 C   0  0  0  0  0  0  0  0  0  0  0  0
    0.2563    3.9428    2.8928 H   0  0  0  0  0  0  0  0  0  0  0  0
    0.8115    4.9293    1.5250 H   0  0  0  0  0  0  0  0  0  0  0  0
   -0.9175    4.5690    1.7090 H   0  0  0  0  0  0  0  0  0  0  0  0
  1  2  1  0  0  0  0
  2  3  1  0  0  0  0
  2  4  1  0  0  0  0
  2  5  1  0  0  0  0
  5  6  2  0  0  0  0
  5  7  1  0  0  0  0
  7  8  1  0  0  0  0
  7  9  1  0  0  0  0
  9 10  1  0  0  0  0
  9 11  1  0  0  0  0
  9 24  1  0  0  0  0
 11 12  1  0  0  0  0
 11 13  1  0  0  0  0
 11 17  1  0  0  0  0
 13 14  1  0  0  0  0
 13 15  1  0  0  0  0
 13 16  1  0  0  0  0
 17 18  1  0  0  0  0
 17 19  1  0  0  0  0
 17 20  1  0  0  0  0
 20 21  1  0  0  0  0
 20 22  1  0  0  0  0
 20 23  1  0  0  0  0
 24 25  2  0  0  0  0
 24 26  1  0  0  0  0
 26 27  1  0  0  0  0
 26 28  1  0  0  0  0
 28 29  1  0  0  0  0
 28 30  1  0  0  0  0
 28 31  1  0  0  0  0
M  END
$$$$

  -OEChem-01062216083D

 31 30  0     1  0  0  0  0  0999 V2000
   -3.1181   -2.9294    1.6691 H   0  0  0  0  0  0  0  0  0  0  0  0
   -3.1770   -1.9123    1.2715 C   0  0  0  0  0  0  0  0  0  0  0  0
   -3.5747   -1.2543    2.0482 H   0  0  0  0  0  0  0  0  0  0  0  0
   -3.8550   -1.9069    0.4146 H   0  0  0  0  0  0  0  0  0  0  0  0
   -1.8007   -1.4356    0.8469 C   0  0  0  0  0  0  0  0  0  0  0  0
   -0.8465   -2.1943    0.9241 O   0  0  0  0  0  0  0  0  0  0  0  0
   -1.6474   -0.1500    0.3652 N   0  0  0  0  0  0  0  0  0  0  0  0
   -2.4487    0.4540    0.5311 H   0  0  0  0  0  0  0  0  0  0  0  0
   -0.3347    0.5252    0.3072 C   0  0  1  0  0  0  0  0  0  0  0  0
    0.4416   -0.0883    0.7776 H   0  0  0  0  0  0  0  0  0  0  0  0
    0.0655    0.7409   -1.1910 C   0  0  1  0  0  0  0  0  0  0  0  0
   -0.7230    1.3093   -1.6959 H   0  0  0  0  0  0  0  0  0  0  0  0
    1.4075    1.5061   -1.3148 C   0  0  0  0  0  0  0  0  0  0  0  0
    2.0469    1.3082   -0.4485 H   0  0  0  0  0  0  0  0  0  0  0  0
    1.2348    2.5815   -1.3950 H   0  0  0  0  0  0  0  0  0  0  0  0
    1.9701    1.2198   -2.2046 H   0  0  0  0  0  0  0  0  0  0  0  0
    0.2256   -0.6347   -1.8968 C   0  0  0  0  0  0  0  0  0  0  0  0
    1.0933   -1.1631   -1.4877 H   0  0  0  0  0  0  0  0  0  0  0  0
   -0.6524   -1.2546   -1.6995 H   0  0  0  0  0  0  0  0  0  0  0  0
    0.3527   -0.5403   -3.4237 C   0  0  0  0  0  0  0  0  0  0  0  0
    1.3101   -0.1124   -3.7295 H   0  0  0  0  0  0  0  0  0  0  0  0
    0.2823   -1.5414   -3.8598 H   0  0  0  0  0  0  0  0  0  0  0  0
   -0.4546    0.0719   -3.8367 H   0  0  0  0  0  0  0  0  0  0  0  0
   -0.4645    1.8004    1.1929 C   0  0  0  0  0  0  0  0  0  0  0  0
   -1.1004    1.7321    2.2389 O   0  0  0  0  0  0  0  0  0  0  0  0
   -0.0075    3.0536    0.8266 N   0  0  0  0  0  0  0  0  0  0  0  0
    0.4781    3.1322   -0.0593 H   0  0  0  0  0  0  0  0  0  0  0  0
   -0.1792    4.2519    1.6410 C   0  0  0  0  0  0  0  0  0  0  0  0
    0.2964    4.1217    2.6189 H   0  0  0  0  0  0  0  0  0  0  0  0
    0.2791    5.1137    1.1465 H   0  0  0  0  0  0  0  0  0  0  0  0
   -1.2427    4.4656    1.7918 H   0  0  0  0  0  0  0  0  0  0  0  0
  1  2  1  0  0  0  0
  2  3  1  0  0  0  0
  2  4  1  0  0  0  0
  2  5  1  0  0  0  0
  5  6  2  0  0  0  0
  5  7  1  0  0  0  0
  7  8  1  0  0  0  0
  7  9  1  0  0  0  0
  9 10  1  0  0  0  0
  9 11  1  0  0  0  0
  9 24  1  0  0  0  0
 11 12  1  0  0  0  0
 11 13  1  0  0  0  0
 11 17  1  0  0  0  0
 13 14  1  0  0  0  0
 13 15  1  0  0  0  0
 13 16  1  0  0  0  0
 17 18  1  0  0  0  0
 17 19  1  0  0  0  0
 17 20  1  0  0  0  0
 20 21  1  0  0  0  0
 20 22  1  0  0  0  0
 20 23  1  0  0  0  0
 24 25  2  0  0  0  0
 24 26  1  0  0  0  0
 26 27  1  0  0  0  0
 26 28  1  0  0  0  0
 28 29  1  0  0  0  0
 28 30  1  0  0  0  0
 28 31  1  0  0  0  0
M  END
$$$$

  -OEChem-01062216083D

 31 30  0     1  0  0  0  0  0999 V2000
   -3.1554   -2.9100    1.6680 H   0  0  0  0  0  0  0  0  0  0  0  0
   -3.2021   -1.8836    1.2933 C   0  0  0  0  0  0  0  0  0  0  0  0
   -3.5808   -1.2364    2.0884 H   0  0  0  0  0  0  0  0  0  0  0  0
   -3.8887   -1.8487    0.4441 H   0  0  0  0  0  0  0  0  0  0  0  0
   -1.8228   -1.4206    0.8644 C   0  0  0  0  0  0  0  0  0  0  0  0
   -0.8767   -2.1896    0.9348 O   0  0  0  0  0  0  0  0  0  0  0  0
   -1.6601   -0.1398    0.3731 N   0  0  0  0  0  0  0  0  0  0  0  0
   -2.4619    0.4685    0.5150 H   0  0  0  0  0  0  0  0  0  0  0  0
   -0.3408    0.5201    0.3063 C   0  0  1  0  0  0  0  0  0  0  0  0
    0.4320   -0.0947    0.7815 H   0  0  0  0  0  0  0  0  0  0  0  0
    0.0749    0.7520   -1.1806 C   0  0  1  0  0  0  0  0  0  0  0  0
   -0.6900    1.3590   -1.6765 H   0  0  0  0  0  0  0  0  0  0  0  0
    1.4565    1.4459   -1.2927 C   0  0  0  0  0  0  0  0  0  0  0  0
    2.2376    0.8068   -0.8680 H   0  0  0  0  0  0  0  0  0  0  0  0
    1.7044    1.6459   -2.3382 H   0  0  0  0  0  0  0  0  0  0  0  0
    1.4987    2.4037   -0.7771 H   0  0  0  0  0  0  0  0  0  0  0  0
    0.2211   -0.6156   -1.9024 C   0  0  0  0  0  0  0  0  0  0  0  0
    1.0715   -1.1724   -1.4940 H   0  0  0  0  0  0  0  0  0  0  0  0
   -0.6722   -1.2201   -1.7244 H   0  0  0  0  0  0  0  0  0  0  0  0
    0.3651   -0.4903   -3.4235 C   0  0  0  0  0  0  0  0  0  0  0  0
    1.3308   -0.0577   -3.6982 H   0  0  0  0  0  0  0  0  0  0  0  0
    0.2986   -1.4811   -3.8831 H   0  0  0  0  0  0  0  0  0  0  0  0
   -0.4334    0.1353   -3.8340 H   0  0  0  0  0  0  0  0  0  0  0  0
   -0.4867    1.7918    1.1885 C   0  0  0  0  0  0  0  0  0  0  0  0
   -0.8898    1.6745    2.3390 O   0  0  0  0  0  0  0  0  0  0  0  0
   -0.3136    3.0784    0.7095 N   0  0  0  0  0  0  0  0  0  0  0  0
   -0.0497    3.1796   -0.2658 H   0  0  0  0  0  0  0  0  0  0  0  0
   -0.5163    4.2784    1.5135 C   0  0  0  0  0  0  0  0  0  0  0  0
    0.1432    4.2693    2.3878 H   0  0  0  0  0  0  0  0  0  0  0  0
   -0.2926    5.1716    0.9223 H   0  0  0  0  0  0  0  0  0  0  0  0
   -1.5547    4.3406    1.8555 H   0  0  0  0  0  0  0  0  0  0  0  0
  1  2  1  0  0  0  0
  2  3  1  0  0  0  0
  2  4  1  0  0  0  0
  2  5  1  0  0  0  0
  5  6  2  0  0  0  0
  5  7  1  0  0  0  0
  7  8  1  0  0  0  0
  7  9  1  0  0  0  0
  9 10  1  0  0  0  0
  9 11  1  0  0  0  0
  9 24  1  0  0  0  0
 11 12  1  0  0  0  0
 11 13  1  0  0  0  0
 11 17  1  0  0  0  0
 13 14  1  0  0  0  0
 13 15  1  0  0  0  0
 13 16  1  0  0  0  0
 17 18  1  0  0  0  0
 17 19  1  0  0  0  0
 17 20  1  0  0  0  0
 20 21  1  0  0  0  0
 20 22  1  0  0  0  0
 20 23  1  0  0  0  0
 24 25  2  0  0  0  0
 24 26  1  0  0  0  0
 26 27  1  0  0  0  0
 26 28  1  0  0  0  0
 28 29  1  0  0  0  0
 28 30  1  0  0  0  0
 28 31  1  0  0  0  0
M  END
$$$$

  -OEChem-01062216083D

 31 30  0     1  0  0  0  0  0999 V2000
   -3.1659   -2.9428    1.6707 H   0  0  0  0  0  0  0  0  0  0  0  0
   -3.2206   -1.9261    1.2713 C   0  0  0  0  0  0  0  0  0  0  0  0
   -3.6425   -1.2708    2.0374 H   0  0  0  0  0  0  0  0  0  0  0  0
   -3.8756   -1.9255    0.3968 H   0  0  0  0  0  0  0  0  0  0  0  0
   -1.8358   -1.4426    0.8838 C   0  0  0  0  0  0  0  0  0  0  0  0
   -0.8822   -2.1980    0.9848 O   0  0  0  0  0  0  0  0  0  0  0  0
   -1.6760   -0.1623    0.3894 N   0  0  0  0  0  0  0  0  0  0  0  0
   -2.4954    0.4331    0.4682 H   0  0  0  0  0  0  0  0  0  0  0  0
   -0.3641    0.5110    0.3271 C   0  0  1  0  0  0  0  0  0  0  0  0
    0.4117   -0.0999    0.8028 H   0  0  0  0  0  0  0  0  0  0  0  0
    0.0560    0.7529   -1.1539 C   0  0  1  0  0  0  0  0  0  0  0  0
   -0.7187    1.3456   -1.6519 H   0  0  0  0  0  0  0  0  0  0  0  0
    1.4129    1.4928   -1.2375 C   0  0  0  0  0  0  0  0  0  0  0  0
    2.2103    0.8744   -0.8124 H   0  0  0  0  0  0  0  0  0  0  0  0
    1.6667    1.7190   -2.2764 H   0  0  0  0  0  0  0  0  0  0  0  0
    1.4061    2.4423   -0.7008 H   0  0  0  0  0  0  0  0  0  0  0  0
    0.2243   -0.6034   -1.8870 C   0  0  0  0  0  0  0  0  0  0  0  0
    1.0844   -1.1474   -1.4821 H   0  0  0  0  0  0  0  0  0  0  0  0
   -0.6587   -1.2251   -1.7163 H   0  0  0  0  0  0  0  0  0  0  0  0
    0.3741   -0.4539   -3.4048 C   0  0  0  0  0  0  0  0  0  0  0  0
    1.3264    0.0155   -3.6657 H   0  0  0  0  0  0  0  0  0  0  0  0
    0.3441   -1.4400   -3.8783 H   0  0  0  0  0  0  0  0  0  0  0  0
   -0.4421    0.1499   -3.8132 H   0  0  0  0  0  0  0  0  0  0  0  0
   -0.4981    1.7884    1.1941 C   0  0  0  0  0  0  0  0  0  0  0  0
   -0.6460    1.6822    2.4036 O   0  0  0  0  0  0  0  0  0  0  0  0
   -0.6171    3.0503    0.6369 N   0  0  0  0  0  0  0  0  0  0  0  0
   -0.5030    3.1258   -0.3695 H   0  0  0  0  0  0  0  0  0  0  0  0
   -0.7978    4.2659    1.4219 C   0  0  0  0  0  0  0  0  0  0  0  0
    0.0525    4.4170    2.0953 H   0  0  0  0  0  0  0  0  0  0  0  0
   -0.8748    5.1348    0.7612 H   0  0  0  0  0  0  0  0  0  0  0  0
   -1.7136    4.2046    2.0192 H   0  0  0  0  0  0  0  0  0  0  0  0
  1  2  1  0  0  0  0
  2  3  1  0  0  0  0
  2  4  1  0  0  0  0
  2  5  1  0  0  0  0
  5  6  2  0  0  0  0
  5  7  1  0  0  0  0
  7  8  1  0  0  0  0
  7  9  1  0  0  0  0
  9 10  1  0  0  0  0
  9 11  1  0  0  0  0
  9 24  1  0  0  0  0
 11 12  1  0  0  0  0
 11 13  1  0  0  0  0
 11 17  1  0  0  0  0
 13 14  1  0  0  0  0
 13 15  1  0  0  0  0
 13 16  1  0  0  0  0
 17 18  1  0  0  0  0
 17 19  1  0  0  0  0
 17 20  1  0  0  0  0
 20 21  1  0  0  0  0
 20 22  1  0  0  0  0
 20 23  1  0  0  0  0
 24 25  2  0  0  0  0
 24 26  1  0  0  0  0
 26 27  1  0  0  0  0
 26 28  1  0  0  0  0
 28 29  1  0  0  0  0
 28 30  1  0  0  0  0
 28 31  1  0  0  0  0
M  END
$$$$

  -OEChem-01062216083D

 31 30  0     1  0  0  0  0  0999 V2000
   -3.1772   -2.9873    1.6493 H   0  0  0  0  0  0  0  0  0  0  0  0
   -3.2345   -1.9788    1.2299 C   0  0  0  0  0  0  0  0  0  0  0  0
   -3.7114   -1.3217    1.9611 H   0  0  0  0  0  0  0  0  0  0  0  0
   -3.8431   -2.0085    0.3229 H   0  0  0  0  0  0  0  0  0  0  0  0
   -1.8430   -1.4690    0.9051 C   0  0  0  0  0  0  0  0  0  0  0  0
   -0.8815   -2.2074    1.0441 O   0  0  0  0  0  0  0  0  0  0  0  0
   -1.6868   -0.1876    0.4126 N   0  0  0  0  0  0  0  0  0  0  0  0
   -2.5207    0.3916    0.4333 H   0  0  0  0  0  0  0  0  0  0  0  0
   -0.3833    0.5020    0.3541 C   0  0  1  0  0  0  0  0  0  0  0  0
    0.3981   -0.1075    0.8232 H   0  0  0  0  0  0  0  0  0  0  0  0
    0.0327    0.7561   -1.1237 C   0  0  1  0  0  0  0  0  0  0  0  0
   -0.7567    1.3303   -1.6198 H   0  0  0  0  0  0  0  0  0  0  0  0
    1.3578    1.5475   -1.1923 C   0  0  0  0  0  0  0  0  0  0  0  0
    2.1692    0.9714   -0.7356 H   0  0  0  0  0  0  0  0  0  0  0  0
    1.6287    1.7658   -2.2285 H   0  0  0  0  0  0  0  0  0  0  0  0
    1.2875    2.5058   -0.6725 H   0  0  0  0  0  0  0  0  0  0  0  0
    0.2217   -0.5909   -1.8665 C   0  0  0  0  0  0  0  0  0  0  0  0
    1.0936   -1.1193   -1.4666 H   0  0  0  0  0  0  0  0  0  0  0  0
   -0.6484   -1.2310   -1.6974 H   0  0  0  0  0  0  0  0  0  0  0  0
    0.3691   -0.4277   -3.3827 C   0  0  0  0  0  0  0  0  0  0  0  0
    1.3074    0.0719   -3.6384 H   0  0  0  0  0  0  0  0  0  0  0  0
    0.3701   -1.4117   -3.8619 H   0  0  0  0  0  0  0  0  0  0  0  0
   -0.4640    0.1538   -3.7893 H   0  0  0  0  0  0  0  0  0  0  0  0
   -0.4986    1.7845    1.2095 C   0  0  0  0  0  0  0  0  0  0  0  0
   -0.3419    1.7293    2.4203 O   0  0  0  0  0  0  0  0  0  0  0  0
   -0.9152    2.9816    0.6518 N   0  0  0  0  0  0  0  0  0  0  0  0
   -1.0086    3.0152   -0.3588 H   0  0  0  0  0  0  0  0  0  0  0  0
   -1.0567    4.2152    1.4160 C   0  0  0  0  0  0  0  0  0  0  0  0
   -0.0924    4.5153    1.8392 H   0  0  0  0  0  0  0  0  0  0  0  0
   -1.4180    5.0211    0.7702 H   0  0  0  0  0  0  0  0  0  0  0  0
   -1.7735    4.0812    2.2331 H   0  0  0  0  0  0  0  0  0  0  0  0
  1  2  1  0  0  0  0
  2  3  1  0  0  0  0
  2  4  1  0  0  0  0
  2  5  1  0  0  0  0
  5  6  2  0  0  0  0
  5  7  1  0  0  0  0
  7  8  1  0  0  0  0
  7  9  1  0  0  0  0
  9 10  1  0  0  0  0
  9 11  1  0  0  0  0
  9 24  1  0  0  0  0
 11 12  1  0  0  0  0
 11 13  1  0  0  0  0
 11 17  1  0  0  0  0
 13 14  1  0  0  0  0
 13 15  1  0  0  0  0
 13 16  1  0  0  0  0
 17 18  1  0  0  0  0
 17 19  1  0  0  0  0
 17 20  1  0  0  0  0
 20 21  1  0  0  0  0
 20 22  1  0  0  0  0
 20 23  1  0  0  0  0
 24 25  2  0  0  0  0
 24 26  1  0  0  0  0
 26 27  1  0  0  0  0
 26 28  1  0  0  0  0
 28 29  1  0  0  0  0
 28 30  1  0  0  0  0
 28 31  1  0  0  0  0
M  END
$$$$

  -OEChem-01062216083D

 31 30  0     1  0  0  0  0  0999 V2000
   -3.1843   -3.0339    1.6316 H   0  0  0  0  0  0  0  0  0  0  0  0
   -3.2443   -2.0287    1.2044 C   0  0  0  0  0  0  0  0  0  0  0  0
   -3.7548   -1.3759    1.9164 H   0  0  0  0  0  0  0  0  0  0  0  0
   -3.8232   -2.0732    0.2790 H   0  0  0  0  0  0  0  0  0  0  0  0
   -1.8510   -1.4990    0.9207 C   0  0  0  0  0  0  0  0  0  0  0  0
   -0.8845   -2.2211    1.0995 O   0  0  0  0  0  0  0  0  0  0  0  0
   -1.6965   -0.2160    0.4307 N   0  0  0  0  0  0  0  0  0  0  0  0
   -2.5400    0.3483    0.4006 H   0  0  0  0  0  0  0  0  0  0  0  0
   -0.3984    0.4860    0.3795 C   0  0  1  0  0  0  0  0  0  0  0  0
    0.3869   -0.1242    0.8416 H   0  0  0  0  0  0  0  0  0  0  0  0
    0.0141    0.7584   -1.0946 C   0  0  1  0  0  0  0  0  0  0  0  0
   -0.7855    1.3236   -1.5846 H   0  0  0  0  0  0  0  0  0  0  0  0
    1.3153    1.5863   -1.1520 C   0  0  0  0  0  0  0  0  0  0  0  0
    2.1354    1.0417   -0.6732 H   0  0  0  0  0  0  0  0  0  0  0  0
    1.5985    1.8009   -2.1854 H   0  0  0  0  0  0  0  0  0  0  0  0
    1.1998    2.5484   -0.6456 H   0  0  0  0  0  0  0  0  0  0  0  0
    0.2168   -0.5769   -1.8532 C   0  0  0  0  0  0  0  0  0  0  0  0
    1.0955   -1.0991   -1.4599 H   0  0  0  0  0  0  0  0  0  0  0  0
   -0.6459   -1.2287   -1.6902 H   0  0  0  0  0  0  0  0  0  0  0  0
    0.3619   -0.3937   -3.3673 C   0  0  0  0  0  0  0  0  0  0  0  0
    1.2923    0.1232   -3.6171 H   0  0  0  0  0  0  0  0  0  0  0  0
    0.3778   -1.3716   -3.8579 H   0  0  0  0  0  0  0  0  0  0  0  0
   -0.4797    0.1795   -3.7674 H   0  0  0  0  0  0  0  0  0  0  0  0
   -0.5014    1.7722    1.2271 C   0  0  0  0  0  0  0  0  0  0  0  0
   -0.0347    1.8119    2.3557 O   0  0  0  0  0  0  0  0  0  0  0  0
   -1.1952    2.8717    0.7503 N   0  0  0  0  0  0  0  0  0  0  0  0
   -1.4982    2.8438   -0.2184 H   0  0  0  0  0  0  0  0  0  0  0  0
   -1.2987    4.1269    1.4853 C   0  0  0  0  0  0  0  0  0  0  0  0
   -0.3061    4.5622    1.6418 H   0  0  0  0  0  0  0  0  0  0  0  0
   -1.9075    4.8440    0.9266 H   0  0  0  0  0  0  0  0  0  0  0  0
   -1.7685    3.9630    2.4609 H   0  0  0  0  0  0  0  0  0  0  0  0
  1  2  1  0  0  0  0
  2  3  1  0  0  0  0
  2  4  1  0  0  0  0
  2  5  1  0  0  0  0
  5  6  2  0  0  0  0
  5  7  1  0  0  0  0
  7  8  1  0  0  0  0
  7  9  1  0  0  0  0
  9 10  1  0  0  0  0
  9 11  1  0  0  0  0
  9 24  1  0  0  0  0
 11 12  1  0  0  0  0
 11 13  1  0  0  0  0
 11 17  1  0  0  0  0
 13 14  1  0  0  0  0
 13 15  1  0  0  0  0
 13 16  1  0  0  0  0
 17 18  1  0  0  0  0
 17 19  1  0  0  0  0
 17 20  1  0  0  0  0
 20 21  1  0  0  0  0
 20 22  1  0  0  0  0
 20 23  1  0  0  0  0
 24 25  2  0  0  0  0
 24 26  1  0  0  0  0
 26 27  1  0  0  0  0
 26 28  1  0  0  0  0
 28 29  1  0  0  0  0
 28 30  1  0  0  0  0
 28 31  1  0  0  0  0
M  END
$$$$

  -OEChem-01062216083D

 31 30  0     1  0  0  0  0  0999 V2000
   -3.1898   -3.0801    1.5839 H   0  0  0  0  0  0  0  0  0  0  0  0
   -3.2454   -2.0713    1.1649 C   0  0  0  0  0  0  0  0  0  0  0  0
   -3.7929   -1.4320    1.8617 H   0  0  0  0  0  0  0  0  0  0  0  0
   -3.7854   -2.1139    0.2160 H   0  0  0  0  0  0  0  0  0  0  0  0
   -1.8487   -1.5211    0.9431 C   0  0  0  0  0  0  0  0  0  0  0  0
   -0.8799   -2.2261    1.1691 O   0  0  0  0  0  0  0  0  0  0  0  0
   -1.6936   -0.2374    0.4551 N   0  0  0  0  0  0  0  0  0  0  0  0
   -2.5431    0.3124    0.3785 H   0  0  0  0  0  0  0  0  0  0  0  0
   -0.3989    0.4737    0.4088 C   0  0  1  0  0  0  0  0  0  0  0  0
    0.3912   -0.1362    0.8626 H   0  0  0  0  0  0  0  0  0  0  0  0
   -0.0001    0.7598   -1.0660 C   0  0  1  0  0  0  0  0  0  0  0  0
   -0.8092    1.3220   -1.5438 H   0  0  0  0  0  0  0  0  0  0  0  0
    1.2895    1.6047   -1.1294 C   0  0  0  0  0  0  0  0  0  0  0  0
    2.1184    1.0727   -0.6513 H   0  0  0  0  0  0  0  0  0  0  0  0
    1.5669    1.8216   -2.1639 H   0  0  0  0  0  0  0  0  0  0  0  0
    1.1596    2.5662   -0.6246 H   0  0  0  0  0  0  0  0  0  0  0  0
    0.2063   -0.5678   -1.8372 C   0  0  0  0  0  0  0  0  0  0  0  0
    1.0949   -1.0827   -1.4565 H   0  0  0  0  0  0  0  0  0  0  0  0
   -0.6474   -1.2307   -1.6714 H   0  0  0  0  0  0  0  0  0  0  0  0
    0.3377   -0.3701   -3.3508 C   0  0  0  0  0  0  0  0  0  0  0  0
    1.2627    0.1554   -3.6032 H   0  0  0  0  0  0  0  0  0  0  0  0
    0.3558   -1.3436   -3.8503 H   0  0  0  0  0  0  0  0  0  0  0  0
   -0.5111    0.2014   -3.7388 H   0  0  0  0  0  0  0  0  0  0  0  0
   -0.4941    1.7629    1.2511 C   0  0  0  0  0  0  0  0  0  0  0  0
    0.2274    1.9284    2.2235 O   0  0  0  0  0  0  0  0  0  0  0  0
   -1.4234    2.7373    0.9275 N   0  0  0  0  0  0  0  0  0  0  0  0
   -1.9039    2.6386    0.0392 H   0  0  0  0  0  0  0  0  0  0  0  0
   -1.5141    4.0090    1.6355 C   0  0  0  0  0  0  0  0  0  0  0  0
   -0.5779    4.5689    1.5383 H   0  0  0  0  0  0  0  0  0  0  0  0
   -2.3260    4.6152    1.2225 H   0  0  0  0  0  0  0  0  0  0  0  0
   -1.7156    3.8428    2.6993 H   0  0  0  0  0  0  0  0  0  0  0  0
  1  2  1  0  0  0  0
  2  3  1  0  0  0  0
  2  4  1  0  0  0  0
  2  5  1  0  0  0  0
  5  6  2  0  0  0  0
  5  7  1  0  0  0  0
  7  8  1  0  0  0  0
  7  9  1  0  0  0  0
  9 10  1  0  0  0  0
  9 11  1  0  0  0  0
  9 24  1  0  0  0  0
 11 12  1  0  0  0  0
 11 13  1  0  0  0  0
 11 17  1  0  0  0  0
 13 14  1  0  0  0  0
 13 15  1  0  0  0  0
 13 16  1  0  0  0  0
 17 18  1  0  0  0  0
 17 19  1  0  0  0  0
 17 20  1  0  0  0  0
 20 21  1  0  0  0  0
 20 22  1  0  0  0  0
 20 23  1  0  0  0  0
 24 25  2  0  0  0  0
 24 26  1  0  0  0  0
 26 27  1  0  0  0  0
 26 28  1  0  0  0  0
 28 29  1  0  0  0  0
 28 30  1  0  0  0  0
 28 31  1  0  0  0  0
M  END
$$$$

  -OEChem-01062216083D

 31 30  0     1  0  0  0  0  0999 V2000
   -3.1716   -3.1462    1.4704 H   0  0  0  0  0  0  0  0  0  0  0  0
   -3.2271   -2.1350    1.0569 C   0  0  0  0  0  0  0  0  0  0  0  0
   -3.8744   -1.5302    1.6964 H   0  0  0  0  0  0  0  0  0  0  0  0
   -3.6594   -2.1885    0.0550 H   0  0  0  0  0  0  0  0  0  0  0  0
   -1.8409   -1.5215    0.9923 C   0  0  0  0  0  0  0  0  0  0  0  0
   -0.8768   -2.1742    1.3529 O   0  0  0  0  0  0  0  0  0  0  0  0
   -1.6851   -0.2395    0.4999 N   0  0  0  0  0  0  0  0  0  0  0  0
   -2.5298    0.2427    0.2144 H   0  0  0  0  0  0  0  0  0  0  0  0
   -0.3955    0.4831    0.4442 C   0  0  1  0  0  0  0  0  0  0  0  0
    0.4022   -0.1227    0.8902 H   0  0  0  0  0  0  0  0  0  0  0  0
   -0.0219    0.7586   -1.0402 C   0  0  1  0  0  0  0  0  0  0  0  0
   -0.8450    1.3087   -1.5084 H   0  0  0  0  0  0  0  0  0  0  0  0
    1.2559    1.6182   -1.1384 C   0  0  0  0  0  0  0  0  0  0  0  0
    2.0942    1.1154   -0.6452 H   0  0  0  0  0  0  0  0  0  0  0  0
    1.5276    1.8047   -2.1801 H   0  0  0  0  0  0  0  0  0  0  0  0
    1.1126    2.5947   -0.6669 H   0  0  0  0  0  0  0  0  0  0  0  0
    0.1848   -0.5742   -1.8036 C   0  0  0  0  0  0  0  0  0  0  0  0
    1.0837   -1.0772   -1.4313 H   0  0  0  0  0  0  0  0  0  0  0  0
   -0.6596   -1.2438   -1.6204 H   0  0  0  0  0  0  0  0  0  0  0  0
    0.2912   -0.3905   -3.3210 C   0  0  0  0  0  0  0  0  0  0  0  0
    1.2124    0.1317   -3.5928 H   0  0  0  0  0  0  0  0  0  0  0  0
    0.3014   -1.3682   -3.8125 H   0  0  0  0  0  0  0  0  0  0  0  0
   -0.5632    0.1784   -3.7004 H   0  0  0  0  0  0  0  0  0  0  0  0
   -0.4663    1.7844    1.2747 C   0  0  0  0  0  0  0  0  0  0  0  0
    0.4500    2.0909    2.0242 O   0  0  0  0  0  0  0  0  0  0  0  0
   -1.5603    2.6288    1.1796 N   0  0  0  0  0  0  0  0  0  0  0  0
   -2.2509    2.4199    0.4682 H   0  0  0  0  0  0  0  0  0  0  0  0
   -1.6476    3.8975    1.8935 C   0  0  0  0  0  0  0  0  0  0  0  0
   -0.8297    4.5623    1.5959 H   0  0  0  0  0  0  0  0  0  0  0  0
   -2.5966    4.3944    1.6701 H   0  0  0  0  0  0  0  0  0  0  0  0
   -1.5912    3.7324    2.9748 H   0  0  0  0  0  0  0  0  0  0  0  0
  1  2  1  0  0  0  0
  2  3  1  0  0  0  0
  2  4  1  0  0  0  0
  2  5  1  0  0  0  0
  5  6  2  0  0  0  0
  5  7  1  0  0  0  0
  7  8  1  0  0  0  0
  7  9  1  0  0  0  0
  9 10  1  0  0  0  0
  9 11  1  0  0  0  0
  9 24  1  0  0  0  0
 11 12  1  0  0  0  0
 11 13  1  0  0  0  0
 11 17  1  0  0  0  0
 13 14  1  0  0  0  0
 13 15  1  0  0  0  0
 13 16  1  0  0  0  0
 17 18  1  0  0  0  0
 17 19  1  0  0  0  0
 17 20  1  0  0  0  0
 20 21  1  0  0  0  0
 20 22  1  0  0  0  0
 20 23  1  0  0  0  0
 24 25  2  0  0  0  0
 24 26  1  0  0  0  0
 26 27  1  0  0  0  0
 26 28  1  0  0  0  0
 28 29  1  0  0  0  0
 28 30  1  0  0  0  0
 28 31  1  0  0  0  0
M  END
$$$$

  -OEChem-01062216083D

 31 30  0     1  0  0  0  0  0999 V2000
   -3.1063   -3.1768    1.3058 H   0  0  0  0  0  0  0  0  0  0  0  0
   -3.1733   -2.1599    0.9081 C   0  0  0  0  0  0  0  0  0  0  0  0
   -3.9451   -1.6174    1.4594 H   0  0  0  0  0  0  0  0  0  0  0  0
   -3.4552   -2.2138   -0.1462 H   0  0  0  0  0  0  0  0  0  0  0  0
   -1.8384   -1.4539    1.0549 C   0  0  0  0  0  0  0  0  0  0  0  0
   -0.9160   -2.0208    1.6138 O   0  0  0  0  0  0  0  0  0  0  0  0
   -1.6821   -0.1808    0.5396 N   0  0  0  0  0  0  0  0  0  0  0  0
   -2.4425    0.1593   -0.0397 H   0  0  0  0  0  0  0  0  0  0  0  0
   -0.3854    0.5294    0.4663 C   0  0  1  0  0  0  0  0  0  0  0  0
    0.4125   -0.0749    0.9133 H   0  0  0  0  0  0  0  0  0  0  0  0
   -0.0347    0.7626   -1.0339 C   0  0  1  0  0  0  0  0  0  0  0  0
   -0.8633    1.3057   -1.5008 H   0  0  0  0  0  0  0  0  0  0  0  0
    1.2441    1.6116   -1.1911 C   0  0  0  0  0  0  0  0  0  0  0  0
    2.0859    1.1349   -0.6785 H   0  0  0  0  0  0  0  0  0  0  0  0
    1.5074    1.7428   -2.2431 H   0  0  0  0  0  0  0  0  0  0  0  0
    1.1044    2.6128   -0.7736 H   0  0  0  0  0  0  0  0  0  0  0  0
    0.1481   -0.5936   -1.7648 C   0  0  0  0  0  0  0  0  0  0  0  0
    1.0498   -1.0930   -1.3939 H   0  0  0  0  0  0  0  0  0  0  0  0
   -0.6973   -1.2521   -1.5499 H   0  0  0  0  0  0  0  0  0  0  0  0
    0.2300   -0.4559   -3.2889 C   0  0  0  0  0  0  0  0  0  0  0  0
    1.1554    0.0399   -3.5936 H   0  0  0  0  0  0  0  0  0  0  0  0
    0.2130   -1.4475   -3.7513 H   0  0  0  0  0  0  0  0  0  0  0  0
   -0.6206    0.1178   -3.6693 H   0  0  0  0  0  0  0  0  0  0  0  0
   -0.4341    1.8465    1.2778 C   0  0  0  0  0  0  0  0  0  0  0  0
    0.5807    2.2966    1.7922 O   0  0  0  0  0  0  0  0  0  0  0  0
   -1.6191    2.5468    1.4271 N   0  0  0  0  0  0  0  0  0  0  0  0
   -2.4642    2.0869    1.1097 H   0  0  0  0  0  0  0  0  0  0  0  0
   -1.7364    3.7457    2.2486 C   0  0  0  0  0  0  0  0  0  0  0  0
   -1.0437    4.5190    1.8998 H   0  0  0  0  0  0  0  0  0  0  0  0
   -2.7533    4.1453    2.1927 H   0  0  0  0  0  0  0  0  0  0  0  0
   -1.5098    3.5161    3.2950 H   0  0  0  0  0  0  0  0  0  0  0  0
  1  2  1  0  0  0  0
  2  3  1  0  0  0  0
  2  4  1  0  0  0  0
  2  5  1  0  0  0  0
  5  6  2  0  0  0  0
  5  7  1  0  0  0  0
  7  8  1  0  0  0  0
  7  9  1  0  0  0  0
  9 10  1  0  0  0  0
  9 11  1  0  0  0  0
  9 24  1  0  0  0  0
 11 12  1  0  0  0  0
 11 13  1  0  0  0  0
 11 17  1  0  0  0  0
 13 14  1  0  0  0  0
 13 15  1  0  0  0  0
 13 16  1  0  0  0  0
 17 18  1  0  0  0  0
 17 19  1  0  0  0  0
 17 20  1  0  0  0  0
 20 21  1  0  0  0  0
 20 22  1  0  0  0  0
 20 23  1  0  0  0  0
 24 25  2  0  0  0  0
 24 26  1  0  0  0  0
 26 27  1  0  0  0  0
 26 28  1  0  0  0  0
 28 29  1  0  0  0  0
 28 30  1  0  0  0  0
 28 31  1  0  0  0  0
M  END
$$$$

  -OEChem-01062216083D

 31 30  0     1  0  0  0  0  0999 V2000
   -3.0885   -3.1726    1.2580 H   0  0  0  0  0  0  0  0  0  0  0  0
   -3.1565   -2.1557    0.8608 C   0  0  0  0  0  0  0  0  0  0  0  0
   -3.9510   -1.6238    1.3893 H   0  0  0  0  0  0  0  0  0  0  0  0
   -3.4062   -2.2106   -0.2015 H   0  0  0  0  0  0  0  0  0  0  0  0
   -1.8360   -1.4331    1.0487 C   0  0  0  0  0  0  0  0  0  0  0  0
   -0.9254   -1.9843    1.6416 O   0  0  0  0  0  0  0  0  0  0  0  0
   -1.6789   -0.1590    0.5368 N   0  0  0  0  0  0  0  0  0  0  0  0
   -2.4257    0.1722   -0.0663 H   0  0  0  0  0  0  0  0  0  0  0  0
   -0.3808    0.5509    0.4702 C   0  0  1  0  0  0  0  0  0  0  0  0
    0.4167   -0.0519    0.9197 H   0  0  0  0  0  0  0  0  0  0  0  0
   -0.0369    0.7672   -1.0370 C   0  0  1  0  0  0  0  0  0  0  0  0
   -0.8699    1.3025   -1.5051 H   0  0  0  0  0  0  0  0  0  0  0  0
    1.2380    1.6152   -1.2231 C   0  0  0  0  0  0  0  0  0  0  0  0
    2.0795    1.1643   -0.6875 H   0  0  0  0  0  0  0  0  0  0  0  0
    1.5069    1.7070   -2.2776 H   0  0  0  0  0  0  0  0  0  0  0  0
    1.0892    2.6318   -0.8492 H   0  0  0  0  0  0  0  0  0  0  0  0
    0.1425   -0.5990   -1.7526 C   0  0  0  0  0  0  0  0  0  0  0  0
    1.0464   -1.0923   -1.3794 H   0  0  0  0  0  0  0  0  0  0  0  0
   -0.7009   -1.2558   -1.5267 H   0  0  0  0  0  0  0  0  0  0  0  0
    0.2172   -0.4858   -3.2793 C   0  0  0  0  0  0  0  0  0  0  0  0
    1.1442   -0.0020   -3.5981 H   0  0  0  0  0  0  0  0  0  0  0  0
    0.1912   -1.4849   -3.7249 H   0  0  0  0  0  0  0  0  0  0  0  0
   -0.6319    0.0869   -3.6645 H   0  0  0  0  0  0  0  0  0  0  0  0
   -0.4361    1.8675    1.2871 C   0  0  0  0  0  0  0  0  0  0  0  0
    0.5900    2.4359    1.6353 O   0  0  0  0  0  0  0  0  0  0  0  0
   -1.6492    2.3981    1.6919 N   0  0  0  0  0  0  0  0  0  0  0  0
   -2.4606    1.8037    1.5645 H   0  0  0  0  0  0  0  0  0  0  0  0
   -1.7560    3.5469    2.5840 C   0  0  0  0  0  0  0  0  0  0  0  0
   -1.2415    4.4142    2.1568 H   0  0  0  0  0  0  0  0  0  0  0  0
   -2.8067    3.8121    2.7354 H   0  0  0  0  0  0  0  0  0  0  0  0
   -1.3102    3.3181    3.5578 H   0  0  0  0  0  0  0  0  0  0  0  0
  1  2  1  0  0  0  0
  2  3  1  0  0  0  0
  2  4  1  0  0  0  0
  2  5  1  0  0  0  0
  5  6  2  0  0  0  0
  5  7  1  0  0  0  0
  7  8  1  0  0  0  0
  7  9  1  0  0  0  0
  9 10  1  0  0  0  0
  9 11  1  0  0  0  0
  9 24  1  0  0  0  0
 11 12  1  0  0  0  0
 11 13  1  0  0  0  0
 11 17  1  0  0  0  0
 13 14  1  0  0  0  0
 13 15  1  0  0  0  0
 13 16  1  0  0  0  0
 17 18  1  0  0  0  0
 17 19  1  0  0  0  0
 17 20  1  0  0  0  0
 20 21  1  0  0  0  0
 20 22  1  0  0  0  0
 20 23  1  0  0  0  0
 24 25  2  0  0  0  0
 24 26  1  0  0  0  0
 26 27  1  0  0  0  0
 26 28  1  0  0  0  0
 28 29  1  0  0  0  0
 28 30  1  0  0  0  0
 28 31  1  0  0  0  0
M  END
$$$$

  -OEChem-01062216083D

 31 30  0     1  0  0  0  0  0999 V2000
   -3.0914   -3.1540    1.2376 H   0  0  0  0  0  0  0  0  0  0  0  0
   -3.1596   -2.1328    0.8516 C   0  0  0  0  0  0  0  0  0  0  0  0
   -3.9448   -1.6027    1.3960 H   0  0  0  0  0  0  0  0  0  0  0  0
   -3.4235   -2.1756   -0.2079 H   0  0  0  0  0  0  0  0  0  0  0  0
   -1.8326   -1.4193    1.0290 C   0  0  0  0  0  0  0  0  0  0  0  0
   -0.9214   -1.9745    1.6169 O   0  0  0  0  0  0  0  0  0  0  0  0
   -1.6724   -0.1414    0.5280 N   0  0  0  0  0  0  0  0  0  0  0  0
   -2.4287    0.2115   -0.0515 H   0  0  0  0  0  0  0  0  0  0  0  0
   -0.3744    0.5704    0.4653 C   0  0  1  0  0  0  0  0  0  0  0  0
    0.4229   -0.0300    0.9173 H   0  0  0  0  0  0  0  0  0  0  0  0
   -0.0319    0.7748   -1.0477 C   0  0  1  0  0  0  0  0  0  0  0  0
   -0.8675    1.3025   -1.5198 H   0  0  0  0  0  0  0  0  0  0  0  0
    1.2411    1.6215   -1.2562 C   0  0  0  0  0  0  0  0  0  0  0  0
    2.0750    1.2091   -0.6793 H   0  0  0  0  0  0  0  0  0  0  0  0
    1.5328    1.6582   -2.3075 H   0  0  0  0  0  0  0  0  0  0  0  0
    1.0753    2.6563   -0.9460 H   0  0  0  0  0  0  0  0  0  0  0  0
    0.1482   -0.6002   -1.7495 C   0  0  0  0  0  0  0  0  0  0  0  0
    1.0518   -1.0897   -1.3707 H   0  0  0  0  0  0  0  0  0  0  0  0
   -0.6949   -1.2546   -1.5167 H   0  0  0  0  0  0  0  0  0  0  0  0
    0.2213   -0.5078   -3.2783 C   0  0  0  0  0  0  0  0  0  0  0  0
    1.1549   -0.0432   -3.6062 H   0  0  0  0  0  0  0  0  0  0  0  0
    0.1788   -1.5119   -3.7115 H   0  0  0  0  0  0  0  0  0  0  0  0
   -0.6198    0.0729   -3.6691 H   0  0  0  0  0  0  0  0  0  0  0  0
   -0.4445    1.8799    1.2982 C   0  0  0  0  0  0  0  0  0  0  0  0
    0.5417    2.5804    1.4800 O   0  0  0  0  0  0  0  0  0  0  0  0
   -1.6113    2.2252    1.9597 N   0  0  0  0  0  0  0  0  0  0  0  0
   -2.3377    1.5169    1.9716 H   0  0  0  0  0  0  0  0  0  0  0  0
   -1.6943    3.3287    2.9096 C   0  0  0  0  0  0  0  0  0  0  0  0
   -1.4055    4.2699    2.4300 H   0  0  0  0  0  0  0  0  0  0  0  0
   -2.7183    3.4325    3.2806 H   0  0  0  0  0  0  0  0  0  0  0  0
   -1.0315    3.1506    3.7629 H   0  0  0  0  0  0  0  0  0  0  0  0
  1  2  1  0  0  0  0
  2  3  1  0  0  0  0
  2  4  1  0  0  0  0
  2  5  1  0  0  0  0
  5  6  2  0  0  0  0
  5  7  1  0  0  0  0
  7  8  1  0  0  0  0
  7  9  1  0  0  0  0
  9 10  1  0  0  0  0
  9 11  1  0  0  0  0
  9 24  1  0  0  0  0
 11 12  1  0  0  0  0
 11 13  1  0  0  0  0
 11 17  1  0  0  0  0
 13 14  1  0  0  0  0
 13 15  1  0  0  0  0
 13 16  1  0  0  0  0
 17 18  1  0  0  0  0
 17 19  1  0  0  0  0
 17 20  1  0  0  0  0
 20 21  1  0  0  0  0
 20 22  1  0  0  0  0
 20 23  1  0  0  0  0
 24 25  2  0  0  0  0
 24 26  1  0  0  0  0
 26 27  1  0  0  0  0
 26 28  1  0  0  0  0
 28 29  1  0  0  0  0
 28 30  1  0  0  0  0
 28 31  1  0  0  0  0
M  END
$$$$

  -OEChem-01062216083D

 31 30  0     1  0  0  0  0  0999 V2000
   -3.0991   -3.1290    1.2295 H   0  0  0  0  0  0  0  0  0  0  0  0
   -3.1594   -2.1082    0.8415 C   0  0  0  0  0  0  0  0  0  0  0  0
   -3.9393   -1.5707    1.3861 H   0  0  0  0  0  0  0  0  0  0  0  0
   -3.4263   -2.1514   -0.2173 H   0  0  0  0  0  0  0  0  0  0  0  0
   -1.8263   -1.4046    1.0131 C   0  0  0  0  0  0  0  0  0  0  0  0
   -0.9130   -1.9672    1.5909 O   0  0  0  0  0  0  0  0  0  0  0  0
   -1.6635   -0.1210    0.5290 N   0  0  0  0  0  0  0  0  0  0  0  0
   -2.4346    0.2594   -0.0128 H   0  0  0  0  0  0  0  0  0  0  0  0
   -0.3650    0.5896    0.4608 C   0  0  1  0  0  0  0  0  0  0  0  0
    0.4338   -0.0125    0.9075 H   0  0  0  0  0  0  0  0  0  0  0  0
   -0.0277    0.7867   -1.0570 C   0  0  1  0  0  0  0  0  0  0  0  0
   -0.8612    1.3157   -1.5313 H   0  0  0  0  0  0  0  0  0  0  0  0
    1.2550    1.6174   -1.2785 C   0  0  0  0  0  0  0  0  0  0  0  0
    2.0706    1.2379   -0.6547 H   0  0  0  0  0  0  0  0  0  0  0  0
    1.5804    1.5942   -2.3199 H   0  0  0  0  0  0  0  0  0  0  0  0
    1.0838    2.6693   -1.0371 H   0  0  0  0  0  0  0  0  0  0  0  0
    0.1467   -0.5958   -1.7484 C   0  0  0  0  0  0  0  0  0  0  0  0
    1.0496   -1.0849   -1.3674 H   0  0  0  0  0  0  0  0  0  0  0  0
   -0.6978   -1.2453   -1.5083 H   0  0  0  0  0  0  0  0  0  0  0  0
    0.2143   -0.5224   -3.2787 C   0  0  0  0  0  0  0  0  0  0  0  0
    1.1521   -0.0757   -3.6183 H   0  0  0  0  0  0  0  0  0  0  0  0
    0.1554   -1.5310   -3.6989 H   0  0  0  0  0  0  0  0  0  0  0  0
   -0.6212    0.0646   -3.6724 H   0  0  0  0  0  0  0  0  0  0  0  0
   -0.4485    1.8846    1.3202 C   0  0  0  0  0  0  0  0  0  0  0  0
    0.4186    2.7464    1.3095 O   0  0  0  0  0  0  0  0  0  0  0  0
   -1.4851    2.0408    2.2254 N   0  0  0  0  0  0  0  0  0  0  0  0
   -2.0808    1.2296    2.3585 H   0  0  0  0  0  0  0  0  0  0  0  0
   -1.5495    3.1261    3.1978 C   0  0  0  0  0  0  0  0  0  0  0  0
   -1.5381    4.0967    2.6907 H   0  0  0  0  0  0  0  0  0  0  0  0
   -2.4711    3.0556    3.7835 H   0  0  0  0  0  0  0  0  0  0  0  0
   -0.6972    3.0768    3.8836 H   0  0  0  0  0  0  0  0  0  0  0  0
  1  2  1  0  0  0  0
  2  3  1  0  0  0  0
  2  4  1  0  0  0  0
  2  5  1  0  0  0  0
  5  6  2  0  0  0  0
  5  7  1  0  0  0  0
  7  8  1  0  0  0  0
  7  9  1  0  0  0  0
  9 10  1  0  0  0  0
  9 11  1  0  0  0  0
  9 24  1  0  0  0  0
 11 12  1  0  0  0  0
 11 13  1  0  0  0  0
 11 17  1  0  0  0  0
 13 14  1  0  0  0  0
 13 15  1  0  0  0  0
 13 16  1  0  0  0  0
 17 18  1  0  0  0  0
 17 19  1  0  0  0  0
 17 20  1  0  0  0  0
 20 21  1  0  0  0  0
 20 22  1  0  0  0  0
 20 23  1  0  0  0  0
 24 25  2  0  0  0  0
 24 26  1  0  0  0  0
 26 27  1  0  0  0  0
 26 28  1  0  0  0  0
 28 29  1  0  0  0  0
 28 30  1  0  0  0  0
 28 31  1  0  0  0  0
M  END
$$$$

  -OEChem-01062216083D

 31 30  0     1  0  0  0  0  0999 V2000
   -3.1156   -3.0944    1.2636 H   0  0  0  0  0  0  0  0  0  0  0  0
   -3.1668   -2.0741    0.8726 C   0  0  0  0  0  0  0  0  0  0  0  0
   -3.9234   -1.5197    1.4329 H   0  0  0  0  0  0  0  0  0  0  0  0
   -3.4594   -2.1158   -0.1794 H   0  0  0  0  0  0  0  0  0  0  0  0
   -1.8174   -1.3946    1.0097 C   0  0  0  0  0  0  0  0  0  0  0  0
   -0.8989   -1.9709    1.5661 O   0  0  0  0  0  0  0  0  0  0  0  0
   -1.6475   -0.1068    0.5417 N   0  0  0  0  0  0  0  0  0  0  0  0
   -2.4379    0.3107    0.0576 H   0  0  0  0  0  0  0  0  0  0  0  0
   -0.3450    0.5916    0.4517 C   0  0  1  0  0  0  0  0  0  0  0  0
    0.4545   -0.0193    0.8843 H   0  0  0  0  0  0  0  0  0  0  0  0
   -0.0134    0.7984   -1.0659 C   0  0  1  0  0  0  0  0  0  0  0  0
   -0.8349    1.3498   -1.5357 H   0  0  0  0  0  0  0  0  0  0  0  0
    1.2977    1.5915   -1.2762 C   0  0  0  0  0  0  0  0  0  0  0  0
    2.0843    1.2143   -0.6152 H   0  0  0  0  0  0  0  0  0  0  0  0
    1.6558    1.5244   -2.3045 H   0  0  0  0  0  0  0  0  0  0  0  0
    1.1507    2.6552   -1.0784 H   0  0  0  0  0  0  0  0  0  0  0  0
    0.1411   -0.5832   -1.7645 C   0  0  0  0  0  0  0  0  0  0  0  0
    1.0388   -1.0872   -1.3908 H   0  0  0  0  0  0  0  0  0  0  0  0
   -0.7115   -1.2216   -1.5228 H   0  0  0  0  0  0  0  0  0  0  0  0
    0.2014   -0.5044   -3.2955 C   0  0  0  0  0  0  0  0  0  0  0  0
    1.1441   -0.0735   -3.6415 H   0  0  0  0  0  0  0  0  0  0  0  0
    0.1212   -1.5101   -3.7194 H   0  0  0  0  0  0  0  0  0  0  0  0
   -0.6259    0.0995   -3.6808 H   0  0  0  0  0  0  0  0  0  0  0  0
   -0.4316    1.8659    1.3426 C   0  0  0  0  0  0  0  0  0  0  0  0
    0.1568    2.9097    1.1028 O   0  0  0  0  0  0  0  0  0  0  0  0
   -1.2519    1.8476    2.4581 N   0  0  0  0  0  0  0  0  0  0  0  0
   -1.6442    0.9443    2.7080 H   0  0  0  0  0  0  0  0  0  0  0  0
   -1.3571    2.9506    3.4062 C   0  0  0  0  0  0  0  0  0  0  0  0
   -1.7004    3.8595    2.9009 H   0  0  0  0  0  0  0  0  0  0  0  0
   -2.0742    2.7038    4.1949 H   0  0  0  0  0  0  0  0  0  0  0  0
   -0.3855    3.1510    3.8701 H   0  0  0  0  0  0  0  0  0  0  0  0
  1  2  1  0  0  0  0
  2  3  1  0  0  0  0
  2  4  1  0  0  0  0
  2  5  1  0  0  0  0
  5  6  2  0  0  0  0
  5  7  1  0  0  0  0
  7  8  1  0  0  0  0
  7  9  1  0  0  0  0
  9 10  1  0  0  0  0
  9 11  1  0  0  0  0
  9 24  1  0  0  0  0
 11 12  1  0  0  0  0
 11 13  1  0  0  0  0
 11 17  1  0  0  0  0
 13 14  1  0  0  0  0
 13 15  1  0  0  0  0
 13 16  1  0  0  0  0
 17 18  1  0  0  0  0
 17 19  1  0  0  0  0
 17 20  1  0  0  0  0
 20 21  1  0  0  0  0
 20 22  1  0  0  0  0
 20 23  1  0  0  0  0
 24 25  2  0  0  0  0
 24 26  1  0  0  0  0
 26 27  1  0  0  0  0
 26 28  1  0  0  0  0
 28 29  1  0  0  0  0
 28 30  1  0  0  0  0
 28 31  1  0  0  0  0
M  END
$$$$

  -OEChem-01062216083D

 31 30  0     1  0  0  0  0  0999 V2000
   -3.1266   -3.0567    1.3387 H   0  0  0  0  0  0  0  0  0  0  0  0
   -3.1664   -2.0404    0.9364 C   0  0  0  0  0  0  0  0  0  0  0  0
   -3.9027   -1.4656    1.5032 H   0  0  0  0  0  0  0  0  0  0  0  0
   -3.4786   -2.0894   -0.1096 H   0  0  0  0  0  0  0  0  0  0  0  0
   -1.8029   -1.3836    1.0403 C   0  0  0  0  0  0  0  0  0  0  0  0
   -0.8801   -1.9720    1.5781 O   0  0  0  0  0  0  0  0  0  0  0  0
   -1.6208   -0.1003    0.5671 N   0  0  0  0  0  0  0  0  0  0  0  0
   -2.4212    0.3452    0.1262 H   0  0  0  0  0  0  0  0  0  0  0  0
   -0.3113    0.5747    0.4446 C   0  0  1  0  0  0  0  0  0  0  0  0
    0.4890   -0.0465    0.8606 H   0  0  0  0  0  0  0  0  0  0  0  0
    0.0116    0.8008   -1.0672 C   0  0  1  0  0  0  0  0  0  0  0  0
   -0.7926    1.3905   -1.5203 H   0  0  0  0  0  0  0  0  0  0  0  0
    1.3576    1.5405   -1.2619 C   0  0  0  0  0  0  0  0  0  0  0  0
    2.1652    1.0036   -0.7545 H   0  0  0  0  0  0  0  0  0  0  0  0
    1.6122    1.6271   -2.3202 H   0  0  0  0  0  0  0  0  0  0  0  0
    1.3267    2.5594   -0.8744 H   0  0  0  0  0  0  0  0  0  0  0  0
    0.1324   -0.5707   -1.7872 C   0  0  0  0  0  0  0  0  0  0  0  0
    1.0201   -1.1030   -1.4292 H   0  0  0  0  0  0  0  0  0  0  0  0
   -0.7342   -1.1920   -1.5489 H   0  0  0  0  0  0  0  0  0  0  0  0
    0.1823   -0.4587   -3.3151 C   0  0  0  0  0  0  0  0  0  0  0  0
    1.1259   -0.0234   -3.6539 H   0  0  0  0  0  0  0  0  0  0  0  0
    0.0940   -1.4538   -3.7611 H   0  0  0  0  0  0  0  0  0  0  0  0
   -0.6438    0.1586   -3.6811 H   0  0  0  0  0  0  0  0  0  0  0  0
   -0.3848    1.8406    1.3424 C   0  0  0  0  0  0  0  0  0  0  0  0
   -0.1996    2.9759    0.9269 O   0  0  0  0  0  0  0  0  0  0  0  0
   -0.9223    1.7131    2.6115 N   0  0  0  0  0  0  0  0  0  0  0  0
   -1.0937    0.7654    2.9386 H   0  0  0  0  0  0  0  0  0  0  0  0
   -1.1421    2.8315    3.5204 C   0  0  0  0  0  0  0  0  0  0  0  0
   -1.8359    3.5541    3.0781 H   0  0  0  0  0  0  0  0  0  0  0  0
   -1.5696    2.4747    4.4622 H   0  0  0  0  0  0  0  0  0  0  0  0
   -0.1966    3.3386    3.7390 H   0  0  0  0  0  0  0  0  0  0  0  0
  1  2  1  0  0  0  0
  2  3  1  0  0  0  0
  2  4  1  0  0  0  0
  2  5  1  0  0  0  0
  5  6  2  0  0  0  0
  5  7  1  0  0  0  0
  7  8  1  0  0  0  0
  7  9  1  0  0  0  0
  9 10  1  0  0  0  0
  9 11  1  0  0  0  0
  9 24  1  0  0  0  0
 11 12  1  0  0  0  0
 11 13  1  0  0  0  0
 11 17  1  0  0  0  0
 13 14  1  0  0  0  0
 13 15  1  0  0  0  0
 13 16  1  0  0  0  0
 17 18  1  0  0  0  0
 17 19  1  0  0  0  0
 17 20  1  0  0  0  0
 20 21  1  0  0  0  0
 20 22  1  0  0  0  0
 20 23  1  0  0  0  0
 24 25  2  0  0  0  0
 24 26  1  0  0  0  0
 26 27  1  0  0  0  0
 26 28  1  0  0  0  0
 28 29  1  0  0  0  0
 28 30  1  0  0  0  0
 28 31  1  0  0  0  0
M  END
$$$$

  -OEChem-01062216083D

 31 30  0     1  0  0  0  0  0999 V2000
   -3.1407   -3.0314    1.4088 H   0  0  0  0  0  0  0  0  0  0  0  0
   -3.1723   -2.0198    0.9943 C   0  0  0  0  0  0  0  0  0  0  0  0
   -3.8864   -1.4252    1.5692 H   0  0  0  0  0  0  0  0  0  0  0  0
   -3.5073   -2.0767   -0.0444 H   0  0  0  0  0  0  0  0  0  0  0  0
   -1.7966   -1.3845    1.0610 C   0  0  0  0  0  0  0  0  0  0  0  0
   -0.8709   -1.9828    1.5840 O   0  0  0  0  0  0  0  0  0  0  0  0
   -1.6045   -0.1096    0.5707 N   0  0  0  0  0  0  0  0  0  0  0  0
   -2.4085    0.3532    0.1548 H   0  0  0  0  0  0  0  0  0  0  0  0
   -0.2916    0.5507    0.4378 C   0  0  1  0  0  0  0  0  0  0  0  0
    0.5076   -0.0742    0.8502 H   0  0  0  0  0  0  0  0  0  0  0  0
    0.0289    0.7869   -1.0682 C   0  0  1  0  0  0  0  0  0  0  0  0
   -0.7729    1.3883   -1.5103 H   0  0  0  0  0  0  0  0  0  0  0  0
    1.3749    1.5273   -1.2460 C   0  0  0  0  0  0  0  0  0  0  0  0
    2.1972    0.9296   -0.8405 H   0  0  0  0  0  0  0  0  0  0  0  0
    1.5753    1.7226   -2.3023 H   0  0  0  0  0  0  0  0  0  0  0  0
    1.3788    2.4963   -0.7432 H   0  0  0  0  0  0  0  0  0  0  0  0
    0.1351   -0.5731   -1.8077 C   0  0  0  0  0  0  0  0  0  0  0  0
    1.0199   -1.1185   -1.4628 H   0  0  0  0  0  0  0  0  0  0  0  0
   -0.7362   -1.1907   -1.5749 H   0  0  0  0  0  0  0  0  0  0  0  0
    0.1824   -0.4290   -3.3322 C   0  0  0  0  0  0  0  0  0  0  0  0
    1.1186    0.0315   -3.6591 H   0  0  0  0  0  0  0  0  0  0  0  0
    0.1114   -1.4159   -3.7994 H   0  0  0  0  0  0  0  0  0  0  0  0
   -0.6542    0.1817   -3.6852 H   0  0  0  0  0  0  0  0  0  0  0  0
   -0.3548    1.8239    1.3165 C   0  0  0  0  0  0  0  0  0  0  0  0
   -0.4425    2.9502    0.8444 O   0  0  0  0  0  0  0  0  0  0  0  0
   -0.5898    1.6676    2.6704 N   0  0  0  0  0  0  0  0  0  0  0  0
   -0.6161    0.7136    3.0235 H   0  0  0  0  0  0  0  0  0  0  0  0
   -0.8456    2.7733    3.5847 C   0  0  0  0  0  0  0  0  0  0  0  0
   -1.7450    3.3201    3.2827 H   0  0  0  0  0  0  0  0  0  0  0  0
   -0.9945    2.3963    4.6012 H   0  0  0  0  0  0  0  0  0  0  0  0
    0.0024    3.4661    3.5941 H   0  0  0  0  0  0  0  0  0  0  0  0
  1  2  1  0  0  0  0
  2  3  1  0  0  0  0
  2  4  1  0  0  0  0
  2  5  1  0  0  0  0
  5  6  2  0  0  0  0
  5  7  1  0  0  0  0
  7  8  1  0  0  0  0
  7  9  1  0  0  0  0
  9 10  1  0  0  0  0
  9 11  1  0  0  0  0
  9 24  1  0  0  0  0
 11 12  1  0  0  0  0
 11 13  1  0  0  0  0
 11 17  1  0  0  0  0
 13 14  1  0  0  0  0
 13 15  1  0  0  0  0
 13 16  1  0  0  0  0
 17 18  1  0  0  0  0
 17 19  1  0  0  0  0
 17 20  1  0  0  0  0
 20 21  1  0  0  0  0
 20 22  1  0  0  0  0
 20 23  1  0  0  0  0
 24 25  2  0  0  0  0
 24 26  1  0  0  0  0
 26 27  1  0  0  0  0
 26 28  1  0  0  0  0
 28 29  1  0  0  0  0
 28 30  1  0  0  0  0
 28 31  1  0  0  0  0
M  END
$$$$

  -OEChem-01062216083D

 31 30  0     1  0  0  0  0  0999 V2000
   -3.1630   -3.0233    1.4556 H   0  0  0  0  0  0  0  0  0  0  0  0
   -3.1887   -2.0149    1.0330 C   0  0  0  0  0  0  0  0  0  0  0  0
   -3.8770   -1.4037    1.6219 H   0  0  0  0  0  0  0  0  0  0  0  0
   -3.5533   -2.0738    0.0047 H   0  0  0  0  0  0  0  0  0  0  0  0
   -1.8009   -1.4028    1.0554 C   0  0  0  0  0  0  0  0  0  0  0  0
   -0.8678   -2.0186    1.5449 O   0  0  0  0  0  0  0  0  0  0  0  0
   -1.6040   -0.1318    0.5575 N   0  0  0  0  0  0  0  0  0  0  0  0
   -2.4141    0.3523    0.1786 H   0  0  0  0  0  0  0  0  0  0  0  0
   -0.2921    0.5270    0.4294 C   0  0  1  0  0  0  0  0  0  0  0  0
    0.5060   -0.0994    0.8417 H   0  0  0  0  0  0  0  0  0  0  0  0
    0.0348    0.7730   -1.0718 C   0  0  1  0  0  0  0  0  0  0  0  0
   -0.7711    1.3700   -1.5128 H   0  0  0  0  0  0  0  0  0  0  0  0
    1.3668    1.5392   -1.2278 C   0  0  0  0  0  0  0  0  0  0  0  0
    2.1966    0.9534   -0.8205 H   0  0  0  0  0  0  0  0  0  0  0  0
    1.5738    1.7505   -2.2799 H   0  0  0  0  0  0  0  0  0  0  0  0
    1.3403    2.5016   -0.7109 H   0  0  0  0  0  0  0  0  0  0  0  0
    0.1454   -0.5775   -1.8248 C   0  0  0  0  0  0  0  0  0  0  0  0
    1.0308   -1.1234   -1.4822 H   0  0  0  0  0  0  0  0  0  0  0  0
   -0.7255   -1.1989   -1.6007 H   0  0  0  0  0  0  0  0  0  0  0  0
    0.1996   -0.4147   -3.3470 C   0  0  0  0  0  0  0  0  0  0  0  0
    1.1298    0.0659   -3.6615 H   0  0  0  0  0  0  0  0  0  0  0  0
    0.1489   -1.3971   -3.8264 H   0  0  0  0  0  0  0  0  0  0  0  0
   -0.6450    0.1858   -3.6988 H   0  0  0  0  0  0  0  0  0  0  0  0
   -0.3501    1.8065    1.2930 C   0  0  0  0  0  0  0  0  0  0  0  0
   -0.6509    2.8956    0.8196 O   0  0  0  0  0  0  0  0  0  0  0  0
   -0.2743    1.6776    2.6673 N   0  0  0  0  0  0  0  0  0  0  0  0
   -0.1653    0.7355    3.0358 H   0  0  0  0  0  0  0  0  0  0  0  0
   -0.4895    2.7813    3.5942 C   0  0  0  0  0  0  0  0  0  0  0  0
   -1.5032    3.1809    3.4863 H   0  0  0  0  0  0  0  0  0  0  0  0
   -0.3597    2.4392    4.6254 H   0  0  0  0  0  0  0  0  0  0  0  0
    0.2289    3.5857    3.4044 H   0  0  0  0  0  0  0  0  0  0  0  0
  1  2  1  0  0  0  0
  2  3  1  0  0  0  0
  2  4  1  0  0  0  0
  2  5  1  0  0  0  0
  5  6  2  0  0  0  0
  5  7  1  0  0  0  0
  7  8  1  0  0  0  0
  7  9  1  0  0  0  0
  9 10  1  0  0  0  0
  9 11  1  0  0  0  0
  9 24  1  0  0  0  0
 11 12  1  0  0  0  0
 11 13  1  0  0  0  0
 11 17  1  0  0  0  0
 13 14  1  0  0  0  0
 13 15  1  0  0  0  0
 13 16  1  0  0  0  0
 17 18  1  0  0  0  0
 17 19  1  0  0  0  0
 17 20  1  0  0  0  0
 20 21  1  0  0  0  0
 20 22  1  0  0  0  0
 20 23  1  0  0  0  0
 24 25  2  0  0  0  0
 24 26  1  0  0  0  0
 26 27  1  0  0  0  0
 26 28  1  0  0  0  0
 28 29  1  0  0  0  0
 28 30  1  0  0  0  0
 28 31  1  0  0  0  0
M  END
$$$$

  -OEChem-01062216083D

 31 30  0     1  0  0  0  0  0999 V2000
   -3.1839   -3.0240    1.4864 H   0  0  0  0  0  0  0  0  0  0  0  0
   -3.2067   -2.0157    1.0636 C   0  0  0  0  0  0  0  0  0  0  0  0
   -3.8640   -1.3922    1.6746 H   0  0  0  0  0  0  0  0  0  0  0  0
   -3.6065   -2.0691    0.0481 H   0  0  0  0  0  0  0  0  0  0  0  0
   -1.8088   -1.4271    1.0391 C   0  0  0  0  0  0  0  0  0  0  0  0
   -0.8686   -2.0652    1.4853 O   0  0  0  0  0  0  0  0  0  0  0  0
   -1.6089   -0.1572    0.5390 N   0  0  0  0  0  0  0  0  0  0  0  0
   -2.4265    0.3552    0.2168 H   0  0  0  0  0  0  0  0  0  0  0  0
   -0.2985    0.5043    0.4216 C   0  0  1  0  0  0  0  0  0  0  0  0
    0.4964   -0.1252    0.8344 H   0  0  0  0  0  0  0  0  0  0  0  0
    0.0365    0.7614   -1.0746 C   0  0  1  0  0  0  0  0  0  0  0  0
   -0.7726    1.3537   -1.5161 H   0  0  0  0  0  0  0  0  0  0  0  0
    1.3565    1.5497   -1.2101 C   0  0  0  0  0  0  0  0  0  0  0  0
    2.1895    0.9804   -0.7858 H   0  0  0  0  0  0  0  0  0  0  0  0
    1.5789    1.7624   -2.2588 H   0  0  0  0  0  0  0  0  0  0  0  0
    1.2980    2.5127   -0.6953 H   0  0  0  0  0  0  0  0  0  0  0  0
    0.1562   -0.5809   -1.8396 C   0  0  0  0  0  0  0  0  0  0  0  0
    1.0423   -1.1257   -1.4976 H   0  0  0  0  0  0  0  0  0  0  0  0
   -0.7132   -1.2087   -1.6258 H   0  0  0  0  0  0  0  0  0  0  0  0
    0.2189   -0.4020   -3.3598 C   0  0  0  0  0  0  0  0  0  0  0  0
    1.1456    0.0923   -3.6633 H   0  0  0  0  0  0  0  0  0  0  0  0
    0.1820   -1.3799   -3.8496 H   0  0  0  0  0  0  0  0  0  0  0  0
   -0.6301    0.1928   -3.7108 H   0  0  0  0  0  0  0  0  0  0  0  0
   -0.3513    1.7897    1.2743 C   0  0  0  0  0  0  0  0  0  0  0  0
   -0.8520    2.8197    0.8388 O   0  0  0  0  0  0  0  0  0  0  0  0
    0.0246    1.7336    2.6033 N   0  0  0  0  0  0  0  0  0  0  0  0
    0.2997    0.8247    2.9674 H   0  0  0  0  0  0  0  0  0  0  0  0
   -0.1361    2.8470    3.5298 C   0  0  0  0  0  0  0  0  0  0  0  0
   -1.1938    3.1116    3.6310 H   0  0  0  0  0  0  0  0  0  0  0  0
    0.2495    2.5754    4.5171 H   0  0  0  0  0  0  0  0  0  0  0  0
    0.4146    3.7238    3.1735 H   0  0  0  0  0  0  0  0  0  0  0  0
  1  2  1  0  0  0  0
  2  3  1  0  0  0  0
  2  4  1  0  0  0  0
  2  5  1  0  0  0  0
  5  6  2  0  0  0  0
  5  7  1  0  0  0  0
  7  8  1  0  0  0  0
  7  9  1  0  0  0  0
  9 10  1  0  0  0  0
  9 11  1  0  0  0  0
  9 24  1  0  0  0  0
 11 12  1  0  0  0  0
 11 13  1  0  0  0  0
 11 17  1  0  0  0  0
 13 14  1  0  0  0  0
 13 15  1  0  0  0  0
 13 16  1  0  0  0  0
 17 18  1  0  0  0  0
 17 19  1  0  0  0  0
 17 20  1  0  0  0  0
 20 21  1  0  0  0  0
 20 22  1  0  0  0  0
 20 23  1  0  0  0  0
 24 25  2  0  0  0  0
 24 26  1  0  0  0  0
 26 27  1  0  0  0  0
 26 28  1  0  0  0  0
 28 29  1  0  0  0  0
 28 30  1  0  0  0  0
 28 31  1  0  0  0  0
M  END
$$$$

  -OEChem-01062216083D

 31 30  0     1  0  0  0  0  0999 V2000
   -3.2024   -3.0240    1.5193 H   0  0  0  0  0  0  0  0  0  0  0  0
   -3.2233   -2.0147    1.0985 C   0  0  0  0  0  0  0  0  0  0  0  0
   -3.8440   -1.3800    1.7356 H   0  0  0  0  0  0  0  0  0  0  0  0
   -3.6642   -2.0588    0.0998 H   0  0  0  0  0  0  0  0  0  0  0  0
   -1.8167   -1.4523    1.0186 C   0  0  0  0  0  0  0  0  0  0  0  0
   -0.8706   -2.1157    1.4128 O   0  0  0  0  0  0  0  0  0  0  0  0
   -1.6143   -0.1830    0.5178 N   0  0  0  0  0  0  0  0  0  0  0  0
   -2.4377    0.3614    0.2703 H   0  0  0  0  0  0  0  0  0  0  0  0
   -0.3052    0.4827    0.4136 C   0  0  1  0  0  0  0  0  0  0  0  0
    0.4865   -0.1486    0.8299 H   0  0  0  0  0  0  0  0  0  0  0  0
    0.0386    0.7523   -1.0772 C   0  0  1  0  0  0  0  0  0  0  0  0
   -0.7725    1.3426   -1.5178 H   0  0  0  0  0  0  0  0  0  0  0  0
    1.3502    1.5555   -1.1980 C   0  0  0  0  0  0  0  0  0  0  0  0
    2.1860    0.9929   -0.7703 H   0  0  0  0  0  0  0  0  0  0  0  0
    1.5782    1.7760   -2.2439 H   0  0  0  0  0  0  0  0  0  0  0  0
    1.2751    2.5153   -0.6787 H   0  0  0  0  0  0  0  0  0  0  0  0
    0.1681   -0.5820   -1.8537 C   0  0  0  0  0  0  0  0  0  0  0  0
    1.0536   -1.1273   -1.5107 H   0  0  0  0  0  0  0  0  0  0  0  0
   -0.7008   -1.2141   -1.6508 H   0  0  0  0  0  0  0  0  0  0  0  0
    0.2405   -0.3883   -3.3716 C   0  0  0  0  0  0  0  0  0  0  0  0
    1.1700    0.1074   -3.6641 H   0  0  0  0  0  0  0  0  0  0  0  0
    0.2048   -1.3610   -3.8712 H   0  0  0  0  0  0  0  0  0  0  0  0
   -0.6052    0.2114   -3.7217 H   0  0  0  0  0  0  0  0  0  0  0  0
   -0.3592    1.7728    1.2579 C   0  0  0  0  0  0  0  0  0  0  0  0
   -1.0502    2.7203    0.9020 O   0  0  0  0  0  0  0  0  0  0  0  0
    0.2837    1.8249    2.4804 N   0  0  0  0  0  0  0  0  0  0  0  0
    0.7444    0.9768    2.7998 H   0  0  0  0  0  0  0  0  0  0  0  0
    0.1789    2.9577    3.3918 C   0  0  0  0  0  0  0  0  0  0  0  0
   -0.8628    3.1134    3.6916 H   0  0  0  0  0  0  0  0  0  0  0  0
    0.7747    2.7753    4.2912 H   0  0  0  0  0  0  0  0  0  0  0  0
    0.5482    3.8705    2.9125 H   0  0  0  0  0  0  0  0  0  0  0  0
  1  2  1  0  0  0  0
  2  3  1  0  0  0  0
  2  4  1  0  0  0  0
  2  5  1  0  0  0  0
  5  6  2  0  0  0  0
  5  7  1  0  0  0  0
  7  8  1  0  0  0  0
  7  9  1  0  0  0  0
  9 10  1  0  0  0  0
  9 11  1  0  0  0  0
  9 24  1  0  0  0  0
 11 12  1  0  0  0  0
 11 13  1  0  0  0  0
 11 17  1  0  0  0  0
 13 14  1  0  0  0  0
 13 15  1  0  0  0  0
 13 16  1  0  0  0  0
 17 18  1  0  0  0  0
 17 19  1  0  0  0  0
 17 20  1  0  0  0  0
 20 21  1  0  0  0  0
 20 22  1  0  0  0  0
 20 23  1  0  0  0  0
 24 25  2  0  0  0  0
 24 26  1  0  0  0  0
 26 27  1  0  0  0  0
 26 28  1  0  0  0  0
 28 29  1  0  0  0  0
 28 30  1  0  0  0  0
 28 31  1  0  0  0  0
M  END
$$$$

  -OEChem-01062216083D

 31 30  0     1  0  0  0  0  0999 V2000
   -3.2183   -3.0072    1.5735 H   0  0  0  0  0  0  0  0  0  0  0  0
   -3.2371   -1.9994    1.1493 C   0  0  0  0  0  0  0  0  0  0  0  0
   -3.8065   -1.3473    1.8161 H   0  0  0  0  0  0  0  0  0  0  0  0
   -3.7322   -2.0362    0.1759 H   0  0  0  0  0  0  0  0  0  0  0  0
   -1.8235   -1.4718    0.9913 C   0  0  0  0  0  0  0  0  0  0  0  0
   -0.8735   -2.1634    1.3232 O   0  0  0  0  0  0  0  0  0  0  0  0
   -1.6196   -0.2028    0.4903 N   0  0  0  0  0  0  0  0  0  0  0  0
   -2.4436    0.3745    0.3343 H   0  0  0  0  0  0  0  0  0  0  0  0
   -0.3104    0.4647    0.3998 C   0  0  1  0  0  0  0  0  0  0  0  0
    0.4757   -0.1684    0.8233 H   0  0  0  0  0  0  0  0  0  0  0  0
    0.0450    0.7459   -1.0854 C   0  0  1  0  0  0  0  0  0  0  0  0
   -0.7651    1.3371   -1.5267 H   0  0  0  0  0  0  0  0  0  0  0  0
    1.3540    1.5549   -1.1924 C   0  0  0  0  0  0  0  0  0  0  0  0
    2.1887    0.9946   -0.7595 H   0  0  0  0  0  0  0  0  0  0  0  0
    1.5902    1.7795   -2.2356 H   0  0  0  0  0  0  0  0  0  0  0  0
    1.2697    2.5128   -0.6711 H   0  0  0  0  0  0  0  0  0  0  0  0
    0.1819   -0.5820   -1.8709 C   0  0  0  0  0  0  0  0  0  0  0  0
    1.0655   -1.1286   -1.5255 H   0  0  0  0  0  0  0  0  0  0  0  0
   -0.6877   -1.2168   -1.6794 H   0  0  0  0  0  0  0  0  0  0  0  0
    0.2662   -0.3764   -3.3868 C   0  0  0  0  0  0  0  0  0  0  0  0
    1.1991    0.1194   -3.6685 H   0  0  0  0  0  0  0  0  0  0  0  0
    0.2321   -1.3453   -3.8945 H   0  0  0  0  0  0  0  0  0  0  0  0
   -0.5757    0.2280   -3.7386 H   0  0  0  0  0  0  0  0  0  0  0  0
   -0.3714    1.7572    1.2396 C   0  0  0  0  0  0  0  0  0  0  0  0
   -1.2328    2.5984    1.0096 O   0  0  0  0  0  0  0  0  0  0  0  0
    0.4908    1.9427    2.3042 N   0  0  0  0  0  0  0  0  0  0  0  0
    1.1277    1.1832    2.5285 H   0  0  0  0  0  0  0  0  0  0  0  0
    0.4238    3.0946    3.1947 C   0  0  0  0  0  0  0  0  0  0  0  0
   -0.5461    3.1310    3.7017 H   0  0  0  0  0  0  0  0  0  0  0  0
    1.2094    3.0322    3.9538 H   0  0  0  0  0  0  0  0  0  0  0  0
    0.5621    4.0232    2.6308 H   0  0  0  0  0  0  0  0  0  0  0  0
  1  2  1  0  0  0  0
  2  3  1  0  0  0  0
  2  4  1  0  0  0  0
  2  5  1  0  0  0  0
  5  6  2  0  0  0  0
  5  7  1  0  0  0  0
  7  8  1  0  0  0  0
  7  9  1  0  0  0  0
  9 10  1  0  0  0  0
  9 11  1  0  0  0  0
  9 24  1  0  0  0  0
 11 12  1  0  0  0  0
 11 13  1  0  0  0  0
 11 17  1  0  0  0  0
 13 14  1  0  0  0  0
 13 15  1  0  0  0  0
 13 16  1  0  0  0  0
 17 18  1  0  0  0  0
 17 19  1  0  0  0  0
 17 20  1  0  0  0  0
 20 21  1  0  0  0  0
 20 22  1  0  0  0  0
 20 23  1  0  0  0  0
 24 25  2  0  0  0  0
 24 26  1  0  0  0  0
 26 27  1  0  0  0  0
 26 28  1  0  0  0  0
 28 29  1  0  0  0  0
 28 30  1  0  0  0  0
 28 31  1  0  0  0  0
M  END
$$$$

  -OEChem-01062216083D

 31 30  0     1  0  0  0  0  0999 V2000
   -3.2221   -3.0071    1.5851 H   0  0  0  0  0  0  0  0  0  0  0  0
   -3.2427   -1.9982    1.1635 C   0  0  0  0  0  0  0  0  0  0  0  0
   -3.7869   -1.3421    1.8470 H   0  0  0  0  0  0  0  0  0  0  0  0
   -3.7651   -2.0278    0.2044 H   0  0  0  0  0  0  0  0  0  0  0  0
   -1.8291   -1.4842    0.9666 C   0  0  0  0  0  0  0  0  0  0  0  0
   -0.8769   -2.1937    1.2515 O   0  0  0  0  0  0  0  0  0  0  0  0
   -1.6283   -0.2128    0.4705 N   0  0  0  0  0  0  0  0  0  0  0  0
   -2.4496    0.3844    0.3896 H   0  0  0  0  0  0  0  0  0  0  0  0
   -0.3198    0.4586    0.3961 C   0  0  1  0  0  0  0  0  0  0  0  0
    0.4624   -0.1743    0.8272 H   0  0  0  0  0  0  0  0  0  0  0  0
    0.0428    0.7431   -1.0872 C   0  0  1  0  0  0  0  0  0  0  0  0
   -0.7690    1.3297   -1.5316 H   0  0  0  0  0  0  0  0  0  0  0  0
    1.3466    1.5607   -1.1906 C   0  0  0  0  0  0  0  0  0  0  0  0
    2.1791    1.0148   -0.7358 H   0  0  0  0  0  0  0  0  0  0  0  0
    1.5970    1.7695   -2.2336 H   0  0  0  0  0  0  0  0  0  0  0  0
    1.2457    2.5270   -0.6883 H   0  0  0  0  0  0  0  0  0  0  0  0
    0.1880   -0.5841   -1.8737 C   0  0  0  0  0  0  0  0  0  0  0  0
    1.0712   -1.1285   -1.5233 H   0  0  0  0  0  0  0  0  0  0  0  0
   -0.6806   -1.2218   -1.6878 H   0  0  0  0  0  0  0  0  0  0  0  0
    0.2799   -0.3789   -3.3892 C   0  0  0  0  0  0  0  0  0  0  0  0
    1.2123    0.1196   -3.6669 H   0  0  0  0  0  0  0  0  0  0  0  0
    0.2521   -1.3483   -3.8963 H   0  0  0  0  0  0  0  0  0  0  0  0
   -0.5623    0.2219   -3.7461 H   0  0  0  0  0  0  0  0  0  0  0  0
   -0.3860    1.7514    1.2371 C   0  0  0  0  0  0  0  0  0  0  0  0
   -1.3709    2.4786    1.1669 O   0  0  0  0  0  0  0  0  0  0  0  0
    0.6421    2.0839    2.1003 N   0  0  0  0  0  0  0  0  0  0  0  0
    1.4189    1.4339    2.1791 H   0  0  0  0  0  0  0  0  0  0  0  0
    0.6214    3.2676    2.9505 C   0  0  0  0  0  0  0  0  0  0  0  0
   -0.2391    3.2384    3.6273 H   0  0  0  0  0  0  0  0  0  0  0  0
    1.5335    3.3168    3.5529 H   0  0  0  0  0  0  0  0  0  0  0  0
    0.5602    4.1755    2.3412 H   0  0  0  0  0  0  0  0  0  0  0  0
  1  2  1  0  0  0  0
  2  3  1  0  0  0  0
  2  4  1  0  0  0  0
  2  5  1  0  0  0  0
  5  6  2  0  0  0  0
  5  7  1  0  0  0  0
  7  8  1  0  0  0  0
  7  9  1  0  0  0  0
  9 10  1  0  0  0  0
  9 11  1  0  0  0  0
  9 24  1  0  0  0  0
 11 12  1  0  0  0  0
 11 13  1  0  0  0  0
 11 17  1  0  0  0  0
 13 14  1  0  0  0  0
 13 15  1  0  0  0  0
 13 16  1  0  0  0  0
 17 18  1  0  0  0  0
 17 19  1  0  0  0  0
 17 20  1  0  0  0  0
 20 21  1  0  0  0  0
 20 22  1  0  0  0  0
 20 23  1  0  0  0  0
 24 25  2  0  0  0  0
 24 26  1  0  0  0  0
 26 27  1  0  0  0  0
 26 28  1  0  0  0  0
 28 29  1  0  0  0  0
 28 30  1  0  0  0  0
 28 31  1  0  0  0  0
M  END
$$$$

  -OEChem-01062216083D

 31 30  0     1  0  0  0  0  0999 V2000
   -3.2194   -2.9932    1.6011 H   0  0  0  0  0  0  0  0  0  0  0  0
   -3.2409   -1.9846    1.1787 C   0  0  0  0  0  0  0  0  0  0  0  0
   -3.7550   -1.3206    1.8781 H   0  0  0  0  0  0  0  0  0  0  0  0
   -3.7936   -2.0087    0.2364 H   0  0  0  0  0  0  0  0  0  0  0  0
   -1.8282   -1.4877    0.9363 C   0  0  0  0  0  0  0  0  0  0  0  0
   -0.8765   -2.2138    1.1784 O   0  0  0  0  0  0  0  0  0  0  0  0
   -1.6292   -0.2133    0.4474 N   0  0  0  0  0  0  0  0  0  0  0  0
   -2.4436    0.3993    0.4398 H   0  0  0  0  0  0  0  0  0  0  0  0
   -0.3186    0.4578    0.3926 C   0  0  1  0  0  0  0  0  0  0  0  0
    0.4597   -0.1753    0.8309 H   0  0  0  0  0  0  0  0  0  0  0  0
    0.0464    0.7393   -1.0936 C   0  0  1  0  0  0  0  0  0  0  0  0
   -0.7687    1.3206   -1.5392 H   0  0  0  0  0  0  0  0  0  0  0  0
    1.3454    1.5624   -1.2116 C   0  0  0  0  0  0  0  0  0  0  0  0
    2.1778    1.0386   -0.7310 H   0  0  0  0  0  0  0  0  0  0  0  0
    1.6058    1.7402   -2.2577 H   0  0  0  0  0  0  0  0  0  0  0  0
    1.2301    2.5446   -0.7453 H   0  0  0  0  0  0  0  0  0  0  0  0
    0.1932   -0.5904   -1.8775 C   0  0  0  0  0  0  0  0  0  0  0  0
    1.0757   -1.1336   -1.5239 H   0  0  0  0  0  0  0  0  0  0  0  0
   -0.6756   -1.2279   -1.6925 H   0  0  0  0  0  0  0  0  0  0  0  0
    0.2872   -0.3920   -3.3942 C   0  0  0  0  0  0  0  0  0  0  0  0
    1.2271    0.0905   -3.6749 H   0  0  0  0  0  0  0  0  0  0  0  0
    0.2443   -1.3626   -3.8978 H   0  0  0  0  0  0  0  0  0  0  0  0
   -0.5460    0.2204   -3.7527 H   0  0  0  0  0  0  0  0  0  0  0  0
   -0.3941    1.7488    1.2405 C   0  0  0  0  0  0  0  0  0  0  0  0
   -1.4569    2.3524    1.3488 O   0  0  0  0  0  0  0  0  0  0  0  0
    0.7277    2.2439    1.8810 N   0  0  0  0  0  0  0  0  0  0  0  0
    1.5895    1.7124    1.7983 H   0  0  0  0  0  0  0  0  0  0  0  0
    0.7184    3.4535    2.6942 C   0  0  0  0  0  0  0  0  0  0  0  0
    0.0102    3.3528    3.5234 H   0  0  0  0  0  0  0  0  0  0  0  0
    1.7136    3.6367    3.1106 H   0  0  0  0  0  0  0  0  0  0  0  0
    0.4319    4.3197    2.0885 H   0  0  0  0  0  0  0  0  0  0  0  0
  1  2  1  0  0  0  0
  2  3  1  0  0  0  0
  2  4  1  0  0  0  0
  2  5  1  0  0  0  0
  5  6  2  0  0  0  0
  5  7  1  0  0  0  0
  7  8  1  0  0  0  0
  7  9  1  0  0  0  0
  9 10  1  0  0  0  0
  9 11  1  0  0  0  0
  9 24  1  0  0  0  0
 11 12  1  0  0  0  0
 11 13  1  0  0  0  0
 11 17  1  0  0  0  0
 13 14  1  0  0  0  0
 13 15  1  0  0  0  0
 13 16  1  0  0  0  0
 17 18  1  0  0  0  0
 17 19  1  0  0  0  0
 17 20  1  0  0  0  0
 20 21  1  0  0  0  0
 20 22  1  0  0  0  0
 20 23  1  0  0  0  0
 24 25  2  0  0  0  0
 24 26  1  0  0  0  0
 26 27  1  0  0  0  0
 26 28  1  0  0  0  0
 28 29  1  0  0  0  0
 28 30  1  0  0  0  0
 28 31  1  0  0  0  0
M  END
$$$$

  -OEChem-01062216083D

 31 30  0     1  0  0  0  0  0999 V2000
   -3.2058   -2.9714    1.6042 H   0  0  0  0  0  0  0  0  0  0  0  0
   -3.2308   -1.9604    1.1882 C   0  0  0  0  0  0  0  0  0  0  0  0
   -3.7082   -1.2941    1.9108 H   0  0  0  0  0  0  0  0  0  0  0  0
   -3.8202   -1.9713    0.2682 H   0  0  0  0  0  0  0  0  0  0  0  0
   -1.8225   -1.4800    0.8939 C   0  0  0  0  0  0  0  0  0  0  0  0
   -0.8729   -2.2247    1.0820 O   0  0  0  0  0  0  0  0  0  0  0  0
   -1.6266   -0.1994    0.4197 N   0  0  0  0  0  0  0  0  0  0  0  0
   -2.4317    0.4224    0.4861 H   0  0  0  0  0  0  0  0  0  0  0  0
   -0.3126    0.4687    0.3846 C   0  0  1  0  0  0  0  0  0  0  0  0
    0.4616   -0.1666    0.8269 H   0  0  0  0  0  0  0  0  0  0  0  0
    0.0514    0.7381   -1.1088 C   0  0  1  0  0  0  0  0  0  0  0  0
   -0.7671    1.3112   -1.5583 H   0  0  0  0  0  0  0  0  0  0  0  0
    1.3463    1.5622   -1.2550 C   0  0  0  0  0  0  0  0  0  0  0  0
    2.1717    1.0792   -0.7229 H   0  0  0  0  0  0  0  0  0  0  0  0
    1.6304    1.6735   -2.3037 H   0  0  0  0  0  0  0  0  0  0  0  0
    1.2098    2.5731   -0.8626 H   0  0  0  0  0  0  0  0  0  0  0  0
    0.1946   -0.6017   -1.8801 C   0  0  0  0  0  0  0  0  0  0  0  0
    1.0755   -1.1430   -1.5194 H   0  0  0  0  0  0  0  0  0  0  0  0
   -0.6749   -1.2359   -1.6887 H   0  0  0  0  0  0  0  0  0  0  0  0
    0.2870   -0.4286   -3.4002 C   0  0  0  0  0  0  0  0  0  0  0  0
    1.2338    0.0324   -3.6928 H   0  0  0  0  0  0  0  0  0  0  0  0
    0.2266   -1.4067   -3.8870 H   0  0  0  0  0  0  0  0  0  0  0  0
   -0.5375    0.1907   -3.7662 H   0  0  0  0  0  0  0  0  0  0  0  0
   -0.3953    1.7527    1.2504 C   0  0  0  0  0  0  0  0  0  0  0  0
   -1.4888    2.2201    1.5551 O   0  0  0  0  0  0  0  0  0  0  0  0
    0.7438    2.4213    1.6628 N   0  0  0  0  0  0  0  0  0  0  0  0
    1.6412    2.0222    1.4039 H   0  0  0  0  0  0  0  0  0  0  0  0
    0.7172    3.6450    2.4550 C   0  0  0  0  0  0  0  0  0  0  0  0
    0.2006    3.4757    3.4056 H   0  0  0  0  0  0  0  0  0  0  0  0
    1.7371    3.9777    2.6710 H   0  0  0  0  0  0  0  0  0  0  0  0
    0.2012    4.4427    1.9103 H   0  0  0  0  0  0  0  0  0  0  0  0
  1  2  1  0  0  0  0
  2  3  1  0  0  0  0
  2  4  1  0  0  0  0
  2  5  1  0  0  0  0
  5  6  2  0  0  0  0
  5  7  1  0  0  0  0
  7  8  1  0  0  0  0
  7  9  1  0  0  0  0
  9 10  1  0  0  0  0
  9 11  1  0  0  0  0
  9 24  1  0  0  0  0
 11 12  1  0  0  0  0
 11 13  1  0  0  0  0
 11 17  1  0  0  0  0
 13 14  1  0  0  0  0
 13 15  1  0  0  0  0
 13 16  1  0  0  0  0
 17 18  1  0  0  0  0
 17 19  1  0  0  0  0
 17 20  1  0  0  0  0
 20 21  1  0  0  0  0
 20 22  1  0  0  0  0
 20 23  1  0  0  0  0
 24 25  2  0  0  0  0
 24 26  1  0  0  0  0
 26 27  1  0  0  0  0
 26 28  1  0  0  0  0
 28 29  1  0  0  0  0
 28 30  1  0  0  0  0
 28 31  1  0  0  0  0
M  END
$$$$

  -OEChem-01062216083D

 31 30  0     1  0  0  0  0  0999 V2000
   -3.1423   -2.9575    1.6050 H   0  0  0  0  0  0  0  0  0  0  0  0
   -3.1893   -1.9306    1.2318 C   0  0  0  0  0  0  0  0  0  0  0  0
   -3.5910   -1.2880    2.0193 H   0  0  0  0  0  0  0  0  0  0  0  0
   -3.8578   -1.8993    0.3681 H   0  0  0  0  0  0  0  0  0  0  0  0
   -1.8053   -1.4545    0.8333 C   0  0  0  0  0  0  0  0  0  0  0  0
   -0.8543   -2.2168    0.9149 O   0  0  0  0  0  0  0  0  0  0  0  0
   -1.6358   -0.1636    0.3756 N   0  0  0  0  0  0  0  0  0  0  0  0
   -2.4268    0.4510    0.5576 H   0  0  0  0  0  0  0  0  0  0  0  0
   -0.3178    0.5010    0.3510 C   0  0  1  0  0  0  0  0  0  0  0  0
    0.4915   -0.2142    0.5314 H   0  0  0  0  0  0  0  0  0  0  0  0
   -0.1371    1.0880   -1.0867 C   0  0  1  0  0  0  0  0  0  0  0  0
   -0.9943    1.7353   -1.3022 H   0  0  0  0  0  0  0  0  0  0  0  0
    1.1453    1.9325   -1.2338 C   0  0  0  0  0  0  0  0  0  0  0  0
    2.0144    1.3815   -0.8609 H   0  0  0  0  0  0  0  0  0  0  0  0
    1.3318    2.2015   -2.2753 H   0  0  0  0  0  0  0  0  0  0  0  0
    1.0527    2.8747   -0.6884 H   0  0  0  0  0  0  0  0  0  0  0  0
   -0.1169   -0.0671   -2.1272 C   0  0  0  0  0  0  0  0  0  0  0  0
    0.7931   -0.6621   -1.9978 H   0  0  0  0  0  0  0  0  0  0  0  0
   -0.9650   -0.7369   -1.9603 H   0  0  0  0  0  0  0  0  0  0  0  0
   -0.2120    0.4074   -3.5820 C   0  0  0  0  0  0  0  0  0  0  0  0
    0.7024    0.9148   -3.8997 H   0  0  0  0  0  0  0  0  0  0  0  0
   -0.3614   -0.4535   -4.2406 H   0  0  0  0  0  0  0  0  0  0  0  0
   -1.0584    1.0893   -3.7079 H   0  0  0  0  0  0  0  0  0  0  0  0
   -0.2656    1.5343    1.5130 C   0  0  0  0  0  0  0  0  0  0  0  0
   -1.2660    1.7425    2.1938 O   0  0  0  0  0  0  0  0  0  0  0  0
    0.8483    2.3178    1.7570 N   0  0  0  0  0  0  0  0  0  0  0  0
    1.6741    2.1429    1.1924 H   0  0  0  0  0  0  0  0  0  0  0  0
    0.9154    3.3234    2.8107 C   0  0  0  0  0  0  0  0  0  0  0  0
    0.7527    2.8631    3.7910 H   0  0  0  0  0  0  0  0  0  0  0  0
    1.8988    3.8030    2.8133 H   0  0  0  0  0  0  0  0  0  0  0  0
    0.1552    4.0954    2.6525 H   0  0  0  0  0  0  0  0  0  0  0  0
  1  2  1  0  0  0  0
  2  3  1  0  0  0  0
  2  4  1  0  0  0  0
  2  5  1  0  0  0  0
  5  6  2  0  0  0  0
  5  7  1  0  0  0  0
  7  8  1  0  0  0  0
  7  9  1  0  0  0  0
  9 10  1  0  0  0  0
  9 11  1  0  0  0  0
  9 24  1  0  0  0  0
 11 12  1  0  0  0  0
 11 13  1  0  0  0  0
 11 17  1  0  0  0  0
 13 14  1  0  0  0  0
 13 15  1  0  0  0  0
 13 16  1  0  0  0  0
 17 18  1  0  0  0  0
 17 19  1  0  0  0  0
 17 20  1  0  0  0  0
 20 21  1  0  0  0  0
 20 22  1  0  0  0  0
 20 23  1  0  0  0  0
 24 25  2  0  0  0  0
 24 26  1  0  0  0  0
 26 27  1  0  0  0  0
 26 28  1  0  0  0  0
 28 29  1  0  0  0  0
 28 30  1  0  0  0  0
 28 31  1  0  0  0  0
M  END
$$$$

  -OEChem-01062216083D

 31 30  0     1  0  0  0  0  0999 V2000
   -3.1270   -2.9383    1.5949 H   0  0  0  0  0  0  0  0  0  0  0  0
   -3.1759   -1.9026    1.2476 C   0  0  0  0  0  0  0  0  0  0  0  0
   -3.5430   -1.2750    2.0636 H   0  0  0  0  0  0  0  0  0  0  0  0
   -3.8731   -1.8439    0.4086 H   0  0  0  0  0  0  0  0  0  0  0  0
   -1.8012   -1.4309    0.8132 C   0  0  0  0  0  0  0  0  0  0  0  0
   -0.8543   -2.2017    0.8520 O   0  0  0  0  0  0  0  0  0  0  0  0
   -1.6395   -0.1367    0.3612 N   0  0  0  0  0  0  0  0  0  0  0  0
   -2.4259    0.4732    0.5731 H   0  0  0  0  0  0  0  0  0  0  0  0
   -0.3197    0.5261    0.3343 C   0  0  1  0  0  0  0  0  0  0  0  0
    0.4892   -0.1883    0.5196 H   0  0  0  0  0  0  0  0  0  0  0  0
   -0.1368    1.0929   -1.1142 C   0  0  1  0  0  0  0  0  0  0  0  0
   -0.9897    1.7411   -1.3438 H   0  0  0  0  0  0  0  0  0  0  0  0
    1.1568    1.9196   -1.2799 C   0  0  0  0  0  0  0  0  0  0  0  0
    2.0049    1.4045   -0.8177 H   0  0  0  0  0  0  0  0  0  0  0  0
    1.3978    2.0920   -2.3302 H   0  0  0  0  0  0  0  0  0  0  0  0
    1.0429    2.9090   -0.8316 H   0  0  0  0  0  0  0  0  0  0  0  0
   -0.1175   -0.0821   -2.1344 C   0  0  0  0  0  0  0  0  0  0  0  0
    0.7910   -0.6768   -1.9928 H   0  0  0  0  0  0  0  0  0  0  0  0
   -0.9673   -0.7469   -1.9565 H   0  0  0  0  0  0  0  0  0  0  0  0
   -0.2115    0.3622   -3.5996 C   0  0  0  0  0  0  0  0  0  0  0  0
    0.7104    0.8428   -3.9363 H   0  0  0  0  0  0  0  0  0  0  0  0
   -0.3835   -0.5098   -4.2379 H   0  0  0  0  0  0  0  0  0  0  0  0
   -1.0447    1.0583   -3.7354 H   0  0  0  0  0  0  0  0  0  0  0  0
   -0.2728    1.5513    1.5090 C   0  0  0  0  0  0  0  0  0  0  0  0
   -1.1741    1.5623    2.3426 O   0  0  0  0  0  0  0  0  0  0  0  0
    0.6801    2.5488    1.6111 N   0  0  0  0  0  0  0  0  0  0  0  0
    1.4408    2.5346    0.9391 H   0  0  0  0  0  0  0  0  0  0  0  0
    0.7070    3.5400    2.6811 C   0  0  0  0  0  0  0  0  0  0  0  0
    0.8124    3.0501    3.6548 H   0  0  0  0  0  0  0  0  0  0  0  0
    1.5517    4.2219    2.5439 H   0  0  0  0  0  0  0  0  0  0  0  0
   -0.2154    4.1302    2.6811 H   0  0  0  0  0  0  0  0  0  0  0  0
  1  2  1  0  0  0  0
  2  3  1  0  0  0  0
  2  4  1  0  0  0  0
  2  5  1  0  0  0  0
  5  6  2  0  0  0  0
  5  7  1  0  0  0  0
  7  8  1  0  0  0  0
  7  9  1  0  0  0  0
  9 10  1  0  0  0  0
  9 11  1  0  0  0  0
  9 24  1  0  0  0  0
 11 12  1  0  0  0  0
 11 13  1  0  0  0  0
 11 17  1  0  0  0  0
 13 14  1  0  0  0  0
 13 15  1  0  0  0  0
 13 16  1  0  0  0  0
 17 18  1  0  0  0  0
 17 19  1  0  0  0  0
 17 20  1  0  0  0  0
 20 21  1  0  0  0  0
 20 22  1  0  0  0  0
 20 23  1  0  0  0  0
 24 25  2  0  0  0  0
 24 26  1  0  0  0  0
 26 27  1  0  0  0  0
 26 28  1  0  0  0  0
 28 29  1  0  0  0  0
 28 30  1  0  0  0  0
 28 31  1  0  0  0  0
M  END
$$$$

  -OEChem-01062216083D

 31 30  0     1  0  0  0  0  0999 V2000
   -3.1980   -2.8774    1.5637 H   0  0  0  0  0  0  0  0  0  0  0  0
   -3.2350   -1.8471    1.1992 C   0  0  0  0  0  0  0  0  0  0  0  0
   -3.6061   -1.2042    2.0014 H   0  0  0  0  0  0  0  0  0  0  0  0
   -3.9223   -1.7958    0.3515 H   0  0  0  0  0  0  0  0  0  0  0  0
   -1.8519   -1.3928    0.7735 C   0  0  0  0  0  0  0  0  0  0  0  0
   -0.9149   -2.1755    0.8178 O   0  0  0  0  0  0  0  0  0  0  0  0
   -1.6740   -0.1023    0.3153 N   0  0  0  0  0  0  0  0  0  0  0  0
   -2.4650    0.5095    0.4993 H   0  0  0  0  0  0  0  0  0  0  0  0
   -0.3498    0.5531    0.3214 C   0  0  1  0  0  0  0  0  0  0  0  0
    0.4466   -0.1633    0.5506 H   0  0  0  0  0  0  0  0  0  0  0  0
   -0.1009    1.0875   -1.1299 C   0  0  1  0  0  0  0  0  0  0  0  0
   -0.9329    1.7411   -1.4135 H   0  0  0  0  0  0  0  0  0  0  0  0
    1.2168    1.8861   -1.2519 C   0  0  0  0  0  0  0  0  0  0  0  0
    2.0047    1.4238   -0.6484 H   0  0  0  0  0  0  0  0  0  0  0  0
    1.0718    2.9201   -0.9319 H   0  0  0  0  0  0  0  0  0  0  0  0
    1.5729    1.9382   -2.2816 H   0  0  0  0  0  0  0  0  0  0  0  0
   -0.0494   -0.1138   -2.1188 C   0  0  0  0  0  0  0  0  0  0  0  0
    0.8463   -0.7126   -1.9227 H   0  0  0  0  0  0  0  0  0  0  0  0
   -0.9122   -0.7660   -1.9601 H   0  0  0  0  0  0  0  0  0  0  0  0
   -0.0781    0.2896   -3.5991 C   0  0  0  0  0  0  0  0  0  0  0  0
    0.8557    0.7632   -3.9111 H   0  0  0  0  0  0  0  0  0  0  0  0
   -0.2213   -0.6007   -4.2193 H   0  0  0  0  0  0  0  0  0  0  0  0
   -0.9061    0.9789   -3.7906 H   0  0  0  0  0  0  0  0  0  0  0  0
   -0.3441    1.5846    1.4930 C   0  0  0  0  0  0  0  0  0  0  0  0
   -1.1207    1.4319    2.4309 O   0  0  0  0  0  0  0  0  0  0  0  0
    0.3937    2.7547    1.4935 N   0  0  0  0  0  0  0  0  0  0  0  0
    1.0729    2.8751    0.7502 H   0  0  0  0  0  0  0  0  0  0  0  0
    0.3653    3.7302    2.5783 C   0  0  0  0  0  0  0  0  0  0  0  0
    0.6558    3.2609    3.5243 H   0  0  0  0  0  0  0  0  0  0  0  0
    1.0619    4.5481    2.3706 H   0  0  0  0  0  0  0  0  0  0  0  0
   -0.6393    4.1521    2.6877 H   0  0  0  0  0  0  0  0  0  0  0  0
  1  2  1  0  0  0  0
  2  3  1  0  0  0  0
  2  4  1  0  0  0  0
  2  5  1  0  0  0  0
  5  6  2  0  0  0  0
  5  7  1  0  0  0  0
  7  8  1  0  0  0  0
  7  9  1  0  0  0  0
  9 10  1  0  0  0  0
  9 11  1  0  0  0  0
  9 24  1  0  0  0  0
 11 12  1  0  0  0  0
 11 13  1  0  0  0  0
 11 17  1  0  0  0  0
 13 14  1  0  0  0  0
 13 15  1  0  0  0  0
 13 16  1  0  0  0  0
 17 18  1  0  0  0  0
 17 19  1  0  0  0  0
 17 20  1  0  0  0  0
 20 21  1  0  0  0  0
 20 22  1  0  0  0  0
 20 23  1  0  0  0  0
 24 25  2  0  0  0  0
 24 26  1  0  0  0  0
 26 27  1  0  0  0  0
 26 28  1  0  0  0  0
 28 29  1  0  0  0  0
 28 30  1  0  0  0  0
 28 31  1  0  0  0  0
M  END
$$$$

  -OEChem-01062216083D

 31 30  0     1  0  0  0  0  0999 V2000
   -3.0622   -2.9495    1.6331 H   0  0  0  0  0  0  0  0  0  0  0  0
   -3.1352   -1.9083    1.3070 C   0  0  0  0  0  0  0  0  0  0  0  0
   -3.4609   -1.2975    2.1528 H   0  0  0  0  0  0  0  0  0  0  0  0
   -3.8768   -1.8402    0.5078 H   0  0  0  0  0  0  0  0  0  0  0  0
   -1.7876   -1.4203    0.8096 C   0  0  0  0  0  0  0  0  0  0  0  0
   -0.8354   -2.1851    0.7912 O   0  0  0  0  0  0  0  0  0  0  0  0
   -1.6627   -0.1246    0.3468 N   0  0  0  0  0  0  0  0  0  0  0  0
   -2.4663    0.4630    0.5498 H   0  0  0  0  0  0  0  0  0  0  0  0
   -0.3559    0.5634    0.2996 C   0  0  1  0  0  0  0  0  0  0  0  0
    0.4620   -0.1342    0.5108 H   0  0  0  0  0  0  0  0  0  0  0  0
   -0.1371    1.1071   -1.1504 C   0  0  1  0  0  0  0  0  0  0  0  0
   -0.9745    1.7580   -1.4239 H   0  0  0  0  0  0  0  0  0  0  0  0
    1.1871    1.9011   -1.2710 C   0  0  0  0  0  0  0  0  0  0  0  0
    1.9445    1.4930   -0.5939 H   0  0  0  0  0  0  0  0  0  0  0  0
    1.0311    2.9567   -1.0411 H   0  0  0  0  0  0  0  0  0  0  0  0
    1.5992    1.8689   -2.2806 H   0  0  0  0  0  0  0  0  0  0  0  0
   -0.0803   -0.0906   -2.1414 C   0  0  0  0  0  0  0  0  0  0  0  0
    0.8270   -0.6770   -1.9607 H   0  0  0  0  0  0  0  0  0  0  0  0
   -0.9314   -0.7553   -1.9693 H   0  0  0  0  0  0  0  0  0  0  0  0
   -0.1375    0.3195   -3.6194 C   0  0  0  0  0  0  0  0  0  0  0  0
    0.7805    0.8159   -3.9421 H   0  0  0  0  0  0  0  0  0  0  0  0
   -0.2698   -0.5706   -4.2418 H   0  0  0  0  0  0  0  0  0  0  0  0
   -0.9827    0.9916   -3.7960 H   0  0  0  0  0  0  0  0  0  0  0  0
   -0.3419    1.5871    1.4743 C   0  0  0  0  0  0  0  0  0  0  0  0
   -0.8462    1.2714    2.5459 O   0  0  0  0  0  0  0  0  0  0  0  0
    0.0972    2.8939    1.3597 N   0  0  0  0  0  0  0  0  0  0  0  0
    0.4803    3.1813    0.4671 H   0  0  0  0  0  0  0  0  0  0  0  0
    0.0583    3.8620    2.4503 C   0  0  0  0  0  0  0  0  0  0  0  0
    0.6405    3.5006    3.3047 H   0  0  0  0  0  0  0  0  0  0  0  0
    0.4815    4.8169    2.1239 H   0  0  0  0  0  0  0  0  0  0  0  0
   -0.9736    4.0340    2.7739 H   0  0  0  0  0  0  0  0  0  0  0  0
  1  2  1  0  0  0  0
  2  3  1  0  0  0  0
  2  4  1  0  0  0  0
  2  5  1  0  0  0  0
  5  6  2  0  0  0  0
  5  7  1  0  0  0  0
  7  8  1  0  0  0  0
  7  9  1  0  0  0  0
  9 10  1  0  0  0  0
  9 11  1  0  0  0  0
  9 24  1  0  0  0  0
 11 12  1  0  0  0  0
 11 13  1  0  0  0  0
 11 17  1  0  0  0  0
 13 14  1  0  0  0  0
 13 15  1  0  0  0  0
 13 16  1  0  0  0  0
 17 18  1  0  0  0  0
 17 19  1  0  0  0  0
 17 20  1  0  0  0  0
 20 21  1  0  0  0  0
 20 22  1  0  0  0  0
 20 23  1  0  0  0  0
 24 25  2  0  0  0  0
 24 26  1  0  0  0  0
 26 27  1  0  0  0  0
 26 28  1  0  0  0  0
 28 29  1  0  0  0  0
 28 30  1  0  0  0  0
 28 31  1  0  0  0  0
M  END
$$$$

  -OEChem-01062216083D

 31 30  0     1  0  0  0  0  0999 V2000
   -3.1008   -2.9218    1.6642 H   0  0  0  0  0  0  0  0  0  0  0  0
   -3.1647   -1.8864    1.3181 C   0  0  0  0  0  0  0  0  0  0  0  0
   -3.5063   -1.2602    2.1460 H   0  0  0  0  0  0  0  0  0  0  0  0
   -3.8889   -1.8304    0.5021 H   0  0  0  0  0  0  0  0  0  0  0  0
   -1.8063   -1.4105    0.8399 C   0  0  0  0  0  0  0  0  0  0  0  0
   -0.8609   -2.1832    0.8338 O   0  0  0  0  0  0  0  0  0  0  0  0
   -1.6690   -0.1203    0.3652 N   0  0  0  0  0  0  0  0  0  0  0  0
   -2.4771    0.4728    0.5283 H   0  0  0  0  0  0  0  0  0  0  0  0
   -0.3576    0.5557    0.3027 C   0  0  1  0  0  0  0  0  0  0  0  0
    0.4578   -0.1448    0.5149 H   0  0  0  0  0  0  0  0  0  0  0  0
   -0.1273    1.1141   -1.1351 C   0  0  1  0  0  0  0  0  0  0  0  0
   -0.9418    1.7999   -1.3912 H   0  0  0  0  0  0  0  0  0  0  0  0
    1.2345    1.8413   -1.2637 C   0  0  0  0  0  0  0  0  0  0  0  0
    2.0555    1.1479   -1.0543 H   0  0  0  0  0  0  0  0  0  0  0  0
    1.3674    2.2392   -2.2728 H   0  0  0  0  0  0  0  0  0  0  0  0
    1.3323    2.6866   -0.5847 H   0  0  0  0  0  0  0  0  0  0  0  0
   -0.0885   -0.0708   -2.1398 C   0  0  0  0  0  0  0  0  0  0  0  0
    0.8040   -0.6820   -1.9681 H   0  0  0  0  0  0  0  0  0  0  0  0
   -0.9543   -0.7193   -1.9793 H   0  0  0  0  0  0  0  0  0  0  0  0
   -0.1342    0.3707   -3.6068 C   0  0  0  0  0  0  0  0  0  0  0  0
    0.7926    0.8697   -3.9017 H   0  0  0  0  0  0  0  0  0  0  0  0
   -0.2641   -0.5041   -4.2514 H   0  0  0  0  0  0  0  0  0  0  0  0
   -0.9735    1.0519   -3.7768 H   0  0  0  0  0  0  0  0  0  0  0  0
   -0.3564    1.5790    1.4737 C   0  0  0  0  0  0  0  0  0  0  0  0
   -0.6091    1.1926    2.6077 O   0  0  0  0  0  0  0  0  0  0  0  0
   -0.2123    2.9432    1.2923 N   0  0  0  0  0  0  0  0  0  0  0  0
   -0.0707    3.2743    0.3432 H   0  0  0  0  0  0  0  0  0  0  0  0
   -0.2783    3.9168    2.3766 C   0  0  0  0  0  0  0  0  0  0  0  0
    0.4907    3.7065    3.1274 H   0  0  0  0  0  0  0  0  0  0  0  0
   -0.1144    4.9268    1.9890 H   0  0  0  0  0  0  0  0  0  0  0  0
   -1.2605    3.8868    2.8600 H   0  0  0  0  0  0  0  0  0  0  0  0
  1  2  1  0  0  0  0
  2  3  1  0  0  0  0
  2  4  1  0  0  0  0
  2  5  1  0  0  0  0
  5  6  2  0  0  0  0
  5  7  1  0  0  0  0
  7  8  1  0  0  0  0
  7  9  1  0  0  0  0
  9 10  1  0  0  0  0
  9 11  1  0  0  0  0
  9 24  1  0  0  0  0
 11 12  1  0  0  0  0
 11 13  1  0  0  0  0
 11 17  1  0  0  0  0
 13 14  1  0  0  0  0
 13 15  1  0  0  0  0
 13 16  1  0  0  0  0
 17 18  1  0  0  0  0
 17 19  1  0  0  0  0
 17 20  1  0  0  0  0
 20 21  1  0  0  0  0
 20 22  1  0  0  0  0
 20 23  1  0  0  0  0
 24 25  2  0  0  0  0
 24 26  1  0  0  0  0
 26 27  1  0  0  0  0
 26 28  1  0  0  0  0
 28 29  1  0  0  0  0
 28 30  1  0  0  0  0
 28 31  1  0  0  0  0
M  END
$$$$

  -OEChem-01062216083D

 31 30  0     1  0  0  0  0  0999 V2000
   -3.1227   -2.9476    1.6811 H   0  0  0  0  0  0  0  0  0  0  0  0
   -3.1923   -1.9288    1.2894 C   0  0  0  0  0  0  0  0  0  0  0  0
   -3.5969   -1.2804    2.0705 H   0  0  0  0  0  0  0  0  0  0  0  0
   -3.8698   -1.9252    0.4324 H   0  0  0  0  0  0  0  0  0  0  0  0
   -1.8206   -1.4366    0.8683 C   0  0  0  0  0  0  0  0  0  0  0  0
   -0.8666   -2.1966    0.9116 O   0  0  0  0  0  0  0  0  0  0  0  0
   -1.6803   -0.1497    0.3851 N   0  0  0  0  0  0  0  0  0  0  0  0
   -2.5055    0.4344    0.4787 H   0  0  0  0  0  0  0  0  0  0  0  0
   -0.3757    0.5379    0.3258 C   0  0  1  0  0  0  0  0  0  0  0  0
    0.4437   -0.1577    0.5405 H   0  0  0  0  0  0  0  0  0  0  0  0
   -0.1406    1.1076   -1.1038 C   0  0  1  0  0  0  0  0  0  0  0  0
   -0.9638    1.7828   -1.3606 H   0  0  0  0  0  0  0  0  0  0  0  0
    1.2031    1.8695   -1.1911 C   0  0  0  0  0  0  0  0  0  0  0  0
    2.0390    1.1895   -0.9971 H   0  0  0  0  0  0  0  0  0  0  0  0
    1.3369    2.3078   -2.1835 H   0  0  0  0  0  0  0  0  0  0  0  0
    1.2661    2.6885   -0.4737 H   0  0  0  0  0  0  0  0  0  0  0  0
   -0.0828   -0.0588   -2.1254 C   0  0  0  0  0  0  0  0  0  0  0  0
    0.8178   -0.6595   -1.9585 H   0  0  0  0  0  0  0  0  0  0  0  0
   -0.9411   -0.7210   -1.9794 H   0  0  0  0  0  0  0  0  0  0  0  0
   -0.1221    0.4130   -3.5829 C   0  0  0  0  0  0  0  0  0  0  0  0
    0.7947    0.9436   -3.8532 H   0  0  0  0  0  0  0  0  0  0  0  0
   -0.2200   -0.4500   -4.2487 H   0  0  0  0  0  0  0  0  0  0  0  0
   -0.9768    1.0759   -3.7487 H   0  0  0  0  0  0  0  0  0  0  0  0
   -0.3707    1.5748    1.4780 C   0  0  0  0  0  0  0  0  0  0  0  0
   -0.3568    1.1910    2.6391 O   0  0  0  0  0  0  0  0  0  0  0  0
   -0.5315    2.9309    1.2493 N   0  0  0  0  0  0  0  0  0  0  0  0
   -0.5462    3.2411    0.2824 H   0  0  0  0  0  0  0  0  0  0  0  0
   -0.5682    3.9282    2.3128 C   0  0  0  0  0  0  0  0  0  0  0  0
    0.3715    3.9225    2.8751 H   0  0  0  0  0  0  0  0  0  0  0  0
   -0.7125    4.9269    1.8899 H   0  0  0  0  0  0  0  0  0  0  0  0
   -1.3931    3.7239    3.0038 H   0  0  0  0  0  0  0  0  0  0  0  0
  1  2  1  0  0  0  0
  2  3  1  0  0  0  0
  2  4  1  0  0  0  0
  2  5  1  0  0  0  0
  5  6  2  0  0  0  0
  5  7  1  0  0  0  0
  7  8  1  0  0  0  0
  7  9  1  0  0  0  0
  9 10  1  0  0  0  0
  9 11  1  0  0  0  0
  9 24  1  0  0  0  0
 11 12  1  0  0  0  0
 11 13  1  0  0  0  0
 11 17  1  0  0  0  0
 13 14  1  0  0  0  0
 13 15  1  0  0  0  0
 13 16  1  0  0  0  0
 17 18  1  0  0  0  0
 17 19  1  0  0  0  0
 17 20  1  0  0  0  0
 20 21  1  0  0  0  0
 20 22  1  0  0  0  0
 20 23  1  0  0  0  0
 24 25  2  0  0  0  0
 24 26  1  0  0  0  0
 26 27  1  0  0  0  0
 26 28  1  0  0  0  0
 28 29  1  0  0  0  0
 28 30  1  0  0  0  0
 28 31  1  0  0  0  0
M  END
$$$$

  -OEChem-01062216083D

 31 30  0     1  0  0  0  0  0999 V2000
   -3.1502   -2.9920    1.6460 H   0  0  0  0  0  0  0  0  0  0  0  0
   -3.2175   -1.9798    1.2375 C   0  0  0  0  0  0  0  0  0  0  0  0
   -3.6809   -1.3310    1.9847 H   0  0  0  0  0  0  0  0  0  0  0  0
   -3.8436   -2.0017    0.3425 H   0  0  0  0  0  0  0  0  0  0  0  0
   -1.8331   -1.4653    0.8902 C   0  0  0  0  0  0  0  0  0  0  0  0
   -0.8710   -2.2086    0.9904 O   0  0  0  0  0  0  0  0  0  0  0  0
   -1.6883   -0.1787    0.4075 N   0  0  0  0  0  0  0  0  0  0  0  0
   -2.5259    0.3939    0.4390 H   0  0  0  0  0  0  0  0  0  0  0  0
   -0.3898    0.5207    0.3553 C   0  0  1  0  0  0  0  0  0  0  0  0
    0.4325   -0.1738    0.5642 H   0  0  0  0  0  0  0  0  0  0  0  0
   -0.1577    1.1024   -1.0677 C   0  0  1  0  0  0  0  0  0  0  0  0
   -0.9941    1.7616   -1.3226 H   0  0  0  0  0  0  0  0  0  0  0  0
    1.1592    1.9077   -1.1254 C   0  0  0  0  0  0  0  0  0  0  0  0
    2.0130    1.2579   -0.9075 H   0  0  0  0  0  0  0  0  0  0  0  0
    1.3033    2.3494   -2.1148 H   0  0  0  0  0  0  0  0  0  0  0  0
    1.1651    2.7293   -0.4055 H   0  0  0  0  0  0  0  0  0  0  0  0
   -0.0841   -0.0491   -2.1029 C   0  0  0  0  0  0  0  0  0  0  0  0
    0.8253   -0.6378   -1.9415 H   0  0  0  0  0  0  0  0  0  0  0  0
   -0.9335   -0.7250   -1.9667 H   0  0  0  0  0  0  0  0  0  0  0  0
   -0.1249    0.4424   -3.5534 C   0  0  0  0  0  0  0  0  0  0  0  0
    0.7803    0.9998   -3.8089 H   0  0  0  0  0  0  0  0  0  0  0  0
   -0.1963   -0.4132   -4.2317 H   0  0  0  0  0  0  0  0  0  0  0  0
   -0.9947    1.0860   -3.7164 H   0  0  0  0  0  0  0  0  0  0  0  0
   -0.3670    1.5684    1.4925 C   0  0  0  0  0  0  0  0  0  0  0  0
   -0.0438    1.2427    2.6250 O   0  0  0  0  0  0  0  0  0  0  0  0
   -0.8222    2.8595    1.2827 N   0  0  0  0  0  0  0  0  0  0  0  0
   -1.0425    3.1252    0.3279 H   0  0  0  0  0  0  0  0  0  0  0  0
   -0.8271    3.8845    2.3195 C   0  0  0  0  0  0  0  0  0  0  0  0
    0.1934    4.0877    2.6608 H   0  0  0  0  0  0  0  0  0  0  0  0
   -1.2548    4.8139    1.9316 H   0  0  0  0  0  0  0  0  0  0  0  0
   -1.4273    3.5608    3.1765 H   0  0  0  0  0  0  0  0  0  0  0  0
  1  2  1  0  0  0  0
  2  3  1  0  0  0  0
  2  4  1  0  0  0  0
  2  5  1  0  0  0  0
  5  6  2  0  0  0  0
  5  7  1  0  0  0  0
  7  8  1  0  0  0  0
  7  9  1  0  0  0  0
  9 10  1  0  0  0  0
  9 11  1  0  0  0  0
  9 24  1  0  0  0  0
 11 12  1  0  0  0  0
 11 13  1  0  0  0  0
 11 17  1  0  0  0  0
 13 14  1  0  0  0  0
 13 15  1  0  0  0  0
 13 16  1  0  0  0  0
 17 18  1  0  0  0  0
 17 19  1  0  0  0  0
 17 20  1  0  0  0  0
 20 21  1  0  0  0  0
 20 22  1  0  0  0  0
 20 23  1  0  0  0  0
 24 25  2  0  0  0  0
 24 26  1  0  0  0  0
 26 27  1  0  0  0  0
 26 28  1  0  0  0  0
 28 29  1  0  0  0  0
 28 30  1  0  0  0  0
 28 31  1  0  0  0  0
M  END
$$$$

  -OEChem-01062216083D

 31 30  0     1  0  0  0  0  0999 V2000
   -3.1709   -3.0499    1.5891 H   0  0  0  0  0  0  0  0  0  0  0  0
   -3.2346   -2.0404    1.1726 C   0  0  0  0  0  0  0  0  0  0  0  0
   -3.7614   -1.4006    1.8846 H   0  0  0  0  0  0  0  0  0  0  0  0
   -3.7989   -2.0798    0.2379 H   0  0  0  0  0  0  0  0  0  0  0  0
   -1.8424   -1.4947    0.9153 C   0  0  0  0  0  0  0  0  0  0  0  0
   -0.8732   -2.2117    1.0964 O   0  0  0  0  0  0  0  0  0  0  0  0
   -1.6943   -0.2078    0.4338 N   0  0  0  0  0  0  0  0  0  0  0  0
   -2.5432    0.3459    0.3841 H   0  0  0  0  0  0  0  0  0  0  0  0
   -0.4007    0.5028    0.3871 C   0  0  1  0  0  0  0  0  0  0  0  0
    0.4244   -0.1908    0.5879 H   0  0  0  0  0  0  0  0  0  0  0  0
   -0.1764    1.0987   -1.0303 C   0  0  1  0  0  0  0  0  0  0  0  0
   -1.0228    1.7477   -1.2785 H   0  0  0  0  0  0  0  0  0  0  0  0
    1.1199    1.9354   -1.0719 C   0  0  0  0  0  0  0  0  0  0  0  0
    1.9861    1.3099   -0.8324 H   0  0  0  0  0  0  0  0  0  0  0  0
    1.2716    2.3738   -2.0614 H   0  0  0  0  0  0  0  0  0  0  0  0
    1.0852    2.7622   -0.3571 H   0  0  0  0  0  0  0  0  0  0  0  0
   -0.0930   -0.0395   -2.0784 C   0  0  0  0  0  0  0  0  0  0  0  0
    0.8236   -0.6188   -1.9240 H   0  0  0  0  0  0  0  0  0  0  0  0
   -0.9342   -0.7266   -1.9486 H   0  0  0  0  0  0  0  0  0  0  0  0
   -0.1407    0.4686   -3.5231 C   0  0  0  0  0  0  0  0  0  0  0  0
    0.7560    1.0427   -3.7716 H   0  0  0  0  0  0  0  0  0  0  0  0
   -0.1990   -0.3797   -4.2120 H   0  0  0  0  0  0  0  0  0  0  0  0
   -1.0200    1.1010   -3.6787 H   0  0  0  0  0  0  0  0  0  0  0  0
   -0.3616    1.5602    1.5126 C   0  0  0  0  0  0  0  0  0  0  0  0
    0.2767    1.3607    2.5351 O   0  0  0  0  0  0  0  0  0  0  0  0
   -1.0832    2.7364    1.3947 N   0  0  0  0  0  0  0  0  0  0  0  0
   -1.5282    2.9204    0.5015 H   0  0  0  0  0  0  0  0  0  0  0  0
   -1.0456    3.7961    2.3955 C   0  0  0  0  0  0  0  0  0  0  0  0
   -0.0280    4.1867    2.5012 H   0  0  0  0  0  0  0  0  0  0  0  0
   -1.7044    4.6189    2.1017 H   0  0  0  0  0  0  0  0  0  0  0  0
   -1.3801    3.4173    3.3672 H   0  0  0  0  0  0  0  0  0  0  0  0
  1  2  1  0  0  0  0
  2  3  1  0  0  0  0
  2  4  1  0  0  0  0
  2  5  1  0  0  0  0
  5  6  2  0  0  0  0
  5  7  1  0  0  0  0
  7  8  1  0  0  0  0
  7  9  1  0  0  0  0
  9 10  1  0  0  0  0
  9 11  1  0  0  0  0
  9 24  1  0  0  0  0
 11 12  1  0  0  0  0
 11 13  1  0  0  0  0
 11 17  1  0  0  0  0
 13 14  1  0  0  0  0
 13 15  1  0  0  0  0
 13 16  1  0  0  0  0
 17 18  1  0  0  0  0
 17 19  1  0  0  0  0
 17 20  1  0  0  0  0
 20 21  1  0  0  0  0
 20 22  1  0  0  0  0
 20 23  1  0  0  0  0
 24 25  2  0  0  0  0
 24 26  1  0  0  0  0
 26 27  1  0  0  0  0
 26 28  1  0  0  0  0
 28 29  1  0  0  0  0
 28 30  1  0  0  0  0
 28 31  1  0  0  0  0
M  END
$$$$

  -OEChem-01062216083D

 31 30  0     1  0  0  0  0  0999 V2000
   -3.1873   -3.1080    1.4921 H   0  0  0  0  0  0  0  0  0  0  0  0
   -3.2405   -2.0951    1.0826 C   0  0  0  0  0  0  0  0  0  0  0  0
   -3.8455   -1.4784    1.7514 H   0  0  0  0  0  0  0  0  0  0  0  0
   -3.7186   -2.1375    0.1012 H   0  0  0  0  0  0  0  0  0  0  0  0
   -1.8459   -1.5107    0.9560 C   0  0  0  0  0  0  0  0  0  0  0  0
   -0.8797   -2.1902    1.2557 O   0  0  0  0  0  0  0  0  0  0  0  0
   -1.6878   -0.2259    0.4726 N   0  0  0  0  0  0  0  0  0  0  0  0
   -2.5376    0.2902    0.2723 H   0  0  0  0  0  0  0  0  0  0  0  0
   -0.3963    0.4901    0.4237 C   0  0  1  0  0  0  0  0  0  0  0  0
    0.4312   -0.2038    0.6143 H   0  0  0  0  0  0  0  0  0  0  0  0
   -0.1905    1.0939   -0.9928 C   0  0  1  0  0  0  0  0  0  0  0  0
   -1.0453    1.7373   -1.2264 H   0  0  0  0  0  0  0  0  0  0  0  0
    1.0932    1.9485   -1.0439 C   0  0  0  0  0  0  0  0  0  0  0  0
    1.9690    1.3382   -0.8006 H   0  0  0  0  0  0  0  0  0  0  0  0
    1.2372    2.3825   -2.0364 H   0  0  0  0  0  0  0  0  0  0  0  0
    1.0445    2.7801   -0.3350 H   0  0  0  0  0  0  0  0  0  0  0  0
   -0.1117   -0.0369   -2.0492 C   0  0  0  0  0  0  0  0  0  0  0  0
    0.8106   -0.6105   -1.9082 H   0  0  0  0  0  0  0  0  0  0  0  0
   -0.9469   -0.7302   -1.9151 H   0  0  0  0  0  0  0  0  0  0  0  0
   -0.1775    0.4793   -3.4902 C   0  0  0  0  0  0  0  0  0  0  0  0
    0.7150    1.0572   -3.7449 H   0  0  0  0  0  0  0  0  0  0  0  0
   -0.2407   -0.3653   -4.1831 H   0  0  0  0  0  0  0  0  0  0  0  0
   -1.0601    1.1102   -3.6327 H   0  0  0  0  0  0  0  0  0  0  0  0
   -0.3388    1.5577    1.5382 C   0  0  0  0  0  0  0  0  0  0  0  0
    0.5503    1.5375    2.3768 O   0  0  0  0  0  0  0  0  0  0  0  0
   -1.2720    2.5803    1.5760 N   0  0  0  0  0  0  0  0  0  0  0  0
   -1.9290    2.6405    0.8061 H   0  0  0  0  0  0  0  0  0  0  0  0
   -1.2220    3.6656    2.5482 C   0  0  0  0  0  0  0  0  0  0  0  0
   -0.2896    4.2303    2.4440 H   0  0  0  0  0  0  0  0  0  0  0  0
   -2.0613    4.3507    2.3958 H   0  0  0  0  0  0  0  0  0  0  0  0
   -1.2816    3.2689    3.5673 H   0  0  0  0  0  0  0  0  0  0  0  0
  1  2  1  0  0  0  0
  2  3  1  0  0  0  0
  2  4  1  0  0  0  0
  2  5  1  0  0  0  0
  5  6  2  0  0  0  0
  5  7  1  0  0  0  0
  7  8  1  0  0  0  0
  7  9  1  0  0  0  0
  9 10  1  0  0  0  0
  9 11  1  0  0  0  0
  9 24  1  0  0  0  0
 11 12  1  0  0  0  0
 11 13  1  0  0  0  0
 11 17  1  0  0  0  0
 13 14  1  0  0  0  0
 13 15  1  0  0  0  0
 13 16  1  0  0  0  0
 17 18  1  0  0  0  0
 17 19  1  0  0  0  0
 17 20  1  0  0  0  0
 20 21  1  0  0  0  0
 20 22  1  0  0  0  0
 20 23  1  0  0  0  0
 24 25  2  0  0  0  0
 24 26  1  0  0  0  0
 26 27  1  0  0  0  0
 26 28  1  0  0  0  0
 28 29  1  0  0  0  0
 28 30  1  0  0  0  0
 28 31  1  0  0  0  0
M  END
$$$$

  -OEChem-01062216083D

 31 30  0     1  0  0  0  0  0999 V2000
   -3.1556   -3.1551    1.3263 H   0  0  0  0  0  0  0  0  0  0  0  0
   -3.2106   -2.1370    0.9304 C   0  0  0  0  0  0  0  0  0  0  0  0
   -3.9486   -1.5752    1.5081 H   0  0  0  0  0  0  0  0  0  0  0  0
   -3.5302   -2.1835   -0.1133 H   0  0  0  0  0  0  0  0  0  0  0  0
   -1.8537   -1.4654    1.0297 C   0  0  0  0  0  0  0  0  0  0  0  0
   -0.9213   -2.0622    1.5383 O   0  0  0  0  0  0  0  0  0  0  0  0
   -1.6878   -0.1889    0.5279 N   0  0  0  0  0  0  0  0  0  0  0  0
   -2.4743    0.2038    0.0216 H   0  0  0  0  0  0  0  0  0  0  0  0
   -0.3888    0.5133    0.4612 C   0  0  1  0  0  0  0  0  0  0  0  0
    0.4331   -0.1881    0.6476 H   0  0  0  0  0  0  0  0  0  0  0  0
   -0.2048    1.0945   -0.9690 C   0  0  1  0  0  0  0  0  0  0  0  0
   -1.0604    1.7401   -1.1941 H   0  0  0  0  0  0  0  0  0  0  0  0
    1.0794    1.9444   -1.0634 C   0  0  0  0  0  0  0  0  0  0  0  0
    1.9569    1.3429   -0.8049 H   0  0  0  0  0  0  0  0  0  0  0  0
    1.2158    2.3431   -2.0715 H   0  0  0  0  0  0  0  0  0  0  0  0
    1.0354    2.8017   -0.3854 H   0  0  0  0  0  0  0  0  0  0  0  0
   -0.1528   -0.0529   -2.0104 C   0  0  0  0  0  0  0  0  0  0  0  0
    0.7690   -0.6294   -1.8776 H   0  0  0  0  0  0  0  0  0  0  0  0
   -0.9892   -0.7394   -1.8524 H   0  0  0  0  0  0  0  0  0  0  0  0
   -0.2416    0.4413   -3.4580 C   0  0  0  0  0  0  0  0  0  0  0  0
    0.6543    0.9996   -3.7421 H   0  0  0  0  0  0  0  0  0  0  0  0
   -0.3340   -0.4130   -4.1355 H   0  0  0  0  0  0  0  0  0  0  0  0
   -1.1165    1.0848   -3.5915 H   0  0  0  0  0  0  0  0  0  0  0  0
   -0.2960    1.5988    1.5574 C   0  0  0  0  0  0  0  0  0  0  0  0
    0.7475    1.7733    2.1715 O   0  0  0  0  0  0  0  0  0  0  0  0
   -1.3596    2.4525    1.7938 N   0  0  0  0  0  0  0  0  0  0  0  0
   -2.2265    2.2596    1.3058 H   0  0  0  0  0  0  0  0  0  0  0  0
   -1.3355    3.4962    2.8112 C   0  0  0  0  0  0  0  0  0  0  0  0
   -0.5200    4.2012    2.6179 H   0  0  0  0  0  0  0  0  0  0  0  0
   -2.2787    4.0509    2.8073 H   0  0  0  0  0  0  0  0  0  0  0  0
   -1.1948    3.0581    3.8050 H   0  0  0  0  0  0  0  0  0  0  0  0
  1  2  1  0  0  0  0
  2  3  1  0  0  0  0
  2  4  1  0  0  0  0
  2  5  1  0  0  0  0
  5  6  2  0  0  0  0
  5  7  1  0  0  0  0
  7  8  1  0  0  0  0
  7  9  1  0  0  0  0
  9 10  1  0  0  0  0
  9 11  1  0  0  0  0
  9 24  1  0  0  0  0
 11 12  1  0  0  0  0
 11 13  1  0  0  0  0
 11 17  1  0  0  0  0
 13 14  1  0  0  0  0
 13 15  1  0  0  0  0
 13 16  1  0  0  0  0
 17 18  1  0  0  0  0
 17 19  1  0  0  0  0
 17 20  1  0  0  0  0
 20 21  1  0  0  0  0
 20 22  1  0  0  0  0
 20 23  1  0  0  0  0
 24 25  2  0  0  0  0
 24 26  1  0  0  0  0
 26 27  1  0  0  0  0
 26 28  1  0  0  0  0
 28 29  1  0  0  0  0
 28 30  1  0  0  0  0
 28 31  1  0  0  0  0
M  END
$$$$

  -OEChem-01062216083D

 31 30  0     1  0  0  0  0  0999 V2000
   -3.1321   -3.1562    1.2624 H   0  0  0  0  0  0  0  0  0  0  0  0
   -3.1921   -2.1357    0.8733 C   0  0  0  0  0  0  0  0  0  0  0  0
   -3.9682   -1.5956    1.4205 H   0  0  0  0  0  0  0  0  0  0  0  0
   -3.4626   -2.1797   -0.1844 H   0  0  0  0  0  0  0  0  0  0  0  0
   -1.8570   -1.4350    1.0410 C   0  0  0  0  0  0  0  0  0  0  0  0
   -0.9451   -2.0013    1.6169 O   0  0  0  0  0  0  0  0  0  0  0  0
   -1.6882   -0.1612    0.5338 N   0  0  0  0  0  0  0  0  0  0  0  0
   -2.4430    0.1957   -0.0434 H   0  0  0  0  0  0  0  0  0  0  0  0
   -0.3841    0.5336    0.4709 C   0  0  1  0  0  0  0  0  0  0  0  0
    0.4351   -0.1697    0.6614 H   0  0  0  0  0  0  0  0  0  0  0  0
   -0.2078    1.0979   -0.9694 C   0  0  1  0  0  0  0  0  0  0  0  0
   -1.0662    1.7392   -1.1957 H   0  0  0  0  0  0  0  0  0  0  0  0
    1.0714    1.9510   -1.0927 C   0  0  0  0  0  0  0  0  0  0  0  0
    1.9521    1.3642   -0.8127 H   0  0  0  0  0  0  0  0  0  0  0  0
    1.2076    2.3170   -2.1128 H   0  0  0  0  0  0  0  0  0  0  0  0
    1.0197    2.8311   -0.4456 H   0  0  0  0  0  0  0  0  0  0  0  0
   -0.1637   -0.0633   -1.9974 C   0  0  0  0  0  0  0  0  0  0  0  0
    0.7584   -0.6390   -1.8626 H   0  0  0  0  0  0  0  0  0  0  0  0
   -0.9996   -0.7472   -1.8272 H   0  0  0  0  0  0  0  0  0  0  0  0
   -0.2606    0.4100   -3.4515 C   0  0  0  0  0  0  0  0  0  0  0  0
    0.6377    0.9554   -3.7527 H   0  0  0  0  0  0  0  0  0  0  0  0
   -0.3672   -0.4533   -4.1154 H   0  0  0  0  0  0  0  0  0  0  0  0
   -1.1308    1.0596   -3.5870 H   0  0  0  0  0  0  0  0  0  0  0  0
   -0.2871    1.6244    1.5639 C   0  0  0  0  0  0  0  0  0  0  0  0
    0.7983    1.9490    2.0264 O   0  0  0  0  0  0  0  0  0  0  0  0
   -1.4233    2.2774    2.0087 N   0  0  0  0  0  0  0  0  0  0  0  0
   -2.3116    1.8914    1.7097 H   0  0  0  0  0  0  0  0  0  0  0  0
   -1.4077    3.2490    3.0953 C   0  0  0  0  0  0  0  0  0  0  0  0
   -0.7361    4.0804    2.8569 H   0  0  0  0  0  0  0  0  0  0  0  0
   -2.4115    3.6534    3.2561 H   0  0  0  0  0  0  0  0  0  0  0  0
   -1.0692    2.7780    4.0242 H   0  0  0  0  0  0  0  0  0  0  0  0
  1  2  1  0  0  0  0
  2  3  1  0  0  0  0
  2  4  1  0  0  0  0
  2  5  1  0  0  0  0
  5  6  2  0  0  0  0
  5  7  1  0  0  0  0
  7  8  1  0  0  0  0
  7  9  1  0  0  0  0
  9 10  1  0  0  0  0
  9 11  1  0  0  0  0
  9 24  1  0  0  0  0
 11 12  1  0  0  0  0
 11 13  1  0  0  0  0
 11 17  1  0  0  0  0
 13 14  1  0  0  0  0
 13 15  1  0  0  0  0
 13 16  1  0  0  0  0
 17 18  1  0  0  0  0
 17 19  1  0  0  0  0
 17 20  1  0  0  0  0
 20 21  1  0  0  0  0
 20 22  1  0  0  0  0
 20 23  1  0  0  0  0
 24 25  2  0  0  0  0
 24 26  1  0  0  0  0
 26 27  1  0  0  0  0
 26 28  1  0  0  0  0
 28 29  1  0  0  0  0
 28 30  1  0  0  0  0
 28 31  1  0  0  0  0
M  END
$$$$

  -OEChem-01062216083D

 31 30  0     1  0  0  0  0  0999 V2000
   -3.1310   -3.1417    1.2476 H   0  0  0  0  0  0  0  0  0  0  0  0
   -3.1855   -2.1266    0.8437 C   0  0  0  0  0  0  0  0  0  0  0  0
   -3.9752   -1.5821    1.3669 H   0  0  0  0  0  0  0  0  0  0  0  0
   -3.4331   -2.1849   -0.2190 H   0  0  0  0  0  0  0  0  0  0  0  0
   -1.8561   -1.4198    1.0301 C   0  0  0  0  0  0  0  0  0  0  0  0
   -0.9519   -1.9777    1.6259 O   0  0  0  0  0  0  0  0  0  0  0  0
   -1.6847   -0.1445    0.5283 N   0  0  0  0  0  0  0  0  0  0  0  0
   -2.4337    0.2148   -0.0561 H   0  0  0  0  0  0  0  0  0  0  0  0
   -0.3789    0.5498    0.4754 C   0  0  1  0  0  0  0  0  0  0  0  0
    0.4403   -0.1524    0.6688 H   0  0  0  0  0  0  0  0  0  0  0  0
   -0.2095    1.1034   -0.9731 C   0  0  1  0  0  0  0  0  0  0  0  0
   -1.0730    1.7373   -1.2024 H   0  0  0  0  0  0  0  0  0  0  0  0
    1.0624    1.9637   -1.1177 C   0  0  0  0  0  0  0  0  0  0  0  0
    1.9452    1.3997   -0.8000 H   0  0  0  0  0  0  0  0  0  0  0  0
    1.2112    2.2879   -2.1500 H   0  0  0  0  0  0  0  0  0  0  0  0
    0.9904    2.8710   -0.5116 H   0  0  0  0  0  0  0  0  0  0  0  0
   -0.1649   -0.0678   -1.9915 C   0  0  0  0  0  0  0  0  0  0  0  0
    0.7610   -0.6365   -1.8540 H   0  0  0  0  0  0  0  0  0  0  0  0
   -0.9956   -0.7551   -1.8124 H   0  0  0  0  0  0  0  0  0  0  0  0
   -0.2687    0.3869   -3.4514 C   0  0  0  0  0  0  0  0  0  0  0  0
    0.6280    0.9278   -3.7647 H   0  0  0  0  0  0  0  0  0  0  0  0
   -0.3784   -0.4853   -4.1031 H   0  0  0  0  0  0  0  0  0  0  0  0
   -1.1398    1.0342   -3.5915 H   0  0  0  0  0  0  0  0  0  0  0  0
   -0.2877    1.6383    1.5750 C   0  0  0  0  0  0  0  0  0  0  0  0
    0.7924    2.1045    1.9125 O   0  0  0  0  0  0  0  0  0  0  0  0
   -1.4261    2.0699    2.2333 N   0  0  0  0  0  0  0  0  0  0  0  0
   -2.2707    1.5365    2.0577 H   0  0  0  0  0  0  0  0  0  0  0  0
   -1.3913    2.9768    3.3744 C   0  0  0  0  0  0  0  0  0  0  0  0
   -0.9015    3.9176    3.1019 H   0  0  0  0  0  0  0  0  0  0  0  0
   -2.4081    3.2034    3.7090 H   0  0  0  0  0  0  0  0  0  0  0  0
   -0.8437    2.5232    4.2072 H   0  0  0  0  0  0  0  0  0  0  0  0
  1  2  1  0  0  0  0
  2  3  1  0  0  0  0
  2  4  1  0  0  0  0
  2  5  1  0  0  0  0
  5  6  2  0  0  0  0
  5  7  1  0  0  0  0
  7  8  1  0  0  0  0
  7  9  1  0  0  0  0
  9 10  1  0  0  0  0
  9 11  1  0  0  0  0
  9 24  1  0  0  0  0
 11 12  1  0  0  0  0
 11 13  1  0  0  0  0
 11 17  1  0  0  0  0
 13 14  1  0  0  0  0
 13 15  1  0  0  0  0
 13 16  1  0  0  0  0
 17 18  1  0  0  0  0
 17 19  1  0  0  0  0
 17 20  1  0  0  0  0
 20 21  1  0  0  0  0
 20 22  1  0  0  0  0
 20 23  1  0  0  0  0
 24 25  2  0  0  0  0
 24 26  1  0  0  0  0
 26 27  1  0  0  0  0
 26 28  1  0  0  0  0
 28 29  1  0  0  0  0
 28 30  1  0  0  0  0
 28 31  1  0  0  0  0
M  END
$$$$

  -OEChem-01062216083D

 31 30  0     1  0  0  0  0  0999 V2000
   -3.1259   -3.1300    1.2030 H   0  0  0  0  0  0  0  0  0  0  0  0
   -3.1866   -2.1061    0.8230 C   0  0  0  0  0  0  0  0  0  0  0  0
   -3.9728   -1.5759    1.3657 H   0  0  0  0  0  0  0  0  0  0  0  0
   -3.4442   -2.1413   -0.2384 H   0  0  0  0  0  0  0  0  0  0  0  0
   -1.8571   -1.4005    1.0133 C   0  0  0  0  0  0  0  0  0  0  0  0
   -0.9564   -1.9558    1.6167 O   0  0  0  0  0  0  0  0  0  0  0  0
   -1.6842   -0.1209    0.5233 N   0  0  0  0  0  0  0  0  0  0  0  0
   -2.4399    0.2545   -0.0428 H   0  0  0  0  0  0  0  0  0  0  0  0
   -0.3789    0.5770    0.4758 C   0  0  1  0  0  0  0  0  0  0  0  0
    0.4410   -0.1229    0.6728 H   0  0  0  0  0  0  0  0  0  0  0  0
   -0.2102    1.1155   -0.9819 C   0  0  1  0  0  0  0  0  0  0  0  0
   -1.0773    1.7407   -1.2203 H   0  0  0  0  0  0  0  0  0  0  0  0
    1.0564    1.9799   -1.1510 C   0  0  0  0  0  0  0  0  0  0  0  0
    1.9392    1.4425   -0.7904 H   0  0  0  0  0  0  0  0  0  0  0  0
    1.2206    2.2532   -2.1951 H   0  0  0  0  0  0  0  0  0  0  0  0
    0.9638    2.9177   -0.5972 H   0  0  0  0  0  0  0  0  0  0  0  0
   -0.1593   -0.0725   -1.9829 C   0  0  0  0  0  0  0  0  0  0  0  0
    0.7681   -0.6361   -1.8343 H   0  0  0  0  0  0  0  0  0  0  0  0
   -0.9879   -0.7600   -1.7949 H   0  0  0  0  0  0  0  0  0  0  0  0
   -0.2636    0.3543   -3.4514 C   0  0  0  0  0  0  0  0  0  0  0  0
    0.6380    0.8775   -3.7805 H   0  0  0  0  0  0  0  0  0  0  0  0
   -0.3867   -0.5296   -4.0847 H   0  0  0  0  0  0  0  0  0  0  0  0
   -1.1278    1.0088   -3.6006 H   0  0  0  0  0  0  0  0  0  0  0  0
   -0.2972    1.6565    1.5896 C   0  0  0  0  0  0  0  0  0  0  0  0
    0.7306    2.2863    1.8001 O   0  0  0  0  0  0  0  0  0  0  0  0
   -1.3632    1.8511    2.4510 N   0  0  0  0  0  0  0  0  0  0  0  0
   -2.1130    1.1707    2.3831 H   0  0  0  0  0  0  0  0  0  0  0  0
   -1.2863    2.6923    3.6395 C   0  0  0  0  0  0  0  0  0  0  0  0
   -1.0235    3.7194    3.3655 H   0  0  0  0  0  0  0  0  0  0  0  0
   -2.2519    2.7100    4.1537 H   0  0  0  0  0  0  0  0  0  0  0  0
   -0.5304    2.3078    4.3323 H   0  0  0  0  0  0  0  0  0  0  0  0
  1  2  1  0  0  0  0
  2  3  1  0  0  0  0
  2  4  1  0  0  0  0
  2  5  1  0  0  0  0
  5  6  2  0  0  0  0
  5  7  1  0  0  0  0
  7  8  1  0  0  0  0
  7  9  1  0  0  0  0
  9 10  1  0  0  0  0
  9 11  1  0  0  0  0
  9 24  1  0  0  0  0
 11 12  1  0  0  0  0
 11 13  1  0  0  0  0
 11 17  1  0  0  0  0
 13 14  1  0  0  0  0
 13 15  1  0  0  0  0
 13 16  1  0  0  0  0
 17 18  1  0  0  0  0
 17 19  1  0  0  0  0
 17 20  1  0  0  0  0
 20 21  1  0  0  0  0
 20 22  1  0  0  0  0
 20 23  1  0  0  0  0
 24 25  2  0  0  0  0
 24 26  1  0  0  0  0
 26 27  1  0  0  0  0
 26 28  1  0  0  0  0
 28 29  1  0  0  0  0
 28 30  1  0  0  0  0
 28 31  1  0  0  0  0
M  END
$$$$

  -OEChem-01062216083D

 31 30  0     1  0  0  0  0  0999 V2000
   -3.1325   -3.1053    1.1904 H   0  0  0  0  0  0  0  0  0  0  0  0
   -3.1845   -2.0823    0.8070 C   0  0  0  0  0  0  0  0  0  0  0  0
   -3.9707   -1.5447    1.3425 H   0  0  0  0  0  0  0  0  0  0  0  0
   -3.4355   -2.1187   -0.2559 H   0  0  0  0  0  0  0  0  0  0  0  0
   -1.8522   -1.3839    1.0019 C   0  0  0  0  0  0  0  0  0  0  0  0
   -0.9547   -1.9398    1.6100 O   0  0  0  0  0  0  0  0  0  0  0  0
   -1.6764   -0.0990    0.5295 N   0  0  0  0  0  0  0  0  0  0  0  0
   -2.4444    0.3002   -0.0030 H   0  0  0  0  0  0  0  0  0  0  0  0
   -0.3710    0.5980    0.4770 C   0  0  1  0  0  0  0  0  0  0  0  0
    0.4488   -0.1031    0.6688 H   0  0  0  0  0  0  0  0  0  0  0  0
   -0.2086    1.1297   -0.9868 C   0  0  1  0  0  0  0  0  0  0  0  0
   -1.0737    1.7568   -1.2272 H   0  0  0  0  0  0  0  0  0  0  0  0
    1.0655    1.9808   -1.1748 C   0  0  0  0  0  0  0  0  0  0  0  0
    1.9359    1.4668   -0.7548 H   0  0  0  0  0  0  0  0  0  0  0  0
    1.2640    2.1887   -2.2275 H   0  0  0  0  0  0  0  0  0  0  0  0
    0.9593    2.9526   -0.6866 H   0  0  0  0  0  0  0  0  0  0  0  0
   -0.1633   -0.0688   -1.9776 C   0  0  0  0  0  0  0  0  0  0  0  0
    0.7638   -0.6323   -1.8273 H   0  0  0  0  0  0  0  0  0  0  0  0
   -0.9920   -0.7534   -1.7799 H   0  0  0  0  0  0  0  0  0  0  0  0
   -0.2745    0.3388   -3.4517 C   0  0  0  0  0  0  0  0  0  0  0  0
    0.6294    0.8467   -3.7974 H   0  0  0  0  0  0  0  0  0  0  0  0
   -0.4124   -0.5528   -4.0710 H   0  0  0  0  0  0  0  0  0  0  0  0
   -1.1325    1.0007   -3.6033 H   0  0  0  0  0  0  0  0  0  0  0  0
   -0.2983    1.6575    1.6149 C   0  0  0  0  0  0  0  0  0  0  0  0
    0.5908    2.4942    1.6862 O   0  0  0  0  0  0  0  0  0  0  0  0
   -1.2133    1.6109    2.6528 N   0  0  0  0  0  0  0  0  0  0  0  0
   -1.8032    0.7848    2.6773 H   0  0  0  0  0  0  0  0  0  0  0  0
   -1.1093    2.4317    3.8533 C   0  0  0  0  0  0  0  0  0  0  0  0
   -1.1179    3.4953    3.5929 H   0  0  0  0  0  0  0  0  0  0  0  0
   -1.9541    2.2342    4.5199 H   0  0  0  0  0  0  0  0  0  0  0  0
   -0.1820    2.2080    4.3910 H   0  0  0  0  0  0  0  0  0  0  0  0
  1  2  1  0  0  0  0
  2  3  1  0  0  0  0
  2  4  1  0  0  0  0
  2  5  1  0  0  0  0
  5  6  2  0  0  0  0
  5  7  1  0  0  0  0
  7  8  1  0  0  0  0
  7  9  1  0  0  0  0
  9 10  1  0  0  0  0
  9 11  1  0  0  0  0
  9 24  1  0  0  0  0
 11 12  1  0  0  0  0
 11 13  1  0  0  0  0
 11 17  1  0  0  0  0
 13 14  1  0  0  0  0
 13 15  1  0  0  0  0
 13 16  1  0  0  0  0
 17 18  1  0  0  0  0
 17 19  1  0  0  0  0
 17 20  1  0  0  0  0
 20 21  1  0  0  0  0
 20 22  1  0  0  0  0
 20 23  1  0  0  0  0
 24 25  2  0  0  0  0
 24 26  1  0  0  0  0
 26 27  1  0  0  0  0
 26 28  1  0  0  0  0
 28 29  1  0  0  0  0
 28 30  1  0  0  0  0
 28 31  1  0  0  0  0
M  END
$$$$

  -OEChem-01062216083D

 31 30  0     1  0  0  0  0  0999 V2000
   -3.1303   -3.0813    1.2152 H   0  0  0  0  0  0  0  0  0  0  0  0
   -3.1810   -2.0591    0.8296 C   0  0  0  0  0  0  0  0  0  0  0  0
   -3.9568   -1.5150    1.3737 H   0  0  0  0  0  0  0  0  0  0  0  0
   -3.4463   -2.0970   -0.2298 H   0  0  0  0  0  0  0  0  0  0  0  0
   -1.8421   -1.3685    1.0055 C   0  0  0  0  0  0  0  0  0  0  0  0
   -0.9430   -1.9203    1.6162 O   0  0  0  0  0  0  0  0  0  0  0  0
   -1.6655   -0.0798    0.5469 N   0  0  0  0  0  0  0  0  0  0  0  0
   -2.4465    0.3411    0.0513 H   0  0  0  0  0  0  0  0  0  0  0  0
   -0.3569    0.6065    0.4687 C   0  0  1  0  0  0  0  0  0  0  0  0
    0.4599   -0.1017    0.6447 H   0  0  0  0  0  0  0  0  0  0  0  0
   -0.1979    1.1450   -0.9929 C   0  0  1  0  0  0  0  0  0  0  0  0
   -1.0482    1.7946   -1.2270 H   0  0  0  0  0  0  0  0  0  0  0  0
    1.1067    1.9530   -1.1834 C   0  0  0  0  0  0  0  0  0  0  0  0
    1.9531    1.4273   -0.7307 H   0  0  0  0  0  0  0  0  0  0  0  0
    1.3328    2.1199   -2.2375 H   0  0  0  0  0  0  0  0  0  0  0  0
    1.0254    2.9442   -0.7326 H   0  0  0  0  0  0  0  0  0  0  0  0
   -0.1764   -0.0537   -1.9851 C   0  0  0  0  0  0  0  0  0  0  0  0
    0.7424   -0.6322   -1.8421 H   0  0  0  0  0  0  0  0  0  0  0  0
   -1.0145   -0.7246   -1.7810 H   0  0  0  0  0  0  0  0  0  0  0  0
   -0.2932    0.3552   -3.4588 C   0  0  0  0  0  0  0  0  0  0  0  0
    0.6155    0.8471   -3.8146 H   0  0  0  0  0  0  0  0  0  0  0  0
   -0.4528   -0.5343   -4.0759 H   0  0  0  0  0  0  0  0  0  0  0  0
   -1.1413    1.0316   -3.6029 H   0  0  0  0  0  0  0  0  0  0  0  0
   -0.2811    1.6382    1.6325 C   0  0  0  0  0  0  0  0  0  0  0  0
    0.3139    2.7036    1.5616 O   0  0  0  0  0  0  0  0  0  0  0  0
   -0.9639    1.3701    2.8065 N   0  0  0  0  0  0  0  0  0  0  0  0
   -1.3163    0.4206    2.9007 H   0  0  0  0  0  0  0  0  0  0  0  0
   -0.8936    2.2137    3.9935 C   0  0  0  0  0  0  0  0  0  0  0  0
   -1.2487    3.2246    3.7674 H   0  0  0  0  0  0  0  0  0  0  0  0
   -1.5201    1.7987    4.7889 H   0  0  0  0  0  0  0  0  0  0  0  0
    0.1367    2.2754    4.3593 H   0  0  0  0  0  0  0  0  0  0  0  0
  1  2  1  0  0  0  0
  2  3  1  0  0  0  0
  2  4  1  0  0  0  0
  2  5  1  0  0  0  0
  5  6  2  0  0  0  0
  5  7  1  0  0  0  0
  7  8  1  0  0  0  0
  7  9  1  0  0  0  0
  9 10  1  0  0  0  0
  9 11  1  0  0  0  0
  9 24  1  0  0  0  0
 11 12  1  0  0  0  0
 11 13  1  0  0  0  0
 11 17  1  0  0  0  0
 13 14  1  0  0  0  0
 13 15  1  0  0  0  0
 13 16  1  0  0  0  0
 17 18  1  0  0  0  0
 17 19  1  0  0  0  0
 17 20  1  0  0  0  0
 20 21  1  0  0  0  0
 20 22  1  0  0  0  0
 20 23  1  0  0  0  0
 24 25  2  0  0  0  0
 24 26  1  0  0  0  0
 26 27  1  0  0  0  0
 26 28  1  0  0  0  0
 28 29  1  0  0  0  0
 28 30  1  0  0  0  0
 28 31  1  0  0  0  0
M  END
$$$$

  -OEChem-01062216083D

 31 30  0     1  0  0  0  0  0999 V2000
   -3.1162   -3.0577    1.3087 H   0  0  0  0  0  0  0  0  0  0  0  0
   -3.1661   -2.0395    0.9128 C   0  0  0  0  0  0  0  0  0  0  0  0
   -3.9170   -1.4788    1.4748 H   0  0  0  0  0  0  0  0  0  0  0  0
   -3.4650   -2.0855   -0.1372 H   0  0  0  0  0  0  0  0  0  0  0  0
   -1.8139   -1.3644    1.0385 C   0  0  0  0  0  0  0  0  0  0  0  0
   -0.9005   -1.9213    1.6252 O   0  0  0  0  0  0  0  0  0  0  0  0
   -1.6358   -0.0804    0.5689 N   0  0  0  0  0  0  0  0  0  0  0  0
   -2.4318    0.3607    0.1165 H   0  0  0  0  0  0  0  0  0  0  0  0
   -0.3234    0.5889    0.4532 C   0  0  1  0  0  0  0  0  0  0  0  0
    0.4913   -0.1256    0.6125 H   0  0  0  0  0  0  0  0  0  0  0  0
   -0.1717    1.1458   -0.9980 C   0  0  1  0  0  0  0  0  0  0  0  0
   -1.0013    1.8293   -1.2084 H   0  0  0  0  0  0  0  0  0  0  0  0
    1.1673    1.8985   -1.1872 C   0  0  0  0  0  0  0  0  0  0  0  0
    2.0082    1.2609   -0.8973 H   0  0  0  0  0  0  0  0  0  0  0  0
    1.3071    2.2028   -2.2264 H   0  0  0  0  0  0  0  0  0  0  0  0
    1.2096    2.8140   -0.5957 H   0  0  0  0  0  0  0  0  0  0  0  0
   -0.1873   -0.0349   -2.0088 C   0  0  0  0  0  0  0  0  0  0  0  0
    0.7182   -0.6391   -1.8889 H   0  0  0  0  0  0  0  0  0  0  0  0
   -1.0399   -0.6878   -1.8046 H   0  0  0  0  0  0  0  0  0  0  0  0
   -0.3134    0.4097   -3.4707 C   0  0  0  0  0  0  0  0  0  0  0  0
    0.5985    0.8995   -3.8217 H   0  0  0  0  0  0  0  0  0  0  0  0
   -0.4905   -0.4623   -4.1077 H   0  0  0  0  0  0  0  0  0  0  0  0
   -1.1540    1.1002   -3.5895 H   0  0  0  0  0  0  0  0  0  0  0  0
   -0.2378    1.6125    1.6190 C   0  0  0  0  0  0  0  0  0  0  0  0
   -0.0346    2.8079    1.4577 O   0  0  0  0  0  0  0  0  0  0  0  0
   -0.6317    1.1973    2.8789 N   0  0  0  0  0  0  0  0  0  0  0  0
   -0.7832    0.1963    2.9949 H   0  0  0  0  0  0  0  0  0  0  0  0
   -0.6763    2.0662    4.0483 C   0  0  0  0  0  0  0  0  0  0  0  0
   -1.3639    2.9015    3.8792 H   0  0  0  0  0  0  0  0  0  0  0  0
   -1.0227    1.5057    4.9218 H   0  0  0  0  0  0  0  0  0  0  0  0
    0.3190    2.4673    4.2657 H   0  0  0  0  0  0  0  0  0  0  0  0
  1  2  1  0  0  0  0
  2  3  1  0  0  0  0
  2  4  1  0  0  0  0
  2  5  1  0  0  0  0
  5  6  2  0  0  0  0
  5  7  1  0  0  0  0
  7  8  1  0  0  0  0
  7  9  1  0  0  0  0
  9 10  1  0  0  0  0
  9 11  1  0  0  0  0
  9 24  1  0  0  0  0
 11 12  1  0  0  0  0
 11 13  1  0  0  0  0
 11 17  1  0  0  0  0
 13 14  1  0  0  0  0
 13 15  1  0  0  0  0
 13 16  1  0  0  0  0
 17 18  1  0  0  0  0
 17 19  1  0  0  0  0
 17 20  1  0  0  0  0
 20 21  1  0  0  0  0
 20 22  1  0  0  0  0
 20 23  1  0  0  0  0
 24 25  2  0  0  0  0
 24 26  1  0  0  0  0
 26 27  1  0  0  0  0
 26 28  1  0  0  0  0
 28 29  1  0  0  0  0
 28 30  1  0  0  0  0
 28 31  1  0  0  0  0
M  END
$$$$

  -OEChem-01062216083D

 31 30  0     1  0  0  0  0  0999 V2000
   -3.1175   -3.0345    1.4079 H   0  0  0  0  0  0  0  0  0  0  0  0
   -3.1612   -2.0243    0.9910 C   0  0  0  0  0  0  0  0  0  0  0  0
   -3.8863   -1.4385    1.5612 H   0  0  0  0  0  0  0  0  0  0  0  0
   -3.4906   -2.0874   -0.0490 H   0  0  0  0  0  0  0  0  0  0  0  0
   -1.7947   -1.3698    1.0633 C   0  0  0  0  0  0  0  0  0  0  0  0
   -0.8680   -1.9379    1.6192 O   0  0  0  0  0  0  0  0  0  0  0  0
   -1.6127   -0.0947    0.5717 N   0  0  0  0  0  0  0  0  0  0  0  0
   -2.4193    0.3676    0.1611 H   0  0  0  0  0  0  0  0  0  0  0  0
   -0.2993    0.5625    0.4367 C   0  0  1  0  0  0  0  0  0  0  0  0
    0.5153   -0.1533    0.5904 H   0  0  0  0  0  0  0  0  0  0  0  0
   -0.1506    1.1306   -1.0057 C   0  0  1  0  0  0  0  0  0  0  0  0
   -0.9755    1.8250   -1.1998 H   0  0  0  0  0  0  0  0  0  0  0  0
    1.1917    1.8778   -1.1803 C   0  0  0  0  0  0  0  0  0  0  0  0
    2.0332    1.1969   -1.0196 H   0  0  0  0  0  0  0  0  0  0  0  0
    1.2737    2.3013   -2.1842 H   0  0  0  0  0  0  0  0  0  0  0  0
    1.2904    2.7103   -0.4813 H   0  0  0  0  0  0  0  0  0  0  0  0
   -0.1855   -0.0312   -2.0346 C   0  0  0  0  0  0  0  0  0  0  0  0
    0.7132   -0.6486   -1.9320 H   0  0  0  0  0  0  0  0  0  0  0  0
   -1.0454   -0.6766   -1.8354 H   0  0  0  0  0  0  0  0  0  0  0  0
   -0.3141    0.4486   -3.4844 C   0  0  0  0  0  0  0  0  0  0  0  0
    0.5923    0.9633   -3.8145 H   0  0  0  0  0  0  0  0  0  0  0  0
   -0.4738   -0.4086   -4.1456 H   0  0  0  0  0  0  0  0  0  0  0  0
   -1.1648    1.1289   -3.5892 H   0  0  0  0  0  0  0  0  0  0  0  0
   -0.2071    1.5982    1.5839 C   0  0  0  0  0  0  0  0  0  0  0  0
   -0.2848    2.8061    1.3981 O   0  0  0  0  0  0  0  0  0  0  0  0
   -0.2904    1.1289    2.8818 N   0  0  0  0  0  0  0  0  0  0  0  0
   -0.3397    0.1171    2.9972 H   0  0  0  0  0  0  0  0  0  0  0  0
   -0.3893    1.9880    4.0546 C   0  0  0  0  0  0  0  0  0  0  0  0
   -1.2954    2.6007    4.0056 H   0  0  0  0  0  0  0  0  0  0  0  0
   -0.4300    1.3816    4.9645 H   0  0  0  0  0  0  0  0  0  0  0  0
    0.4807    2.6498    4.1187 H   0  0  0  0  0  0  0  0  0  0  0  0
  1  2  1  0  0  0  0
  2  3  1  0  0  0  0
  2  4  1  0  0  0  0
  2  5  1  0  0  0  0
  5  6  2  0  0  0  0
  5  7  1  0  0  0  0
  7  8  1  0  0  0  0
  7  9  1  0  0  0  0
  9 10  1  0  0  0  0
  9 11  1  0  0  0  0
  9 24  1  0  0  0  0
 11 12  1  0  0  0  0
 11 13  1  0  0  0  0
 11 17  1  0  0  0  0
 13 14  1  0  0  0  0
 13 15  1  0  0  0  0
 13 16  1  0  0  0  0
 17 18  1  0  0  0  0
 17 19  1  0  0  0  0
 17 20  1  0  0  0  0
 20 21  1  0  0  0  0
 20 22  1  0  0  0  0
 20 23  1  0  0  0  0
 24 25  2  0  0  0  0
 24 26  1  0  0  0  0
 26 27  1  0  0  0  0
 26 28  1  0  0  0  0
 28 29  1  0  0  0  0
 28 30  1  0  0  0  0
 28 31  1  0  0  0  0
M  END
$$$$

  -OEChem-01062216083D

 31 30  0     1  0  0  0  0  0999 V2000
   -3.1311   -3.0170    1.4823 H   0  0  0  0  0  0  0  0  0  0  0  0
   -3.1713   -2.0123    1.0522 C   0  0  0  0  0  0  0  0  0  0  0  0
   -3.8567   -1.4019    1.6453 H   0  0  0  0  0  0  0  0  0  0  0  0
   -3.5484   -2.0829    0.0292 H   0  0  0  0  0  0  0  0  0  0  0  0
   -1.7888   -1.3885    1.0528 C   0  0  0  0  0  0  0  0  0  0  0  0
   -0.8463   -1.9834    1.5518 O   0  0  0  0  0  0  0  0  0  0  0  0
   -1.6059   -0.1171    0.5514 N   0  0  0  0  0  0  0  0  0  0  0  0
   -2.4246    0.3764    0.2055 H   0  0  0  0  0  0  0  0  0  0  0  0
   -0.2946    0.5405    0.4189 C   0  0  1  0  0  0  0  0  0  0  0  0
    0.5215   -0.1737    0.5717 H   0  0  0  0  0  0  0  0  0  0  0  0
   -0.1419    1.1179   -1.0173 C   0  0  1  0  0  0  0  0  0  0  0  0
   -0.9708    1.8081   -1.2093 H   0  0  0  0  0  0  0  0  0  0  0  0
    1.1909    1.8843   -1.1643 C   0  0  0  0  0  0  0  0  0  0  0  0
    2.0397    1.2122   -1.0047 H   0  0  0  0  0  0  0  0  0  0  0  0
    1.2791    2.3250   -2.1604 H   0  0  0  0  0  0  0  0  0  0  0  0
    1.2645    2.7052   -0.4468 H   0  0  0  0  0  0  0  0  0  0  0  0
   -0.1726   -0.0311   -2.0583 C   0  0  0  0  0  0  0  0  0  0  0  0
    0.7280   -0.6463   -1.9604 H   0  0  0  0  0  0  0  0  0  0  0  0
   -1.0313   -0.6810   -1.8678 H   0  0  0  0  0  0  0  0  0  0  0  0
   -0.2966    0.4673   -3.5019 C   0  0  0  0  0  0  0  0  0  0  0  0
    0.6044    1.0005   -3.8169 H   0  0  0  0  0  0  0  0  0  0  0  0
   -0.4381   -0.3826   -4.1765 H   0  0  0  0  0  0  0  0  0  0  0  0
   -1.1564    1.1365   -3.6036 H   0  0  0  0  0  0  0  0  0  0  0  0
   -0.2039    1.5861    1.5522 C   0  0  0  0  0  0  0  0  0  0  0  0
   -0.4954    2.7637    1.3805 O   0  0  0  0  0  0  0  0  0  0  0  0
    0.0256    1.1316    2.8370 N   0  0  0  0  0  0  0  0  0  0  0  0
    0.0892    0.1214    2.9556 H   0  0  0  0  0  0  0  0  0  0  0  0
   -0.0536    1.9805    4.0185 C   0  0  0  0  0  0  0  0  0  0  0  0
   -1.0705    2.3662    4.1453 H   0  0  0  0  0  0  0  0  0  0  0  0
    0.2165    1.4100    4.9124 H   0  0  0  0  0  0  0  0  0  0  0  0
    0.6357    2.8266    3.9292 H   0  0  0  0  0  0  0  0  0  0  0  0
  1  2  1  0  0  0  0
  2  3  1  0  0  0  0
  2  4  1  0  0  0  0
  2  5  1  0  0  0  0
  5  6  2  0  0  0  0
  5  7  1  0  0  0  0
  7  8  1  0  0  0  0
  7  9  1  0  0  0  0
  9 10  1  0  0  0  0
  9 11  1  0  0  0  0
  9 24  1  0  0  0  0
 11 12  1  0  0  0  0
 11 13  1  0  0  0  0
 11 17  1  0  0  0  0
 13 14  1  0  0  0  0
 13 15  1  0  0  0  0
 13 16  1  0  0  0  0
 17 18  1  0  0  0  0
 17 19  1  0  0  0  0
 17 20  1  0  0  0  0
 20 21  1  0  0  0  0
 20 22  1  0  0  0  0
 20 23  1  0  0  0  0
 24 25  2  0  0  0  0
 24 26  1  0  0  0  0
 26 27  1  0  0  0  0
 26 28  1  0  0  0  0
 28 29  1  0  0  0  0
 28 30  1  0  0  0  0
 28 31  1  0  0  0  0
M  END
$$$$

  -OEChem-01062216083D

 31 30  0     1  0  0  0  0  0999 V2000
   -3.1484   -3.0193    1.5168 H   0  0  0  0  0  0  0  0  0  0  0  0
   -3.1872   -2.0113    1.0946 C   0  0  0  0  0  0  0  0  0  0  0  0
   -3.8256   -1.3892    1.7267 H   0  0  0  0  0  0  0  0  0  0  0  0
   -3.6195   -2.0663    0.0925 H   0  0  0  0  0  0  0  0  0  0  0  0
   -1.7923   -1.4195    1.0245 C   0  0  0  0  0  0  0  0  0  0  0  0
   -0.8372   -2.0484    1.4534 O   0  0  0  0  0  0  0  0  0  0  0  0
   -1.6097   -0.1483    0.5221 N   0  0  0  0  0  0  0  0  0  0  0  0
   -2.4390    0.3827    0.2683 H   0  0  0  0  0  0  0  0  0  0  0  0
   -0.3016    0.5161    0.4034 C   0  0  1  0  0  0  0  0  0  0  0  0
    0.5159   -0.1963    0.5556 H   0  0  0  0  0  0  0  0  0  0  0  0
   -0.1411    1.1050   -1.0258 C   0  0  1  0  0  0  0  0  0  0  0  0
   -0.9773    1.7860   -1.2193 H   0  0  0  0  0  0  0  0  0  0  0  0
    1.1785    1.8965   -1.1451 C   0  0  0  0  0  0  0  0  0  0  0  0
    2.0372    1.2413   -0.9682 H   0  0  0  0  0  0  0  0  0  0  0  0
    1.2789    2.3409   -2.1384 H   0  0  0  0  0  0  0  0  0  0  0  0
    1.2160    2.7170   -0.4234 H   0  0  0  0  0  0  0  0  0  0  0  0
   -0.1570   -0.0326   -2.0781 C   0  0  0  0  0  0  0  0  0  0  0  0
    0.7474   -0.6419   -1.9792 H   0  0  0  0  0  0  0  0  0  0  0  0
   -1.0126   -0.6903   -1.9004 H   0  0  0  0  0  0  0  0  0  0  0  0
   -0.2722    0.4814   -3.5165 C   0  0  0  0  0  0  0  0  0  0  0  0
    0.6264    1.0268   -3.8166 H   0  0  0  0  0  0  0  0  0  0  0  0
   -0.3996   -0.3619   -4.2019 H   0  0  0  0  0  0  0  0  0  0  0  0
   -1.1375    1.1436   -3.6180 H   0  0  0  0  0  0  0  0  0  0  0  0
   -0.2139    1.5697    1.5277 C   0  0  0  0  0  0  0  0  0  0  0  0
   -0.7069    2.6841    1.3984 O   0  0  0  0  0  0  0  0  0  0  0  0
    0.3114    1.1980    2.7507 N   0  0  0  0  0  0  0  0  0  0  0  0
    0.5406    0.2128    2.8668 H   0  0  0  0  0  0  0  0  0  0  0  0
    0.2872    2.0586    3.9263 C   0  0  0  0  0  0  0  0  0  0  0  0
   -0.7447    2.2796    4.2184 H   0  0  0  0  0  0  0  0  0  0  0  0
    0.7879    1.5659    4.7652 H   0  0  0  0  0  0  0  0  0  0  0  0
    0.8058    3.0011    3.7217 H   0  0  0  0  0  0  0  0  0  0  0  0
  1  2  1  0  0  0  0
  2  3  1  0  0  0  0
  2  4  1  0  0  0  0
  2  5  1  0  0  0  0
  5  6  2  0  0  0  0
  5  7  1  0  0  0  0
  7  8  1  0  0  0  0
  7  9  1  0  0  0  0
  9 10  1  0  0  0  0
  9 11  1  0  0  0  0
  9 24  1  0  0  0  0
 11 12  1  0  0  0  0
 11 13  1  0  0  0  0
 11 17  1  0  0  0  0
 13 14  1  0  0  0  0
 13 15  1  0  0  0  0
 13 16  1  0  0  0  0
 17 18  1  0  0  0  0
 17 19  1  0  0  0  0
 17 20  1  0  0  0  0
 20 21  1  0  0  0  0
 20 22  1  0  0  0  0
 20 23  1  0  0  0  0
 24 25  2  0  0  0  0
 24 26  1  0  0  0  0
 26 27  1  0  0  0  0
 26 28  1  0  0  0  0
 28 29  1  0  0  0  0
 28 30  1  0  0  0  0
 28 31  1  0  0  0  0
M  END
$$$$

  -OEChem-01062216083D

 31 30  0     1  0  0  0  0  0999 V2000
   -3.1650   -3.0187    1.5539 H   0  0  0  0  0  0  0  0  0  0  0  0
   -3.2024   -2.0096    1.1340 C   0  0  0  0  0  0  0  0  0  0  0  0
   -3.7940   -1.3739    1.7972 H   0  0  0  0  0  0  0  0  0  0  0  0
   -3.6861   -2.0532    0.1553 H   0  0  0  0  0  0  0  0  0  0  0  0
   -1.7995   -1.4497    0.9938 C   0  0  0  0  0  0  0  0  0  0  0  0
   -0.8380   -2.1119    1.3523 O   0  0  0  0  0  0  0  0  0  0  0  0
   -1.6161   -0.1779    0.4928 N   0  0  0  0  0  0  0  0  0  0  0  0
   -2.4478    0.3850    0.3311 H   0  0  0  0  0  0  0  0  0  0  0  0
   -0.3103    0.4931    0.3901 C   0  0  1  0  0  0  0  0  0  0  0  0
    0.5070   -0.2187    0.5453 H   0  0  0  0  0  0  0  0  0  0  0  0
   -0.1411    1.0938   -1.0318 C   0  0  1  0  0  0  0  0  0  0  0  0
   -0.9831    1.7677   -1.2255 H   0  0  0  0  0  0  0  0  0  0  0  0
    1.1676    1.9041   -1.1306 C   0  0  0  0  0  0  0  0  0  0  0  0
    2.0335    1.2598   -0.9491 H   0  0  0  0  0  0  0  0  0  0  0  0
    1.2727    2.3576   -2.1194 H   0  0  0  0  0  0  0  0  0  0  0  0
    1.1829    2.7196   -0.4018 H   0  0  0  0  0  0  0  0  0  0  0  0
   -0.1421   -0.0332   -2.0949 C   0  0  0  0  0  0  0  0  0  0  0  0
    0.7643   -0.6393   -1.9950 H   0  0  0  0  0  0  0  0  0  0  0  0
   -0.9958   -0.6967   -1.9303 H   0  0  0  0  0  0  0  0  0  0  0  0
   -0.2480    0.4958   -3.5287 C   0  0  0  0  0  0  0  0  0  0  0  0
    0.6521    1.0461   -3.8157 H   0  0  0  0  0  0  0  0  0  0  0  0
   -0.3684   -0.3404   -4.2240 H   0  0  0  0  0  0  0  0  0  0  0  0
   -1.1137    1.1574   -3.6303 H   0  0  0  0  0  0  0  0  0  0  0  0
   -0.2265    1.5529    1.5079 C   0  0  0  0  0  0  0  0  0  0  0  0
   -0.9076    2.5704    1.4557 O   0  0  0  0  0  0  0  0  0  0  0  0
    0.5568    1.3149    2.6214 N   0  0  0  0  0  0  0  0  0  0  0  0
    0.9786    0.3926    2.6975 H   0  0  0  0  0  0  0  0  0  0  0  0
    0.5864    2.1993    3.7794 C   0  0  0  0  0  0  0  0  0  0  0  0
   -0.4085    2.2726    4.2312 H   0  0  0  0  0  0  0  0  0  0  0  0
    1.2813    1.8137    4.5316 H   0  0  0  0  0  0  0  0  0  0  0  0
    0.9160    3.2020    3.4873 H   0  0  0  0  0  0  0  0  0  0  0  0
  1  2  1  0  0  0  0
  2  3  1  0  0  0  0
  2  4  1  0  0  0  0
  2  5  1  0  0  0  0
  5  6  2  0  0  0  0
  5  7  1  0  0  0  0
  7  8  1  0  0  0  0
  7  9  1  0  0  0  0
  9 10  1  0  0  0  0
  9 11  1  0  0  0  0
  9 24  1  0  0  0  0
 11 12  1  0  0  0  0
 11 13  1  0  0  0  0
 11 17  1  0  0  0  0
 13 14  1  0  0  0  0
 13 15  1  0  0  0  0
 13 16  1  0  0  0  0
 17 18  1  0  0  0  0
 17 19  1  0  0  0  0
 17 20  1  0  0  0  0
 20 21  1  0  0  0  0
 20 22  1  0  0  0  0
 20 23  1  0  0  0  0
 24 25  2  0  0  0  0
 24 26  1  0  0  0  0
 26 27  1  0  0  0  0
 26 28  1  0  0  0  0
 28 29  1  0  0  0  0
 28 30  1  0  0  0  0
 28 31  1  0  0  0  0
M  END
$$$$

  -OEChem-01062216083D

 31 30  0     1  0  0  0  0  0999 V2000
   -3.1750   -3.0147    1.5903 H   0  0  0  0  0  0  0  0  0  0  0  0
   -3.2120   -2.0056    1.1706 C   0  0  0  0  0  0  0  0  0  0  0  0
   -3.7599   -1.3580    1.8594 H   0  0  0  0  0  0  0  0  0  0  0  0
   -3.7412   -2.0407    0.2153 H   0  0  0  0  0  0  0  0  0  0  0  0
   -1.8066   -1.4728    0.9645 C   0  0  0  0  0  0  0  0  0  0  0  0
   -0.8428   -2.1628    1.2586 O   0  0  0  0  0  0  0  0  0  0  0  0
   -1.6251   -0.1998    0.4652 N   0  0  0  0  0  0  0  0  0  0  0  0
   -2.4535    0.3866    0.3902 H   0  0  0  0  0  0  0  0  0  0  0  0
   -0.3195    0.4748    0.3780 C   0  0  1  0  0  0  0  0  0  0  0  0
    0.4959   -0.2378    0.5388 H   0  0  0  0  0  0  0  0  0  0  0  0
   -0.1411    1.0868   -1.0373 C   0  0  1  0  0  0  0  0  0  0  0  0
   -0.9848    1.7584   -1.2320 H   0  0  0  0  0  0  0  0  0  0  0  0
    1.1632    1.9060   -1.1186 C   0  0  0  0  0  0  0  0  0  0  0  0
    2.0301    1.2685   -0.9185 H   0  0  0  0  0  0  0  0  0  0  0  0
    1.2826    2.3548   -2.1078 H   0  0  0  0  0  0  0  0  0  0  0  0
    1.1591    2.7258   -0.3942 H   0  0  0  0  0  0  0  0  0  0  0  0
   -0.1315   -0.0315   -2.1094 C   0  0  0  0  0  0  0  0  0  0  0  0
    0.7760   -0.6357   -2.0069 H   0  0  0  0  0  0  0  0  0  0  0  0
   -0.9847   -0.6986   -1.9563 H   0  0  0  0  0  0  0  0  0  0  0  0
   -0.2279    0.5080   -3.5400 C   0  0  0  0  0  0  0  0  0  0  0  0
    0.6718    1.0646   -3.8154 H   0  0  0  0  0  0  0  0  0  0  0  0
   -0.3391   -0.3232   -4.2429 H   0  0  0  0  0  0  0  0  0  0  0  0
   -1.0962    1.1662   -3.6432 H   0  0  0  0  0  0  0  0  0  0  0  0
   -0.2427    1.5376    1.4936 C   0  0  0  0  0  0  0  0  0  0  0  0
   -1.0829    2.4281    1.5534 O   0  0  0  0  0  0  0  0  0  0  0  0
    0.7454    1.4686    2.4578 N   0  0  0  0  0  0  0  0  0  0  0  0
    1.3484    0.6504    2.4476 H   0  0  0  0  0  0  0  0  0  0  0  0
    0.8233    2.3876    3.5865 C   0  0  0  0  0  0  0  0  0  0  0  0
   -0.0832    2.3220    4.1974 H   0  0  0  0  0  0  0  0  0  0  0  0
    1.6841    2.1415    4.2159 H   0  0  0  0  0  0  0  0  0  0  0  0
    0.9371    3.4183    3.2341 H   0  0  0  0  0  0  0  0  0  0  0  0
  1  2  1  0  0  0  0
  2  3  1  0  0  0  0
  2  4  1  0  0  0  0
  2  5  1  0  0  0  0
  5  6  2  0  0  0  0
  5  7  1  0  0  0  0
  7  8  1  0  0  0  0
  7  9  1  0  0  0  0
  9 10  1  0  0  0  0
  9 11  1  0  0  0  0
  9 24  1  0  0  0  0
 11 12  1  0  0  0  0
 11 13  1  0  0  0  0
 11 17  1  0  0  0  0
 13 14  1  0  0  0  0
 13 15  1  0  0  0  0
 13 16  1  0  0  0  0
 17 18  1  0  0  0  0
 17 19  1  0  0  0  0
 17 20  1  0  0  0  0
 20 21  1  0  0  0  0
 20 22  1  0  0  0  0
 20 23  1  0  0  0  0
 24 25  2  0  0  0  0
 24 26  1  0  0  0  0
 26 27  1  0  0  0  0
 26 28  1  0  0  0  0
 28 29  1  0  0  0  0
 28 30  1  0  0  0  0
 28 31  1  0  0  0  0
M  END
$$$$

  -OEChem-01062216083D

 31 30  0     1  0  0  0  0  0999 V2000
   -3.1800   -3.0054    1.6180 H   0  0  0  0  0  0  0  0  0  0  0  0
   -3.2165   -1.9958    1.1992 C   0  0  0  0  0  0  0  0  0  0  0  0
   -3.7265   -1.3385    1.9078 H   0  0  0  0  0  0  0  0  0  0  0  0
   -3.7825   -2.0220    0.2649 H   0  0  0  0  0  0  0  0  0  0  0  0
   -1.8118   -1.4859    0.9384 C   0  0  0  0  0  0  0  0  0  0  0  0
   -0.8495   -2.1972    1.1822 O   0  0  0  0  0  0  0  0  0  0  0  0
   -1.6317   -0.2118    0.4417 N   0  0  0  0  0  0  0  0  0  0  0  0
   -2.4521    0.3909    0.4448 H   0  0  0  0  0  0  0  0  0  0  0  0
   -0.3256    0.4646    0.3698 C   0  0  1  0  0  0  0  0  0  0  0  0
    0.4887   -0.2473    0.5385 H   0  0  0  0  0  0  0  0  0  0  0  0
   -0.1403    1.0816   -1.0429 C   0  0  1  0  0  0  0  0  0  0  0  0
   -0.9870    1.7487   -1.2395 H   0  0  0  0  0  0  0  0  0  0  0  0
    1.1579    1.9107   -1.1193 C   0  0  0  0  0  0  0  0  0  0  0  0
    2.0282    1.2820   -0.9067 H   0  0  0  0  0  0  0  0  0  0  0  0
    1.2825    2.3530   -2.1108 H   0  0  0  0  0  0  0  0  0  0  0  0
    1.1397    2.7370   -0.4028 H   0  0  0  0  0  0  0  0  0  0  0  0
   -0.1217   -0.0336   -2.1187 C   0  0  0  0  0  0  0  0  0  0  0  0
    0.7869   -0.6355   -2.0127 H   0  0  0  0  0  0  0  0  0  0  0  0
   -0.9739   -0.7037   -1.9727 H   0  0  0  0  0  0  0  0  0  0  0  0
   -0.2110    0.5093   -3.5488 C   0  0  0  0  0  0  0  0  0  0  0  0
    0.6914    1.0636   -3.8198 H   0  0  0  0  0  0  0  0  0  0  0  0
   -0.3216   -0.3198   -4.2543 H   0  0  0  0  0  0  0  0  0  0  0  0
   -1.0771    1.1702   -3.6539 H   0  0  0  0  0  0  0  0  0  0  0  0
   -0.2583    1.5282    1.4863 C   0  0  0  0  0  0  0  0  0  0  0  0
   -1.2155    2.2678    1.6873 O   0  0  0  0  0  0  0  0  0  0  0  0
    0.8730    1.6534    2.2713 N   0  0  0  0  0  0  0  0  0  0  0  0
    1.6151    0.9729    2.1349 H   0  0  0  0  0  0  0  0  0  0  0  0
    0.9820    2.6064    3.3686 C   0  0  0  0  0  0  0  0  0  0  0  0
    0.2085    2.4159    4.1200 H   0  0  0  0  0  0  0  0  0  0  0  0
    1.9610    2.5190    3.8496 H   0  0  0  0  0  0  0  0  0  0  0  0
    0.8697    3.6309    2.9984 H   0  0  0  0  0  0  0  0  0  0  0  0
  1  2  1  0  0  0  0
  2  3  1  0  0  0  0
  2  4  1  0  0  0  0
  2  5  1  0  0  0  0
  5  6  2  0  0  0  0
  5  7  1  0  0  0  0
  7  8  1  0  0  0  0
  7  9  1  0  0  0  0
  9 10  1  0  0  0  0
  9 11  1  0  0  0  0
  9 24  1  0  0  0  0
 11 12  1  0  0  0  0
 11 13  1  0  0  0  0
 11 17  1  0  0  0  0
 13 14  1  0  0  0  0
 13 15  1  0  0  0  0
 13 16  1  0  0  0  0
 17 18  1  0  0  0  0
 17 19  1  0  0  0  0
 17 20  1  0  0  0  0
 20 21  1  0  0  0  0
 20 22  1  0  0  0  0
 20 23  1  0  0  0  0
 24 25  2  0  0  0  0
 24 26  1  0  0  0  0
 26 27  1  0  0  0  0
 26 28  1  0  0  0  0
 28 29  1  0  0  0  0
 28 30  1  0  0  0  0
 28 31  1  0  0  0  0
M  END
$$$$

  -OEChem-01062216083D

 31 30  0     1  0  0  0  0  0999 V2000
   -3.1759   -2.9925    1.6259 H   0  0  0  0  0  0  0  0  0  0  0  0
   -3.2149   -1.9823    1.2089 C   0  0  0  0  0  0  0  0  0  0  0  0
   -3.6943   -1.3205    1.9346 H   0  0  0  0  0  0  0  0  0  0  0  0
   -3.8108   -2.0011    0.2932 H   0  0  0  0  0  0  0  0  0  0  0  0
   -1.8138   -1.4873    0.9032 C   0  0  0  0  0  0  0  0  0  0  0  0
   -0.8542   -2.2189    1.0925 O   0  0  0  0  0  0  0  0  0  0  0  0
   -1.6359   -0.2081    0.4184 N   0  0  0  0  0  0  0  0  0  0  0  0
   -2.4471    0.4034    0.4881 H   0  0  0  0  0  0  0  0  0  0  0  0
   -0.3271    0.4673    0.3672 C   0  0  1  0  0  0  0  0  0  0  0  0
    0.4854   -0.2456    0.5410 H   0  0  0  0  0  0  0  0  0  0  0  0
   -0.1408    1.0812   -1.0491 C   0  0  1  0  0  0  0  0  0  0  0  0
   -0.9933    1.7398   -1.2496 H   0  0  0  0  0  0  0  0  0  0  0  0
    1.1481    1.9230   -1.1380 C   0  0  0  0  0  0  0  0  0  0  0  0
    2.0241    1.3127   -0.8972 H   0  0  0  0  0  0  0  0  0  0  0  0
    1.2791    2.3370   -2.1406 H   0  0  0  0  0  0  0  0  0  0  0  0
    1.1093    2.7715   -0.4493 H   0  0  0  0  0  0  0  0  0  0  0  0
   -0.1163   -0.0407   -2.1190 C   0  0  0  0  0  0  0  0  0  0  0  0
    0.7943   -0.6382   -2.0067 H   0  0  0  0  0  0  0  0  0  0  0  0
   -0.9654   -0.7142   -1.9717 H   0  0  0  0  0  0  0  0  0  0  0  0
   -0.2046    0.4892   -3.5538 C   0  0  0  0  0  0  0  0  0  0  0  0
    0.7002    1.0360   -3.8320 H   0  0  0  0  0  0  0  0  0  0  0  0
   -0.3201   -0.3468   -4.2503 H   0  0  0  0  0  0  0  0  0  0  0  0
   -1.0677    1.1528   -3.6643 H   0  0  0  0  0  0  0  0  0  0  0  0
   -0.2658    1.5242    1.4944 C   0  0  0  0  0  0  0  0  0  0  0  0
   -1.2875    2.1020    1.8515 O   0  0  0  0  0  0  0  0  0  0  0  0
    0.9381    1.8588    2.0881 N   0  0  0  0  0  0  0  0  0  0  0  0
    1.7620    1.3364    1.8048 H   0  0  0  0  0  0  0  0  0  0  0  0
    1.0595    2.8464    3.1533 C   0  0  0  0  0  0  0  0  0  0  0  0
    0.4549    2.5539    4.0182 H   0  0  0  0  0  0  0  0  0  0  0  0
    2.1024    2.9309    3.4732 H   0  0  0  0  0  0  0  0  0  0  0  0
    0.7246    3.8290    2.8047 H   0  0  0  0  0  0  0  0  0  0  0  0
  1  2  1  0  0  0  0
  2  3  1  0  0  0  0
  2  4  1  0  0  0  0
  2  5  1  0  0  0  0
  5  6  2  0  0  0  0
  5  7  1  0  0  0  0
  7  8  1  0  0  0  0
  7  9  1  0  0  0  0
  9 10  1  0  0  0  0
  9 11  1  0  0  0  0
  9 24  1  0  0  0  0
 11 12  1  0  0  0  0
 11 13  1  0  0  0  0
 11 17  1  0  0  0  0
 13 14  1  0  0  0  0
 13 15  1  0  0  0  0
 13 16  1  0  0  0  0
 17 18  1  0  0  0  0
 17 19  1  0  0  0  0
 17 20  1  0  0  0  0
 20 21  1  0  0  0  0
 20 22  1  0  0  0  0
 20 23  1  0  0  0  0
 24 25  2  0  0  0  0
 24 26  1  0  0  0  0
 26 27  1  0  0  0  0
 26 28  1  0  0  0  0
 28 29  1  0  0  0  0
 28 30  1  0  0  0  0
 28 31  1  0  0  0  0
M  END
$$$$

  -OEChem-01062216083D

 31 30  0     1  0  0  0  0  0999 V2000
   -3.1590   -2.9684    1.6392 H   0  0  0  0  0  0  0  0  0  0  0  0
   -3.2033   -1.9608    1.2166 C   0  0  0  0  0  0  0  0  0  0  0  0
   -3.6563   -1.2911    1.9518 H   0  0  0  0  0  0  0  0  0  0  0  0
   -3.8258   -1.9815    0.3190 H   0  0  0  0  0  0  0  0  0  0  0  0
   -1.8085   -1.4773    0.8678 C   0  0  0  0  0  0  0  0  0  0  0  0
   -0.8530   -2.2253    1.0066 O   0  0  0  0  0  0  0  0  0  0  0  0
   -1.6322   -0.1926    0.3967 N   0  0  0  0  0  0  0  0  0  0  0  0
   -2.4321    0.4243    0.5262 H   0  0  0  0  0  0  0  0  0  0  0  0
   -0.3179    0.4761    0.3633 C   0  0  1  0  0  0  0  0  0  0  0  0
    0.4929   -0.2381    0.5401 H   0  0  0  0  0  0  0  0  0  0  0  0
   -0.1377    1.0820   -1.0617 C   0  0  1  0  0  0  0  0  0  0  0  0
   -0.9942    1.7343   -1.2645 H   0  0  0  0  0  0  0  0  0  0  0  0
    1.1445    1.9298   -1.1801 C   0  0  0  0  0  0  0  0  0  0  0  0
    2.0217    1.3434   -0.8896 H   0  0  0  0  0  0  0  0  0  0  0  0
    1.2910    2.2872   -2.2019 H   0  0  0  0  0  0  0  0  0  0  0  0
    1.0830    2.8183   -0.5465 H   0  0  0  0  0  0  0  0  0  0  0  0
   -0.1175   -0.0515   -2.1223 C   0  0  0  0  0  0  0  0  0  0  0  0
    0.7930   -0.6485   -2.0059 H   0  0  0  0  0  0  0  0  0  0  0  0
   -0.9663   -0.7236   -1.9675 H   0  0  0  0  0  0  0  0  0  0  0  0
   -0.2123    0.4587   -3.5643 C   0  0  0  0  0  0  0  0  0  0  0  0
    0.7001    0.9814   -3.8629 H   0  0  0  0  0  0  0  0  0  0  0  0
   -0.3538   -0.3853   -4.2463 H   0  0  0  0  0  0  0  0  0  0  0  0
   -1.0629    1.1383   -3.6751 H   0  0  0  0  0  0  0  0  0  0  0  0
   -0.2627    1.5218    1.5071 C   0  0  0  0  0  0  0  0  0  0  0  0
   -1.3015    1.9261    2.0210 O   0  0  0  0  0  0  0  0  0  0  0  0
    0.9348    2.0794    1.9193 N   0  0  0  0  0  0  0  0  0  0  0  0
    1.7870    1.7263    1.4943 H   0  0  0  0  0  0  0  0  0  0  0  0
    1.0336    3.0921    2.9633 C   0  0  0  0  0  0  0  0  0  0  0  0
    0.6211    2.7139    3.9045 H   0  0  0  0  0  0  0  0  0  0  0  0
    2.0806    3.3638    3.1289 H   0  0  0  0  0  0  0  0  0  0  0  0
    0.4840    3.9942    2.6746 H   0  0  0  0  0  0  0  0  0  0  0  0
  1  2  1  0  0  0  0
  2  3  1  0  0  0  0
  2  4  1  0  0  0  0
  2  5  1  0  0  0  0
  5  6  2  0  0  0  0
  5  7  1  0  0  0  0
  7  8  1  0  0  0  0
  7  9  1  0  0  0  0
  9 10  1  0  0  0  0
  9 11  1  0  0  0  0
  9 24  1  0  0  0  0
 11 12  1  0  0  0  0
 11 13  1  0  0  0  0
 11 17  1  0  0  0  0
 13 14  1  0  0  0  0
 13 15  1  0  0  0  0
 13 16  1  0  0  0  0
 17 18  1  0  0  0  0
 17 19  1  0  0  0  0
 17 20  1  0  0  0  0
 20 21  1  0  0  0  0
 20 22  1  0  0  0  0
 20 23  1  0  0  0  0
 24 25  2  0  0  0  0
 24 26  1  0  0  0  0
 26 27  1  0  0  0  0
 26 28  1  0  0  0  0
 28 29  1  0  0  0  0
 28 30  1  0  0  0  0
 28 31  1  0  0  0  0
M  END
$$$$

  -OEChem-01062216083D

 31 30  0     1  0  0  0  0  0999 V2000
   -3.0932   -2.9754    1.6057 H   0  0  0  0  0  0  0  0  0  0  0  0
   -3.1537   -1.9358    1.2718 C   0  0  0  0  0  0  0  0  0  0  0  0
   -3.5111   -1.3202    2.1012 H   0  0  0  0  0  0  0  0  0  0  0  0
   -3.8644   -1.8713    0.4446 H   0  0  0  0  0  0  0  0  0  0  0  0
   -1.7887   -1.4504    0.8225 C   0  0  0  0  0  0  0  0  0  0  0  0
   -0.8290   -2.2053    0.8673 O   0  0  0  0  0  0  0  0  0  0  0  0
   -1.6440   -0.1564    0.3636 N   0  0  0  0  0  0  0  0  0  0  0  0
   -2.4350    0.4463    0.5757 H   0  0  0  0  0  0  0  0  0  0  0  0
   -0.3273    0.5104    0.3370 C   0  0  1  0  0  0  0  0  0  0  0  0
    0.4809   -0.2222    0.2408 H   0  0  0  0  0  0  0  0  0  0  0  0
   -0.3129    1.4133   -0.9395 C   0  0  1  0  0  0  0  0  0  0  0  0
   -1.1786    2.0835   -0.8953 H   0  0  0  0  0  0  0  0  0  0  0  0
    0.9566    2.2832   -1.0447 C   0  0  0  0  0  0  0  0  0  0  0  0
    1.8548    1.6711   -0.9163 H   0  0  0  0  0  0  0  0  0  0  0  0
    1.0206    2.7859   -2.0117 H   0  0  0  0  0  0  0  0  0  0  0  0
    0.9471    3.0740   -0.2908 H   0  0  0  0  0  0  0  0  0  0  0  0
   -0.4368    0.5266   -2.2109 C   0  0  0  0  0  0  0  0  0  0  0  0
    0.4742   -0.0686   -2.3329 H   0  0  0  0  0  0  0  0  0  0  0  0
   -1.2677   -0.1757   -2.0985 H   0  0  0  0  0  0  0  0  0  0  0  0
   -0.7004    1.3201   -3.4963 C   0  0  0  0  0  0  0  0  0  0  0  0
    0.1765    1.8980   -3.7985 H   0  0  0  0  0  0  0  0  0  0  0  0
   -0.9427    0.6318   -4.3116 H   0  0  0  0  0  0  0  0  0  0  0  0
   -1.5449    2.0024   -3.3591 H   0  0  0  0  0  0  0  0  0  0  0  0
   -0.1104    1.2485    1.6909 C   0  0  0  0  0  0  0  0  0  0  0  0
   -1.0209    1.3071    2.5125 O   0  0  0  0  0  0  0  0  0  0  0  0
    1.0414    1.9638    1.9675 N   0  0  0  0  0  0  0  0  0  0  0  0
    1.7972    1.9094    1.2917 H   0  0  0  0  0  0  0  0  0  0  0  0
    1.2590    2.6959    3.2099 C   0  0  0  0  0  0  0  0  0  0  0  0
    1.2128    2.0172    4.0681 H   0  0  0  0  0  0  0  0  0  0  0  0
    2.2434    3.1735    3.1996 H   0  0  0  0  0  0  0  0  0  0  0  0
    0.4990    3.4744    3.3347 H   0  0  0  0  0  0  0  0  0  0  0  0
  1  2  1  0  0  0  0
  2  3  1  0  0  0  0
  2  4  1  0  0  0  0
  2  5  1  0  0  0  0
  5  6  2  0  0  0  0
  5  7  1  0  0  0  0
  7  8  1  0  0  0  0
  7  9  1  0  0  0  0
  9 10  1  0  0  0  0
  9 11  1  0  0  0  0
  9 24  1  0  0  0  0
 11 12  1  0  0  0  0
 11 13  1  0  0  0  0
 11 17  1  0  0  0  0
 13 14  1  0  0  0  0
 13 15  1  0  0  0  0
 13 16  1  0  0  0  0
 17 18  1  0  0  0  0
 17 19  1  0  0  0  0
 17 20  1  0  0  0  0
 20 21  1  0  0  0  0
 20 22  1  0  0  0  0
 20 23  1  0  0  0  0
 24 25  2  0  0  0  0
 24 26  1  0  0  0  0
 26 27  1  0  0  0  0
 26 28  1  0  0  0  0
 28 29  1  0  0  0  0
 28 30  1  0  0  0  0
 28 31  1  0  0  0  0
M  END
$$$$

  -OEChem-01062216083D

 31 30  0     1  0  0  0  0  0999 V2000
   -3.0729   -2.9512    1.6201 H   0  0  0  0  0  0  0  0  0  0  0  0
   -3.1413   -1.9114    1.2884 C   0  0  0  0  0  0  0  0  0  0  0  0
   -3.4775   -1.2967    2.1273 H   0  0  0  0  0  0  0  0  0  0  0  0
   -3.8721   -1.8455    0.4791 H   0  0  0  0  0  0  0  0  0  0  0  0
   -1.7874   -1.4264    0.8061 C   0  0  0  0  0  0  0  0  0  0  0  0
   -0.8343   -2.1909    0.8008 O   0  0  0  0  0  0  0  0  0  0  0  0
   -1.6497   -0.1273    0.3575 N   0  0  0  0  0  0  0  0  0  0  0  0
   -2.4381    0.4703    0.5896 H   0  0  0  0  0  0  0  0  0  0  0  0
   -0.3315    0.5389    0.3294 C   0  0  1  0  0  0  0  0  0  0  0  0
    0.4766   -0.1943    0.2365 H   0  0  0  0  0  0  0  0  0  0  0  0
   -0.3166    1.4252   -0.9621 C   0  0  1  0  0  0  0  0  0  0  0  0
   -1.1810    2.0977   -0.9318 H   0  0  0  0  0  0  0  0  0  0  0  0
    0.9587    2.2859   -1.0907 C   0  0  0  0  0  0  0  0  0  0  0  0
    1.8495    1.6898   -0.8683 H   0  0  0  0  0  0  0  0  0  0  0  0
    1.0704    2.7004   -2.0939 H   0  0  0  0  0  0  0  0  0  0  0  0
    0.9158    3.1429   -0.4150 H   0  0  0  0  0  0  0  0  0  0  0  0
   -0.4381    0.5140   -2.2183 C   0  0  0  0  0  0  0  0  0  0  0  0
    0.4728   -0.0840   -2.3275 H   0  0  0  0  0  0  0  0  0  0  0  0
   -1.2688   -0.1863   -2.0943 H   0  0  0  0  0  0  0  0  0  0  0  0
   -0.7021    1.2785   -3.5220 C   0  0  0  0  0  0  0  0  0  0  0  0
    0.1772    1.8399   -3.8468 H   0  0  0  0  0  0  0  0  0  0  0  0
   -0.9564    0.5716   -4.3177 H   0  0  0  0  0  0  0  0  0  0  0  0
   -1.5395    1.9718   -3.3967 H   0  0  0  0  0  0  0  0  0  0  0  0
   -0.1136    1.2633    1.6954 C   0  0  0  0  0  0  0  0  0  0  0  0
   -0.9123    1.0940    2.6121 O   0  0  0  0  0  0  0  0  0  0  0  0
    0.8676    2.2169    1.9011 N   0  0  0  0  0  0  0  0  0  0  0  0
    1.5437    2.3561    1.1569 H   0  0  0  0  0  0  0  0  0  0  0  0
    1.0493    2.9352    3.1578 C   0  0  0  0  0  0  0  0  0  0  0  0
    1.2616    2.2351    3.9727 H   0  0  0  0  0  0  0  0  0  0  0  0
    1.8863    3.6350    3.0762 H   0  0  0  0  0  0  0  0  0  0  0  0
    0.1477    3.5042    3.4081 H   0  0  0  0  0  0  0  0  0  0  0  0
  1  2  1  0  0  0  0
  2  3  1  0  0  0  0
  2  4  1  0  0  0  0
  2  5  1  0  0  0  0
  5  6  2  0  0  0  0
  5  7  1  0  0  0  0
  7  8  1  0  0  0  0
  7  9  1  0  0  0  0
  9 10  1  0  0  0  0
  9 11  1  0  0  0  0
  9 24  1  0  0  0  0
 11 12  1  0  0  0  0
 11 13  1  0  0  0  0
 11 17  1  0  0  0  0
 13 14  1  0  0  0  0
 13 15  1  0  0  0  0
 13 16  1  0  0  0  0
 17 18  1  0  0  0  0
 17 19  1  0  0  0  0
 17 20  1  0  0  0  0
 20 21  1  0  0  0  0
 20 22  1  0  0  0  0
 20 23  1  0  0  0  0
 24 25  2  0  0  0  0
 24 26  1  0  0  0  0
 26 27  1  0  0  0  0
 26 28  1  0  0  0  0
 28 29  1  0  0  0  0
 28 30  1  0  0  0  0
 28 31  1  0  0  0  0
M  END
$$$$

  -OEChem-01062216083D

 31 30  0     1  0  0  0  0  0999 V2000
   -3.1690   -2.8943    1.5598 H   0  0  0  0  0  0  0  0  0  0  0  0
   -3.2141   -1.8469    1.2487 C   0  0  0  0  0  0  0  0  0  0  0  0
   -3.5428   -1.2421    2.0976 H   0  0  0  0  0  0  0  0  0  0  0  0
   -3.9385   -1.7502    0.4368 H   0  0  0  0  0  0  0  0  0  0  0  0
   -1.8474   -1.3802    0.7846 C   0  0  0  0  0  0  0  0  0  0  0  0
   -0.9067   -2.1598    0.7840 O   0  0  0  0  0  0  0  0  0  0  0  0
   -1.6887   -0.0854    0.3287 N   0  0  0  0  0  0  0  0  0  0  0  0
   -2.4833    0.5169    0.5216 H   0  0  0  0  0  0  0  0  0  0  0  0
   -0.3652    0.5717    0.3321 C   0  0  1  0  0  0  0  0  0  0  0  0
    0.4388   -0.1707    0.2853 H   0  0  0  0  0  0  0  0  0  0  0  0
   -0.2847    1.4237   -0.9802 C   0  0  1  0  0  0  0  0  0  0  0  0
   -1.1376    2.1106   -1.0092 H   0  0  0  0  0  0  0  0  0  0  0  0
    1.0166    2.2518   -1.0776 C   0  0  0  0  0  0  0  0  0  0  0  0
    1.8671    1.6792   -0.6937 H   0  0  0  0  0  0  0  0  0  0  0  0
    0.9223    3.1848   -0.5176 H   0  0  0  0  0  0  0  0  0  0  0  0
    1.2449    2.5406   -2.1046 H   0  0  0  0  0  0  0  0  0  0  0  0
   -0.3632    0.4747   -2.2119 C   0  0  0  0  0  0  0  0  0  0  0  0
    0.5434   -0.1374   -2.2633 H   0  0  0  0  0  0  0  0  0  0  0  0
   -1.2074   -0.2116   -2.1018 H   0  0  0  0  0  0  0  0  0  0  0  0
   -0.5635    1.1997   -3.5495 C   0  0  0  0  0  0  0  0  0  0  0  0
    0.3384    1.7311   -3.8628 H   0  0  0  0  0  0  0  0  0  0  0  0
   -0.8062    0.4711   -4.3291 H   0  0  0  0  0  0  0  0  0  0  0  0
   -1.3888    1.9147   -3.4773 H   0  0  0  0  0  0  0  0  0  0  0  0
   -0.1882    1.3053    1.7005 C   0  0  0  0  0  0  0  0  0  0  0  0
   -0.8485    0.9483    2.6708 O   0  0  0  0  0  0  0  0  0  0  0  0
    0.5684    2.4512    1.8692 N   0  0  0  0  0  0  0  0  0  0  0  0
    1.1598    2.7325    1.0951 H   0  0  0  0  0  0  0  0  0  0  0  0
    0.7098    3.1485    3.1431 C   0  0  0  0  0  0  0  0  0  0  0  0
    1.1462    2.4847    3.8969 H   0  0  0  0  0  0  0  0  0  0  0  0
    1.3638    4.0180    3.0274 H   0  0  0  0  0  0  0  0  0  0  0  0
   -0.2650    3.4960    3.5010 H   0  0  0  0  0  0  0  0  0  0  0  0
  1  2  1  0  0  0  0
  2  3  1  0  0  0  0
  2  4  1  0  0  0  0
  2  5  1  0  0  0  0
  5  6  2  0  0  0  0
  5  7  1  0  0  0  0
  7  8  1  0  0  0  0
  7  9  1  0  0  0  0
  9 10  1  0  0  0  0
  9 11  1  0  0  0  0
  9 24  1  0  0  0  0
 11 12  1  0  0  0  0
 11 13  1  0  0  0  0
 11 17  1  0  0  0  0
 13 14  1  0  0  0  0
 13 15  1  0  0  0  0
 13 16  1  0  0  0  0
 17 18  1  0  0  0  0
 17 19  1  0  0  0  0
 17 20  1  0  0  0  0
 20 21  1  0  0  0  0
 20 22  1  0  0  0  0
 20 23  1  0  0  0  0
 24 25  2  0  0  0  0
 24 26  1  0  0  0  0
 26 27  1  0  0  0  0
 26 28  1  0  0  0  0
 28 29  1  0  0  0  0
 28 30  1  0  0  0  0
 28 31  1  0  0  0  0
M  END
$$$$

  -OEChem-01062216083D

 31 30  0     1  0  0  0  0  0999 V2000
   -3.0154   -2.9673    1.6353 H   0  0  0  0  0  0  0  0  0  0  0  0
   -3.1050   -1.9225    1.3251 C   0  0  0  0  0  0  0  0  0  0  0  0
   -3.4133   -1.3260    2.1874 H   0  0  0  0  0  0  0  0  0  0  0  0
   -3.8668   -1.8494    0.5457 H   0  0  0  0  0  0  0  0  0  0  0  0
   -1.7741   -1.4177    0.8009 C   0  0  0  0  0  0  0  0  0  0  0  0
   -0.8205   -2.1779    0.7326 O   0  0  0  0  0  0  0  0  0  0  0  0
   -1.6699   -0.1147    0.3511 N   0  0  0  0  0  0  0  0  0  0  0  0
   -2.4806    0.4592    0.5613 H   0  0  0  0  0  0  0  0  0  0  0  0
   -0.3687    0.5847    0.3140 C   0  0  1  0  0  0  0  0  0  0  0  0
    0.4529   -0.1370    0.2479 H   0  0  0  0  0  0  0  0  0  0  0  0
   -0.3215    1.4470   -0.9903 C   0  0  1  0  0  0  0  0  0  0  0  0
   -1.1793    2.1280   -1.0070 H   0  0  0  0  0  0  0  0  0  0  0  0
    0.9858    2.2717   -1.0871 C   0  0  0  0  0  0  0  0  0  0  0  0
    1.8147    1.7388   -0.6099 H   0  0  0  0  0  0  0  0  0  0  0  0
    0.8659    3.2481   -0.6134 H   0  0  0  0  0  0  0  0  0  0  0  0
    1.2756    2.4697   -2.1199 H   0  0  0  0  0  0  0  0  0  0  0  0
   -0.3972    0.5033   -2.2251 C   0  0  0  0  0  0  0  0  0  0  0  0
    0.5215   -0.0891   -2.2922 H   0  0  0  0  0  0  0  0  0  0  0  0
   -1.2252   -0.2012   -2.1055 H   0  0  0  0  0  0  0  0  0  0  0  0
   -0.6293    1.2331   -3.5557 C   0  0  0  0  0  0  0  0  0  0  0  0
    0.2442    1.8127   -3.8629 H   0  0  0  0  0  0  0  0  0  0  0  0
   -0.8362    0.5022   -4.3435 H   0  0  0  0  0  0  0  0  0  0  0  0
   -1.4888    1.9059   -3.4766 H   0  0  0  0  0  0  0  0  0  0  0  0
   -0.1807    1.3080    1.6840 C   0  0  0  0  0  0  0  0  0  0  0  0
   -0.5589    0.7614    2.7135 O   0  0  0  0  0  0  0  0  0  0  0  0
    0.2685    2.6101    1.8131 N   0  0  0  0  0  0  0  0  0  0  0  0
    0.5595    3.0894    0.9697 H   0  0  0  0  0  0  0  0  0  0  0  0
    0.3882    3.3053    3.0902 C   0  0  0  0  0  0  0  0  0  0  0  0
    1.0714    2.7682    3.7566 H   0  0  0  0  0  0  0  0  0  0  0  0
    0.7797    4.3151    2.9354 H   0  0  0  0  0  0  0  0  0  0  0  0
   -0.5896    3.3847    3.5770 H   0  0  0  0  0  0  0  0  0  0  0  0
  1  2  1  0  0  0  0
  2  3  1  0  0  0  0
  2  4  1  0  0  0  0
  2  5  1  0  0  0  0
  5  6  2  0  0  0  0
  5  7  1  0  0  0  0
  7  8  1  0  0  0  0
  7  9  1  0  0  0  0
  9 10  1  0  0  0  0
  9 11  1  0  0  0  0
  9 24  1  0  0  0  0
 11 12  1  0  0  0  0
 11 13  1  0  0  0  0
 11 17  1  0  0  0  0
 13 14  1  0  0  0  0
 13 15  1  0  0  0  0
 13 16  1  0  0  0  0
 17 18  1  0  0  0  0
 17 19  1  0  0  0  0
 17 20  1  0  0  0  0
 20 21  1  0  0  0  0
 20 22  1  0  0  0  0
 20 23  1  0  0  0  0
 24 25  2  0  0  0  0
 24 26  1  0  0  0  0
 26 27  1  0  0  0  0
 26 28  1  0  0  0  0
 28 29  1  0  0  0  0
 28 30  1  0  0  0  0
 28 31  1  0  0  0  0
M  END
$$$$

  -OEChem-01062216083D

 31 30  0     1  0  0  0  0  0999 V2000
   -3.0519   -2.9545    1.6553 H   0  0  0  0  0  0  0  0  0  0  0  0
   -3.1313   -1.9090    1.3444 C   0  0  0  0  0  0  0  0  0  0  0  0
   -3.4507   -1.3114    2.2018 H   0  0  0  0  0  0  0  0  0  0  0  0
   -3.8800   -1.8321    0.5524 H   0  0  0  0  0  0  0  0  0  0  0  0
   -1.7895   -1.4114    0.8416 C   0  0  0  0  0  0  0  0  0  0  0  0
   -0.8413   -2.1786    0.7874 O   0  0  0  0  0  0  0  0  0  0  0  0
   -1.6749   -0.1147    0.3756 N   0  0  0  0  0  0  0  0  0  0  0  0
   -2.4906    0.4648    0.5459 H   0  0  0  0  0  0  0  0  0  0  0  0
   -0.3716    0.5776    0.3171 C   0  0  1  0  0  0  0  0  0  0  0  0
    0.4477   -0.1473    0.2536 H   0  0  0  0  0  0  0  0  0  0  0  0
   -0.3113    1.4510   -0.9746 C   0  0  1  0  0  0  0  0  0  0  0  0
   -1.1424    2.1643   -0.9696 H   0  0  0  0  0  0  0  0  0  0  0  0
    1.0339    2.2101   -1.1015 C   0  0  0  0  0  0  0  0  0  0  0  0
    1.8675    1.5012   -1.1393 H   0  0  0  0  0  0  0  0  0  0  0  0
    1.0541    2.8150   -2.0113 H   0  0  0  0  0  0  0  0  0  0  0  0
    1.2168    2.8952   -0.2758 H   0  0  0  0  0  0  0  0  0  0  0  0
   -0.4069    0.5228   -2.2177 C   0  0  0  0  0  0  0  0  0  0  0  0
    0.4944   -0.0944   -2.2968 H   0  0  0  0  0  0  0  0  0  0  0  0
   -1.2527   -0.1613   -2.1038 H   0  0  0  0  0  0  0  0  0  0  0  0
   -0.6258    1.2811   -3.5318 C   0  0  0  0  0  0  0  0  0  0  0  0
    0.2637    1.8476   -3.8192 H   0  0  0  0  0  0  0  0  0  0  0  0
   -0.8445    0.5710   -4.3352 H   0  0  0  0  0  0  0  0  0  0  0  0
   -1.4710    1.9703   -3.4407 H   0  0  0  0  0  0  0  0  0  0  0  0
   -0.1981    1.3040    1.6836 C   0  0  0  0  0  0  0  0  0  0  0  0
   -0.3032    0.6733    2.7273 O   0  0  0  0  0  0  0  0  0  0  0  0
   -0.0517    2.6756    1.7968 N   0  0  0  0  0  0  0  0  0  0  0  0
   -0.0293    3.2139    0.9368 H   0  0  0  0  0  0  0  0  0  0  0  0
    0.0528    3.3784    3.0708 C   0  0  0  0  0  0  0  0  0  0  0  0
    0.9079    3.0059    3.6450 H   0  0  0  0  0  0  0  0  0  0  0  0
    0.1926    4.4502    2.9009 H   0  0  0  0  0  0  0  0  0  0  0  0
   -0.8577    3.2373    3.6626 H   0  0  0  0  0  0  0  0  0  0  0  0
  1  2  1  0  0  0  0
  2  3  1  0  0  0  0
  2  4  1  0  0  0  0
  2  5  1  0  0  0  0
  5  6  2  0  0  0  0
  5  7  1  0  0  0  0
  7  8  1  0  0  0  0
  7  9  1  0  0  0  0
  9 10  1  0  0  0  0
  9 11  1  0  0  0  0
  9 24  1  0  0  0  0
 11 12  1  0  0  0  0
 11 13  1  0  0  0  0
 11 17  1  0  0  0  0
 13 14  1  0  0  0  0
 13 15  1  0  0  0  0
 13 16  1  0  0  0  0
 17 18  1  0  0  0  0
 17 19  1  0  0  0  0
 17 20  1  0  0  0  0
 20 21  1  0  0  0  0
 20 22  1  0  0  0  0
 20 23  1  0  0  0  0
 24 25  2  0  0  0  0
 24 26  1  0  0  0  0
 26 27  1  0  0  0  0
 26 28  1  0  0  0  0
 28 29  1  0  0  0  0
 28 30  1  0  0  0  0
 28 31  1  0  0  0  0
M  END
$$$$

  -OEChem-01062216083D

 31 30  0     1  0  0  0  0  0999 V2000
   -3.0804   -2.9739    1.6661 H   0  0  0  0  0  0  0  0  0  0  0  0
   -3.1610   -1.9391    1.3216 C   0  0  0  0  0  0  0  0  0  0  0  0
   -3.5260   -1.3226    2.1466 H   0  0  0  0  0  0  0  0  0  0  0  0
   -3.8755   -1.8965    0.4964 H   0  0  0  0  0  0  0  0  0  0  0  0
   -1.8053   -1.4365    0.8625 C   0  0  0  0  0  0  0  0  0  0  0  0
   -0.8504   -2.1960    0.8550 O   0  0  0  0  0  0  0  0  0  0  0  0
   -1.6846   -0.1439    0.3875 N   0  0  0  0  0  0  0  0  0  0  0  0
   -2.5131    0.4311    0.5018 H   0  0  0  0  0  0  0  0  0  0  0  0
   -0.3859    0.5553    0.3335 C   0  0  1  0  0  0  0  0  0  0  0  0
    0.4359   -0.1679    0.2737 H   0  0  0  0  0  0  0  0  0  0  0  0
   -0.3166    1.4378   -0.9471 C   0  0  1  0  0  0  0  0  0  0  0  0
   -1.1546    2.1427   -0.9423 H   0  0  0  0  0  0  0  0  0  0  0  0
    1.0176    2.2176   -1.0250 C   0  0  0  0  0  0  0  0  0  0  0  0
    1.8602    1.5230   -1.1056 H   0  0  0  0  0  0  0  0  0  0  0  0
    1.0293    2.8782   -1.8958 H   0  0  0  0  0  0  0  0  0  0  0  0
    1.1868    2.8465   -0.1502 H   0  0  0  0  0  0  0  0  0  0  0  0
   -0.3987    0.5320   -2.2045 C   0  0  0  0  0  0  0  0  0  0  0  0
    0.5061   -0.0796   -2.2871 H   0  0  0  0  0  0  0  0  0  0  0  0
   -1.2433   -0.1568   -2.1089 H   0  0  0  0  0  0  0  0  0  0  0  0
   -0.6065    1.3187   -3.5030 C   0  0  0  0  0  0  0  0  0  0  0  0
    0.2789    1.9081   -3.7558 H   0  0  0  0  0  0  0  0  0  0  0  0
   -0.7962    0.6258   -4.3284 H   0  0  0  0  0  0  0  0  0  0  0  0
   -1.4651    1.9909   -3.4118 H   0  0  0  0  0  0  0  0  0  0  0  0
   -0.2111    1.2992    1.6843 C   0  0  0  0  0  0  0  0  0  0  0  0
   -0.0437    0.6669    2.7171 O   0  0  0  0  0  0  0  0  0  0  0  0
   -0.3717    2.6706    1.7917 N   0  0  0  0  0  0  0  0  0  0  0  0
   -0.5109    3.1919    0.9316 H   0  0  0  0  0  0  0  0  0  0  0  0
   -0.2541    3.3998    3.0493 C   0  0  0  0  0  0  0  0  0  0  0  0
    0.7465    3.2702    3.4750 H   0  0  0  0  0  0  0  0  0  0  0  0
   -0.4245    4.4680    2.8846 H   0  0  0  0  0  0  0  0  0  0  0  0
   -0.9936    3.0397    3.7724 H   0  0  0  0  0  0  0  0  0  0  0  0
  1  2  1  0  0  0  0
  2  3  1  0  0  0  0
  2  4  1  0  0  0  0
  2  5  1  0  0  0  0
  5  6  2  0  0  0  0
  5  7  1  0  0  0  0
  7  8  1  0  0  0  0
  7  9  1  0  0  0  0
  9 10  1  0  0  0  0
  9 11  1  0  0  0  0
  9 24  1  0  0  0  0
 11 12  1  0  0  0  0
 11 13  1  0  0  0  0
 11 17  1  0  0  0  0
 13 14  1  0  0  0  0
 13 15  1  0  0  0  0
 13 16  1  0  0  0  0
 17 18  1  0  0  0  0
 17 19  1  0  0  0  0
 17 20  1  0  0  0  0
 20 21  1  0  0  0  0
 20 22  1  0  0  0  0
 20 23  1  0  0  0  0
 24 25  2  0  0  0  0
 24 26  1  0  0  0  0
 26 27  1  0  0  0  0
 26 28  1  0  0  0  0
 28 29  1  0  0  0  0
 28 30  1  0  0  0  0
 28 31  1  0  0  0  0
M  END
$$$$

  -OEChem-01062216083D

 31 30  0     1  0  0  0  0  0999 V2000
   -3.1251   -3.0165    1.6190 H   0  0  0  0  0  0  0  0  0  0  0  0
   -3.2000   -1.9899    1.2492 C   0  0  0  0  0  0  0  0  0  0  0  0
   -3.6435   -1.3679    2.0304 H   0  0  0  0  0  0  0  0  0  0  0  0
   -3.8472   -1.9786    0.3691 H   0  0  0  0  0  0  0  0  0  0  0  0
   -1.8232   -1.4649    0.8879 C   0  0  0  0  0  0  0  0  0  0  0  0
   -0.8572   -2.2048    0.9648 O   0  0  0  0  0  0  0  0  0  0  0  0
   -1.6913   -0.1743    0.4111 N   0  0  0  0  0  0  0  0  0  0  0  0
   -2.5332    0.3910    0.4481 H   0  0  0  0  0  0  0  0  0  0  0  0
   -0.3970    0.5328    0.3634 C   0  0  1  0  0  0  0  0  0  0  0  0
    0.4259   -0.1889    0.2995 H   0  0  0  0  0  0  0  0  0  0  0  0
   -0.3293    1.4244   -0.9088 C   0  0  1  0  0  0  0  0  0  0  0  0
   -1.1786    2.1155   -0.9042 H   0  0  0  0  0  0  0  0  0  0  0  0
    0.9849    2.2360   -0.9455 C   0  0  0  0  0  0  0  0  0  0  0  0
    1.8478    1.5634   -0.9890 H   0  0  0  0  0  0  0  0  0  0  0  0
    1.0130    2.8928   -1.8187 H   0  0  0  0  0  0  0  0  0  0  0  0
    1.0948    2.8724   -0.0646 H   0  0  0  0  0  0  0  0  0  0  0  0
   -0.4003    0.5371   -2.1778 C   0  0  0  0  0  0  0  0  0  0  0  0
    0.5123   -0.0619   -2.2655 H   0  0  0  0  0  0  0  0  0  0  0  0
   -1.2379   -0.1617   -2.0949 H   0  0  0  0  0  0  0  0  0  0  0  0
   -0.6084    1.3437   -3.4639 C   0  0  0  0  0  0  0  0  0  0  0  0
    0.2704    1.9509   -3.6972 H   0  0  0  0  0  0  0  0  0  0  0  0
   -0.7807    0.6641   -4.3042 H   0  0  0  0  0  0  0  0  0  0  0  0
   -1.4775    2.0016   -3.3680 H   0  0  0  0  0  0  0  0  0  0  0  0
   -0.2065    1.2932    1.6985 C   0  0  0  0  0  0  0  0  0  0  0  0
    0.2830    0.7365    2.6696 O   0  0  0  0  0  0  0  0  0  0  0  0
   -0.6582    2.5943    1.8460 N   0  0  0  0  0  0  0  0  0  0  0  0
   -1.0150    3.0595    1.0175 H   0  0  0  0  0  0  0  0  0  0  0  0
   -0.5002    3.3628    3.0752 C   0  0  0  0  0  0  0  0  0  0  0  0
    0.5612    3.4965    3.3091 H   0  0  0  0  0  0  0  0  0  0  0  0
   -0.9583    4.3504    2.9657 H   0  0  0  0  0  0  0  0  0  0  0  0
   -0.9835    2.8499    3.9135 H   0  0  0  0  0  0  0  0  0  0  0  0
  1  2  1  0  0  0  0
  2  3  1  0  0  0  0
  2  4  1  0  0  0  0
  2  5  1  0  0  0  0
  5  6  2  0  0  0  0
  5  7  1  0  0  0  0
  7  8  1  0  0  0  0
  7  9  1  0  0  0  0
  9 10  1  0  0  0  0
  9 11  1  0  0  0  0
  9 24  1  0  0  0  0
 11 12  1  0  0  0  0
 11 13  1  0  0  0  0
 11 17  1  0  0  0  0
 13 14  1  0  0  0  0
 13 15  1  0  0  0  0
 13 16  1  0  0  0  0
 17 18  1  0  0  0  0
 17 19  1  0  0  0  0
 17 20  1  0  0  0  0
 20 21  1  0  0  0  0
 20 22  1  0  0  0  0
 20 23  1  0  0  0  0
 24 25  2  0  0  0  0
 24 26  1  0  0  0  0
 26 27  1  0  0  0  0
 26 28  1  0  0  0  0
 28 29  1  0  0  0  0
 28 30  1  0  0  0  0
 28 31  1  0  0  0  0
M  END
$$$$

  -OEChem-01062216083D

 31 30  0     1  0  0  0  0  0999 V2000
   -3.1746   -3.0659    1.5414 H   0  0  0  0  0  0  0  0  0  0  0  0
   -3.2356   -2.0526    1.1343 C   0  0  0  0  0  0  0  0  0  0  0  0
   -3.7852   -1.4243    1.8391 H   0  0  0  0  0  0  0  0  0  0  0  0
   -3.7757   -2.0864    0.1852 H   0  0  0  0  0  0  0  0  0  0  0  0
   -1.8420   -1.4930    0.9186 C   0  0  0  0  0  0  0  0  0  0  0  0
   -0.8703   -2.1979    1.1269 O   0  0  0  0  0  0  0  0  0  0  0  0
   -1.6938   -0.2037    0.4447 N   0  0  0  0  0  0  0  0  0  0  0  0
   -2.5460    0.3377    0.3453 H   0  0  0  0  0  0  0  0  0  0  0  0
   -0.4030    0.5106    0.4028 C   0  0  1  0  0  0  0  0  0  0  0  0
    0.4196   -0.2111    0.3294 H   0  0  0  0  0  0  0  0  0  0  0  0
   -0.3466    1.4120   -0.8615 C   0  0  1  0  0  0  0  0  0  0  0  0
   -1.2060    2.0904   -0.8501 H   0  0  0  0  0  0  0  0  0  0  0  0
    0.9475    2.2528   -0.8770 C   0  0  0  0  0  0  0  0  0  0  0  0
    1.8269    1.6009   -0.8892 H   0  0  0  0  0  0  0  0  0  0  0  0
    0.9837    2.9008   -1.7563 H   0  0  0  0  0  0  0  0  0  0  0  0
    1.0129    2.9011    0.0011 H   0  0  0  0  0  0  0  0  0  0  0  0
   -0.4137    0.5381   -2.1394 C   0  0  0  0  0  0  0  0  0  0  0  0
    0.5061   -0.0486   -2.2348 H   0  0  0  0  0  0  0  0  0  0  0  0
   -1.2428   -0.1713   -2.0623 H   0  0  0  0  0  0  0  0  0  0  0  0
   -0.6323    1.3559   -3.4162 C   0  0  0  0  0  0  0  0  0  0  0  0
    0.2367    1.9799   -3.6411 H   0  0  0  0  0  0  0  0  0  0  0  0
   -0.7920    0.6831   -4.2644 H   0  0  0  0  0  0  0  0  0  0  0  0
   -1.5121    1.9984   -3.3144 H   0  0  0  0  0  0  0  0  0  0  0  0
   -0.1906    1.2851    1.7238 C   0  0  0  0  0  0  0  0  0  0  0  0
    0.6195    0.9009    2.5539 O   0  0  0  0  0  0  0  0  0  0  0  0
   -0.8930    2.4531    1.9702 N   0  0  0  0  0  0  0  0  0  0  0  0
   -1.4910    2.8023    1.2290 H   0  0  0  0  0  0  0  0  0  0  0  0
   -0.6818    3.2759    3.1550 C   0  0  0  0  0  0  0  0  0  0  0  0
    0.3471    3.6496    3.1831 H   0  0  0  0  0  0  0  0  0  0  0  0
   -1.3620    4.1328    3.1472 H   0  0  0  0  0  0  0  0  0  0  0  0
   -0.8704    2.6941    4.0635 H   0  0  0  0  0  0  0  0  0  0  0  0
  1  2  1  0  0  0  0
  2  3  1  0  0  0  0
  2  4  1  0  0  0  0
  2  5  1  0  0  0  0
  5  6  2  0  0  0  0
  5  7  1  0  0  0  0
  7  8  1  0  0  0  0
  7  9  1  0  0  0  0
  9 10  1  0  0  0  0
  9 11  1  0  0  0  0
  9 24  1  0  0  0  0
 11 12  1  0  0  0  0
 11 13  1  0  0  0  0
 11 17  1  0  0  0  0
 13 14  1  0  0  0  0
 13 15  1  0  0  0  0
 13 16  1  0  0  0  0
 17 18  1  0  0  0  0
 17 19  1  0  0  0  0
 17 20  1  0  0  0  0
 20 21  1  0  0  0  0
 20 22  1  0  0  0  0
 20 23  1  0  0  0  0
 24 25  2  0  0  0  0
 24 26  1  0  0  0  0
 26 27  1  0  0  0  0
 26 28  1  0  0  0  0
 28 29  1  0  0  0  0
 28 30  1  0  0  0  0
 28 31  1  0  0  0  0
M  END
$$$$

  -OEChem-01062216083D

 31 30  0     1  0  0  0  0  0999 V2000
   -3.1932   -3.1233    1.3896 H   0  0  0  0  0  0  0  0  0  0  0  0
   -3.2424   -2.1049    0.9934 C   0  0  0  0  0  0  0  0  0  0  0  0
   -3.9154   -1.5163    1.6214 H   0  0  0  0  0  0  0  0  0  0  0  0
   -3.6401   -2.1427   -0.0236 H   0  0  0  0  0  0  0  0  0  0  0  0
   -1.8599   -1.4798    0.9880 C   0  0  0  0  0  0  0  0  0  0  0  0
   -0.9061   -2.1193    1.3936 O   0  0  0  0  0  0  0  0  0  0  0  0
   -1.6937   -0.1977    0.5022 N   0  0  0  0  0  0  0  0  0  0  0  0
   -2.5178    0.2656    0.1344 H   0  0  0  0  0  0  0  0  0  0  0  0
   -0.3975    0.5061    0.4437 C   0  0  1  0  0  0  0  0  0  0  0  0
    0.4161   -0.2251    0.3610 H   0  0  0  0  0  0  0  0  0  0  0  0
   -0.3568    1.4047   -0.8229 C   0  0  1  0  0  0  0  0  0  0  0  0
   -1.2133    2.0866   -0.7963 H   0  0  0  0  0  0  0  0  0  0  0  0
    0.9351    2.2474   -0.8575 C   0  0  0  0  0  0  0  0  0  0  0  0
    1.8161    1.5975   -0.8561 H   0  0  0  0  0  0  0  0  0  0  0  0
    0.9705    2.8785   -1.7488 H   0  0  0  0  0  0  0  0  0  0  0  0
    0.9964    2.9129    0.0086 H   0  0  0  0  0  0  0  0  0  0  0  0
   -0.4493    0.5309   -2.0994 C   0  0  0  0  0  0  0  0  0  0  0  0
    0.4667   -0.0596   -2.2089 H   0  0  0  0  0  0  0  0  0  0  0  0
   -1.2803   -0.1746   -2.0096 H   0  0  0  0  0  0  0  0  0  0  0  0
   -0.6840    1.3490   -3.3732 C   0  0  0  0  0  0  0  0  0  0  0  0
    0.1884    1.9612   -3.6170 H   0  0  0  0  0  0  0  0  0  0  0  0
   -0.8691    0.6765   -4.2164 H   0  0  0  0  0  0  0  0  0  0  0  0
   -1.5531    2.0034   -3.2555 H   0  0  0  0  0  0  0  0  0  0  0  0
   -0.1497    1.2975    1.7475 C   0  0  0  0  0  0  0  0  0  0  0  0
    0.8844    1.1463    2.3822 O   0  0  0  0  0  0  0  0  0  0  0  0
   -1.0321    2.2901    2.1379 N   0  0  0  0  0  0  0  0  0  0  0  0
   -1.8684    2.4179    1.5796 H   0  0  0  0  0  0  0  0  0  0  0  0
   -0.8286    3.1244    3.3156 C   0  0  0  0  0  0  0  0  0  0  0  0
    0.1021    3.6944    3.2247 H   0  0  0  0  0  0  0  0  0  0  0  0
   -1.6567    3.8306    3.4276 H   0  0  0  0  0  0  0  0  0  0  0  0
   -0.7766    2.5059    4.2178 H   0  0  0  0  0  0  0  0  0  0  0  0
  1  2  1  0  0  0  0
  2  3  1  0  0  0  0
  2  4  1  0  0  0  0
  2  5  1  0  0  0  0
  5  6  2  0  0  0  0
  5  7  1  0  0  0  0
  7  8  1  0  0  0  0
  7  9  1  0  0  0  0
  9 10  1  0  0  0  0
  9 11  1  0  0  0  0
  9 24  1  0  0  0  0
 11 12  1  0  0  0  0
 11 13  1  0  0  0  0
 11 17  1  0  0  0  0
 13 14  1  0  0  0  0
 13 15  1  0  0  0  0
 13 16  1  0  0  0  0
 17 18  1  0  0  0  0
 17 19  1  0  0  0  0
 17 20  1  0  0  0  0
 20 21  1  0  0  0  0
 20 22  1  0  0  0  0
 20 23  1  0  0  0  0
 24 25  2  0  0  0  0
 24 26  1  0  0  0  0
 26 27  1  0  0  0  0
 26 28  1  0  0  0  0
 28 29  1  0  0  0  0
 28 30  1  0  0  0  0
 28 31  1  0  0  0  0
M  END
$$$$

  -OEChem-01062216083D

 31 30  0     1  0  0  0  0  0999 V2000
   -3.1719   -3.1388    1.3030 H   0  0  0  0  0  0  0  0  0  0  0  0
   -3.2255   -2.1193    0.9103 C   0  0  0  0  0  0  0  0  0  0  0  0
   -3.9734   -1.5624    1.4796 H   0  0  0  0  0  0  0  0  0  0  0  0
   -3.5307   -2.1629   -0.1379 H   0  0  0  0  0  0  0  0  0  0  0  0
   -1.8729   -1.4428    1.0301 C   0  0  0  0  0  0  0  0  0  0  0  0
   -0.9458   -2.0297    1.5587 O   0  0  0  0  0  0  0  0  0  0  0  0
   -1.7012   -0.1674    0.5296 N   0  0  0  0  0  0  0  0  0  0  0  0
   -2.4764    0.2245    0.0046 H   0  0  0  0  0  0  0  0  0  0  0  0
   -0.3953    0.5188    0.4638 C   0  0  1  0  0  0  0  0  0  0  0  0
    0.4091   -0.2220    0.3824 H   0  0  0  0  0  0  0  0  0  0  0  0
   -0.3616    1.4058   -0.8125 C   0  0  1  0  0  0  0  0  0  0  0  0
   -1.2140    2.0930   -0.7800 H   0  0  0  0  0  0  0  0  0  0  0  0
    0.9317    2.2442   -0.8743 C   0  0  0  0  0  0  0  0  0  0  0  0
    1.8115    1.5927   -0.8638 H   0  0  0  0  0  0  0  0  0  0  0  0
    0.9631    2.8563   -1.7787 H   0  0  0  0  0  0  0  0  0  0  0  0
    0.9978    2.9291   -0.0240 H   0  0  0  0  0  0  0  0  0  0  0  0
   -0.4748    0.5214   -2.0808 C   0  0  0  0  0  0  0  0  0  0  0  0
    0.4358   -0.0766   -2.1949 H   0  0  0  0  0  0  0  0  0  0  0  0
   -1.3094   -0.1774   -1.9774 H   0  0  0  0  0  0  0  0  0  0  0  0
   -0.7172    1.3296   -3.3596 C   0  0  0  0  0  0  0  0  0  0  0  0
    0.1591    1.9283   -3.6224 H   0  0  0  0  0  0  0  0  0  0  0  0
   -0.9226    0.6508   -4.1931 H   0  0  0  0  0  0  0  0  0  0  0  0
   -1.5764    1.9960   -3.2362 H   0  0  0  0  0  0  0  0  0  0  0  0
   -0.1269    1.3221    1.7566 C   0  0  0  0  0  0  0  0  0  0  0  0
    0.9966    1.3664    2.2394 O   0  0  0  0  0  0  0  0  0  0  0  0
   -1.1238    2.1072    2.3086 N   0  0  0  0  0  0  0  0  0  0  0  0
   -2.0578    1.9909    1.9319 H   0  0  0  0  0  0  0  0  0  0  0  0
   -0.9447    2.8768    3.5333 C   0  0  0  0  0  0  0  0  0  0  0  0
   -0.1281    3.5973    3.4176 H   0  0  0  0  0  0  0  0  0  0  0  0
   -1.8593    3.4284    3.7710 H   0  0  0  0  0  0  0  0  0  0  0  0
   -0.7119    2.2117    4.3715 H   0  0  0  0  0  0  0  0  0  0  0  0
  1  2  1  0  0  0  0
  2  3  1  0  0  0  0
  2  4  1  0  0  0  0
  2  5  1  0  0  0  0
  5  6  2  0  0  0  0
  5  7  1  0  0  0  0
  7  8  1  0  0  0  0
  7  9  1  0  0  0  0
  9 10  1  0  0  0  0
  9 11  1  0  0  0  0
  9 24  1  0  0  0  0
 11 12  1  0  0  0  0
 11 13  1  0  0  0  0
 11 17  1  0  0  0  0
 13 14  1  0  0  0  0
 13 15  1  0  0  0  0
 13 16  1  0  0  0  0
 17 18  1  0  0  0  0
 17 19  1  0  0  0  0
 17 20  1  0  0  0  0
 20 21  1  0  0  0  0
 20 22  1  0  0  0  0
 20 23  1  0  0  0  0
 24 25  2  0  0  0  0
 24 26  1  0  0  0  0
 26 27  1  0  0  0  0
 26 28  1  0  0  0  0
 28 29  1  0  0  0  0
 28 30  1  0  0  0  0
 28 31  1  0  0  0  0
M  END
$$$$

  -OEChem-01062216083D

 31 30  0     1  0  0  0  0  0999 V2000
   -3.1647   -3.1292    1.2783 H   0  0  0  0  0  0  0  0  0  0  0  0
   -3.2207   -2.1087    0.8886 C   0  0  0  0  0  0  0  0  0  0  0  0
   -3.9815   -1.5598    1.4486 H   0  0  0  0  0  0  0  0  0  0  0  0
   -3.5109   -2.1513   -0.1639 H   0  0  0  0  0  0  0  0  0  0  0  0
   -1.8753   -1.4221    1.0313 C   0  0  0  0  0  0  0  0  0  0  0  0
   -0.9597   -1.9919    1.5974 O   0  0  0  0  0  0  0  0  0  0  0  0
   -1.6999   -0.1480    0.5285 N   0  0  0  0  0  0  0  0  0  0  0  0
   -2.4599    0.2310   -0.0282 H   0  0  0  0  0  0  0  0  0  0  0  0
   -0.3895    0.5332    0.4685 C   0  0  1  0  0  0  0  0  0  0  0  0
    0.4144   -0.2084    0.3913 H   0  0  0  0  0  0  0  0  0  0  0  0
   -0.3612    1.4111   -0.8169 C   0  0  1  0  0  0  0  0  0  0  0  0
   -1.2170    2.0940   -0.7867 H   0  0  0  0  0  0  0  0  0  0  0  0
    0.9242    2.2600   -0.8977 C   0  0  0  0  0  0  0  0  0  0  0  0
    1.8106    1.6185   -0.8627 H   0  0  0  0  0  0  0  0  0  0  0  0
    0.9556    2.8463   -1.8189 H   0  0  0  0  0  0  0  0  0  0  0  0
    0.9768    2.9715   -0.0688 H   0  0  0  0  0  0  0  0  0  0  0  0
   -0.4758    0.5150   -2.0786 C   0  0  0  0  0  0  0  0  0  0  0  0
    0.4365   -0.0810   -2.1895 H   0  0  0  0  0  0  0  0  0  0  0  0
   -1.3082   -0.1853   -1.9679 H   0  0  0  0  0  0  0  0  0  0  0  0
   -0.7235    1.3089   -3.3661 C   0  0  0  0  0  0  0  0  0  0  0  0
    0.1517    1.9035   -3.6409 H   0  0  0  0  0  0  0  0  0  0  0  0
   -0.9336    0.6212   -4.1909 H   0  0  0  0  0  0  0  0  0  0  0  0
   -1.5817    1.9772   -3.2464 H   0  0  0  0  0  0  0  0  0  0  0  0
   -0.1227    1.3392    1.7624 C   0  0  0  0  0  0  0  0  0  0  0  0
    1.0217    1.5524    2.1404 O   0  0  0  0  0  0  0  0  0  0  0  0
   -1.1754    1.8778    2.4807 N   0  0  0  0  0  0  0  0  0  0  0  0
   -2.1029    1.5621    2.2193 H   0  0  0  0  0  0  0  0  0  0  0  0
   -0.9979    2.5623    3.7552 C   0  0  0  0  0  0  0  0  0  0  0  0
   -0.3313    3.4233    3.6385 H   0  0  0  0  0  0  0  0  0  0  0  0
   -1.9612    2.9218    4.1294 H   0  0  0  0  0  0  0  0  0  0  0  0
   -0.5679    1.8817    4.4976 H   0  0  0  0  0  0  0  0  0  0  0  0
  1  2  1  0  0  0  0
  2  3  1  0  0  0  0
  2  4  1  0  0  0  0
  2  5  1  0  0  0  0
  5  6  2  0  0  0  0
  5  7  1  0  0  0  0
  7  8  1  0  0  0  0
  7  9  1  0  0  0  0
  9 10  1  0  0  0  0
  9 11  1  0  0  0  0
  9 24  1  0  0  0  0
 11 12  1  0  0  0  0
 11 13  1  0  0  0  0
 11 17  1  0  0  0  0
 13 14  1  0  0  0  0
 13 15  1  0  0  0  0
 13 16  1  0  0  0  0
 17 18  1  0  0  0  0
 17 19  1  0  0  0  0
 17 20  1  0  0  0  0
 20 21  1  0  0  0  0
 20 22  1  0  0  0  0
 20 23  1  0  0  0  0
 24 25  2  0  0  0  0
 24 26  1  0  0  0  0
 26 27  1  0  0  0  0
 26 28  1  0  0  0  0
 28 29  1  0  0  0  0
 28 30  1  0  0  0  0
 28 31  1  0  0  0  0
M  END
$$$$

  -OEChem-01062216083D

 31 30  0     1  0  0  0  0  0999 V2000
   -3.1652   -3.1174    1.2392 H   0  0  0  0  0  0  0  0  0  0  0  0
   -3.2163   -2.0990    0.8432 C   0  0  0  0  0  0  0  0  0  0  0  0
   -3.9998   -1.5537    1.3749 H   0  0  0  0  0  0  0  0  0  0  0  0
   -3.4711   -2.1484   -0.2183 H   0  0  0  0  0  0  0  0  0  0  0  0
   -1.8817   -1.4011    1.0257 C   0  0  0  0  0  0  0  0  0  0  0  0
   -0.9789   -1.9593    1.6231 O   0  0  0  0  0  0  0  0  0  0  0  0
   -1.7016   -0.1256    0.5293 N   0  0  0  0  0  0  0  0  0  0  0  0
   -2.4539    0.2538   -0.0380 H   0  0  0  0  0  0  0  0  0  0  0  0
   -0.3889    0.5541    0.4803 C   0  0  1  0  0  0  0  0  0  0  0  0
    0.4151   -0.1875    0.4079 H   0  0  0  0  0  0  0  0  0  0  0  0
   -0.3676    1.4189   -0.8178 C   0  0  1  0  0  0  0  0  0  0  0  0
   -1.2299    2.0939   -0.7956 H   0  0  0  0  0  0  0  0  0  0  0  0
    0.9073    2.2808   -0.9191 C   0  0  0  0  0  0  0  0  0  0  0  0
    1.8013    1.6531   -0.8474 H   0  0  0  0  0  0  0  0  0  0  0  0
    0.9441    2.8310   -1.8618 H   0  0  0  0  0  0  0  0  0  0  0  0
    0.9382    3.0268   -0.1202 H   0  0  0  0  0  0  0  0  0  0  0  0
   -0.4769    0.5054   -2.0690 C   0  0  0  0  0  0  0  0  0  0  0  0
    0.4405   -0.0839   -2.1724 H   0  0  0  0  0  0  0  0  0  0  0  0
   -1.3025   -0.2011   -1.9500 H   0  0  0  0  0  0  0  0  0  0  0  0
   -0.7318    1.2766   -3.3688 C   0  0  0  0  0  0  0  0  0  0  0  0
    0.1399    1.8692   -3.6588 H   0  0  0  0  0  0  0  0  0  0  0  0
   -0.9432    0.5734   -4.1801 H   0  0  0  0  0  0  0  0  0  0  0  0
   -1.5918    1.9439   -3.2572 H   0  0  0  0  0  0  0  0  0  0  0  0
   -0.1230    1.3579    1.7796 C   0  0  0  0  0  0  0  0  0  0  0  0
    1.0062    1.7320    2.0689 O   0  0  0  0  0  0  0  0  0  0  0  0
   -1.1557    1.6348    2.6580 N   0  0  0  0  0  0  0  0  0  0  0  0
   -2.0286    1.1503    2.4787 H   0  0  0  0  0  0  0  0  0  0  0  0
   -0.9435    2.2368    3.9684 C   0  0  0  0  0  0  0  0  0  0  0  0
   -0.4527    3.2107    3.8679 H   0  0  0  0  0  0  0  0  0  0  0  0
   -1.9011    2.3854    4.4764 H   0  0  0  0  0  0  0  0  0  0  0  0
   -0.3165    1.5887    4.5899 H   0  0  0  0  0  0  0  0  0  0  0  0
  1  2  1  0  0  0  0
  2  3  1  0  0  0  0
  2  4  1  0  0  0  0
  2  5  1  0  0  0  0
  5  6  2  0  0  0  0
  5  7  1  0  0  0  0
  7  8  1  0  0  0  0
  7  9  1  0  0  0  0
  9 10  1  0  0  0  0
  9 11  1  0  0  0  0
  9 24  1  0  0  0  0
 11 12  1  0  0  0  0
 11 13  1  0  0  0  0
 11 17  1  0  0  0  0
 13 14  1  0  0  0  0
 13 15  1  0  0  0  0
 13 16  1  0  0  0  0
 17 18  1  0  0  0  0
 17 19  1  0  0  0  0
 17 20  1  0  0  0  0
 20 21  1  0  0  0  0
 20 22  1  0  0  0  0
 20 23  1  0  0  0  0
 24 25  2  0  0  0  0
 24 26  1  0  0  0  0
 26 27  1  0  0  0  0
 26 28  1  0  0  0  0
 28 29  1  0  0  0  0
 28 30  1  0  0  0  0
 28 31  1  0  0  0  0
M  END
$$$$

  -OEChem-01062216083D

 31 30  0     1  0  0  0  0  0999 V2000
   -3.1794   -3.0945    1.2227 H   0  0  0  0  0  0  0  0  0  0  0  0
   -3.2177   -2.0818    0.8115 C   0  0  0  0  0  0  0  0  0  0  0  0
   -4.0099   -1.5255    1.3182 H   0  0  0  0  0  0  0  0  0  0  0  0
   -3.4502   -2.1455   -0.2543 H   0  0  0  0  0  0  0  0  0  0  0  0
   -1.8842   -1.3869    1.0119 C   0  0  0  0  0  0  0  0  0  0  0  0
   -0.9923   -1.9415    1.6288 O   0  0  0  0  0  0  0  0  0  0  0  0
   -1.6961   -0.1079    0.5291 N   0  0  0  0  0  0  0  0  0  0  0  0
   -2.4490    0.2876   -0.0266 H   0  0  0  0  0  0  0  0  0  0  0  0
   -0.3824    0.5717    0.4903 C   0  0  1  0  0  0  0  0  0  0  0  0
    0.4222   -0.1689    0.4181 H   0  0  0  0  0  0  0  0  0  0  0  0
   -0.3701    1.4288   -0.8169 C   0  0  1  0  0  0  0  0  0  0  0  0
   -1.2380    2.0966   -0.7988 H   0  0  0  0  0  0  0  0  0  0  0  0
    0.8959    2.3020   -0.9401 C   0  0  0  0  0  0  0  0  0  0  0  0
    1.7964    1.6920   -0.8171 H   0  0  0  0  0  0  0  0  0  0  0  0
    0.9475    2.8036   -1.9083 H   0  0  0  0  0  0  0  0  0  0  0  0
    0.8985    3.0908   -0.1835 H   0  0  0  0  0  0  0  0  0  0  0  0
   -0.4763    0.5006   -2.0593 C   0  0  0  0  0  0  0  0  0  0  0  0
    0.4455   -0.0826   -2.1579 H   0  0  0  0  0  0  0  0  0  0  0  0
   -1.2959   -0.2117   -1.9323 H   0  0  0  0  0  0  0  0  0  0  0  0
   -0.7404    1.2527   -3.3685 C   0  0  0  0  0  0  0  0  0  0  0  0
    0.1300    1.8380   -3.6756 H   0  0  0  0  0  0  0  0  0  0  0  0
   -0.9604    0.5377   -4.1670 H   0  0  0  0  0  0  0  0  0  0  0  0
   -1.5979    1.9238   -3.2598 H   0  0  0  0  0  0  0  0  0  0  0  0
   -0.1235    1.3640    1.8023 C   0  0  0  0  0  0  0  0  0  0  0  0
    0.9443    1.9241    2.0121 O   0  0  0  0  0  0  0  0  0  0  0  0
   -1.0671    1.3685    2.8147 N   0  0  0  0  0  0  0  0  0  0  0  0
   -1.8302    0.7094    2.7004 H   0  0  0  0  0  0  0  0  0  0  0  0
   -0.8098    1.9144    4.1417 C   0  0  0  0  0  0  0  0  0  0  0  0
   -0.5197    2.9682    4.0736 H   0  0  0  0  0  0  0  0  0  0  0  0
   -1.7101    1.8454    4.7596 H   0  0  0  0  0  0  0  0  0  0  0  0
   -0.0051    1.3587    4.6344 H   0  0  0  0  0  0  0  0  0  0  0  0
  1  2  1  0  0  0  0
  2  3  1  0  0  0  0
  2  4  1  0  0  0  0
  2  5  1  0  0  0  0
  5  6  2  0  0  0  0
  5  7  1  0  0  0  0
  7  8  1  0  0  0  0
  7  9  1  0  0  0  0
  9 10  1  0  0  0  0
  9 11  1  0  0  0  0
  9 24  1  0  0  0  0
 11 12  1  0  0  0  0
 11 13  1  0  0  0  0
 11 17  1  0  0  0  0
 13 14  1  0  0  0  0
 13 15  1  0  0  0  0
 13 16  1  0  0  0  0
 17 18  1  0  0  0  0
 17 19  1  0  0  0  0
 17 20  1  0  0  0  0
 20 21  1  0  0  0  0
 20 22  1  0  0  0  0
 20 23  1  0  0  0  0
 24 25  2  0  0  0  0
 24 26  1  0  0  0  0
 26 27  1  0  0  0  0
 26 28  1  0  0  0  0
 28 29  1  0  0  0  0
 28 30  1  0  0  0  0
 28 31  1  0  0  0  0
M  END
$$$$

  -OEChem-01062216083D

 31 30  0     1  0  0  0  0  0999 V2000
   -3.1845   -3.0813    1.1850 H   0  0  0  0  0  0  0  0  0  0  0  0
   -3.2214   -2.0643    0.7840 C   0  0  0  0  0  0  0  0  0  0  0  0
   -4.0195   -1.5152    1.2896 H   0  0  0  0  0  0  0  0  0  0  0  0
   -3.4435   -2.1174   -0.2846 H   0  0  0  0  0  0  0  0  0  0  0  0
   -1.8916   -1.3683    1.0037 C   0  0  0  0  0  0  0  0  0  0  0  0
   -1.0116   -1.9146    1.6452 O   0  0  0  0  0  0  0  0  0  0  0  0
   -1.6988   -0.0832    0.5417 N   0  0  0  0  0  0  0  0  0  0  0  0
   -2.4578    0.3294    0.0068 H   0  0  0  0  0  0  0  0  0  0  0  0
   -0.3836    0.5945    0.4991 C   0  0  1  0  0  0  0  0  0  0  0  0
    0.4177   -0.1489    0.4223 H   0  0  0  0  0  0  0  0  0  0  0  0
   -0.3717    1.4442   -0.8164 C   0  0  1  0  0  0  0  0  0  0  0  0
   -1.2373    2.1155   -0.8041 H   0  0  0  0  0  0  0  0  0  0  0  0
    0.8991    2.3090   -0.9617 C   0  0  0  0  0  0  0  0  0  0  0  0
    1.7954    1.7091   -0.7750 H   0  0  0  0  0  0  0  0  0  0  0  0
    0.9808    2.7487   -1.9570 H   0  0  0  0  0  0  0  0  0  0  0  0
    0.8809    3.1473   -0.2608 H   0  0  0  0  0  0  0  0  0  0  0  0
   -0.4809    0.5016   -2.0497 C   0  0  0  0  0  0  0  0  0  0  0  0
    0.4382   -0.0868   -2.1424 H   0  0  0  0  0  0  0  0  0  0  0  0
   -1.3031   -0.2056   -1.9140 H   0  0  0  0  0  0  0  0  0  0  0  0
   -0.7461    1.2360   -3.3696 C   0  0  0  0  0  0  0  0  0  0  0  0
    0.1300    1.8008   -3.6982 H   0  0  0  0  0  0  0  0  0  0  0  0
   -0.9868    0.5110   -4.1530 H   0  0  0  0  0  0  0  0  0  0  0  0
   -1.5911    1.9231   -3.2635 H   0  0  0  0  0  0  0  0  0  0  0  0
   -0.1241    1.3600    1.8312 C   0  0  0  0  0  0  0  0  0  0  0  0
    0.7947    2.1560    1.9664 O   0  0  0  0  0  0  0  0  0  0  0  0
   -0.9012    1.0912    2.9446 N   0  0  0  0  0  0  0  0  0  0  0  0
   -1.4612    0.2453    2.8788 H   0  0  0  0  0  0  0  0  0  0  0  0
   -0.6035    1.6208    4.2703 C   0  0  0  0  0  0  0  0  0  0  0  0
   -0.5867    2.7157    4.2512 H   0  0  0  0  0  0  0  0  0  0  0  0
   -1.3681    1.3019    4.9850 H   0  0  0  0  0  0  0  0  0  0  0  0
    0.3702    1.2594    4.6173 H   0  0  0  0  0  0  0  0  0  0  0  0
  1  2  1  0  0  0  0
  2  3  1  0  0  0  0
  2  4  1  0  0  0  0
  2  5  1  0  0  0  0
  5  6  2  0  0  0  0
  5  7  1  0  0  0  0
  7  8  1  0  0  0  0
  7  9  1  0  0  0  0
  9 10  1  0  0  0  0
  9 11  1  0  0  0  0
  9 24  1  0  0  0  0
 11 12  1  0  0  0  0
 11 13  1  0  0  0  0
 11 17  1  0  0  0  0
 13 14  1  0  0  0  0
 13 15  1  0  0  0  0
 13 16  1  0  0  0  0
 17 18  1  0  0  0  0
 17 19  1  0  0  0  0
 17 20  1  0  0  0  0
 20 21  1  0  0  0  0
 20 22  1  0  0  0  0
 20 23  1  0  0  0  0
 24 25  2  0  0  0  0
 24 26  1  0  0  0  0
 26 27  1  0  0  0  0
 26 28  1  0  0  0  0
 28 29  1  0  0  0  0
 28 30  1  0  0  0  0
 28 31  1  0  0  0  0
M  END
$$$$

  -OEChem-01062216083D

 31 30  0     1  0  0  0  0  0999 V2000
   -3.1751   -3.0662    1.2053 H   0  0  0  0  0  0  0  0  0  0  0  0
   -3.2188   -2.0411    0.8263 C   0  0  0  0  0  0  0  0  0  0  0  0
   -3.9885   -1.4942    1.3766 H   0  0  0  0  0  0  0  0  0  0  0  0
   -3.4874   -2.0698   -0.2325 H   0  0  0  0  0  0  0  0  0  0  0  0
   -1.8742   -1.3618    1.0022 C   0  0  0  0  0  0  0  0  0  0  0  0
   -0.9775   -1.9187    1.6133 O   0  0  0  0  0  0  0  0  0  0  0  0
   -1.6858   -0.0707    0.5564 N   0  0  0  0  0  0  0  0  0  0  0  0
   -2.4693    0.3718    0.0844 H   0  0  0  0  0  0  0  0  0  0  0  0
   -0.3722    0.6069    0.4895 C   0  0  1  0  0  0  0  0  0  0  0  0
    0.4253   -0.1384    0.3972 H   0  0  0  0  0  0  0  0  0  0  0  0
   -0.3616    1.4622   -0.8223 C   0  0  1  0  0  0  0  0  0  0  0  0
   -1.2127    2.1516   -0.8043 H   0  0  0  0  0  0  0  0  0  0  0  0
    0.9363    2.2882   -0.9799 C   0  0  0  0  0  0  0  0  0  0  0  0
    1.8123    1.6730   -0.7520 H   0  0  0  0  0  0  0  0  0  0  0  0
    1.0492    2.6820   -1.9909 H   0  0  0  0  0  0  0  0  0  0  0  0
    0.9327    3.1568   -0.3180 H   0  0  0  0  0  0  0  0  0  0  0  0
   -0.4877    0.5173   -2.0525 C   0  0  0  0  0  0  0  0  0  0  0  0
    0.4246   -0.0808   -2.1498 H   0  0  0  0  0  0  0  0  0  0  0  0
   -1.3164   -0.1804   -1.9073 H   0  0  0  0  0  0  0  0  0  0  0  0
   -0.7566    1.2479   -3.3741 C   0  0  0  0  0  0  0  0  0  0  0  0
    0.1214    1.8014   -3.7161 H   0  0  0  0  0  0  0  0  0  0  0  0
   -1.0144    0.5215   -4.1507 H   0  0  0  0  0  0  0  0  0  0  0  0
   -1.5930    1.9446   -3.2630 H   0  0  0  0  0  0  0  0  0  0  0  0
   -0.1077    1.3399    1.8399 C   0  0  0  0  0  0  0  0  0  0  0  0
    0.5114    2.3902    1.9311 O   0  0  0  0  0  0  0  0  0  0  0  0
   -0.6464    0.8195    3.0036 N   0  0  0  0  0  0  0  0  0  0  0  0
   -0.9671   -0.1459    2.9325 H   0  0  0  0  0  0  0  0  0  0  0  0
   -0.3835    1.3693    4.3277 C   0  0  0  0  0  0  0  0  0  0  0  0
   -0.7168    2.4109    4.3833 H   0  0  0  0  0  0  0  0  0  0  0  0
   -0.9218    0.7950    5.0876 H   0  0  0  0  0  0  0  0  0  0  0  0
    0.6870    1.3287    4.5541 H   0  0  0  0  0  0  0  0  0  0  0  0
  1  2  1  0  0  0  0
  2  3  1  0  0  0  0
  2  4  1  0  0  0  0
  2  5  1  0  0  0  0
  5  6  2  0  0  0  0
  5  7  1  0  0  0  0
  7  8  1  0  0  0  0
  7  9  1  0  0  0  0
  9 10  1  0  0  0  0
  9 11  1  0  0  0  0
  9 24  1  0  0  0  0
 11 12  1  0  0  0  0
 11 13  1  0  0  0  0
 11 17  1  0  0  0  0
 13 14  1  0  0  0  0
 13 15  1  0  0  0  0
 13 16  1  0  0  0  0
 17 18  1  0  0  0  0
 17 19  1  0  0  0  0
 17 20  1  0  0  0  0
 20 21  1  0  0  0  0
 20 22  1  0  0  0  0
 20 23  1  0  0  0  0
 24 25  2  0  0  0  0
 24 26  1  0  0  0  0
 26 27  1  0  0  0  0
 26 28  1  0  0  0  0
 28 29  1  0  0  0  0
 28 30  1  0  0  0  0
 28 31  1  0  0  0  0
M  END
$$$$

  -OEChem-01062216083D

 31 30  0     1  0  0  0  0  0999 V2000
   -3.1461   -3.0524    1.3264 H   0  0  0  0  0  0  0  0  0  0  0  0
   -3.1952   -2.0293    0.9426 C   0  0  0  0  0  0  0  0  0  0  0  0
   -3.9115   -1.4619    1.5420 H   0  0  0  0  0  0  0  0  0  0  0  0
   -3.5400   -2.0590   -0.0939 H   0  0  0  0  0  0  0  0  0  0  0  0
   -1.8272   -1.3782    1.0155 C   0  0  0  0  0  0  0  0  0  0  0  0
   -0.8938   -1.9622    1.5432 O   0  0  0  0  0  0  0  0  0  0  0  0
   -1.6491   -0.0879    0.5621 N   0  0  0  0  0  0  0  0  0  0  0  0
   -2.4631    0.3902    0.1865 H   0  0  0  0  0  0  0  0  0  0  0  0
   -0.3407    0.5910    0.4602 C   0  0  1  0  0  0  0  0  0  0  0  0
    0.4576   -0.1512    0.3513 H   0  0  0  0  0  0  0  0  0  0  0  0
   -0.3362    1.4627   -0.8364 C   0  0  1  0  0  0  0  0  0  0  0  0
   -1.1696    2.1721   -0.7939 H   0  0  0  0  0  0  0  0  0  0  0  0
    0.9882    2.2464   -1.0007 C   0  0  0  0  0  0  0  0  0  0  0  0
    1.8451    1.5700   -0.9234 H   0  0  0  0  0  0  0  0  0  0  0  0
    1.0346    2.7520   -1.9671 H   0  0  0  0  0  0  0  0  0  0  0  0
    1.0948    3.0276   -0.2469 H   0  0  0  0  0  0  0  0  0  0  0  0
   -0.4888    0.5401   -2.0788 C   0  0  0  0  0  0  0  0  0  0  0  0
    0.4116   -0.0717   -2.1999 H   0  0  0  0  0  0  0  0  0  0  0  0
   -1.3273   -0.1461   -1.9321 H   0  0  0  0  0  0  0  0  0  0  0  0
   -0.7644    1.3021   -3.3812 C   0  0  0  0  0  0  0  0  0  0  0  0
    0.1158    1.8573   -3.7154 H   0  0  0  0  0  0  0  0  0  0  0  0
   -1.0331    0.5957   -4.1726 H   0  0  0  0  0  0  0  0  0  0  0  0
   -1.5944    2.0027   -3.2472 H   0  0  0  0  0  0  0  0  0  0  0  0
   -0.0737    1.3155    1.8116 C   0  0  0  0  0  0  0  0  0  0  0  0
    0.1579    2.5134    1.9010 O   0  0  0  0  0  0  0  0  0  0  0  0
   -0.3199    0.6282    2.9868 N   0  0  0  0  0  0  0  0  0  0  0  0
   -0.4805   -0.3761    2.8910 H   0  0  0  0  0  0  0  0  0  0  0  0
   -0.1730    1.2022    4.3180 C   0  0  0  0  0  0  0  0  0  0  0  0
   -0.8208    2.0776    4.4316 H   0  0  0  0  0  0  0  0  0  0  0  0
   -0.4520    0.4666    5.0784 H   0  0  0  0  0  0  0  0  0  0  0  0
    0.8645    1.5057    4.4920 H   0  0  0  0  0  0  0  0  0  0  0  0
  1  2  1  0  0  0  0
  2  3  1  0  0  0  0
  2  4  1  0  0  0  0
  2  5  1  0  0  0  0
  5  6  2  0  0  0  0
  5  7  1  0  0  0  0
  7  8  1  0  0  0  0
  7  9  1  0  0  0  0
  9 10  1  0  0  0  0
  9 11  1  0  0  0  0
  9 24  1  0  0  0  0
 11 12  1  0  0  0  0
 11 13  1  0  0  0  0
 11 17  1  0  0  0  0
 13 14  1  0  0  0  0
 13 15  1  0  0  0  0
 13 16  1  0  0  0  0
 17 18  1  0  0  0  0
 17 19  1  0  0  0  0
 17 20  1  0  0  0  0
 20 21  1  0  0  0  0
 20 22  1  0  0  0  0
 20 23  1  0  0  0  0
 24 25  2  0  0  0  0
 24 26  1  0  0  0  0
 26 27  1  0  0  0  0
 26 28  1  0  0  0  0
 28 29  1  0  0  0  0
 28 30  1  0  0  0  0
 28 31  1  0  0  0  0
M  END
$$$$

  -OEChem-01062216083D

 31 30  0     1  0  0  0  0  0999 V2000
   -3.1113   -3.0354    1.4426 H   0  0  0  0  0  0  0  0  0  0  0  0
   -3.1650   -2.0209    1.0376 C   0  0  0  0  0  0  0  0  0  0  0  0
   -3.8494   -1.4313    1.6525 H   0  0  0  0  0  0  0  0  0  0  0  0
   -3.5524   -2.0703    0.0170 H   0  0  0  0  0  0  0  0  0  0  0  0
   -1.7884   -1.3848    1.0391 C   0  0  0  0  0  0  0  0  0  0  0  0
   -0.8354   -1.9789    1.5204 O   0  0  0  0  0  0  0  0  0  0  0  0
   -1.6181   -0.1028    0.5604 N   0  0  0  0  0  0  0  0  0  0  0  0
   -2.4444    0.3928    0.2375 H   0  0  0  0  0  0  0  0  0  0  0  0
   -0.3100    0.5664    0.4308 C   0  0  1  0  0  0  0  0  0  0  0  0
    0.4861   -0.1768    0.3119 H   0  0  0  0  0  0  0  0  0  0  0  0
   -0.3111    1.4503   -0.8511 C   0  0  1  0  0  0  0  0  0  0  0  0
   -1.1328    2.1715   -0.7844 H   0  0  0  0  0  0  0  0  0  0  0  0
    1.0238    2.2153   -1.0088 C   0  0  0  0  0  0  0  0  0  0  0  0
    1.8607    1.5141   -1.0844 H   0  0  0  0  0  0  0  0  0  0  0  0
    1.0122    2.8402   -1.9049 H   0  0  0  0  0  0  0  0  0  0  0  0
    1.2148    2.8832   -0.1668 H   0  0  0  0  0  0  0  0  0  0  0  0
   -0.4935    0.5525   -2.1042 C   0  0  0  0  0  0  0  0  0  0  0  0
    0.3955   -0.0704   -2.2501 H   0  0  0  0  0  0  0  0  0  0  0  0
   -1.3406   -0.1232   -1.9569 H   0  0  0  0  0  0  0  0  0  0  0  0
   -0.7739    1.3488   -3.3830 C   0  0  0  0  0  0  0  0  0  0  0  0
    0.1040    1.9194   -3.6971 H   0  0  0  0  0  0  0  0  0  0  0  0
   -1.0379    0.6641   -4.1947 H   0  0  0  0  0  0  0  0  0  0  0  0
   -1.6080    2.0402   -3.2285 H   0  0  0  0  0  0  0  0  0  0  0  0
   -0.0362    1.3051    1.7665 C   0  0  0  0  0  0  0  0  0  0  0  0
   -0.0893    2.5241    1.8730 O   0  0  0  0  0  0  0  0  0  0  0  0
    0.0274    0.5515    2.9236 N   0  0  0  0  0  0  0  0  0  0  0  0
   -0.0710   -0.4595    2.8094 H   0  0  0  0  0  0  0  0  0  0  0  0
    0.0805    1.1175    4.2647 C   0  0  0  0  0  0  0  0  0  0  0  0
   -0.8119    1.7206    4.4613 H   0  0  0  0  0  0  0  0  0  0  0  0
    0.1300    0.3180    5.0101 H   0  0  0  0  0  0  0  0  0  0  0  0
    0.9669    1.7503    4.3773 H   0  0  0  0  0  0  0  0  0  0  0  0
  1  2  1  0  0  0  0
  2  3  1  0  0  0  0
  2  4  1  0  0  0  0
  2  5  1  0  0  0  0
  5  6  2  0  0  0  0
  5  7  1  0  0  0  0
  7  8  1  0  0  0  0
  7  9  1  0  0  0  0
  9 10  1  0  0  0  0
  9 11  1  0  0  0  0
  9 24  1  0  0  0  0
 11 12  1  0  0  0  0
 11 13  1  0  0  0  0
 11 17  1  0  0  0  0
 13 14  1  0  0  0  0
 13 15  1  0  0  0  0
 13 16  1  0  0  0  0
 17 18  1  0  0  0  0
 17 19  1  0  0  0  0
 17 20  1  0  0  0  0
 20 21  1  0  0  0  0
 20 22  1  0  0  0  0
 20 23  1  0  0  0  0
 24 25  2  0  0  0  0
 24 26  1  0  0  0  0
 26 27  1  0  0  0  0
 26 28  1  0  0  0  0
 28 29  1  0  0  0  0
 28 30  1  0  0  0  0
 28 31  1  0  0  0  0
M  END
$$$$

  -OEChem-01062216083D

 31 30  0     1  0  0  0  0  0999 V2000
   -3.0898   -3.0244    1.5284 H   0  0  0  0  0  0  0  0  0  0  0  0
   -3.1508   -2.0170    1.1070 C   0  0  0  0  0  0  0  0  0  0  0  0
   -3.8022   -1.4095    1.7401 H   0  0  0  0  0  0  0  0  0  0  0  0
   -3.5828   -2.0804    0.1054 H   0  0  0  0  0  0  0  0  0  0  0  0
   -1.7692   -1.3951    1.0373 C   0  0  0  0  0  0  0  0  0  0  0  0
   -0.7999   -1.9933    1.4812 O   0  0  0  0  0  0  0  0  0  0  0  0
   -1.6095   -0.1190    0.5391 N   0  0  0  0  0  0  0  0  0  0  0  0
   -2.4449    0.3976    0.2781 H   0  0  0  0  0  0  0  0  0  0  0  0
   -0.3038    0.5484    0.4055 C   0  0  1  0  0  0  0  0  0  0  0  0
    0.4960   -0.1906    0.2869 H   0  0  0  0  0  0  0  0  0  0  0  0
   -0.3016    1.4390   -0.8693 C   0  0  1  0  0  0  0  0  0  0  0  0
   -1.1262    2.1571   -0.7986 H   0  0  0  0  0  0  0  0  0  0  0  0
    1.0279    2.2149   -0.9994 C   0  0  0  0  0  0  0  0  0  0  0  0
    1.8682    1.5217   -1.1050 H   0  0  0  0  0  0  0  0  0  0  0  0
    1.0102    2.8752   -1.8700 H   0  0  0  0  0  0  0  0  0  0  0  0
    1.2131    2.8463   -0.1272 H   0  0  0  0  0  0  0  0  0  0  0  0
   -0.4861    0.5574   -2.1314 C   0  0  0  0  0  0  0  0  0  0  0  0
    0.4019   -0.0651   -2.2841 H   0  0  0  0  0  0  0  0  0  0  0  0
   -1.3350   -0.1177   -1.9912 H   0  0  0  0  0  0  0  0  0  0  0  0
   -0.7618    1.3732   -3.3983 C   0  0  0  0  0  0  0  0  0  0  0  0
    0.1136    1.9591   -3.6905 H   0  0  0  0  0  0  0  0  0  0  0  0
   -1.0087    0.7009   -4.2255 H   0  0  0  0  0  0  0  0  0  0  0  0
   -1.6051    2.0529   -3.2414 H   0  0  0  0  0  0  0  0  0  0  0  0
   -0.0410    1.3025    1.7295 C   0  0  0  0  0  0  0  0  0  0  0  0
   -0.2980    2.4927    1.8676 O   0  0  0  0  0  0  0  0  0  0  0  0
    0.3267    0.5598    2.8352 N   0  0  0  0  0  0  0  0  0  0  0  0
    0.3059   -0.4545    2.7146 H   0  0  0  0  0  0  0  0  0  0  0  0
    0.3953    1.1077    4.1833 C   0  0  0  0  0  0  0  0  0  0  0  0
   -0.5923    1.4509    4.5081 H   0  0  0  0  0  0  0  0  0  0  0  0
    0.7461    0.3434    4.8834 H   0  0  0  0  0  0  0  0  0  0  0  0
    1.0915    1.9521    4.2186 H   0  0  0  0  0  0  0  0  0  0  0  0
  1  2  1  0  0  0  0
  2  3  1  0  0  0  0
  2  4  1  0  0  0  0
  2  5  1  0  0  0  0
  5  6  2  0  0  0  0
  5  7  1  0  0  0  0
  7  8  1  0  0  0  0
  7  9  1  0  0  0  0
  9 10  1  0  0  0  0
  9 11  1  0  0  0  0
  9 24  1  0  0  0  0
 11 12  1  0  0  0  0
 11 13  1  0  0  0  0
 11 17  1  0  0  0  0
 13 14  1  0  0  0  0
 13 15  1  0  0  0  0
 13 16  1  0  0  0  0
 17 18  1  0  0  0  0
 17 19  1  0  0  0  0
 17 20  1  0  0  0  0
 20 21  1  0  0  0  0
 20 22  1  0  0  0  0
 20 23  1  0  0  0  0
 24 25  2  0  0  0  0
 24 26  1  0  0  0  0
 26 27  1  0  0  0  0
 26 28  1  0  0  0  0
 28 29  1  0  0  0  0
 28 30  1  0  0  0  0
 28 31  1  0  0  0  0
M  END
$$$$

  -OEChem-01062216083D

 31 30  0     1  0  0  0  0  0999 V2000
   -3.0851   -3.0308    1.5622 H   0  0  0  0  0  0  0  0  0  0  0  0
   -3.1536   -2.0230    1.1428 C   0  0  0  0  0  0  0  0  0  0  0  0
   -3.7701   -1.4079    1.8030 H   0  0  0  0  0  0  0  0  0  0  0  0
   -3.6291   -2.0823    0.1608 H   0  0  0  0  0  0  0  0  0  0  0  0
   -1.7695   -1.4168    1.0119 C   0  0  0  0  0  0  0  0  0  0  0  0
   -0.7877   -2.0352    1.3964 O   0  0  0  0  0  0  0  0  0  0  0  0
   -1.6182   -0.1416    0.5081 N   0  0  0  0  0  0  0  0  0  0  0  0
   -2.4591    0.4022    0.3330 H   0  0  0  0  0  0  0  0  0  0  0  0
   -0.3149    0.5301    0.3871 C   0  0  1  0  0  0  0  0  0  0  0  0
    0.4883   -0.2053    0.2705 H   0  0  0  0  0  0  0  0  0  0  0  0
   -0.3042    1.4293   -0.8798 C   0  0  1  0  0  0  0  0  0  0  0  0
   -1.1358    2.1396   -0.8120 H   0  0  0  0  0  0  0  0  0  0  0  0
    1.0166    2.2218   -0.9774 C   0  0  0  0  0  0  0  0  0  0  0  0
    1.8683    1.5402   -1.0654 H   0  0  0  0  0  0  0  0  0  0  0  0
    1.0102    2.8849   -1.8460 H   0  0  0  0  0  0  0  0  0  0  0  0
    1.1689    2.8518   -0.0968 H   0  0  0  0  0  0  0  0  0  0  0  0
   -0.4753    0.5599   -2.1513 C   0  0  0  0  0  0  0  0  0  0  0  0
    0.4161   -0.0581   -2.3017 H   0  0  0  0  0  0  0  0  0  0  0  0
   -1.3237   -0.1188   -2.0248 H   0  0  0  0  0  0  0  0  0  0  0  0
   -0.7418    1.3880   -3.4121 C   0  0  0  0  0  0  0  0  0  0  0  0
    0.1326    1.9836   -3.6881 H   0  0  0  0  0  0  0  0  0  0  0  0
   -0.9752    0.7235   -4.2495 H   0  0  0  0  0  0  0  0  0  0  0  0
   -1.5916    2.0598   -3.2563 H   0  0  0  0  0  0  0  0  0  0  0  0
   -0.0610    1.2948    1.7037 C   0  0  0  0  0  0  0  0  0  0  0  0
   -0.5084    2.4207    1.8894 O   0  0  0  0  0  0  0  0  0  0  0  0
    0.5947    0.6423    2.7295 N   0  0  0  0  0  0  0  0  0  0  0  0
    0.7277   -0.3608    2.6031 H   0  0  0  0  0  0  0  0  0  0  0  0
    0.7265    1.2007    4.0686 C   0  0  0  0  0  0  0  0  0  0  0  0
   -0.2602    1.3592    4.5163 H   0  0  0  0  0  0  0  0  0  0  0  0
    1.2934    0.5175    4.7083 H   0  0  0  0  0  0  0  0  0  0  0  0
    1.2561    2.1586    4.0335 H   0  0  0  0  0  0  0  0  0  0  0  0
  1  2  1  0  0  0  0
  2  3  1  0  0  0  0
  2  4  1  0  0  0  0
  2  5  1  0  0  0  0
  5  6  2  0  0  0  0
  5  7  1  0  0  0  0
  7  8  1  0  0  0  0
  7  9  1  0  0  0  0
  9 10  1  0  0  0  0
  9 11  1  0  0  0  0
  9 24  1  0  0  0  0
 11 12  1  0  0  0  0
 11 13  1  0  0  0  0
 11 17  1  0  0  0  0
 13 14  1  0  0  0  0
 13 15  1  0  0  0  0
 13 16  1  0  0  0  0
 17 18  1  0  0  0  0
 17 19  1  0  0  0  0
 17 20  1  0  0  0  0
 20 21  1  0  0  0  0
 20 22  1  0  0  0  0
 20 23  1  0  0  0  0
 24 25  2  0  0  0  0
 24 26  1  0  0  0  0
 26 27  1  0  0  0  0
 26 28  1  0  0  0  0
 28 29  1  0  0  0  0
 28 30  1  0  0  0  0
 28 31  1  0  0  0  0
M  END
$$$$

  -OEChem-01062216083D

 31 30  0     1  0  0  0  0  0999 V2000
   -3.0963   -3.0249    1.6050 H   0  0  0  0  0  0  0  0  0  0  0  0
   -3.1640   -2.0169    1.1863 C   0  0  0  0  0  0  0  0  0  0  0  0
   -3.7242   -1.3850    1.8798 H   0  0  0  0  0  0  0  0  0  0  0  0
   -3.6987   -2.0664    0.2347 H   0  0  0  0  0  0  0  0  0  0  0  0
   -1.7751   -1.4462    0.9707 C   0  0  0  0  0  0  0  0  0  0  0  0
   -0.7888   -2.1000    1.2758 O   0  0  0  0  0  0  0  0  0  0  0  0
   -1.6256   -0.1701    0.4687 N   0  0  0  0  0  0  0  0  0  0  0  0
   -2.4627    0.4030    0.3996 H   0  0  0  0  0  0  0  0  0  0  0  0
   -0.3234    0.5067    0.3670 C   0  0  1  0  0  0  0  0  0  0  0  0
    0.4826   -0.2259    0.2520 H   0  0  0  0  0  0  0  0  0  0  0  0
   -0.3051    1.4173   -0.8907 C   0  0  1  0  0  0  0  0  0  0  0  0
   -1.1445    2.1184   -0.8242 H   0  0  0  0  0  0  0  0  0  0  0  0
    1.0052    2.2286   -0.9593 C   0  0  0  0  0  0  0  0  0  0  0  0
    1.8683    1.5597   -1.0332 H   0  0  0  0  0  0  0  0  0  0  0  0
    1.0068    2.8956   -1.8252 H   0  0  0  0  0  0  0  0  0  0  0  0
    1.1282    2.8565   -0.0720 H   0  0  0  0  0  0  0  0  0  0  0  0
   -0.4605    0.5620   -2.1731 C   0  0  0  0  0  0  0  0  0  0  0  0
    0.4357   -0.0492   -2.3220 H   0  0  0  0  0  0  0  0  0  0  0  0
   -1.3060   -0.1230   -2.0619 H   0  0  0  0  0  0  0  0  0  0  0  0
   -0.7189    1.4031   -3.4270 C   0  0  0  0  0  0  0  0  0  0  0  0
    0.1548    2.0070   -3.6865 H   0  0  0  0  0  0  0  0  0  0  0  0
   -0.9393    0.7467   -4.2743 H   0  0  0  0  0  0  0  0  0  0  0  0
   -1.5744    2.0681   -3.2730 H   0  0  0  0  0  0  0  0  0  0  0  0
   -0.0788    1.2777    1.6810 C   0  0  0  0  0  0  0  0  0  0  0  0
   -0.7125    2.2952    1.9373 O   0  0  0  0  0  0  0  0  0  0  0  0
    0.8234    0.7827    2.6029 N   0  0  0  0  0  0  0  0  0  0  0  0
    1.1572   -0.1650    2.4406 H   0  0  0  0  0  0  0  0  0  0  0  0
    1.0059    1.3686    3.9244 C   0  0  0  0  0  0  0  0  0  0  0  0
    0.0742    1.3188    4.4975 H   0  0  0  0  0  0  0  0  0  0  0  0
    1.7815    0.8266    4.4739 H   0  0  0  0  0  0  0  0  0  0  0  0
    1.3125    2.4164    3.8399 H   0  0  0  0  0  0  0  0  0  0  0  0
  1  2  1  0  0  0  0
  2  3  1  0  0  0  0
  2  4  1  0  0  0  0
  2  5  1  0  0  0  0
  5  6  2  0  0  0  0
  5  7  1  0  0  0  0
  7  8  1  0  0  0  0
  7  9  1  0  0  0  0
  9 10  1  0  0  0  0
  9 11  1  0  0  0  0
  9 24  1  0  0  0  0
 11 12  1  0  0  0  0
 11 13  1  0  0  0  0
 11 17  1  0  0  0  0
 13 14  1  0  0  0  0
 13 15  1  0  0  0  0
 13 16  1  0  0  0  0
 17 18  1  0  0  0  0
 17 19  1  0  0  0  0
 17 20  1  0  0  0  0
 20 21  1  0  0  0  0
 20 22  1  0  0  0  0
 20 23  1  0  0  0  0
 24 25  2  0  0  0  0
 24 26  1  0  0  0  0
 26 27  1  0  0  0  0
 26 28  1  0  0  0  0
 28 29  1  0  0  0  0
 28 30  1  0  0  0  0
 28 31  1  0  0  0  0
M  END
$$$$

  -OEChem-01062216083D

 31 30  0     1  0  0  0  0  0999 V2000
   -3.1048   -3.0234    1.6286 H   0  0  0  0  0  0  0  0  0  0  0  0
   -3.1718   -2.0131    1.2152 C   0  0  0  0  0  0  0  0  0  0  0  0
   -3.6888   -1.3722    1.9336 H   0  0  0  0  0  0  0  0  0  0  0  0
   -3.7487   -2.0494    0.2879 H   0  0  0  0  0  0  0  0  0  0  0  0
   -1.7835   -1.4671    0.9398 C   0  0  0  0  0  0  0  0  0  0  0  0
   -0.7985   -2.1459    1.1880 O   0  0  0  0  0  0  0  0  0  0  0  0
   -1.6356   -0.1901    0.4393 N   0  0  0  0  0  0  0  0  0  0  0  0
   -2.4650    0.3986    0.4466 H   0  0  0  0  0  0  0  0  0  0  0  0
   -0.3336    0.4899    0.3535 C   0  0  1  0  0  0  0  0  0  0  0  0
    0.4730   -0.2423    0.2423 H   0  0  0  0  0  0  0  0  0  0  0  0
   -0.3082    1.4092   -0.8971 C   0  0  1  0  0  0  0  0  0  0  0  0
   -1.1522    2.1052   -0.8323 H   0  0  0  0  0  0  0  0  0  0  0  0
    0.9968    2.2302   -0.9459 C   0  0  0  0  0  0  0  0  0  0  0  0
    1.8664    1.5674   -0.9979 H   0  0  0  0  0  0  0  0  0  0  0  0
    1.0113    2.8916   -1.8158 H   0  0  0  0  0  0  0  0  0  0  0  0
    1.0956    2.8652   -0.0604 H   0  0  0  0  0  0  0  0  0  0  0  0
   -0.4516    0.5636   -2.1873 C   0  0  0  0  0  0  0  0  0  0  0  0
    0.4480   -0.0434   -2.3335 H   0  0  0  0  0  0  0  0  0  0  0  0
   -1.2957   -0.1249   -2.0875 H   0  0  0  0  0  0  0  0  0  0  0  0
   -0.7028    1.4128   -3.4373 C   0  0  0  0  0  0  0  0  0  0  0  0
    0.1689    2.0251   -3.6832 H   0  0  0  0  0  0  0  0  0  0  0  0
   -0.9096    0.7618   -4.2922 H   0  0  0  0  0  0  0  0  0  0  0  0
   -1.5651    2.0696   -3.2866 H   0  0  0  0  0  0  0  0  0  0  0  0
   -0.0954    1.2659    1.6658 C   0  0  0  0  0  0  0  0  0  0  0  0
   -0.8819    2.1382    2.0170 O   0  0  0  0  0  0  0  0  0  0  0  0
    0.9995    0.9741    2.4573 N   0  0  0  0  0  0  0  0  0  0  0  0
    1.5238    0.1359    2.2203 H   0  0  0  0  0  0  0  0  0  0  0  0
    1.2270    1.5962    3.7553 C   0  0  0  0  0  0  0  0  0  0  0  0
    0.4024    1.3686    4.4390 H   0  0  0  0  0  0  0  0  0  0  0  0
    2.1564    1.2225    4.1957 H   0  0  0  0  0  0  0  0  0  0  0  0
    1.3088    2.6832    3.6501 H   0  0  0  0  0  0  0  0  0  0  0  0
  1  2  1  0  0  0  0
  2  3  1  0  0  0  0
  2  4  1  0  0  0  0
  2  5  1  0  0  0  0
  5  6  2  0  0  0  0
  5  7  1  0  0  0  0
  7  8  1  0  0  0  0
  7  9  1  0  0  0  0
  9 10  1  0  0  0  0
  9 11  1  0  0  0  0
  9 24  1  0  0  0  0
 11 12  1  0  0  0  0
 11 13  1  0  0  0  0
 11 17  1  0  0  0  0
 13 14  1  0  0  0  0
 13 15  1  0  0  0  0
 13 16  1  0  0  0  0
 17 18  1  0  0  0  0
 17 19  1  0  0  0  0
 17 20  1  0  0  0  0
 20 21  1  0  0  0  0
 20 22  1  0  0  0  0
 20 23  1  0  0  0  0
 24 25  2  0  0  0  0
 24 26  1  0  0  0  0
 26 27  1  0  0  0  0
 26 28  1  0  0  0  0
 28 29  1  0  0  0  0
 28 30  1  0  0  0  0
 28 31  1  0  0  0  0
M  END
$$$$

  -OEChem-01062216083D

 31 30  0     1  0  0  0  0  0999 V2000
   -3.1074   -3.0139    1.6543 H   0  0  0  0  0  0  0  0  0  0  0  0
   -3.1737   -2.0010    1.2474 C   0  0  0  0  0  0  0  0  0  0  0  0
   -3.6443   -1.3535    1.9914 H   0  0  0  0  0  0  0  0  0  0  0  0
   -3.7933   -2.0219    0.3478 H   0  0  0  0  0  0  0  0  0  0  0  0
   -1.7894   -1.4802    0.9105 C   0  0  0  0  0  0  0  0  0  0  0  0
   -0.8085   -2.1815    1.1063 O   0  0  0  0  0  0  0  0  0  0  0  0
   -1.6426   -0.2022    0.4118 N   0  0  0  0  0  0  0  0  0  0  0  0
   -2.4608    0.3974    0.4890 H   0  0  0  0  0  0  0  0  0  0  0  0
   -0.3391    0.4787    0.3422 C   0  0  1  0  0  0  0  0  0  0  0  0
    0.4685   -0.2535    0.2388 H   0  0  0  0  0  0  0  0  0  0  0  0
   -0.3085    1.4029   -0.9051 C   0  0  1  0  0  0  0  0  0  0  0  0
   -1.1580    2.0919   -0.8419 H   0  0  0  0  0  0  0  0  0  0  0  0
    0.9889    2.2361   -0.9461 C   0  0  0  0  0  0  0  0  0  0  0  0
    1.8654    1.5822   -0.9893 H   0  0  0  0  0  0  0  0  0  0  0  0
    1.0041    2.8949   -1.8178 H   0  0  0  0  0  0  0  0  0  0  0  0
    1.0731    2.8753   -0.0624 H   0  0  0  0  0  0  0  0  0  0  0  0
   -0.4412    0.5619   -2.1996 C   0  0  0  0  0  0  0  0  0  0  0  0
    0.4610   -0.0419   -2.3426 H   0  0  0  0  0  0  0  0  0  0  0  0
   -1.2837   -0.1298   -2.1080 H   0  0  0  0  0  0  0  0  0  0  0  0
   -0.6870    1.4141   -3.4487 C   0  0  0  0  0  0  0  0  0  0  0  0
    0.1881    2.0225   -3.6917 H   0  0  0  0  0  0  0  0  0  0  0  0
   -0.8952    0.7652   -4.3047 H   0  0  0  0  0  0  0  0  0  0  0  0
   -1.5468    2.0746   -3.2993 H   0  0  0  0  0  0  0  0  0  0  0  0
   -0.1125    1.2561    1.6570 C   0  0  0  0  0  0  0  0  0  0  0  0
   -1.0117    1.9473    2.1234 O   0  0  0  0  0  0  0  0  0  0  0  0
    1.1075    1.1996    2.3051 N   0  0  0  0  0  0  0  0  0  0  0  0
    1.7875    0.5307    1.9553 H   0  0  0  0  0  0  0  0  0  0  0  0
    1.3614    1.8571    3.5806 C   0  0  0  0  0  0  0  0  0  0  0  0
    0.6882    1.4694    4.3524 H   0  0  0  0  0  0  0  0  0  0  0  0
    2.3930    1.6786    3.8988 H   0  0  0  0  0  0  0  0  0  0  0  0
    1.2104    2.9380    3.4910 H   0  0  0  0  0  0  0  0  0  0  0  0
  1  2  1  0  0  0  0
  2  3  1  0  0  0  0
  2  4  1  0  0  0  0
  2  5  1  0  0  0  0
  5  6  2  0  0  0  0
  5  7  1  0  0  0  0
  7  8  1  0  0  0  0
  7  9  1  0  0  0  0
  9 10  1  0  0  0  0
  9 11  1  0  0  0  0
  9 24  1  0  0  0  0
 11 12  1  0  0  0  0
 11 13  1  0  0  0  0
 11 17  1  0  0  0  0
 13 14  1  0  0  0  0
 13 15  1  0  0  0  0
 13 16  1  0  0  0  0
 17 18  1  0  0  0  0
 17 19  1  0  0  0  0
 17 20  1  0  0  0  0
 20 21  1  0  0  0  0
 20 22  1  0  0  0  0
 20 23  1  0  0  0  0
 24 25  2  0  0  0  0
 24 26  1  0  0  0  0
 26 27  1  0  0  0  0
 26 28  1  0  0  0  0
 28 29  1  0  0  0  0
 28 30  1  0  0  0  0
 28 31  1  0  0  0  0
M  END
$$$$

  -OEChem-01062216083D

 31 30  0     1  0  0  0  0  0999 V2000
   -3.1125   -3.0056    1.6502 H   0  0  0  0  0  0  0  0  0  0  0  0
   -3.1774   -1.9924    1.2435 C   0  0  0  0  0  0  0  0  0  0  0  0
   -3.6314   -1.3404    1.9940 H   0  0  0  0  0  0  0  0  0  0  0  0
   -3.8110   -2.0089    0.3535 H   0  0  0  0  0  0  0  0  0  0  0  0
   -1.7941   -1.4832    0.8850 C   0  0  0  0  0  0  0  0  0  0  0  0
   -0.8194   -2.2030    1.0404 O   0  0  0  0  0  0  0  0  0  0  0  0
   -1.6451   -0.2016    0.3961 N   0  0  0  0  0  0  0  0  0  0  0  0
   -2.4546    0.4024    0.5172 H   0  0  0  0  0  0  0  0  0  0  0  0
   -0.3379    0.4756    0.3450 C   0  0  1  0  0  0  0  0  0  0  0  0
    0.4701   -0.2567    0.2451 H   0  0  0  0  0  0  0  0  0  0  0  0
   -0.3109    1.3999   -0.9051 C   0  0  1  0  0  0  0  0  0  0  0  0
   -1.1668    2.0813   -0.8441 H   0  0  0  0  0  0  0  0  0  0  0  0
    0.9757    2.2485   -0.9545 C   0  0  0  0  0  0  0  0  0  0  0  0
    1.8612    1.6054   -0.9617 H   0  0  0  0  0  0  0  0  0  0  0  0
    0.9983    2.8786   -1.8469 H   0  0  0  0  0  0  0  0  0  0  0  0
    1.0343    2.9193   -0.0928 H   0  0  0  0  0  0  0  0  0  0  0  0
   -0.4386    0.5545   -2.1988 C   0  0  0  0  0  0  0  0  0  0  0  0
    0.4660   -0.0464   -2.3385 H   0  0  0  0  0  0  0  0  0  0  0  0
   -1.2783   -0.1404   -2.1067 H   0  0  0  0  0  0  0  0  0  0  0  0
   -0.6880    1.3993   -3.4526 C   0  0  0  0  0  0  0  0  0  0  0  0
    0.1881    2.0017   -3.7065 H   0  0  0  0  0  0  0  0  0  0  0  0
   -0.9042    0.7452   -4.3027 H   0  0  0  0  0  0  0  0  0  0  0  0
   -1.5437    2.0647   -3.3027 H   0  0  0  0  0  0  0  0  0  0  0  0
   -0.1160    1.2464    1.6678 C   0  0  0  0  0  0  0  0  0  0  0  0
   -1.0690    1.7502    2.2534 O   0  0  0  0  0  0  0  0  0  0  0  0
    1.1586    1.4406    2.1687 N   0  0  0  0  0  0  0  0  0  0  0  0
    1.9222    0.9613    1.7008 H   0  0  0  0  0  0  0  0  0  0  0  0
    1.4283    2.1516    3.4122 C   0  0  0  0  0  0  0  0  0  0  0  0
    0.9277    1.6584    4.2522 H   0  0  0  0  0  0  0  0  0  0  0  0
    2.5039    2.1691    3.6120 H   0  0  0  0  0  0  0  0  0  0  0  0
    1.0722    3.1851    3.3473 H   0  0  0  0  0  0  0  0  0  0  0  0
  1  2  1  0  0  0  0
  2  3  1  0  0  0  0
  2  4  1  0  0  0  0
  2  5  1  0  0  0  0
  5  6  2  0  0  0  0
  5  7  1  0  0  0  0
  7  8  1  0  0  0  0
  7  9  1  0  0  0  0
  9 10  1  0  0  0  0
  9 11  1  0  0  0  0
  9 24  1  0  0  0  0
 11 12  1  0  0  0  0
 11 13  1  0  0  0  0
 11 17  1  0  0  0  0
 13 14  1  0  0  0  0
 13 15  1  0  0  0  0
 13 16  1  0  0  0  0
 17 18  1  0  0  0  0
 17 19  1  0  0  0  0
 17 20  1  0  0  0  0
 20 21  1  0  0  0  0
 20 22  1  0  0  0  0
 20 23  1  0  0  0  0
 24 25  2  0  0  0  0
 24 26  1  0  0  0  0
 26 27  1  0  0  0  0
 26 28  1  0  0  0  0
 28 29  1  0  0  0  0
 28 30  1  0  0  0  0
 28 31  1  0  0  0  0
M  END
$$$$

  -OEChem-01062216083D

 31 30  0     1  0  0  0  0  0999 V2000
   -3.1039   -2.9809    1.6573 H   0  0  0  0  0  0  0  0  0  0  0  0
   -3.1700   -1.9681    1.2503 C   0  0  0  0  0  0  0  0  0  0  0  0
   -3.5935   -1.3099    2.0131 H   0  0  0  0  0  0  0  0  0  0  0  0
   -3.8301   -1.9784    0.3799 H   0  0  0  0  0  0  0  0  0  0  0  0
   -1.7931   -1.4741    0.8495 C   0  0  0  0  0  0  0  0  0  0  0  0
   -0.8268   -2.2150    0.9477 O   0  0  0  0  0  0  0  0  0  0  0  0
   -1.6436   -0.1856    0.3785 N   0  0  0  0  0  0  0  0  0  0  0  0
   -2.4429    0.4198    0.5498 H   0  0  0  0  0  0  0  0  0  0  0  0
   -0.3311    0.4859    0.3452 C   0  0  1  0  0  0  0  0  0  0  0  0
    0.4769   -0.2465    0.2468 H   0  0  0  0  0  0  0  0  0  0  0  0
   -0.3119    1.4033   -0.9153 C   0  0  1  0  0  0  0  0  0  0  0  0
   -1.1755    2.0754   -0.8602 H   0  0  0  0  0  0  0  0  0  0  0  0
    0.9603    2.2708   -0.9898 C   0  0  0  0  0  0  0  0  0  0  0  0
    1.8567    1.6447   -0.9454 H   0  0  0  0  0  0  0  0  0  0  0  0
    0.9911    2.8517   -1.9142 H   0  0  0  0  0  0  0  0  0  0  0  0
    0.9873    2.9919   -0.1688 H   0  0  0  0  0  0  0  0  0  0  0  0
   -0.4363    0.5420   -2.2011 C   0  0  0  0  0  0  0  0  0  0  0  0
    0.4728   -0.0536   -2.3344 H   0  0  0  0  0  0  0  0  0  0  0  0
   -1.2698   -0.1592   -2.1023 H   0  0  0  0  0  0  0  0  0  0  0  0
   -0.6940    1.3666   -3.4673 C   0  0  0  0  0  0  0  0  0  0  0  0
    0.1824    1.9582   -3.7446 H   0  0  0  0  0  0  0  0  0  0  0  0
   -0.9248    0.6982   -4.3024 H   0  0  0  0  0  0  0  0  0  0  0  0
   -1.5438    2.0402   -3.3194 H   0  0  0  0  0  0  0  0  0  0  0  0
   -0.1112    1.2393    1.6833 C   0  0  0  0  0  0  0  0  0  0  0  0
   -1.0706    1.5308    2.3911 O   0  0  0  0  0  0  0  0  0  0  0  0
    1.1416    1.6936    2.0564 N   0  0  0  0  0  0  0  0  0  0  0  0
    1.9288    1.4244    1.4740 H   0  0  0  0  0  0  0  0  0  0  0  0
    1.3940    2.4347    3.2861 C   0  0  0  0  0  0  0  0  0  0  0  0
    1.0940    1.8440    4.1581 H   0  0  0  0  0  0  0  0  0  0  0  0
    2.4595    2.6670    3.3759 H   0  0  0  0  0  0  0  0  0  0  0  0
    0.8335    3.3755    3.2876 H   0  0  0  0  0  0  0  0  0  0  0  0
  1  2  1  0  0  0  0
  2  3  1  0  0  0  0
  2  4  1  0  0  0  0
  2  5  1  0  0  0  0
  5  6  2  0  0  0  0
  5  7  1  0  0  0  0
  7  8  1  0  0  0  0
  7  9  1  0  0  0  0
  9 10  1  0  0  0  0
  9 11  1  0  0  0  0
  9 24  1  0  0  0  0
 11 12  1  0  0  0  0
 11 13  1  0  0  0  0
 11 17  1  0  0  0  0
 13 14  1  0  0  0  0
 13 15  1  0  0  0  0
 13 16  1  0  0  0  0
 17 18  1  0  0  0  0
 17 19  1  0  0  0  0
 17 20  1  0  0  0  0
 20 21  1  0  0  0  0
 20 22  1  0  0  0  0
 20 23  1  0  0  0  0
 24 25  2  0  0  0  0
 24 26  1  0  0  0  0
 26 27  1  0  0  0  0
 26 28  1  0  0  0  0
 28 29  1  0  0  0  0
 28 30  1  0  0  0  0
 28 31  1  0  0  0  0
M  END
$$$$

  -OEChem-01062216083D

 31 30  0     1  0  0  0  0  0999 V2000
   -3.0265   -2.9946    1.6316 H   0  0  0  0  0  0  0  0  0  0  0  0
   -3.1164   -1.9585    1.2937 C   0  0  0  0  0  0  0  0  0  0  0  0
   -3.4611   -1.3452    2.1302 H   0  0  0  0  0  0  0  0  0  0  0  0
   -3.8514   -1.9120    0.4867 H   0  0  0  0  0  0  0  0  0  0  0  0
   -1.7740   -1.4508    0.8033 C   0  0  0  0  0  0  0  0  0  0  0  0
   -0.8064   -2.1973    0.7877 O   0  0  0  0  0  0  0  0  0  0  0  0
   -1.6561   -0.1500    0.3533 N   0  0  0  0  0  0  0  0  0  0  0  0
   -2.4495    0.4395    0.5883 H   0  0  0  0  0  0  0  0  0  0  0  0
   -0.3410    0.5199    0.3327 C   0  0  1  0  0  0  0  0  0  0  0  0
    0.4284   -0.1694   -0.0316 H   0  0  0  0  0  0  0  0  0  0  0  0
   -0.4631    1.6946   -0.6929 C   0  0  1  0  0  0  0  0  0  0  0  0
   -1.3087    2.3238   -0.3935 H   0  0  0  0  0  0  0  0  0  0  0  0
    0.7950    2.5854   -0.7421 C   0  0  0  0  0  0  0  0  0  0  0  0
    1.6944    1.9749   -0.8693 H   0  0  0  0  0  0  0  0  0  0  0  0
    0.7479    3.3018   -1.5647 H   0  0  0  0  0  0  0  0  0  0  0  0
    0.8856    3.1773    0.1719 H   0  0  0  0  0  0  0  0  0  0  0  0
   -0.7457    1.1254   -2.1122 C   0  0  0  0  0  0  0  0  0  0  0  0
    0.1372    0.5881   -2.4740 H   0  0  0  0  0  0  0  0  0  0  0  0
   -1.5668    0.4043   -2.0704 H   0  0  0  0  0  0  0  0  0  0  0  0
   -1.1463    2.1909   -3.1398 C   0  0  0  0  0  0  0  0  0  0  0  0
   -0.3010    2.8313   -3.4041 H   0  0  0  0  0  0  0  0  0  0  0  0
   -1.4961    1.7061   -4.0564 H   0  0  0  0  0  0  0  0  0  0  0  0
   -1.9560    2.8151   -2.7497 H   0  0  0  0  0  0  0  0  0  0  0  0
    0.0637    0.9234    1.7833 C   0  0  0  0  0  0  0  0  0  0  0  0
   -0.7476    0.8282    2.6998 O   0  0  0  0  0  0  0  0  0  0  0  0
    1.2575    1.5648    2.0641 N   0  0  0  0  0  0  0  0  0  0  0  0
    1.9352    1.6361    1.3116 H   0  0  0  0  0  0  0  0  0  0  0  0
    1.6406    2.0072    3.3999 C   0  0  0  0  0  0  0  0  0  0  0  0
    1.6674    1.1583    4.0914 H   0  0  0  0  0  0  0  0  0  0  0  0
    2.6338    2.4657    3.3765 H   0  0  0  0  0  0  0  0  0  0  0  0
    0.9273    2.7472    3.7777 H   0  0  0  0  0  0  0  0  0  0  0  0
  1  2  1  0  0  0  0
  2  3  1  0  0  0  0
  2  4  1  0  0  0  0
  2  5  1  0  0  0  0
  5  6  2  0  0  0  0
  5  7  1  0  0  0  0
  7  8  1  0  0  0  0
  7  9  1  0  0  0  0
  9 10  1  0  0  0  0
  9 11  1  0  0  0  0
  9 24  1  0  0  0  0
 11 12  1  0  0  0  0
 11 13  1  0  0  0  0
 11 17  1  0  0  0  0
 13 14  1  0  0  0  0
 13 15  1  0  0  0  0
 13 16  1  0  0  0  0
 17 18  1  0  0  0  0
 17 19  1  0  0  0  0
 17 20  1  0  0  0  0
 20 21  1  0  0  0  0
 20 22  1  0  0  0  0
 20 23  1  0  0  0  0
 24 25  2  0  0  0  0
 24 26  1  0  0  0  0
 26 27  1  0  0  0  0
 26 28  1  0  0  0  0
 28 29  1  0  0  0  0
 28 30  1  0  0  0  0
 28 31  1  0  0  0  0
M  END
$$$$

  -OEChem-01062216083D

 31 30  0     1  0  0  0  0  0999 V2000
   -3.0056   -2.9728    1.6434 H   0  0  0  0  0  0  0  0  0  0  0  0
   -3.0995   -1.9314    1.3233 C   0  0  0  0  0  0  0  0  0  0  0  0
   -3.4020   -1.3266    2.1819 H   0  0  0  0  0  0  0  0  0  0  0  0
   -3.8670   -1.8669    0.5488 H   0  0  0  0  0  0  0  0  0  0  0  0
   -1.7738   -1.4296    0.7841 C   0  0  0  0  0  0  0  0  0  0  0  0
   -0.8189   -2.1885    0.7060 O   0  0  0  0  0  0  0  0  0  0  0  0
   -1.6612   -0.1223    0.3493 N   0  0  0  0  0  0  0  0  0  0  0  0
   -2.4532    0.4611    0.6010 H   0  0  0  0  0  0  0  0  0  0  0  0
   -0.3462    0.5507    0.3317 C   0  0  1  0  0  0  0  0  0  0  0  0
    0.4249   -0.1383   -0.0294 H   0  0  0  0  0  0  0  0  0  0  0  0
   -0.4709    1.7120   -0.7132 C   0  0  1  0  0  0  0  0  0  0  0  0
   -1.3191    2.3447   -0.4294 H   0  0  0  0  0  0  0  0  0  0  0  0
    0.7884    2.6018   -0.7870 C   0  0  0  0  0  0  0  0  0  0  0  0
    1.6932    1.9866   -0.8179 H   0  0  0  0  0  0  0  0  0  0  0  0
    0.7834    3.2412   -1.6713 H   0  0  0  0  0  0  0  0  0  0  0  0
    0.8354    3.2767    0.0705 H   0  0  0  0  0  0  0  0  0  0  0  0
   -0.7441    1.1130   -2.1242 C   0  0  0  0  0  0  0  0  0  0  0  0
    0.1430    0.5730   -2.4717 H   0  0  0  0  0  0  0  0  0  0  0  0
   -1.5611    0.3881   -2.0728 H   0  0  0  0  0  0  0  0  0  0  0  0
   -1.1485    2.1527   -3.1773 C   0  0  0  0  0  0  0  0  0  0  0  0
   -0.3057    2.7856   -3.4655 H   0  0  0  0  0  0  0  0  0  0  0  0
   -1.5045    1.6440   -4.0785 H   0  0  0  0  0  0  0  0  0  0  0  0
   -1.9554    2.7876   -2.7987 H   0  0  0  0  0  0  0  0  0  0  0  0
    0.0611    0.9379    1.7917 C   0  0  0  0  0  0  0  0  0  0  0  0
   -0.6374    0.5934    2.7404 O   0  0  0  0  0  0  0  0  0  0  0  0
    1.0799    1.8287    2.0808 N   0  0  0  0  0  0  0  0  0  0  0  0
    1.6754    2.1169    1.3113 H   0  0  0  0  0  0  0  0  0  0  0  0
    1.4309    2.2478    3.4336 C   0  0  0  0  0  0  0  0  0  0  0  0
    1.7092    1.3816    4.0431 H   0  0  0  0  0  0  0  0  0  0  0  0
    2.2789    2.9386    3.4078 H   0  0  0  0  0  0  0  0  0  0  0  0
    0.5857    2.7565    3.9093 H   0  0  0  0  0  0  0  0  0  0  0  0
  1  2  1  0  0  0  0
  2  3  1  0  0  0  0
  2  4  1  0  0  0  0
  2  5  1  0  0  0  0
  5  6  2  0  0  0  0
  5  7  1  0  0  0  0
  7  8  1  0  0  0  0
  7  9  1  0  0  0  0
  9 10  1  0  0  0  0
  9 11  1  0  0  0  0
  9 24  1  0  0  0  0
 11 12  1  0  0  0  0
 11 13  1  0  0  0  0
 11 17  1  0  0  0  0
 13 14  1  0  0  0  0
 13 15  1  0  0  0  0
 13 16  1  0  0  0  0
 17 18  1  0  0  0  0
 17 19  1  0  0  0  0
 17 20  1  0  0  0  0
 20 21  1  0  0  0  0
 20 22  1  0  0  0  0
 20 23  1  0  0  0  0
 24 25  2  0  0  0  0
 24 26  1  0  0  0  0
 26 27  1  0  0  0  0
 26 28  1  0  0  0  0
 28 29  1  0  0  0  0
 28 30  1  0  0  0  0
 28 31  1  0  0  0  0
M  END
$$$$

  -OEChem-01062216083D

 31 30  0     1  0  0  0  0  0999 V2000
   -3.1299   -2.9128    1.5850 H   0  0  0  0  0  0  0  0  0  0  0  0
   -3.1890   -1.8615    1.2897 C   0  0  0  0  0  0  0  0  0  0  0  0
   -3.4878   -1.2696    2.1584 H   0  0  0  0  0  0  0  0  0  0  0  0
   -3.9420   -1.7560    0.5054 H   0  0  0  0  0  0  0  0  0  0  0  0
   -1.8403   -1.3855    0.7843 C   0  0  0  0  0  0  0  0  0  0  0  0
   -0.9064   -2.1694    0.7052 O   0  0  0  0  0  0  0  0  0  0  0  0
   -1.6929   -0.0821    0.3461 N   0  0  0  0  0  0  0  0  0  0  0  0
   -2.4868    0.5130    0.5600 H   0  0  0  0  0  0  0  0  0  0  0  0
   -0.3695    0.5765    0.3531 C   0  0  1  0  0  0  0  0  0  0  0  0
    0.4004   -0.1320    0.0279 H   0  0  0  0  0  0  0  0  0  0  0  0
   -0.4403    1.7111   -0.7270 C   0  0  1  0  0  0  0  0  0  0  0  0
   -1.2841    2.3692   -0.4929 H   0  0  0  0  0  0  0  0  0  0  0  0
    0.8449    2.5680   -0.7892 C   0  0  0  0  0  0  0  0  0  0  0  0
    1.7329    1.9407   -0.6607 H   0  0  0  0  0  0  0  0  0  0  0  0
    0.8298    3.3421   -0.0187 H   0  0  0  0  0  0  0  0  0  0  0  0
    0.9433    3.0953   -1.7391 H   0  0  0  0  0  0  0  0  0  0  0  0
   -0.6735    1.0710   -2.1278 C   0  0  0  0  0  0  0  0  0  0  0  0
    0.2166    0.5071   -2.4264 H   0  0  0  0  0  0  0  0  0  0  0  0
   -1.5028    0.3599   -2.0820 H   0  0  0  0  0  0  0  0  0  0  0  0
   -1.0271    2.0801   -3.2289 C   0  0  0  0  0  0  0  0  0  0  0  0
   -0.1657    2.6880   -3.5158 H   0  0  0  0  0  0  0  0  0  0  0  0
   -1.3665    1.5453   -4.1214 H   0  0  0  0  0  0  0  0  0  0  0  0
   -1.8331    2.7417   -2.8970 H   0  0  0  0  0  0  0  0  0  0  0  0
    0.0115    0.9708    1.8207 C   0  0  0  0  0  0  0  0  0  0  0  0
   -0.5430    0.4283    2.7706 O   0  0  0  0  0  0  0  0  0  0  0  0
    0.8093    2.0561    2.1385 N   0  0  0  0  0  0  0  0  0  0  0  0
    1.3076    2.5020    1.3764 H   0  0  0  0  0  0  0  0  0  0  0  0
    1.1067    2.4754    3.5042 C   0  0  0  0  0  0  0  0  0  0  0  0
    1.6049    1.6695    4.0534 H   0  0  0  0  0  0  0  0  0  0  0  0
    1.7666    3.3481    3.4958 H   0  0  0  0  0  0  0  0  0  0  0  0
    0.1856    2.7449    4.0317 H   0  0  0  0  0  0  0  0  0  0  0  0
  1  2  1  0  0  0  0
  2  3  1  0  0  0  0
  2  4  1  0  0  0  0
  2  5  1  0  0  0  0
  5  6  2  0  0  0  0
  5  7  1  0  0  0  0
  7  8  1  0  0  0  0
  7  9  1  0  0  0  0
  9 10  1  0  0  0  0
  9 11  1  0  0  0  0
  9 24  1  0  0  0  0
 11 12  1  0  0  0  0
 11 13  1  0  0  0  0
 11 17  1  0  0  0  0
 13 14  1  0  0  0  0
 13 15  1  0  0  0  0
 13 16  1  0  0  0  0
 17 18  1  0  0  0  0
 17 19  1  0  0  0  0
 17 20  1  0  0  0  0
 20 21  1  0  0  0  0
 20 22  1  0  0  0  0
 20 23  1  0  0  0  0
 24 25  2  0  0  0  0
 24 26  1  0  0  0  0
 26 27  1  0  0  0  0
 26 28  1  0  0  0  0
 28 29  1  0  0  0  0
 28 30  1  0  0  0  0
 28 31  1  0  0  0  0
M  END
$$$$

  -OEChem-01062216083D

 31 30  0     1  0  0  0  0  0999 V2000
   -2.9788   -3.0088    1.5912 H   0  0  0  0  0  0  0  0  0  0  0  0
   -3.0730   -1.9478    1.3438 C   0  0  0  0  0  0  0  0  0  0  0  0
   -3.3266   -1.3972    2.2531 H   0  0  0  0  0  0  0  0  0  0  0  0
   -3.8747   -1.8252    0.6121 H   0  0  0  0  0  0  0  0  0  0  0  0
   -1.7655   -1.4273    0.7781 C   0  0  0  0  0  0  0  0  0  0  0  0
   -0.8215   -2.1873    0.6264 O   0  0  0  0  0  0  0  0  0  0  0  0
   -1.6760   -0.1147    0.3515 N   0  0  0  0  0  0  0  0  0  0  0  0
   -2.4901    0.4461    0.5804 H   0  0  0  0  0  0  0  0  0  0  0  0
   -0.3807    0.5976    0.3376 C   0  0  1  0  0  0  0  0  0  0  0  0
    0.4086   -0.0846    0.0020 H   0  0  0  0  0  0  0  0  0  0  0  0
   -0.4811    1.7362   -0.7316 C   0  0  1  0  0  0  0  0  0  0  0  0
   -1.3314    2.3841   -0.4928 H   0  0  0  0  0  0  0  0  0  0  0  0
    0.8098    2.5909   -0.7863 C   0  0  0  0  0  0  0  0  0  0  0  0
    1.6825    1.9918   -0.5062 H   0  0  0  0  0  0  0  0  0  0  0  0
    0.7325    3.4505   -0.1167 H   0  0  0  0  0  0  0  0  0  0  0  0
    1.0005    2.9959   -1.7809 H   0  0  0  0  0  0  0  0  0  0  0  0
   -0.7021    1.1000   -2.1348 C   0  0  0  0  0  0  0  0  0  0  0  0
    0.2015    0.5619   -2.4406 H   0  0  0  0  0  0  0  0  0  0  0  0
   -1.5125    0.3670   -2.0897 H   0  0  0  0  0  0  0  0  0  0  0  0
   -1.0836    2.1112   -3.2255 C   0  0  0  0  0  0  0  0  0  0  0  0
   -0.2551    2.7767   -3.4784 H   0  0  0  0  0  0  0  0  0  0  0  0
   -1.3692    1.5767   -4.1367 H   0  0  0  0  0  0  0  0  0  0  0  0
   -1.9351    2.7173   -2.9014 H   0  0  0  0  0  0  0  0  0  0  0  0
    0.0058    0.9893    1.8028 C   0  0  0  0  0  0  0  0  0  0  0  0
   -0.2529    0.2375    2.7345 O   0  0  0  0  0  0  0  0  0  0  0  0
    0.4911    2.2361    2.1578 N   0  0  0  0  0  0  0  0  0  0  0  0
    0.6915    2.8885    1.4097 H   0  0  0  0  0  0  0  0  0  0  0  0
    0.7872    2.6341    3.5303 C   0  0  0  0  0  0  0  0  0  0  0  0
    1.5360    1.9666    3.9698 H   0  0  0  0  0  0  0  0  0  0  0  0
    1.1799    3.6551    3.5515 H   0  0  0  0  0  0  0  0  0  0  0  0
   -0.1192    2.6000    4.1441 H   0  0  0  0  0  0  0  0  0  0  0  0
  1  2  1  0  0  0  0
  2  3  1  0  0  0  0
  2  4  1  0  0  0  0
  2  5  1  0  0  0  0
  5  6  2  0  0  0  0
  5  7  1  0  0  0  0
  7  8  1  0  0  0  0
  7  9  1  0  0  0  0
  9 10  1  0  0  0  0
  9 11  1  0  0  0  0
  9 24  1  0  0  0  0
 11 12  1  0  0  0  0
 11 13  1  0  0  0  0
 11 17  1  0  0  0  0
 13 14  1  0  0  0  0
 13 15  1  0  0  0  0
 13 16  1  0  0  0  0
 17 18  1  0  0  0  0
 17 19  1  0  0  0  0
 17 20  1  0  0  0  0
 20 21  1  0  0  0  0
 20 22  1  0  0  0  0
 20 23  1  0  0  0  0
 24 25  2  0  0  0  0
 24 26  1  0  0  0  0
 26 27  1  0  0  0  0
 26 28  1  0  0  0  0
 28 29  1  0  0  0  0
 28 30  1  0  0  0  0
 28 31  1  0  0  0  0
M  END
$$$$

  -OEChem-01062216083D

 31 30  0     1  0  0  0  0  0999 V2000
   -3.0003   -2.9857    1.6468 H   0  0  0  0  0  0  0  0  0  0  0  0
   -3.0957   -1.9322    1.3693 C   0  0  0  0  0  0  0  0  0  0  0  0
   -3.3724   -1.3597    2.2578 H   0  0  0  0  0  0  0  0  0  0  0  0
   -3.8825   -1.8345    0.6178 H   0  0  0  0  0  0  0  0  0  0  0  0
   -1.7799   -1.4199    0.8155 C   0  0  0  0  0  0  0  0  0  0  0  0
   -0.8452   -2.1892    0.6598 O   0  0  0  0  0  0  0  0  0  0  0  0
   -1.6841   -0.1116    0.3774 N   0  0  0  0  0  0  0  0  0  0  0  0
   -2.5026    0.4533    0.5783 H   0  0  0  0  0  0  0  0  0  0  0  0
   -0.3897    0.6003    0.3399 C   0  0  1  0  0  0  0  0  0  0  0  0
    0.3970   -0.0864    0.0065 H   0  0  0  0  0  0  0  0  0  0  0  0
   -0.4711    1.7450   -0.7191 C   0  0  1  0  0  0  0  0  0  0  0  0
   -1.2925    2.4221   -0.4616 H   0  0  0  0  0  0  0  0  0  0  0  0
    0.8553    2.5402   -0.8210 C   0  0  0  0  0  0  0  0  0  0  0  0
    1.6846    1.8652   -1.0566 H   0  0  0  0  0  0  0  0  0  0  0  0
    0.7969    3.2996   -1.6041 H   0  0  0  0  0  0  0  0  0  0  0  0
    1.1044    3.0716    0.0954 H   0  0  0  0  0  0  0  0  0  0  0  0
   -0.7090    1.1165   -2.1218 C   0  0  0  0  0  0  0  0  0  0  0  0
    0.1764    0.5532   -2.4359 H   0  0  0  0  0  0  0  0  0  0  0  0
   -1.5385    0.4051   -2.0725 H   0  0  0  0  0  0  0  0  0  0  0  0
   -1.0719    2.1417   -3.2026 C   0  0  0  0  0  0  0  0  0  0  0  0
   -0.2152    2.7680   -3.4646 H   0  0  0  0  0  0  0  0  0  0  0  0
   -1.3950    1.6217   -4.1096 H   0  0  0  0  0  0  0  0  0  0  0  0
   -1.8901    2.7839   -2.8629 H   0  0  0  0  0  0  0  0  0  0  0  0
   -0.0148    0.9902    1.8042 C   0  0  0  0  0  0  0  0  0  0  0  0
    0.0307    0.1422    2.6846 O   0  0  0  0  0  0  0  0  0  0  0  0
    0.1679    2.3017    2.2071 N   0  0  0  0  0  0  0  0  0  0  0  0
    0.0639    3.0235    1.5017 H   0  0  0  0  0  0  0  0  0  0  0  0
    0.4587    2.6972    3.5809 C   0  0  0  0  0  0  0  0  0  0  0  0
    1.3816    2.2214    3.9291 H   0  0  0  0  0  0  0  0  0  0  0  0
    0.5854    3.7822    3.6434 H   0  0  0  0  0  0  0  0  0  0  0  0
   -0.3608    2.4054    4.2461 H   0  0  0  0  0  0  0  0  0  0  0  0
  1  2  1  0  0  0  0
  2  3  1  0  0  0  0
  2  4  1  0  0  0  0
  2  5  1  0  0  0  0
  5  6  2  0  0  0  0
  5  7  1  0  0  0  0
  7  8  1  0  0  0  0
  7  9  1  0  0  0  0
  9 10  1  0  0  0  0
  9 11  1  0  0  0  0
  9 24  1  0  0  0  0
 11 12  1  0  0  0  0
 11 13  1  0  0  0  0
 11 17  1  0  0  0  0
 13 14  1  0  0  0  0
 13 15  1  0  0  0  0
 13 16  1  0  0  0  0
 17 18  1  0  0  0  0
 17 19  1  0  0  0  0
 17 20  1  0  0  0  0
 20 21  1  0  0  0  0
 20 22  1  0  0  0  0
 20 23  1  0  0  0  0
 24 25  2  0  0  0  0
 24 26  1  0  0  0  0
 26 27  1  0  0  0  0
 26 28  1  0  0  0  0
 28 29  1  0  0  0  0
 28 30  1  0  0  0  0
 28 31  1  0  0  0  0
M  END
$$$$

  -OEChem-01062216083D

 31 30  0     1  0  0  0  0  0999 V2000
   -3.0387   -2.9955    1.6735 H   0  0  0  0  0  0  0  0  0  0  0  0
   -3.1359   -1.9590    1.3384 C   0  0  0  0  0  0  0  0  0  0  0  0
   -3.4778   -1.3504    2.1788 H   0  0  0  0  0  0  0  0  0  0  0  0
   -3.8763   -1.9150    0.5363 H   0  0  0  0  0  0  0  0  0  0  0  0
   -1.7981   -1.4459    0.8403 C   0  0  0  0  0  0  0  0  0  0  0  0
   -0.8512   -2.2095    0.7531 O   0  0  0  0  0  0  0  0  0  0  0  0
   -1.6917   -0.1443    0.3859 N   0  0  0  0  0  0  0  0  0  0  0  0
   -2.5231    0.4203    0.5253 H   0  0  0  0  0  0  0  0  0  0  0  0
   -0.4007    0.5713    0.3531 C   0  0  1  0  0  0  0  0  0  0  0  0
    0.3897   -0.1151    0.0273 H   0  0  0  0  0  0  0  0  0  0  0  0
   -0.4704    1.7229   -0.6935 C   0  0  1  0  0  0  0  0  0  0  0  0
   -1.2970    2.3932   -0.4352 H   0  0  0  0  0  0  0  0  0  0  0  0
    0.8525    2.5251   -0.7446 C   0  0  0  0  0  0  0  0  0  0  0  0
    1.6785    1.8770   -1.0551 H   0  0  0  0  0  0  0  0  0  0  0  0
    0.7777    3.3535   -1.4537 H   0  0  0  0  0  0  0  0  0  0  0  0
    1.1154    2.9620    0.2192 H   0  0  0  0  0  0  0  0  0  0  0  0
   -0.6988    1.1228   -2.1070 C   0  0  0  0  0  0  0  0  0  0  0  0
    0.1879    0.5642   -2.4256 H   0  0  0  0  0  0  0  0  0  0  0  0
   -1.5307    0.4132   -2.0771 H   0  0  0  0  0  0  0  0  0  0  0  0
   -1.0471    2.1768   -3.1638 C   0  0  0  0  0  0  0  0  0  0  0  0
   -0.1919    2.8236   -3.3770 H   0  0  0  0  0  0  0  0  0  0  0  0
   -1.3361    1.6834   -4.0968 H   0  0  0  0  0  0  0  0  0  0  0  0
   -1.8844    2.7960   -2.8274 H   0  0  0  0  0  0  0  0  0  0  0  0
   -0.0365    0.9860    1.8071 C   0  0  0  0  0  0  0  0  0  0  0  0
    0.2986    0.1508    2.6337 O   0  0  0  0  0  0  0  0  0  0  0  0
   -0.1621    2.2948    2.2425 N   0  0  0  0  0  0  0  0  0  0  0  0
   -0.4291    2.9908    1.5537 H   0  0  0  0  0  0  0  0  0  0  0  0
    0.1553    2.7276    3.5986 C   0  0  0  0  0  0  0  0  0  0  0  0
    1.2108    2.5404    3.8228 H   0  0  0  0  0  0  0  0  0  0  0  0
   -0.0376    3.7989    3.7095 H   0  0  0  0  0  0  0  0  0  0  0  0
   -0.4604    2.1891    4.3268 H   0  0  0  0  0  0  0  0  0  0  0  0
  1  2  1  0  0  0  0
  2  3  1  0  0  0  0
  2  4  1  0  0  0  0
  2  5  1  0  0  0  0
  5  6  2  0  0  0  0
  5  7  1  0  0  0  0
  7  8  1  0  0  0  0
  7  9  1  0  0  0  0
  9 10  1  0  0  0  0
  9 11  1  0  0  0  0
  9 24  1  0  0  0  0
 11 12  1  0  0  0  0
 11 13  1  0  0  0  0
 11 17  1  0  0  0  0
 13 14  1  0  0  0  0
 13 15  1  0  0  0  0
 13 16  1  0  0  0  0
 17 18  1  0  0  0  0
 17 19  1  0  0  0  0
 17 20  1  0  0  0  0
 20 21  1  0  0  0  0
 20 22  1  0  0  0  0
 20 23  1  0  0  0  0
 24 25  2  0  0  0  0
 24 26  1  0  0  0  0
 26 27  1  0  0  0  0
 26 28  1  0  0  0  0
 28 29  1  0  0  0  0
 28 30  1  0  0  0  0
 28 31  1  0  0  0  0
M  END
$$$$

  -OEChem-01062216083D

 31 30  0     1  0  0  0  0  0999 V2000
   -3.1239   -3.0352    1.6025 H   0  0  0  0  0  0  0  0  0  0  0  0
   -3.2051   -2.0169    1.2115 C   0  0  0  0  0  0  0  0  0  0  0  0
   -3.6843   -1.3892    1.9666 H   0  0  0  0  0  0  0  0  0  0  0  0
   -3.8239   -2.0336    0.3113 H   0  0  0  0  0  0  0  0  0  0  0  0
   -1.8267   -1.4746    0.8830 C   0  0  0  0  0  0  0  0  0  0  0  0
   -0.8570   -2.2082    0.9570 O   0  0  0  0  0  0  0  0  0  0  0  0
   -1.6970   -0.1782    0.4220 N   0  0  0  0  0  0  0  0  0  0  0  0
   -2.5466    0.3761    0.4282 H   0  0  0  0  0  0  0  0  0  0  0  0
   -0.4091    0.5419    0.3902 C   0  0  1  0  0  0  0  0  0  0  0  0
    0.3798   -0.1450    0.0607 H   0  0  0  0  0  0  0  0  0  0  0  0
   -0.4809    1.6996   -0.6462 C   0  0  1  0  0  0  0  0  0  0  0  0
   -1.3153    2.3595   -0.3868 H   0  0  0  0  0  0  0  0  0  0  0  0
    0.8301    2.5180   -0.6521 C   0  0  0  0  0  0  0  0  0  0  0  0
    1.6747    1.8823   -0.9371 H   0  0  0  0  0  0  0  0  0  0  0  0
    0.7683    3.3495   -1.3585 H   0  0  0  0  0  0  0  0  0  0  0  0
    1.0459    2.9496    0.3278 H   0  0  0  0  0  0  0  0  0  0  0  0
   -0.7065    1.1208   -2.0667 C   0  0  0  0  0  0  0  0  0  0  0  0
    0.1849    0.5737   -2.3918 H   0  0  0  0  0  0  0  0  0  0  0  0
   -1.5346    0.4062   -2.0492 H   0  0  0  0  0  0  0  0  0  0  0  0
   -1.0550    2.1923   -3.1052 C   0  0  0  0  0  0  0  0  0  0  0  0
   -0.2058    2.8549   -3.2929 H   0  0  0  0  0  0  0  0  0  0  0  0
   -1.3252    1.7153   -4.0524 H   0  0  0  0  0  0  0  0  0  0  0  0
   -1.9044    2.7935   -2.7665 H   0  0  0  0  0  0  0  0  0  0  0  0
   -0.0280    0.9825    1.8274 C   0  0  0  0  0  0  0  0  0  0  0  0
    0.6566    0.2703    2.5455 O   0  0  0  0  0  0  0  0  0  0  0  0
   -0.4349    2.2105    2.3236 N   0  0  0  0  0  0  0  0  0  0  0  0
   -0.9385    2.8243    1.6918 H   0  0  0  0  0  0  0  0  0  0  0  0
   -0.0522    2.7096    3.6390 C   0  0  0  0  0  0  0  0  0  0  0  0
    1.0345    2.8294    3.7013 H   0  0  0  0  0  0  0  0  0  0  0  0
   -0.5198    3.6810    3.8260 H   0  0  0  0  0  0  0  0  0  0  0  0
   -0.3755    2.0149    4.4214 H   0  0  0  0  0  0  0  0  0  0  0  0
  1  2  1  0  0  0  0
  2  3  1  0  0  0  0
  2  4  1  0  0  0  0
  2  5  1  0  0  0  0
  5  6  2  0  0  0  0
  5  7  1  0  0  0  0
  7  8  1  0  0  0  0
  7  9  1  0  0  0  0
  9 10  1  0  0  0  0
  9 11  1  0  0  0  0
  9 24  1  0  0  0  0
 11 12  1  0  0  0  0
 11 13  1  0  0  0  0
 11 17  1  0  0  0  0
 13 14  1  0  0  0  0
 13 15  1  0  0  0  0
 13 16  1  0  0  0  0
 17 18  1  0  0  0  0
 17 19  1  0  0  0  0
 17 20  1  0  0  0  0
 20 21  1  0  0  0  0
 20 22  1  0  0  0  0
 20 23  1  0  0  0  0
 24 25  2  0  0  0  0
 24 26  1  0  0  0  0
 26 27  1  0  0  0  0
 26 28  1  0  0  0  0
 28 29  1  0  0  0  0
 28 30  1  0  0  0  0
 28 31  1  0  0  0  0
M  END
$$$$

  -OEChem-01062216083D

 31 30  0     1  0  0  0  0  0999 V2000
   -3.1941   -3.0866    1.4670 H   0  0  0  0  0  0  0  0  0  0  0  0
   -3.2492   -2.0692    1.0693 C   0  0  0  0  0  0  0  0  0  0  0  0
   -3.8463   -1.4582    1.7503 H   0  0  0  0  0  0  0  0  0  0  0  0
   -3.7365   -2.0996    0.0918 H   0  0  0  0  0  0  0  0  0  0  0  0
   -1.8553   -1.4854    0.9358 C   0  0  0  0  0  0  0  0  0  0  0  0
   -0.8854   -2.1695    1.2072 O   0  0  0  0  0  0  0  0  0  0  0  0
   -1.6996   -0.1948    0.4693 N   0  0  0  0  0  0  0  0  0  0  0  0
   -2.5484    0.3253    0.2736 H   0  0  0  0  0  0  0  0  0  0  0  0
   -0.4094    0.5195    0.4281 C   0  0  1  0  0  0  0  0  0  0  0  0
    0.3697   -0.1736    0.0886 H   0  0  0  0  0  0  0  0  0  0  0  0
   -0.4888    1.6804   -0.6020 C   0  0  1  0  0  0  0  0  0  0  0  0
   -1.3239    2.3352   -0.3322 H   0  0  0  0  0  0  0  0  0  0  0  0
    0.8130    2.5095   -0.5937 C   0  0  0  0  0  0  0  0  0  0  0  0
    1.6695    1.8782   -0.8521 H   0  0  0  0  0  0  0  0  0  0  0  0
    0.7594    3.3324   -1.3107 H   0  0  0  0  0  0  0  0  0  0  0  0
    0.9974    2.9532    0.3885 H   0  0  0  0  0  0  0  0  0  0  0  0
   -0.7295    1.1134   -2.0240 C   0  0  0  0  0  0  0  0  0  0  0  0
    0.1607    0.5712   -2.3607 H   0  0  0  0  0  0  0  0  0  0  0  0
   -1.5569    0.3979   -2.0051 H   0  0  0  0  0  0  0  0  0  0  0  0
   -1.0851    2.1937   -3.0506 C   0  0  0  0  0  0  0  0  0  0  0  0
   -0.2353    2.8549   -3.2405 H   0  0  0  0  0  0  0  0  0  0  0  0
   -1.3653    1.7245   -3.9986 H   0  0  0  0  0  0  0  0  0  0  0  0
   -1.9296    2.7947   -2.6998 H   0  0  0  0  0  0  0  0  0  0  0  0
    0.0044    0.9794    1.8469 C   0  0  0  0  0  0  0  0  0  0  0  0
    0.9782    0.4946    2.4039 O   0  0  0  0  0  0  0  0  0  0  0  0
   -0.6273    2.0581    2.4433 N   0  0  0  0  0  0  0  0  0  0  0  0
   -1.3919    2.4911    1.9373 H   0  0  0  0  0  0  0  0  0  0  0  0
   -0.2234    2.6102    3.7307 C   0  0  0  0  0  0  0  0  0  0  0  0
    0.8125    2.9630    3.6886 H   0  0  0  0  0  0  0  0  0  0  0  0
   -0.8654    3.4544    3.9993 H   0  0  0  0  0  0  0  0  0  0  0  0
   -0.3046    1.8501    4.5148 H   0  0  0  0  0  0  0  0  0  0  0  0
  1  2  1  0  0  0  0
  2  3  1  0  0  0  0
  2  4  1  0  0  0  0
  2  5  1  0  0  0  0
  5  6  2  0  0  0  0
  5  7  1  0  0  0  0
  7  8  1  0  0  0  0
  7  9  1  0  0  0  0
  9 10  1  0  0  0  0
  9 11  1  0  0  0  0
  9 24  1  0  0  0  0
 11 12  1  0  0  0  0
 11 13  1  0  0  0  0
 11 17  1  0  0  0  0
 13 14  1  0  0  0  0
 13 15  1  0  0  0  0
 13 16  1  0  0  0  0
 17 18  1  0  0  0  0
 17 19  1  0  0  0  0
 17 20  1  0  0  0  0
 20 21  1  0  0  0  0
 20 22  1  0  0  0  0
 20 23  1  0  0  0  0
 24 25  2  0  0  0  0
 24 26  1  0  0  0  0
 26 27  1  0  0  0  0
 26 28  1  0  0  0  0
 28 29  1  0  0  0  0
 28 30  1  0  0  0  0
 28 31  1  0  0  0  0
M  END
$$$$

  -OEChem-01062216083D

 31 30  0     1  0  0  0  0  0999 V2000
   -3.2120   -3.1174    1.3542 H   0  0  0  0  0  0  0  0  0  0  0  0
   -3.2581   -2.0973    0.9622 C   0  0  0  0  0  0  0  0  0  0  0  0
   -3.9529   -1.5171    1.5739 H   0  0  0  0  0  0  0  0  0  0  0  0
   -3.6274   -2.1327   -0.0655 H   0  0  0  0  0  0  0  0  0  0  0  0
   -1.8809   -1.4620    0.9980 C   0  0  0  0  0  0  0  0  0  0  0  0
   -0.9348   -2.0901    1.4365 O   0  0  0  0  0  0  0  0  0  0  0  0
   -1.7073   -0.1804    0.5145 N   0  0  0  0  0  0  0  0  0  0  0  0
   -2.5162    0.2692    0.0981 H   0  0  0  0  0  0  0  0  0  0  0  0
   -0.4062    0.5132    0.4551 C   0  0  1  0  0  0  0  0  0  0  0  0
    0.3585   -0.1931    0.1096 H   0  0  0  0  0  0  0  0  0  0  0  0
   -0.4894    1.6723   -0.5766 C   0  0  1  0  0  0  0  0  0  0  0  0
   -1.3149    2.3339   -0.2932 H   0  0  0  0  0  0  0  0  0  0  0  0
    0.8143    2.4973   -0.5842 C   0  0  0  0  0  0  0  0  0  0  0  0
    1.6693    1.8597   -0.8313 H   0  0  0  0  0  0  0  0  0  0  0  0
    0.7635    3.3091   -1.3139 H   0  0  0  0  0  0  0  0  0  0  0  0
    0.9970    2.9562    0.3918 H   0  0  0  0  0  0  0  0  0  0  0  0
   -0.7605    1.1065   -1.9939 C   0  0  0  0  0  0  0  0  0  0  0  0
    0.1176    0.5531   -2.3439 H   0  0  0  0  0  0  0  0  0  0  0  0
   -1.5956    0.4013   -1.9616 H   0  0  0  0  0  0  0  0  0  0  0  0
   -1.1204    2.1894   -3.0162 C   0  0  0  0  0  0  0  0  0  0  0  0
   -0.2651    2.8374   -3.2246 H   0  0  0  0  0  0  0  0  0  0  0  0
   -1.4262    1.7232   -3.9578 H   0  0  0  0  0  0  0  0  0  0  0  0
   -1.9483    2.8040   -2.6498 H   0  0  0  0  0  0  0  0  0  0  0  0
    0.0388    0.9889    1.8575 C   0  0  0  0  0  0  0  0  0  0  0  0
    1.1647    0.7441    2.2683 O   0  0  0  0  0  0  0  0  0  0  0  0
   -0.7525    1.8719    2.5715 N   0  0  0  0  0  0  0  0  0  0  0  0
   -1.6872    2.0438    2.2183 H   0  0  0  0  0  0  0  0  0  0  0  0
   -0.3746    2.4078    3.8730 C   0  0  0  0  0  0  0  0  0  0  0  0
    0.5615    2.9711    3.7987 H   0  0  0  0  0  0  0  0  0  0  0  0
   -1.1527    3.0801    4.2464 H   0  0  0  0  0  0  0  0  0  0  0  0
   -0.2407    1.5960    4.5956 H   0  0  0  0  0  0  0  0  0  0  0  0
  1  2  1  0  0  0  0
  2  3  1  0  0  0  0
  2  4  1  0  0  0  0
  2  5  1  0  0  0  0
  5  6  2  0  0  0  0
  5  7  1  0  0  0  0
  7  8  1  0  0  0  0
  7  9  1  0  0  0  0
  9 10  1  0  0  0  0
  9 11  1  0  0  0  0
  9 24  1  0  0  0  0
 11 12  1  0  0  0  0
 11 13  1  0  0  0  0
 11 17  1  0  0  0  0
 13 14  1  0  0  0  0
 13 15  1  0  0  0  0
 13 16  1  0  0  0  0
 17 18  1  0  0  0  0
 17 19  1  0  0  0  0
 17 20  1  0  0  0  0
 20 21  1  0  0  0  0
 20 22  1  0  0  0  0
 20 23  1  0  0  0  0
 24 25  2  0  0  0  0
 24 26  1  0  0  0  0
 26 27  1  0  0  0  0
 26 28  1  0  0  0  0
 28 29  1  0  0  0  0
 28 30  1  0  0  0  0
 28 31  1  0  0  0  0
M  END
$$$$

  -OEChem-01062216083D

 31 30  0     1  0  0  0  0  0999 V2000
   -3.2011   -3.1134    1.3332 H   0  0  0  0  0  0  0  0  0  0  0  0
   -3.2503   -2.0941    0.9394 C   0  0  0  0  0  0  0  0  0  0  0  0
   -3.9732   -1.5243    1.5282 H   0  0  0  0  0  0  0  0  0  0  0  0
   -3.5858   -2.1350   -0.0996 H   0  0  0  0  0  0  0  0  0  0  0  0
   -1.8845   -1.4387    1.0194 C   0  0  0  0  0  0  0  0  0  0  0  0
   -0.9512   -2.0384    1.5210 O   0  0  0  0  0  0  0  0  0  0  0  0
   -1.7077   -0.1620    0.5242 N   0  0  0  0  0  0  0  0  0  0  0  0
   -2.4926    0.2537    0.0326 H   0  0  0  0  0  0  0  0  0  0  0  0
   -0.3994    0.5198    0.4598 C   0  0  1  0  0  0  0  0  0  0  0  0
    0.3603   -0.1921    0.1162 H   0  0  0  0  0  0  0  0  0  0  0  0
   -0.4868    1.6752   -0.5774 C   0  0  1  0  0  0  0  0  0  0  0  0
   -1.3101    2.3376   -0.2888 H   0  0  0  0  0  0  0  0  0  0  0  0
    0.8131    2.5054   -0.6008 C   0  0  0  0  0  0  0  0  0  0  0  0
    1.6714    1.8677   -0.8354 H   0  0  0  0  0  0  0  0  0  0  0  0
    0.7594    3.3038   -1.3445 H   0  0  0  0  0  0  0  0  0  0  0  0
    0.9911    2.9840    0.3666 H   0  0  0  0  0  0  0  0  0  0  0  0
   -0.7704    1.1043   -1.9908 C   0  0  0  0  0  0  0  0  0  0  0  0
    0.1038    0.5474   -2.3447 H   0  0  0  0  0  0  0  0  0  0  0  0
   -1.6072    0.4016   -1.9502 H   0  0  0  0  0  0  0  0  0  0  0  0
   -1.1347    2.1830   -3.0164 C   0  0  0  0  0  0  0  0  0  0  0  0
   -0.2783    2.8257   -3.2381 H   0  0  0  0  0  0  0  0  0  0  0  0
   -1.4527    1.7126   -3.9519 H   0  0  0  0  0  0  0  0  0  0  0  0
   -1.9559    2.8041   -2.6456 H   0  0  0  0  0  0  0  0  0  0  0  0
    0.0524    1.0032    1.8578 C   0  0  0  0  0  0  0  0  0  0  0  0
    1.2320    0.9545    2.1807 O   0  0  0  0  0  0  0  0  0  0  0  0
   -0.8467    1.6408    2.6940 N   0  0  0  0  0  0  0  0  0  0  0  0
   -1.8251    1.5816    2.4341 H   0  0  0  0  0  0  0  0  0  0  0  0
   -0.4981    2.0942    4.0344 C   0  0  0  0  0  0  0  0  0  0  0  0
    0.3293    2.8105    3.9941 H   0  0  0  0  0  0  0  0  0  0  0  0
   -1.3561    2.5857    4.5027 H   0  0  0  0  0  0  0  0  0  0  0  0
   -0.1993    1.2455    4.6586 H   0  0  0  0  0  0  0  0  0  0  0  0
  1  2  1  0  0  0  0
  2  3  1  0  0  0  0
  2  4  1  0  0  0  0
  2  5  1  0  0  0  0
  5  6  2  0  0  0  0
  5  7  1  0  0  0  0
  7  8  1  0  0  0  0
  7  9  1  0  0  0  0
  9 10  1  0  0  0  0
  9 11  1  0  0  0  0
  9 24  1  0  0  0  0
 11 12  1  0  0  0  0
 11 13  1  0  0  0  0
 11 17  1  0  0  0  0
 13 14  1  0  0  0  0
 13 15  1  0  0  0  0
 13 16  1  0  0  0  0
 17 18  1  0  0  0  0
 17 19  1  0  0  0  0
 17 20  1  0  0  0  0
 20 21  1  0  0  0  0
 20 22  1  0  0  0  0
 20 23  1  0  0  0  0
 24 25  2  0  0  0  0
 24 26  1  0  0  0  0
 26 27  1  0  0  0  0
 26 28  1  0  0  0  0
 28 29  1  0  0  0  0
 28 30  1  0  0  0  0
 28 31  1  0  0  0  0
M  END
$$$$

  -OEChem-01062216083D

 31 30  0     1  0  0  0  0  0999 V2000
   -3.2044   -3.1030    1.2902 H   0  0  0  0  0  0  0  0  0  0  0  0
   -3.2504   -2.0817    0.9014 C   0  0  0  0  0  0  0  0  0  0  0  0
   -3.9956   -1.5218    1.4713 H   0  0  0  0  0  0  0  0  0  0  0  0
   -3.5548   -2.1199   -0.1473 H   0  0  0  0  0  0  0  0  0  0  0  0
   -1.8932   -1.4151    1.0251 C   0  0  0  0  0  0  0  0  0  0  0  0
   -0.9747   -2.0004    1.5695 O   0  0  0  0  0  0  0  0  0  0  0  0
   -1.7069   -0.1405    0.5284 N   0  0  0  0  0  0  0  0  0  0  0  0
   -2.4757    0.2659    0.0038 H   0  0  0  0  0  0  0  0  0  0  0  0
   -0.3936    0.5345    0.4727 C   0  0  1  0  0  0  0  0  0  0  0  0
    0.3664   -0.1793    0.1345 H   0  0  0  0  0  0  0  0  0  0  0  0
   -0.4902    1.6803   -0.5776 C   0  0  1  0  0  0  0  0  0  0  0  0
   -1.3204    2.3365   -0.2947 H   0  0  0  0  0  0  0  0  0  0  0  0
    0.7969    2.5297   -0.6162 C   0  0  0  0  0  0  0  0  0  0  0  0
    1.6672    1.8993   -0.8253 H   0  0  0  0  0  0  0  0  0  0  0  0
    0.7383    3.3062   -1.3824 H   0  0  0  0  0  0  0  0  0  0  0  0
    0.9575    3.0395    0.3380 H   0  0  0  0  0  0  0  0  0  0  0  0
   -0.7717    1.0920   -1.9857 C   0  0  0  0  0  0  0  0  0  0  0  0
    0.1068    0.5382   -2.3341 H   0  0  0  0  0  0  0  0  0  0  0  0
   -1.6030    0.3835   -1.9386 H   0  0  0  0  0  0  0  0  0  0  0  0
   -1.1452    2.1545   -3.0246 C   0  0  0  0  0  0  0  0  0  0  0  0
   -0.2914    2.7940   -3.2637 H   0  0  0  0  0  0  0  0  0  0  0  0
   -1.4697    1.6687   -3.9500 H   0  0  0  0  0  0  0  0  0  0  0  0
   -1.9641    2.7805   -2.6569 H   0  0  0  0  0  0  0  0  0  0  0  0
    0.0591    1.0229    1.8712 C   0  0  0  0  0  0  0  0  0  0  0  0
    1.2487    1.1478    2.1326 O   0  0  0  0  0  0  0  0  0  0  0  0
   -0.8778    1.3868    2.8222 N   0  0  0  0  0  0  0  0  0  0  0  0
   -1.8387    1.1346    2.6180 H   0  0  0  0  0  0  0  0  0  0  0  0
   -0.5198    1.7411    4.1899 C   0  0  0  0  0  0  0  0  0  0  0  0
    0.1581    2.6011    4.1989 H   0  0  0  0  0  0  0  0  0  0  0  0
   -1.4161    2.0038    4.7597 H   0  0  0  0  0  0  0  0  0  0  0  0
   -0.0264    0.8987    4.6861 H   0  0  0  0  0  0  0  0  0  0  0  0
  1  2  1  0  0  0  0
  2  3  1  0  0  0  0
  2  4  1  0  0  0  0
  2  5  1  0  0  0  0
  5  6  2  0  0  0  0
  5  7  1  0  0  0  0
  7  8  1  0  0  0  0
  7  9  1  0  0  0  0
  9 10  1  0  0  0  0
  9 11  1  0  0  0  0
  9 24  1  0  0  0  0
 11 12  1  0  0  0  0
 11 13  1  0  0  0  0
 11 17  1  0  0  0  0
 13 14  1  0  0  0  0
 13 15  1  0  0  0  0
 13 16  1  0  0  0  0
 17 18  1  0  0  0  0
 17 19  1  0  0  0  0
 17 20  1  0  0  0  0
 20 21  1  0  0  0  0
 20 22  1  0  0  0  0
 20 23  1  0  0  0  0
 24 25  2  0  0  0  0
 24 26  1  0  0  0  0
 26 27  1  0  0  0  0
 26 28  1  0  0  0  0
 28 29  1  0  0  0  0
 28 30  1  0  0  0  0
 28 31  1  0  0  0  0
M  END
$$$$

  -OEChem-01062216083D

 31 30  0     1  0  0  0  0  0999 V2000
   -3.2195   -3.0867    1.2607 H   0  0  0  0  0  0  0  0  0  0  0  0
   -3.2596   -2.0641    0.8747 C   0  0  0  0  0  0  0  0  0  0  0  0
   -4.0097   -1.5044    1.4385 H   0  0  0  0  0  0  0  0  0  0  0  0
   -3.5531   -2.0985   -0.1772 H   0  0  0  0  0  0  0  0  0  0  0  0
   -1.9025   -1.4006    1.0146 C   0  0  0  0  0  0  0  0  0  0  0  0
   -0.9949   -1.9824    1.5804 O   0  0  0  0  0  0  0  0  0  0  0  0
   -1.7071   -0.1242    0.5267 N   0  0  0  0  0  0  0  0  0  0  0  0
   -2.4746    0.2940    0.0094 H   0  0  0  0  0  0  0  0  0  0  0  0
   -0.3924    0.5525    0.4864 C   0  0  1  0  0  0  0  0  0  0  0  0
    0.3716   -0.1600    0.1544 H   0  0  0  0  0  0  0  0  0  0  0  0
   -0.4965    1.6889   -0.5782 C   0  0  1  0  0  0  0  0  0  0  0  0
   -1.3382    2.3353   -0.3071 H   0  0  0  0  0  0  0  0  0  0  0  0
    0.7731    2.5635   -0.6274 C   0  0  0  0  0  0  0  0  0  0  0  0
    1.6597    1.9442   -0.7968 H   0  0  0  0  0  0  0  0  0  0  0  0
    0.7139    3.3098   -1.4223 H   0  0  0  0  0  0  0  0  0  0  0  0
    0.9034    3.1138    0.3084 H   0  0  0  0  0  0  0  0  0  0  0  0
   -0.7633    1.0807   -1.9823 C   0  0  0  0  0  0  0  0  0  0  0  0
    0.1245    0.5344   -2.3181 H   0  0  0  0  0  0  0  0  0  0  0  0
   -1.5855    0.3620   -1.9331 H   0  0  0  0  0  0  0  0  0  0  0  0
   -1.1439    2.1244   -3.0382 C   0  0  0  0  0  0  0  0  0  0  0  0
   -0.2951    2.7667   -3.2873 H   0  0  0  0  0  0  0  0  0  0  0  0
   -1.4633    1.6219   -3.9563 H   0  0  0  0  0  0  0  0  0  0  0  0
   -1.9680    2.7496   -2.6811 H   0  0  0  0  0  0  0  0  0  0  0  0
    0.0564    1.0398    1.8903 C   0  0  0  0  0  0  0  0  0  0  0  0
    1.2237    1.3404    2.1060 O   0  0  0  0  0  0  0  0  0  0  0  0
   -0.8486    1.1105    2.9345 N   0  0  0  0  0  0  0  0  0  0  0  0
   -1.7415    0.6596    2.7675 H   0  0  0  0  0  0  0  0  0  0  0  0
   -0.4478    1.3727    4.3111 C   0  0  0  0  0  0  0  0  0  0  0  0
    0.0573    2.3414    4.3858 H   0  0  0  0  0  0  0  0  0  0  0  0
   -1.3259    1.3912    4.9633 H   0  0  0  0  0  0  0  0  0  0  0  0
    0.2329    0.5919    4.6664 H   0  0  0  0  0  0  0  0  0  0  0  0
  1  2  1  0  0  0  0
  2  3  1  0  0  0  0
  2  4  1  0  0  0  0
  2  5  1  0  0  0  0
  5  6  2  0  0  0  0
  5  7  1  0  0  0  0
  7  8  1  0  0  0  0
  7  9  1  0  0  0  0
  9 10  1  0  0  0  0
  9 11  1  0  0  0  0
  9 24  1  0  0  0  0
 11 12  1  0  0  0  0
 11 13  1  0  0  0  0
 11 17  1  0  0  0  0
 13 14  1  0  0  0  0
 13 15  1  0  0  0  0
 13 16  1  0  0  0  0
 17 18  1  0  0  0  0
 17 19  1  0  0  0  0
 17 20  1  0  0  0  0
 20 21  1  0  0  0  0
 20 22  1  0  0  0  0
 20 23  1  0  0  0  0
 24 25  2  0  0  0  0
 24 26  1  0  0  0  0
 26 27  1  0  0  0  0
 26 28  1  0  0  0  0
 28 29  1  0  0  0  0
 28 30  1  0  0  0  0
 28 31  1  0  0  0  0
M  END
$$$$

  -OEChem-01062216083D

 31 30  0     1  0  0  0  0  0999 V2000
   -3.2562   -3.0665    1.2044 H   0  0  0  0  0  0  0  0  0  0  0  0
   -3.2773   -2.0438    0.8170 C   0  0  0  0  0  0  0  0  0  0  0  0
   -4.0404   -1.4782    1.3570 H   0  0  0  0  0  0  0  0  0  0  0  0
   -3.5386   -2.0761   -0.2435 H   0  0  0  0  0  0  0  0  0  0  0  0
   -1.9207   -1.3899    0.9975 C   0  0  0  0  0  0  0  0  0  0  0  0
   -1.0349   -1.9736    1.5955 O   0  0  0  0  0  0  0  0  0  0  0  0
   -1.7065   -0.1090    0.5317 N   0  0  0  0  0  0  0  0  0  0  0  0
   -2.4696    0.3271    0.0223 H   0  0  0  0  0  0  0  0  0  0  0  0
   -0.3898    0.5669    0.5084 C   0  0  1  0  0  0  0  0  0  0  0  0
    0.3755   -0.1439    0.1768 H   0  0  0  0  0  0  0  0  0  0  0  0
   -0.5043    1.6965   -0.5683 C   0  0  1  0  0  0  0  0  0  0  0  0
   -1.3542    2.3355   -0.3054 H   0  0  0  0  0  0  0  0  0  0  0  0
    0.7519    2.5896   -0.6349 C   0  0  0  0  0  0  0  0  0  0  0  0
    1.6522    1.9784   -0.7532 H   0  0  0  0  0  0  0  0  0  0  0  0
    0.7013    3.2955   -1.4660 H   0  0  0  0  0  0  0  0  0  0  0  0
    0.8500    3.1900    0.2733 H   0  0  0  0  0  0  0  0  0  0  0  0
   -0.7608    1.0703   -1.9687 C   0  0  0  0  0  0  0  0  0  0  0  0
    0.1342    0.5304   -2.2958 H   0  0  0  0  0  0  0  0  0  0  0  0
   -1.5746    0.3424   -1.9156 H   0  0  0  0  0  0  0  0  0  0  0  0
   -1.1520    2.0942   -3.0409 C   0  0  0  0  0  0  0  0  0  0  0  0
   -0.3090    2.7373   -3.3073 H   0  0  0  0  0  0  0  0  0  0  0  0
   -1.4741    1.5736   -3.9479 H   0  0  0  0  0  0  0  0  0  0  0  0
   -1.9782    2.7202   -2.6906 H   0  0  0  0  0  0  0  0  0  0  0  0
    0.0582    1.0388    1.9233 C   0  0  0  0  0  0  0  0  0  0  0  0
    1.1576    1.5457    2.1062 O   0  0  0  0  0  0  0  0  0  0  0  0
   -0.7416    0.8149    3.0304 N   0  0  0  0  0  0  0  0  0  0  0  0
   -1.4850    0.1389    2.8845 H   0  0  0  0  0  0  0  0  0  0  0  0
   -0.2817    1.0407    4.3953 C   0  0  0  0  0  0  0  0  0  0  0  0
    0.0210    2.0843    4.5309 H   0  0  0  0  0  0  0  0  0  0  0  0
   -1.0846    0.8214    5.1054 H   0  0  0  0  0  0  0  0  0  0  0  0
    0.5716    0.3935    4.6237 H   0  0  0  0  0  0  0  0  0  0  0  0
  1  2  1  0  0  0  0
  2  3  1  0  0  0  0
  2  4  1  0  0  0  0
  2  5  1  0  0  0  0
  5  6  2  0  0  0  0
  5  7  1  0  0  0  0
  7  8  1  0  0  0  0
  7  9  1  0  0  0  0
  9 10  1  0  0  0  0
  9 11  1  0  0  0  0
  9 24  1  0  0  0  0
 11 12  1  0  0  0  0
 11 13  1  0  0  0  0
 11 17  1  0  0  0  0
 13 14  1  0  0  0  0
 13 15  1  0  0  0  0
 13 16  1  0  0  0  0
 17 18  1  0  0  0  0
 17 19  1  0  0  0  0
 17 20  1  0  0  0  0
 20 21  1  0  0  0  0
 20 22  1  0  0  0  0
 20 23  1  0  0  0  0
 24 25  2  0  0  0  0
 24 26  1  0  0  0  0
 26 27  1  0  0  0  0
 26 28  1  0  0  0  0
 28 29  1  0  0  0  0
 28 30  1  0  0  0  0
 28 31  1  0  0  0  0
M  END
$$$$

  -OEChem-01062216083D

 31 30  0     1  0  0  0  0  0999 V2000
   -3.2857   -3.0487    1.1611 H   0  0  0  0  0  0  0  0  0  0  0  0
   -3.2979   -2.0166    0.7992 C   0  0  0  0  0  0  0  0  0  0  0  0
   -4.0445   -1.4538    1.3648 H   0  0  0  0  0  0  0  0  0  0  0  0
   -3.5764   -2.0187   -0.2575 H   0  0  0  0  0  0  0  0  0  0  0  0
   -1.9296   -1.3859    0.9747 C   0  0  0  0  0  0  0  0  0  0  0  0
   -1.0437   -1.9930    1.5509 O   0  0  0  0  0  0  0  0  0  0  0  0
   -1.7042   -0.0959    0.5416 N   0  0  0  0  0  0  0  0  0  0  0  0
   -2.4816    0.3749    0.0877 H   0  0  0  0  0  0  0  0  0  0  0  0
   -0.3885    0.5840    0.5224 C   0  0  1  0  0  0  0  0  0  0  0  0
    0.3744   -0.1249    0.1828 H   0  0  0  0  0  0  0  0  0  0  0  0
   -0.5070    1.7101   -0.5622 C   0  0  1  0  0  0  0  0  0  0  0  0
   -1.3593    2.3486   -0.3063 H   0  0  0  0  0  0  0  0  0  0  0  0
    0.7476    2.6061   -0.6477 C   0  0  0  0  0  0  0  0  0  0  0  0
    1.6545    1.9946   -0.6890 H   0  0  0  0  0  0  0  0  0  0  0  0
    0.7288    3.2522   -1.5268 H   0  0  0  0  0  0  0  0  0  0  0  0
    0.8072    3.2721    0.2167 H   0  0  0  0  0  0  0  0  0  0  0  0
   -0.7576    1.0671   -1.9581 C   0  0  0  0  0  0  0  0  0  0  0  0
    0.1403    0.5273   -2.2776 H   0  0  0  0  0  0  0  0  0  0  0  0
   -1.5684    0.3363   -1.8989 H   0  0  0  0  0  0  0  0  0  0  0  0
   -1.1539    2.0736   -3.0454 C   0  0  0  0  0  0  0  0  0  0  0  0
   -0.3108    2.7064   -3.3340 H   0  0  0  0  0  0  0  0  0  0  0  0
   -1.4882    1.5381   -3.9393 H   0  0  0  0  0  0  0  0  0  0  0  0
   -1.9730    2.7111   -2.6986 H   0  0  0  0  0  0  0  0  0  0  0  0
    0.0643    1.0207    1.9523 C   0  0  0  0  0  0  0  0  0  0  0  0
    1.0050    1.7809    2.1371 O   0  0  0  0  0  0  0  0  0  0  0  0
   -0.5586    0.5048    3.0754 N   0  0  0  0  0  0  0  0  0  0  0  0
   -1.0759   -0.3554    2.9013 H   0  0  0  0  0  0  0  0  0  0  0  0
   -0.0675    0.7348    4.4290 C   0  0  0  0  0  0  0  0  0  0  0  0
   -0.0514    1.8062    4.6550 H   0  0  0  0  0  0  0  0  0  0  0  0
   -0.7197    0.2407    5.1554 H   0  0  0  0  0  0  0  0  0  0  0  0
    0.9457    0.3351    4.5422 H   0  0  0  0  0  0  0  0  0  0  0  0
  1  2  1  0  0  0  0
  2  3  1  0  0  0  0
  2  4  1  0  0  0  0
  2  5  1  0  0  0  0
  5  6  2  0  0  0  0
  5  7  1  0  0  0  0
  7  8  1  0  0  0  0
  7  9  1  0  0  0  0
  9 10  1  0  0  0  0
  9 11  1  0  0  0  0
  9 24  1  0  0  0  0
 11 12  1  0  0  0  0
 11 13  1  0  0  0  0
 11 17  1  0  0  0  0
 13 14  1  0  0  0  0
 13 15  1  0  0  0  0
 13 16  1  0  0  0  0
 17 18  1  0  0  0  0
 17 19  1  0  0  0  0
 17 20  1  0  0  0  0
 20 21  1  0  0  0  0
 20 22  1  0  0  0  0
 20 23  1  0  0  0  0
 24 25  2  0  0  0  0
 24 26  1  0  0  0  0
 26 27  1  0  0  0  0
 26 28  1  0  0  0  0
 28 29  1  0  0  0  0
 28 30  1  0  0  0  0
 28 31  1  0  0  0  0
M  END
$$$$

  -OEChem-01062216083D

 31 30  0     1  0  0  0  0  0999 V2000
   -3.2746   -3.0327    1.2514 H   0  0  0  0  0  0  0  0  0  0  0  0
   -3.2912   -2.0001    0.8911 C   0  0  0  0  0  0  0  0  0  0  0  0
   -3.9663   -1.4178    1.5232 H   0  0  0  0  0  0  0  0  0  0  0  0
   -3.6654   -1.9924   -0.1355 H   0  0  0  0  0  0  0  0  0  0  0  0
   -1.8958   -1.4077    0.9387 C   0  0  0  0  0  0  0  0  0  0  0  0
   -0.9671   -2.0633    1.3820 O   0  0  0  0  0  0  0  0  0  0  0  0
   -1.6845   -0.1065    0.5309 N   0  0  0  0  0  0  0  0  0  0  0  0
   -2.5008    0.4151    0.2245 H   0  0  0  0  0  0  0  0  0  0  0  0
   -0.3778    0.5894    0.5026 C   0  0  1  0  0  0  0  0  0  0  0  0
    0.3883   -0.1096    0.1495 H   0  0  0  0  0  0  0  0  0  0  0  0
   -0.4985    1.7242   -0.5726 C   0  0  1  0  0  0  0  0  0  0  0  0
   -1.3426    2.3718   -0.3124 H   0  0  0  0  0  0  0  0  0  0  0  0
    0.7763    2.5951   -0.6657 C   0  0  0  0  0  0  0  0  0  0  0  0
    1.6722    1.9664   -0.6505 H   0  0  0  0  0  0  0  0  0  0  0  0
    0.7978    3.1966   -1.5753 H   0  0  0  0  0  0  0  0  0  0  0  0
    0.8269    3.3044    0.1633 H   0  0  0  0  0  0  0  0  0  0  0  0
   -0.7497    1.0860   -1.9704 C   0  0  0  0  0  0  0  0  0  0  0  0
    0.1468    0.5462   -2.2937 H   0  0  0  0  0  0  0  0  0  0  0  0
   -1.5608    0.3556   -1.9106 H   0  0  0  0  0  0  0  0  0  0  0  0
   -1.1497    2.0964   -3.0539 C   0  0  0  0  0  0  0  0  0  0  0  0
   -0.3087    2.7293   -3.3476 H   0  0  0  0  0  0  0  0  0  0  0  0
   -1.4910    1.5634   -3.9466 H   0  0  0  0  0  0  0  0  0  0  0  0
   -1.9656    2.7344   -2.7004 H   0  0  0  0  0  0  0  0  0  0  0  0
    0.0711    0.9902    1.9463 C   0  0  0  0  0  0  0  0  0  0  0  0
    0.7074    2.0049    2.1917 O   0  0  0  0  0  0  0  0  0  0  0  0
   -0.3109    0.2226    3.0328 N   0  0  0  0  0  0  0  0  0  0  0  0
   -0.6282   -0.7193    2.7981 H   0  0  0  0  0  0  0  0  0  0  0  0
    0.1390    0.4765    4.3963 C   0  0  0  0  0  0  0  0  0  0  0  0
   -0.1660    1.4766    4.7220 H   0  0  0  0  0  0  0  0  0  0  0  0
   -0.3003   -0.2561    5.0800 H   0  0  0  0  0  0  0  0  0  0  0  0
    1.2295    0.4018    4.4601 H   0  0  0  0  0  0  0  0  0  0  0  0
  1  2  1  0  0  0  0
  2  3  1  0  0  0  0
  2  4  1  0  0  0  0
  2  5  1  0  0  0  0
  5  6  2  0  0  0  0
  5  7  1  0  0  0  0
  7  8  1  0  0  0  0
  7  9  1  0  0  0  0
  9 10  1  0  0  0  0
  9 11  1  0  0  0  0
  9 24  1  0  0  0  0
 11 12  1  0  0  0  0
 11 13  1  0  0  0  0
 11 17  1  0  0  0  0
 13 14  1  0  0  0  0
 13 15  1  0  0  0  0
 13 16  1  0  0  0  0
 17 18  1  0  0  0  0
 17 19  1  0  0  0  0
 17 20  1  0  0  0  0
 20 21  1  0  0  0  0
 20 22  1  0  0  0  0
 20 23  1  0  0  0  0
 24 25  2  0  0  0  0
 24 26  1  0  0  0  0
 26 27  1  0  0  0  0
 26 28  1  0  0  0  0
 28 29  1  0  0  0  0
 28 30  1  0  0  0  0
 28 31  1  0  0  0  0
M  END
$$$$

  -OEChem-01062216083D

 31 30  0     1  0  0  0  0  0999 V2000
   -3.2136   -3.0338    1.3759 H   0  0  0  0  0  0  0  0  0  0  0  0
   -3.2469   -2.0047    1.0067 C   0  0  0  0  0  0  0  0  0  0  0  0
   -3.8590   -1.4067    1.6865 H   0  0  0  0  0  0  0  0  0  0  0  0
   -3.7058   -2.0021    0.0150 H   0  0  0  0  0  0  0  0  0  0  0  0
   -1.8453   -1.4302    0.9300 C   0  0  0  0  0  0  0  0  0  0  0  0
   -0.8851   -2.1117    1.2546 O   0  0  0  0  0  0  0  0  0  0  0  0
   -1.6587   -0.1253    0.5209 N   0  0  0  0  0  0  0  0  0  0  0  0
   -2.4964    0.4208    0.3414 H   0  0  0  0  0  0  0  0  0  0  0  0
   -0.3597    0.5799    0.4665 C   0  0  1  0  0  0  0  0  0  0  0  0
    0.4047   -0.1123    0.0979 H   0  0  0  0  0  0  0  0  0  0  0  0
   -0.4797    1.7290   -0.5882 C   0  0  1  0  0  0  0  0  0  0  0  0
   -1.3060    2.3905   -0.3070 H   0  0  0  0  0  0  0  0  0  0  0  0
    0.8207    2.5634   -0.6912 C   0  0  0  0  0  0  0  0  0  0  0  0
    1.6893    1.9064   -0.7988 H   0  0  0  0  0  0  0  0  0  0  0  0
    0.7965    3.2424   -1.5452 H   0  0  0  0  0  0  0  0  0  0  0  0
    0.9674    3.1940    0.1870 H   0  0  0  0  0  0  0  0  0  0  0  0
   -0.7513    1.1119   -1.9903 C   0  0  0  0  0  0  0  0  0  0  0  0
    0.1338    0.5646   -2.3318 H   0  0  0  0  0  0  0  0  0  0  0  0
   -1.5711    0.3912   -1.9282 H   0  0  0  0  0  0  0  0  0  0  0  0
   -1.1517    2.1432   -3.0529 C   0  0  0  0  0  0  0  0  0  0  0  0
   -0.3079    2.7766   -3.3382 H   0  0  0  0  0  0  0  0  0  0  0  0
   -1.5008    1.6286   -3.9534 H   0  0  0  0  0  0  0  0  0  0  0  0
   -1.9619    2.7792   -2.6830 H   0  0  0  0  0  0  0  0  0  0  0  0
    0.0930    0.9679    1.9094 C   0  0  0  0  0  0  0  0  0  0  0  0
    0.3571    2.1166    2.2363 O   0  0  0  0  0  0  0  0  0  0  0  0
   -0.0013    0.0417    2.9324 N   0  0  0  0  0  0  0  0  0  0  0  0
   -0.1839   -0.9229    2.6461 H   0  0  0  0  0  0  0  0  0  0  0  0
    0.3486    0.3138    4.3208 C   0  0  0  0  0  0  0  0  0  0  0  0
   -0.2640    1.1297    4.7185 H   0  0  0  0  0  0  0  0  0  0  0  0
    0.1769   -0.5761    4.9338 H   0  0  0  0  0  0  0  0  0  0  0  0
    1.4041    0.5928    4.4019 H   0  0  0  0  0  0  0  0  0  0  0  0
  1  2  1  0  0  0  0
  2  3  1  0  0  0  0
  2  4  1  0  0  0  0
  2  5  1  0  0  0  0
  5  6  2  0  0  0  0
  5  7  1  0  0  0  0
  7  8  1  0  0  0  0
  7  9  1  0  0  0  0
  9 10  1  0  0  0  0
  9 11  1  0  0  0  0
  9 24  1  0  0  0  0
 11 12  1  0  0  0  0
 11 13  1  0  0  0  0
 11 17  1  0  0  0  0
 13 14  1  0  0  0  0
 13 15  1  0  0  0  0
 13 16  1  0  0  0  0
 17 18  1  0  0  0  0
 17 19  1  0  0  0  0
 17 20  1  0  0  0  0
 20 21  1  0  0  0  0
 20 22  1  0  0  0  0
 20 23  1  0  0  0  0
 24 25  2  0  0  0  0
 24 26  1  0  0  0  0
 26 27  1  0  0  0  0
 26 28  1  0  0  0  0
 28 29  1  0  0  0  0
 28 30  1  0  0  0  0
 28 31  1  0  0  0  0
M  END
$$$$

  -OEChem-01062216083D

 31 30  0     1  0  0  0  0  0999 V2000
   -3.1286   -3.0394    1.4965 H   0  0  0  0  0  0  0  0  0  0  0  0
   -3.1846   -2.0120    1.1255 C   0  0  0  0  0  0  0  0  0  0  0  0
   -3.7450   -1.4089    1.8441 H   0  0  0  0  0  0  0  0  0  0  0  0
   -3.7126   -2.0118    0.1688 H   0  0  0  0  0  0  0  0  0  0  0  0
   -1.7897   -1.4433    0.9475 C   0  0  0  0  0  0  0  0  0  0  0  0
   -0.8112   -2.1255    1.2131 O   0  0  0  0  0  0  0  0  0  0  0  0
   -1.6268   -0.1445    0.5092 N   0  0  0  0  0  0  0  0  0  0  0  0
   -2.4705    0.4126    0.4069 H   0  0  0  0  0  0  0  0  0  0  0  0
   -0.3308    0.5584    0.4200 C   0  0  1  0  0  0  0  0  0  0  0  0
    0.4290   -0.1328    0.0395 H   0  0  0  0  0  0  0  0  0  0  0  0
   -0.4523    1.7192   -0.6138 C   0  0  1  0  0  0  0  0  0  0  0  0
   -1.2604    2.3899   -0.3022 H   0  0  0  0  0  0  0  0  0  0  0  0
    0.8640    2.5259   -0.7196 C   0  0  0  0  0  0  0  0  0  0  0  0
    1.6909    1.8728   -1.0154 H   0  0  0  0  0  0  0  0  0  0  0  0
    0.7742    3.3272   -1.4565 H   0  0  0  0  0  0  0  0  0  0  0  0
    1.1288    3.0044    0.2248 H   0  0  0  0  0  0  0  0  0  0  0  0
   -0.7592    1.1350   -2.0194 C   0  0  0  0  0  0  0  0  0  0  0  0
    0.1090    0.5800   -2.3901 H   0  0  0  0  0  0  0  0  0  0  0  0
   -1.5908    0.4279   -1.9537 H   0  0  0  0  0  0  0  0  0  0  0  0
   -1.1592    2.2002   -3.0462 C   0  0  0  0  0  0  0  0  0  0  0  0
   -0.3140    2.8440   -3.3035 H   0  0  0  0  0  0  0  0  0  0  0  0
   -1.5041    1.7166   -3.9652 H   0  0  0  0  0  0  0  0  0  0  0  0
   -1.9711    2.8218   -2.6565 H   0  0  0  0  0  0  0  0  0  0  0  0
    0.1277    0.9618    1.8507 C   0  0  0  0  0  0  0  0  0  0  0  0
    0.0911    2.1218    2.2419 O   0  0  0  0  0  0  0  0  0  0  0  0
    0.3339   -0.0222    2.7990 N   0  0  0  0  0  0  0  0  0  0  0  0
    0.1971   -0.9862    2.4846 H   0  0  0  0  0  0  0  0  0  0  0  0
    0.5585    0.2388    4.2145 C   0  0  0  0  0  0  0  0  0  0  0  0
   -0.3101    0.7396    4.6543 H   0  0  0  0  0  0  0  0  0  0  0  0
    0.7252   -0.7012    4.7490 H   0  0  0  0  0  0  0  0  0  0  0  0
    1.4396    0.8743    4.3514 H   0  0  0  0  0  0  0  0  0  0  0  0
  1  2  1  0  0  0  0
  2  3  1  0  0  0  0
  2  4  1  0  0  0  0
  2  5  1  0  0  0  0
  5  6  2  0  0  0  0
  5  7  1  0  0  0  0
  7  8  1  0  0  0  0
  7  9  1  0  0  0  0
  9 10  1  0  0  0  0
  9 11  1  0  0  0  0
  9 24  1  0  0  0  0
 11 12  1  0  0  0  0
 11 13  1  0  0  0  0
 11 17  1  0  0  0  0
 13 14  1  0  0  0  0
 13 15  1  0  0  0  0
 13 16  1  0  0  0  0
 17 18  1  0  0  0  0
 17 19  1  0  0  0  0
 17 20  1  0  0  0  0
 20 21  1  0  0  0  0
 20 22  1  0  0  0  0
 20 23  1  0  0  0  0
 24 25  2  0  0  0  0
 24 26  1  0  0  0  0
 26 27  1  0  0  0  0
 26 28  1  0  0  0  0
 28 29  1  0  0  0  0
 28 30  1  0  0  0  0
 28 31  1  0  0  0  0
M  END
$$$$

  -OEChem-01062216083D

 31 30  0     1  0  0  0  0  0999 V2000
   -3.0662   -3.0381    1.5788 H   0  0  0  0  0  0  0  0  0  0  0  0
   -3.1408   -2.0224    1.1801 C   0  0  0  0  0  0  0  0  0  0  0  0
   -3.6958   -1.4054    1.8912 H   0  0  0  0  0  0  0  0  0  0  0  0
   -3.6854   -2.0547    0.2333 H   0  0  0  0  0  0  0  0  0  0  0  0
   -1.7561   -1.4432    0.9615 C   0  0  0  0  0  0  0  0  0  0  0  0
   -0.7638   -2.1083    1.2225 O   0  0  0  0  0  0  0  0  0  0  0  0
   -1.6156   -0.1521    0.4938 N   0  0  0  0  0  0  0  0  0  0  0  0
   -2.4613    0.4068    0.4220 H   0  0  0  0  0  0  0  0  0  0  0  0
   -0.3216    0.5464    0.3906 C   0  0  1  0  0  0  0  0  0  0  0  0
    0.4394   -0.1436    0.0100 H   0  0  0  0  0  0  0  0  0  0  0  0
   -0.4427    1.7117   -0.6332 C   0  0  1  0  0  0  0  0  0  0  0  0
   -1.2483    2.3811   -0.3119 H   0  0  0  0  0  0  0  0  0  0  0  0
    0.8733    2.5174   -0.7185 C   0  0  0  0  0  0  0  0  0  0  0  0
    1.6949    1.8764   -1.0530 H   0  0  0  0  0  0  0  0  0  0  0  0
    0.7759    3.3513   -1.4181 H   0  0  0  0  0  0  0  0  0  0  0  0
    1.1469    2.9479    0.2477 H   0  0  0  0  0  0  0  0  0  0  0  0
   -0.7644    1.1462   -2.0410 C   0  0  0  0  0  0  0  0  0  0  0  0
    0.0972    0.5901   -2.4251 H   0  0  0  0  0  0  0  0  0  0  0  0
   -1.6006    0.4442   -1.9764 H   0  0  0  0  0  0  0  0  0  0  0  0
   -1.1624    2.2298   -3.0483 C   0  0  0  0  0  0  0  0  0  0  0  0
   -0.3153    2.8768   -3.2918 H   0  0  0  0  0  0  0  0  0  0  0  0
   -1.5076    1.7636   -3.9761 H   0  0  0  0  0  0  0  0  0  0  0  0
   -1.9735    2.8459   -2.6480 H   0  0  0  0  0  0  0  0  0  0  0  0
    0.1250    0.9698    1.8134 C   0  0  0  0  0  0  0  0  0  0  0  0
   -0.1022    2.0908    2.2534 O   0  0  0  0  0  0  0  0  0  0  0  0
    0.6188    0.0077    2.6731 N   0  0  0  0  0  0  0  0  0  0  0  0
    0.5349   -0.9571    2.3439 H   0  0  0  0  0  0  0  0  0  0  0  0
    0.8457    0.2428    4.0928 C   0  0  0  0  0  0  0  0  0  0  0  0
   -0.0929    0.5027    4.5930 H   0  0  0  0  0  0  0  0  0  0  0  0
    1.2535   -0.6571    4.5634 H   0  0  0  0  0  0  0  0  0  0  0  0
    1.5602    1.0602    4.2361 H   0  0  0  0  0  0  0  0  0  0  0  0
  1  2  1  0  0  0  0
  2  3  1  0  0  0  0
  2  4  1  0  0  0  0
  2  5  1  0  0  0  0
  5  6  2  0  0  0  0
  5  7  1  0  0  0  0
  7  8  1  0  0  0  0
  7  9  1  0  0  0  0
  9 10  1  0  0  0  0
  9 11  1  0  0  0  0
  9 24  1  0  0  0  0
 11 12  1  0  0  0  0
 11 13  1  0  0  0  0
 11 17  1  0  0  0  0
 13 14  1  0  0  0  0
 13 15  1  0  0  0  0
 13 16  1  0  0  0  0
 17 18  1  0  0  0  0
 17 19  1  0  0  0  0
 17 20  1  0  0  0  0
 20 21  1  0  0  0  0
 20 22  1  0  0  0  0
 20 23  1  0  0  0  0
 24 25  2  0  0  0  0
 24 26  1  0  0  0  0
 26 27  1  0  0  0  0
 26 28  1  0  0  0  0
 28 29  1  0  0  0  0
 28 30  1  0  0  0  0
 28 31  1  0  0  0  0
M  END
$$$$

  -OEChem-01062216083D

 31 30  0     1  0  0  0  0  0999 V2000
   -3.0276   -3.0463    1.6150 H   0  0  0  0  0  0  0  0  0  0  0  0
   -3.1206   -2.0345    1.2102 C   0  0  0  0  0  0  0  0  0  0  0  0
   -3.6661   -1.4171    1.9281 H   0  0  0  0  0  0  0  0  0  0  0  0
   -3.6847   -2.0795    0.2754 H   0  0  0  0  0  0  0  0  0  0  0  0
   -1.7466   -1.4440    0.9573 C   0  0  0  0  0  0  0  0  0  0  0  0
   -0.7413   -2.0938    1.2086 O   0  0  0  0  0  0  0  0  0  0  0  0
   -1.6267   -0.1582    0.4703 N   0  0  0  0  0  0  0  0  0  0  0  0
   -2.4720    0.4055    0.4393 H   0  0  0  0  0  0  0  0  0  0  0  0
   -0.3326    0.5354    0.3693 C   0  0  1  0  0  0  0  0  0  0  0  0
    0.4304   -0.1544   -0.0075 H   0  0  0  0  0  0  0  0  0  0  0  0
   -0.4440    1.7052   -0.6478 C   0  0  1  0  0  0  0  0  0  0  0  0
   -1.2515    2.3725   -0.3265 H   0  0  0  0  0  0  0  0  0  0  0  0
    0.8714    2.5116   -0.7031 C   0  0  0  0  0  0  0  0  0  0  0  0
    1.6988    1.8759   -1.0339 H   0  0  0  0  0  0  0  0  0  0  0  0
    0.7836    3.3552   -1.3923 H   0  0  0  0  0  0  0  0  0  0  0  0
    1.1261    2.9266    0.2759 H   0  0  0  0  0  0  0  0  0  0  0  0
   -0.7646    1.1547   -2.0608 C   0  0  0  0  0  0  0  0  0  0  0  0
    0.0962    0.5988   -2.4467 H   0  0  0  0  0  0  0  0  0  0  0  0
   -1.6039    0.4558   -2.0047 H   0  0  0  0  0  0  0  0  0  0  0  0
   -1.1522    2.2510   -3.0583 C   0  0  0  0  0  0  0  0  0  0  0  0
   -0.3025    2.9018   -3.2816 H   0  0  0  0  0  0  0  0  0  0  0  0
   -1.4857    1.7979   -3.9969 H   0  0  0  0  0  0  0  0  0  0  0  0
   -1.9689    2.8605   -2.6595 H   0  0  0  0  0  0  0  0  0  0  0  0
    0.0975    0.9723    1.7893 C   0  0  0  0  0  0  0  0  0  0  0  0
   -0.2952    2.0251    2.2789 O   0  0  0  0  0  0  0  0  0  0  0  0
    0.8584    0.1081    2.5522 N   0  0  0  0  0  0  0  0  0  0  0  0
    0.8964   -0.8523    2.2073 H   0  0  0  0  0  0  0  0  0  0  0  0
    1.1514    0.3468    3.9591 C   0  0  0  0  0  0  0  0  0  0  0  0
    0.2264    0.3719    4.5444 H   0  0  0  0  0  0  0  0  0  0  0  0
    1.7901   -0.4505    4.3510 H   0  0  0  0  0  0  0  0  0  0  0  0
    1.6750    1.3003    4.0852 H   0  0  0  0  0  0  0  0  0  0  0  0
  1  2  1  0  0  0  0
  2  3  1  0  0  0  0
  2  4  1  0  0  0  0
  2  5  1  0  0  0  0
  5  6  2  0  0  0  0
  5  7  1  0  0  0  0
  7  8  1  0  0  0  0
  7  9  1  0  0  0  0
  9 10  1  0  0  0  0
  9 11  1  0  0  0  0
  9 24  1  0  0  0  0
 11 12  1  0  0  0  0
 11 13  1  0  0  0  0
 11 17  1  0  0  0  0
 13 14  1  0  0  0  0
 13 15  1  0  0  0  0
 13 16  1  0  0  0  0
 17 18  1  0  0  0  0
 17 19  1  0  0  0  0
 17 20  1  0  0  0  0
 20 21  1  0  0  0  0
 20 22  1  0  0  0  0
 20 23  1  0  0  0  0
 24 25  2  0  0  0  0
 24 26  1  0  0  0  0
 26 27  1  0  0  0  0
 26 28  1  0  0  0  0
 28 29  1  0  0  0  0
 28 30  1  0  0  0  0
 28 31  1  0  0  0  0
M  END
$$$$

  -OEChem-01062216083D

 31 30  0     1  0  0  0  0  0999 V2000
   -3.0153   -3.0433    1.6537 H   0  0  0  0  0  0  0  0  0  0  0  0
   -3.1162   -2.0359    1.2401 C   0  0  0  0  0  0  0  0  0  0  0  0
   -3.6305   -1.4063    1.9704 H   0  0  0  0  0  0  0  0  0  0  0  0
   -3.7147   -2.0875    0.3275 H   0  0  0  0  0  0  0  0  0  0  0  0
   -1.7479   -1.4590    0.9304 C   0  0  0  0  0  0  0  0  0  0  0  0
   -0.7397   -2.1158    1.1476 O   0  0  0  0  0  0  0  0  0  0  0  0
   -1.6357   -0.1754    0.4358 N   0  0  0  0  0  0  0  0  0  0  0  0
   -2.4744    0.3981    0.4616 H   0  0  0  0  0  0  0  0  0  0  0  0
   -0.3406    0.5165    0.3463 C   0  0  1  0  0  0  0  0  0  0  0  0
    0.4244   -0.1712   -0.0297 H   0  0  0  0  0  0  0  0  0  0  0  0
   -0.4455    1.6953   -0.6596 C   0  0  1  0  0  0  0  0  0  0  0  0
   -1.2581    2.3558   -0.3371 H   0  0  0  0  0  0  0  0  0  0  0  0
    0.8644    2.5100   -0.6874 C   0  0  0  0  0  0  0  0  0  0  0  0
    1.7013    1.8820   -1.0080 H   0  0  0  0  0  0  0  0  0  0  0  0
    0.7832    3.3577   -1.3723 H   0  0  0  0  0  0  0  0  0  0  0  0
    1.0964    2.9190    0.3001 H   0  0  0  0  0  0  0  0  0  0  0  0
   -0.7601    1.1616   -2.0796 C   0  0  0  0  0  0  0  0  0  0  0  0
    0.1012    0.6080   -2.4680 H   0  0  0  0  0  0  0  0  0  0  0  0
   -1.6015    0.4641   -2.0351 H   0  0  0  0  0  0  0  0  0  0  0  0
   -1.1407    2.2705   -3.0658 C   0  0  0  0  0  0  0  0  0  0  0  0
   -0.2884    2.9212   -3.2791 H   0  0  0  0  0  0  0  0  0  0  0  0
   -1.4726    1.8286   -4.0102 H   0  0  0  0  0  0  0  0  0  0  0  0
   -1.9568    2.8786   -2.6636 H   0  0  0  0  0  0  0  0  0  0  0  0
    0.0768    0.9620    1.7659 C   0  0  0  0  0  0  0  0  0  0  0  0
   -0.4841    1.9031    2.3160 O   0  0  0  0  0  0  0  0  0  0  0  0
    1.0710    0.2722    2.4323 N   0  0  0  0  0  0  0  0  0  0  0  0
    1.3003   -0.6427    2.0479 H   0  0  0  0  0  0  0  0  0  0  0  0
    1.4134    0.5390    3.8233 C   0  0  0  0  0  0  0  0  0  0  0  0
    0.5518    0.3516    4.4728 H   0  0  0  0  0  0  0  0  0  0  0  0
    2.2356   -0.1096    4.1407 H   0  0  0  0  0  0  0  0  0  0  0  0
    1.7290    1.5803    3.9474 H   0  0  0  0  0  0  0  0  0  0  0  0
  1  2  1  0  0  0  0
  2  3  1  0  0  0  0
  2  4  1  0  0  0  0
  2  5  1  0  0  0  0
  5  6  2  0  0  0  0
  5  7  1  0  0  0  0
  7  8  1  0  0  0  0
  7  9  1  0  0  0  0
  9 10  1  0  0  0  0
  9 11  1  0  0  0  0
  9 24  1  0  0  0  0
 11 12  1  0  0  0  0
 11 13  1  0  0  0  0
 11 17  1  0  0  0  0
 13 14  1  0  0  0  0
 13 15  1  0  0  0  0
 13 16  1  0  0  0  0
 17 18  1  0  0  0  0
 17 19  1  0  0  0  0
 17 20  1  0  0  0  0
 20 21  1  0  0  0  0
 20 22  1  0  0  0  0
 20 23  1  0  0  0  0
 24 25  2  0  0  0  0
 24 26  1  0  0  0  0
 26 27  1  0  0  0  0
 26 28  1  0  0  0  0
 28 29  1  0  0  0  0
 28 30  1  0  0  0  0
 28 31  1  0  0  0  0
M  END
$$$$

  -OEChem-01062216083D

 31 30  0     1  0  0  0  0  0999 V2000
   -3.0232   -3.0460    1.6471 H   0  0  0  0  0  0  0  0  0  0  0  0
   -3.1227   -2.0296    1.2560 C   0  0  0  0  0  0  0  0  0  0  0  0
   -3.6003   -1.4053    2.0152 H   0  0  0  0  0  0  0  0  0  0  0  0
   -3.7538   -2.0551    0.3643 H   0  0  0  0  0  0  0  0  0  0  0  0
   -1.7573   -1.4679    0.9087 C   0  0  0  0  0  0  0  0  0  0  0  0
   -0.7530   -2.1422    1.0841 O   0  0  0  0  0  0  0  0  0  0  0  0
   -1.6469   -0.1850    0.4126 N   0  0  0  0  0  0  0  0  0  0  0  0
   -2.4754    0.3978    0.4981 H   0  0  0  0  0  0  0  0  0  0  0  0
   -0.3509    0.5063    0.3343 C   0  0  1  0  0  0  0  0  0  0  0  0
    0.4144   -0.1830   -0.0380 H   0  0  0  0  0  0  0  0  0  0  0  0
   -0.4504    1.6887   -0.6665 C   0  0  1  0  0  0  0  0  0  0  0  0
   -1.2672    2.3452   -0.3463 H   0  0  0  0  0  0  0  0  0  0  0  0
    0.8570    2.5068   -0.6772 C   0  0  0  0  0  0  0  0  0  0  0  0
    1.7014    1.8781   -0.9766 H   0  0  0  0  0  0  0  0  0  0  0  0
    0.7875    3.3486   -1.3704 H   0  0  0  0  0  0  0  0  0  0  0  0
    1.0675    2.9242    0.3117 H   0  0  0  0  0  0  0  0  0  0  0  0
   -0.7567    1.1619   -2.0907 C   0  0  0  0  0  0  0  0  0  0  0  0
    0.1080    0.6118   -2.4761 H   0  0  0  0  0  0  0  0  0  0  0  0
   -1.5973    0.4628   -2.0546 H   0  0  0  0  0  0  0  0  0  0  0  0
   -1.1323    2.2742   -3.0748 C   0  0  0  0  0  0  0  0  0  0  0  0
   -0.2815    2.9309   -3.2748 H   0  0  0  0  0  0  0  0  0  0  0  0
   -1.4504    1.8355   -4.0255 H   0  0  0  0  0  0  0  0  0  0  0  0
   -1.9566    2.8750   -2.6783 H   0  0  0  0  0  0  0  0  0  0  0  0
    0.0625    0.9584    1.7525 C   0  0  0  0  0  0  0  0  0  0  0  0
   -0.6475    1.7356    2.3811 O   0  0  0  0  0  0  0  0  0  0  0  0
    1.2382    0.4985    2.3146 N   0  0  0  0  0  0  0  0  0  0  0  0
    1.6772   -0.2928    1.8509 H   0  0  0  0  0  0  0  0  0  0  0  0
    1.6202    0.7937    3.6897 C   0  0  0  0  0  0  0  0  0  0  0  0
    0.8824    0.3849    4.3881 H   0  0  0  0  0  0  0  0  0  0  0  0
    2.5949    0.3502    3.9142 H   0  0  0  0  0  0  0  0  0  0  0  0
    1.6906    1.8755    3.8446 H   0  0  0  0  0  0  0  0  0  0  0  0
  1  2  1  0  0  0  0
  2  3  1  0  0  0  0
  2  4  1  0  0  0  0
  2  5  1  0  0  0  0
  5  6  2  0  0  0  0
  5  7  1  0  0  0  0
  7  8  1  0  0  0  0
  7  9  1  0  0  0  0
  9 10  1  0  0  0  0
  9 11  1  0  0  0  0
  9 24  1  0  0  0  0
 11 12  1  0  0  0  0
 11 13  1  0  0  0  0
 11 17  1  0  0  0  0
 13 14  1  0  0  0  0
 13 15  1  0  0  0  0
 13 16  1  0  0  0  0
 17 18  1  0  0  0  0
 17 19  1  0  0  0  0
 17 20  1  0  0  0  0
 20 21  1  0  0  0  0
 20 22  1  0  0  0  0
 20 23  1  0  0  0  0
 24 25  2  0  0  0  0
 24 26  1  0  0  0  0
 26 27  1  0  0  0  0
 26 28  1  0  0  0  0
 28 29  1  0  0  0  0
 28 30  1  0  0  0  0
 28 31  1  0  0  0  0
M  END
$$$$

  -OEChem-01062216083D

 31 30  0     1  0  0  0  0  0999 V2000
   -3.0258   -3.0379    1.6615 H   0  0  0  0  0  0  0  0  0  0  0  0
   -3.1238   -2.0180    1.2792 C   0  0  0  0  0  0  0  0  0  0  0  0
   -3.5593   -1.3897    2.0603 H   0  0  0  0  0  0  0  0  0  0  0  0
   -3.7906   -2.0283    0.4138 H   0  0  0  0  0  0  0  0  0  0  0  0
   -1.7645   -1.4769    0.8796 C   0  0  0  0  0  0  0  0  0  0  0  0
   -0.7659   -2.1694    1.0098 O   0  0  0  0  0  0  0  0  0  0  0  0
   -1.6551   -0.1930    0.3858 N   0  0  0  0  0  0  0  0  0  0  0  0
   -2.4745    0.3939    0.5179 H   0  0  0  0  0  0  0  0  0  0  0  0
   -0.3569    0.4980    0.3248 C   0  0  1  0  0  0  0  0  0  0  0  0
    0.4121   -0.1902   -0.0416 H   0  0  0  0  0  0  0  0  0  0  0  0
   -0.4542    1.6840   -0.6724 C   0  0  1  0  0  0  0  0  0  0  0  0
   -1.2773    2.3339   -0.3551 H   0  0  0  0  0  0  0  0  0  0  0  0
    0.8456    2.5140   -0.6735 C   0  0  0  0  0  0  0  0  0  0  0  0
    1.6984    1.8922   -0.9636 H   0  0  0  0  0  0  0  0  0  0  0  0
    0.7743    3.3533   -1.3698 H   0  0  0  0  0  0  0  0  0  0  0  0
    1.0423    2.9371    0.3160 H   0  0  0  0  0  0  0  0  0  0  0  0
   -0.7488    1.1596   -2.1005 C   0  0  0  0  0  0  0  0  0  0  0  0
    0.1203    0.6127   -2.4807 H   0  0  0  0  0  0  0  0  0  0  0  0
   -1.5874    0.4577   -2.0719 H   0  0  0  0  0  0  0  0  0  0  0  0
   -1.1223    2.2717   -3.0858 C   0  0  0  0  0  0  0  0  0  0  0  0
   -0.2712    2.9283   -3.2850 H   0  0  0  0  0  0  0  0  0  0  0  0
   -1.4386    1.8320   -4.0366 H   0  0  0  0  0  0  0  0  0  0  0  0
   -1.9474    2.8727   -2.6912 H   0  0  0  0  0  0  0  0  0  0  0  0
    0.0462    0.9512    1.7468 C   0  0  0  0  0  0  0  0  0  0  0  0
   -0.7674    1.5321    2.4574 O   0  0  0  0  0  0  0  0  0  0  0  0
    1.3350    0.7558    2.2079 N   0  0  0  0  0  0  0  0  0  0  0  0
    1.9315    0.1479    1.6540 H   0  0  0  0  0  0  0  0  0  0  0  0
    1.7471    1.0872    3.5660 C   0  0  0  0  0  0  0  0  0  0  0  0
    1.1686    0.5082    4.2937 H   0  0  0  0  0  0  0  0  0  0  0  0
    2.8081    0.8588    3.7053 H   0  0  0  0  0  0  0  0  0  0  0  0
    1.5958    2.1536    3.7633 H   0  0  0  0  0  0  0  0  0  0  0  0
  1  2  1  0  0  0  0
  2  3  1  0  0  0  0
  2  4  1  0  0  0  0
  2  5  1  0  0  0  0
  5  6  2  0  0  0  0
  5  7  1  0  0  0  0
  7  8  1  0  0  0  0
  7  9  1  0  0  0  0
  9 10  1  0  0  0  0
  9 11  1  0  0  0  0
  9 24  1  0  0  0  0
 11 12  1  0  0  0  0
 11 13  1  0  0  0  0
 11 17  1  0  0  0  0
 13 14  1  0  0  0  0
 13 15  1  0  0  0  0
 13 16  1  0  0  0  0
 17 18  1  0  0  0  0
 17 19  1  0  0  0  0
 17 20  1  0  0  0  0
 20 21  1  0  0  0  0
 20 22  1  0  0  0  0
 20 23  1  0  0  0  0
 24 25  2  0  0  0  0
 24 26  1  0  0  0  0
 26 27  1  0  0  0  0
 26 28  1  0  0  0  0
 28 29  1  0  0  0  0
 28 30  1  0  0  0  0
 28 31  1  0  0  0  0
M  END
$$$$

  -OEChem-01062216083D

 31 30  0     1  0  0  0  0  0999 V2000
   -3.0352   -3.0257    1.6617 H   0  0  0  0  0  0  0  0  0  0  0  0
   -3.1290   -2.0040    1.2838 C   0  0  0  0  0  0  0  0  0  0  0  0
   -3.5362   -1.3718    2.0769 H   0  0  0  0  0  0  0  0  0  0  0  0
   -3.8172   -2.0030    0.4353 H   0  0  0  0  0  0  0  0  0  0  0  0
   -1.7724   -1.4798    0.8530 C   0  0  0  0  0  0  0  0  0  0  0  0
   -0.7828   -2.1908    0.9451 O   0  0  0  0  0  0  0  0  0  0  0  0
   -1.6583   -0.1927    0.3679 N   0  0  0  0  0  0  0  0  0  0  0  0
   -2.4682    0.3977    0.5372 H   0  0  0  0  0  0  0  0  0  0  0  0
   -0.3551    0.4927    0.3246 C   0  0  1  0  0  0  0  0  0  0  0  0
    0.4152   -0.1962   -0.0381 H   0  0  0  0  0  0  0  0  0  0  0  0
   -0.4568    1.6795   -0.6753 C   0  0  1  0  0  0  0  0  0  0  0  0
   -1.2894    2.3192   -0.3621 H   0  0  0  0  0  0  0  0  0  0  0  0
    0.8277    2.5327   -0.6762 C   0  0  0  0  0  0  0  0  0  0  0  0
    1.6971    1.9194   -0.9324 H   0  0  0  0  0  0  0  0  0  0  0  0
    0.7567    3.3517   -1.3959 H   0  0  0  0  0  0  0  0  0  0  0  0
    0.9945    2.9884    0.3039 H   0  0  0  0  0  0  0  0  0  0  0  0
   -0.7439    1.1510   -2.1048 C   0  0  0  0  0  0  0  0  0  0  0  0
    0.1305    0.6095   -2.4806 H   0  0  0  0  0  0  0  0  0  0  0  0
   -1.5773    0.4429   -2.0793 H   0  0  0  0  0  0  0  0  0  0  0  0
   -1.1220    2.2572   -3.0954 C   0  0  0  0  0  0  0  0  0  0  0  0
   -0.2728    2.9140   -3.3013 H   0  0  0  0  0  0  0  0  0  0  0  0
   -1.4400    1.8118   -4.0429 H   0  0  0  0  0  0  0  0  0  0  0  0
   -1.9472    2.8589   -2.7022 H   0  0  0  0  0  0  0  0  0  0  0  0
    0.0429    0.9384    1.7534 C   0  0  0  0  0  0  0  0  0  0  0  0
   -0.8194    1.3102    2.5430 O   0  0  0  0  0  0  0  0  0  0  0  0
    1.3731    1.0236    2.1243 N   0  0  0  0  0  0  0  0  0  0  0  0
    2.0576    0.6286    1.4866 H   0  0  0  0  0  0  0  0  0  0  0  0
    1.8022    1.4084    3.4632 C   0  0  0  0  0  0  0  0  0  0  0  0
    1.4020    0.7125    4.2082 H   0  0  0  0  0  0  0  0  0  0  0  0
    2.8943    1.3956    3.5285 H   0  0  0  0  0  0  0  0  0  0  0  0
    1.4544    2.4190    3.7017 H   0  0  0  0  0  0  0  0  0  0  0  0
  1  2  1  0  0  0  0
  2  3  1  0  0  0  0
  2  4  1  0  0  0  0
  2  5  1  0  0  0  0
  5  6  2  0  0  0  0
  5  7  1  0  0  0  0
  7  8  1  0  0  0  0
  7  9  1  0  0  0  0
  9 10  1  0  0  0  0
  9 11  1  0  0  0  0
  9 24  1  0  0  0  0
 11 12  1  0  0  0  0
 11 13  1  0  0  0  0
 11 17  1  0  0  0  0
 13 14  1  0  0  0  0
 13 15  1  0  0  0  0
 13 16  1  0  0  0  0
 17 18  1  0  0  0  0
 17 19  1  0  0  0  0
 17 20  1  0  0  0  0
 20 21  1  0  0  0  0
 20 22  1  0  0  0  0
 20 23  1  0  0  0  0
 24 25  2  0  0  0  0
 24 26  1  0  0  0  0
 26 27  1  0  0  0  0
 26 28  1  0  0  0  0
 28 29  1  0  0  0  0
 28 30  1  0  0  0  0
 28 31  1  0  0  0  0
M  END
$$$$

  -OEChem-01062216083D

 31 30  0     1  0  0  0  0  0999 V2000
   -3.0461   -3.0237    1.6021 H   0  0  0  0  0  0  0  0  0  0  0  0
   -3.1284   -1.9813    1.2821 C   0  0  0  0  0  0  0  0  0  0  0  0
   -3.4908   -1.3830    2.1218 H   0  0  0  0  0  0  0  0  0  0  0  0
   -3.8462   -1.9197    0.4609 H   0  0  0  0  0  0  0  0  0  0  0  0
   -1.7757   -1.4658    0.8297 C   0  0  0  0  0  0  0  0  0  0  0  0
   -0.7961   -2.1948    0.8765 O   0  0  0  0  0  0  0  0  0  0  0  0
   -1.6575   -0.1729    0.3601 N   0  0  0  0  0  0  0  0  0  0  0  0
   -2.4588    0.4187    0.5616 H   0  0  0  0  0  0  0  0  0  0  0  0
   -0.3478    0.5040    0.3319 C   0  0  1  0  0  0  0  0  0  0  0  0
    0.4229   -0.1854   -0.0293 H   0  0  0  0  0  0  0  0  0  0  0  0
   -0.4605    1.6839   -0.6817 C   0  0  1  0  0  0  0  0  0  0  0  0
   -1.3023    2.3154   -0.3768 H   0  0  0  0  0  0  0  0  0  0  0  0
    0.8067    2.5616   -0.7021 C   0  0  0  0  0  0  0  0  0  0  0  0
    1.6944    1.9520   -0.8972 H   0  0  0  0  0  0  0  0  0  0  0  0
    0.7428    3.3345   -1.4712 H   0  0  0  0  0  0  0  0  0  0  0  0
    0.9329    3.0819    0.2511 H   0  0  0  0  0  0  0  0  0  0  0  0
   -0.7426    1.1351   -2.1067 C   0  0  0  0  0  0  0  0  0  0  0  0
    0.1384    0.5986   -2.4744 H   0  0  0  0  0  0  0  0  0  0  0  0
   -1.5677    0.4180   -2.0750 H   0  0  0  0  0  0  0  0  0  0  0  0
   -1.1324    2.2211   -3.1157 C   0  0  0  0  0  0  0  0  0  0  0  0
   -0.2867    2.8741   -3.3459 H   0  0  0  0  0  0  0  0  0  0  0  0
   -1.4604    1.7565   -4.0506 H   0  0  0  0  0  0  0  0  0  0  0  0
   -1.9542    2.8298   -2.7261 H   0  0  0  0  0  0  0  0  0  0  0  0
    0.0517    0.9324    1.7707 C   0  0  0  0  0  0  0  0  0  0  0  0
   -0.8096    1.0738    2.6337 O   0  0  0  0  0  0  0  0  0  0  0  0
    1.3500    1.3013    2.0771 N   0  0  0  0  0  0  0  0  0  0  0  0
    2.0589    1.1377    1.3689 H   0  0  0  0  0  0  0  0  0  0  0  0
    1.7705    1.7189    3.4092 C   0  0  0  0  0  0  0  0  0  0  0  0
    1.5883    0.9202    4.1360 H   0  0  0  0  0  0  0  0  0  0  0  0
    2.8393    1.9528    3.4123 H   0  0  0  0  0  0  0  0  0  0  0  0
    1.2209    2.6128    3.7222 H   0  0  0  0  0  0  0  0  0  0  0  0
  1  2  1  0  0  0  0
  2  3  1  0  0  0  0
  2  4  1  0  0  0  0
  2  5  1  0  0  0  0
  5  6  2  0  0  0  0
  5  7  1  0  0  0  0
  7  8  1  0  0  0  0
  7  9  1  0  0  0  0
  9 10  1  0  0  0  0
  9 11  1  0  0  0  0
  9 24  1  0  0  0  0
 11 12  1  0  0  0  0
 11 13  1  0  0  0  0
 11 17  1  0  0  0  0
 13 14  1  0  0  0  0
 13 15  1  0  0  0  0
 13 16  1  0  0  0  0
 17 18  1  0  0  0  0
 17 19  1  0  0  0  0
 17 20  1  0  0  0  0
 20 21  1  0  0  0  0
 20 22  1  0  0  0  0
 20 23  1  0  0  0  0
 24 25  2  0  0  0  0
 24 26  1  0  0  0  0
 26 27  1  0  0  0  0
 26 28  1  0  0  0  0
 28 29  1  0  0  0  0
 28 30  1  0  0  0  0
 28 31  1  0  0  0  0
M  END
$$$$

  -OEChem-01062216083D

 31 30  0     1  0  0  0  0  0999 V2000
   -3.0185   -3.0370    1.5473 H   0  0  0  0  0  0  0  0  0  0  0  0
   -3.0968   -1.9742    1.3019 C   0  0  0  0  0  0  0  0  0  0  0  0
   -3.3625   -1.4233    2.2077 H   0  0  0  0  0  0  0  0  0  0  0  0
   -3.8834   -1.8411    0.5557 H   0  0  0  0  0  0  0  0  0  0  0  0
   -1.7740   -1.4645    0.7626 C   0  0  0  0  0  0  0  0  0  0  0  0
   -0.8200   -2.2214    0.6566 O   0  0  0  0  0  0  0  0  0  0  0  0
   -1.6604   -0.1549    0.3348 N   0  0  0  0  0  0  0  0  0  0  0  0
   -2.4544    0.4258    0.5859 H   0  0  0  0  0  0  0  0  0  0  0  0
   -0.3464    0.5204    0.3361 C   0  0  1  0  0  0  0  0  0  0  0  0
    0.3584   -0.0615   -0.2674 H   0  0  0  0  0  0  0  0  0  0  0  0
   -0.5738    1.9005   -0.3671 C   0  0  1  0  0  0  0  0  0  0  0  0
   -1.3793    2.4232    0.1604 H   0  0  0  0  0  0  0  0  0  0  0  0
    0.6717    2.8099   -0.3413 C   0  0  0  0  0  0  0  0  0  0  0  0
    1.5514    2.2695   -0.7042 H   0  0  0  0  0  0  0  0  0  0  0  0
    0.5352    3.6976   -0.9619 H   0  0  0  0  0  0  0  0  0  0  0  0
    0.8626    3.1744    0.6710 H   0  0  0  0  0  0  0  0  0  0  0  0
   -1.0124    1.6736   -1.8423 C   0  0  0  0  0  0  0  0  0  0  0  0
   -0.1760    1.2561   -2.4125 H   0  0  0  0  0  0  0  0  0  0  0  0
   -1.8268    0.9451   -1.8857 H   0  0  0  0  0  0  0  0  0  0  0  0
   -1.5171    2.9414   -2.5420 C   0  0  0  0  0  0  0  0  0  0  0  0
   -0.7029    3.6435   -2.7387 H   0  0  0  0  0  0  0  0  0  0  0  0
   -1.9680    2.6767   -3.5032 H   0  0  0  0  0  0  0  0  0  0  0  0
   -2.2758    3.4403   -1.9312 H   0  0  0  0  0  0  0  0  0  0  0  0
    0.2516    0.5818    1.7783 C   0  0  0  0  0  0  0  0  0  0  0  0
   -0.4532    0.3330    2.7522 O   0  0  0  0  0  0  0  0  0  0  0  0
    1.4819    1.1614    2.0373 N   0  0  0  0  0  0  0  0  0  0  0  0
    2.0673    1.3830    1.2383 H   0  0  0  0  0  0  0  0  0  0  0  0
    2.0344    1.3217    3.3776 C   0  0  0  0  0  0  0  0  0  0  0  0
    2.1291    0.3491    3.8720 H   0  0  0  0  0  0  0  0  0  0  0  0
    3.0261    1.7810    3.3254 H   0  0  0  0  0  0  0  0  0  0  0  0
    1.3881    1.9644    3.9845 H   0  0  0  0  0  0  0  0  0  0  0  0
  1  2  1  0  0  0  0
  2  3  1  0  0  0  0
  2  4  1  0  0  0  0
  2  5  1  0  0  0  0
  5  6  2  0  0  0  0
  5  7  1  0  0  0  0
  7  8  1  0  0  0  0
  7  9  1  0  0  0  0
  9 10  1  0  0  0  0
  9 11  1  0  0  0  0
  9 24  1  0  0  0  0
 11 12  1  0  0  0  0
 11 13  1  0  0  0  0
 11 17  1  0  0  0  0
 13 14  1  0  0  0  0
 13 15  1  0  0  0  0
 13 16  1  0  0  0  0
 17 18  1  0  0  0  0
 17 19  1  0  0  0  0
 17 20  1  0  0  0  0
 20 21  1  0  0  0  0
 20 22  1  0  0  0  0
 20 23  1  0  0  0  0
 24 25  2  0  0  0  0
 24 26  1  0  0  0  0
 26 27  1  0  0  0  0
 26 28  1  0  0  0  0
 28 29  1  0  0  0  0
 28 30  1  0  0  0  0
 28 31  1  0  0  0  0
M  END
$$$$

  -OEChem-01062216083D

 31 30  0     1  0  0  0  0  0999 V2000
   -3.0079   -3.0237    1.5420 H   0  0  0  0  0  0  0  0  0  0  0  0
   -3.0860   -1.9559    1.3201 C   0  0  0  0  0  0  0  0  0  0  0  0
   -3.3176   -1.4216    2.2449 H   0  0  0  0  0  0  0  0  0  0  0  0
   -3.8948   -1.8019    0.6023 H   0  0  0  0  0  0  0  0  0  0  0  0
   -1.7770   -1.4463    0.7484 C   0  0  0  0  0  0  0  0  0  0  0  0
   -0.8425   -2.2141    0.5717 O   0  0  0  0  0  0  0  0  0  0  0  0
   -1.6629   -0.1287    0.3440 N   0  0  0  0  0  0  0  0  0  0  0  0
   -2.4541    0.4460    0.6156 H   0  0  0  0  0  0  0  0  0  0  0  0
   -0.3487    0.5500    0.3499 C   0  0  1  0  0  0  0  0  0  0  0  0
    0.3557   -0.0321   -0.2542 H   0  0  0  0  0  0  0  0  0  0  0  0
   -0.5835    1.9211   -0.3762 C   0  0  1  0  0  0  0  0  0  0  0  0
   -1.3938    2.4498    0.1373 H   0  0  0  0  0  0  0  0  0  0  0  0
    0.6569    2.8405   -0.3783 C   0  0  0  0  0  0  0  0  0  0  0  0
    1.5531    2.2767   -0.6558 H   0  0  0  0  0  0  0  0  0  0  0  0
    0.5483    3.6698   -1.0792 H   0  0  0  0  0  0  0  0  0  0  0  0
    0.8011    3.2968    0.6037 H   0  0  0  0  0  0  0  0  0  0  0  0
   -1.0114    1.6607   -1.8513 C   0  0  0  0  0  0  0  0  0  0  0  0
   -0.1695    1.2361   -2.4081 H   0  0  0  0  0  0  0  0  0  0  0  0
   -1.8207    0.9261   -1.8846 H   0  0  0  0  0  0  0  0  0  0  0  0
   -1.5253    2.9072   -2.5835 C   0  0  0  0  0  0  0  0  0  0  0  0
   -0.7147    3.6026   -2.8143 H   0  0  0  0  0  0  0  0  0  0  0  0
   -1.9888    2.6130   -3.5303 H   0  0  0  0  0  0  0  0  0  0  0  0
   -2.2757    3.4251   -1.9783 H   0  0  0  0  0  0  0  0  0  0  0  0
    0.2643    0.5930    1.7935 C   0  0  0  0  0  0  0  0  0  0  0  0
   -0.3372    0.1002    2.7428 O   0  0  0  0  0  0  0  0  0  0  0  0
    1.3266    1.4135    2.1321 N   0  0  0  0  0  0  0  0  0  0  0  0
    1.8349    1.8497    1.3698 H   0  0  0  0  0  0  0  0  0  0  0  0
    1.8427    1.5583    3.4895 C   0  0  0  0  0  0  0  0  0  0  0  0
    2.1632    0.5876    3.8827 H   0  0  0  0  0  0  0  0  0  0  0  0
    2.7019    2.2356    3.4974 H   0  0  0  0  0  0  0  0  0  0  0  0
    1.0729    1.9699    4.1509 H   0  0  0  0  0  0  0  0  0  0  0  0
  1  2  1  0  0  0  0
  2  3  1  0  0  0  0
  2  4  1  0  0  0  0
  2  5  1  0  0  0  0
  5  6  2  0  0  0  0
  5  7  1  0  0  0  0
  7  8  1  0  0  0  0
  7  9  1  0  0  0  0
  9 10  1  0  0  0  0
  9 11  1  0  0  0  0
  9 24  1  0  0  0  0
 11 12  1  0  0  0  0
 11 13  1  0  0  0  0
 11 17  1  0  0  0  0
 13 14  1  0  0  0  0
 13 15  1  0  0  0  0
 13 16  1  0  0  0  0
 17 18  1  0  0  0  0
 17 19  1  0  0  0  0
 17 20  1  0  0  0  0
 20 21  1  0  0  0  0
 20 22  1  0  0  0  0
 20 23  1  0  0  0  0
 24 25  2  0  0  0  0
 24 26  1  0  0  0  0
 26 27  1  0  0  0  0
 26 28  1  0  0  0  0
 28 29  1  0  0  0  0
 28 30  1  0  0  0  0
 28 31  1  0  0  0  0
M  END
$$$$

  -OEChem-01062216083D

 31 30  0     1  0  0  0  0  0999 V2000
   -3.1304   -2.9386    1.5519 H   0  0  0  0  0  0  0  0  0  0  0  0
   -3.1822   -1.8727    1.3133 C   0  0  0  0  0  0  0  0  0  0  0  0
   -3.4204   -1.3207    2.2258 H   0  0  0  0  0  0  0  0  0  0  0  0
   -3.9735   -1.7127    0.5775 H   0  0  0  0  0  0  0  0  0  0  0  0
   -1.8519   -1.3987    0.7600 C   0  0  0  0  0  0  0  0  0  0  0  0
   -0.9496   -2.1983    0.5606 O   0  0  0  0  0  0  0  0  0  0  0  0
   -1.6974   -0.0849    0.3561 N   0  0  0  0  0  0  0  0  0  0  0  0
   -2.4884    0.5042    0.5940 H   0  0  0  0  0  0  0  0  0  0  0  0
   -0.3752    0.5800    0.3885 C   0  0  1  0  0  0  0  0  0  0  0  0
    0.3345   -0.0285   -0.1827 H   0  0  0  0  0  0  0  0  0  0  0  0
   -0.5621    1.9295   -0.3931 C   0  0  1  0  0  0  0  0  0  0  0  0
   -1.3809    2.4921    0.0682 H   0  0  0  0  0  0  0  0  0  0  0  0
    0.6997    2.8220   -0.3911 C   0  0  0  0  0  0  0  0  0  0  0  0
    1.6024    2.2131   -0.5039 H   0  0  0  0  0  0  0  0  0  0  0  0
    0.7595    3.3999    0.5341 H   0  0  0  0  0  0  0  0  0  0  0  0
    0.6889    3.5548   -1.1989 H   0  0  0  0  0  0  0  0  0  0  0  0
   -0.9372    1.6168   -1.8733 C   0  0  0  0  0  0  0  0  0  0  0  0
   -0.0804    1.1601   -2.3799 H   0  0  0  0  0  0  0  0  0  0  0  0
   -1.7542    0.8909   -1.9092 H   0  0  0  0  0  0  0  0  0  0  0  0
   -1.4071    2.8376   -2.6763 C   0  0  0  0  0  0  0  0  0  0  0  0
   -0.5818    3.5152   -2.9077 H   0  0  0  0  0  0  0  0  0  0  0  0
   -1.8392    2.5071   -3.6258 H   0  0  0  0  0  0  0  0  0  0  0  0
   -2.1735    3.3885   -2.1227 H   0  0  0  0  0  0  0  0  0  0  0  0
    0.2174    0.6310    1.8436 C   0  0  0  0  0  0  0  0  0  0  0  0
   -0.2308   -0.0818    2.7342 O   0  0  0  0  0  0  0  0  0  0  0  0
    1.0630    1.6353    2.2833 N   0  0  0  0  0  0  0  0  0  0  0  0
    1.4735    2.2329    1.5746 H   0  0  0  0  0  0  0  0  0  0  0  0
    1.5551    1.7460    3.6532 C   0  0  0  0  0  0  0  0  0  0  0  0
    2.1093    0.8445    3.9356 H   0  0  0  0  0  0  0  0  0  0  0  0
    2.2241    2.6068    3.7460 H   0  0  0  0  0  0  0  0  0  0  0  0
    0.7219    1.8808    4.3509 H   0  0  0  0  0  0  0  0  0  0  0  0
  1  2  1  0  0  0  0
  2  3  1  0  0  0  0
  2  4  1  0  0  0  0
  2  5  1  0  0  0  0
  5  6  2  0  0  0  0
  5  7  1  0  0  0  0
  7  8  1  0  0  0  0
  7  9  1  0  0  0  0
  9 10  1  0  0  0  0
  9 11  1  0  0  0  0
  9 24  1  0  0  0  0
 11 12  1  0  0  0  0
 11 13  1  0  0  0  0
 11 17  1  0  0  0  0
 13 14  1  0  0  0  0
 13 15  1  0  0  0  0
 13 16  1  0  0  0  0
 17 18  1  0  0  0  0
 17 19  1  0  0  0  0
 17 20  1  0  0  0  0
 20 21  1  0  0  0  0
 20 22  1  0  0  0  0
 20 23  1  0  0  0  0
 24 25  2  0  0  0  0
 24 26  1  0  0  0  0
 26 27  1  0  0  0  0
 26 28  1  0  0  0  0
 28 29  1  0  0  0  0
 28 30  1  0  0  0  0
 28 31  1  0  0  0  0
M  END
$$$$

  -OEChem-01062216083D

 31 30  0     1  0  0  0  0  0999 V2000
   -2.9828   -3.0343    1.5488 H   0  0  0  0  0  0  0  0  0  0  0  0
   -3.0742   -1.9673    1.3271 C   0  0  0  0  0  0  0  0  0  0  0  0
   -3.3004   -1.4355    2.2544 H   0  0  0  0  0  0  0  0  0  0  0  0
   -3.8929   -1.8219    0.6188 H   0  0  0  0  0  0  0  0  0  0  0  0
   -1.7769   -1.4461    0.7387 C   0  0  0  0  0  0  0  0  0  0  0  0
   -0.8741   -2.2215    0.4653 O   0  0  0  0  0  0  0  0  0  0  0  0
   -1.6744   -0.1212    0.3551 N   0  0  0  0  0  0  0  0  0  0  0  0
   -2.4890    0.4309    0.6013 H   0  0  0  0  0  0  0  0  0  0  0  0
   -0.3844    0.6049    0.3813 C   0  0  1  0  0  0  0  0  0  0  0  0
    0.3449    0.0259   -0.1965 H   0  0  0  0  0  0  0  0  0  0  0  0
   -0.6027    1.9544   -0.3856 C   0  0  1  0  0  0  0  0  0  0  0  0
   -1.4265    2.5066    0.0792 H   0  0  0  0  0  0  0  0  0  0  0  0
    0.6685    2.8404   -0.3800 C   0  0  0  0  0  0  0  0  0  0  0  0
    1.5697    2.2235   -0.3022 H   0  0  0  0  0  0  0  0  0  0  0  0
    0.6396    3.5465    0.4535 H   0  0  0  0  0  0  0  0  0  0  0  0
    0.7669    3.4401   -1.2858 H   0  0  0  0  0  0  0  0  0  0  0  0
   -0.9658    1.6466   -1.8683 C   0  0  0  0  0  0  0  0  0  0  0  0
   -0.0956    1.2193   -2.3781 H   0  0  0  0  0  0  0  0  0  0  0  0
   -1.7623    0.8984   -1.9123 H   0  0  0  0  0  0  0  0  0  0  0  0
   -1.4651    2.8669   -2.6560 C   0  0  0  0  0  0  0  0  0  0  0  0
   -0.6720    3.5964   -2.8341 H   0  0  0  0  0  0  0  0  0  0  0  0
   -1.8427    2.5435   -3.6309 H   0  0  0  0  0  0  0  0  0  0  0  0
   -2.2809    3.3593   -2.1177 H   0  0  0  0  0  0  0  0  0  0  0  0
    0.2158    0.6592    1.8317 C   0  0  0  0  0  0  0  0  0  0  0  0
    0.0999   -0.2796    2.6078 O   0  0  0  0  0  0  0  0  0  0  0  0
    0.7521    1.8095    2.3857 N   0  0  0  0  0  0  0  0  0  0  0  0
    0.8375    2.6195    1.7843 H   0  0  0  0  0  0  0  0  0  0  0  0
    1.2503    1.9020    3.7547 C   0  0  0  0  0  0  0  0  0  0  0  0
    2.0499    1.1726    3.9224 H   0  0  0  0  0  0  0  0  0  0  0  0
    1.6507    2.9023    3.9445 H   0  0  0  0  0  0  0  0  0  0  0  0
    0.4434    1.7113    4.4700 H   0  0  0  0  0  0  0  0  0  0  0  0
  1  2  1  0  0  0  0
  2  3  1  0  0  0  0
  2  4  1  0  0  0  0
  2  5  1  0  0  0  0
  5  6  2  0  0  0  0
  5  7  1  0  0  0  0
  7  8  1  0  0  0  0
  7  9  1  0  0  0  0
  9 10  1  0  0  0  0
  9 11  1  0  0  0  0
  9 24  1  0  0  0  0
 11 12  1  0  0  0  0
 11 13  1  0  0  0  0
 11 17  1  0  0  0  0
 13 14  1  0  0  0  0
 13 15  1  0  0  0  0
 13 16  1  0  0  0  0
 17 18  1  0  0  0  0
 17 19  1  0  0  0  0
 17 20  1  0  0  0  0
 20 21  1  0  0  0  0
 20 22  1  0  0  0  0
 20 23  1  0  0  0  0
 24 25  2  0  0  0  0
 24 26  1  0  0  0  0
 26 27  1  0  0  0  0
 26 28  1  0  0  0  0
 28 29  1  0  0  0  0
 28 30  1  0  0  0  0
 28 31  1  0  0  0  0
M  END
$$$$

  -OEChem-01062216083D

 31 30  0     1  0  0  0  0  0999 V2000
   -2.9914   -3.0159    1.6119 H   0  0  0  0  0  0  0  0  0  0  0  0
   -3.0842   -1.9527    1.3725 C   0  0  0  0  0  0  0  0  0  0  0  0
   -3.3085   -1.4059    2.2914 H   0  0  0  0  0  0  0  0  0  0  0  0
   -3.9050   -1.8202    0.6639 H   0  0  0  0  0  0  0  0  0  0  0  0
   -1.7888   -1.4413    0.7712 C   0  0  0  0  0  0  0  0  0  0  0  0
   -0.8988   -2.2262    0.4891 O   0  0  0  0  0  0  0  0  0  0  0  0
   -1.6863   -0.1199    0.3766 N   0  0  0  0  0  0  0  0  0  0  0  0
   -2.5067    0.4334    0.5995 H   0  0  0  0  0  0  0  0  0  0  0  0
   -0.4011    0.6135    0.3815 C   0  0  1  0  0  0  0  0  0  0  0  0
    0.3272    0.0301   -0.1935 H   0  0  0  0  0  0  0  0  0  0  0  0
   -0.5973    1.9668   -0.3779 C   0  0  1  0  0  0  0  0  0  0  0  0
   -1.3950    2.5447    0.1005 H   0  0  0  0  0  0  0  0  0  0  0  0
    0.7057    2.8063   -0.4193 C   0  0  0  0  0  0  0  0  0  0  0  0
    1.5409    2.1926   -0.7724 H   0  0  0  0  0  0  0  0  0  0  0  0
    0.6064    3.6640   -1.0873 H   0  0  0  0  0  0  0  0  0  0  0  0
    0.9704    3.2196    0.5524 H   0  0  0  0  0  0  0  0  0  0  0  0
   -0.9713    1.6610   -1.8573 C   0  0  0  0  0  0  0  0  0  0  0  0
   -0.1160    1.2113   -2.3731 H   0  0  0  0  0  0  0  0  0  0  0  0
   -1.7847    0.9307   -1.8912 H   0  0  0  0  0  0  0  0  0  0  0  0
   -1.4506    2.8882   -2.6430 C   0  0  0  0  0  0  0  0  0  0  0  0
   -0.6312    3.5813   -2.8489 H   0  0  0  0  0  0  0  0  0  0  0  0
   -1.8662    2.5704   -3.6042 H   0  0  0  0  0  0  0  0  0  0  0  0
   -2.2313    3.4174   -2.0880 H   0  0  0  0  0  0  0  0  0  0  0  0
    0.1842    0.6648    1.8321 C   0  0  0  0  0  0  0  0  0  0  0  0
    0.4058   -0.3535    2.4703 O   0  0  0  0  0  0  0  0  0  0  0  0
    0.4252    1.8552    2.4963 N   0  0  0  0  0  0  0  0  0  0  0  0
    0.1970    2.7143    2.0077 H   0  0  0  0  0  0  0  0  0  0  0  0
    0.9385    1.9375    3.8598 C   0  0  0  0  0  0  0  0  0  0  0  0
    1.9127    1.4424    3.9331 H   0  0  0  0  0  0  0  0  0  0  0  0
    1.0605    2.9837    4.1557 H   0  0  0  0  0  0  0  0  0  0  0  0
    0.2462    1.4581    4.5599 H   0  0  0  0  0  0  0  0  0  0  0  0
  1  2  1  0  0  0  0
  2  3  1  0  0  0  0
  2  4  1  0  0  0  0
  2  5  1  0  0  0  0
  5  6  2  0  0  0  0
  5  7  1  0  0  0  0
  7  8  1  0  0  0  0
  7  9  1  0  0  0  0
  9 10  1  0  0  0  0
  9 11  1  0  0  0  0
  9 24  1  0  0  0  0
 11 12  1  0  0  0  0
 11 13  1  0  0  0  0
 11 17  1  0  0  0  0
 13 14  1  0  0  0  0
 13 15  1  0  0  0  0
 13 16  1  0  0  0  0
 17 18  1  0  0  0  0
 17 19  1  0  0  0  0
 17 20  1  0  0  0  0
 20 21  1  0  0  0  0
 20 22  1  0  0  0  0
 20 23  1  0  0  0  0
 24 25  2  0  0  0  0
 24 26  1  0  0  0  0
 26 27  1  0  0  0  0
 26 28  1  0  0  0  0
 28 29  1  0  0  0  0
 28 30  1  0  0  0  0
 28 31  1  0  0  0  0
M  END
$$$$

  -OEChem-01062216083D

 31 30  0     1  0  0  0  0  0999 V2000
   -3.0625   -3.0237    1.6155 H   0  0  0  0  0  0  0  0  0  0  0  0
   -3.1487   -1.9775    1.3080 C   0  0  0  0  0  0  0  0  0  0  0  0
   -3.4781   -1.3868    2.1661 H   0  0  0  0  0  0  0  0  0  0  0  0
   -3.8937   -1.9036    0.5123 H   0  0  0  0  0  0  0  0  0  0  0  0
   -1.8072   -1.4698    0.8134 C   0  0  0  0  0  0  0  0  0  0  0  0
   -0.8842   -2.2506    0.6641 O   0  0  0  0  0  0  0  0  0  0  0  0
   -1.6865   -0.1592    0.3907 N   0  0  0  0  0  0  0  0  0  0  0  0
   -2.5240    0.3980    0.5209 H   0  0  0  0  0  0  0  0  0  0  0  0
   -0.4047    0.5769    0.3950 C   0  0  1  0  0  0  0  0  0  0  0  0
    0.3319   -0.0079   -0.1684 H   0  0  0  0  0  0  0  0  0  0  0  0
   -0.5886    1.9340   -0.3508 C   0  0  1  0  0  0  0  0  0  0  0  0
   -1.3837    2.5088    0.1354 H   0  0  0  0  0  0  0  0  0  0  0  0
    0.7201    2.7618   -0.3602 C   0  0  0  0  0  0  0  0  0  0  0  0
    1.5148    2.2099   -0.8728 H   0  0  0  0  0  0  0  0  0  0  0  0
    0.5743    3.7151   -0.8741 H   0  0  0  0  0  0  0  0  0  0  0  0
    1.0731    3.0020    0.6427 H   0  0  0  0  0  0  0  0  0  0  0  0
   -0.9614    1.6613   -1.8339 C   0  0  0  0  0  0  0  0  0  0  0  0
   -0.1107    1.2139   -2.3592 H   0  0  0  0  0  0  0  0  0  0  0  0
   -1.7826    0.9402   -1.8827 H   0  0  0  0  0  0  0  0  0  0  0  0
   -1.4234    2.9157   -2.5844 C   0  0  0  0  0  0  0  0  0  0  0  0
   -0.5975    3.6152   -2.7381 H   0  0  0  0  0  0  0  0  0  0  0  0
   -1.8124    2.6355   -3.5681 H   0  0  0  0  0  0  0  0  0  0  0  0
   -2.2187    3.4234   -2.0303 H   0  0  0  0  0  0  0  0  0  0  0  0
    0.1537    0.6602    1.8478 C   0  0  0  0  0  0  0  0  0  0  0  0
    0.6960   -0.2953    2.3804 O   0  0  0  0  0  0  0  0  0  0  0  0
    0.0878    1.8333    2.5819 N   0  0  0  0  0  0  0  0  0  0  0  0
   -0.3151    2.6450    2.1252 H   0  0  0  0  0  0  0  0  0  0  0  0
    0.6481    1.9824    3.9204 C   0  0  0  0  0  0  0  0  0  0  0  0
    1.7339    1.8411    3.8988 H   0  0  0  0  0  0  0  0  0  0  0  0
    0.4362    2.9827    4.3098 H   0  0  0  0  0  0  0  0  0  0  0  0
    0.2109    1.2468    4.6040 H   0  0  0  0  0  0  0  0  0  0  0  0
  1  2  1  0  0  0  0
  2  3  1  0  0  0  0
  2  4  1  0  0  0  0
  2  5  1  0  0  0  0
  5  6  2  0  0  0  0
  5  7  1  0  0  0  0
  7  8  1  0  0  0  0
  7  9  1  0  0  0  0
  9 10  1  0  0  0  0
  9 11  1  0  0  0  0
  9 24  1  0  0  0  0
 11 12  1  0  0  0  0
 11 13  1  0  0  0  0
 11 17  1  0  0  0  0
 13 14  1  0  0  0  0
 13 15  1  0  0  0  0
 13 16  1  0  0  0  0
 17 18  1  0  0  0  0
 17 19  1  0  0  0  0
 17 20  1  0  0  0  0
 20 21  1  0  0  0  0
 20 22  1  0  0  0  0
 20 23  1  0  0  0  0
 24 25  2  0  0  0  0
 24 26  1  0  0  0  0
 26 27  1  0  0  0  0
 26 28  1  0  0  0  0
 28 29  1  0  0  0  0
 28 30  1  0  0  0  0
 28 31  1  0  0  0  0
M  END
$$$$

  -OEChem-01062216083D

 31 30  0     1  0  0  0  0  0999 V2000
   -3.2054   -3.0605    1.4836 H   0  0  0  0  0  0  0  0  0  0  0  0
   -3.2557   -2.0332    1.1115 C   0  0  0  0  0  0  0  0  0  0  0  0
   -3.7843   -1.4206    1.8455 H   0  0  0  0  0  0  0  0  0  0  0  0
   -3.8108   -2.0265    0.1705 H   0  0  0  0  0  0  0  0  0  0  0  0
   -1.8562   -1.4898    0.8918 C   0  0  0  0  0  0  0  0  0  0  0  0
   -0.8980   -2.2255    1.0342 O   0  0  0  0  0  0  0  0  0  0  0  0
   -1.6938   -0.1892    0.4541 N   0  0  0  0  0  0  0  0  0  0  0  0
   -2.5448    0.3553    0.3606 H   0  0  0  0  0  0  0  0  0  0  0  0
   -0.4093    0.5401    0.4402 C   0  0  1  0  0  0  0  0  0  0  0  0
    0.3142   -0.0529   -0.1317 H   0  0  0  0  0  0  0  0  0  0  0  0
   -0.5900    1.8995   -0.2963 C   0  0  1  0  0  0  0  0  0  0  0  0
   -1.3809    2.4716    0.1997 H   0  0  0  0  0  0  0  0  0  0  0  0
    0.7192    2.7218   -0.2757 C   0  0  0  0  0  0  0  0  0  0  0  0
    1.5201    2.1770   -0.7861 H   0  0  0  0  0  0  0  0  0  0  0  0
    0.5838    3.6854   -0.7731 H   0  0  0  0  0  0  0  0  0  0  0  0
    1.0514    2.9363    0.7423 H   0  0  0  0  0  0  0  0  0  0  0  0
   -0.9824    1.6477   -1.7757 C   0  0  0  0  0  0  0  0  0  0  0  0
   -0.1390    1.2025   -2.3145 H   0  0  0  0  0  0  0  0  0  0  0  0
   -1.8092    0.9333   -1.8246 H   0  0  0  0  0  0  0  0  0  0  0  0
   -1.4390    2.9172   -2.5027 C   0  0  0  0  0  0  0  0  0  0  0  0
   -0.6096    3.6162   -2.6400 H   0  0  0  0  0  0  0  0  0  0  0  0
   -1.8271    2.6577   -3.4925 H   0  0  0  0  0  0  0  0  0  0  0  0
   -2.2335    3.4175   -1.9404 H   0  0  0  0  0  0  0  0  0  0  0  0
    0.1788    0.6559    1.8731 C   0  0  0  0  0  0  0  0  0  0  0  0
    1.0720   -0.0884    2.2482 O   0  0  0  0  0  0  0  0  0  0  0  0
   -0.1411    1.7347    2.6821 N   0  0  0  0  0  0  0  0  0  0  0  0
   -0.8212    2.3985    2.3278 H   0  0  0  0  0  0  0  0  0  0  0  0
    0.4819    1.9802    3.9775 C   0  0  0  0  0  0  0  0  0  0  0  0
    1.5579    2.1462    3.8595 H   0  0  0  0  0  0  0  0  0  0  0  0
    0.0440    2.8664    4.4466 H   0  0  0  0  0  0  0  0  0  0  0  0
    0.3289    1.1252    4.6445 H   0  0  0  0  0  0  0  0  0  0  0  0
  1  2  1  0  0  0  0
  2  3  1  0  0  0  0
  2  4  1  0  0  0  0
  2  5  1  0  0  0  0
  5  6  2  0  0  0  0
  5  7  1  0  0  0  0
  7  8  1  0  0  0  0
  7  9  1  0  0  0  0
  9 10  1  0  0  0  0
  9 11  1  0  0  0  0
  9 24  1  0  0  0  0
 11 12  1  0  0  0  0
 11 13  1  0  0  0  0
 11 17  1  0  0  0  0
 13 14  1  0  0  0  0
 13 15  1  0  0  0  0
 13 16  1  0  0  0  0
 17 18  1  0  0  0  0
 17 19  1  0  0  0  0
 17 20  1  0  0  0  0
 20 21  1  0  0  0  0
 20 22  1  0  0  0  0
 20 23  1  0  0  0  0
 24 25  2  0  0  0  0
 24 26  1  0  0  0  0
 26 27  1  0  0  0  0
 26 28  1  0  0  0  0
 28 29  1  0  0  0  0
 28 30  1  0  0  0  0
 28 31  1  0  0  0  0
M  END
$$$$

  -OEChem-01062216083D

 31 30  0     1  0  0  0  0  0999 V2000
   -3.2608   -3.0892    1.3741 H   0  0  0  0  0  0  0  0  0  0  0  0
   -3.2905   -2.0645    0.9926 C   0  0  0  0  0  0  0  0  0  0  0  0
   -3.9265   -1.4647    1.6479 H   0  0  0  0  0  0  0  0  0  0  0  0
   -3.7193   -2.0759   -0.0123 H   0  0  0  0  0  0  0  0  0  0  0  0
   -1.8897   -1.4824    0.9535 C   0  0  0  0  0  0  0  0  0  0  0  0
   -0.9439   -2.1655    1.2980 O   0  0  0  0  0  0  0  0  0  0  0  0
   -1.7030   -0.1918    0.4983 N   0  0  0  0  0  0  0  0  0  0  0  0
   -2.5328    0.3091    0.1982 H   0  0  0  0  0  0  0  0  0  0  0  0
   -0.4089    0.5179    0.4624 C   0  0  1  0  0  0  0  0  0  0  0  0
    0.2963   -0.0863   -0.1205 H   0  0  0  0  0  0  0  0  0  0  0  0
   -0.5874    1.8795   -0.2676 C   0  0  1  0  0  0  0  0  0  0  0  0
   -1.3690    2.4529    0.2420 H   0  0  0  0  0  0  0  0  0  0  0  0
    0.7222    2.6968   -0.2384 C   0  0  0  0  0  0  0  0  0  0  0  0
    1.5305    2.1412   -0.7244 H   0  0  0  0  0  0  0  0  0  0  0  0
    0.6009    3.6534   -0.7524 H   0  0  0  0  0  0  0  0  0  0  0  0
    1.0292    2.9228    0.7865 H   0  0  0  0  0  0  0  0  0  0  0  0
   -1.0097    1.6416   -1.7404 C   0  0  0  0  0  0  0  0  0  0  0  0
   -0.1783    1.1935   -2.2951 H   0  0  0  0  0  0  0  0  0  0  0  0
   -1.8433    0.9348   -1.7810 H   0  0  0  0  0  0  0  0  0  0  0  0
   -1.4640    2.9203   -2.4519 C   0  0  0  0  0  0  0  0  0  0  0  0
   -0.6302    3.6126   -2.5962 H   0  0  0  0  0  0  0  0  0  0  0  0
   -1.8684    2.6715   -3.4379 H   0  0  0  0  0  0  0  0  0  0  0  0
   -2.2454    3.4241   -1.8748 H   0  0  0  0  0  0  0  0  0  0  0  0
    0.2132    0.6543    1.8753 C   0  0  0  0  0  0  0  0  0  0  0  0
    1.2970    0.1460    2.1259 O   0  0  0  0  0  0  0  0  0  0  0  0
   -0.3031    1.5707    2.7765 N   0  0  0  0  0  0  0  0  0  0  0  0
   -1.1877    2.0070    2.5410 H   0  0  0  0  0  0  0  0  0  0  0  0
    0.2993    1.8416    4.0761 C   0  0  0  0  0  0  0  0  0  0  0  0
    1.3145    2.2333    3.9531 H   0  0  0  0  0  0  0  0  0  0  0  0
   -0.2931    2.5824    4.6212 H   0  0  0  0  0  0  0  0  0  0  0  0
    0.3454    0.9259    4.6750 H   0  0  0  0  0  0  0  0  0  0  0  0
  1  2  1  0  0  0  0
  2  3  1  0  0  0  0
  2  4  1  0  0  0  0
  2  5  1  0  0  0  0
  5  6  2  0  0  0  0
  5  7  1  0  0  0  0
  7  8  1  0  0  0  0
  7  9  1  0  0  0  0
  9 10  1  0  0  0  0
  9 11  1  0  0  0  0
  9 24  1  0  0  0  0
 11 12  1  0  0  0  0
 11 13  1  0  0  0  0
 11 17  1  0  0  0  0
 13 14  1  0  0  0  0
 13 15  1  0  0  0  0
 13 16  1  0  0  0  0
 17 18  1  0  0  0  0
 17 19  1  0  0  0  0
 17 20  1  0  0  0  0
 20 21  1  0  0  0  0
 20 22  1  0  0  0  0
 20 23  1  0  0  0  0
 24 25  2  0  0  0  0
 24 26  1  0  0  0  0
 26 27  1  0  0  0  0
 26 28  1  0  0  0  0
 28 29  1  0  0  0  0
 28 30  1  0  0  0  0
 28 31  1  0  0  0  0
M  END
$$$$

  -OEChem-01062216083D

 31 30  0     1  0  0  0  0  0999 V2000
   -3.2613   -3.0955    1.3468 H   0  0  0  0  0  0  0  0  0  0  0  0
   -3.2887   -2.0752    0.9536 C   0  0  0  0  0  0  0  0  0  0  0  0
   -3.9750   -1.4825    1.5629 H   0  0  0  0  0  0  0  0  0  0  0  0
   -3.6558   -2.1052   -0.0751 H   0  0  0  0  0  0  0  0  0  0  0  0
   -1.9002   -1.4649    0.9920 C   0  0  0  0  0  0  0  0  0  0  0  0
   -0.9681   -2.1135    1.4295 O   0  0  0  0  0  0  0  0  0  0  0  0
   -1.7058   -0.1827    0.5167 N   0  0  0  0  0  0  0  0  0  0  0  0
   -2.5110    0.2807    0.1079 H   0  0  0  0  0  0  0  0  0  0  0  0
   -0.4026    0.5101    0.4651 C   0  0  1  0  0  0  0  0  0  0  0  0
    0.2922   -0.1025   -0.1210 H   0  0  0  0  0  0  0  0  0  0  0  0
   -0.5815    1.8731   -0.2624 C   0  0  1  0  0  0  0  0  0  0  0  0
   -1.3547    2.4469    0.2596 H   0  0  0  0  0  0  0  0  0  0  0  0
    0.7272    2.6912   -0.2397 C   0  0  0  0  0  0  0  0  0  0  0  0
    1.5357    2.1343   -0.7244 H   0  0  0  0  0  0  0  0  0  0  0  0
    0.6044    3.6463   -0.7562 H   0  0  0  0  0  0  0  0  0  0  0  0
    1.0324    2.9208    0.7855 H   0  0  0  0  0  0  0  0  0  0  0  0
   -1.0275    1.6425   -1.7295 C   0  0  0  0  0  0  0  0  0  0  0  0
   -0.2072    1.1899   -2.2968 H   0  0  0  0  0  0  0  0  0  0  0  0
   -1.8673    0.9429   -1.7605 H   0  0  0  0  0  0  0  0  0  0  0  0
   -1.4814    2.9272   -2.4306 C   0  0  0  0  0  0  0  0  0  0  0  0
   -0.6438    3.6127   -2.5852 H   0  0  0  0  0  0  0  0  0  0  0  0
   -1.9026    2.6850   -3.4110 H   0  0  0  0  0  0  0  0  0  0  0  0
   -2.2499    3.4358   -1.8403 H   0  0  0  0  0  0  0  0  0  0  0  0
    0.2349    0.6617    1.8676 C   0  0  0  0  0  0  0  0  0  0  0  0
    1.4089    0.3657    2.0468 O   0  0  0  0  0  0  0  0  0  0  0  0
   -0.4347    1.3594    2.8579 N   0  0  0  0  0  0  0  0  0  0  0  0
   -1.4153    1.5588    2.6938 H   0  0  0  0  0  0  0  0  0  0  0  0
    0.1196    1.5781    4.1880 C   0  0  0  0  0  0  0  0  0  0  0  0
    1.0622    2.1320    4.1244 H   0  0  0  0  0  0  0  0  0  0  0  0
   -0.5792    2.1570    4.7993 H   0  0  0  0  0  0  0  0  0  0  0  0
    0.3069    0.6207    4.6859 H   0  0  0  0  0  0  0  0  0  0  0  0
  1  2  1  0  0  0  0
  2  3  1  0  0  0  0
  2  4  1  0  0  0  0
  2  5  1  0  0  0  0
  5  6  2  0  0  0  0
  5  7  1  0  0  0  0
  7  8  1  0  0  0  0
  7  9  1  0  0  0  0
  9 10  1  0  0  0  0
  9 11  1  0  0  0  0
  9 24  1  0  0  0  0
 11 12  1  0  0  0  0
 11 13  1  0  0  0  0
 11 17  1  0  0  0  0
 13 14  1  0  0  0  0
 13 15  1  0  0  0  0
 13 16  1  0  0  0  0
 17 18  1  0  0  0  0
 17 19  1  0  0  0  0
 17 20  1  0  0  0  0
 20 21  1  0  0  0  0
 20 22  1  0  0  0  0
 20 23  1  0  0  0  0
 24 25  2  0  0  0  0
 24 26  1  0  0  0  0
 26 27  1  0  0  0  0
 26 28  1  0  0  0  0
 28 29  1  0  0  0  0
 28 30  1  0  0  0  0
 28 31  1  0  0  0  0
M  END
$$$$

  -OEChem-01062216083D

 31 30  0     1  0  0  0  0  0999 V2000
   -3.2631   -3.0875    1.3220 H   0  0  0  0  0  0  0  0  0  0  0  0
   -3.2881   -2.0665    0.9303 C   0  0  0  0  0  0  0  0  0  0  0  0
   -3.9962   -1.4806    1.5209 H   0  0  0  0  0  0  0  0  0  0  0  0
   -3.6266   -2.0976   -0.1080 H   0  0  0  0  0  0  0  0  0  0  0  0
   -1.9065   -1.4443    1.0082 C   0  0  0  0  0  0  0  0  0  0  0  0
   -0.9847   -2.0757    1.4911 O   0  0  0  0  0  0  0  0  0  0  0  0
   -1.7052   -0.1664    0.5241 N   0  0  0  0  0  0  0  0  0  0  0  0
   -2.4953    0.2801    0.0692 H   0  0  0  0  0  0  0  0  0  0  0  0
   -0.3964    0.5180    0.4719 C   0  0  1  0  0  0  0  0  0  0  0  0
    0.2968   -0.0985   -0.1115 H   0  0  0  0  0  0  0  0  0  0  0  0
   -0.5818    1.8772   -0.2628 C   0  0  1  0  0  0  0  0  0  0  0  0
   -1.3574    2.4483    0.2588 H   0  0  0  0  0  0  0  0  0  0  0  0
    0.7178    2.7089   -0.2475 C   0  0  0  0  0  0  0  0  0  0  0  0
    1.5369    2.1491   -0.7104 H   0  0  0  0  0  0  0  0  0  0  0  0
    0.5919    3.6507   -0.7866 H   0  0  0  0  0  0  0  0  0  0  0  0
    1.0077    2.9659    0.7755 H   0  0  0  0  0  0  0  0  0  0  0  0
   -1.0320    1.6364   -1.7274 C   0  0  0  0  0  0  0  0  0  0  0  0
   -0.2113    1.1828   -2.2936 H   0  0  0  0  0  0  0  0  0  0  0  0
   -1.8694    0.9342   -1.7529 H   0  0  0  0  0  0  0  0  0  0  0  0
   -1.4926    2.9140   -2.4367 C   0  0  0  0  0  0  0  0  0  0  0  0
   -0.6568    3.5978   -2.6072 H   0  0  0  0  0  0  0  0  0  0  0  0
   -1.9240    2.6619   -3.4102 H   0  0  0  0  0  0  0  0  0  0  0  0
   -2.2549    3.4285   -1.8439 H   0  0  0  0  0  0  0  0  0  0  0  0
    0.2466    0.6803    1.8712 C   0  0  0  0  0  0  0  0  0  0  0  0
    1.4587    0.5759    2.0092 O   0  0  0  0  0  0  0  0  0  0  0  0
   -0.5181    1.1104    2.9409 N   0  0  0  0  0  0  0  0  0  0  0  0
   -1.5236    1.0855    2.8119 H   0  0  0  0  0  0  0  0  0  0  0  0
    0.0153    1.2328    4.2915 C   0  0  0  0  0  0  0  0  0  0  0  0
    0.8520    1.9391    4.3112 H   0  0  0  0  0  0  0  0  0  0  0  0
   -0.7590    1.5978    4.9728 H   0  0  0  0  0  0  0  0  0  0  0  0
    0.3669    0.2604    4.6524 H   0  0  0  0  0  0  0  0  0  0  0  0
  1  2  1  0  0  0  0
  2  3  1  0  0  0  0
  2  4  1  0  0  0  0
  2  5  1  0  0  0  0
  5  6  2  0  0  0  0
  5  7  1  0  0  0  0
  7  8  1  0  0  0  0
  7  9  1  0  0  0  0
  9 10  1  0  0  0  0
  9 11  1  0  0  0  0
  9 24  1  0  0  0  0
 11 12  1  0  0  0  0
 11 13  1  0  0  0  0
 11 17  1  0  0  0  0
 13 14  1  0  0  0  0
 13 15  1  0  0  0  0
 13 16  1  0  0  0  0
 17 18  1  0  0  0  0
 17 19  1  0  0  0  0
 17 20  1  0  0  0  0
 20 21  1  0  0  0  0
 20 22  1  0  0  0  0
 20 23  1  0  0  0  0
 24 25  2  0  0  0  0
 24 26  1  0  0  0  0
 26 27  1  0  0  0  0
 26 28  1  0  0  0  0
 28 29  1  0  0  0  0
 28 30  1  0  0  0  0
 28 31  1  0  0  0  0
M  END
$$$$

  -OEChem-01062216083D

 31 30  0     1  0  0  0  0  0999 V2000
   -3.2793   -3.0699    1.2986 H   0  0  0  0  0  0  0  0  0  0  0  0
   -3.2977   -2.0480    0.9087 C   0  0  0  0  0  0  0  0  0  0  0  0
   -4.0142   -1.4629    1.4903 H   0  0  0  0  0  0  0  0  0  0  0  0
   -3.6210   -2.0771   -0.1347 H   0  0  0  0  0  0  0  0  0  0  0  0
   -1.9169   -1.4271    1.0071 C   0  0  0  0  0  0  0  0  0  0  0  0
   -1.0056   -2.0544    1.5148 O   0  0  0  0  0  0  0  0  0  0  0  0
   -1.7044   -0.1504    0.5248 N   0  0  0  0  0  0  0  0  0  0  0  0
   -2.4877    0.3002    0.0614 H   0  0  0  0  0  0  0  0  0  0  0  0
   -0.3921    0.5313    0.4856 C   0  0  1  0  0  0  0  0  0  0  0  0
    0.3058   -0.0860   -0.0913 H   0  0  0  0  0  0  0  0  0  0  0  0
   -0.5877    1.8842   -0.2632 C   0  0  1  0  0  0  0  0  0  0  0  0
   -1.3756    2.4477    0.2485 H   0  0  0  0  0  0  0  0  0  0  0  0
    0.6946    2.7420   -0.2488 C   0  0  0  0  0  0  0  0  0  0  0  0
    1.5329    2.1874   -0.6827 H   0  0  0  0  0  0  0  0  0  0  0  0
    0.5611    3.6674   -0.8134 H   0  0  0  0  0  0  0  0  0  0  0  0
    0.9597    3.0321    0.7719 H   0  0  0  0  0  0  0  0  0  0  0  0
   -1.0259    1.6253   -1.7298 C   0  0  0  0  0  0  0  0  0  0  0  0
   -0.1959    1.1766   -2.2859 H   0  0  0  0  0  0  0  0  0  0  0  0
   -1.8549    0.9132   -1.7565 H   0  0  0  0  0  0  0  0  0  0  0  0
   -1.4967    2.8892   -2.4575 C   0  0  0  0  0  0  0  0  0  0  0  0
   -0.6666    3.5781   -2.6354 H   0  0  0  0  0  0  0  0  0  0  0  0
   -1.9225    2.6199   -3.4290 H   0  0  0  0  0  0  0  0  0  0  0  0
   -2.2657    3.4051   -1.8742 H   0  0  0  0  0  0  0  0  0  0  0  0
    0.2492    0.7004    1.8879 C   0  0  0  0  0  0  0  0  0  0  0  0
    1.4660    0.7752    2.0060 O   0  0  0  0  0  0  0  0  0  0  0  0
   -0.5438    0.8345    3.0137 N   0  0  0  0  0  0  0  0  0  0  0  0
   -1.5211    0.5928    2.8926 H   0  0  0  0  0  0  0  0  0  0  0  0
    0.0069    0.8504    4.3630 C   0  0  0  0  0  0  0  0  0  0  0  0
    0.7138    1.6785    4.4798 H   0  0  0  0  0  0  0  0  0  0  0  0
   -0.7944    0.9763    5.0972 H   0  0  0  0  0  0  0  0  0  0  0  0
    0.5278   -0.0897    4.5736 H   0  0  0  0  0  0  0  0  0  0  0  0
  1  2  1  0  0  0  0
  2  3  1  0  0  0  0
  2  4  1  0  0  0  0
  2  5  1  0  0  0  0
  5  6  2  0  0  0  0
  5  7  1  0  0  0  0
  7  8  1  0  0  0  0
  7  9  1  0  0  0  0
  9 10  1  0  0  0  0
  9 11  1  0  0  0  0
  9 24  1  0  0  0  0
 11 12  1  0  0  0  0
 11 13  1  0  0  0  0
 11 17  1  0  0  0  0
 13 14  1  0  0  0  0
 13 15  1  0  0  0  0
 13 16  1  0  0  0  0
 17 18  1  0  0  0  0
 17 19  1  0  0  0  0
 17 20  1  0  0  0  0
 20 21  1  0  0  0  0
 20 22  1  0  0  0  0
 20 23  1  0  0  0  0
 24 25  2  0  0  0  0
 24 26  1  0  0  0  0
 26 27  1  0  0  0  0
 26 28  1  0  0  0  0
 28 29  1  0  0  0  0
 28 30  1  0  0  0  0
 28 31  1  0  0  0  0
M  END
$$$$

  -OEChem-01062216083D

 31 30  0     1  0  0  0  0  0999 V2000
   -3.3335   -3.0436    1.2457 H   0  0  0  0  0  0  0  0  0  0  0  0
   -3.3284   -2.0208    0.8578 C   0  0  0  0  0  0  0  0  0  0  0  0
   -4.0477   -1.4256    1.4253 H   0  0  0  0  0  0  0  0  0  0  0  0
   -3.6308   -2.0424   -0.1920 H   0  0  0  0  0  0  0  0  0  0  0  0
   -1.9408   -1.4212    0.9862 C   0  0  0  0  0  0  0  0  0  0  0  0
   -1.0507   -2.0589    1.5178 O   0  0  0  0  0  0  0  0  0  0  0  0
   -1.7025   -0.1435    0.5208 N   0  0  0  0  0  0  0  0  0  0  0  0
   -2.4787    0.3259    0.0639 H   0  0  0  0  0  0  0  0  0  0  0  0
   -0.3875    0.5372    0.5084 C   0  0  1  0  0  0  0  0  0  0  0  0
    0.3189   -0.0759   -0.0623 H   0  0  0  0  0  0  0  0  0  0  0  0
   -0.5984    1.8848   -0.2538 C   0  0  1  0  0  0  0  0  0  0  0  0
   -1.4034    2.4362    0.2442 H   0  0  0  0  0  0  0  0  0  0  0  0
    0.6611    2.7753   -0.2375 C   0  0  0  0  0  0  0  0  0  0  0  0
    1.5243    2.2259   -0.6263 H   0  0  0  0  0  0  0  0  0  0  0  0
    0.5236    3.6762   -0.8391 H   0  0  0  0  0  0  0  0  0  0  0  0
    0.8870    3.1110    0.7784 H   0  0  0  0  0  0  0  0  0  0  0  0
   -1.0152    1.6084   -1.7253 C   0  0  0  0  0  0  0  0  0  0  0  0
   -0.1702    1.1710   -2.2677 H   0  0  0  0  0  0  0  0  0  0  0  0
   -1.8305    0.8813   -1.7594 H   0  0  0  0  0  0  0  0  0  0  0  0
   -1.5003    2.8574   -2.4699 C   0  0  0  0  0  0  0  0  0  0  0  0
   -0.6794    3.5545   -2.6573 H   0  0  0  0  0  0  0  0  0  0  0  0
   -1.9222    2.5700   -3.4379 H   0  0  0  0  0  0  0  0  0  0  0  0
   -2.2762    3.3711   -1.8940 H   0  0  0  0  0  0  0  0  0  0  0  0
    0.2501    0.7070    1.9174 C   0  0  0  0  0  0  0  0  0  0  0  0
    1.4416    0.9683    2.0304 O   0  0  0  0  0  0  0  0  0  0  0  0
   -0.4981    0.5378    3.0690 N   0  0  0  0  0  0  0  0  0  0  0  0
   -1.3823    0.0593    2.9341 H   0  0  0  0  0  0  0  0  0  0  0  0
    0.1073    0.4912    4.3942 C   0  0  0  0  0  0  0  0  0  0  0  0
    0.6531    1.4180    4.6001 H   0  0  0  0  0  0  0  0  0  0  0  0
   -0.6659    0.3711    5.1588 H   0  0  0  0  0  0  0  0  0  0  0  0
    0.8030   -0.3514    4.4669 H   0  0  0  0  0  0  0  0  0  0  0  0
  1  2  1  0  0  0  0
  2  3  1  0  0  0  0
  2  4  1  0  0  0  0
  2  5  1  0  0  0  0
  5  6  2  0  0  0  0
  5  7  1  0  0  0  0
  7  8  1  0  0  0  0
  7  9  1  0  0  0  0
  9 10  1  0  0  0  0
  9 11  1  0  0  0  0
  9 24  1  0  0  0  0
 11 12  1  0  0  0  0
 11 13  1  0  0  0  0
 11 17  1  0  0  0  0
 13 14  1  0  0  0  0
 13 15  1  0  0  0  0
 13 16  1  0  0  0  0
 17 18  1  0  0  0  0
 17 19  1  0  0  0  0
 17 20  1  0  0  0  0
 20 21  1  0  0  0  0
 20 22  1  0  0  0  0
 20 23  1  0  0  0  0
 24 25  2  0  0  0  0
 24 26  1  0  0  0  0
 26 27  1  0  0  0  0
 26 28  1  0  0  0  0
 28 29  1  0  0  0  0
 28 30  1  0  0  0  0
 28 31  1  0  0  0  0
M  END
$$$$

  -OEChem-01062216083D

 31 30  0     1  0  0  0  0  0999 V2000
   -3.4065   -3.0145    1.1710 H   0  0  0  0  0  0  0  0  0  0  0  0
   -3.3738   -1.9831    0.8086 C   0  0  0  0  0  0  0  0  0  0  0  0
   -4.0772   -1.3829    1.3909 H   0  0  0  0  0  0  0  0  0  0  0  0
   -3.6760   -1.9707   -0.2414 H   0  0  0  0  0  0  0  0  0  0  0  0
   -1.9714   -1.4229    0.9506 C   0  0  0  0  0  0  0  0  0  0  0  0
   -1.0994   -2.0928    1.4738 O   0  0  0  0  0  0  0  0  0  0  0  0
   -1.7021   -0.1395    0.5204 N   0  0  0  0  0  0  0  0  0  0  0  0
   -2.4793    0.3669    0.1067 H   0  0  0  0  0  0  0  0  0  0  0  0
   -0.3841    0.5393    0.5324 C   0  0  1  0  0  0  0  0  0  0  0  0
    0.3248   -0.0687   -0.0401 H   0  0  0  0  0  0  0  0  0  0  0  0
   -0.6058    1.8851   -0.2401 C   0  0  1  0  0  0  0  0  0  0  0  0
   -1.4260    2.4251    0.2453 H   0  0  0  0  0  0  0  0  0  0  0  0
    0.6312    2.8076   -0.2252 C   0  0  0  0  0  0  0  0  0  0  0  0
    1.5202    2.2640   -0.5607 H   0  0  0  0  0  0  0  0  0  0  0  0
    0.4951    3.6782   -0.8694 H   0  0  0  0  0  0  0  0  0  0  0  0
    0.8122    3.1959    0.7808 H   0  0  0  0  0  0  0  0  0  0  0  0
   -1.0037    1.5916   -1.7156 C   0  0  0  0  0  0  0  0  0  0  0  0
   -0.1464    1.1616   -2.2443 H   0  0  0  0  0  0  0  0  0  0  0  0
   -1.8085    0.8532   -1.7542 H   0  0  0  0  0  0  0  0  0  0  0  0
   -1.5000    2.8246   -2.4800 C   0  0  0  0  0  0  0  0  0  0  0  0
   -0.6858    3.5254   -2.6816 H   0  0  0  0  0  0  0  0  0  0  0  0
   -1.9205    2.5173   -3.4424 H   0  0  0  0  0  0  0  0  0  0  0  0
   -2.2795    3.3412   -1.9116 H   0  0  0  0  0  0  0  0  0  0  0  0
    0.2570    0.6859    1.9487 C   0  0  0  0  0  0  0  0  0  0  0  0
    1.3771    1.1620    2.0835 O   0  0  0  0  0  0  0  0  0  0  0  0
   -0.3752    0.2128    3.0852 N   0  0  0  0  0  0  0  0  0  0  0  0
   -1.0744   -0.5010    2.8943 H   0  0  0  0  0  0  0  0  0  0  0  0
    0.2835    0.1675    4.3853 C   0  0  0  0  0  0  0  0  0  0  0  0
    0.5995    1.1703    4.6914 H   0  0  0  0  0  0  0  0  0  0  0  0
   -0.4037   -0.2219    5.1422 H   0  0  0  0  0  0  0  0  0  0  0  0
    1.1635   -0.4830    4.3462 H   0  0  0  0  0  0  0  0  0  0  0  0
  1  2  1  0  0  0  0
  2  3  1  0  0  0  0
  2  4  1  0  0  0  0
  2  5  1  0  0  0  0
  5  6  2  0  0  0  0
  5  7  1  0  0  0  0
  7  8  1  0  0  0  0
  7  9  1  0  0  0  0
  9 10  1  0  0  0  0
  9 11  1  0  0  0  0
  9 24  1  0  0  0  0
 11 12  1  0  0  0  0
 11 13  1  0  0  0  0
 11 17  1  0  0  0  0
 13 14  1  0  0  0  0
 13 15  1  0  0  0  0
 13 16  1  0  0  0  0
 17 18  1  0  0  0  0
 17 19  1  0  0  0  0
 17 20  1  0  0  0  0
 20 21  1  0  0  0  0
 20 22  1  0  0  0  0
 20 23  1  0  0  0  0
 24 25  2  0  0  0  0
 24 26  1  0  0  0  0
 26 27  1  0  0  0  0
 26 28  1  0  0  0  0
 28 29  1  0  0  0  0
 28 30  1  0  0  0  0
 28 31  1  0  0  0  0
M  END
$$$$

  -OEChem-01062216083D

 31 30  0     1  0  0  0  0  0999 V2000
   -3.4279   -2.9849    1.2034 H   0  0  0  0  0  0  0  0  0  0  0  0
   -3.3892   -1.9509    0.8488 C   0  0  0  0  0  0  0  0  0  0  0  0
   -4.0299   -1.3367    1.4861 H   0  0  0  0  0  0  0  0  0  0  0  0
   -3.7660   -1.9167   -0.1763 H   0  0  0  0  0  0  0  0  0  0  0  0
   -1.9633   -1.4359    0.8948 C   0  0  0  0  0  0  0  0  0  0  0  0
   -1.0676   -2.1639    1.2865 O   0  0  0  0  0  0  0  0  0  0  0  0
   -1.6911   -0.1396    0.5063 N   0  0  0  0  0  0  0  0  0  0  0  0
   -2.4928    0.4167    0.2240 H   0  0  0  0  0  0  0  0  0  0  0  0
   -0.3771    0.5488    0.5370 C   0  0  1  0  0  0  0  0  0  0  0  0
    0.3363   -0.0487   -0.0403 H   0  0  0  0  0  0  0  0  0  0  0  0
   -0.6072    1.8954   -0.2387 C   0  0  1  0  0  0  0  0  0  0  0  0
   -1.4364    2.4297    0.2375 H   0  0  0  0  0  0  0  0  0  0  0  0
    0.6208    2.8321   -0.2290 C   0  0  0  0  0  0  0  0  0  0  0  0
    1.5280    2.2799   -0.4943 H   0  0  0  0  0  0  0  0  0  0  0  0
    0.5077    3.6626   -0.9275 H   0  0  0  0  0  0  0  0  0  0  0  0
    0.7546    3.2833    0.7575 H   0  0  0  0  0  0  0  0  0  0  0  0
   -0.9874    1.5908   -1.7187 C   0  0  0  0  0  0  0  0  0  0  0  0
   -0.1211    1.1673   -2.2377 H   0  0  0  0  0  0  0  0  0  0  0  0
   -1.7836    0.8432   -1.7611 H   0  0  0  0  0  0  0  0  0  0  0  0
   -1.4931    2.8120   -2.4976 C   0  0  0  0  0  0  0  0  0  0  0  0
   -0.6845    3.5149   -2.7138 H   0  0  0  0  0  0  0  0  0  0  0  0
   -1.9168    2.4899   -3.4539 H   0  0  0  0  0  0  0  0  0  0  0  0
   -2.2728    3.3319   -1.9326 H   0  0  0  0  0  0  0  0  0  0  0  0
    0.2600    0.6552    1.9648 C   0  0  0  0  0  0  0  0  0  0  0  0
    1.2297    1.3676    2.1865 O   0  0  0  0  0  0  0  0  0  0  0  0
   -0.1981   -0.1045    3.0272 N   0  0  0  0  0  0  0  0  0  0  0  0
   -0.7239   -0.9320    2.7461 H   0  0  0  0  0  0  0  0  0  0  0  0
    0.4717   -0.1464    4.3222 C   0  0  0  0  0  0  0  0  0  0  0  0
    0.5223    0.8556    4.7610 H   0  0  0  0  0  0  0  0  0  0  0  0
   -0.0796   -0.7945    5.0100 H   0  0  0  0  0  0  0  0  0  0  0  0
    1.4891   -0.5369    4.2158 H   0  0  0  0  0  0  0  0  0  0  0  0
  1  2  1  0  0  0  0
  2  3  1  0  0  0  0
  2  4  1  0  0  0  0
  2  5  1  0  0  0  0
  5  6  2  0  0  0  0
  5  7  1  0  0  0  0
  7  8  1  0  0  0  0
  7  9  1  0  0  0  0
  9 10  1  0  0  0  0
  9 11  1  0  0  0  0
  9 24  1  0  0  0  0
 11 12  1  0  0  0  0
 11 13  1  0  0  0  0
 11 17  1  0  0  0  0
 13 14  1  0  0  0  0
 13 15  1  0  0  0  0
 13 16  1  0  0  0  0
 17 18  1  0  0  0  0
 17 19  1  0  0  0  0
 17 20  1  0  0  0  0
 20 21  1  0  0  0  0
 20 22  1  0  0  0  0
 20 23  1  0  0  0  0
 24 25  2  0  0  0  0
 24 26  1  0  0  0  0
 26 27  1  0  0  0  0
 26 28  1  0  0  0  0
 28 29  1  0  0  0  0
 28 30  1  0  0  0  0
 28 31  1  0  0  0  0
M  END
$$$$

  -OEChem-01062216083D

 31 30  0     1  0  0  0  0  0999 V2000
   -3.3905   -2.9857    1.2662 H   0  0  0  0  0  0  0  0  0  0  0  0
   -3.3693   -1.9452    0.9297 C   0  0  0  0  0  0  0  0  0  0  0  0
   -3.9396   -1.3365    1.6356 H   0  0  0  0  0  0  0  0  0  0  0  0
   -3.8378   -1.8847   -0.0556 H   0  0  0  0  0  0  0  0  0  0  0  0
   -1.9380   -1.4490    0.8544 C   0  0  0  0  0  0  0  0  0  0  0  0
   -1.0164   -2.2157    1.0819 O   0  0  0  0  0  0  0  0  0  0  0  0
   -1.6870   -0.1389    0.4991 N   0  0  0  0  0  0  0  0  0  0  0  0
   -2.5096    0.4415    0.3629 H   0  0  0  0  0  0  0  0  0  0  0  0
   -0.3810    0.5637    0.5284 C   0  0  1  0  0  0  0  0  0  0  0  0
    0.3309   -0.0248   -0.0595 H   0  0  0  0  0  0  0  0  0  0  0  0
   -0.6065    1.9137   -0.2426 C   0  0  1  0  0  0  0  0  0  0  0  0
   -1.4292    2.4586    0.2329 H   0  0  0  0  0  0  0  0  0  0  0  0
    0.6417    2.8275   -0.2464 C   0  0  0  0  0  0  0  0  0  0  0  0
    1.5468    2.2408   -0.4322 H   0  0  0  0  0  0  0  0  0  0  0  0
    0.5809    3.6069   -1.0066 H   0  0  0  0  0  0  0  0  0  0  0  0
    0.7453    3.3478    0.7088 H   0  0  0  0  0  0  0  0  0  0  0  0
   -0.9815    1.6054   -1.7236 C   0  0  0  0  0  0  0  0  0  0  0  0
   -0.1144    1.1791   -2.2391 H   0  0  0  0  0  0  0  0  0  0  0  0
   -1.7781    0.8580   -1.7644 H   0  0  0  0  0  0  0  0  0  0  0  0
   -1.4857    2.8232   -2.5097 C   0  0  0  0  0  0  0  0  0  0  0  0
   -0.6778    3.5248   -2.7320 H   0  0  0  0  0  0  0  0  0  0  0  0
   -1.9107    2.4958   -3.4636 H   0  0  0  0  0  0  0  0  0  0  0  0
   -2.2646    3.3472   -1.9474 H   0  0  0  0  0  0  0  0  0  0  0  0
    0.2615    0.6276    1.9588 C   0  0  0  0  0  0  0  0  0  0  0  0
    0.9474    1.5686    2.3313 O   0  0  0  0  0  0  0  0  0  0  0  0
    0.0396   -0.3618    2.9003 N   0  0  0  0  0  0  0  0  0  0  0  0
   -0.3311   -1.2372    2.5263 H   0  0  0  0  0  0  0  0  0  0  0  0
    0.6855   -0.3950    4.2075 C   0  0  0  0  0  0  0  0  0  0  0  0
    0.4392    0.5052    4.7802 H   0  0  0  0  0  0  0  0  0  0  0  0
    0.3445   -1.2667    4.7742 H   0  0  0  0  0  0  0  0  0  0  0  0
    1.7731   -0.4562    4.0964 H   0  0  0  0  0  0  0  0  0  0  0  0
  1  2  1  0  0  0  0
  2  3  1  0  0  0  0
  2  4  1  0  0  0  0
  2  5  1  0  0  0  0
  5  6  2  0  0  0  0
  5  7  1  0  0  0  0
  7  8  1  0  0  0  0
  7  9  1  0  0  0  0
  9 10  1  0  0  0  0
  9 11  1  0  0  0  0
  9 24  1  0  0  0  0
 11 12  1  0  0  0  0
 11 13  1  0  0  0  0
 11 17  1  0  0  0  0
 13 14  1  0  0  0  0
 13 15  1  0  0  0  0
 13 16  1  0  0  0  0
 17 18  1  0  0  0  0
 17 19  1  0  0  0  0
 17 20  1  0  0  0  0
 20 21  1  0  0  0  0
 20 22  1  0  0  0  0
 20 23  1  0  0  0  0
 24 25  2  0  0  0  0
 24 26  1  0  0  0  0
 26 27  1  0  0  0  0
 26 28  1  0  0  0  0
 28 29  1  0  0  0  0
 28 30  1  0  0  0  0
 28 31  1  0  0  0  0
M  END
$$$$

  -OEChem-01062216083D

 31 30  0     1  0  0  0  0  0999 V2000
   -3.2927   -3.0272    1.3326 H   0  0  0  0  0  0  0  0  0  0  0  0
   -3.3040   -1.9727    1.0424 C   0  0  0  0  0  0  0  0  0  0  0  0
   -3.7974   -1.3972    1.8294 H   0  0  0  0  0  0  0  0  0  0  0  0
   -3.8711   -1.8693    0.1141 H   0  0  0  0  0  0  0  0  0  0  0  0
   -1.8871   -1.4696    0.8425 C   0  0  0  0  0  0  0  0  0  0  0  0
   -0.9472   -2.2425    0.9456 O   0  0  0  0  0  0  0  0  0  0  0  0
   -1.6729   -0.1524    0.4875 N   0  0  0  0  0  0  0  0  0  0  0  0
   -2.5051    0.4299    0.4641 H   0  0  0  0  0  0  0  0  0  0  0  0
   -0.3751    0.5631    0.4884 C   0  0  1  0  0  0  0  0  0  0  0  0
    0.3276   -0.0193   -0.1167 H   0  0  0  0  0  0  0  0  0  0  0  0
   -0.5909    1.9229   -0.2598 C   0  0  1  0  0  0  0  0  0  0  0  0
   -1.3886    2.4847    0.2378 H   0  0  0  0  0  0  0  0  0  0  0  0
    0.6924    2.7899   -0.2855 C   0  0  0  0  0  0  0  0  0  0  0  0
    1.5604    2.1812   -0.5572 H   0  0  0  0  0  0  0  0  0  0  0  0
    0.6145    3.6110   -0.9995 H   0  0  0  0  0  0  0  0  0  0  0  0
    0.8802    3.2562    0.6834 H   0  0  0  0  0  0  0  0  0  0  0  0
   -0.9905    1.6368   -1.7373 C   0  0  0  0  0  0  0  0  0  0  0  0
   -0.1402    1.2002   -2.2723 H   0  0  0  0  0  0  0  0  0  0  0  0
   -1.8012    0.9041   -1.7701 H   0  0  0  0  0  0  0  0  0  0  0  0
   -1.4872    2.8727   -2.4990 C   0  0  0  0  0  0  0  0  0  0  0  0
   -0.6731    3.5692   -2.7142 H   0  0  0  0  0  0  0  0  0  0  0  0
   -1.9225    2.5660   -3.4551 H   0  0  0  0  0  0  0  0  0  0  0  0
   -2.2560    3.3955   -1.9217 H   0  0  0  0  0  0  0  0  0  0  0  0
    0.2812    0.6103    1.9100 C   0  0  0  0  0  0  0  0  0  0  0  0
    0.6011    1.6619    2.4461 O   0  0  0  0  0  0  0  0  0  0  0  0
    0.3358   -0.5125    2.7151 N   0  0  0  0  0  0  0  0  0  0  0  0
    0.0788   -1.3976    2.2717 H   0  0  0  0  0  0  0  0  0  0  0  0
    0.8759   -0.5329    4.0691 C   0  0  0  0  0  0  0  0  0  0  0  0
    0.3003    0.1313    4.7221 H   0  0  0  0  0  0  0  0  0  0  0  0
    0.8268   -1.5465    4.4781 H   0  0  0  0  0  0  0  0  0  0  0  0
    1.9220   -0.2097    4.0697 H   0  0  0  0  0  0  0  0  0  0  0  0
  1  2  1  0  0  0  0
  2  3  1  0  0  0  0
  2  4  1  0  0  0  0
  2  5  1  0  0  0  0
  5  6  2  0  0  0  0
  5  7  1  0  0  0  0
  7  8  1  0  0  0  0
  7  9  1  0  0  0  0
  9 10  1  0  0  0  0
  9 11  1  0  0  0  0
  9 24  1  0  0  0  0
 11 12  1  0  0  0  0
 11 13  1  0  0  0  0
 11 17  1  0  0  0  0
 13 14  1  0  0  0  0
 13 15  1  0  0  0  0
 13 16  1  0  0  0  0
 17 18  1  0  0  0  0
 17 19  1  0  0  0  0
 17 20  1  0  0  0  0
 20 21  1  0  0  0  0
 20 22  1  0  0  0  0
 20 23  1  0  0  0  0
 24 25  2  0  0  0  0
 24 26  1  0  0  0  0
 26 27  1  0  0  0  0
 26 28  1  0  0  0  0
 28 29  1  0  0  0  0
 28 30  1  0  0  0  0
 28 31  1  0  0  0  0
M  END
$$$$

  -OEChem-01062216083D

 31 30  0     1  0  0  0  0  0999 V2000
   -3.1622   -3.0501    1.4685 H   0  0  0  0  0  0  0  0  0  0  0  0
   -3.2073   -2.0021    1.1590 C   0  0  0  0  0  0  0  0  0  0  0  0
   -3.6558   -1.4168    1.9655 H   0  0  0  0  0  0  0  0  0  0  0  0
   -3.8353   -1.9249    0.2681 H   0  0  0  0  0  0  0  0  0  0  0  0
   -1.8133   -1.4860    0.8567 C   0  0  0  0  0  0  0  0  0  0  0  0
   -0.8586   -2.2469    0.9067 O   0  0  0  0  0  0  0  0  0  0  0  0
   -1.6375   -0.1727    0.4672 N   0  0  0  0  0  0  0  0  0  0  0  0
   -2.4717    0.4060    0.5108 H   0  0  0  0  0  0  0  0  0  0  0  0
   -0.3463    0.5494    0.4282 C   0  0  1  0  0  0  0  0  0  0  0  0
    0.3495   -0.0284   -0.1893 H   0  0  0  0  0  0  0  0  0  0  0  0
   -0.5622    1.9182   -0.2910 C   0  0  1  0  0  0  0  0  0  0  0  0
   -1.3317    2.4854    0.2437 H   0  0  0  0  0  0  0  0  0  0  0  0
    0.7411    2.7529   -0.3415 C   0  0  0  0  0  0  0  0  0  0  0  0
    1.5358    2.1913   -0.8426 H   0  0  0  0  0  0  0  0  0  0  0  0
    0.5873    3.6908   -0.8796 H   0  0  0  0  0  0  0  0  0  0  0  0
    1.0930    3.0282    0.6538 H   0  0  0  0  0  0  0  0  0  0  0  0
   -1.0053    1.6689   -1.7595 C   0  0  0  0  0  0  0  0  0  0  0  0
   -0.1792    1.2304   -2.3296 H   0  0  0  0  0  0  0  0  0  0  0  0
   -1.8296    0.9507   -1.7813 H   0  0  0  0  0  0  0  0  0  0  0  0
   -1.4992    2.9338   -2.4712 C   0  0  0  0  0  0  0  0  0  0  0  0
   -0.6794    3.6317   -2.6601 H   0  0  0  0  0  0  0  0  0  0  0  0
   -1.9399    2.6669   -3.4366 H   0  0  0  0  0  0  0  0  0  0  0  0
   -2.2623    3.4386   -1.8707 H   0  0  0  0  0  0  0  0  0  0  0  0
    0.3127    0.6133    1.8417 C   0  0  0  0  0  0  0  0  0  0  0  0
    0.3284    1.6530    2.4888 O   0  0  0  0  0  0  0  0  0  0  0  0
    0.6476   -0.5427    2.5214 N   0  0  0  0  0  0  0  0  0  0  0  0
    0.4298   -1.4212    2.0439 H   0  0  0  0  0  0  0  0  0  0  0  0
    1.0388   -0.5843    3.9248 C   0  0  0  0  0  0  0  0  0  0  0  0
    0.2121   -0.2557    4.5630 H   0  0  0  0  0  0  0  0  0  0  0  0
    1.3129   -1.6048    4.2088 H   0  0  0  0  0  0  0  0  0  0  0  0
    1.9021    0.0657    4.1016 H   0  0  0  0  0  0  0  0  0  0  0  0
  1  2  1  0  0  0  0
  2  3  1  0  0  0  0
  2  4  1  0  0  0  0
  2  5  1  0  0  0  0
  5  6  2  0  0  0  0
  5  7  1  0  0  0  0
  7  8  1  0  0  0  0
  7  9  1  0  0  0  0
  9 10  1  0  0  0  0
  9 11  1  0  0  0  0
  9 24  1  0  0  0  0
 11 12  1  0  0  0  0
 11 13  1  0  0  0  0
 11 17  1  0  0  0  0
 13 14  1  0  0  0  0
 13 15  1  0  0  0  0
 13 16  1  0  0  0  0
 17 18  1  0  0  0  0
 17 19  1  0  0  0  0
 17 20  1  0  0  0  0
 20 21  1  0  0  0  0
 20 22  1  0  0  0  0
 20 23  1  0  0  0  0
 24 25  2  0  0  0  0
 24 26  1  0  0  0  0
 26 27  1  0  0  0  0
 26 28  1  0  0  0  0
 28 29  1  0  0  0  0
 28 30  1  0  0  0  0
 28 31  1  0  0  0  0
M  END
$$$$

  -OEChem-01062216083D

 31 30  0     1  0  0  0  0  0999 V2000
   -3.0706   -3.0484    1.5827 H   0  0  0  0  0  0  0  0  0  0  0  0
   -3.1462   -2.0220    1.2126 C   0  0  0  0  0  0  0  0  0  0  0  0
   -3.6035   -1.4024    1.9881 H   0  0  0  0  0  0  0  0  0  0  0  0
   -3.7839   -2.0132    0.3253 H   0  0  0  0  0  0  0  0  0  0  0  0
   -1.7690   -1.4879    0.8671 C   0  0  0  0  0  0  0  0  0  0  0  0
   -0.7947   -2.2233    0.9294 O   0  0  0  0  0  0  0  0  0  0  0  0
   -1.6254   -0.1814    0.4433 N   0  0  0  0  0  0  0  0  0  0  0  0
   -2.4626    0.3913    0.5018 H   0  0  0  0  0  0  0  0  0  0  0  0
   -0.3382    0.5410    0.3901 C   0  0  1  0  0  0  0  0  0  0  0  0
    0.3610   -0.0341   -0.2262 H   0  0  0  0  0  0  0  0  0  0  0  0
   -0.5535    1.9140   -0.3143 C   0  0  1  0  0  0  0  0  0  0  0  0
   -1.3203    2.4747    0.2315 H   0  0  0  0  0  0  0  0  0  0  0  0
    0.7506    2.7443   -0.3405 C   0  0  0  0  0  0  0  0  0  0  0  0
    1.5362    2.2077   -0.8815 H   0  0  0  0  0  0  0  0  0  0  0  0
    0.5903    3.7092   -0.8273 H   0  0  0  0  0  0  0  0  0  0  0  0
    1.1147    2.9602    0.6663 H   0  0  0  0  0  0  0  0  0  0  0  0
   -1.0124    1.6880   -1.7794 C   0  0  0  0  0  0  0  0  0  0  0  0
   -0.1940    1.2534   -2.3632 H   0  0  0  0  0  0  0  0  0  0  0  0
   -1.8408    0.9745   -1.8026 H   0  0  0  0  0  0  0  0  0  0  0  0
   -1.5031    2.9679   -2.4645 C   0  0  0  0  0  0  0  0  0  0  0  0
   -0.6812    3.6688   -2.6335 H   0  0  0  0  0  0  0  0  0  0  0  0
   -1.9409    2.7225   -3.4370 H   0  0  0  0  0  0  0  0  0  0  0  0
   -2.2677    3.4601   -1.8555 H   0  0  0  0  0  0  0  0  0  0  0  0
    0.3000    0.6258    1.8060 C   0  0  0  0  0  0  0  0  0  0  0  0
    0.1331    1.6108    2.5159 O   0  0  0  0  0  0  0  0  0  0  0  0
    0.8986   -0.4861    2.3668 N   0  0  0  0  0  0  0  0  0  0  0  0
    0.7316   -1.3633    1.8670 H   0  0  0  0  0  0  0  0  0  0  0  0
    1.2989   -0.5569    3.7663 C   0  0  0  0  0  0  0  0  0  0  0  0
    0.4266   -0.4548    4.4201 H   0  0  0  0  0  0  0  0  0  0  0  0
    1.7781   -1.5188    3.9721 H   0  0  0  0  0  0  0  0  0  0  0  0
    2.0121    0.2400    4.0022 H   0  0  0  0  0  0  0  0  0  0  0  0
  1  2  1  0  0  0  0
  2  3  1  0  0  0  0
  2  4  1  0  0  0  0
  2  5  1  0  0  0  0
  5  6  2  0  0  0  0
  5  7  1  0  0  0  0
  7  8  1  0  0  0  0
  7  9  1  0  0  0  0
  9 10  1  0  0  0  0
  9 11  1  0  0  0  0
  9 24  1  0  0  0  0
 11 12  1  0  0  0  0
 11 13  1  0  0  0  0
 11 17  1  0  0  0  0
 13 14  1  0  0  0  0
 13 15  1  0  0  0  0
 13 16  1  0  0  0  0
 17 18  1  0  0  0  0
 17 19  1  0  0  0  0
 17 20  1  0  0  0  0
 20 21  1  0  0  0  0
 20 22  1  0  0  0  0
 20 23  1  0  0  0  0
 24 25  2  0  0  0  0
 24 26  1  0  0  0  0
 26 27  1  0  0  0  0
 26 28  1  0  0  0  0
 28 29  1  0  0  0  0
 28 30  1  0  0  0  0
 28 31  1  0  0  0  0
M  END
$$$$

  -OEChem-01062216083D

 31 30  0     1  0  0  0  0  0999 V2000
   -3.0126   -3.0700    1.5890 H   0  0  0  0  0  0  0  0  0  0  0  0
   -3.1090   -2.0394    1.2361 C   0  0  0  0  0  0  0  0  0  0  0  0
   -3.5620   -1.4377    2.0278 H   0  0  0  0  0  0  0  0  0  0  0  0
   -3.7607   -2.0268    0.3590 H   0  0  0  0  0  0  0  0  0  0  0  0
   -1.7457   -1.4802    0.8771 C   0  0  0  0  0  0  0  0  0  0  0  0
   -0.7508   -2.1865    0.9603 O   0  0  0  0  0  0  0  0  0  0  0  0
   -1.6315   -0.1804    0.4247 N   0  0  0  0  0  0  0  0  0  0  0  0
   -2.4693    0.3893    0.5029 H   0  0  0  0  0  0  0  0  0  0  0  0
   -0.3448    0.5366    0.3650 C   0  0  1  0  0  0  0  0  0  0  0  0
    0.3569   -0.0402   -0.2466 H   0  0  0  0  0  0  0  0  0  0  0  0
   -0.5526    1.9117   -0.3319 C   0  0  1  0  0  0  0  0  0  0  0  0
   -1.3176    2.4718    0.2173 H   0  0  0  0  0  0  0  0  0  0  0  0
    0.7554    2.7328   -0.3350 C   0  0  0  0  0  0  0  0  0  0  0  0
    1.5408    2.2018   -0.8818 H   0  0  0  0  0  0  0  0  0  0  0  0
    0.6036    3.7081   -0.8039 H   0  0  0  0  0  0  0  0  0  0  0  0
    1.1111    2.9225    0.6811 H   0  0  0  0  0  0  0  0  0  0  0  0
   -1.0185    1.7010   -1.7958 C   0  0  0  0  0  0  0  0  0  0  0  0
   -0.2048    1.2661   -2.3857 H   0  0  0  0  0  0  0  0  0  0  0  0
   -1.8521    0.9933   -1.8218 H   0  0  0  0  0  0  0  0  0  0  0  0
   -1.5003    2.9919   -2.4661 C   0  0  0  0  0  0  0  0  0  0  0  0
   -0.6750    3.6927   -2.6179 H   0  0  0  0  0  0  0  0  0  0  0  0
   -1.9314    2.7623   -3.4454 H   0  0  0  0  0  0  0  0  0  0  0  0
   -2.2681    3.4774   -1.8557 H   0  0  0  0  0  0  0  0  0  0  0  0
    0.2713    0.6353    1.7852 C   0  0  0  0  0  0  0  0  0  0  0  0
   -0.0469    1.5425    2.5459 O   0  0  0  0  0  0  0  0  0  0  0  0
    1.1152   -0.3604    2.2380 N   0  0  0  0  0  0  0  0  0  0  0  0
    1.0536   -1.2341    1.7122 H   0  0  0  0  0  0  0  0  0  0  0  0
    1.5704   -0.4322    3.6205 C   0  0  0  0  0  0  0  0  0  0  0  0
    0.7216   -0.5841    4.2954 H   0  0  0  0  0  0  0  0  0  0  0  0
    2.2679   -1.2659    3.7446 H   0  0  0  0  0  0  0  0  0  0  0  0
    2.0858    0.4914    3.9044 H   0  0  0  0  0  0  0  0  0  0  0  0
  1  2  1  0  0  0  0
  2  3  1  0  0  0  0
  2  4  1  0  0  0  0
  2  5  1  0  0  0  0
  5  6  2  0  0  0  0
  5  7  1  0  0  0  0
  7  8  1  0  0  0  0
  7  9  1  0  0  0  0
  9 10  1  0  0  0  0
  9 11  1  0  0  0  0
  9 24  1  0  0  0  0
 11 12  1  0  0  0  0
 11 13  1  0  0  0  0
 11 17  1  0  0  0  0
 13 14  1  0  0  0  0
 13 15  1  0  0  0  0
 13 16  1  0  0  0  0
 17 18  1  0  0  0  0
 17 19  1  0  0  0  0
 17 20  1  0  0  0  0
 20 21  1  0  0  0  0
 20 22  1  0  0  0  0
 20 23  1  0  0  0  0
 24 25  2  0  0  0  0
 24 26  1  0  0  0  0
 26 27  1  0  0  0  0
 26 28  1  0  0  0  0
 28 29  1  0  0  0  0
 28 30  1  0  0  0  0
 28 31  1  0  0  0  0
M  END
$$$$

  -OEChem-01062216083D

 31 30  0     1  0  0  0  0  0999 V2000
   -2.9801   -3.0723    1.6209 H   0  0  0  0  0  0  0  0  0  0  0  0
   -3.0926   -2.0487    1.2529 C   0  0  0  0  0  0  0  0  0  0  0  0
   -3.5446   -1.4399    2.0399 H   0  0  0  0  0  0  0  0  0  0  0  0
   -3.7532   -2.0575    0.3825 H   0  0  0  0  0  0  0  0  0  0  0  0
   -1.7398   -1.4797    0.8707 C   0  0  0  0  0  0  0  0  0  0  0  0
   -0.7343   -2.1702    0.9591 O   0  0  0  0  0  0  0  0  0  0  0  0
   -1.6438   -0.1848    0.4008 N   0  0  0  0  0  0  0  0  0  0  0  0
   -2.4785    0.3851    0.5063 H   0  0  0  0  0  0  0  0  0  0  0  0
   -0.3561    0.5268    0.3422 C   0  0  1  0  0  0  0  0  0  0  0  0
    0.3451   -0.0516   -0.2685 H   0  0  0  0  0  0  0  0  0  0  0  0
   -0.5557    1.9061   -0.3445 C   0  0  1  0  0  0  0  0  0  0  0  0
   -1.3213    2.4630    0.2073 H   0  0  0  0  0  0  0  0  0  0  0  0
    0.7544    2.7216   -0.3245 C   0  0  0  0  0  0  0  0  0  0  0  0
    1.5474    2.1875   -0.8571 H   0  0  0  0  0  0  0  0  0  0  0  0
    0.6161    3.6981   -0.7951 H   0  0  0  0  0  0  0  0  0  0  0  0
    1.0890    2.9073    0.7001 H   0  0  0  0  0  0  0  0  0  0  0  0
   -1.0234    1.7120   -1.8090 C   0  0  0  0  0  0  0  0  0  0  0  0
   -0.2121    1.2786   -2.4030 H   0  0  0  0  0  0  0  0  0  0  0  0
   -1.8609    1.0092   -1.8410 H   0  0  0  0  0  0  0  0  0  0  0  0
   -1.4963    3.0126   -2.4659 C   0  0  0  0  0  0  0  0  0  0  0  0
   -0.6668    3.7104   -2.6078 H   0  0  0  0  0  0  0  0  0  0  0  0
   -1.9262    2.7960   -3.4485 H   0  0  0  0  0  0  0  0  0  0  0  0
   -2.2628    3.4960   -1.8522 H   0  0  0  0  0  0  0  0  0  0  0  0
    0.2460    0.6355    1.7651 C   0  0  0  0  0  0  0  0  0  0  0  0
   -0.2223    1.4259    2.5771 O   0  0  0  0  0  0  0  0  0  0  0  0
    1.3070   -0.1710    2.1296 N   0  0  0  0  0  0  0  0  0  0  0  0
    1.4342   -0.9971    1.5471 H   0  0  0  0  0  0  0  0  0  0  0  0
    1.8134   -0.2199    3.4952 C   0  0  0  0  0  0  0  0  0  0  0  0
    1.0387   -0.5843    4.1779 H   0  0  0  0  0  0  0  0  0  0  0  0
    2.6743   -0.8928    3.5542 H   0  0  0  0  0  0  0  0  0  0  0  0
    2.1323    0.7752    3.8226 H   0  0  0  0  0  0  0  0  0  0  0  0
  1  2  1  0  0  0  0
  2  3  1  0  0  0  0
  2  4  1  0  0  0  0
  2  5  1  0  0  0  0
  5  6  2  0  0  0  0
  5  7  1  0  0  0  0
  7  8  1  0  0  0  0
  7  9  1  0  0  0  0
  9 10  1  0  0  0  0
  9 11  1  0  0  0  0
  9 24  1  0  0  0  0
 11 12  1  0  0  0  0
 11 13  1  0  0  0  0
 11 17  1  0  0  0  0
 13 14  1  0  0  0  0
 13 15  1  0  0  0  0
 13 16  1  0  0  0  0
 17 18  1  0  0  0  0
 17 19  1  0  0  0  0
 17 20  1  0  0  0  0
 20 21  1  0  0  0  0
 20 22  1  0  0  0  0
 20 23  1  0  0  0  0
 24 25  2  0  0  0  0
 24 26  1  0  0  0  0
 26 27  1  0  0  0  0
 26 28  1  0  0  0  0
 28 29  1  0  0  0  0
 28 30  1  0  0  0  0
 28 31  1  0  0  0  0
M  END
$$$$

  -OEChem-01062216083D

 31 30  0     1  0  0  0  0  0999 V2000
   -2.9629   -3.0636    1.6593 H   0  0  0  0  0  0  0  0  0  0  0  0
   -3.0839   -2.0443    1.2821 C   0  0  0  0  0  0  0  0  0  0  0  0
   -3.5066   -1.4239    2.0762 H   0  0  0  0  0  0  0  0  0  0  0  0
   -3.7730   -2.0610    0.4344 H   0  0  0  0  0  0  0  0  0  0  0  0
   -1.7422   -1.4854    0.8489 C   0  0  0  0  0  0  0  0  0  0  0  0
   -0.7373   -2.1790    0.9112 O   0  0  0  0  0  0  0  0  0  0  0  0
   -1.6544   -0.1927    0.3717 N   0  0  0  0  0  0  0  0  0  0  0  0
   -2.4808    0.3797    0.5189 H   0  0  0  0  0  0  0  0  0  0  0  0
   -0.3654    0.5171    0.3224 C   0  0  1  0  0  0  0  0  0  0  0  0
    0.3383   -0.0625   -0.2840 H   0  0  0  0  0  0  0  0  0  0  0  0
   -0.5593    1.9002   -0.3557 C   0  0  1  0  0  0  0  0  0  0  0  0
   -1.3296    2.4505    0.1960 H   0  0  0  0  0  0  0  0  0  0  0  0
    0.7472    2.7197   -0.3159 C   0  0  0  0  0  0  0  0  0  0  0  0
    1.5476    2.1936   -0.8455 H   0  0  0  0  0  0  0  0  0  0  0  0
    0.6092    3.6997   -0.7793 H   0  0  0  0  0  0  0  0  0  0  0  0
    1.0700    2.8972    0.7141 H   0  0  0  0  0  0  0  0  0  0  0  0
   -1.0209    1.7171   -1.8234 C   0  0  0  0  0  0  0  0  0  0  0  0
   -0.2079    1.2856   -2.4166 H   0  0  0  0  0  0  0  0  0  0  0  0
   -1.8599    1.0163   -1.8634 H   0  0  0  0  0  0  0  0  0  0  0  0
   -1.4883    3.0233   -2.4733 C   0  0  0  0  0  0  0  0  0  0  0  0
   -0.6558    3.7188   -2.6095 H   0  0  0  0  0  0  0  0  0  0  0  0
   -1.9178    2.8143   -3.4578 H   0  0  0  0  0  0  0  0  0  0  0  0
   -2.2540    3.5052   -1.8575 H   0  0  0  0  0  0  0  0  0  0  0  0
    0.2249    0.6326    1.7486 C   0  0  0  0  0  0  0  0  0  0  0  0
   -0.3864    1.2482    2.6153 O   0  0  0  0  0  0  0  0  0  0  0  0
    1.4542    0.0744    2.0441 N   0  0  0  0  0  0  0  0  0  0  0  0
    1.7982   -0.6131    1.3787 H   0  0  0  0  0  0  0  0  0  0  0  0
    1.9939    0.0484    3.3973 C   0  0  0  0  0  0  0  0  0  0  0  0
    1.3345   -0.5207    4.0610 H   0  0  0  0  0  0  0  0  0  0  0  0
    2.9817   -0.4224    3.4008 H   0  0  0  0  0  0  0  0  0  0  0  0
    2.0966    1.0657    3.7894 H   0  0  0  0  0  0  0  0  0  0  0  0
  1  2  1  0  0  0  0
  2  3  1  0  0  0  0
  2  4  1  0  0  0  0
  2  5  1  0  0  0  0
  5  6  2  0  0  0  0
  5  7  1  0  0  0  0
  7  8  1  0  0  0  0
  7  9  1  0  0  0  0
  9 10  1  0  0  0  0
  9 11  1  0  0  0  0
  9 24  1  0  0  0  0
 11 12  1  0  0  0  0
 11 13  1  0  0  0  0
 11 17  1  0  0  0  0
 13 14  1  0  0  0  0
 13 15  1  0  0  0  0
 13 16  1  0  0  0  0
 17 18  1  0  0  0  0
 17 19  1  0  0  0  0
 17 20  1  0  0  0  0
 20 21  1  0  0  0  0
 20 22  1  0  0  0  0
 20 23  1  0  0  0  0
 24 25  2  0  0  0  0
 24 26  1  0  0  0  0
 26 27  1  0  0  0  0
 26 28  1  0  0  0  0
 28 29  1  0  0  0  0
 28 30  1  0  0  0  0
 28 31  1  0  0  0  0
M  END
$$$$

  -OEChem-01062216083D

 31 30  0     1  0  0  0  0  0999 V2000
   -2.9732   -3.0599    1.6607 H   0  0  0  0  0  0  0  0  0  0  0  0
   -3.0919   -2.0380    1.2892 C   0  0  0  0  0  0  0  0  0  0  0  0
   -3.4911   -1.4157    2.0940 H   0  0  0  0  0  0  0  0  0  0  0  0
   -3.7989   -2.0442    0.4563 H   0  0  0  0  0  0  0  0  0  0  0  0
   -1.7539   -1.4908    0.8304 C   0  0  0  0  0  0  0  0  0  0  0  0
   -0.7556   -2.1952    0.8689 O   0  0  0  0  0  0  0  0  0  0  0  0
   -1.6642   -0.1984    0.3526 N   0  0  0  0  0  0  0  0  0  0  0  0
   -2.4838    0.3763    0.5257 H   0  0  0  0  0  0  0  0  0  0  0  0
   -0.3712    0.5064    0.3154 C   0  0  1  0  0  0  0  0  0  0  0  0
    0.3344   -0.0750   -0.2872 H   0  0  0  0  0  0  0  0  0  0  0  0
   -0.5635    1.8924   -0.3587 C   0  0  1  0  0  0  0  0  0  0  0  0
   -1.3390    2.4378    0.1908 H   0  0  0  0  0  0  0  0  0  0  0  0
    0.7377    2.7192   -0.3077 C   0  0  0  0  0  0  0  0  0  0  0  0
    1.5489    2.1910   -0.8183 H   0  0  0  0  0  0  0  0  0  0  0  0
    0.6035    3.6933   -0.7842 H   0  0  0  0  0  0  0  0  0  0  0  0
    1.0413    2.9103    0.7257 H   0  0  0  0  0  0  0  0  0  0  0  0
   -1.0185    1.7148   -1.8294 C   0  0  0  0  0  0  0  0  0  0  0  0
   -0.2025    1.2863   -2.4205 H   0  0  0  0  0  0  0  0  0  0  0  0
   -1.8564    1.0134   -1.8762 H   0  0  0  0  0  0  0  0  0  0  0  0
   -1.4845    3.0226   -2.4772 C   0  0  0  0  0  0  0  0  0  0  0  0
   -0.6517    3.7178   -2.6123 H   0  0  0  0  0  0  0  0  0  0  0  0
   -1.9138    2.8156   -3.4622 H   0  0  0  0  0  0  0  0  0  0  0  0
   -2.2503    3.5041   -1.8611 H   0  0  0  0  0  0  0  0  0  0  0  0
    0.2130    0.6235    1.7449 C   0  0  0  0  0  0  0  0  0  0  0  0
   -0.4904    1.0431    2.6582 O   0  0  0  0  0  0  0  0  0  0  0  0
    1.5461    0.3466    1.9868 N   0  0  0  0  0  0  0  0  0  0  0  0
    2.0476   -0.1464    1.2538 H   0  0  0  0  0  0  0  0  0  0  0  0
    2.1237    0.3746    3.3246 C   0  0  0  0  0  0  0  0  0  0  0  0
    1.6235   -0.3528    3.9726 H   0  0  0  0  0  0  0  0  0  0  0  0
    3.1888    0.1274    3.2821 H   0  0  0  0  0  0  0  0  0  0  0  0
    2.0191    1.3710    3.7665 H   0  0  0  0  0  0  0  0  0  0  0  0
  1  2  1  0  0  0  0
  2  3  1  0  0  0  0
  2  4  1  0  0  0  0
  2  5  1  0  0  0  0
  5  6  2  0  0  0  0
  5  7  1  0  0  0  0
  7  8  1  0  0  0  0
  7  9  1  0  0  0  0
  9 10  1  0  0  0  0
  9 11  1  0  0  0  0
  9 24  1  0  0  0  0
 11 12  1  0  0  0  0
 11 13  1  0  0  0  0
 11 17  1  0  0  0  0
 13 14  1  0  0  0  0
 13 15  1  0  0  0  0
 13 16  1  0  0  0  0
 17 18  1  0  0  0  0
 17 19  1  0  0  0  0
 17 20  1  0  0  0  0
 20 21  1  0  0  0  0
 20 22  1  0  0  0  0
 20 23  1  0  0  0  0
 24 25  2  0  0  0  0
 24 26  1  0  0  0  0
 26 27  1  0  0  0  0
 26 28  1  0  0  0  0
 28 29  1  0  0  0  0
 28 30  1  0  0  0  0
 28 31  1  0  0  0  0
M  END
$$$$

  -OEChem-01062216083D

 31 30  0     1  0  0  0  0  0999 V2000
   -2.9813   -3.0478    1.6542 H   0  0  0  0  0  0  0  0  0  0  0  0
   -3.0948   -2.0207    1.2963 C   0  0  0  0  0  0  0  0  0  0  0  0
   -3.4638   -1.4018    2.1181 H   0  0  0  0  0  0  0  0  0  0  0  0
   -3.8228   -2.0085    0.4819 H   0  0  0  0  0  0  0  0  0  0  0  0
   -1.7614   -1.4874    0.8085 C   0  0  0  0  0  0  0  0  0  0  0  0
   -0.7732   -2.2069    0.8111 O   0  0  0  0  0  0  0  0  0  0  0  0
   -1.6674   -0.1918    0.3390 N   0  0  0  0  0  0  0  0  0  0  0  0
   -2.4777    0.3858    0.5426 H   0  0  0  0  0  0  0  0  0  0  0  0
   -0.3678    0.5034    0.3166 C   0  0  1  0  0  0  0  0  0  0  0  0
    0.3391   -0.0792   -0.2831 H   0  0  0  0  0  0  0  0  0  0  0  0
   -0.5663    1.8899   -0.3609 C   0  0  1  0  0  0  0  0  0  0  0  0
   -1.3524    2.4254    0.1829 H   0  0  0  0  0  0  0  0  0  0  0  0
    0.7171    2.7427   -0.3055 C   0  0  0  0  0  0  0  0  0  0  0  0
    1.5463    2.2234   -0.7960 H   0  0  0  0  0  0  0  0  0  0  0  0
    0.5707    3.7066   -0.7987 H   0  0  0  0  0  0  0  0  0  0  0  0
    0.9987    2.9584    0.7289 H   0  0  0  0  0  0  0  0  0  0  0  0
   -1.0138    1.7049   -1.8341 C   0  0  0  0  0  0  0  0  0  0  0  0
   -0.1906    1.2810   -2.4187 H   0  0  0  0  0  0  0  0  0  0  0  0
   -1.8459    0.9969   -1.8847 H   0  0  0  0  0  0  0  0  0  0  0  0
   -1.4870    3.0051   -2.4922 C   0  0  0  0  0  0  0  0  0  0  0  0
   -0.6584    3.7039   -2.6339 H   0  0  0  0  0  0  0  0  0  0  0  0
   -1.9148    2.7869   -3.4755 H   0  0  0  0  0  0  0  0  0  0  0  0
   -2.2558    3.4869   -1.8803 H   0  0  0  0  0  0  0  0  0  0  0  0
    0.2129    0.6098    1.7509 C   0  0  0  0  0  0  0  0  0  0  0  0
   -0.5361    0.8191    2.7000 O   0  0  0  0  0  0  0  0  0  0  0  0
    1.5803    0.6263    1.9622 N   0  0  0  0  0  0  0  0  0  0  0  0
    2.1704    0.3590    1.1802 H   0  0  0  0  0  0  0  0  0  0  0  0
    2.1740    0.7038    3.2913 C   0  0  0  0  0  0  0  0  0  0  0  0
    1.8495   -0.1428    3.9056 H   0  0  0  0  0  0  0  0  0  0  0  0
    3.2657    0.6823    3.2198 H   0  0  0  0  0  0  0  0  0  0  0  0
    1.8791    1.6335    3.7891 H   0  0  0  0  0  0  0  0  0  0  0  0
  1  2  1  0  0  0  0
  2  3  1  0  0  0  0
  2  4  1  0  0  0  0
  2  5  1  0  0  0  0
  5  6  2  0  0  0  0
  5  7  1  0  0  0  0
  7  8  1  0  0  0  0
  7  9  1  0  0  0  0
  9 10  1  0  0  0  0
  9 11  1  0  0  0  0
  9 24  1  0  0  0  0
 11 12  1  0  0  0  0
 11 13  1  0  0  0  0
 11 17  1  0  0  0  0
 13 14  1  0  0  0  0
 13 15  1  0  0  0  0
 13 16  1  0  0  0  0
 17 18  1  0  0  0  0
 17 19  1  0  0  0  0
 17 20  1  0  0  0  0
 20 21  1  0  0  0  0
 20 22  1  0  0  0  0
 20 23  1  0  0  0  0
 24 25  2  0  0  0  0
 24 26  1  0  0  0  0
 26 27  1  0  0  0  0
 26 28  1  0  0  0  0
 28 29  1  0  0  0  0
 28 30  1  0  0  0  0
 28 31  1  0  0  0  0
M  END
$$$$

  -OEChem-01062216083D

 31 30  0     1  0  0  0  0  0999 V2000
   -3.0010   -3.0374    1.6151 H   0  0  0  0  0  0  0  0  0  0  0  0
   -3.1005   -1.9967    1.2945 C   0  0  0  0  0  0  0  0  0  0  0  0
   -3.4298   -1.3970    2.1466 H   0  0  0  0  0  0  0  0  0  0  0  0
   -3.8519   -1.9404    0.5035 H   0  0  0  0  0  0  0  0  0  0  0  0
   -1.7694   -1.4779    0.7854 C   0  0  0  0  0  0  0  0  0  0  0  0
   -0.7969   -2.2172    0.7423 O   0  0  0  0  0  0  0  0  0  0  0  0
   -1.6638   -0.1766    0.3331 N   0  0  0  0  0  0  0  0  0  0  0  0
   -2.4653    0.4043    0.5592 H   0  0  0  0  0  0  0  0  0  0  0  0
   -0.3561    0.5067    0.3253 C   0  0  1  0  0  0  0  0  0  0  0  0
    0.3505   -0.0759   -0.2751 H   0  0  0  0  0  0  0  0  0  0  0  0
   -0.5694    1.8911   -0.3622 C   0  0  1  0  0  0  0  0  0  0  0  0
   -1.3675    2.4167    0.1738 H   0  0  0  0  0  0  0  0  0  0  0  0
    0.6916    2.7774   -0.3131 C   0  0  0  0  0  0  0  0  0  0  0  0
    1.5492    2.2527   -0.7455 H   0  0  0  0  0  0  0  0  0  0  0  0
    0.5443    3.7097   -0.8629 H   0  0  0  0  0  0  0  0  0  0  0  0
    0.9272    3.0597    0.7166 H   0  0  0  0  0  0  0  0  0  0  0  0
   -1.0118    1.6885   -1.8371 C   0  0  0  0  0  0  0  0  0  0  0  0
   -0.1810    1.2701   -2.4148 H   0  0  0  0  0  0  0  0  0  0  0  0
   -1.8342    0.9693   -1.8870 H   0  0  0  0  0  0  0  0  0  0  0  0
   -1.5009    2.9744   -2.5123 C   0  0  0  0  0  0  0  0  0  0  0  0
   -0.6798    3.6772   -2.6750 H   0  0  0  0  0  0  0  0  0  0  0  0
   -1.9364    2.7368   -3.4877 H   0  0  0  0  0  0  0  0  0  0  0  0
   -2.2679    3.4603   -1.9013 H   0  0  0  0  0  0  0  0  0  0  0  0
    0.2296    0.5942    1.7639 C   0  0  0  0  0  0  0  0  0  0  0  0
   -0.5200    0.5783    2.7357 O   0  0  0  0  0  0  0  0  0  0  0  0
    1.5621    0.9016    1.9788 N   0  0  0  0  0  0  0  0  0  0  0  0
    2.1784    0.8804    1.1724 H   0  0  0  0  0  0  0  0  0  0  0  0
    2.1492    1.0263    3.3074 C   0  0  0  0  0  0  0  0  0  0  0  0
    2.0218    0.0960    3.8710 H   0  0  0  0  0  0  0  0  0  0  0  0
    3.2195    1.2399    3.2292 H   0  0  0  0  0  0  0  0  0  0  0  0
    1.6739    1.8422    3.8620 H   0  0  0  0  0  0  0  0  0  0  0  0
  1  2  1  0  0  0  0
  2  3  1  0  0  0  0
  2  4  1  0  0  0  0
  2  5  1  0  0  0  0
  5  6  2  0  0  0  0
  5  7  1  0  0  0  0
  7  8  1  0  0  0  0
  7  9  1  0  0  0  0
  9 10  1  0  0  0  0
  9 11  1  0  0  0  0
  9 24  1  0  0  0  0
 11 12  1  0  0  0  0
 11 13  1  0  0  0  0
 11 17  1  0  0  0  0
 13 14  1  0  0  0  0
 13 15  1  0  0  0  0
 13 16  1  0  0  0  0
 17 18  1  0  0  0  0
 17 19  1  0  0  0  0
 17 20  1  0  0  0  0
 20 21  1  0  0  0  0
 20 22  1  0  0  0  0
 20 23  1  0  0  0  0
 24 25  2  0  0  0  0
 24 26  1  0  0  0  0
 26 27  1  0  0  0  0
 26 28  1  0  0  0  0
 28 29  1  0  0  0  0
 28 30  1  0  0  0  0
 28 31  1  0  0  0  0
M  END
$$$$

  -OEChem-01062216083D

 31 30  0     1  0  0  0  0  0999 V2000
   -3.0550   -3.0363    1.5038 H   0  0  0  0  0  0  0  0  0  0  0  0
   -3.1124   -1.9671    1.2824 C   0  0  0  0  0  0  0  0  0  0  0  0
   -3.3285   -1.4285    2.2084 H   0  0  0  0  0  0  0  0  0  0  0  0
   -3.9213   -1.7961    0.5685 H   0  0  0  0  0  0  0  0  0  0  0  0
   -1.7959   -1.4842    0.7049 C   0  0  0  0  0  0  0  0  0  0  0  0
   -0.8906   -2.2754    0.4848 O   0  0  0  0  0  0  0  0  0  0  0  0
   -1.6522   -0.1665    0.3113 N   0  0  0  0  0  0  0  0  0  0  0  0
   -2.4399    0.4162    0.5748 H   0  0  0  0  0  0  0  0  0  0  0  0
   -0.3347    0.5071    0.3418 C   0  0  1  0  0  0  0  0  0  0  0  0
    0.2831    0.0938   -0.4619 H   0  0  0  0  0  0  0  0  0  0  0  0
   -0.6341    2.0109    0.0164 C   0  0  1  0  0  0  0  0  0  0  0  0
   -1.3780    2.3718    0.7355 H   0  0  0  0  0  0  0  0  0  0  0  0
    0.6030    2.9247    0.1289 C   0  0  0  0  0  0  0  0  0  0  0  0
    1.4414    2.5105   -0.4395 H   0  0  0  0  0  0  0  0  0  0  0  0
    0.3977    3.9288   -0.2467 H   0  0  0  0  0  0  0  0  0  0  0  0
    0.8973    3.0470    1.1742 H   0  0  0  0  0  0  0  0  0  0  0  0
   -1.2278    2.1329   -1.4172 C   0  0  0  0  0  0  0  0  0  0  0  0
   -0.4574    1.8830   -2.1543 H   0  0  0  0  0  0  0  0  0  0  0  0
   -2.0439    1.4178   -1.5510 H   0  0  0  0  0  0  0  0  0  0  0  0
   -1.8023    3.5184   -1.7372 C   0  0  0  0  0  0  0  0  0  0  0  0
   -1.0114    4.2632   -1.8560 H   0  0  0  0  0  0  0  0  0  0  0  0
   -2.3635    3.4772   -2.6758 H   0  0  0  0  0  0  0  0  0  0  0  0
   -2.4813    3.8451   -0.9434 H   0  0  0  0  0  0  0  0  0  0  0  0
    0.4557    0.2457    1.6683 C   0  0  0  0  0  0  0  0  0  0  0  0
   -0.1308   -0.1532    2.6701 O   0  0  0  0  0  0  0  0  0  0  0  0
    1.7144    0.7825    1.8838 N   0  0  0  0  0  0  0  0  0  0  0  0
    2.2003    1.1634    1.0783 H   0  0  0  0  0  0  0  0  0  0  0  0
    2.4271    0.6923    3.1537 C   0  0  0  0  0  0  0  0  0  0  0  0
    2.5467   -0.3548    3.4520 H   0  0  0  0  0  0  0  0  0  0  0  0
    3.4208    1.1410    3.0626 H   0  0  0  0  0  0  0  0  0  0  0  0
    1.8795    1.2229    3.9397 H   0  0  0  0  0  0  0  0  0  0  0  0
  1  2  1  0  0  0  0
  2  3  1  0  0  0  0
  2  4  1  0  0  0  0
  2  5  1  0  0  0  0
  5  6  2  0  0  0  0
  5  7  1  0  0  0  0
  7  8  1  0  0  0  0
  7  9  1  0  0  0  0
  9 10  1  0  0  0  0
  9 11  1  0  0  0  0
  9 24  1  0  0  0  0
 11 12  1  0  0  0  0
 11 13  1  0  0  0  0
 11 17  1  0  0  0  0
 13 14  1  0  0  0  0
 13 15  1  0  0  0  0
 13 16  1  0  0  0  0
 17 18  1  0  0  0  0
 17 19  1  0  0  0  0
 17 20  1  0  0  0  0
 20 21  1  0  0  0  0
 20 22  1  0  0  0  0
 20 23  1  0  0  0  0
 24 25  2  0  0  0  0
 24 26  1  0  0  0  0
 26 27  1  0  0  0  0
 26 28  1  0  0  0  0
 28 29  1  0  0  0  0
 28 30  1  0  0  0  0
 28 31  1  0  0  0  0
M  END
$$$$

  -OEChem-01062216083D

 31 30  0     1  0  0  0  0  0999 V2000
   -3.0606   -3.0235    1.4899 H   0  0  0  0  0  0  0  0  0  0  0  0
   -3.1074   -1.9475    1.3011 C   0  0  0  0  0  0  0  0  0  0  0  0
   -3.2823   -1.4333    2.2493 H   0  0  0  0  0  0  0  0  0  0  0  0
   -3.9371   -1.7426    0.6208 H   0  0  0  0  0  0  0  0  0  0  0  0
   -1.8033   -1.4696    0.6921 C   0  0  0  0  0  0  0  0  0  0  0  0
   -0.9317   -2.2714    0.3906 O   0  0  0  0  0  0  0  0  0  0  0  0
   -1.6487   -0.1444    0.3286 N   0  0  0  0  0  0  0  0  0  0  0  0
   -2.4327    0.4347    0.6096 H   0  0  0  0  0  0  0  0  0  0  0  0
   -0.3302    0.5313    0.3673 C   0  0  1  0  0  0  0  0  0  0  0  0
    0.2862    0.1181   -0.4378 H   0  0  0  0  0  0  0  0  0  0  0  0
   -0.6441    2.0313    0.0160 C   0  0  1  0  0  0  0  0  0  0  0  0
   -1.3983    2.3979    0.7213 H   0  0  0  0  0  0  0  0  0  0  0  0
    0.5783    2.9702    0.1069 C   0  0  0  0  0  0  0  0  0  0  0  0
    1.4446    2.5247   -0.3921 H   0  0  0  0  0  0  0  0  0  0  0  0
    0.3834    3.9397   -0.3540 H   0  0  0  0  0  0  0  0  0  0  0  0
    0.8243    3.1824    1.1500 H   0  0  0  0  0  0  0  0  0  0  0  0
   -1.2251    2.1176   -1.4280 C   0  0  0  0  0  0  0  0  0  0  0  0
   -0.4444    1.8620   -2.1522 H   0  0  0  0  0  0  0  0  0  0  0  0
   -2.0310    1.3902   -1.5568 H   0  0  0  0  0  0  0  0  0  0  0  0
   -1.8165    3.4873   -1.7863 C   0  0  0  0  0  0  0  0  0  0  0  0
   -1.0363    4.2385   -1.9325 H   0  0  0  0  0  0  0  0  0  0  0  0
   -2.3813    3.4110   -2.7205 H   0  0  0  0  0  0  0  0  0  0  0  0
   -2.4963    3.8294   -1.0000 H   0  0  0  0  0  0  0  0  0  0  0  0
    0.4826    0.2541    1.6853 C   0  0  0  0  0  0  0  0  0  0  0  0
   -0.0071   -0.3924    2.6052 O   0  0  0  0  0  0  0  0  0  0  0  0
    1.5856    1.0086    2.0493 N   0  0  0  0  0  0  0  0  0  0  0  0
    1.9941    1.6024    1.3352 H   0  0  0  0  0  0  0  0  0  0  0  0
    2.2647    0.8991    3.3368 C   0  0  0  0  0  0  0  0  0  0  0  0
    2.6106   -0.1270    3.5015 H   0  0  0  0  0  0  0  0  0  0  0  0
    3.1326    1.5648    3.3644 H   0  0  0  0  0  0  0  0  0  0  0  0
    1.5892    1.1790    4.1521 H   0  0  0  0  0  0  0  0  0  0  0  0
  1  2  1  0  0  0  0
  2  3  1  0  0  0  0
  2  4  1  0  0  0  0
  2  5  1  0  0  0  0
  5  6  2  0  0  0  0
  5  7  1  0  0  0  0
  7  8  1  0  0  0  0
  7  9  1  0  0  0  0
  9 10  1  0  0  0  0
  9 11  1  0  0  0  0
  9 24  1  0  0  0  0
 11 12  1  0  0  0  0
 11 13  1  0  0  0  0
 11 17  1  0  0  0  0
 13 14  1  0  0  0  0
 13 15  1  0  0  0  0
 13 16  1  0  0  0  0
 17 18  1  0  0  0  0
 17 19  1  0  0  0  0
 17 20  1  0  0  0  0
 20 21  1  0  0  0  0
 20 22  1  0  0  0  0
 20 23  1  0  0  0  0
 24 25  2  0  0  0  0
 24 26  1  0  0  0  0
 26 27  1  0  0  0  0
 26 28  1  0  0  0  0
 28 29  1  0  0  0  0
 28 30  1  0  0  0  0
 28 31  1  0  0  0  0
M  END
$$$$

  -OEChem-01062216083D

 31 30  0     1  0  0  0  0  0999 V2000
   -3.1763   -2.9224    1.5557 H   0  0  0  0  0  0  0  0  0  0  0  0
   -3.1988   -1.8531    1.3282 C   0  0  0  0  0  0  0  0  0  0  0  0
   -3.3766   -1.3023    2.2548 H   0  0  0  0  0  0  0  0  0  0  0  0
   -4.0143   -1.6561    0.6287 H   0  0  0  0  0  0  0  0  0  0  0  0
   -1.8768   -1.4243    0.7210 C   0  0  0  0  0  0  0  0  0  0  0  0
   -1.0587   -2.2623    0.3746 O   0  0  0  0  0  0  0  0  0  0  0  0
   -1.6747   -0.1059    0.3581 N   0  0  0  0  0  0  0  0  0  0  0  0
   -2.4548    0.4904    0.6118 H   0  0  0  0  0  0  0  0  0  0  0  0
   -0.3486    0.5560    0.4198 C   0  0  1  0  0  0  0  0  0  0  0  0
    0.2798    0.1106   -0.3587 H   0  0  0  0  0  0  0  0  0  0  0  0
   -0.6287    2.0465   -0.0014 C   0  0  1  0  0  0  0  0  0  0  0  0
   -1.3984    2.4584    0.6604 H   0  0  0  0  0  0  0  0  0  0  0  0
    0.6124    2.9649    0.0772 C   0  0  0  0  0  0  0  0  0  0  0  0
    1.5032    2.4389   -0.2812 H   0  0  0  0  0  0  0  0  0  0  0  0
    0.7728    3.3074    1.1023 H   0  0  0  0  0  0  0  0  0  0  0  0
    0.4972    3.8699   -0.5203 H   0  0  0  0  0  0  0  0  0  0  0  0
   -1.1559    2.0756   -1.4694 C   0  0  0  0  0  0  0  0  0  0  0  0
   -0.3529    1.7786   -2.1524 H   0  0  0  0  0  0  0  0  0  0  0  0
   -1.9660    1.3525   -1.5962 H   0  0  0  0  0  0  0  0  0  0  0  0
   -1.7183    3.4334   -1.9122 C   0  0  0  0  0  0  0  0  0  0  0  0
   -0.9273    4.1707   -2.0683 H   0  0  0  0  0  0  0  0  0  0  0  0
   -2.2526    3.3174   -2.8601 H   0  0  0  0  0  0  0  0  0  0  0  0
   -2.4208    3.8189   -1.1668 H   0  0  0  0  0  0  0  0  0  0  0  0
    0.4478    0.2887    1.7544 C   0  0  0  0  0  0  0  0  0  0  0  0
    0.1219   -0.5955    2.5358 O   0  0  0  0  0  0  0  0  0  0  0  0
    1.3462    1.1969    2.2901 N   0  0  0  0  0  0  0  0  0  0  0  0
    1.6552    1.9482    1.6840 H   0  0  0  0  0  0  0  0  0  0  0  0
    2.0101    1.0336    3.5807 C   0  0  0  0  0  0  0  0  0  0  0  0
    2.5945    0.1076    3.5961 H   0  0  0  0  0  0  0  0  0  0  0  0
    2.6872    1.8729    3.7664 H   0  0  0  0  0  0  0  0  0  0  0  0
    1.2739    1.0004    4.3909 H   0  0  0  0  0  0  0  0  0  0  0  0
  1  2  1  0  0  0  0
  2  3  1  0  0  0  0
  2  4  1  0  0  0  0
  2  5  1  0  0  0  0
  5  6  2  0  0  0  0
  5  7  1  0  0  0  0
  7  8  1  0  0  0  0
  7  9  1  0  0  0  0
  9 10  1  0  0  0  0
  9 11  1  0  0  0  0
  9 24  1  0  0  0  0
 11 12  1  0  0  0  0
 11 13  1  0  0  0  0
 11 17  1  0  0  0  0
 13 14  1  0  0  0  0
 13 15  1  0  0  0  0
 13 16  1  0  0  0  0
 17 18  1  0  0  0  0
 17 19  1  0  0  0  0
 17 20  1  0  0  0  0
 20 21  1  0  0  0  0
 20 22  1  0  0  0  0
 20 23  1  0  0  0  0
 24 25  2  0  0  0  0
 24 26  1  0  0  0  0
 26 27  1  0  0  0  0
 26 28  1  0  0  0  0
 28 29  1  0  0  0  0
 28 30  1  0  0  0  0
 28 31  1  0  0  0  0
M  END
$$$$

  -OEChem-01062216083D

 31 30  0     1  0  0  0  0  0999 V2000
   -3.0345   -3.0268    1.5044 H   0  0  0  0  0  0  0  0  0  0  0  0
   -3.0876   -1.9496    1.3224 C   0  0  0  0  0  0  0  0  0  0  0  0
   -3.2411   -1.4414    2.2771 H   0  0  0  0  0  0  0  0  0  0  0  0
   -3.9337   -1.7431    0.6630 H   0  0  0  0  0  0  0  0  0  0  0  0
   -1.7988   -1.4681    0.6836 C   0  0  0  0  0  0  0  0  0  0  0  0
   -0.9886   -2.2779    0.2637 O   0  0  0  0  0  0  0  0  0  0  0  0
   -1.6495   -0.1362    0.3456 N   0  0  0  0  0  0  0  0  0  0  0  0
   -2.4593    0.4194    0.5987 H   0  0  0  0  0  0  0  0  0  0  0  0
   -0.3607    0.5940    0.4231 C   0  0  1  0  0  0  0  0  0  0  0  0
    0.2941    0.1796   -0.3514 H   0  0  0  0  0  0  0  0  0  0  0  0
   -0.6714    2.0772    0.0117 C   0  0  1  0  0  0  0  0  0  0  0  0
   -1.4485    2.4809    0.6698 H   0  0  0  0  0  0  0  0  0  0  0  0
    0.5807    2.9873    0.0914 C   0  0  0  0  0  0  0  0  0  0  0  0
    1.4927    2.4058   -0.0788 H   0  0  0  0  0  0  0  0  0  0  0  0
    0.6387    3.4777    1.0663 H   0  0  0  0  0  0  0  0  0  0  0  0
    0.5678    3.7870   -0.6500 H   0  0  0  0  0  0  0  0  0  0  0  0
   -1.1775    2.1042   -1.4624 C   0  0  0  0  0  0  0  0  0  0  0  0
   -0.3575    1.8345   -2.1365 H   0  0  0  0  0  0  0  0  0  0  0  0
   -1.9654    1.3595   -1.6043 H   0  0  0  0  0  0  0  0  0  0  0  0
   -1.7684    3.4532   -1.8990 C   0  0  0  0  0  0  0  0  0  0  0  0
   -1.0054    4.2294   -1.9897 H   0  0  0  0  0  0  0  0  0  0  0  0
   -2.2461    3.3441   -2.8776 H   0  0  0  0  0  0  0  0  0  0  0  0
   -2.5255    3.7865   -1.1827 H   0  0  0  0  0  0  0  0  0  0  0  0
    0.4301    0.3374    1.7602 C   0  0  0  0  0  0  0  0  0  0  0  0
    0.4751   -0.7608    2.2940 O   0  0  0  0  0  0  0  0  0  0  0  0
    1.0259    1.3518    2.4916 N   0  0  0  0  0  0  0  0  0  0  0  0
    0.9888    2.2865    2.1054 H   0  0  0  0  0  0  0  0  0  0  0  0
    1.7235    1.1500    3.7583 C   0  0  0  0  0  0  0  0  0  0  0  0
    2.5556    0.4493    3.6311 H   0  0  0  0  0  0  0  0  0  0  0  0
    2.1255    2.0996    4.1239 H   0  0  0  0  0  0  0  0  0  0  0  0
    1.0392    0.7511    4.5145 H   0  0  0  0  0  0  0  0  0  0  0  0
  1  2  1  0  0  0  0
  2  3  1  0  0  0  0
  2  4  1  0  0  0  0
  2  5  1  0  0  0  0
  5  6  2  0  0  0  0
  5  7  1  0  0  0  0
  7  8  1  0  0  0  0
  7  9  1  0  0  0  0
  9 10  1  0  0  0  0
  9 11  1  0  0  0  0
  9 24  1  0  0  0  0
 11 12  1  0  0  0  0
 11 13  1  0  0  0  0
 11 17  1  0  0  0  0
 13 14  1  0  0  0  0
 13 15  1  0  0  0  0
 13 16  1  0  0  0  0
 17 18  1  0  0  0  0
 17 19  1  0  0  0  0
 17 20  1  0  0  0  0
 20 21  1  0  0  0  0
 20 22  1  0  0  0  0
 20 23  1  0  0  0  0
 24 25  2  0  0  0  0
 24 26  1  0  0  0  0
 26 27  1  0  0  0  0
 26 28  1  0  0  0  0
 28 29  1  0  0  0  0
 28 30  1  0  0  0  0
 28 31  1  0  0  0  0
M  END
$$$$

  -OEChem-01062216083D

 31 30  0     1  0  0  0  0  0999 V2000
   -3.0750   -3.0146    1.5449 H   0  0  0  0  0  0  0  0  0  0  0  0
   -3.1255   -1.9430    1.3316 C   0  0  0  0  0  0  0  0  0  0  0  0
   -3.3265   -1.4105    2.2641 H   0  0  0  0  0  0  0  0  0  0  0  0
   -3.9422   -1.7607    0.6292 H   0  0  0  0  0  0  0  0  0  0  0  0
   -1.8124   -1.4698    0.7371 C   0  0  0  0  0  0  0  0  0  0  0  0
   -0.9850   -2.2890    0.3799 O   0  0  0  0  0  0  0  0  0  0  0  0
   -1.6627   -0.1419    0.3832 N   0  0  0  0  0  0  0  0  0  0  0  0
   -2.4852    0.4151    0.5876 H   0  0  0  0  0  0  0  0  0  0  0  0
   -0.3822    0.6022    0.4370 C   0  0  1  0  0  0  0  0  0  0  0  0
    0.2714    0.1804   -0.3348 H   0  0  0  0  0  0  0  0  0  0  0  0
   -0.6687    2.0864    0.0278 C   0  0  1  0  0  0  0  0  0  0  0  0
   -1.4231    2.5145    0.6964 H   0  0  0  0  0  0  0  0  0  0  0  0
    0.6140    2.9570    0.0661 C   0  0  0  0  0  0  0  0  0  0  0  0
    1.4525    2.4190   -0.3881 H   0  0  0  0  0  0  0  0  0  0  0  0
    0.4840    3.8956   -0.4747 H   0  0  0  0  0  0  0  0  0  0  0  0
    0.8888    3.2393    1.0820 H   0  0  0  0  0  0  0  0  0  0  0  0
   -1.1861    2.1106   -1.4411 C   0  0  0  0  0  0  0  0  0  0  0  0
   -0.3802    1.8191   -2.1231 H   0  0  0  0  0  0  0  0  0  0  0  0
   -1.9896    1.3792   -1.5658 H   0  0  0  0  0  0  0  0  0  0  0  0
   -1.7568    3.4657   -1.8806 C   0  0  0  0  0  0  0  0  0  0  0  0
   -0.9723    4.2155   -2.0071 H   0  0  0  0  0  0  0  0  0  0  0  0
   -2.2669    3.3550   -2.8424 H   0  0  0  0  0  0  0  0  0  0  0  0
   -2.4815    3.8317   -1.1468 H   0  0  0  0  0  0  0  0  0  0  0  0
    0.3950    0.3487    1.7731 C   0  0  0  0  0  0  0  0  0  0  0  0
    0.8191   -0.7556    2.0734 O   0  0  0  0  0  0  0  0  0  0  0  0
    0.7118    1.3686    2.6541 N   0  0  0  0  0  0  0  0  0  0  0  0
    0.3550    2.2938    2.4413 H   0  0  0  0  0  0  0  0  0  0  0  0
    1.4647    1.1729    3.8890 C   0  0  0  0  0  0  0  0  0  0  0  0
    2.4582    0.7664    3.6721 H   0  0  0  0  0  0  0  0  0  0  0  0
    1.5888    2.1257    4.4119 H   0  0  0  0  0  0  0  0  0  0  0  0
    0.9378    0.4795    4.5529 H   0  0  0  0  0  0  0  0  0  0  0  0
  1  2  1  0  0  0  0
  2  3  1  0  0  0  0
  2  4  1  0  0  0  0
  2  5  1  0  0  0  0
  5  6  2  0  0  0  0
  5  7  1  0  0  0  0
  7  8  1  0  0  0  0
  7  9  1  0  0  0  0
  9 10  1  0  0  0  0
  9 11  1  0  0  0  0
  9 24  1  0  0  0  0
 11 12  1  0  0  0  0
 11 13  1  0  0  0  0
 11 17  1  0  0  0  0
 13 14  1  0  0  0  0
 13 15  1  0  0  0  0
 13 16  1  0  0  0  0
 17 18  1  0  0  0  0
 17 19  1  0  0  0  0
 17 20  1  0  0  0  0
 20 21  1  0  0  0  0
 20 22  1  0  0  0  0
 20 23  1  0  0  0  0
 24 25  2  0  0  0  0
 24 26  1  0  0  0  0
 26 27  1  0  0  0  0
 26 28  1  0  0  0  0
 28 29  1  0  0  0  0
 28 30  1  0  0  0  0
 28 31  1  0  0  0  0
M  END
$$$$

  -OEChem-01062216083D

 31 30  0     1  0  0  0  0  0999 V2000
   -3.3175   -3.0142    1.3991 H   0  0  0  0  0  0  0  0  0  0  0  0
   -3.3137   -1.9750    1.0576 C   0  0  0  0  0  0  0  0  0  0  0  0
   -3.8246   -1.3603    1.8022 H   0  0  0  0  0  0  0  0  0  0  0  0
   -3.8533   -1.9149    0.1095 H   0  0  0  0  0  0  0  0  0  0  0  0
   -1.8869   -1.4920    0.8736 C   0  0  0  0  0  0  0  0  0  0  0  0
   -0.9771   -2.2895    0.9827 O   0  0  0  0  0  0  0  0  0  0  0  0
   -1.6688   -0.1834    0.4831 N   0  0  0  0  0  0  0  0  0  0  0  0
   -2.5097    0.3755    0.3854 H   0  0  0  0  0  0  0  0  0  0  0  0
   -0.3856    0.5561    0.5029 C   0  0  1  0  0  0  0  0  0  0  0  0
    0.2585    0.1189   -0.2683 H   0  0  0  0  0  0  0  0  0  0  0  0
   -0.6555    2.0388    0.0938 C   0  0  1  0  0  0  0  0  0  0  0  0
   -1.3849    2.4789    0.7819 H   0  0  0  0  0  0  0  0  0  0  0  0
    0.6442    2.8822    0.1048 C   0  0  0  0  0  0  0  0  0  0  0  0
    1.3911    2.4374   -0.5609 H   0  0  0  0  0  0  0  0  0  0  0  0
    0.4520    3.9048   -0.2278 H   0  0  0  0  0  0  0  0  0  0  0  0
    1.0841    2.9622    1.0987 H   0  0  0  0  0  0  0  0  0  0  0  0
   -1.2011    2.0788   -1.3613 C   0  0  0  0  0  0  0  0  0  0  0  0
   -0.4165    1.7760   -2.0632 H   0  0  0  0  0  0  0  0  0  0  0  0
   -2.0216    1.3645   -1.4710 H   0  0  0  0  0  0  0  0  0  0  0  0
   -1.7498    3.4503   -1.7716 C   0  0  0  0  0  0  0  0  0  0  0  0
   -0.9482    4.1850   -1.8824 H   0  0  0  0  0  0  0  0  0  0  0  0
   -2.2639    3.3692   -2.7341 H   0  0  0  0  0  0  0  0  0  0  0  0
   -2.4646    3.8159   -1.0282 H   0  0  0  0  0  0  0  0  0  0  0  0
    0.3928    0.3437    1.8377 C   0  0  0  0  0  0  0  0  0  0  0  0
    1.2158   -0.5538    1.9377 O   0  0  0  0  0  0  0  0  0  0  0  0
    0.4425    1.3279    2.8122 N   0  0  0  0  0  0  0  0  0  0  0  0
   -0.1606    2.1342    2.6896 H   0  0  0  0  0  0  0  0  0  0  0  0
    1.3153    1.2690    3.9798 C   0  0  0  0  0  0  0  0  0  0  0  0
    2.3662    1.2803    3.6724 H   0  0  0  0  0  0  0  0  0  0  0  0
    1.1357    2.1298    4.6308 H   0  0  0  0  0  0  0  0  0  0  0  0
    1.1264    0.3559    4.5545 H   0  0  0  0  0  0  0  0  0  0  0  0
  1  2  1  0  0  0  0
  2  3  1  0  0  0  0
  2  4  1  0  0  0  0
  2  5  1  0  0  0  0
  5  6  2  0  0  0  0
  5  7  1  0  0  0  0
  7  8  1  0  0  0  0
  7  9  1  0  0  0  0
  9 10  1  0  0  0  0
  9 11  1  0  0  0  0
  9 24  1  0  0  0  0
 11 12  1  0  0  0  0
 11 13  1  0  0  0  0
 11 17  1  0  0  0  0
 13 14  1  0  0  0  0
 13 15  1  0  0  0  0
 13 16  1  0  0  0  0
 17 18  1  0  0  0  0
 17 19  1  0  0  0  0
 17 20  1  0  0  0  0
 20 21  1  0  0  0  0
 20 22  1  0  0  0  0
 20 23  1  0  0  0  0
 24 25  2  0  0  0  0
 24 26  1  0  0  0  0
 26 27  1  0  0  0  0
 26 28  1  0  0  0  0
 28 29  1  0  0  0  0
 28 30  1  0  0  0  0
 28 31  1  0  0  0  0
M  END
$$$$

  -OEChem-01062216083D

 31 30  0     1  0  0  0  0  0999 V2000
   -3.3601   -3.0457    1.3161 H   0  0  0  0  0  0  0  0  0  0  0  0
   -3.3417   -2.0132    0.9552 C   0  0  0  0  0  0  0  0  0  0  0  0
   -3.9639   -1.4007    1.6119 H   0  0  0  0  0  0  0  0  0  0  0  0
   -3.7532   -1.9876   -0.0567 H   0  0  0  0  0  0  0  0  0  0  0  0
   -1.9185   -1.4870    0.9506 C   0  0  0  0  0  0  0  0  0  0  0  0
   -1.0138   -2.2223    1.2937 O   0  0  0  0  0  0  0  0  0  0  0  0
   -1.6863   -0.1925    0.5236 N   0  0  0  0  0  0  0  0  0  0  0  0
   -2.5072    0.3247    0.2272 H   0  0  0  0  0  0  0  0  0  0  0  0
   -0.3928    0.5258    0.5061 C   0  0  1  0  0  0  0  0  0  0  0  0
    0.2266    0.0733   -0.2765 H   0  0  0  0  0  0  0  0  0  0  0  0
   -0.6441    2.0119    0.1096 C   0  0  1  0  0  0  0  0  0  0  0  0
   -1.3531    2.4559    0.8165 H   0  0  0  0  0  0  0  0  0  0  0  0
    0.6712    2.8256    0.1306 C   0  0  0  0  0  0  0  0  0  0  0  0
    1.3963    2.3954   -0.5676 H   0  0  0  0  0  0  0  0  0  0  0  0
    0.4939    3.8662   -0.1510 H   0  0  0  0  0  0  0  0  0  0  0  0
    1.1263    2.8435    1.1228 H   0  0  0  0  0  0  0  0  0  0  0  0
   -1.2280    2.0821   -1.3271 C   0  0  0  0  0  0  0  0  0  0  0  0
   -0.4671    1.7744   -2.0526 H   0  0  0  0  0  0  0  0  0  0  0  0
   -2.0658    1.3865   -1.4249 H   0  0  0  0  0  0  0  0  0  0  0  0
   -1.7540    3.4729   -1.7001 C   0  0  0  0  0  0  0  0  0  0  0  0
   -0.9384    4.1943   -1.7977 H   0  0  0  0  0  0  0  0  0  0  0  0
   -2.2766    3.4259   -2.6605 H   0  0  0  0  0  0  0  0  0  0  0  0
   -2.4564    3.8341   -0.9425 H   0  0  0  0  0  0  0  0  0  0  0  0
    0.4135    0.3432    1.8227 C   0  0  0  0  0  0  0  0  0  0  0  0
    1.4139   -0.3608    1.8315 O   0  0  0  0  0  0  0  0  0  0  0  0
    0.2448    1.2202    2.8825 N   0  0  0  0  0  0  0  0  0  0  0  0
   -0.5575    1.8396    2.8484 H   0  0  0  0  0  0  0  0  0  0  0  0
    1.0712    1.1963    4.0835 C   0  0  0  0  0  0  0  0  0  0  0  0
    2.1164    1.4075    3.8339 H   0  0  0  0  0  0  0  0  0  0  0  0
    0.7266    1.9523    4.7956 H   0  0  0  0  0  0  0  0  0  0  0  0
    1.0156    0.2147    4.5661 H   0  0  0  0  0  0  0  0  0  0  0  0
  1  2  1  0  0  0  0
  2  3  1  0  0  0  0
  2  4  1  0  0  0  0
  2  5  1  0  0  0  0
  5  6  2  0  0  0  0
  5  7  1  0  0  0  0
  7  8  1  0  0  0  0
  7  9  1  0  0  0  0
  9 10  1  0  0  0  0
  9 11  1  0  0  0  0
  9 24  1  0  0  0  0
 11 12  1  0  0  0  0
 11 13  1  0  0  0  0
 11 17  1  0  0  0  0
 13 14  1  0  0  0  0
 13 15  1  0  0  0  0
 13 16  1  0  0  0  0
 17 18  1  0  0  0  0
 17 19  1  0  0  0  0
 17 20  1  0  0  0  0
 20 21  1  0  0  0  0
 20 22  1  0  0  0  0
 20 23  1  0  0  0  0
 24 25  2  0  0  0  0
 24 26  1  0  0  0  0
 26 27  1  0  0  0  0
 26 28  1  0  0  0  0
 28 29  1  0  0  0  0
 28 30  1  0  0  0  0
 28 31  1  0  0  0  0
M  END
$$$$

  -OEChem-01062216083D

 31 30  0     1  0  0  0  0  0999 V2000
   -3.3559   -3.0629    1.3027 H   0  0  0  0  0  0  0  0  0  0  0  0
   -3.3422   -2.0353    0.9279 C   0  0  0  0  0  0  0  0  0  0  0  0
   -4.0072   -1.4271    1.5457 H   0  0  0  0  0  0  0  0  0  0  0  0
   -3.7068   -2.0328   -0.1021 H   0  0  0  0  0  0  0  0  0  0  0  0
   -1.9312   -1.4794    0.9804 C   0  0  0  0  0  0  0  0  0  0  0  0
   -1.0313   -2.1776    1.4066 O   0  0  0  0  0  0  0  0  0  0  0  0
   -1.6987   -0.1935    0.5294 N   0  0  0  0  0  0  0  0  0  0  0  0
   -2.5043    0.2976    0.1556 H   0  0  0  0  0  0  0  0  0  0  0  0
   -0.3971    0.5084    0.4946 C   0  0  1  0  0  0  0  0  0  0  0  0
    0.2097    0.0489   -0.2939 H   0  0  0  0  0  0  0  0  0  0  0  0
   -0.6370    1.9974    0.1092 C   0  0  1  0  0  0  0  0  0  0  0  0
   -1.3392    2.4363    0.8260 H   0  0  0  0  0  0  0  0  0  0  0  0
    0.6802    2.8033    0.1525 C   0  0  0  0  0  0  0  0  0  0  0  0
    1.4140    2.3746   -0.5377 H   0  0  0  0  0  0  0  0  0  0  0  0
    0.5128    3.8473   -0.1227 H   0  0  0  0  0  0  0  0  0  0  0  0
    1.1144    2.8072    1.1558 H   0  0  0  0  0  0  0  0  0  0  0  0
   -1.2404    2.0893   -1.3169 C   0  0  0  0  0  0  0  0  0  0  0  0
   -0.4915    1.7824   -2.0549 H   0  0  0  0  0  0  0  0  0  0  0  0
   -2.0870    1.4040   -1.4115 H   0  0  0  0  0  0  0  0  0  0  0  0
   -1.7522    3.4906   -1.6665 C   0  0  0  0  0  0  0  0  0  0  0  0
   -0.9285    4.2035   -1.7589 H   0  0  0  0  0  0  0  0  0  0  0  0
   -2.2811    3.4634   -2.6240 H   0  0  0  0  0  0  0  0  0  0  0  0
   -2.4449    3.8488   -0.8988 H   0  0  0  0  0  0  0  0  0  0  0  0
    0.4258    0.3466    1.7993 C   0  0  0  0  0  0  0  0  0  0  0  0
    1.5397   -0.1588    1.7566 O   0  0  0  0  0  0  0  0  0  0  0  0
    0.0655    1.0440    2.9402 N   0  0  0  0  0  0  0  0  0  0  0  0
   -0.8681    1.4397    2.9595 H   0  0  0  0  0  0  0  0  0  0  0  0
    0.8395    0.9990    4.1744 C   0  0  0  0  0  0  0  0  0  0  0  0
    1.8509    1.3846    4.0073 H   0  0  0  0  0  0  0  0  0  0  0  0
    0.3604    1.6108    4.9444 H   0  0  0  0  0  0  0  0  0  0  0  0
    0.9109   -0.0299    4.5427 H   0  0  0  0  0  0  0  0  0  0  0  0
  1  2  1  0  0  0  0
  2  3  1  0  0  0  0
  2  4  1  0  0  0  0
  2  5  1  0  0  0  0
  5  6  2  0  0  0  0
  5  7  1  0  0  0  0
  7  8  1  0  0  0  0
  7  9  1  0  0  0  0
  9 10  1  0  0  0  0
  9 11  1  0  0  0  0
  9 24  1  0  0  0  0
 11 12  1  0  0  0  0
 11 13  1  0  0  0  0
 11 17  1  0  0  0  0
 13 14  1  0  0  0  0
 13 15  1  0  0  0  0
 13 16  1  0  0  0  0
 17 18  1  0  0  0  0
 17 19  1  0  0  0  0
 17 20  1  0  0  0  0
 20 21  1  0  0  0  0
 20 22  1  0  0  0  0
 20 23  1  0  0  0  0
 24 25  2  0  0  0  0
 24 26  1  0  0  0  0
 26 27  1  0  0  0  0
 26 28  1  0  0  0  0
 28 29  1  0  0  0  0
 28 30  1  0  0  0  0
 28 31  1  0  0  0  0
M  END
$$$$

  -OEChem-01062216083D

 31 30  0     1  0  0  0  0  0999 V2000
   -3.3485   -3.0591    1.3151 H   0  0  0  0  0  0  0  0  0  0  0  0
   -3.3356   -2.0359    0.9288 C   0  0  0  0  0  0  0  0  0  0  0  0
   -4.0113   -1.4242    1.5311 H   0  0  0  0  0  0  0  0  0  0  0  0
   -3.6875   -2.0476   -0.1055 H   0  0  0  0  0  0  0  0  0  0  0  0
   -1.9287   -1.4712    0.9917 C   0  0  0  0  0  0  0  0  0  0  0  0
   -1.0299   -2.1545    1.4448 O   0  0  0  0  0  0  0  0  0  0  0  0
   -1.6950   -0.1911    0.5248 N   0  0  0  0  0  0  0  0  0  0  0  0
   -2.4932    0.2899    0.1230 H   0  0  0  0  0  0  0  0  0  0  0  0
   -0.3891    0.5030    0.4829 C   0  0  1  0  0  0  0  0  0  0  0  0
    0.2152    0.0415   -0.3062 H   0  0  0  0  0  0  0  0  0  0  0  0
   -0.6309    1.9935    0.1043 C   0  0  1  0  0  0  0  0  0  0  0  0
   -1.3311    2.4254    0.8273 H   0  0  0  0  0  0  0  0  0  0  0  0
    0.6817    2.8053    0.1562 C   0  0  0  0  0  0  0  0  0  0  0  0
    1.4222    2.3804   -0.5292 H   0  0  0  0  0  0  0  0  0  0  0  0
    0.5124    3.8491   -0.1184 H   0  0  0  0  0  0  0  0  0  0  0  0
    1.1062    2.8086    1.1644 H   0  0  0  0  0  0  0  0  0  0  0  0
   -1.2456    2.0937   -1.3163 C   0  0  0  0  0  0  0  0  0  0  0  0
   -0.5013    1.7914   -2.0608 H   0  0  0  0  0  0  0  0  0  0  0  0
   -2.0934    1.4097   -1.4094 H   0  0  0  0  0  0  0  0  0  0  0  0
   -1.7582    3.4973   -1.6549 C   0  0  0  0  0  0  0  0  0  0  0  0
   -0.9339    4.2092   -1.7495 H   0  0  0  0  0  0  0  0  0  0  0  0
   -2.2937    3.4755   -2.6090 H   0  0  0  0  0  0  0  0  0  0  0  0
   -2.4451    3.8528   -0.8806 H   0  0  0  0  0  0  0  0  0  0  0  0
    0.4364    0.3556    1.7854 C   0  0  0  0  0  0  0  0  0  0  0  0
    1.6208    0.0507    1.7261 O   0  0  0  0  0  0  0  0  0  0  0  0
   -0.0789    0.8128    2.9856 N   0  0  0  0  0  0  0  0  0  0  0  0
   -1.0788    0.9794    3.0112 H   0  0  0  0  0  0  0  0  0  0  0  0
    0.6465    0.7016    4.2445 C   0  0  0  0  0  0  0  0  0  0  0  0
    1.5994    1.2381    4.1875 H   0  0  0  0  0  0  0  0  0  0  0  0
    0.0581    1.1321    5.0602 H   0  0  0  0  0  0  0  0  0  0  0  0
    0.8478   -0.3494    4.4769 H   0  0  0  0  0  0  0  0  0  0  0  0
  1  2  1  0  0  0  0
  2  3  1  0  0  0  0
  2  4  1  0  0  0  0
  2  5  1  0  0  0  0
  5  6  2  0  0  0  0
  5  7  1  0  0  0  0
  7  8  1  0  0  0  0
  7  9  1  0  0  0  0
  9 10  1  0  0  0  0
  9 11  1  0  0  0  0
  9 24  1  0  0  0  0
 11 12  1  0  0  0  0
 11 13  1  0  0  0  0
 11 17  1  0  0  0  0
 13 14  1  0  0  0  0
 13 15  1  0  0  0  0
 13 16  1  0  0  0  0
 17 18  1  0  0  0  0
 17 19  1  0  0  0  0
 17 20  1  0  0  0  0
 20 21  1  0  0  0  0
 20 22  1  0  0  0  0
 20 23  1  0  0  0  0
 24 25  2  0  0  0  0
 24 26  1  0  0  0  0
 26 27  1  0  0  0  0
 26 28  1  0  0  0  0
 28 29  1  0  0  0  0
 28 30  1  0  0  0  0
 28 31  1  0  0  0  0
M  END
$$$$

  -OEChem-01062216083D

 31 30  0     1  0  0  0  0  0999 V2000
   -3.3597   -3.0435    1.3090 H   0  0  0  0  0  0  0  0  0  0  0  0
   -3.3436   -2.0212    0.9201 C   0  0  0  0  0  0  0  0  0  0  0  0
   -4.0234   -1.4076    1.5162 H   0  0  0  0  0  0  0  0  0  0  0  0
   -3.6891   -2.0352   -0.1165 H   0  0  0  0  0  0  0  0  0  0  0  0
   -1.9363   -1.4582    0.9915 C   0  0  0  0  0  0  0  0  0  0  0  0
   -1.0421   -2.1387    1.4585 O   0  0  0  0  0  0  0  0  0  0  0  0
   -1.6940   -0.1806    0.5223 N   0  0  0  0  0  0  0  0  0  0  0  0
   -2.4862    0.3026    0.1105 H   0  0  0  0  0  0  0  0  0  0  0  0
   -0.3842    0.5091    0.4891 C   0  0  1  0  0  0  0  0  0  0  0  0
    0.2242    0.0462   -0.2955 H   0  0  0  0  0  0  0  0  0  0  0  0
   -0.6344    1.9977    0.1035 C   0  0  1  0  0  0  0  0  0  0  0  0
   -1.3449    2.4239    0.8202 H   0  0  0  0  0  0  0  0  0  0  0  0
    0.6645    2.8291    0.1664 C   0  0  0  0  0  0  0  0  0  0  0  0
    1.4256    2.4017   -0.4943 H   0  0  0  0  0  0  0  0  0  0  0  0
    0.4875    3.8651   -0.1314 H   0  0  0  0  0  0  0  0  0  0  0  0
    1.0645    2.8579    1.1841 H   0  0  0  0  0  0  0  0  0  0  0  0
   -1.2415    2.0880   -1.3219 C   0  0  0  0  0  0  0  0  0  0  0  0
   -0.4903    1.7863   -2.0598 H   0  0  0  0  0  0  0  0  0  0  0  0
   -2.0841    1.3983   -1.4179 H   0  0  0  0  0  0  0  0  0  0  0  0
   -1.7632    3.4858   -1.6726 C   0  0  0  0  0  0  0  0  0  0  0  0
   -0.9445    4.2039   -1.7701 H   0  0  0  0  0  0  0  0  0  0  0  0
   -2.2960    3.4532   -2.6280 H   0  0  0  0  0  0  0  0  0  0  0  0
   -2.4555    3.8412   -0.9031 H   0  0  0  0  0  0  0  0  0  0  0  0
    0.4420    0.3727    1.7938 C   0  0  0  0  0  0  0  0  0  0  0  0
    1.6603    0.2582    1.7358 O   0  0  0  0  0  0  0  0  0  0  0  0
   -0.1628    0.5452    3.0260 N   0  0  0  0  0  0  0  0  0  0  0  0
   -1.1749    0.4829    3.0313 H   0  0  0  0  0  0  0  0  0  0  0  0
    0.5520    0.3411    4.2793 C   0  0  0  0  0  0  0  0  0  0  0  0
    1.4151    1.0123    4.3428 H   0  0  0  0  0  0  0  0  0  0  0  0
   -0.1066    0.5470    5.1282 H   0  0  0  0  0  0  0  0  0  0  0  0
    0.9038   -0.6934    4.3531 H   0  0  0  0  0  0  0  0  0  0  0  0
  1  2  1  0  0  0  0
  2  3  1  0  0  0  0
  2  4  1  0  0  0  0
  2  5  1  0  0  0  0
  5  6  2  0  0  0  0
  5  7  1  0  0  0  0
  7  8  1  0  0  0  0
  7  9  1  0  0  0  0
  9 10  1  0  0  0  0
  9 11  1  0  0  0  0
  9 24  1  0  0  0  0
 11 12  1  0  0  0  0
 11 13  1  0  0  0  0
 11 17  1  0  0  0  0
 13 14  1  0  0  0  0
 13 15  1  0  0  0  0
 13 16  1  0  0  0  0
 17 18  1  0  0  0  0
 17 19  1  0  0  0  0
 17 20  1  0  0  0  0
 20 21  1  0  0  0  0
 20 22  1  0  0  0  0
 20 23  1  0  0  0  0
 24 25  2  0  0  0  0
 24 26  1  0  0  0  0
 26 27  1  0  0  0  0
 26 28  1  0  0  0  0
 28 29  1  0  0  0  0
 28 30  1  0  0  0  0
 28 31  1  0  0  0  0
M  END
$$$$

  -OEChem-01062216083D

 31 30  0     1  0  0  0  0  0999 V2000
   -3.4125   -3.0127    1.2754 H   0  0  0  0  0  0  0  0  0  0  0  0
   -3.3769   -1.9892    0.8910 C   0  0  0  0  0  0  0  0  0  0  0  0
   -4.0497   -1.3668    1.4857 H   0  0  0  0  0  0  0  0  0  0  0  0
   -3.7168   -1.9933   -0.1476 H   0  0  0  0  0  0  0  0  0  0  0  0
   -1.9610   -1.4502    0.9725 C   0  0  0  0  0  0  0  0  0  0  0  0
   -1.0808   -2.1454    1.4446 O   0  0  0  0  0  0  0  0  0  0  0  0
   -1.6935   -0.1742    0.5141 N   0  0  0  0  0  0  0  0  0  0  0  0
   -2.4796    0.3297    0.1151 H   0  0  0  0  0  0  0  0  0  0  0  0
   -0.3788    0.5108    0.5070 C   0  0  1  0  0  0  0  0  0  0  0  0
    0.2408    0.0498   -0.2700 H   0  0  0  0  0  0  0  0  0  0  0  0
   -0.6445    1.9966    0.1090 C   0  0  1  0  0  0  0  0  0  0  0  0
   -1.3758    2.4122    0.8109 H   0  0  0  0  0  0  0  0  0  0  0  0
    0.6319    2.8606    0.1910 C   0  0  0  0  0  0  0  0  0  0  0  0
    1.4221    2.4384   -0.4381 H   0  0  0  0  0  0  0  0  0  0  0  0
    0.4411    3.8861   -0.1323 H   0  0  0  0  0  0  0  0  0  0  0  0
    0.9989    2.9206    1.2196 H   0  0  0  0  0  0  0  0  0  0  0  0
   -1.2290    2.0715   -1.3283 C   0  0  0  0  0  0  0  0  0  0  0  0
   -0.4599    1.7780   -2.0507 H   0  0  0  0  0  0  0  0  0  0  0  0
   -2.0590    1.3689   -1.4380 H   0  0  0  0  0  0  0  0  0  0  0  0
   -1.7658    3.4590   -1.6967 C   0  0  0  0  0  0  0  0  0  0  0  0
   -0.9564    4.1875   -1.7921 H   0  0  0  0  0  0  0  0  0  0  0  0
   -2.2874    3.4112   -2.6574 H   0  0  0  0  0  0  0  0  0  0  0  0
   -2.4711    3.8113   -0.9380 H   0  0  0  0  0  0  0  0  0  0  0  0
    0.4442    0.3835    1.8190 C   0  0  0  0  0  0  0  0  0  0  0  0
    1.6670    0.4530    1.7797 O   0  0  0  0  0  0  0  0  0  0  0  0
   -0.1796    0.2535    3.0470 N   0  0  0  0  0  0  0  0  0  0  0  0
   -1.1469   -0.0483    3.0029 H   0  0  0  0  0  0  0  0  0  0  0  0
    0.5651   -0.0257    4.2680 C   0  0  0  0  0  0  0  0  0  0  0  0
    1.3037    0.7604    4.4561 H   0  0  0  0  0  0  0  0  0  0  0  0
   -0.1151   -0.0698    5.1237 H   0  0  0  0  0  0  0  0  0  0  0  0
    1.0852   -0.9860    4.1863 H   0  0  0  0  0  0  0  0  0  0  0  0
  1  2  1  0  0  0  0
  2  3  1  0  0  0  0
  2  4  1  0  0  0  0
  2  5  1  0  0  0  0
  5  6  2  0  0  0  0
  5  7  1  0  0  0  0
  7  8  1  0  0  0  0
  7  9  1  0  0  0  0
  9 10  1  0  0  0  0
  9 11  1  0  0  0  0
  9 24  1  0  0  0  0
 11 12  1  0  0  0  0
 11 13  1  0  0  0  0
 11 17  1  0  0  0  0
 13 14  1  0  0  0  0
 13 15  1  0  0  0  0
 13 16  1  0  0  0  0
 17 18  1  0  0  0  0
 17 19  1  0  0  0  0
 17 20  1  0  0  0  0
 20 21  1  0  0  0  0
 20 22  1  0  0  0  0
 20 23  1  0  0  0  0
 24 25  2  0  0  0  0
 24 26  1  0  0  0  0
 26 27  1  0  0  0  0
 26 28  1  0  0  0  0
 28 29  1  0  0  0  0
 28 30  1  0  0  0  0
 28 31  1  0  0  0  0
M  END
$$$$

  -OEChem-01062216083D

 31 30  0     1  0  0  0  0  0999 V2000
   -3.5183   -2.9685    1.1866 H   0  0  0  0  0  0  0  0  0  0  0  0
   -3.4427   -1.9390    0.8242 C   0  0  0  0  0  0  0  0  0  0  0  0
   -4.1058   -1.3070    1.4200 H   0  0  0  0  0  0  0  0  0  0  0  0
   -3.7637   -1.9106   -0.2200 H   0  0  0  0  0  0  0  0  0  0  0  0
   -2.0121   -1.4473    0.9404 C   0  0  0  0  0  0  0  0  0  0  0  0
   -1.1644   -2.1771    1.4197 O   0  0  0  0  0  0  0  0  0  0  0  0
   -1.6975   -0.1733    0.5096 N   0  0  0  0  0  0  0  0  0  0  0  0
   -2.4710    0.3617    0.1269 H   0  0  0  0  0  0  0  0  0  0  0  0
   -0.3741    0.4986    0.5331 C   0  0  1  0  0  0  0  0  0  0  0  0
    0.2518    0.0419   -0.2408 H   0  0  0  0  0  0  0  0  0  0  0  0
   -0.6551    1.9843    0.1256 C   0  0  1  0  0  0  0  0  0  0  0  0
   -1.4079    2.3869    0.8120 H   0  0  0  0  0  0  0  0  0  0  0  0
    0.5942    2.8852    0.2279 C   0  0  0  0  0  0  0  0  0  0  0  0
    1.4190    2.4665   -0.3576 H   0  0  0  0  0  0  0  0  0  0  0  0
    0.3918    3.8960   -0.1319 H   0  0  0  0  0  0  0  0  0  0  0  0
    0.9165    2.9860    1.2680 H   0  0  0  0  0  0  0  0  0  0  0  0
   -1.2169    2.0469   -1.3237 C   0  0  0  0  0  0  0  0  0  0  0  0
   -0.4304    1.7626   -2.0308 H   0  0  0  0  0  0  0  0  0  0  0  0
   -2.0346    1.3325   -1.4483 H   0  0  0  0  0  0  0  0  0  0  0  0
   -1.7694    3.4235   -1.7111 C   0  0  0  0  0  0  0  0  0  0  0  0
   -0.9691    4.1612   -1.8124 H   0  0  0  0  0  0  0  0  0  0  0  0
   -2.2854    3.3570   -2.6739 H   0  0  0  0  0  0  0  0  0  0  0  0
   -2.4832    3.7763   -0.9605 H   0  0  0  0  0  0  0  0  0  0  0  0
    0.4527    0.3655    1.8486 C   0  0  0  0  0  0  0  0  0  0  0  0
    1.6508    0.6233    1.8424 O   0  0  0  0  0  0  0  0  0  0  0  0
   -0.1139   -0.0645    3.0351 N   0  0  0  0  0  0  0  0  0  0  0  0
   -0.9550   -0.6204    2.9041 H   0  0  0  0  0  0  0  0  0  0  0  0
    0.6890   -0.3488    4.2180 C   0  0  0  0  0  0  0  0  0  0  0  0
    1.2468    0.5411    4.5278 H   0  0  0  0  0  0  0  0  0  0  0  0
    0.0437   -0.6550    5.0465 H   0  0  0  0  0  0  0  0  0  0  0  0
    1.3990   -1.1568    4.0126 H   0  0  0  0  0  0  0  0  0  0  0  0
  1  2  1  0  0  0  0
  2  3  1  0  0  0  0
  2  4  1  0  0  0  0
  2  5  1  0  0  0  0
  5  6  2  0  0  0  0
  5  7  1  0  0  0  0
  7  8  1  0  0  0  0
  7  9  1  0  0  0  0
  9 10  1  0  0  0  0
  9 11  1  0  0  0  0
  9 24  1  0  0  0  0
 11 12  1  0  0  0  0
 11 13  1  0  0  0  0
 11 17  1  0  0  0  0
 13 14  1  0  0  0  0
 13 15  1  0  0  0  0
 13 16  1  0  0  0  0
 17 18  1  0  0  0  0
 17 19  1  0  0  0  0
 17 20  1  0  0  0  0
 20 21  1  0  0  0  0
 20 22  1  0  0  0  0
 20 23  1  0  0  0  0
 24 25  2  0  0  0  0
 24 26  1  0  0  0  0
 26 27  1  0  0  0  0
 26 28  1  0  0  0  0
 28 29  1  0  0  0  0
 28 30  1  0  0  0  0
 28 31  1  0  0  0  0
M  END
$$$$

  -OEChem-01062216083D

 31 30  0     1  0  0  0  0  0999 V2000
   -3.5874   -2.9182    1.1678 H   0  0  0  0  0  0  0  0  0  0  0  0
   -3.4852   -1.8864    0.8192 C   0  0  0  0  0  0  0  0  0  0  0  0
   -4.0983   -1.2400    1.4518 H   0  0  0  0  0  0  0  0  0  0  0  0
   -3.8464   -1.8266   -0.2104 H   0  0  0  0  0  0  0  0  0  0  0  0
   -2.0328   -1.4532    0.8855 C   0  0  0  0  0  0  0  0  0  0  0  0
   -1.1880   -2.2434    1.2661 O   0  0  0  0  0  0  0  0  0  0  0  0
   -1.6908   -0.1740    0.4939 N   0  0  0  0  0  0  0  0  0  0  0  0
   -2.4696    0.4063    0.1974 H   0  0  0  0  0  0  0  0  0  0  0  0
   -0.3654    0.4949    0.5506 C   0  0  1  0  0  0  0  0  0  0  0  0
    0.2702    0.0469   -0.2203 H   0  0  0  0  0  0  0  0  0  0  0  0
   -0.6633    1.9802    0.1354 C   0  0  1  0  0  0  0  0  0  0  0  0
   -1.4374    2.3696    0.8059 H   0  0  0  0  0  0  0  0  0  0  0  0
    0.5589    2.9155    0.2541 C   0  0  0  0  0  0  0  0  0  0  0  0
    1.4144    2.5014   -0.2890 H   0  0  0  0  0  0  0  0  0  0  0  0
    0.3473    3.9107   -0.1414 H   0  0  0  0  0  0  0  0  0  0  0  0
    0.8381    3.0564    1.3018 H   0  0  0  0  0  0  0  0  0  0  0  0
   -1.1985    2.0299   -1.3267 C   0  0  0  0  0  0  0  0  0  0  0  0
   -0.3930    1.7563   -2.0168 H   0  0  0  0  0  0  0  0  0  0  0  0
   -2.0014    1.3020   -1.4669 H   0  0  0  0  0  0  0  0  0  0  0  0
   -1.7681    3.3941   -1.7342 C   0  0  0  0  0  0  0  0  0  0  0  0
   -0.9793    4.1436   -1.8388 H   0  0  0  0  0  0  0  0  0  0  0  0
   -2.2752    3.3081   -2.7001 H   0  0  0  0  0  0  0  0  0  0  0  0
   -2.4935    3.7436   -0.9931 H   0  0  0  0  0  0  0  0  0  0  0  0
    0.4578    0.3400    1.8727 C   0  0  0  0  0  0  0  0  0  0  0  0
    1.5976    0.7834    1.9421 O   0  0  0  0  0  0  0  0  0  0  0  0
    0.0025   -0.3789    2.9635 N   0  0  0  0  0  0  0  0  0  0  0  0
   -0.7140   -1.0644    2.7285 H   0  0  0  0  0  0  0  0  0  0  0  0
    0.8470   -0.6779    4.1145 C   0  0  0  0  0  0  0  0  0  0  0  0
    1.2057    0.2466    4.5789 H   0  0  0  0  0  0  0  0  0  0  0  0
    0.2791   -1.2398    4.8621 H   0  0  0  0  0  0  0  0  0  0  0  0
    1.7109   -1.2782    3.8102 H   0  0  0  0  0  0  0  0  0  0  0  0
  1  2  1  0  0  0  0
  2  3  1  0  0  0  0
  2  4  1  0  0  0  0
  2  5  1  0  0  0  0
  5  6  2  0  0  0  0
  5  7  1  0  0  0  0
  7  8  1  0  0  0  0
  7  9  1  0  0  0  0
  9 10  1  0  0  0  0
  9 11  1  0  0  0  0
  9 24  1  0  0  0  0
 11 12  1  0  0  0  0
 11 13  1  0  0  0  0
 11 17  1  0  0  0  0
 13 14  1  0  0  0  0
 13 15  1  0  0  0  0
 13 16  1  0  0  0  0
 17 18  1  0  0  0  0
 17 19  1  0  0  0  0
 17 20  1  0  0  0  0
 20 21  1  0  0  0  0
 20 22  1  0  0  0  0
 20 23  1  0  0  0  0
 24 25  2  0  0  0  0
 24 26  1  0  0  0  0
 26 27  1  0  0  0  0
 26 28  1  0  0  0  0
 28 29  1  0  0  0  0
 28 30  1  0  0  0  0
 28 31  1  0  0  0  0
M  END
$$$$

  -OEChem-01062216083D

 31 30  0     1  0  0  0  0  0999 V2000
   -3.5900   -2.8859    1.2275 H   0  0  0  0  0  0  0  0  0  0  0  0
   -3.4874   -1.8554    0.8753 C   0  0  0  0  0  0  0  0  0  0  0  0
   -4.0270   -1.1963    1.5598 H   0  0  0  0  0  0  0  0  0  0  0  0
   -3.9311   -1.7784   -0.1203 H   0  0  0  0  0  0  0  0  0  0  0  0
   -2.0228   -1.4638    0.8221 C   0  0  0  0  0  0  0  0  0  0  0  0
   -1.1687   -2.3072    1.0324 O   0  0  0  0  0  0  0  0  0  0  0  0
   -1.6803   -0.1725    0.4733 N   0  0  0  0  0  0  0  0  0  0  0  0
   -2.4724    0.4415    0.3082 H   0  0  0  0  0  0  0  0  0  0  0  0
   -0.3575    0.5010    0.5547 C   0  0  1  0  0  0  0  0  0  0  0  0
    0.2853    0.0660   -0.2176 H   0  0  0  0  0  0  0  0  0  0  0  0
   -0.6659    1.9875    0.1375 C   0  0  1  0  0  0  0  0  0  0  0  0
   -1.4521    2.3702    0.7971 H   0  0  0  0  0  0  0  0  0  0  0  0
    0.5423    2.9420    0.2586 C   0  0  0  0  0  0  0  0  0  0  0  0
    1.4246    2.5081   -0.2226 H   0  0  0  0  0  0  0  0  0  0  0  0
    0.3443    3.9128   -0.1980 H   0  0  0  0  0  0  0  0  0  0  0  0
    0.7708    3.1441    1.3083 H   0  0  0  0  0  0  0  0  0  0  0  0
   -1.1808    2.0280   -1.3340 C   0  0  0  0  0  0  0  0  0  0  0  0
   -0.3628    1.7612   -2.0117 H   0  0  0  0  0  0  0  0  0  0  0  0
   -1.9736    1.2910   -1.4836 H   0  0  0  0  0  0  0  0  0  0  0  0
   -1.7621    3.3831   -1.7575 C   0  0  0  0  0  0  0  0  0  0  0  0
   -0.9795    4.1364   -1.8786 H   0  0  0  0  0  0  0  0  0  0  0  0
   -2.2740    3.2801   -2.7193 H   0  0  0  0  0  0  0  0  0  0  0  0
   -2.4859    3.7394   -1.0179 H   0  0  0  0  0  0  0  0  0  0  0  0
    0.4582    0.3043    1.8828 C   0  0  0  0  0  0  0  0  0  0  0  0
    1.4743    0.9505    2.1005 O   0  0  0  0  0  0  0  0  0  0  0  0
    0.1614   -0.6706    2.8191 N   0  0  0  0  0  0  0  0  0  0  0  0
   -0.4350   -1.4217    2.4715 H   0  0  0  0  0  0  0  0  0  0  0  0
    1.0175   -0.9731    3.9612 C   0  0  0  0  0  0  0  0  0  0  0  0
    1.1499   -0.0853    4.5884 H   0  0  0  0  0  0  0  0  0  0  0  0
    0.5656   -1.7601    4.5722 H   0  0  0  0  0  0  0  0  0  0  0  0
    2.0007   -1.3167    3.6235 H   0  0  0  0  0  0  0  0  0  0  0  0
  1  2  1  0  0  0  0
  2  3  1  0  0  0  0
  2  4  1  0  0  0  0
  2  5  1  0  0  0  0
  5  6  2  0  0  0  0
  5  7  1  0  0  0  0
  7  8  1  0  0  0  0
  7  9  1  0  0  0  0
  9 10  1  0  0  0  0
  9 11  1  0  0  0  0
  9 24  1  0  0  0  0
 11 12  1  0  0  0  0
 11 13  1  0  0  0  0
 11 17  1  0  0  0  0
 13 14  1  0  0  0  0
 13 15  1  0  0  0  0
 13 16  1  0  0  0  0
 17 18  1  0  0  0  0
 17 19  1  0  0  0  0
 17 20  1  0  0  0  0
 20 21  1  0  0  0  0
 20 22  1  0  0  0  0
 20 23  1  0  0  0  0
 24 25  2  0  0  0  0
 24 26  1  0  0  0  0
 26 27  1  0  0  0  0
 26 28  1  0  0  0  0
 28 29  1  0  0  0  0
 28 30  1  0  0  0  0
 28 31  1  0  0  0  0
M  END
$$$$

  -OEChem-01062216083D

 31 30  0     1  0  0  0  0  0999 V2000
   -3.5853   -2.8738    1.2745 H   0  0  0  0  0  0  0  0  0  0  0  0
   -3.4894   -1.8152    1.0166 C   0  0  0  0  0  0  0  0  0  0  0  0
   -3.9170   -1.2175    1.8252 H   0  0  0  0  0  0  0  0  0  0  0  0
   -4.0477   -1.6251    0.0965 H   0  0  0  0  0  0  0  0  0  0  0  0
   -2.0291   -1.4542    0.8209 C   0  0  0  0  0  0  0  0  0  0  0  0
   -1.1836   -2.3327    0.8505 O   0  0  0  0  0  0  0  0  0  0  0  0
   -1.6925   -0.1557    0.4937 N   0  0  0  0  0  0  0  0  0  0  0  0
   -2.4856    0.4782    0.4602 H   0  0  0  0  0  0  0  0  0  0  0  0
   -0.3631    0.5083    0.5416 C   0  0  1  0  0  0  0  0  0  0  0  0
    0.2505    0.0683   -0.2513 H   0  0  0  0  0  0  0  0  0  0  0  0
   -0.6505    1.9997    0.1260 C   0  0  1  0  0  0  0  0  0  0  0  0
   -1.4053    2.4134    0.8033 H   0  0  0  0  0  0  0  0  0  0  0  0
    0.5975    2.9127    0.1840 C   0  0  0  0  0  0  0  0  0  0  0  0
    1.4681    2.4000   -0.2371 H   0  0  0  0  0  0  0  0  0  0  0  0
    0.4551    3.8449   -0.3636 H   0  0  0  0  0  0  0  0  0  0  0  0
    0.8180    3.2038    1.2141 H   0  0  0  0  0  0  0  0  0  0  0  0
   -1.1957    2.0351   -1.3352 C   0  0  0  0  0  0  0  0  0  0  0  0
   -0.3996    1.7446   -2.0288 H   0  0  0  0  0  0  0  0  0  0  0  0
   -2.0056    1.3117   -1.4576 H   0  0  0  0  0  0  0  0  0  0  0  0
   -1.7628    3.3960   -1.7613 C   0  0  0  0  0  0  0  0  0  0  0  0
   -0.9714    4.1319   -1.9240 H   0  0  0  0  0  0  0  0  0  0  0  0
   -2.3115    3.2878   -2.7020 H   0  0  0  0  0  0  0  0  0  0  0  0
   -2.4519    3.7786   -1.0020 H   0  0  0  0  0  0  0  0  0  0  0  0
    0.4834    0.2568    1.8444 C   0  0  0  0  0  0  0  0  0  0  0  0
    1.2630    1.0895    2.2840 O   0  0  0  0  0  0  0  0  0  0  0  0
    0.3962   -0.9053    2.5893 N   0  0  0  0  0  0  0  0  0  0  0  0
   -0.0942   -1.6811    2.1413 H   0  0  0  0  0  0  0  0  0  0  0  0
    1.2276   -1.1990    3.7512 C   0  0  0  0  0  0  0  0  0  0  0  0
    1.0697   -0.4509    4.5351 H   0  0  0  0  0  0  0  0  0  0  0  0
    0.9716   -2.1821    4.1577 H   0  0  0  0  0  0  0  0  0  0  0  0
    2.2869   -1.2026    3.4742 H   0  0  0  0  0  0  0  0  0  0  0  0
  1  2  1  0  0  0  0
  2  3  1  0  0  0  0
  2  4  1  0  0  0  0
  2  5  1  0  0  0  0
  5  6  2  0  0  0  0
  5  7  1  0  0  0  0
  7  8  1  0  0  0  0
  7  9  1  0  0  0  0
  9 10  1  0  0  0  0
  9 11  1  0  0  0  0
  9 24  1  0  0  0  0
 11 12  1  0  0  0  0
 11 13  1  0  0  0  0
 11 17  1  0  0  0  0
 13 14  1  0  0  0  0
 13 15  1  0  0  0  0
 13 16  1  0  0  0  0
 17 18  1  0  0  0  0
 17 19  1  0  0  0  0
 17 20  1  0  0  0  0
 20 21  1  0  0  0  0
 20 22  1  0  0  0  0
 20 23  1  0  0  0  0
 24 25  2  0  0  0  0
 24 26  1  0  0  0  0
 26 27  1  0  0  0  0
 26 28  1  0  0  0  0
 28 29  1  0  0  0  0
 28 30  1  0  0  0  0
 28 31  1  0  0  0  0
M  END
$$$$

  -OEChem-01062216083D

 31 30  0     1  0  0  0  0  0999 V2000
   -3.4079   -2.9836    1.2831 H   0  0  0  0  0  0  0  0  0  0  0  0
   -3.3655   -1.9126    1.0648 C   0  0  0  0  0  0  0  0  0  0  0  0
   -3.7439   -1.3634    1.9305 H   0  0  0  0  0  0  0  0  0  0  0  0
   -4.0023   -1.7042    0.2014 H   0  0  0  0  0  0  0  0  0  0  0  0
   -1.9378   -1.4944    0.7688 C   0  0  0  0  0  0  0  0  0  0  0  0
   -1.0674   -2.3455    0.6826 O   0  0  0  0  0  0  0  0  0  0  0  0
   -1.6675   -0.1754    0.4616 N   0  0  0  0  0  0  0  0  0  0  0  0
   -2.4792    0.4323    0.5245 H   0  0  0  0  0  0  0  0  0  0  0  0
   -0.3612    0.5298    0.5081 C   0  0  1  0  0  0  0  0  0  0  0  0
    0.2569    0.1142   -0.2942 H   0  0  0  0  0  0  0  0  0  0  0  0
   -0.6488    2.0239    0.1207 C   0  0  1  0  0  0  0  0  0  0  0  0
   -1.3919    2.4378    0.8108 H   0  0  0  0  0  0  0  0  0  0  0  0
    0.6223    2.9082    0.1688 C   0  0  0  0  0  0  0  0  0  0  0  0
    1.4705    2.3844   -0.2828 H   0  0  0  0  0  0  0  0  0  0  0  0
    0.4859    3.8523   -0.3600 H   0  0  0  0  0  0  0  0  0  0  0  0
    0.8796    3.1786    1.1950 H   0  0  0  0  0  0  0  0  0  0  0  0
   -1.1953    2.0783   -1.3373 C   0  0  0  0  0  0  0  0  0  0  0  0
   -0.4018    1.7968   -2.0378 H   0  0  0  0  0  0  0  0  0  0  0  0
   -2.0053    1.3551   -1.4624 H   0  0  0  0  0  0  0  0  0  0  0  0
   -1.7647    3.4447   -1.7420 C   0  0  0  0  0  0  0  0  0  0  0  0
   -0.9759    4.1878   -1.8813 H   0  0  0  0  0  0  0  0  0  0  0  0
   -2.3032    3.3525   -2.6901 H   0  0  0  0  0  0  0  0  0  0  0  0
   -2.4632    3.8089   -0.9823 H   0  0  0  0  0  0  0  0  0  0  0  0
    0.4877    0.2622    1.8018 C   0  0  0  0  0  0  0  0  0  0  0  0
    0.8995    1.1752    2.5035 O   0  0  0  0  0  0  0  0  0  0  0  0
    0.6616   -1.0033    2.3295 N   0  0  0  0  0  0  0  0  0  0  0  0
    0.2789   -1.7796    1.7851 H   0  0  0  0  0  0  0  0  0  0  0  0
    1.3564   -1.2954    3.5777 C   0  0  0  0  0  0  0  0  0  0  0  0
    0.8418   -0.8258    4.4224 H   0  0  0  0  0  0  0  0  0  0  0  0
    1.3857   -2.3760    3.7478 H   0  0  0  0  0  0  0  0  0  0  0  0
    2.3855   -0.9235    3.5399 H   0  0  0  0  0  0  0  0  0  0  0  0
  1  2  1  0  0  0  0
  2  3  1  0  0  0  0
  2  4  1  0  0  0  0
  2  5  1  0  0  0  0
  5  6  2  0  0  0  0
  5  7  1  0  0  0  0
  7  8  1  0  0  0  0
  7  9  1  0  0  0  0
  9 10  1  0  0  0  0
  9 11  1  0  0  0  0
  9 24  1  0  0  0  0
 11 12  1  0  0  0  0
 11 13  1  0  0  0  0
 11 17  1  0  0  0  0
 13 14  1  0  0  0  0
 13 15  1  0  0  0  0
 13 16  1  0  0  0  0
 17 18  1  0  0  0  0
 17 19  1  0  0  0  0
 17 20  1  0  0  0  0
 20 21  1  0  0  0  0
 20 22  1  0  0  0  0
 20 23  1  0  0  0  0
 24 25  2  0  0  0  0
 24 26  1  0  0  0  0
 26 27  1  0  0  0  0
 26 28  1  0  0  0  0
 28 29  1  0  0  0  0
 28 30  1  0  0  0  0
 28 31  1  0  0  0  0
M  END
$$$$

  -OEChem-01062216083D

 31 30  0     1  0  0  0  0  0999 V2000
   -3.2425   -3.0220    1.4354 H   0  0  0  0  0  0  0  0  0  0  0  0
   -3.2489   -1.9623    1.1644 C   0  0  0  0  0  0  0  0  0  0  0  0
   -3.6007   -1.3837    2.0221 H   0  0  0  0  0  0  0  0  0  0  0  0
   -3.9365   -1.8168    0.3276 H   0  0  0  0  0  0  0  0  0  0  0  0
   -1.8536   -1.5135    0.7737 C   0  0  0  0  0  0  0  0  0  0  0  0
   -0.9644   -2.3412    0.6520 O   0  0  0  0  0  0  0  0  0  0  0  0
   -1.6346   -0.1940    0.4303 N   0  0  0  0  0  0  0  0  0  0  0  0
   -2.4522    0.3985    0.5426 H   0  0  0  0  0  0  0  0  0  0  0  0
   -0.3403    0.5294    0.4415 C   0  0  1  0  0  0  0  0  0  0  0  0
    0.2709    0.1214   -0.3699 H   0  0  0  0  0  0  0  0  0  0  0  0
   -0.6242    2.0262    0.0868 C   0  0  1  0  0  0  0  0  0  0  0  0
   -1.3340    2.4387    0.8121 H   0  0  0  0  0  0  0  0  0  0  0  0
    0.6686    2.8801    0.0990 C   0  0  0  0  0  0  0  0  0  0  0  0
    1.4221    2.4425   -0.5635 H   0  0  0  0  0  0  0  0  0  0  0  0
    0.4709    3.9023   -0.2302 H   0  0  0  0  0  0  0  0  0  0  0  0
    1.0976    2.9645    1.0984 H   0  0  0  0  0  0  0  0  0  0  0  0
   -1.2122    2.1165   -1.3503 C   0  0  0  0  0  0  0  0  0  0  0  0
   -0.4476    1.8398   -2.0840 H   0  0  0  0  0  0  0  0  0  0  0  0
   -2.0356    1.4060   -1.4609 H   0  0  0  0  0  0  0  0  0  0  0  0
   -1.7734    3.5007   -1.6983 C   0  0  0  0  0  0  0  0  0  0  0  0
   -0.9759    4.2386   -1.8173 H   0  0  0  0  0  0  0  0  0  0  0  0
   -2.3238    3.4495   -2.6428 H   0  0  0  0  0  0  0  0  0  0  0  0
   -2.4590    3.8439   -0.9172 H   0  0  0  0  0  0  0  0  0  0  0  0
    0.5049    0.2789    1.7343 C   0  0  0  0  0  0  0  0  0  0  0  0
    0.6099    1.1465    2.5922 O   0  0  0  0  0  0  0  0  0  0  0  0
    0.9323   -0.9851    2.0949 N   0  0  0  0  0  0  0  0  0  0  0  0
    0.5955   -1.7499    1.5043 H   0  0  0  0  0  0  0  0  0  0  0  0
    1.4929   -1.3155    3.3996 C   0  0  0  0  0  0  0  0  0  0  0  0
    0.7454   -1.1685    4.1861 H   0  0  0  0  0  0  0  0  0  0  0  0
    1.8154   -2.3610    3.4166 H   0  0  0  0  0  0  0  0  0  0  0  0
    2.3618   -0.6848    3.6154 H   0  0  0  0  0  0  0  0  0  0  0  0
  1  2  1  0  0  0  0
  2  3  1  0  0  0  0
  2  4  1  0  0  0  0
  2  5  1  0  0  0  0
  5  6  2  0  0  0  0
  5  7  1  0  0  0  0
  7  8  1  0  0  0  0
  7  9  1  0  0  0  0
  9 10  1  0  0  0  0
  9 11  1  0  0  0  0
  9 24  1  0  0  0  0
 11 12  1  0  0  0  0
 11 13  1  0  0  0  0
 11 17  1  0  0  0  0
 13 14  1  0  0  0  0
 13 15  1  0  0  0  0
 13 16  1  0  0  0  0
 17 18  1  0  0  0  0
 17 19  1  0  0  0  0
 17 20  1  0  0  0  0
 20 21  1  0  0  0  0
 20 22  1  0  0  0  0
 20 23  1  0  0  0  0
 24 25  2  0  0  0  0
 24 26  1  0  0  0  0
 26 27  1  0  0  0  0
 26 28  1  0  0  0  0
 28 29  1  0  0  0  0
 28 30  1  0  0  0  0
 28 31  1  0  0  0  0
M  END
$$$$

  -OEChem-01062216083D

 31 30  0     1  0  0  0  0  0999 V2000
   -3.1422   -3.0471    1.4965 H   0  0  0  0  0  0  0  0  0  0  0  0
   -3.1838   -1.9964    1.1955 C   0  0  0  0  0  0  0  0  0  0  0  0
   -3.5556   -1.4052    2.0360 H   0  0  0  0  0  0  0  0  0  0  0  0
   -3.8741   -1.8979    0.3541 H   0  0  0  0  0  0  0  0  0  0  0  0
   -1.8036   -1.5132    0.7925 C   0  0  0  0  0  0  0  0  0  0  0  0
   -0.8831   -2.3110    0.7031 O   0  0  0  0  0  0  0  0  0  0  0  0
   -1.6253   -0.1986    0.4085 N   0  0  0  0  0  0  0  0  0  0  0  0
   -2.4489    0.3840    0.5286 H   0  0  0  0  0  0  0  0  0  0  0  0
   -0.3367    0.5294    0.4028 C   0  0  1  0  0  0  0  0  0  0  0  0
    0.2785    0.1219   -0.4062 H   0  0  0  0  0  0  0  0  0  0  0  0
   -0.6164    2.0260    0.0627 C   0  0  1  0  0  0  0  0  0  0  0  0
   -1.3179    2.4322    0.7996 H   0  0  0  0  0  0  0  0  0  0  0  0
    0.6827    2.8664    0.0881 C   0  0  0  0  0  0  0  0  0  0  0  0
    1.4049    2.4775   -0.6367 H   0  0  0  0  0  0  0  0  0  0  0  0
    0.4776    3.9120   -0.1532 H   0  0  0  0  0  0  0  0  0  0  0  0
    1.1523    2.8634    1.0739 H   0  0  0  0  0  0  0  0  0  0  0  0
   -1.2220    2.1373   -1.3631 C   0  0  0  0  0  0  0  0  0  0  0  0
   -0.4688    1.8661   -2.1102 H   0  0  0  0  0  0  0  0  0  0  0  0
   -2.0517    1.4331   -1.4712 H   0  0  0  0  0  0  0  0  0  0  0  0
   -1.7748    3.5313   -1.6805 C   0  0  0  0  0  0  0  0  0  0  0  0
   -0.9716    4.2671   -1.7727 H   0  0  0  0  0  0  0  0  0  0  0  0
   -2.3183    3.5068   -2.6299 H   0  0  0  0  0  0  0  0  0  0  0  0
   -2.4648    3.8578   -0.8965 H   0  0  0  0  0  0  0  0  0  0  0  0
    0.4858    0.2999    1.7073 C   0  0  0  0  0  0  0  0  0  0  0  0
    0.4180    1.0983    2.6349 O   0  0  0  0  0  0  0  0  0  0  0  0
    1.1523   -0.8898    1.9310 N   0  0  0  0  0  0  0  0  0  0  0  0
    0.8692   -1.6539    1.3125 H   0  0  0  0  0  0  0  0  0  0  0  0
    1.7273   -1.2453    3.2223 C   0  0  0  0  0  0  0  0  0  0  0  0
    0.9420   -1.3309    3.9804 H   0  0  0  0  0  0  0  0  0  0  0  0
    2.2483   -2.2046    3.1503 H   0  0  0  0  0  0  0  0  0  0  0  0
    2.4481   -0.4863    3.5442 H   0  0  0  0  0  0  0  0  0  0  0  0
  1  2  1  0  0  0  0
  2  3  1  0  0  0  0
  2  4  1  0  0  0  0
  2  5  1  0  0  0  0
  5  6  2  0  0  0  0
  5  7  1  0  0  0  0
  7  8  1  0  0  0  0
  7  9  1  0  0  0  0
  9 10  1  0  0  0  0
  9 11  1  0  0  0  0
  9 24  1  0  0  0  0
 11 12  1  0  0  0  0
 11 13  1  0  0  0  0
 11 17  1  0  0  0  0
 13 14  1  0  0  0  0
 13 15  1  0  0  0  0
 13 16  1  0  0  0  0
 17 18  1  0  0  0  0
 17 19  1  0  0  0  0
 17 20  1  0  0  0  0
 20 21  1  0  0  0  0
 20 22  1  0  0  0  0
 20 23  1  0  0  0  0
 24 25  2  0  0  0  0
 24 26  1  0  0  0  0
 26 27  1  0  0  0  0
 26 28  1  0  0  0  0
 28 29  1  0  0  0  0
 28 30  1  0  0  0  0
 28 31  1  0  0  0  0
M  END
$$$$

  -OEChem-01062216083D

 31 30  0     1  0  0  0  0  0999 V2000
   -3.0467   -3.0589    1.5667 H   0  0  0  0  0  0  0  0  0  0  0  0
   -3.1276   -2.0225    1.2271 C   0  0  0  0  0  0  0  0  0  0  0  0
   -3.5152   -1.4142    2.0479 H   0  0  0  0  0  0  0  0  0  0  0  0
   -3.8259   -1.9794    0.3878 H   0  0  0  0  0  0  0  0  0  0  0  0
   -1.7680   -1.5061    0.7974 C   0  0  0  0  0  0  0  0  0  0  0  0
   -0.8155   -2.2692    0.7357 O   0  0  0  0  0  0  0  0  0  0  0  0
   -1.6311   -0.1958    0.3823 N   0  0  0  0  0  0  0  0  0  0  0  0
   -2.4587    0.3774    0.5182 H   0  0  0  0  0  0  0  0  0  0  0  0
   -0.3458    0.5317    0.3706 C   0  0  1  0  0  0  0  0  0  0  0  0
    0.2736    0.1236   -0.4344 H   0  0  0  0  0  0  0  0  0  0  0  0
   -0.6168    2.0292    0.0416 C   0  0  1  0  0  0  0  0  0  0  0  0
   -1.3196    2.4297    0.7808 H   0  0  0  0  0  0  0  0  0  0  0  0
    0.6865    2.8578    0.0973 C   0  0  0  0  0  0  0  0  0  0  0  0
    1.4140    2.4787   -0.6273 H   0  0  0  0  0  0  0  0  0  0  0  0
    0.4917    3.9100   -0.1239 H   0  0  0  0  0  0  0  0  0  0  0  0
    1.1413    2.8249    1.0907 H   0  0  0  0  0  0  0  0  0  0  0  0
   -1.2278    2.1581   -1.3787 C   0  0  0  0  0  0  0  0  0  0  0  0
   -0.4789    1.8899   -2.1312 H   0  0  0  0  0  0  0  0  0  0  0  0
   -2.0625    1.4602   -1.4896 H   0  0  0  0  0  0  0  0  0  0  0  0
   -1.7697    3.5599   -1.6770 C   0  0  0  0  0  0  0  0  0  0  0  0
   -0.9607    4.2916   -1.7499 H   0  0  0  0  0  0  0  0  0  0  0  0
   -2.3058    3.5549   -2.6310 H   0  0  0  0  0  0  0  0  0  0  0  0
   -2.4635    3.8773   -0.8924 H   0  0  0  0  0  0  0  0  0  0  0  0
    0.4503    0.3123    1.6876 C   0  0  0  0  0  0  0  0  0  0  0  0
    0.2374    1.0186    2.6669 O   0  0  0  0  0  0  0  0  0  0  0  0
    1.3429   -0.7368    1.7987 N   0  0  0  0  0  0  0  0  0  0  0  0
    1.1773   -1.4897    1.1290 H   0  0  0  0  0  0  0  0  0  0  0  0
    1.9609   -1.0992    3.0680 C   0  0  0  0  0  0  0  0  0  0  0  0
    1.1987   -1.4136    3.7885 H   0  0  0  0  0  0  0  0  0  0  0  0
    2.6633   -1.9252    2.9220 H   0  0  0  0  0  0  0  0  0  0  0  0
    2.5118   -0.2495    3.4849 H   0  0  0  0  0  0  0  0  0  0  0  0
  1  2  1  0  0  0  0
  2  3  1  0  0  0  0
  2  4  1  0  0  0  0
  2  5  1  0  0  0  0
  5  6  2  0  0  0  0
  5  7  1  0  0  0  0
  7  8  1  0  0  0  0
  7  9  1  0  0  0  0
  9 10  1  0  0  0  0
  9 11  1  0  0  0  0
  9 24  1  0  0  0  0
 11 12  1  0  0  0  0
 11 13  1  0  0  0  0
 11 17  1  0  0  0  0
 13 14  1  0  0  0  0
 13 15  1  0  0  0  0
 13 16  1  0  0  0  0
 17 18  1  0  0  0  0
 17 19  1  0  0  0  0
 17 20  1  0  0  0  0
 20 21  1  0  0  0  0
 20 22  1  0  0  0  0
 20 23  1  0  0  0  0
 24 25  2  0  0  0  0
 24 26  1  0  0  0  0
 26 27  1  0  0  0  0
 26 28  1  0  0  0  0
 28 29  1  0  0  0  0
 28 30  1  0  0  0  0
 28 31  1  0  0  0  0
M  END
$$$$

  -OEChem-01062216083D

 31 30  0     1  0  0  0  0  0999 V2000
   -3.0000   -3.0655    1.6016 H   0  0  0  0  0  0  0  0  0  0  0  0
   -3.1022   -2.0359    1.2471 C   0  0  0  0  0  0  0  0  0  0  0  0
   -3.4898   -1.4211    2.0632 H   0  0  0  0  0  0  0  0  0  0  0  0
   -3.8109   -2.0167    0.4158 H   0  0  0  0  0  0  0  0  0  0  0  0
   -1.7563   -1.5038    0.7935 C   0  0  0  0  0  0  0  0  0  0  0  0
   -0.7858   -2.2459    0.7502 O   0  0  0  0  0  0  0  0  0  0  0  0
   -1.6431   -0.1980    0.3567 N   0  0  0  0  0  0  0  0  0  0  0  0
   -2.4710    0.3712    0.5069 H   0  0  0  0  0  0  0  0  0  0  0  0
   -0.3576    0.5263    0.3439 C   0  0  1  0  0  0  0  0  0  0  0  0
    0.2632    0.1156   -0.4587 H   0  0  0  0  0  0  0  0  0  0  0  0
   -0.6202    2.0258    0.0261 C   0  0  1  0  0  0  0  0  0  0  0  0
   -1.3236    2.4212    0.7675 H   0  0  0  0  0  0  0  0  0  0  0  0
    0.6863    2.8450    0.1056 C   0  0  0  0  0  0  0  0  0  0  0  0
    1.4222    2.4657   -0.6102 H   0  0  0  0  0  0  0  0  0  0  0  0
    0.5019    3.9000   -0.1116 H   0  0  0  0  0  0  0  0  0  0  0  0
    1.1224    2.8003    1.1076 H   0  0  0  0  0  0  0  0  0  0  0  0
   -1.2338    2.1729   -1.3901 C   0  0  0  0  0  0  0  0  0  0  0  0
   -0.4878    1.9079   -2.1467 H   0  0  0  0  0  0  0  0  0  0  0  0
   -2.0731    1.4811   -1.5056 H   0  0  0  0  0  0  0  0  0  0  0  0
   -1.7658    3.5818   -1.6717 C   0  0  0  0  0  0  0  0  0  0  0  0
   -0.9511    4.3080   -1.7348 H   0  0  0  0  0  0  0  0  0  0  0  0
   -2.3010    3.5923   -2.6260 H   0  0  0  0  0  0  0  0  0  0  0  0
   -2.4581    3.8949   -0.8840 H   0  0  0  0  0  0  0  0  0  0  0  0
    0.4216    0.3164    1.6695 C   0  0  0  0  0  0  0  0  0  0  0  0
    0.0659    0.8971    2.6893 O   0  0  0  0  0  0  0  0  0  0  0  0
    1.5172   -0.5250    1.7109 N   0  0  0  0  0  0  0  0  0  0  0  0
    1.5517   -1.2105    0.9590 H   0  0  0  0  0  0  0  0  0  0  0  0
    2.1801   -0.8687    2.9624 C   0  0  0  0  0  0  0  0  0  0  0  0
    1.4885   -1.3938    3.6296 H   0  0  0  0  0  0  0  0  0  0  0  0
    3.0378   -1.5195    2.7682 H   0  0  0  0  0  0  0  0  0  0  0  0
    2.5409    0.0336    3.4671 H   0  0  0  0  0  0  0  0  0  0  0  0
  1  2  1  0  0  0  0
  2  3  1  0  0  0  0
  2  4  1  0  0  0  0
  2  5  1  0  0  0  0
  5  6  2  0  0  0  0
  5  7  1  0  0  0  0
  7  8  1  0  0  0  0
  7  9  1  0  0  0  0
  9 10  1  0  0  0  0
  9 11  1  0  0  0  0
  9 24  1  0  0  0  0
 11 12  1  0  0  0  0
 11 13  1  0  0  0  0
 11 17  1  0  0  0  0
 13 14  1  0  0  0  0
 13 15  1  0  0  0  0
 13 16  1  0  0  0  0
 17 18  1  0  0  0  0
 17 19  1  0  0  0  0
 17 20  1  0  0  0  0
 20 21  1  0  0  0  0
 20 22  1  0  0  0  0
 20 23  1  0  0  0  0
 24 25  2  0  0  0  0
 24 26  1  0  0  0  0
 26 27  1  0  0  0  0
 26 28  1  0  0  0  0
 28 29  1  0  0  0  0
 28 30  1  0  0  0  0
 28 31  1  0  0  0  0
M  END
$$$$

  -OEChem-01062216083D

 31 30  0     1  0  0  0  0  0999 V2000
   -2.9954   -3.0687    1.6008 H   0  0  0  0  0  0  0  0  0  0  0  0
   -3.1008   -2.0363    1.2559 C   0  0  0  0  0  0  0  0  0  0  0  0
   -3.4768   -1.4276    2.0820 H   0  0  0  0  0  0  0  0  0  0  0  0
   -3.8201   -2.0097    0.4339 H   0  0  0  0  0  0  0  0  0  0  0  0
   -1.7596   -1.5026    0.7900 C   0  0  0  0  0  0  0  0  0  0  0  0
   -0.7856   -2.2400    0.7500 O   0  0  0  0  0  0  0  0  0  0  0  0
   -1.6537   -0.2002    0.3413 N   0  0  0  0  0  0  0  0  0  0  0  0
   -2.4786    0.3691    0.5055 H   0  0  0  0  0  0  0  0  0  0  0  0
   -0.3664    0.5198    0.3311 C   0  0  1  0  0  0  0  0  0  0  0  0
    0.2546    0.1058   -0.4692 H   0  0  0  0  0  0  0  0  0  0  0  0
   -0.6242    2.0203    0.0186 C   0  0  1  0  0  0  0  0  0  0  0  0
   -1.3297    2.4124    0.7598 H   0  0  0  0  0  0  0  0  0  0  0  0
    0.6823    2.8366    0.1115 C   0  0  0  0  0  0  0  0  0  0  0  0
    1.4242    2.4572   -0.5980 H   0  0  0  0  0  0  0  0  0  0  0  0
    0.5016    3.8921   -0.1059 H   0  0  0  0  0  0  0  0  0  0  0  0
    1.1071    2.7882    1.1184 H   0  0  0  0  0  0  0  0  0  0  0  0
   -1.2366    2.1756   -1.3970 C   0  0  0  0  0  0  0  0  0  0  0  0
   -0.4903    1.9123   -2.1539 H   0  0  0  0  0  0  0  0  0  0  0  0
   -2.0772    1.4861   -1.5168 H   0  0  0  0  0  0  0  0  0  0  0  0
   -1.7640    3.5874   -1.6726 C   0  0  0  0  0  0  0  0  0  0  0  0
   -0.9475    4.3119   -1.7323 H   0  0  0  0  0  0  0  0  0  0  0  0
   -2.2995    3.6032   -2.6266 H   0  0  0  0  0  0  0  0  0  0  0  0
   -2.4555    3.8986   -0.8837 H   0  0  0  0  0  0  0  0  0  0  0  0
    0.4048    0.3184    1.6616 C   0  0  0  0  0  0  0  0  0  0  0  0
   -0.0754    0.7317    2.7117 O   0  0  0  0  0  0  0  0  0  0  0  0
    1.6586   -0.2641    1.6664 N   0  0  0  0  0  0  0  0  0  0  0  0
    1.8986   -0.7959    0.8343 H   0  0  0  0  0  0  0  0  0  0  0  0
    2.3638   -0.5785    2.9026 C   0  0  0  0  0  0  0  0  0  0  0  0
    1.7896   -1.2963    3.4980 H   0  0  0  0  0  0  0  0  0  0  0  0
    3.3417   -1.0156    2.6789 H   0  0  0  0  0  0  0  0  0  0  0  0
    2.5208    0.3276    3.4974 H   0  0  0  0  0  0  0  0  0  0  0  0
  1  2  1  0  0  0  0
  2  3  1  0  0  0  0
  2  4  1  0  0  0  0
  2  5  1  0  0  0  0
  5  6  2  0  0  0  0
  5  7  1  0  0  0  0
  7  8  1  0  0  0  0
  7  9  1  0  0  0  0
  9 10  1  0  0  0  0
  9 11  1  0  0  0  0
  9 24  1  0  0  0  0
 11 12  1  0  0  0  0
 11 13  1  0  0  0  0
 11 17  1  0  0  0  0
 13 14  1  0  0  0  0
 13 15  1  0  0  0  0
 13 16  1  0  0  0  0
 17 18  1  0  0  0  0
 17 19  1  0  0  0  0
 17 20  1  0  0  0  0
 20 21  1  0  0  0  0
 20 22  1  0  0  0  0
 20 23  1  0  0  0  0
 24 25  2  0  0  0  0
 24 26  1  0  0  0  0
 26 27  1  0  0  0  0
 26 28  1  0  0  0  0
 28 29  1  0  0  0  0
 28 30  1  0  0  0  0
 28 31  1  0  0  0  0
M  END
$$$$

  -OEChem-01062216083D

 31 30  0     1  0  0  0  0  0999 V2000
   -2.9907   -3.0654    1.6099 H   0  0  0  0  0  0  0  0  0  0  0  0
   -3.0978   -2.0304    1.2735 C   0  0  0  0  0  0  0  0  0  0  0  0
   -3.4412   -1.4223    2.1141 H   0  0  0  0  0  0  0  0  0  0  0  0
   -3.8422   -1.9930    0.4747 H   0  0  0  0  0  0  0  0  0  0  0  0
   -1.7669   -1.5062    0.7691 C   0  0  0  0  0  0  0  0  0  0  0  0
   -0.7986   -2.2492    0.7029 O   0  0  0  0  0  0  0  0  0  0  0  0
   -1.6633   -0.2038    0.3190 N   0  0  0  0  0  0  0  0  0  0  0  0
   -2.4811    0.3665    0.5109 H   0  0  0  0  0  0  0  0  0  0  0  0
   -0.3720    0.5104    0.3195 C   0  0  1  0  0  0  0  0  0  0  0  0
    0.2523    0.0945   -0.4774 H   0  0  0  0  0  0  0  0  0  0  0  0
   -0.6281    2.0128    0.0128 C   0  0  1  0  0  0  0  0  0  0  0  0
   -1.3402    2.3981    0.7512 H   0  0  0  0  0  0  0  0  0  0  0  0
    0.6728    2.8352    0.1229 C   0  0  0  0  0  0  0  0  0  0  0  0
    1.4269    2.4578   -0.5747 H   0  0  0  0  0  0  0  0  0  0  0  0
    0.4911    3.8896   -0.0987 H   0  0  0  0  0  0  0  0  0  0  0  0
    1.0816    2.7910    1.1367 H   0  0  0  0  0  0  0  0  0  0  0  0
   -1.2335    2.1752   -1.4052 C   0  0  0  0  0  0  0  0  0  0  0  0
   -0.4839    1.9147   -2.1597 H   0  0  0  0  0  0  0  0  0  0  0  0
   -2.0742    1.4873   -1.5321 H   0  0  0  0  0  0  0  0  0  0  0  0
   -1.7598    3.5882   -1.6782 C   0  0  0  0  0  0  0  0  0  0  0  0
   -0.9431    4.3129   -1.7336 H   0  0  0  0  0  0  0  0  0  0  0  0
   -2.2920    3.6074   -2.6342 H   0  0  0  0  0  0  0  0  0  0  0  0
   -2.4539    3.8978   -0.8909 H   0  0  0  0  0  0  0  0  0  0  0  0
    0.3912    0.3082    1.6549 C   0  0  0  0  0  0  0  0  0  0  0  0
   -0.1785    0.5288    2.7188 O   0  0  0  0  0  0  0  0  0  0  0  0
    1.7428    0.0145    1.6583 N   0  0  0  0  0  0  0  0  0  0  0  0
    2.1360   -0.3125    0.7811 H   0  0  0  0  0  0  0  0  0  0  0  0
    2.4815   -0.2477    2.8871 C   0  0  0  0  0  0  0  0  0  0  0  0
    2.0591   -1.1128    3.4093 H   0  0  0  0  0  0  0  0  0  0  0  0
    3.5312   -0.4572    2.6602 H   0  0  0  0  0  0  0  0  0  0  0  0
    2.4400    0.6211    3.5526 H   0  0  0  0  0  0  0  0  0  0  0  0
  1  2  1  0  0  0  0
  2  3  1  0  0  0  0
  2  4  1  0  0  0  0
  2  5  1  0  0  0  0
  5  6  2  0  0  0  0
  5  7  1  0  0  0  0
  7  8  1  0  0  0  0
  7  9  1  0  0  0  0
  9 10  1  0  0  0  0
  9 11  1  0  0  0  0
  9 24  1  0  0  0  0
 11 12  1  0  0  0  0
 11 13  1  0  0  0  0
 11 17  1  0  0  0  0
 13 14  1  0  0  0  0
 13 15  1  0  0  0  0
 13 16  1  0  0  0  0
 17 18  1  0  0  0  0
 17 19  1  0  0  0  0
 17 20  1  0  0  0  0
 20 21  1  0  0  0  0
 20 22  1  0  0  0  0
 20 23  1  0  0  0  0
 24 25  2  0  0  0  0
 24 26  1  0  0  0  0
 26 27  1  0  0  0  0
 26 28  1  0  0  0  0
 28 29  1  0  0  0  0
 28 30  1  0  0  0  0
 28 31  1  0  0  0  0
M  END
$$$$

  -OEChem-01062216083D

 31 30  0     1  0  0  0  0  0999 V2000
   -3.0181   -3.0581    1.5769 H   0  0  0  0  0  0  0  0  0  0  0  0
   -3.1104   -2.0128    1.2695 C   0  0  0  0  0  0  0  0  0  0  0  0
   -3.4245   -1.4201    2.1323 H   0  0  0  0  0  0  0  0  0  0  0  0
   -3.8688   -1.9395    0.4866 H   0  0  0  0  0  0  0  0  0  0  0  0
   -1.7794   -1.5022    0.7531 C   0  0  0  0  0  0  0  0  0  0  0  0
   -0.8254   -2.2600    0.6550 O   0  0  0  0  0  0  0  0  0  0  0  0
   -1.6650   -0.1977    0.3114 N   0  0  0  0  0  0  0  0  0  0  0  0
   -2.4739    0.3781    0.5229 H   0  0  0  0  0  0  0  0  0  0  0  0
   -0.3652    0.5022    0.3225 C   0  0  1  0  0  0  0  0  0  0  0  0
    0.2587    0.0840   -0.4736 H   0  0  0  0  0  0  0  0  0  0  0  0
   -0.6295    2.0056    0.0155 C   0  0  1  0  0  0  0  0  0  0  0  0
   -1.3506    2.3825    0.7495 H   0  0  0  0  0  0  0  0  0  0  0  0
    0.6558    2.8498    0.1345 C   0  0  0  0  0  0  0  0  0  0  0  0
    1.4308    2.4689   -0.5379 H   0  0  0  0  0  0  0  0  0  0  0  0
    0.4649    3.8964   -0.1143 H   0  0  0  0  0  0  0  0  0  0  0  0
    1.0395    2.8351    1.1586 H   0  0  0  0  0  0  0  0  0  0  0  0
   -1.2307    2.1626   -1.4062 C   0  0  0  0  0  0  0  0  0  0  0  0
   -0.4751    1.9058   -2.1559 H   0  0  0  0  0  0  0  0  0  0  0  0
   -2.0660    1.4689   -1.5375 H   0  0  0  0  0  0  0  0  0  0  0  0
   -1.7671    3.5702   -1.6880 C   0  0  0  0  0  0  0  0  0  0  0  0
   -0.9555    4.2996   -1.7539 H   0  0  0  0  0  0  0  0  0  0  0  0
   -2.3035    3.5772   -2.6418 H   0  0  0  0  0  0  0  0  0  0  0  0
   -2.4601    3.8821   -0.9004 H   0  0  0  0  0  0  0  0  0  0  0  0
    0.3989    0.2888    1.6586 C   0  0  0  0  0  0  0  0  0  0  0  0
   -0.2137    0.3166    2.7215 O   0  0  0  0  0  0  0  0  0  0  0  0
    1.7827    0.2880    1.6910 N   0  0  0  0  0  0  0  0  0  0  0  0
    2.2630    0.1872    0.8023 H   0  0  0  0  0  0  0  0  0  0  0  0
    2.5431    0.0977    2.9204 C   0  0  0  0  0  0  0  0  0  0  0  0
    2.2938   -0.8651    3.3789 H   0  0  0  0  0  0  0  0  0  0  0  0
    3.6164    0.1130    2.7080 H   0  0  0  0  0  0  0  0  0  0  0  0
    2.3225    0.8964    3.6364 H   0  0  0  0  0  0  0  0  0  0  0  0
  1  2  1  0  0  0  0
  2  3  1  0  0  0  0
  2  4  1  0  0  0  0
  2  5  1  0  0  0  0
  5  6  2  0  0  0  0
  5  7  1  0  0  0  0
  7  8  1  0  0  0  0
  7  9  1  0  0  0  0
  9 10  1  0  0  0  0
  9 11  1  0  0  0  0
  9 24  1  0  0  0  0
 11 12  1  0  0  0  0
 11 13  1  0  0  0  0
 11 17  1  0  0  0  0
 13 14  1  0  0  0  0
 13 15  1  0  0  0  0
 13 16  1  0  0  0  0
 17 18  1  0  0  0  0
 17 19  1  0  0  0  0
 17 20  1  0  0  0  0
 20 21  1  0  0  0  0
 20 22  1  0  0  0  0
 20 23  1  0  0  0  0
 24 25  2  0  0  0  0
 24 26  1  0  0  0  0
 26 27  1  0  0  0  0
 26 28  1  0  0  0  0
 28 29  1  0  0  0  0
 28 30  1  0  0  0  0
 28 31  1  0  0  0  0
M  END
$$$$

  -OEChem-01062216083D

 31 30  0     1  0  0  0  0  0999 V2000
   -3.0450   -3.0509    1.5259 H   0  0  0  0  0  0  0  0  0  0  0  0
   -3.1142   -1.9886    1.2766 C   0  0  0  0  0  0  0  0  0  0  0  0
   -3.3704   -1.4322    2.1816 H   0  0  0  0  0  0  0  0  0  0  0  0
   -3.9022   -1.8500    0.5328 H   0  0  0  0  0  0  0  0  0  0  0  0
   -1.7889   -1.4951    0.7288 C   0  0  0  0  0  0  0  0  0  0  0  0
   -0.8566   -2.2713    0.5787 O   0  0  0  0  0  0  0  0  0  0  0  0
   -1.6590   -0.1859    0.3045 N   0  0  0  0  0  0  0  0  0  0  0  0
   -2.4565    0.3961    0.5400 H   0  0  0  0  0  0  0  0  0  0  0  0
   -0.3488    0.4978    0.3268 C   0  0  1  0  0  0  0  0  0  0  0  0
    0.2739    0.0808   -0.4709 H   0  0  0  0  0  0  0  0  0  0  0  0
   -0.6299    2.0020    0.0142 C   0  0  1  0  0  0  0  0  0  0  0  0
   -1.3641    2.3671    0.7410 H   0  0  0  0  0  0  0  0  0  0  0  0
    0.6299    2.8826    0.1389 C   0  0  0  0  0  0  0  0  0  0  0  0
    1.4368    2.4941   -0.4901 H   0  0  0  0  0  0  0  0  0  0  0  0
    0.4263    3.9133   -0.1590 H   0  0  0  0  0  0  0  0  0  0  0  0
    0.9727    2.9229    1.1763 H   0  0  0  0  0  0  0  0  0  0  0  0
   -1.2276    2.1467   -1.4128 C   0  0  0  0  0  0  0  0  0  0  0  0
   -0.4645    1.8960   -2.1570 H   0  0  0  0  0  0  0  0  0  0  0  0
   -2.0539    1.4433   -1.5485 H   0  0  0  0  0  0  0  0  0  0  0  0
   -1.7814    3.5453   -1.7067 C   0  0  0  0  0  0  0  0  0  0  0  0
   -0.9794    4.2833   -1.7909 H   0  0  0  0  0  0  0  0  0  0  0  0
   -2.3272    3.5344   -2.6551 H   0  0  0  0  0  0  0  0  0  0  0  0
   -2.4701    3.8587   -0.9162 H   0  0  0  0  0  0  0  0  0  0  0  0
    0.4214    0.2636    1.6618 C   0  0  0  0  0  0  0  0  0  0  0  0
   -0.1998    0.0891    2.7060 O   0  0  0  0  0  0  0  0  0  0  0  0
    1.7735    0.5442    1.7653 N   0  0  0  0  0  0  0  0  0  0  0  0
    2.2856    0.6807    0.8996 H   0  0  0  0  0  0  0  0  0  0  0  0
    2.5222    0.4203    3.0104 C   0  0  0  0  0  0  0  0  0  0  0  0
    2.4550   -0.6023    3.3967 H   0  0  0  0  0  0  0  0  0  0  0  0
    3.5768    0.6587    2.8432 H   0  0  0  0  0  0  0  0  0  0  0  0
    2.1284    1.1089    3.7654 H   0  0  0  0  0  0  0  0  0  0  0  0
  1  2  1  0  0  0  0
  2  3  1  0  0  0  0
  2  4  1  0  0  0  0
  2  5  1  0  0  0  0
  5  6  2  0  0  0  0
  5  7  1  0  0  0  0
  7  8  1  0  0  0  0
  7  9  1  0  0  0  0
  9 10  1  0  0  0  0
  9 11  1  0  0  0  0
  9 24  1  0  0  0  0
 11 12  1  0  0  0  0
 11 13  1  0  0  0  0
 11 17  1  0  0  0  0
 13 14  1  0  0  0  0
 13 15  1  0  0  0  0
 13 16  1  0  0  0  0
 17 18  1  0  0  0  0
 17 19  1  0  0  0  0
 17 20  1  0  0  0  0
 20 21  1  0  0  0  0
 20 22  1  0  0  0  0
 20 23  1  0  0  0  0
 24 25  2  0  0  0  0
 24 26  1  0  0  0  0
 26 27  1  0  0  0  0
 26 28  1  0  0  0  0
 28 29  1  0  0  0  0
 28 30  1  0  0  0  0
 28 31  1  0  0  0  0
M  END
$$$$

  -OEChem-01062216083D

 31 30  0     1  0  0  0  0  0999 V2000
   -3.1375   -2.9946    1.4806 H   0  0  0  0  0  0  0  0  0  0  0  0
   -3.1495   -1.9187    1.2843 C   0  0  0  0  0  0  0  0  0  0  0  0
   -3.2858   -1.3920    2.2320 H   0  0  0  0  0  0  0  0  0  0  0  0
   -3.9852   -1.6887    0.6195 H   0  0  0  0  0  0  0  0  0  0  0  0
   -1.8418   -1.4928    0.6450 C   0  0  0  0  0  0  0  0  0  0  0  0
   -1.0275   -2.3323    0.2917 O   0  0  0  0  0  0  0  0  0  0  0  0
   -1.6411   -0.1739    0.2820 N   0  0  0  0  0  0  0  0  0  0  0  0
   -2.4122    0.4246    0.5576 H   0  0  0  0  0  0  0  0  0  0  0  0
   -0.3122    0.4828    0.3354 C   0  0  1  0  0  0  0  0  0  0  0  0
    0.2005    0.2827   -0.6103 H   0  0  0  0  0  0  0  0  0  0  0  0
   -0.6387    2.0170    0.4127 C   0  0  1  0  0  0  0  0  0  0  0  0
   -1.3021    2.1770    1.2700 H   0  0  0  0  0  0  0  0  0  0  0  0
    0.5991    2.9148    0.6181 C   0  0  0  0  0  0  0  0  0  0  0  0
    1.3692    2.6875   -0.1253 H   0  0  0  0  0  0  0  0  0  0  0  0
    0.3469    3.9738    0.5366 H   0  0  0  0  0  0  0  0  0  0  0  0
    1.0109    2.7806    1.6215 H   0  0  0  0  0  0  0  0  0  0  0  0
   -1.3807    2.4677   -0.8807 C   0  0  0  0  0  0  0  0  0  0  0  0
   -0.6929    2.4195   -1.7314 H   0  0  0  0  0  0  0  0  0  0  0  0
   -2.2096    1.7896   -1.1006 H   0  0  0  0  0  0  0  0  0  0  0  0
   -1.9793    3.8772   -0.7962 C   0  0  0  0  0  0  0  0  0  0  0  0
   -1.2022    4.6456   -0.8167 H   0  0  0  0  0  0  0  0  0  0  0  0
   -2.6396    4.0492   -1.6518 H   0  0  0  0  0  0  0  0  0  0  0  0
   -2.5664    3.9903    0.1204 H   0  0  0  0  0  0  0  0  0  0  0  0
    0.6486   -0.0571    1.4515 C   0  0  0  0  0  0  0  0  0  0  0  0
    0.1920   -0.6126    2.4455 O   0  0  0  0  0  0  0  0  0  0  0  0
    1.9268    0.4542    1.6119 N   0  0  0  0  0  0  0  0  0  0  0  0
    2.3105    0.9909    0.8410 H   0  0  0  0  0  0  0  0  0  0  0  0
    2.7894    0.1480    2.7487 C   0  0  0  0  0  0  0  0  0  0  0  0
    2.9273   -0.9342    2.8446 H   0  0  0  0  0  0  0  0  0  0  0  0
    3.7719    0.6100    2.6138 H   0  0  0  0  0  0  0  0  0  0  0  0
    2.3516    0.5314    3.6763 H   0  0  0  0  0  0  0  0  0  0  0  0
  1  2  1  0  0  0  0
  2  3  1  0  0  0  0
  2  4  1  0  0  0  0
  2  5  1  0  0  0  0
  5  6  2  0  0  0  0
  5  7  1  0  0  0  0
  7  8  1  0  0  0  0
  7  9  1  0  0  0  0
  9 10  1  0  0  0  0
  9 11  1  0  0  0  0
  9 24  1  0  0  0  0
 11 12  1  0  0  0  0
 11 13  1  0  0  0  0
 11 17  1  0  0  0  0
 13 14  1  0  0  0  0
 13 15  1  0  0  0  0
 13 16  1  0  0  0  0
 17 18  1  0  0  0  0
 17 19  1  0  0  0  0
 17 20  1  0  0  0  0
 20 21  1  0  0  0  0
 20 22  1  0  0  0  0
 20 23  1  0  0  0  0
 24 25  2  0  0  0  0
 24 26  1  0  0  0  0
 26 27  1  0  0  0  0
 26 28  1  0  0  0  0
 28 29  1  0  0  0  0
 28 30  1  0  0  0  0
 28 31  1  0  0  0  0
M  END
$$$$

  -OEChem-01062216083D

 31 30  0     1  0  0  0  0  0999 V2000
   -3.1480   -2.9798    1.4726 H   0  0  0  0  0  0  0  0  0  0  0  0
   -3.1465   -1.8994    1.3027 C   0  0  0  0  0  0  0  0  0  0  0  0
   -3.2488   -1.3942    2.2661 H   0  0  0  0  0  0  0  0  0  0  0  0
   -3.9951   -1.6393    0.6659 H   0  0  0  0  0  0  0  0  0  0  0  0
   -1.8483   -1.4815    0.6392 C   0  0  0  0  0  0  0  0  0  0  0  0
   -1.0866   -2.3271    0.1960 O   0  0  0  0  0  0  0  0  0  0  0  0
   -1.6290   -0.1569    0.3105 N   0  0  0  0  0  0  0  0  0  0  0  0
   -2.3962    0.4382    0.6033 H   0  0  0  0  0  0  0  0  0  0  0  0
   -0.3003    0.5045    0.3742 C   0  0  1  0  0  0  0  0  0  0  0  0
    0.2118    0.3048   -0.5724 H   0  0  0  0  0  0  0  0  0  0  0  0
   -0.6507    2.0396    0.4220 C   0  0  1  0  0  0  0  0  0  0  0  0
   -1.3274    2.2077    1.2672 H   0  0  0  0  0  0  0  0  0  0  0  0
    0.5657    2.9725    0.6103 C   0  0  0  0  0  0  0  0  0  0  0  0
    1.3751    2.6933   -0.0715 H   0  0  0  0  0  0  0  0  0  0  0  0
    0.3124    4.0173    0.4243 H   0  0  0  0  0  0  0  0  0  0  0  0
    0.9232    2.9358    1.6422 H   0  0  0  0  0  0  0  0  0  0  0  0
   -1.3799    2.4513   -0.8944 C   0  0  0  0  0  0  0  0  0  0  0  0
   -0.6789    2.3943   -1.7339 H   0  0  0  0  0  0  0  0  0  0  0  0
   -2.1954    1.7570   -1.1126 H   0  0  0  0  0  0  0  0  0  0  0  0
   -2.0057    3.8517   -0.8553 C   0  0  0  0  0  0  0  0  0  0  0  0
   -1.2460    4.6355   -0.9105 H   0  0  0  0  0  0  0  0  0  0  0  0
   -2.6750    3.9795   -1.7116 H   0  0  0  0  0  0  0  0  0  0  0  0
   -2.5891    3.9859    0.0609 H   0  0  0  0  0  0  0  0  0  0  0  0
    0.6876   -0.0416    1.4742 C   0  0  0  0  0  0  0  0  0  0  0  0
    0.3246   -0.8600    2.3105 O   0  0  0  0  0  0  0  0  0  0  0  0
    1.8276    0.6514    1.8489 N   0  0  0  0  0  0  0  0  0  0  0  0
    2.1336    1.3992    1.2355 H   0  0  0  0  0  0  0  0  0  0  0  0
    2.6687    0.3010    2.9902 C   0  0  0  0  0  0  0  0  0  0  0  0
    3.0301   -0.7287    2.8981 H   0  0  0  0  0  0  0  0  0  0  0  0
    3.5348    0.9676    3.0400 H   0  0  0  0  0  0  0  0  0  0  0  0
    2.1066    0.3954    3.9252 H   0  0  0  0  0  0  0  0  0  0  0  0
  1  2  1  0  0  0  0
  2  3  1  0  0  0  0
  2  4  1  0  0  0  0
  2  5  1  0  0  0  0
  5  6  2  0  0  0  0
  5  7  1  0  0  0  0
  7  8  1  0  0  0  0
  7  9  1  0  0  0  0
  9 10  1  0  0  0  0
  9 11  1  0  0  0  0
  9 24  1  0  0  0  0
 11 12  1  0  0  0  0
 11 13  1  0  0  0  0
 11 17  1  0  0  0  0
 13 14  1  0  0  0  0
 13 15  1  0  0  0  0
 13 16  1  0  0  0  0
 17 18  1  0  0  0  0
 17 19  1  0  0  0  0
 17 20  1  0  0  0  0
 20 21  1  0  0  0  0
 20 22  1  0  0  0  0
 20 23  1  0  0  0  0
 24 25  2  0  0  0  0
 24 26  1  0  0  0  0
 26 27  1  0  0  0  0
 26 28  1  0  0  0  0
 28 29  1  0  0  0  0
 28 30  1  0  0  0  0
 28 31  1  0  0  0  0
M  END
$$$$

  -OEChem-01062216083D

 31 30  0     1  0  0  0  0  0999 V2000
   -3.2376   -2.8703    1.5944 H   0  0  0  0  0  0  0  0  0  0  0  0
   -3.2122   -1.7975    1.3842 C   0  0  0  0  0  0  0  0  0  0  0  0
   -3.2842   -1.2552    2.3297 H   0  0  0  0  0  0  0  0  0  0  0  0
   -4.0656   -1.5389    0.7533 H   0  0  0  0  0  0  0  0  0  0  0  0
   -1.9171   -1.4392    0.6805 C   0  0  0  0  0  0  0  0  0  0  0  0
   -1.2396   -2.3171    0.1710 O   0  0  0  0  0  0  0  0  0  0  0  0
   -1.6506   -0.1246    0.3488 N   0  0  0  0  0  0  0  0  0  0  0  0
   -2.4111    0.4877    0.6228 H   0  0  0  0  0  0  0  0  0  0  0  0
   -0.3165    0.5246    0.4392 C   0  0  1  0  0  0  0  0  0  0  0  0
    0.2184    0.2839   -0.4852 H   0  0  0  0  0  0  0  0  0  0  0  0
   -0.6431    2.0665    0.4010 C   0  0  1  0  0  0  0  0  0  0  0  0
   -1.3485    2.2921    1.2085 H   0  0  0  0  0  0  0  0  0  0  0  0
    0.5875    2.9853    0.5766 C   0  0  0  0  0  0  0  0  0  0  0  0
    1.4469    2.5886    0.0267 H   0  0  0  0  0  0  0  0  0  0  0  0
    0.8400    3.0882    1.6349 H   0  0  0  0  0  0  0  0  0  0  0  0
    0.4035    3.9990    0.2190 H   0  0  0  0  0  0  0  0  0  0  0  0
   -1.3097    2.4194   -0.9659 C   0  0  0  0  0  0  0  0  0  0  0  0
   -0.5737    2.3101   -1.7695 H   0  0  0  0  0  0  0  0  0  0  0  0
   -2.1246    1.7244   -1.1845 H   0  0  0  0  0  0  0  0  0  0  0  0
   -1.9186    3.8274   -1.0306 C   0  0  0  0  0  0  0  0  0  0  0  0
   -1.1503    4.6015   -1.0975 H   0  0  0  0  0  0  0  0  0  0  0  0
   -2.5499    3.9131   -1.9206 H   0  0  0  0  0  0  0  0  0  0  0  0
   -2.5388    4.0181   -0.1493 H   0  0  0  0  0  0  0  0  0  0  0  0
    0.6480   -0.0112    1.5691 C   0  0  0  0  0  0  0  0  0  0  0  0
    0.4648   -1.0749    2.1424 O   0  0  0  0  0  0  0  0  0  0  0  0
    1.6006    0.7838    2.1859 N   0  0  0  0  0  0  0  0  0  0  0  0
    1.8129    1.6711    1.7449 H   0  0  0  0  0  0  0  0  0  0  0  0
    2.4416    0.3488    3.2979 C   0  0  0  0  0  0  0  0  0  0  0  0
    3.0374   -0.5236    3.0092 H   0  0  0  0  0  0  0  0  0  0  0  0
    3.1241    1.1517    3.5920 H   0  0  0  0  0  0  0  0  0  0  0  0
    1.8266    0.0853    4.1649 H   0  0  0  0  0  0  0  0  0  0  0  0
  1  2  1  0  0  0  0
  2  3  1  0  0  0  0
  2  4  1  0  0  0  0
  2  5  1  0  0  0  0
  5  6  2  0  0  0  0
  5  7  1  0  0  0  0
  7  8  1  0  0  0  0
  7  9  1  0  0  0  0
  9 10  1  0  0  0  0
  9 11  1  0  0  0  0
  9 24  1  0  0  0  0
 11 12  1  0  0  0  0
 11 13  1  0  0  0  0
 11 17  1  0  0  0  0
 13 14  1  0  0  0  0
 13 15  1  0  0  0  0
 13 16  1  0  0  0  0
 17 18  1  0  0  0  0
 17 19  1  0  0  0  0
 17 20  1  0  0  0  0
 20 21  1  0  0  0  0
 20 22  1  0  0  0  0
 20 23  1  0  0  0  0
 24 25  2  0  0  0  0
 24 26  1  0  0  0  0
 26 27  1  0  0  0  0
 26 28  1  0  0  0  0
 28 29  1  0  0  0  0
 28 30  1  0  0  0  0
 28 31  1  0  0  0  0
M  END
$$$$

  -OEChem-01062216083D

 31 30  0     1  0  0  0  0  0999 V2000
   -3.1235   -2.9821    1.4723 H   0  0  0  0  0  0  0  0  0  0  0  0
   -3.0987   -1.8949    1.3559 C   0  0  0  0  0  0  0  0  0  0  0  0
   -3.1258   -1.4372    2.3475 H   0  0  0  0  0  0  0  0  0  0  0  0
   -3.9776   -1.5801    0.7886 H   0  0  0  0  0  0  0  0  0  0  0  0
   -1.8322   -1.4810    0.6302 C   0  0  0  0  0  0  0  0  0  0  0  0
   -1.1521   -2.3295    0.0806 O   0  0  0  0  0  0  0  0  0  0  0  0
   -1.6213   -0.1500    0.3245 N   0  0  0  0  0  0  0  0  0  0  0  0
   -2.4187    0.4203    0.5838 H   0  0  0  0  0  0  0  0  0  0  0  0
   -0.3276    0.5690    0.4510 C   0  0  1  0  0  0  0  0  0  0  0  0
    0.2428    0.3574   -0.4598 H   0  0  0  0  0  0  0  0  0  0  0  0
   -0.6843    2.0991    0.4201 C   0  0  1  0  0  0  0  0  0  0  0  0
   -1.3992    2.3200    1.2200 H   0  0  0  0  0  0  0  0  0  0  0  0
    0.5598    3.0072    0.5922 C   0  0  0  0  0  0  0  0  0  0  0  0
    1.4557    2.5128    0.2026 H   0  0  0  0  0  0  0  0  0  0  0  0
    0.7108    3.2580    1.6448 H   0  0  0  0  0  0  0  0  0  0  0  0
    0.4633    3.9579    0.0672 H   0  0  0  0  0  0  0  0  0  0  0  0
   -1.3273    2.4464   -0.9576 C   0  0  0  0  0  0  0  0  0  0  0  0
   -0.5729    2.3594   -1.7469 H   0  0  0  0  0  0  0  0  0  0  0  0
   -2.1211    1.7331   -1.1953 H   0  0  0  0  0  0  0  0  0  0  0  0
   -1.9648    3.8426   -1.0201 C   0  0  0  0  0  0  0  0  0  0  0  0
   -1.2167    4.6386   -1.0196 H   0  0  0  0  0  0  0  0  0  0  0  0
   -2.5473    3.9381   -1.9417 H   0  0  0  0  0  0  0  0  0  0  0  0
   -2.6390    3.9923   -0.1713 H   0  0  0  0  0  0  0  0  0  0  0  0
    0.6156    0.0445    1.5973 C   0  0  0  0  0  0  0  0  0  0  0  0
    0.8312   -1.1431    1.7760 O   0  0  0  0  0  0  0  0  0  0  0  0
    1.2832    0.8837    2.4743 N   0  0  0  0  0  0  0  0  0  0  0  0
    1.1279    1.8789    2.3757 H   0  0  0  0  0  0  0  0  0  0  0  0
    2.1746    0.4208    3.5343 C   0  0  0  0  0  0  0  0  0  0  0  0
    3.0054   -0.1551    3.1129 H   0  0  0  0  0  0  0  0  0  0  0  0
    2.5887    1.2737    4.0801 H   0  0  0  0  0  0  0  0  0  0  0  0
    1.6308   -0.2124    4.2433 H   0  0  0  0  0  0  0  0  0  0  0  0
  1  2  1  0  0  0  0
  2  3  1  0  0  0  0
  2  4  1  0  0  0  0
  2  5  1  0  0  0  0
  5  6  2  0  0  0  0
  5  7  1  0  0  0  0
  7  8  1  0  0  0  0
  7  9  1  0  0  0  0
  9 10  1  0  0  0  0
  9 11  1  0  0  0  0
  9 24  1  0  0  0  0
 11 12  1  0  0  0  0
 11 13  1  0  0  0  0
 11 17  1  0  0  0  0
 13 14  1  0  0  0  0
 13 15  1  0  0  0  0
 13 16  1  0  0  0  0
 17 18  1  0  0  0  0
 17 19  1  0  0  0  0
 17 20  1  0  0  0  0
 20 21  1  0  0  0  0
 20 22  1  0  0  0  0
 20 23  1  0  0  0  0
 24 25  2  0  0  0  0
 24 26  1  0  0  0  0
 26 27  1  0  0  0  0
 26 28  1  0  0  0  0
 28 29  1  0  0  0  0
 28 30  1  0  0  0  0
 28 31  1  0  0  0  0
M  END
$$$$

  -OEChem-01062216083D

 31 30  0     1  0  0  0  0  0999 V2000
   -3.5322   -2.9655    1.1415 H   0  0  0  0  0  0  0  0  0  0  0  0
   -3.4305   -1.9239    0.8228 C   0  0  0  0  0  0  0  0  0  0  0  0
   -4.1417   -1.3136    1.3845 H   0  0  0  0  0  0  0  0  0  0  0  0
   -3.6646   -1.8601   -0.2425 H   0  0  0  0  0  0  0  0  0  0  0  0
   -2.0155   -1.4359    1.0752 C   0  0  0  0  0  0  0  0  0  0  0  0
   -1.2559   -2.1690    1.6747 O   0  0  0  0  0  0  0  0  0  0  0  0
   -1.6901   -0.1511    0.6725 N   0  0  0  0  0  0  0  0  0  0  0  0
   -2.4514    0.3329    0.2094 H   0  0  0  0  0  0  0  0  0  0  0  0
   -0.3756    0.5415    0.6356 C   0  0  1  0  0  0  0  0  0  0  0  0
    0.1074    0.2598   -0.3064 H   0  0  0  0  0  0  0  0  0  0  0  0
   -0.6667    2.0804    0.5497 C   0  0  1  0  0  0  0  0  0  0  0  0
   -1.2864    2.3813    1.4014 H   0  0  0  0  0  0  0  0  0  0  0  0
    0.6383    2.9182    0.5433 C   0  0  0  0  0  0  0  0  0  0  0  0
    1.4145    2.4127   -0.0406 H   0  0  0  0  0  0  0  0  0  0  0  0
    0.4919    3.9099    0.1137 H   0  0  0  0  0  0  0  0  0  0  0  0
    1.0100    3.0855    1.5555 H   0  0  0  0  0  0  0  0  0  0  0  0
   -1.4212    2.3887   -0.7789 C   0  0  0  0  0  0  0  0  0  0  0  0
   -0.7498    2.2256   -1.6291 H   0  0  0  0  0  0  0  0  0  0  0  0
   -2.2655    1.7066   -0.9021 H   0  0  0  0  0  0  0  0  0  0  0  0
   -1.9968    3.8098   -0.8564 C   0  0  0  0  0  0  0  0  0  0  0  0
   -1.2134    4.5626   -0.9712 H   0  0  0  0  0  0  0  0  0  0  0  0
   -2.6615    3.8905   -1.7221 H   0  0  0  0  0  0  0  0  0  0  0  0
   -2.5755    4.0373    0.0440 H   0  0  0  0  0  0  0  0  0  0  0  0
    0.6411    0.0679    1.7243 C   0  0  0  0  0  0  0  0  0  0  0  0
    1.3303   -0.9121    1.4731 O   0  0  0  0  0  0  0  0  0  0  0  0
    1.1664    0.9125    2.6882 N   0  0  0  0  0  0  0  0  0  0  0  0
    0.6437    1.7585    2.8869 H   0  0  0  0  0  0  0  0  0  0  0  0
    2.2687    0.5476    3.5718 C   0  0  0  0  0  0  0  0  0  0  0  0
    3.1914    0.4139    2.9974 H   0  0  0  0  0  0  0  0  0  0  0  0
    2.4351    1.3341    4.3140 H   0  0  0  0  0  0  0  0  0  0  0  0
    2.0435   -0.3850    4.1005 H   0  0  0  0  0  0  0  0  0  0  0  0
  1  2  1  0  0  0  0
  2  3  1  0  0  0  0
  2  4  1  0  0  0  0
  2  5  1  0  0  0  0
  5  6  2  0  0  0  0
  5  7  1  0  0  0  0
  7  8  1  0  0  0  0
  7  9  1  0  0  0  0
  9 10  1  0  0  0  0
  9 11  1  0  0  0  0
  9 24  1  0  0  0  0
 11 12  1  0  0  0  0
 11 13  1  0  0  0  0
 11 17  1  0  0  0  0
 13 14  1  0  0  0  0
 13 15  1  0  0  0  0
 13 16  1  0  0  0  0
 17 18  1  0  0  0  0
 17 19  1  0  0  0  0
 17 20  1  0  0  0  0
 20 21  1  0  0  0  0
 20 22  1  0  0  0  0
 20 23  1  0  0  0  0
 24 25  2  0  0  0  0
 24 26  1  0  0  0  0
 26 27  1  0  0  0  0
 26 28  1  0  0  0  0
 28 29  1  0  0  0  0
 28 30  1  0  0  0  0
 28 31  1  0  0  0  0
M  END
$$$$

  -OEChem-01062216083D

 31 30  0     1  0  0  0  0  0999 V2000
   -3.4849   -2.9952    1.1975 H   0  0  0  0  0  0  0  0  0  0  0  0
   -3.4028   -1.9602    0.8533 C   0  0  0  0  0  0  0  0  0  0  0  0
   -4.1034   -1.3443    1.4219 H   0  0  0  0  0  0  0  0  0  0  0  0
   -3.6681   -1.9219   -0.2059 H   0  0  0  0  0  0  0  0  0  0  0  0
   -1.9862   -1.4536    1.0533 C   0  0  0  0  0  0  0  0  0  0  0  0
   -1.1859   -2.1788    1.6096 O   0  0  0  0  0  0  0  0  0  0  0  0
   -1.6861   -0.1684    0.6335 N   0  0  0  0  0  0  0  0  0  0  0  0
   -2.4595    0.3119    0.1865 H   0  0  0  0  0  0  0  0  0  0  0  0
   -0.3782    0.5333    0.5940 C   0  0  1  0  0  0  0  0  0  0  0  0
    0.1100    0.2554   -0.3466 H   0  0  0  0  0  0  0  0  0  0  0  0
   -0.6515    2.0717    0.5320 C   0  0  1  0  0  0  0  0  0  0  0  0
   -1.2490    2.3682    1.4007 H   0  0  0  0  0  0  0  0  0  0  0  0
    0.6653    2.8891    0.5031 C   0  0  0  0  0  0  0  0  0  0  0  0
    1.3008    2.5563   -0.3240 H   0  0  0  0  0  0  0  0  0  0  0  0
    0.4669    3.9555    0.3779 H   0  0  0  0  0  0  0  0  0  0  0  0
    1.2362    2.7969    1.4265 H   0  0  0  0  0  0  0  0  0  0  0  0
   -1.4139    2.4111   -0.7814 C   0  0  0  0  0  0  0  0  0  0  0  0
   -0.7580    2.2520   -1.6441 H   0  0  0  0  0  0  0  0  0  0  0  0
   -2.2698    1.7427   -0.9026 H   0  0  0  0  0  0  0  0  0  0  0  0
   -1.9658    3.8413   -0.8205 C   0  0  0  0  0  0  0  0  0  0  0  0
   -1.1645    4.5792   -0.9098 H   0  0  0  0  0  0  0  0  0  0  0  0
   -2.6248    3.9594   -1.6862 H   0  0  0  0  0  0  0  0  0  0  0  0
   -2.5437    4.0542    0.0841 H   0  0  0  0  0  0  0  0  0  0  0  0
    0.6181    0.0662    1.6984 C   0  0  0  0  0  0  0  0  0  0  0  0
    1.4524   -0.7802    1.4037 O   0  0  0  0  0  0  0  0  0  0  0  0
    0.8872    0.8269    2.8248 N   0  0  0  0  0  0  0  0  0  0  0  0
    0.2072    1.5392    3.0678 H   0  0  0  0  0  0  0  0  0  0  0  0
    1.9148    0.4769    3.7989 C   0  0  0  0  0  0  0  0  0  0  0  0
    2.9054    0.4857    3.3320 H   0  0  0  0  0  0  0  0  0  0  0  0
    1.9162    1.1962    4.6233 H   0  0  0  0  0  0  0  0  0  0  0  0
    1.7280   -0.5212    4.2093 H   0  0  0  0  0  0  0  0  0  0  0  0
  1  2  1  0  0  0  0
  2  3  1  0  0  0  0
  2  4  1  0  0  0  0
  2  5  1  0  0  0  0
  5  6  2  0  0  0  0
  5  7  1  0  0  0  0
  7  8  1  0  0  0  0
  7  9  1  0  0  0  0
  9 10  1  0  0  0  0
  9 11  1  0  0  0  0
  9 24  1  0  0  0  0
 11 12  1  0  0  0  0
 11 13  1  0  0  0  0
 11 17  1  0  0  0  0
 13 14  1  0  0  0  0
 13 15  1  0  0  0  0
 13 16  1  0  0  0  0
 17 18  1  0  0  0  0
 17 19  1  0  0  0  0
 17 20  1  0  0  0  0
 20 21  1  0  0  0  0
 20 22  1  0  0  0  0
 20 23  1  0  0  0  0
 24 25  2  0  0  0  0
 24 26  1  0  0  0  0
 26 27  1  0  0  0  0
 26 28  1  0  0  0  0
 28 29  1  0  0  0  0
 28 30  1  0  0  0  0
 28 31  1  0  0  0  0
M  END
$$$$

  -OEChem-01062216083D

 31 30  0     1  0  0  0  0  0999 V2000
   -3.4546   -3.0260    1.2342 H   0  0  0  0  0  0  0  0  0  0  0  0
   -3.3926   -1.9955    0.8724 C   0  0  0  0  0  0  0  0  0  0  0  0
   -4.0915   -1.3801    1.4438 H   0  0  0  0  0  0  0  0  0  0  0  0
   -3.6771   -1.9774   -0.1824 H   0  0  0  0  0  0  0  0  0  0  0  0
   -1.9793   -1.4677    1.0390 C   0  0  0  0  0  0  0  0  0  0  0  0
   -1.1519   -2.1775    1.5771 O   0  0  0  0  0  0  0  0  0  0  0  0
   -1.6967   -0.1856    0.5983 N   0  0  0  0  0  0  0  0  0  0  0  0
   -2.4739    0.2878    0.1499 H   0  0  0  0  0  0  0  0  0  0  0  0
   -0.3883    0.5117    0.5531 C   0  0  1  0  0  0  0  0  0  0  0  0
    0.0963    0.2349   -0.3897 H   0  0  0  0  0  0  0  0  0  0  0  0
   -0.6414    2.0507    0.5156 C   0  0  1  0  0  0  0  0  0  0  0  0
   -1.2322    2.3361    1.3925 H   0  0  0  0  0  0  0  0  0  0  0  0
    0.6896    2.8406    0.5204 C   0  0  0  0  0  0  0  0  0  0  0  0
    1.3028    2.5589   -0.3417 H   0  0  0  0  0  0  0  0  0  0  0  0
    0.5090    3.9172    0.4805 H   0  0  0  0  0  0  0  0  0  0  0  0
    1.2727    2.6581    1.4249 H   0  0  0  0  0  0  0  0  0  0  0  0
   -1.4108    2.4308   -0.7791 C   0  0  0  0  0  0  0  0  0  0  0  0
   -0.7658    2.2832   -1.6521 H   0  0  0  0  0  0  0  0  0  0  0  0
   -2.2787    1.7785   -0.9053 H   0  0  0  0  0  0  0  0  0  0  0  0
   -1.9337    3.8718   -0.7719 C   0  0  0  0  0  0  0  0  0  0  0  0
   -1.1147    4.5935   -0.8319 H   0  0  0  0  0  0  0  0  0  0  0  0
   -2.5862    4.0333   -1.6353 H   0  0  0  0  0  0  0  0  0  0  0  0
   -2.5103    4.0664    0.1377 H   0  0  0  0  0  0  0  0  0  0  0  0
    0.6088    0.0657    1.6594 C   0  0  0  0  0  0  0  0  0  0  0  0
    1.5738   -0.6188    1.3439 O   0  0  0  0  0  0  0  0  0  0  0  0
    0.6401    0.6953    2.8932 N   0  0  0  0  0  0  0  0  0  0  0  0
   -0.1821    1.2307    3.1499 H   0  0  0  0  0  0  0  0  0  0  0  0
    1.6077    0.3568    3.9294 C   0  0  0  0  0  0  0  0  0  0  0  0
    2.6275    0.5478    3.5791 H   0  0  0  0  0  0  0  0  0  0  0  0
    1.4317    0.9620    4.8237 H   0  0  0  0  0  0  0  0  0  0  0  0
    1.5212   -0.7005    4.2021 H   0  0  0  0  0  0  0  0  0  0  0  0
  1  2  1  0  0  0  0
  2  3  1  0  0  0  0
  2  4  1  0  0  0  0
  2  5  1  0  0  0  0
  5  6  2  0  0  0  0
  5  7  1  0  0  0  0
  7  8  1  0  0  0  0
  7  9  1  0  0  0  0
  9 10  1  0  0  0  0
  9 11  1  0  0  0  0
  9 24  1  0  0  0  0
 11 12  1  0  0  0  0
 11 13  1  0  0  0  0
 11 17  1  0  0  0  0
 13 14  1  0  0  0  0
 13 15  1  0  0  0  0
 13 16  1  0  0  0  0
 17 18  1  0  0  0  0
 17 19  1  0  0  0  0
 17 20  1  0  0  0  0
 20 21  1  0  0  0  0
 20 22  1  0  0  0  0
 20 23  1  0  0  0  0
 24 25  2  0  0  0  0
 24 26  1  0  0  0  0
 26 27  1  0  0  0  0
 26 28  1  0  0  0  0
 28 29  1  0  0  0  0
 28 30  1  0  0  0  0
 28 31  1  0  0  0  0
M  END
$$$$

  -OEChem-01062216083D

 31 30  0     1  0  0  0  0  0999 V2000
   -3.4452   -3.0321    1.2561 H   0  0  0  0  0  0  0  0  0  0  0  0
   -3.3922   -2.0037    0.8864 C   0  0  0  0  0  0  0  0  0  0  0  0
   -4.0833   -1.3861    1.4649 H   0  0  0  0  0  0  0  0  0  0  0  0
   -3.6948   -1.9940   -0.1636 H   0  0  0  0  0  0  0  0  0  0  0  0
   -1.9779   -1.4707    1.0253 C   0  0  0  0  0  0  0  0  0  0  0  0
   -1.1337   -2.1766    1.5431 O   0  0  0  0  0  0  0  0  0  0  0  0
   -1.7010   -0.1922    0.5725 N   0  0  0  0  0  0  0  0  0  0  0  0
   -2.4812    0.2854    0.1333 H   0  0  0  0  0  0  0  0  0  0  0  0
   -0.3899    0.4986    0.5269 C   0  0  1  0  0  0  0  0  0  0  0  0
    0.0923    0.2234   -0.4176 H   0  0  0  0  0  0  0  0  0  0  0  0
   -0.6362    2.0373    0.5057 C   0  0  1  0  0  0  0  0  0  0  0  0
   -1.2321    2.3084    1.3839 H   0  0  0  0  0  0  0  0  0  0  0  0
    0.6961    2.8200    0.5523 C   0  0  0  0  0  0  0  0  0  0  0  0
    1.3291    2.5480   -0.2985 H   0  0  0  0  0  0  0  0  0  0  0  0
    0.5218    3.8981    0.5248 H   0  0  0  0  0  0  0  0  0  0  0  0
    1.2509    2.6157    1.4718 H   0  0  0  0  0  0  0  0  0  0  0  0
   -1.4080    2.4381   -0.7799 C   0  0  0  0  0  0  0  0  0  0  0  0
   -0.7636    2.2987   -1.6546 H   0  0  0  0  0  0  0  0  0  0  0  0
   -2.2787    1.7910   -0.9126 H   0  0  0  0  0  0  0  0  0  0  0  0
   -1.9227    3.8815   -0.7536 C   0  0  0  0  0  0  0  0  0  0  0  0
   -1.0990    4.5992   -0.7902 H   0  0  0  0  0  0  0  0  0  0  0  0
   -2.5629    4.0622   -1.6223 H   0  0  0  0  0  0  0  0  0  0  0  0
   -2.5096    4.0631    0.1519 H   0  0  0  0  0  0  0  0  0  0  0  0
    0.6126    0.0722    1.6317 C   0  0  0  0  0  0  0  0  0  0  0  0
    1.6885   -0.4152    1.3077 O   0  0  0  0  0  0  0  0  0  0  0  0
    0.4436    0.5022    2.9369 N   0  0  0  0  0  0  0  0  0  0  0  0
   -0.4881    0.8161    3.1863 H   0  0  0  0  0  0  0  0  0  0  0  0
    1.3641    0.1352    4.0055 C   0  0  0  0  0  0  0  0  0  0  0  0
    2.3746    0.4941    3.7827 H   0  0  0  0  0  0  0  0  0  0  0  0
    1.0423    0.5808    4.9515 H   0  0  0  0  0  0  0  0  0  0  0  0
    1.3953   -0.9531    4.1251 H   0  0  0  0  0  0  0  0  0  0  0  0
  1  2  1  0  0  0  0
  2  3  1  0  0  0  0
  2  4  1  0  0  0  0
  2  5  1  0  0  0  0
  5  6  2  0  0  0  0
  5  7  1  0  0  0  0
  7  8  1  0  0  0  0
  7  9  1  0  0  0  0
  9 10  1  0  0  0  0
  9 11  1  0  0  0  0
  9 24  1  0  0  0  0
 11 12  1  0  0  0  0
 11 13  1  0  0  0  0
 11 17  1  0  0  0  0
 13 14  1  0  0  0  0
 13 15  1  0  0  0  0
 13 16  1  0  0  0  0
 17 18  1  0  0  0  0
 17 19  1  0  0  0  0
 17 20  1  0  0  0  0
 20 21  1  0  0  0  0
 20 22  1  0  0  0  0
 20 23  1  0  0  0  0
 24 25  2  0  0  0  0
 24 26  1  0  0  0  0
 26 27  1  0  0  0  0
 26 28  1  0  0  0  0
 28 29  1  0  0  0  0
 28 30  1  0  0  0  0
 28 31  1  0  0  0  0
M  END
$$$$

  -OEChem-01062216083D

 31 30  0     1  0  0  0  0  0999 V2000
   -3.4597   -3.0161    1.2696 H   0  0  0  0  0  0  0  0  0  0  0  0
   -3.4015   -1.9913    0.8914 C   0  0  0  0  0  0  0  0  0  0  0  0
   -4.0826   -1.3638    1.4712 H   0  0  0  0  0  0  0  0  0  0  0  0
   -3.7128   -1.9868   -0.1560 H   0  0  0  0  0  0  0  0  0  0  0  0
   -1.9818   -1.4691    1.0131 C   0  0  0  0  0  0  0  0  0  0  0  0
   -1.1335   -2.1796    1.5187 O   0  0  0  0  0  0  0  0  0  0  0  0
   -1.6976   -0.1955    0.5524 N   0  0  0  0  0  0  0  0  0  0  0  0
   -2.4780    0.2930    0.1255 H   0  0  0  0  0  0  0  0  0  0  0  0
   -0.3828    0.4892    0.5127 C   0  0  1  0  0  0  0  0  0  0  0  0
    0.1044    0.2146   -0.4294 H   0  0  0  0  0  0  0  0  0  0  0  0
   -0.6342    2.0272    0.4994 C   0  0  1  0  0  0  0  0  0  0  0  0
   -1.2391    2.2857    1.3754 H   0  0  0  0  0  0  0  0  0  0  0  0
    0.6903    2.8188    0.5764 C   0  0  0  0  0  0  0  0  0  0  0  0
    1.3452    2.5525   -0.2594 H   0  0  0  0  0  0  0  0  0  0  0  0
    0.5103    3.8960    0.5473 H   0  0  0  0  0  0  0  0  0  0  0  0
    1.2212    2.6142    1.5106 H   0  0  0  0  0  0  0  0  0  0  0  0
   -1.4039    2.4365   -0.7846 C   0  0  0  0  0  0  0  0  0  0  0  0
   -0.7553    2.3078   -1.6577 H   0  0  0  0  0  0  0  0  0  0  0  0
   -2.2717    1.7880   -0.9277 H   0  0  0  0  0  0  0  0  0  0  0  0
   -1.9220    3.8783   -0.7485 C   0  0  0  0  0  0  0  0  0  0  0  0
   -1.0994    4.5977   -0.7799 H   0  0  0  0  0  0  0  0  0  0  0  0
   -2.5624    4.0635   -1.6164 H   0  0  0  0  0  0  0  0  0  0  0  0
   -2.5098    4.0528    0.1580 H   0  0  0  0  0  0  0  0  0  0  0  0
    0.6186    0.0788    1.6226 C   0  0  0  0  0  0  0  0  0  0  0  0
    1.7725   -0.1988    1.3190 O   0  0  0  0  0  0  0  0  0  0  0  0
    0.2948    0.2574    2.9559 N   0  0  0  0  0  0  0  0  0  0  0  0
   -0.6963    0.3338    3.1575 H   0  0  0  0  0  0  0  0  0  0  0  0
    1.1868   -0.1575    4.0304 C   0  0  0  0  0  0  0  0  0  0  0  0
    2.1489    0.3596    3.9515 H   0  0  0  0  0  0  0  0  0  0  0  0
    0.7462    0.0827    5.0025 H   0  0  0  0  0  0  0  0  0  0  0  0
    1.3619   -1.2376    3.9840 H   0  0  0  0  0  0  0  0  0  0  0  0
  1  2  1  0  0  0  0
  2  3  1  0  0  0  0
  2  4  1  0  0  0  0
  2  5  1  0  0  0  0
  5  6  2  0  0  0  0
  5  7  1  0  0  0  0
  7  8  1  0  0  0  0
  7  9  1  0  0  0  0
  9 10  1  0  0  0  0
  9 11  1  0  0  0  0
  9 24  1  0  0  0  0
 11 12  1  0  0  0  0
 11 13  1  0  0  0  0
 11 17  1  0  0  0  0
 13 14  1  0  0  0  0
 13 15  1  0  0  0  0
 13 16  1  0  0  0  0
 17 18  1  0  0  0  0
 17 19  1  0  0  0  0
 17 20  1  0  0  0  0
 20 21  1  0  0  0  0
 20 22  1  0  0  0  0
 20 23  1  0  0  0  0
 24 25  2  0  0  0  0
 24 26  1  0  0  0  0
 26 27  1  0  0  0  0
 26 28  1  0  0  0  0
 28 29  1  0  0  0  0
 28 30  1  0  0  0  0
 28 31  1  0  0  0  0
M  END
$$$$

  -OEChem-01062216083D

 31 30  0     1  0  0  0  0  0999 V2000
   -3.5151   -2.9750    1.2583 H   0  0  0  0  0  0  0  0  0  0  0  0
   -3.4353   -1.9518    0.8797 C   0  0  0  0  0  0  0  0  0  0  0  0
   -4.0949   -1.3076    1.4661 H   0  0  0  0  0  0  0  0  0  0  0  0
   -3.7568   -1.9389   -0.1646 H   0  0  0  0  0  0  0  0  0  0  0  0
   -2.0024   -1.4648    0.9872 C   0  0  0  0  0  0  0  0  0  0  0  0
   -1.1618   -2.2002    1.4693 O   0  0  0  0  0  0  0  0  0  0  0  0
   -1.6929   -0.1960    0.5326 N   0  0  0  0  0  0  0  0  0  0  0  0
   -2.4700    0.3190    0.1312 H   0  0  0  0  0  0  0  0  0  0  0  0
   -0.3721    0.4805    0.5151 C   0  0  1  0  0  0  0  0  0  0  0  0
    0.1270    0.2093   -0.4216 H   0  0  0  0  0  0  0  0  0  0  0  0
   -0.6402    2.0176    0.5010 C   0  0  1  0  0  0  0  0  0  0  0  0
   -1.2645    2.2638    1.3670 H   0  0  0  0  0  0  0  0  0  0  0  0
    0.6671    2.8326    0.6092 C   0  0  0  0  0  0  0  0  0  0  0  0
    1.3524    2.5673   -0.2022 H   0  0  0  0  0  0  0  0  0  0  0  0
    0.4718    3.9061    0.5618 H   0  0  0  0  0  0  0  0  0  0  0  0
    1.1692    2.6474    1.5632 H   0  0  0  0  0  0  0  0  0  0  0  0
   -1.3942    2.4227   -0.7949 C   0  0  0  0  0  0  0  0  0  0  0  0
   -0.7299    2.3027   -1.6575 H   0  0  0  0  0  0  0  0  0  0  0  0
   -2.2536    1.7671   -0.9550 H   0  0  0  0  0  0  0  0  0  0  0  0
   -1.9283    3.8589   -0.7635 C   0  0  0  0  0  0  0  0  0  0  0  0
   -1.1143    4.5881   -0.7923 H   0  0  0  0  0  0  0  0  0  0  0  0
   -2.5668    4.0358   -1.6344 H   0  0  0  0  0  0  0  0  0  0  0  0
   -2.5222    4.0276    0.1401 H   0  0  0  0  0  0  0  0  0  0  0  0
    0.6267    0.0827    1.6354 C   0  0  0  0  0  0  0  0  0  0  0  0
    1.8212    0.0019    1.3741 O   0  0  0  0  0  0  0  0  0  0  0  0
    0.2143   -0.0259    2.9515 N   0  0  0  0  0  0  0  0  0  0  0  0
   -0.7795   -0.1929    3.0705 H   0  0  0  0  0  0  0  0  0  0  0  0
    1.1089   -0.4893    4.0043 C   0  0  0  0  0  0  0  0  0  0  0  0
    1.9843    0.1642    4.0809 H   0  0  0  0  0  0  0  0  0  0  0  0
    0.5914   -0.4845    4.9682 H   0  0  0  0  0  0  0  0  0  0  0  0
    1.4472   -1.5098    3.7951 H   0  0  0  0  0  0  0  0  0  0  0  0
  1  2  1  0  0  0  0
  2  3  1  0  0  0  0
  2  4  1  0  0  0  0
  2  5  1  0  0  0  0
  5  6  2  0  0  0  0
  5  7  1  0  0  0  0
  7  8  1  0  0  0  0
  7  9  1  0  0  0  0
  9 10  1  0  0  0  0
  9 11  1  0  0  0  0
  9 24  1  0  0  0  0
 11 12  1  0  0  0  0
 11 13  1  0  0  0  0
 11 17  1  0  0  0  0
 13 14  1  0  0  0  0
 13 15  1  0  0  0  0
 13 16  1  0  0  0  0
 17 18  1  0  0  0  0
 17 19  1  0  0  0  0
 17 20  1  0  0  0  0
 20 21  1  0  0  0  0
 20 22  1  0  0  0  0
 20 23  1  0  0  0  0
 24 25  2  0  0  0  0
 24 26  1  0  0  0  0
 26 27  1  0  0  0  0
 26 28  1  0  0  0  0
 28 29  1  0  0  0  0
 28 30  1  0  0  0  0
 28 31  1  0  0  0  0
M  END
$$$$

  -OEChem-01062216083D

 31 30  0     1  0  0  0  0  0999 V2000
   -3.6228   -2.9141    1.2089 H   0  0  0  0  0  0  0  0  0  0  0  0
   -3.5043   -1.8897    0.8440 C   0  0  0  0  0  0  0  0  0  0  0  0
   -4.1331   -1.2280    1.4445 H   0  0  0  0  0  0  0  0  0  0  0  0
   -3.8332   -1.8486   -0.1973 H   0  0  0  0  0  0  0  0  0  0  0  0
   -2.0522   -1.4619    0.9468 C   0  0  0  0  0  0  0  0  0  0  0  0
   -1.2363   -2.2390    1.4056 O   0  0  0  0  0  0  0  0  0  0  0  0
   -1.6971   -0.1979    0.5149 N   0  0  0  0  0  0  0  0  0  0  0  0
   -2.4651    0.3576    0.1515 H   0  0  0  0  0  0  0  0  0  0  0  0
   -0.3665    0.4630    0.5314 C   0  0  1  0  0  0  0  0  0  0  0  0
    0.1458    0.1959   -0.3989 H   0  0  0  0  0  0  0  0  0  0  0  0
   -0.6529    2.0006    0.5112 C   0  0  1  0  0  0  0  0  0  0  0  0
   -1.3058    2.2336    1.3598 H   0  0  0  0  0  0  0  0  0  0  0  0
    0.6302    2.8465    0.6618 C   0  0  0  0  0  0  0  0  0  0  0  0
    1.3544    2.5880   -0.1174 H   0  0  0  0  0  0  0  0  0  0  0  0
    0.4151    3.9151    0.5948 H   0  0  0  0  0  0  0  0  0  0  0  0
    1.0943    2.6834    1.6389 H   0  0  0  0  0  0  0  0  0  0  0  0
   -1.3791    2.3996   -0.8044 C   0  0  0  0  0  0  0  0  0  0  0  0
   -0.6903    2.2886   -1.6487 H   0  0  0  0  0  0  0  0  0  0  0  0
   -2.2260    1.7349   -0.9905 H   0  0  0  0  0  0  0  0  0  0  0  0
   -1.9321    3.8290   -0.7894 C   0  0  0  0  0  0  0  0  0  0  0  0
   -1.1274    4.5687   -0.8077 H   0  0  0  0  0  0  0  0  0  0  0  0
   -2.5564    3.9933   -1.6729 H   0  0  0  0  0  0  0  0  0  0  0  0
   -2.5448    3.9942    0.1022 H   0  0  0  0  0  0  0  0  0  0  0  0
    0.6325    0.0696    1.6595 C   0  0  0  0  0  0  0  0  0  0  0  0
    1.8361    0.1775    1.4534 O   0  0  0  0  0  0  0  0  0  0  0  0
    0.2098   -0.3374    2.9118 N   0  0  0  0  0  0  0  0  0  0  0  0
   -0.7168   -0.7565    2.9094 H   0  0  0  0  0  0  0  0  0  0  0  0
    1.1461   -0.8104    3.9240 C   0  0  0  0  0  0  0  0  0  0  0  0
    1.8870   -0.0376    4.1549 H   0  0  0  0  0  0  0  0  0  0  0  0
    0.6107   -1.0587    4.8451 H   0  0  0  0  0  0  0  0  0  0  0  0
    1.6683   -1.7064    3.5723 H   0  0  0  0  0  0  0  0  0  0  0  0
  1  2  1  0  0  0  0
  2  3  1  0  0  0  0
  2  4  1  0  0  0  0
  2  5  1  0  0  0  0
  5  6  2  0  0  0  0
  5  7  1  0  0  0  0
  7  8  1  0  0  0  0
  7  9  1  0  0  0  0
  9 10  1  0  0  0  0
  9 11  1  0  0  0  0
  9 24  1  0  0  0  0
 11 12  1  0  0  0  0
 11 13  1  0  0  0  0
 11 17  1  0  0  0  0
 13 14  1  0  0  0  0
 13 15  1  0  0  0  0
 13 16  1  0  0  0  0
 17 18  1  0  0  0  0
 17 19  1  0  0  0  0
 17 20  1  0  0  0  0
 20 21  1  0  0  0  0
 20 22  1  0  0  0  0
 20 23  1  0  0  0  0
 24 25  2  0  0  0  0
 24 26  1  0  0  0  0
 26 27  1  0  0  0  0
 26 28  1  0  0  0  0
 28 29  1  0  0  0  0
 28 30  1  0  0  0  0
 28 31  1  0  0  0  0
M  END
$$$$

  -OEChem-01062216083D

 31 30  0     1  0  0  0  0  0999 V2000
   -3.7169   -2.8420    1.1943 H   0  0  0  0  0  0  0  0  0  0  0  0
   -3.5623   -1.8202    0.8358 C   0  0  0  0  0  0  0  0  0  0  0  0
   -4.1369   -1.1366    1.4655 H   0  0  0  0  0  0  0  0  0  0  0  0
   -3.9258   -1.7514   -0.1923 H   0  0  0  0  0  0  0  0  0  0  0  0
   -2.0885   -1.4632    0.8904 C   0  0  0  0  0  0  0  0  0  0  0  0
   -1.2891   -2.3047    1.2563 O   0  0  0  0  0  0  0  0  0  0  0  0
   -1.6926   -0.2013    0.4901 N   0  0  0  0  0  0  0  0  0  0  0  0
   -2.4562    0.4006    0.1980 H   0  0  0  0  0  0  0  0  0  0  0  0
   -0.3550    0.4472    0.5431 C   0  0  1  0  0  0  0  0  0  0  0  0
    0.1722    0.1886   -0.3809 H   0  0  0  0  0  0  0  0  0  0  0  0
   -0.6636    1.9852    0.5194 C   0  0  1  0  0  0  0  0  0  0  0  0
   -1.3445    2.2040    1.3492 H   0  0  0  0  0  0  0  0  0  0  0  0
    0.5913    2.8643    0.7099 C   0  0  0  0  0  0  0  0  0  0  0  0
    1.3526    2.6142   -0.0361 H   0  0  0  0  0  0  0  0  0  0  0  0
    0.3558    3.9267    0.6219 H   0  0  0  0  0  0  0  0  0  0  0  0
    1.0162    2.7248    1.7078 H   0  0  0  0  0  0  0  0  0  0  0  0
   -1.3623    2.3777   -0.8155 C   0  0  0  0  0  0  0  0  0  0  0  0
   -0.6479    2.2801   -1.6399 H   0  0  0  0  0  0  0  0  0  0  0  0
   -2.1934    1.7016   -1.0298 H   0  0  0  0  0  0  0  0  0  0  0  0
   -1.9382    3.7986   -0.8159 C   0  0  0  0  0  0  0  0  0  0  0  0
   -1.1458    4.5516   -0.8239 H   0  0  0  0  0  0  0  0  0  0  0  0
   -2.5498    3.9490   -1.7108 H   0  0  0  0  0  0  0  0  0  0  0  0
   -2.5692    3.9574    0.0641 H   0  0  0  0  0  0  0  0  0  0  0  0
    0.6403    0.0476    1.6796 C   0  0  0  0  0  0  0  0  0  0  0  0
    1.8288    0.3187    1.5508 O   0  0  0  0  0  0  0  0  0  0  0  0
    0.2640   -0.6443    2.8164 N   0  0  0  0  0  0  0  0  0  0  0  0
   -0.5800   -1.2015    2.6907 H   0  0  0  0  0  0  0  0  0  0  0  0
    1.2355   -1.1350    3.7870 C   0  0  0  0  0  0  0  0  0  0  0  0
    1.8268   -0.3072    4.1922 H   0  0  0  0  0  0  0  0  0  0  0  0
    0.7220   -1.6284    4.6176 H   0  0  0  0  0  0  0  0  0  0  0  0
    1.9131   -1.8569    3.3190 H   0  0  0  0  0  0  0  0  0  0  0  0
  1  2  1  0  0  0  0
  2  3  1  0  0  0  0
  2  4  1  0  0  0  0
  2  5  1  0  0  0  0
  5  6  2  0  0  0  0
  5  7  1  0  0  0  0
  7  8  1  0  0  0  0
  7  9  1  0  0  0  0
  9 10  1  0  0  0  0
  9 11  1  0  0  0  0
  9 24  1  0  0  0  0
 11 12  1  0  0  0  0
 11 13  1  0  0  0  0
 11 17  1  0  0  0  0
 13 14  1  0  0  0  0
 13 15  1  0  0  0  0
 13 16  1  0  0  0  0
 17 18  1  0  0  0  0
 17 19  1  0  0  0  0
 17 20  1  0  0  0  0
 20 21  1  0  0  0  0
 20 22  1  0  0  0  0
 20 23  1  0  0  0  0
 24 25  2  0  0  0  0
 24 26  1  0  0  0  0
 26 27  1  0  0  0  0
 26 28  1  0  0  0  0
 28 29  1  0  0  0  0
 28 30  1  0  0  0  0
 28 31  1  0  0  0  0
M  END
$$$$

  -OEChem-01062216083D

 31 30  0     1  0  0  0  0  0999 V2000
   -3.7701   -2.7802    1.2143 H   0  0  0  0  0  0  0  0  0  0  0  0
   -3.5930   -1.7606    0.8598 C   0  0  0  0  0  0  0  0  0  0  0  0
   -4.1034   -1.0637    1.5291 H   0  0  0  0  0  0  0  0  0  0  0  0
   -4.0084   -1.6612   -0.1461 H   0  0  0  0  0  0  0  0  0  0  0  0
   -2.1051   -1.4645    0.8367 C   0  0  0  0  0  0  0  0  0  0  0  0
   -1.3204   -2.3650    1.0717 O   0  0  0  0  0  0  0  0  0  0  0  0
   -1.6836   -0.2008    0.4706 N   0  0  0  0  0  0  0  0  0  0  0  0
   -2.4466    0.4381    0.2688 H   0  0  0  0  0  0  0  0  0  0  0  0
   -0.3425    0.4397    0.5559 C   0  0  1  0  0  0  0  0  0  0  0  0
    0.1981    0.1889   -0.3625 H   0  0  0  0  0  0  0  0  0  0  0  0
   -0.6716    1.9780    0.5251 C   0  0  1  0  0  0  0  0  0  0  0  0
   -1.3769    2.1856    1.3374 H   0  0  0  0  0  0  0  0  0  0  0  0
    0.5546    2.8899    0.7463 C   0  0  0  0  0  0  0  0  0  0  0  0
    1.3492    2.6453    0.0340 H   0  0  0  0  0  0  0  0  0  0  0  0
    0.3006    3.9453    0.6312 H   0  0  0  0  0  0  0  0  0  0  0  0
    0.9421    2.7792    1.7629 H   0  0  0  0  0  0  0  0  0  0  0  0
   -1.3446    2.3598   -0.8282 C   0  0  0  0  0  0  0  0  0  0  0  0
   -0.6091    2.2706   -1.6350 H   0  0  0  0  0  0  0  0  0  0  0  0
   -2.1612    1.6732   -1.0633 H   0  0  0  0  0  0  0  0  0  0  0  0
   -1.9414    3.7724   -0.8484 C   0  0  0  0  0  0  0  0  0  0  0  0
   -1.1606    4.5375   -0.8513 H   0  0  0  0  0  0  0  0  0  0  0  0
   -2.5413    3.9068   -1.7537 H   0  0  0  0  0  0  0  0  0  0  0  0
   -2.5882    3.9290    0.0204 H   0  0  0  0  0  0  0  0  0  0  0  0
    0.6459    0.0224    1.6994 C   0  0  0  0  0  0  0  0  0  0  0  0
    1.7959    0.4447    1.6808 O   0  0  0  0  0  0  0  0  0  0  0  0
    0.3621   -0.9212    2.6698 N   0  0  0  0  0  0  0  0  0  0  0  0
   -0.4184   -1.5362    2.4404 H   0  0  0  0  0  0  0  0  0  0  0  0
    1.3684   -1.4449    3.5869 C   0  0  0  0  0  0  0  0  0  0  0  0
    1.8105   -0.6349    4.1764 H   0  0  0  0  0  0  0  0  0  0  0  0
    0.9124   -2.1617    4.2763 H   0  0  0  0  0  0  0  0  0  0  0  0
    2.1642   -1.9533    3.0325 H   0  0  0  0  0  0  0  0  0  0  0  0
  1  2  1  0  0  0  0
  2  3  1  0  0  0  0
  2  4  1  0  0  0  0
  2  5  1  0  0  0  0
  5  6  2  0  0  0  0
  5  7  1  0  0  0  0
  7  8  1  0  0  0  0
  7  9  1  0  0  0  0
  9 10  1  0  0  0  0
  9 11  1  0  0  0  0
  9 24  1  0  0  0  0
 11 12  1  0  0  0  0
 11 13  1  0  0  0  0
 11 17  1  0  0  0  0
 13 14  1  0  0  0  0
 13 15  1  0  0  0  0
 13 16  1  0  0  0  0
 17 18  1  0  0  0  0
 17 19  1  0  0  0  0
 17 20  1  0  0  0  0
 20 21  1  0  0  0  0
 20 22  1  0  0  0  0
 20 23  1  0  0  0  0
 24 25  2  0  0  0  0
 24 26  1  0  0  0  0
 26 27  1  0  0  0  0
 26 28  1  0  0  0  0
 28 29  1  0  0  0  0
 28 30  1  0  0  0  0
 28 31  1  0  0  0  0
M  END
$$$$

  -OEChem-01062216083D

 31 30  0     1  0  0  0  0  0999 V2000
   -3.7942   -2.7168    1.3662 H   0  0  0  0  0  0  0  0  0  0  0  0
   -3.6129   -1.6972    1.0137 C   0  0  0  0  0  0  0  0  0  0  0  0
   -4.0284   -0.9962    1.7419 H   0  0  0  0  0  0  0  0  0  0  0  0
   -4.1205   -1.5610    0.0555 H   0  0  0  0  0  0  0  0  0  0  0  0
   -2.1237   -1.4566    0.8505 C   0  0  0  0  0  0  0  0  0  0  0  0
   -1.3610   -2.4032    0.9257 O   0  0  0  0  0  0  0  0  0  0  0  0
   -1.6886   -0.1958    0.4911 N   0  0  0  0  0  0  0  0  0  0  0  0
   -2.4483    0.4703    0.3892 H   0  0  0  0  0  0  0  0  0  0  0  0
   -0.3386    0.4305    0.5553 C   0  0  1  0  0  0  0  0  0  0  0  0
    0.1850    0.1691   -0.3698 H   0  0  0  0  0  0  0  0  0  0  0  0
   -0.6674    1.9724    0.5034 C   0  0  1  0  0  0  0  0  0  0  0  0
   -1.3643    2.1955    1.3189 H   0  0  0  0  0  0  0  0  0  0  0  0
    0.5556    2.8982    0.6856 C   0  0  0  0  0  0  0  0  0  0  0  0
    1.3635    2.6061    0.0069 H   0  0  0  0  0  0  0  0  0  0  0  0
    0.3091    3.9440    0.4964 H   0  0  0  0  0  0  0  0  0  0  0  0
    0.9207    2.8577    1.7153 H   0  0  0  0  0  0  0  0  0  0  0  0
   -1.3533    2.3279   -0.8528 C   0  0  0  0  0  0  0  0  0  0  0  0
   -0.6256    2.2212   -1.6645 H   0  0  0  0  0  0  0  0  0  0  0  0
   -2.1724    1.6370   -1.0664 H   0  0  0  0  0  0  0  0  0  0  0  0
   -1.9536    3.7388   -0.9005 C   0  0  0  0  0  0  0  0  0  0  0  0
   -1.1764    4.5055   -0.9537 H   0  0  0  0  0  0  0  0  0  0  0  0
   -2.5818    3.8422   -1.7905 H   0  0  0  0  0  0  0  0  0  0  0  0
   -2.5734    3.9223   -0.0175 H   0  0  0  0  0  0  0  0  0  0  0  0
    0.6650   -0.0153    1.6815 C   0  0  0  0  0  0  0  0  0  0  0  0
    1.7366    0.5608    1.8160 O   0  0  0  0  0  0  0  0  0  0  0  0
    0.5187   -1.1523    2.4551 N   0  0  0  0  0  0  0  0  0  0  0  0
   -0.1948   -1.8069    2.1350 H   0  0  0  0  0  0  0  0  0  0  0  0
    1.5558   -1.6710    3.3406 C   0  0  0  0  0  0  0  0  0  0  0  0
    1.8450   -0.9155    4.0787 H   0  0  0  0  0  0  0  0  0  0  0  0
    1.1867   -2.5506    3.8765 H   0  0  0  0  0  0  0  0  0  0  0  0
    2.4412   -1.9604    2.7650 H   0  0  0  0  0  0  0  0  0  0  0  0
  1  2  1  0  0  0  0
  2  3  1  0  0  0  0
  2  4  1  0  0  0  0
  2  5  1  0  0  0  0
  5  6  2  0  0  0  0
  5  7  1  0  0  0  0
  7  8  1  0  0  0  0
  7  9  1  0  0  0  0
  9 10  1  0  0  0  0
  9 11  1  0  0  0  0
  9 24  1  0  0  0  0
 11 12  1  0  0  0  0
 11 13  1  0  0  0  0
 11 17  1  0  0  0  0
 13 14  1  0  0  0  0
 13 15  1  0  0  0  0
 13 16  1  0  0  0  0
 17 18  1  0  0  0  0
 17 19  1  0  0  0  0
 17 20  1  0  0  0  0
 20 21  1  0  0  0  0
 20 22  1  0  0  0  0
 20 23  1  0  0  0  0
 24 25  2  0  0  0  0
 24 26  1  0  0  0  0
 26 27  1  0  0  0  0
 26 28  1  0  0  0  0
 28 29  1  0  0  0  0
 28 30  1  0  0  0  0
 28 31  1  0  0  0  0
M  END
$$$$

  -OEChem-01062216083D

 31 30  0     1  0  0  0  0  0999 V2000
   -3.1852   -2.9938    1.5967 H   0  0  0  0  0  0  0  0  0  0  0  0
   -3.1223   -1.9194    1.4015 C   0  0  0  0  0  0  0  0  0  0  0  0
   -3.2875   -1.3821    2.3382 H   0  0  0  0  0  0  0  0  0  0  0  0
   -3.9037   -1.6457    0.6882 H   0  0  0  0  0  0  0  0  0  0  0  0
   -1.7585   -1.5703    0.8356 C   0  0  0  0  0  0  0  0  0  0  0  0
   -0.9901   -2.4675    0.5439 O   0  0  0  0  0  0  0  0  0  0  0  0
   -1.4973   -0.2641    0.4766 N   0  0  0  0  0  0  0  0  0  0  0  0
   -2.2829    0.3573    0.6398 H   0  0  0  0  0  0  0  0  0  0  0  0
   -0.1891    0.4290    0.3487 C   0  0  1  0  0  0  0  0  0  0  0  0
    0.1722    0.2404   -0.6675 H   0  0  0  0  0  0  0  0  0  0  0  0
   -0.5855    1.9512    0.4492 C   0  0  1  0  0  0  0  0  0  0  0  0
   -1.1419    2.0911    1.3824 H   0  0  0  0  0  0  0  0  0  0  0  0
    0.6117    2.9253    0.4874 C   0  0  0  0  0  0  0  0  0  0  0  0
    1.2854    2.7393   -0.3551 H   0  0  0  0  0  0  0  0  0  0  0  0
    0.2895    3.9672    0.4469 H   0  0  0  0  0  0  0  0  0  0  0  0
    1.1692    2.8164    1.4215 H   0  0  0  0  0  0  0  0  0  0  0  0
   -1.5094    2.3453   -0.7438 C   0  0  0  0  0  0  0  0  0  0  0  0
   -0.9294    2.3208   -1.6726 H   0  0  0  0  0  0  0  0  0  0  0  0
   -2.3238    1.6256   -0.8573 H   0  0  0  0  0  0  0  0  0  0  0  0
   -2.1645    3.7244   -0.5974 C   0  0  0  0  0  0  0  0  0  0  0  0
   -1.4363    4.5301   -0.7216 H   0  0  0  0  0  0  0  0  0  0  0  0
   -2.9328    3.8508   -1.3663 H   0  0  0  0  0  0  0  0  0  0  0  0
   -2.6387    3.8225    0.3840 H   0  0  0  0  0  0  0  0  0  0  0  0
    1.0268    0.0054    1.2533 C   0  0  0  0  0  0  0  0  0  0  0  0
    2.1057    0.5553    1.0956 O   0  0  0  0  0  0  0  0  0  0  0  0
    1.3096   -1.2273    1.7860 N   0  0  0  0  0  0  0  0  0  0  0  0
    2.3168   -1.3594    1.8171 H   0  0  0  0  0  0  0  0  0  0  0  0
    0.6068   -1.6854    2.9777 C   0  0  0  0  0  0  0  0  0  0  0  0
   -0.3125   -1.1162    3.1465 H   0  0  0  0  0  0  0  0  0  0  0  0
    0.3489   -2.7447    2.8791 H   0  0  0  0  0  0  0  0  0  0  0  0
    1.2464   -1.5638    3.8576 H   0  0  0  0  0  0  0  0  0  0  0  0
  1  2  1  0  0  0  0
  2  3  1  0  0  0  0
  2  4  1  0  0  0  0
  2  5  1  0  0  0  0
  5  6  2  0  0  0  0
  5  7  1  0  0  0  0
  7  8  1  0  0  0  0
  7  9  1  0  0  0  0
  9 10  1  0  0  0  0
  9 11  1  0  0  0  0
  9 24  1  0  0  0  0
 11 12  1  0  0  0  0
 11 13  1  0  0  0  0
 11 17  1  0  0  0  0
 13 14  1  0  0  0  0
 13 15  1  0  0  0  0
 13 16  1  0  0  0  0
 17 18  1  0  0  0  0
 17 19  1  0  0  0  0
 17 20  1  0  0  0  0
 20 21  1  0  0  0  0
 20 22  1  0  0  0  0
 20 23  1  0  0  0  0
 24 25  2  0  0  0  0
 24 26  1  0  0  0  0
 26 27  1  0  0  0  0
 26 28  1  0  0  0  0
 28 29  1  0  0  0  0
 28 30  1  0  0  0  0
 28 31  1  0  0  0  0
M  END
$$$$

  -OEChem-01062216083D

 31 30  0     1  0  0  0  0  0999 V2000
   -3.5150   -2.8880    1.3642 H   0  0  0  0  0  0  0  0  0  0  0  0
   -3.4270   -1.8269    1.1141 C   0  0  0  0  0  0  0  0  0  0  0  0
   -3.7206   -1.2369    1.9858 H   0  0  0  0  0  0  0  0  0  0  0  0
   -4.1027   -1.6030    0.2849 H   0  0  0  0  0  0  0  0  0  0  0  0
   -1.9984   -1.4998    0.7217 C   0  0  0  0  0  0  0  0  0  0  0  0
   -1.2237   -2.4120    0.4892 O   0  0  0  0  0  0  0  0  0  0  0  0
   -1.6602   -0.1891    0.4460 N   0  0  0  0  0  0  0  0  0  0  0  0
   -2.4443    0.4452    0.5667 H   0  0  0  0  0  0  0  0  0  0  0  0
   -0.3374    0.4888    0.5153 C   0  0  1  0  0  0  0  0  0  0  0  0
    0.1711    0.2773   -0.4305 H   0  0  0  0  0  0  0  0  0  0  0  0
   -0.6513    2.0299    0.5159 C   0  0  1  0  0  0  0  0  0  0  0  0
   -1.3151    2.2600    1.3562 H   0  0  0  0  0  0  0  0  0  0  0  0
    0.6219    2.9047    0.6378 C   0  0  0  0  0  0  0  0  0  0  0  0
    1.4317    2.4906    0.0291 H   0  0  0  0  0  0  0  0  0  0  0  0
    0.4512    3.9329    0.3177 H   0  0  0  0  0  0  0  0  0  0  0  0
    0.9557    2.9693    1.6758 H   0  0  0  0  0  0  0  0  0  0  0  0
   -1.3507    2.4132   -0.8244 C   0  0  0  0  0  0  0  0  0  0  0  0
   -0.6381    2.3152   -1.6505 H   0  0  0  0  0  0  0  0  0  0  0  0
   -2.1762    1.7273   -1.0310 H   0  0  0  0  0  0  0  0  0  0  0  0
   -1.9477    3.8273   -0.8400 C   0  0  0  0  0  0  0  0  0  0  0  0
   -1.1728    4.5960   -0.8884 H   0  0  0  0  0  0  0  0  0  0  0  0
   -2.5868    3.9468   -1.7202 H   0  0  0  0  0  0  0  0  0  0  0  0
   -2.5571    3.9954    0.0532 H   0  0  0  0  0  0  0  0  0  0  0  0
    0.6805   -0.0488    1.5869 C   0  0  0  0  0  0  0  0  0  0  0  0
    1.2141    0.6943    2.3983 O   0  0  0  0  0  0  0  0  0  0  0  0
    0.9245   -1.3935    1.7884 N   0  0  0  0  0  0  0  0  0  0  0  0
    0.3907   -2.0434    1.2073 H   0  0  0  0  0  0  0  0  0  0  0  0
    1.7617   -1.9371    2.8515 C   0  0  0  0  0  0  0  0  0  0  0  0
    1.3474   -1.6851    3.8332 H   0  0  0  0  0  0  0  0  0  0  0  0
    1.8145   -3.0267    2.7672 H   0  0  0  0  0  0  0  0  0  0  0  0
    2.7786   -1.5365    2.7821 H   0  0  0  0  0  0  0  0  0  0  0  0
  1  2  1  0  0  0  0
  2  3  1  0  0  0  0
  2  4  1  0  0  0  0
  2  5  1  0  0  0  0
  5  6  2  0  0  0  0
  5  7  1  0  0  0  0
  7  8  1  0  0  0  0
  7  9  1  0  0  0  0
  9 10  1  0  0  0  0
  9 11  1  0  0  0  0
  9 24  1  0  0  0  0
 11 12  1  0  0  0  0
 11 13  1  0  0  0  0
 11 17  1  0  0  0  0
 13 14  1  0  0  0  0
 13 15  1  0  0  0  0
 13 16  1  0  0  0  0
 17 18  1  0  0  0  0
 17 19  1  0  0  0  0
 17 20  1  0  0  0  0
 20 21  1  0  0  0  0
 20 22  1  0  0  0  0
 20 23  1  0  0  0  0
 24 25  2  0  0  0  0
 24 26  1  0  0  0  0
 26 27  1  0  0  0  0
 26 28  1  0  0  0  0
 28 29  1  0  0  0  0
 28 30  1  0  0  0  0
 28 31  1  0  0  0  0
M  END
$$$$

  -OEChem-01062216083D

 31 30  0     1  0  0  0  0  0999 V2000
   -3.3373   -2.9689    1.4171 H   0  0  0  0  0  0  0  0  0  0  0  0
   -3.2984   -1.9011    1.1835 C   0  0  0  0  0  0  0  0  0  0  0  0
   -3.5620   -1.3375    2.0819 H   0  0  0  0  0  0  0  0  0  0  0  0
   -4.0266   -1.6848    0.3980 H   0  0  0  0  0  0  0  0  0  0  0  0
   -1.9055   -1.5181    0.7204 C   0  0  0  0  0  0  0  0  0  0  0  0
   -1.0986   -2.3964    0.4649 O   0  0  0  0  0  0  0  0  0  0  0  0
   -1.6343   -0.1988    0.4140 N   0  0  0  0  0  0  0  0  0  0  0  0
   -2.4305    0.4102    0.5781 H   0  0  0  0  0  0  0  0  0  0  0  0
   -0.3284    0.5077    0.4578 C   0  0  1  0  0  0  0  0  0  0  0  0
    0.1738    0.3050   -0.4934 H   0  0  0  0  0  0  0  0  0  0  0  0
   -0.6323    2.0441    0.4866 C   0  0  1  0  0  0  0  0  0  0  0  0
   -1.2622    2.2700    1.3540 H   0  0  0  0  0  0  0  0  0  0  0  0
    0.6599    2.8962    0.5654 C   0  0  0  0  0  0  0  0  0  0  0  0
    1.3666    2.5922   -0.2128 H   0  0  0  0  0  0  0  0  0  0  0  0
    0.4466    3.9592    0.4393 H   0  0  0  0  0  0  0  0  0  0  0  0
    1.1522    2.8047    1.5348 H   0  0  0  0  0  0  0  0  0  0  0  0
   -1.3640    2.4495   -0.8263 C   0  0  0  0  0  0  0  0  0  0  0  0
   -0.6786    2.3581   -1.6756 H   0  0  0  0  0  0  0  0  0  0  0  0
   -2.2002    1.7711   -1.0143 H   0  0  0  0  0  0  0  0  0  0  0  0
   -1.9479    3.8674   -0.7974 C   0  0  0  0  0  0  0  0  0  0  0  0
   -1.1634    4.6273   -0.8361 H   0  0  0  0  0  0  0  0  0  0  0  0
   -2.5982    4.0164   -1.6648 H   0  0  0  0  0  0  0  0  0  0  0  0
   -2.5422    4.0186    0.1091 H   0  0  0  0  0  0  0  0  0  0  0  0
    0.6840   -0.0159    1.5318 C   0  0  0  0  0  0  0  0  0  0  0  0
    0.9266    0.6409    2.5363 O   0  0  0  0  0  0  0  0  0  0  0  0
    1.1522   -1.3161    1.5307 N   0  0  0  0  0  0  0  0  0  0  0  0
    0.6692   -1.9463    0.8856 H   0  0  0  0  0  0  0  0  0  0  0  0
    1.8708   -1.9155    2.6491 C   0  0  0  0  0  0  0  0  0  0  0  0
    1.2253   -1.9735    3.5315 H   0  0  0  0  0  0  0  0  0  0  0  0
    2.1954   -2.9273    2.3879 H   0  0  0  0  0  0  0  0  0  0  0  0
    2.7579   -1.3240    2.8986 H   0  0  0  0  0  0  0  0  0  0  0  0
  1  2  1  0  0  0  0
  2  3  1  0  0  0  0
  2  4  1  0  0  0  0
  2  5  1  0  0  0  0
  5  6  2  0  0  0  0
  5  7  1  0  0  0  0
  7  8  1  0  0  0  0
  7  9  1  0  0  0  0
  9 10  1  0  0  0  0
  9 11  1  0  0  0  0
  9 24  1  0  0  0  0
 11 12  1  0  0  0  0
 11 13  1  0  0  0  0
 11 17  1  0  0  0  0
 13 14  1  0  0  0  0
 13 15  1  0  0  0  0
 13 16  1  0  0  0  0
 17 18  1  0  0  0  0
 17 19  1  0  0  0  0
 17 20  1  0  0  0  0
 20 21  1  0  0  0  0
 20 22  1  0  0  0  0
 20 23  1  0  0  0  0
 24 25  2  0  0  0  0
 24 26  1  0  0  0  0
 26 27  1  0  0  0  0
 26 28  1  0  0  0  0
 28 29  1  0  0  0  0
 28 30  1  0  0  0  0
 28 31  1  0  0  0  0
M  END
$$$$

  -OEChem-01062216083D

 31 30  0     1  0  0  0  0  0999 V2000
   -3.2335   -3.0086    1.4448 H   0  0  0  0  0  0  0  0  0  0  0  0
   -3.2285   -1.9432    1.1974 C   0  0  0  0  0  0  0  0  0  0  0  0
   -3.5101   -1.3759    2.0881 H   0  0  0  0  0  0  0  0  0  0  0  0
   -3.9629   -1.7608    0.4089 H   0  0  0  0  0  0  0  0  0  0  0  0
   -1.8482   -1.5219    0.7299 C   0  0  0  0  0  0  0  0  0  0  0  0
   -0.9953   -2.3709    0.5270 O   0  0  0  0  0  0  0  0  0  0  0  0
   -1.6241   -0.2050    0.3779 N   0  0  0  0  0  0  0  0  0  0  0  0
   -2.4321    0.3906    0.5327 H   0  0  0  0  0  0  0  0  0  0  0  0
   -0.3272    0.5128    0.4113 C   0  0  1  0  0  0  0  0  0  0  0  0
    0.1851    0.3118   -0.5346 H   0  0  0  0  0  0  0  0  0  0  0  0
   -0.6266    2.0448    0.4581 C   0  0  1  0  0  0  0  0  0  0  0  0
   -1.2450    2.2585    1.3368 H   0  0  0  0  0  0  0  0  0  0  0  0
    0.6739    2.8809    0.5419 C   0  0  0  0  0  0  0  0  0  0  0  0
    1.3221    2.6669   -0.3136 H   0  0  0  0  0  0  0  0  0  0  0  0
    0.4533    3.9507    0.5511 H   0  0  0  0  0  0  0  0  0  0  0  0
    1.2350    2.6768    1.4557 H   0  0  0  0  0  0  0  0  0  0  0  0
   -1.3734    2.4747   -0.8353 C   0  0  0  0  0  0  0  0  0  0  0  0
   -0.7015    2.3960   -1.6966 H   0  0  0  0  0  0  0  0  0  0  0  0
   -2.2158    1.8033   -1.0222 H   0  0  0  0  0  0  0  0  0  0  0  0
   -1.9437    3.8957   -0.7641 C   0  0  0  0  0  0  0  0  0  0  0  0
   -1.1492    4.6463   -0.7751 H   0  0  0  0  0  0  0  0  0  0  0  0
   -2.5898    4.0791   -1.6280 H   0  0  0  0  0  0  0  0  0  0  0  0
   -2.5387    4.0241    0.1453 H   0  0  0  0  0  0  0  0  0  0  0  0
    0.6537    0.0077    1.5151 C   0  0  0  0  0  0  0  0  0  0  0  0
    0.7176    0.5770    2.5988 O   0  0  0  0  0  0  0  0  0  0  0  0
    1.3377   -1.1851    1.3749 N   0  0  0  0  0  0  0  0  0  0  0  0
    0.9228   -1.8166    0.6862 H   0  0  0  0  0  0  0  0  0  0  0  0
    2.0765   -1.7980    2.4722 C   0  0  0  0  0  0  0  0  0  0  0  0
    1.3962   -2.0731    3.2848 H   0  0  0  0  0  0  0  0  0  0  0  0
    2.5860   -2.7013    2.1238 H   0  0  0  0  0  0  0  0  0  0  0  0
    2.8314   -1.1071    2.8621 H   0  0  0  0  0  0  0  0  0  0  0  0
  1  2  1  0  0  0  0
  2  3  1  0  0  0  0
  2  4  1  0  0  0  0
  2  5  1  0  0  0  0
  5  6  2  0  0  0  0
  5  7  1  0  0  0  0
  7  8  1  0  0  0  0
  7  9  1  0  0  0  0
  9 10  1  0  0  0  0
  9 11  1  0  0  0  0
  9 24  1  0  0  0  0
 11 12  1  0  0  0  0
 11 13  1  0  0  0  0
 11 17  1  0  0  0  0
 13 14  1  0  0  0  0
 13 15  1  0  0  0  0
 13 16  1  0  0  0  0
 17 18  1  0  0  0  0
 17 19  1  0  0  0  0
 17 20  1  0  0  0  0
 20 21  1  0  0  0  0
 20 22  1  0  0  0  0
 20 23  1  0  0  0  0
 24 25  2  0  0  0  0
 24 26  1  0  0  0  0
 26 27  1  0  0  0  0
 26 28  1  0  0  0  0
 28 29  1  0  0  0  0
 28 30  1  0  0  0  0
 28 31  1  0  0  0  0
M  END
$$$$

  -OEChem-01062216083D

 31 30  0     1  0  0  0  0  0999 V2000
   -3.1364   -3.0149    1.5393 H   0  0  0  0  0  0  0  0  0  0  0  0
   -3.1824   -1.9745    1.2049 C   0  0  0  0  0  0  0  0  0  0  0  0
   -3.5215   -1.3541    2.0381 H   0  0  0  0  0  0  0  0  0  0  0  0
   -3.9004   -1.8980    0.3849 H   0  0  0  0  0  0  0  0  0  0  0  0
   -1.8135   -1.5150    0.7400 C   0  0  0  0  0  0  0  0  0  0  0  0
   -0.9200   -2.3325    0.5838 O   0  0  0  0  0  0  0  0  0  0  0  0
   -1.6293   -0.2010    0.3546 N   0  0  0  0  0  0  0  0  0  0  0  0
   -2.4446    0.3849    0.5078 H   0  0  0  0  0  0  0  0  0  0  0  0
   -0.3364    0.5186    0.3802 C   0  0  1  0  0  0  0  0  0  0  0  0
    0.1811    0.3169   -0.5628 H   0  0  0  0  0  0  0  0  0  0  0  0
   -0.6274    2.0487    0.4402 C   0  0  1  0  0  0  0  0  0  0  0  0
   -1.2433    2.2554    1.3226 H   0  0  0  0  0  0  0  0  0  0  0  0
    0.6811    2.8660    0.5463 C   0  0  0  0  0  0  0  0  0  0  0  0
    1.3319    2.6622   -0.3098 H   0  0  0  0  0  0  0  0  0  0  0  0
    0.4731    3.9380    0.5771 H   0  0  0  0  0  0  0  0  0  0  0  0
    1.2311    2.6298    1.4605 H   0  0  0  0  0  0  0  0  0  0  0  0
   -1.3826    2.4969   -0.8399 C   0  0  0  0  0  0  0  0  0  0  0  0
   -0.7183    2.4248   -1.7076 H   0  0  0  0  0  0  0  0  0  0  0  0
   -2.2305    1.8321   -1.0262 H   0  0  0  0  0  0  0  0  0  0  0  0
   -1.9406    3.9210   -0.7442 C   0  0  0  0  0  0  0  0  0  0  0  0
   -1.1381    4.6632   -0.7389 H   0  0  0  0  0  0  0  0  0  0  0  0
   -2.5825    4.1265   -1.6061 H   0  0  0  0  0  0  0  0  0  0  0  0
   -2.5367    4.0389    0.1660 H   0  0  0  0  0  0  0  0  0  0  0  0
    0.6206    0.0214    1.5022 C   0  0  0  0  0  0  0  0  0  0  0  0
    0.5480    0.4917    2.6324 O   0  0  0  0  0  0  0  0  0  0  0  0
    1.5146   -1.0044    1.2592 N   0  0  0  0  0  0  0  0  0  0  0  0
    1.2380   -1.6109    0.4875 H   0  0  0  0  0  0  0  0  0  0  0  0
    2.2963   -1.6139    2.3279 C   0  0  0  0  0  0  0  0  0  0  0  0
    1.6362   -2.0919    3.0594 H   0  0  0  0  0  0  0  0  0  0  0  0
    2.9680   -2.3732    1.9163 H   0  0  0  0  0  0  0  0  0  0  0  0
    2.9034   -0.8597    2.8398 H   0  0  0  0  0  0  0  0  0  0  0  0
  1  2  1  0  0  0  0
  2  3  1  0  0  0  0
  2  4  1  0  0  0  0
  2  5  1  0  0  0  0
  5  6  2  0  0  0  0
  5  7  1  0  0  0  0
  7  8  1  0  0  0  0
  7  9  1  0  0  0  0
  9 10  1  0  0  0  0
  9 11  1  0  0  0  0
  9 24  1  0  0  0  0
 11 12  1  0  0  0  0
 11 13  1  0  0  0  0
 11 17  1  0  0  0  0
 13 14  1  0  0  0  0
 13 15  1  0  0  0  0
 13 16  1  0  0  0  0
 17 18  1  0  0  0  0
 17 19  1  0  0  0  0
 17 20  1  0  0  0  0
 20 21  1  0  0  0  0
 20 22  1  0  0  0  0
 20 23  1  0  0  0  0
 24 25  2  0  0  0  0
 24 26  1  0  0  0  0
 26 27  1  0  0  0  0
 26 28  1  0  0  0  0
 28 29  1  0  0  0  0
 28 30  1  0  0  0  0
 28 31  1  0  0  0  0
M  END
$$$$

  -OEChem-01062216083D

 31 30  0     1  0  0  0  0  0999 V2000
   -3.0829   -3.0336    1.5550 H   0  0  0  0  0  0  0  0  0  0  0  0
   -3.1497   -1.9932    1.2247 C   0  0  0  0  0  0  0  0  0  0  0  0
   -3.4854   -1.3802    2.0647 H   0  0  0  0  0  0  0  0  0  0  0  0
   -3.8808   -1.9256    0.4156 H   0  0  0  0  0  0  0  0  0  0  0  0
   -1.7950   -1.5111    0.7425 C   0  0  0  0  0  0  0  0  0  0  0  0
   -0.8791   -2.3076    0.6054 O   0  0  0  0  0  0  0  0  0  0  0  0
   -1.6398   -0.1995    0.3346 N   0  0  0  0  0  0  0  0  0  0  0  0
   -2.4577    0.3788    0.5002 H   0  0  0  0  0  0  0  0  0  0  0  0
   -0.3493    0.5214    0.3568 C   0  0  1  0  0  0  0  0  0  0  0  0
    0.1679    0.3179   -0.5856 H   0  0  0  0  0  0  0  0  0  0  0  0
   -0.6318    2.0506    0.4248 C   0  0  1  0  0  0  0  0  0  0  0  0
   -1.2489    2.2523    1.3075 H   0  0  0  0  0  0  0  0  0  0  0  0
    0.6816    2.8543    0.5508 C   0  0  0  0  0  0  0  0  0  0  0  0
    1.3371    2.6559   -0.3029 H   0  0  0  0  0  0  0  0  0  0  0  0
    0.4830    3.9278    0.5941 H   0  0  0  0  0  0  0  0  0  0  0  0
    1.2194    2.5967    1.4675 H   0  0  0  0  0  0  0  0  0  0  0  0
   -1.3895    2.5104   -0.8481 C   0  0  0  0  0  0  0  0  0  0  0  0
   -0.7287    2.4404   -1.7182 H   0  0  0  0  0  0  0  0  0  0  0  0
   -2.2412    1.8505   -1.0347 H   0  0  0  0  0  0  0  0  0  0  0  0
   -1.9380    3.9370   -0.7408 C   0  0  0  0  0  0  0  0  0  0  0  0
   -1.1300    4.6731   -0.7246 H   0  0  0  0  0  0  0  0  0  0  0  0
   -2.5746    4.1550   -1.6038 H   0  0  0  0  0  0  0  0  0  0  0  0
   -2.5372    4.0504    0.1680 H   0  0  0  0  0  0  0  0  0  0  0  0
    0.5944    0.0335    1.4905 C   0  0  0  0  0  0  0  0  0  0  0  0
    0.3838    0.3720    2.6504 O   0  0  0  0  0  0  0  0  0  0  0  0
    1.6838   -0.7670    1.2009 N   0  0  0  0  0  0  0  0  0  0  0  0
    1.6236   -1.2614    0.3145 H   0  0  0  0  0  0  0  0  0  0  0  0
    2.4929   -1.3727    2.2510 C   0  0  0  0  0  0  0  0  0  0  0  0
    1.8851   -2.0532    2.8567 H   0  0  0  0  0  0  0  0  0  0  0  0
    3.3179   -1.9409    1.8111 H   0  0  0  0  0  0  0  0  0  0  0  0
    2.9161   -0.6020    2.9038 H   0  0  0  0  0  0  0  0  0  0  0  0
  1  2  1  0  0  0  0
  2  3  1  0  0  0  0
  2  4  1  0  0  0  0
  2  5  1  0  0  0  0
  5  6  2  0  0  0  0
  5  7  1  0  0  0  0
  7  8  1  0  0  0  0
  7  9  1  0  0  0  0
  9 10  1  0  0  0  0
  9 11  1  0  0  0  0
  9 24  1  0  0  0  0
 11 12  1  0  0  0  0
 11 13  1  0  0  0  0
 11 17  1  0  0  0  0
 13 14  1  0  0  0  0
 13 15  1  0  0  0  0
 13 16  1  0  0  0  0
 17 18  1  0  0  0  0
 17 19  1  0  0  0  0
 17 20  1  0  0  0  0
 20 21  1  0  0  0  0
 20 22  1  0  0  0  0
 20 23  1  0  0  0  0
 24 25  2  0  0  0  0
 24 26  1  0  0  0  0
 26 27  1  0  0  0  0
 26 28  1  0  0  0  0
 28 29  1  0  0  0  0
 28 30  1  0  0  0  0
 28 31  1  0  0  0  0
M  END
$$$$

  -OEChem-01062216083D

 31 30  0     1  0  0  0  0  0999 V2000
   -3.0763   -3.0393    1.5536 H   0  0  0  0  0  0  0  0  0  0  0  0
   -3.1462   -1.9951    1.2368 C   0  0  0  0  0  0  0  0  0  0  0  0
   -3.4609   -1.3907    2.0911 H   0  0  0  0  0  0  0  0  0  0  0  0
   -3.8943   -1.9157    0.4445 H   0  0  0  0  0  0  0  0  0  0  0  0
   -1.7998   -1.5129    0.7316 C   0  0  0  0  0  0  0  0  0  0  0  0
   -0.8812   -2.3059    0.5906 O   0  0  0  0  0  0  0  0  0  0  0  0
   -1.6525   -0.2037    0.3129 N   0  0  0  0  0  0  0  0  0  0  0  0
   -2.4682    0.3740    0.4906 H   0  0  0  0  0  0  0  0  0  0  0  0
   -0.3598    0.5126    0.3407 C   0  0  1  0  0  0  0  0  0  0  0  0
    0.1608    0.3053   -0.5991 H   0  0  0  0  0  0  0  0  0  0  0  0
   -0.6372    2.0415    0.4155 C   0  0  1  0  0  0  0  0  0  0  0  0
   -1.2585    2.2378    1.2965 H   0  0  0  0  0  0  0  0  0  0  0  0
    0.6770    2.8389    0.5604 C   0  0  0  0  0  0  0  0  0  0  0  0
    1.3415    2.6423   -0.2869 H   0  0  0  0  0  0  0  0  0  0  0  0
    0.4819    3.9129    0.6072 H   0  0  0  0  0  0  0  0  0  0  0  0
    1.2015    2.5731    1.4829 H   0  0  0  0  0  0  0  0  0  0  0  0
   -1.3905    2.5141   -0.8551 C   0  0  0  0  0  0  0  0  0  0  0  0
   -0.7275    2.4477   -1.7240 H   0  0  0  0  0  0  0  0  0  0  0  0
   -2.2447    1.8592   -1.0485 H   0  0  0  0  0  0  0  0  0  0  0  0
   -1.9327    3.9425   -0.7378 C   0  0  0  0  0  0  0  0  0  0  0  0
   -1.1215    4.6749   -0.7146 H   0  0  0  0  0  0  0  0  0  0  0  0
   -2.5670    4.1700   -1.5999 H   0  0  0  0  0  0  0  0  0  0  0  0
   -2.5327    4.0511    0.1709 H   0  0  0  0  0  0  0  0  0  0  0  0
    0.5747    0.0311    1.4831 C   0  0  0  0  0  0  0  0  0  0  0  0
    0.2478    0.2129    2.6514 O   0  0  0  0  0  0  0  0  0  0  0  0
    1.8173   -0.5045    1.1976 N   0  0  0  0  0  0  0  0  0  0  0  0
    1.9499   -0.8297    0.2447 H   0  0  0  0  0  0  0  0  0  0  0  0
    2.6753   -1.0648    2.2339 C   0  0  0  0  0  0  0  0  0  0  0  0
    2.1811   -1.9114    2.7222 H   0  0  0  0  0  0  0  0  0  0  0  0
    3.6151   -1.4155    1.7972 H   0  0  0  0  0  0  0  0  0  0  0  0
    2.9091   -0.3086    2.9906 H   0  0  0  0  0  0  0  0  0  0  0  0
  1  2  1  0  0  0  0
  2  3  1  0  0  0  0
  2  4  1  0  0  0  0
  2  5  1  0  0  0  0
  5  6  2  0  0  0  0
  5  7  1  0  0  0  0
  7  8  1  0  0  0  0
  7  9  1  0  0  0  0
  9 10  1  0  0  0  0
  9 11  1  0  0  0  0
  9 24  1  0  0  0  0
 11 12  1  0  0  0  0
 11 13  1  0  0  0  0
 11 17  1  0  0  0  0
 13 14  1  0  0  0  0
 13 15  1  0  0  0  0
 13 16  1  0  0  0  0
 17 18  1  0  0  0  0
 17 19  1  0  0  0  0
 17 20  1  0  0  0  0
 20 21  1  0  0  0  0
 20 22  1  0  0  0  0
 20 23  1  0  0  0  0
 24 25  2  0  0  0  0
 24 26  1  0  0  0  0
 26 27  1  0  0  0  0
 26 28  1  0  0  0  0
 28 29  1  0  0  0  0
 28 30  1  0  0  0  0
 28 31  1  0  0  0  0
M  END
$$$$

  -OEChem-01062216083D

 31 30  0     1  0  0  0  0  0999 V2000
   -3.0960   -3.0452    1.5218 H   0  0  0  0  0  0  0  0  0  0  0  0
   -3.1541   -1.9887    1.2454 C   0  0  0  0  0  0  0  0  0  0  0  0
   -3.4287   -1.4096    2.1305 H   0  0  0  0  0  0  0  0  0  0  0  0
   -3.9244   -1.8646    0.4806 H   0  0  0  0  0  0  0  0  0  0  0  0
   -1.8141   -1.5149    0.7160 C   0  0  0  0  0  0  0  0  0  0  0  0
   -0.9054   -2.3145    0.5504 O   0  0  0  0  0  0  0  0  0  0  0  0
   -1.6631   -0.2067    0.2949 N   0  0  0  0  0  0  0  0  0  0  0  0
   -2.4713    0.3753    0.4905 H   0  0  0  0  0  0  0  0  0  0  0  0
   -0.3640    0.4980    0.3291 C   0  0  1  0  0  0  0  0  0  0  0  0
    0.1574    0.2873   -0.6094 H   0  0  0  0  0  0  0  0  0  0  0  0
   -0.6386    2.0276    0.4100 C   0  0  1  0  0  0  0  0  0  0  0  0
   -1.2672    2.2161    1.2876 H   0  0  0  0  0  0  0  0  0  0  0  0
    0.6699    2.8291    0.5771 C   0  0  0  0  0  0  0  0  0  0  0  0
    1.3487    2.6367   -0.2595 H   0  0  0  0  0  0  0  0  0  0  0  0
    0.4711    3.9025    0.6236 H   0  0  0  0  0  0  0  0  0  0  0  0
    1.1783    2.5629    1.5085 H   0  0  0  0  0  0  0  0  0  0  0  0
   -1.3869    2.5075   -0.8611 C   0  0  0  0  0  0  0  0  0  0  0  0
   -0.7212    2.4435   -1.7283 H   0  0  0  0  0  0  0  0  0  0  0  0
   -2.2419    1.8555   -1.0607 H   0  0  0  0  0  0  0  0  0  0  0  0
   -1.9267    3.9365   -0.7396 C   0  0  0  0  0  0  0  0  0  0  0  0
   -1.1139    4.6671   -0.7108 H   0  0  0  0  0  0  0  0  0  0  0  0
   -2.5574    4.1694   -1.6030 H   0  0  0  0  0  0  0  0  0  0  0  0
   -2.5299    4.0434    0.1674 H   0  0  0  0  0  0  0  0  0  0  0  0
    0.5661    0.0148    1.4749 C   0  0  0  0  0  0  0  0  0  0  0  0
    0.1592    0.0336    2.6322 O   0  0  0  0  0  0  0  0  0  0  0  0
    1.9052   -0.2387    1.2359 N   0  0  0  0  0  0  0  0  0  0  0  0
    2.1753   -0.3729    0.2666 H   0  0  0  0  0  0  0  0  0  0  0  0
    2.8077   -0.7152    2.2767 C   0  0  0  0  0  0  0  0  0  0  0  0
    2.4674   -1.6813    2.6645 H   0  0  0  0  0  0  0  0  0  0  0  0
    3.8175   -0.8381    1.8740 H   0  0  0  0  0  0  0  0  0  0  0  0
    2.8524    0.0008    3.1042 H   0  0  0  0  0  0  0  0  0  0  0  0
  1  2  1  0  0  0  0
  2  3  1  0  0  0  0
  2  4  1  0  0  0  0
  2  5  1  0  0  0  0
  5  6  2  0  0  0  0
  5  7  1  0  0  0  0
  7  8  1  0  0  0  0
  7  9  1  0  0  0  0
  9 10  1  0  0  0  0
  9 11  1  0  0  0  0
  9 24  1  0  0  0  0
 11 12  1  0  0  0  0
 11 13  1  0  0  0  0
 11 17  1  0  0  0  0
 13 14  1  0  0  0  0
 13 15  1  0  0  0  0
 13 16  1  0  0  0  0
 17 18  1  0  0  0  0
 17 19  1  0  0  0  0
 17 20  1  0  0  0  0
 20 21  1  0  0  0  0
 20 22  1  0  0  0  0
 20 23  1  0  0  0  0
 24 25  2  0  0  0  0
 24 26  1  0  0  0  0
 26 27  1  0  0  0  0
 26 28  1  0  0  0  0
 28 29  1  0  0  0  0
 28 30  1  0  0  0  0
 28 31  1  0  0  0  0
M  END
$$$$

  -OEChem-01062216083D

 31 30  0     1  0  0  0  0  0999 V2000
   -3.1186   -3.0299    1.5174 H   0  0  0  0  0  0  0  0  0  0  0  0
   -3.1677   -1.9725    1.2432 C   0  0  0  0  0  0  0  0  0  0  0  0
   -3.4237   -1.3922    2.1330 H   0  0  0  0  0  0  0  0  0  0  0  0
   -3.9464   -1.8380    0.4889 H   0  0  0  0  0  0  0  0  0  0  0  0
   -1.8291   -1.5137    0.6968 C   0  0  0  0  0  0  0  0  0  0  0  0
   -0.9394   -2.3263    0.4945 O   0  0  0  0  0  0  0  0  0  0  0  0
   -1.6636   -0.2040    0.2853 N   0  0  0  0  0  0  0  0  0  0  0  0
   -2.4615    0.3856    0.4988 H   0  0  0  0  0  0  0  0  0  0  0  0
   -0.3544    0.4840    0.3261 C   0  0  1  0  0  0  0  0  0  0  0  0
    0.1656    0.2749   -0.6135 H   0  0  0  0  0  0  0  0  0  0  0  0
   -0.6369    2.0148    0.4134 C   0  0  1  0  0  0  0  0  0  0  0  0
   -1.2738    2.1943    1.2869 H   0  0  0  0  0  0  0  0  0  0  0  0
    0.6584    2.8330    0.5959 C   0  0  0  0  0  0  0  0  0  0  0  0
    1.3566    2.6372   -0.2238 H   0  0  0  0  0  0  0  0  0  0  0  0
    0.4486    3.9048    0.6237 H   0  0  0  0  0  0  0  0  0  0  0  0
    1.1471    2.5851    1.5425 H   0  0  0  0  0  0  0  0  0  0  0  0
   -1.3827    2.4956   -0.8599 C   0  0  0  0  0  0  0  0  0  0  0  0
   -0.7106    2.4381   -1.7224 H   0  0  0  0  0  0  0  0  0  0  0  0
   -2.2328    1.8399   -1.0674 H   0  0  0  0  0  0  0  0  0  0  0  0
   -1.9330    3.9208   -0.7417 C   0  0  0  0  0  0  0  0  0  0  0  0
   -1.1262    4.6580   -0.7189 H   0  0  0  0  0  0  0  0  0  0  0  0
   -2.5678    4.1450   -1.6044 H   0  0  0  0  0  0  0  0  0  0  0  0
   -2.5346    4.0262    0.1665 H   0  0  0  0  0  0  0  0  0  0  0  0
    0.5784   -0.0118    1.4679 C   0  0  0  0  0  0  0  0  0  0  0  0
    0.1248   -0.1634    2.5979 O   0  0  0  0  0  0  0  0  0  0  0  0
    1.9543    0.0164    1.3144 N   0  0  0  0  0  0  0  0  0  0  0  0
    2.3109    0.0962    0.3675 H   0  0  0  0  0  0  0  0  0  0  0  0
    2.8752   -0.3687    2.3769 C   0  0  0  0  0  0  0  0  0  0  0  0
    2.6897   -1.4024    2.6875 H   0  0  0  0  0  0  0  0  0  0  0  0
    3.9092   -0.2915    2.0280 H   0  0  0  0  0  0  0  0  0  0  0  0
    2.7544    0.2875    3.2452 H   0  0  0  0  0  0  0  0  0  0  0  0
  1  2  1  0  0  0  0
  2  3  1  0  0  0  0
  2  4  1  0  0  0  0
  2  5  1  0  0  0  0
  5  6  2  0  0  0  0
  5  7  1  0  0  0  0
  7  8  1  0  0  0  0
  7  9  1  0  0  0  0
  9 10  1  0  0  0  0
  9 11  1  0  0  0  0
  9 24  1  0  0  0  0
 11 12  1  0  0  0  0
 11 13  1  0  0  0  0
 11 17  1  0  0  0  0
 13 14  1  0  0  0  0
 13 15  1  0  0  0  0
 13 16  1  0  0  0  0
 17 18  1  0  0  0  0
 17 19  1  0  0  0  0
 17 20  1  0  0  0  0
 20 21  1  0  0  0  0
 20 22  1  0  0  0  0
 20 23  1  0  0  0  0
 24 25  2  0  0  0  0
 24 26  1  0  0  0  0
 26 27  1  0  0  0  0
 26 28  1  0  0  0  0
 28 29  1  0  0  0  0
 28 30  1  0  0  0  0
 28 31  1  0  0  0  0
M  END
$$$$

  -OEChem-01062216083D

 31 30  0     1  0  0  0  0  0999 V2000
   -3.1386   -3.0174    1.4672 H   0  0  0  0  0  0  0  0  0  0  0  0
   -3.1557   -1.9428    1.2650 C   0  0  0  0  0  0  0  0  0  0  0  0
   -3.3268   -1.4124    2.2049 H   0  0  0  0  0  0  0  0  0  0  0  0
   -3.9734   -1.7254    0.5740 H   0  0  0  0  0  0  0  0  0  0  0  0
   -1.8339   -1.5053    0.6637 C   0  0  0  0  0  0  0  0  0  0  0  0
   -0.9763   -2.3333    0.3958 O   0  0  0  0  0  0  0  0  0  0  0  0
   -1.6522   -0.1923    0.2700 N   0  0  0  0  0  0  0  0  0  0  0  0
   -2.4363    0.4032    0.5149 H   0  0  0  0  0  0  0  0  0  0  0  0
   -0.3320    0.4774    0.3206 C   0  0  1  0  0  0  0  0  0  0  0  0
    0.1886    0.2735   -0.6199 H   0  0  0  0  0  0  0  0  0  0  0  0
   -0.6364    2.0088    0.4093 C   0  0  1  0  0  0  0  0  0  0  0  0
   -1.2893    2.1724    1.2740 H   0  0  0  0  0  0  0  0  0  0  0  0
    0.6291    2.8658    0.6161 C   0  0  0  0  0  0  0  0  0  0  0  0
    1.3644    2.6640   -0.1689 H   0  0  0  0  0  0  0  0  0  0  0  0
    0.3945    3.9323    0.6034 H   0  0  0  0  0  0  0  0  0  0  0  0
    1.0802    2.6617    1.5910 H   0  0  0  0  0  0  0  0  0  0  0  0
   -1.3793    2.4810   -0.8723 C   0  0  0  0  0  0  0  0  0  0  0  0
   -0.6988    2.4321   -1.7289 H   0  0  0  0  0  0  0  0  0  0  0  0
   -2.2191    1.8154   -1.0903 H   0  0  0  0  0  0  0  0  0  0  0  0
   -1.9532    3.8982   -0.7635 C   0  0  0  0  0  0  0  0  0  0  0  0
   -1.1603    4.6504   -0.7524 H   0  0  0  0  0  0  0  0  0  0  0  0
   -2.5963    4.1031   -1.6248 H   0  0  0  0  0  0  0  0  0  0  0  0
   -2.5522    4.0013    0.1466 H   0  0  0  0  0  0  0  0  0  0  0  0
    0.6056   -0.0389    1.4564 C   0  0  0  0  0  0  0  0  0  0  0  0
    0.1275   -0.3765    2.5351 O   0  0  0  0  0  0  0  0  0  0  0  0
    1.9609    0.2488    1.4415 N   0  0  0  0  0  0  0  0  0  0  0  0
    2.3601    0.5536    0.5597 H   0  0  0  0  0  0  0  0  0  0  0  0
    2.8611   -0.0783    2.5412 C   0  0  0  0  0  0  0  0  0  0  0  0
    2.8319   -1.1525    2.7528 H   0  0  0  0  0  0  0  0  0  0  0  0
    3.8886    0.1953    2.2833 H   0  0  0  0  0  0  0  0  0  0  0  0
    2.5751    0.4674    3.4465 H   0  0  0  0  0  0  0  0  0  0  0  0
  1  2  1  0  0  0  0
  2  3  1  0  0  0  0
  2  4  1  0  0  0  0
  2  5  1  0  0  0  0
  5  6  2  0  0  0  0
  5  7  1  0  0  0  0
  7  8  1  0  0  0  0
  7  9  1  0  0  0  0
  9 10  1  0  0  0  0
  9 11  1  0  0  0  0
  9 24  1  0  0  0  0
 11 12  1  0  0  0  0
 11 13  1  0  0  0  0
 11 17  1  0  0  0  0
 13 14  1  0  0  0  0
 13 15  1  0  0  0  0
 13 16  1  0  0  0  0
 17 18  1  0  0  0  0
 17 19  1  0  0  0  0
 17 20  1  0  0  0  0
 20 21  1  0  0  0  0
 20 22  1  0  0  0  0
 20 23  1  0  0  0  0
 24 25  2  0  0  0  0
 24 26  1  0  0  0  0
 26 27  1  0  0  0  0
 26 28  1  0  0  0  0
 28 29  1  0  0  0  0
 28 30  1  0  0  0  0
 28 31  1  0  0  0  0
M  END
$$$$

  -OEChem-01062216083D

 31 30  0     1  0  0  0  0  0999 V2000
   -3.2364   -2.9215    1.4806 H   0  0  0  0  0  0  0  0  0  0  0  0
   -3.1811   -1.8404    1.3248 C   0  0  0  0  0  0  0  0  0  0  0  0
   -3.2046   -1.3452    2.2985 H   0  0  0  0  0  0  0  0  0  0  0  0
   -4.0452   -1.5224    0.7371 H   0  0  0  0  0  0  0  0  0  0  0  0
   -1.8967   -1.4865    0.5998 C   0  0  0  0  0  0  0  0  0  0  0  0
   -1.2097   -2.3684    0.1084 O   0  0  0  0  0  0  0  0  0  0  0  0
   -1.6335   -0.1738    0.2570 N   0  0  0  0  0  0  0  0  0  0  0  0
   -2.3808    0.4450    0.5520 H   0  0  0  0  0  0  0  0  0  0  0  0
   -0.2908    0.4591    0.3197 C   0  0  1  0  0  0  0  0  0  0  0  0
    0.1050    0.4953   -0.6997 H   0  0  0  0  0  0  0  0  0  0  0  0
   -0.5964    1.9285    0.7898 C   0  0  1  0  0  0  0  0  0  0  0  0
   -1.1667    1.8683    1.7237 H   0  0  0  0  0  0  0  0  0  0  0  0
    0.6576    2.7797    1.0793 C   0  0  0  0  0  0  0  0  0  0  0  0
    1.3466    2.7551    0.2295 H   0  0  0  0  0  0  0  0  0  0  0  0
    0.4008    3.8212    1.2815 H   0  0  0  0  0  0  0  0  0  0  0  0
    1.1697    2.4185    1.9749 H   0  0  0  0  0  0  0  0  0  0  0  0
   -1.4667    2.6600   -0.2768 C   0  0  0  0  0  0  0  0  0  0  0  0
   -0.8710    2.8261   -1.1806 H   0  0  0  0  0  0  0  0  0  0  0  0
   -2.3203    2.0419   -0.5665 H   0  0  0  0  0  0  0  0  0  0  0  0
   -2.0420    3.9996    0.1994 C   0  0  0  0  0  0  0  0  0  0  0  0
   -1.2658    4.7651    0.2783 H   0  0  0  0  0  0  0  0  0  0  0  0
   -2.7878    4.3563   -0.5176 H   0  0  0  0  0  0  0  0  0  0  0  0
   -2.5274    3.8843    1.1734 H   0  0  0  0  0  0  0  0  0  0  0  0
    0.8074   -0.2945    1.1509 C   0  0  0  0  0  0  0  0  0  0  0  0
    0.4906   -1.0335    2.0761 O   0  0  0  0  0  0  0  0  0  0  0  0
    2.0941    0.2117    1.2560 N   0  0  0  0  0  0  0  0  0  0  0  0
    2.3730    0.9094    0.5744 H   0  0  0  0  0  0  0  0  0  0  0  0
    3.0969   -0.2878    2.1920 C   0  0  0  0  0  0  0  0  0  0  0  0
    3.2468   -1.3641    2.0552 H   0  0  0  0  0  0  0  0  0  0  0  0
    4.0532    0.2172    2.0265 H   0  0  0  0  0  0  0  0  0  0  0  0
    2.7832   -0.1035    3.2249 H   0  0  0  0  0  0  0  0  0  0  0  0
  1  2  1  0  0  0  0
  2  3  1  0  0  0  0
  2  4  1  0  0  0  0
  2  5  1  0  0  0  0
  5  6  2  0  0  0  0
  5  7  1  0  0  0  0
  7  8  1  0  0  0  0
  7  9  1  0  0  0  0
  9 10  1  0  0  0  0
  9 11  1  0  0  0  0
  9 24  1  0  0  0  0
 11 12  1  0  0  0  0
 11 13  1  0  0  0  0
 11 17  1  0  0  0  0
 13 14  1  0  0  0  0
 13 15  1  0  0  0  0
 13 16  1  0  0  0  0
 17 18  1  0  0  0  0
 17 19  1  0  0  0  0
 17 20  1  0  0  0  0
 20 21  1  0  0  0  0
 20 22  1  0  0  0  0
 20 23  1  0  0  0  0
 24 25  2  0  0  0  0
 24 26  1  0  0  0  0
 26 27  1  0  0  0  0
 26 28  1  0  0  0  0
 28 29  1  0  0  0  0
 28 30  1  0  0  0  0
 28 31  1  0  0  0  0
M  END
$$$$

  -OEChem-01062216083D

 31 30  0     1  0  0  0  0  0999 V2000
   -3.1984   -2.9043    1.5269 H   0  0  0  0  0  0  0  0  0  0  0  0
   -3.1423   -1.8230    1.3733 C   0  0  0  0  0  0  0  0  0  0  0  0
   -3.1106   -1.3331    2.3493 H   0  0  0  0  0  0  0  0  0  0  0  0
   -4.0331   -1.4945    0.8330 H   0  0  0  0  0  0  0  0  0  0  0  0
   -1.8953   -1.4776    0.5820 C   0  0  0  0  0  0  0  0  0  0  0  0
   -1.3026   -2.3527   -0.0281 O   0  0  0  0  0  0  0  0  0  0  0  0
   -1.6126   -0.1600    0.2782 N   0  0  0  0  0  0  0  0  0  0  0  0
   -2.3552    0.4515    0.5988 H   0  0  0  0  0  0  0  0  0  0  0  0
   -0.2721    0.4802    0.3620 C   0  0  1  0  0  0  0  0  0  0  0  0
    0.1293    0.5181   -0.6554 H   0  0  0  0  0  0  0  0  0  0  0  0
   -0.6143    1.9567    0.8010 C   0  0  1  0  0  0  0  0  0  0  0  0
   -1.2072    1.9054    1.7212 H   0  0  0  0  0  0  0  0  0  0  0  0
    0.6092    2.8513    1.0958 C   0  0  0  0  0  0  0  0  0  0  0  0
    1.3480    2.7726    0.2922 H   0  0  0  0  0  0  0  0  0  0  0  0
    0.3322    3.9014    1.1986 H   0  0  0  0  0  0  0  0  0  0  0  0
    1.0671    2.5745    2.0486 H   0  0  0  0  0  0  0  0  0  0  0  0
   -1.4686    2.6512   -0.3067 C   0  0  0  0  0  0  0  0  0  0  0  0
   -0.8515    2.8077   -1.1978 H   0  0  0  0  0  0  0  0  0  0  0  0
   -2.3033    2.0125   -0.6065 H   0  0  0  0  0  0  0  0  0  0  0  0
   -2.0854    3.9909    0.1178 C   0  0  0  0  0  0  0  0  0  0  0  0
   -1.3322    4.7803    0.1814 H   0  0  0  0  0  0  0  0  0  0  0  0
   -2.8297    4.3045   -0.6208 H   0  0  0  0  0  0  0  0  0  0  0  0
   -2.5826    3.8951    1.0881 H   0  0  0  0  0  0  0  0  0  0  0  0
    0.8500   -0.2709    1.1786 C   0  0  0  0  0  0  0  0  0  0  0  0
    0.6192   -1.2846    1.8228 O   0  0  0  0  0  0  0  0  0  0  0  0
    2.0236    0.3568    1.5660 N   0  0  0  0  0  0  0  0  0  0  0  0
    2.2366    1.2460    1.1272 H   0  0  0  0  0  0  0  0  0  0  0  0
    3.0065   -0.2192    2.4802 C   0  0  0  0  0  0  0  0  0  0  0  0
    3.3591   -1.1860    2.1053 H   0  0  0  0  0  0  0  0  0  0  0  0
    3.8682    0.4480    2.5779 H   0  0  0  0  0  0  0  0  0  0  0  0
    2.5682   -0.3647    3.4731 H   0  0  0  0  0  0  0  0  0  0  0  0
  1  2  1  0  0  0  0
  2  3  1  0  0  0  0
  2  4  1  0  0  0  0
  2  5  1  0  0  0  0
  5  6  2  0  0  0  0
  5  7  1  0  0  0  0
  7  8  1  0  0  0  0
  7  9  1  0  0  0  0
  9 10  1  0  0  0  0
  9 11  1  0  0  0  0
  9 24  1  0  0  0  0
 11 12  1  0  0  0  0
 11 13  1  0  0  0  0
 11 17  1  0  0  0  0
 13 14  1  0  0  0  0
 13 15  1  0  0  0  0
 13 16  1  0  0  0  0
 17 18  1  0  0  0  0
 17 19  1  0  0  0  0
 17 20  1  0  0  0  0
 20 21  1  0  0  0  0
 20 22  1  0  0  0  0
 20 23  1  0  0  0  0
 24 25  2  0  0  0  0
 24 26  1  0  0  0  0
 26 27  1  0  0  0  0
 26 28  1  0  0  0  0
 28 29  1  0  0  0  0
 28 30  1  0  0  0  0
 28 31  1  0  0  0  0
M  END
$$$$

  -OEChem-01062216083D

 31 30  0     1  0  0  0  0  0999 V2000
   -3.2273   -3.1120    1.2212 H   0  0  0  0  0  0  0  0  0  0  0  0
   -3.2016   -2.0858    0.8437 C   0  0  0  0  0  0  0  0  0  0  0  0
   -4.0602   -1.5405    1.2427 H   0  0  0  0  0  0  0  0  0  0  0  0
   -3.2676   -2.1137   -0.2464 H   0  0  0  0  0  0  0  0  0  0  0  0
   -1.9126   -1.4074    1.2677 C   0  0  0  0  0  0  0  0  0  0  0  0
   -1.2426   -1.9164    2.1505 O   0  0  0  0  0  0  0  0  0  0  0  0
   -1.6683   -0.1112    0.8461 N   0  0  0  0  0  0  0  0  0  0  0  0
   -2.4335    0.2540    0.2899 H   0  0  0  0  0  0  0  0  0  0  0  0
   -0.3503    0.4902    0.5058 C   0  0  1  0  0  0  0  0  0  0  0  0
   -0.2479    0.4765   -0.5842 H   0  0  0  0  0  0  0  0  0  0  0  0
   -0.4235    1.9976    0.9335 C   0  0  1  0  0  0  0  0  0  0  0  0
   -0.6609    2.0619    2.0009 H   0  0  0  0  0  0  0  0  0  0  0  0
    0.8982    2.7537    0.6500 C   0  0  0  0  0  0  0  0  0  0  0  0
    1.3071    2.4578   -0.3214 H   0  0  0  0  0  0  0  0  0  0  0  0
    1.6434    2.5604    1.4191 H   0  0  0  0  0  0  0  0  0  0  0  0
    0.7611    3.8355    0.6419 H   0  0  0  0  0  0  0  0  0  0  0  0
   -1.5305    2.7140    0.1013 C   0  0  0  0  0  0  0  0  0  0  0  0
   -1.2239    2.7744   -0.9484 H   0  0  0  0  0  0  0  0  0  0  0  0
   -2.4571    2.1361    0.1346 H   0  0  0  0  0  0  0  0  0  0  0  0
   -1.8855    4.1193    0.6070 C   0  0  0  0  0  0  0  0  0  0  0  0
   -1.0941    4.8420    0.3942 H   0  0  0  0  0  0  0  0  0  0  0  0
   -2.7951    4.4700    0.1099 H   0  0  0  0  0  0  0  0  0  0  0  0
   -2.0679    4.1021    1.6860 H   0  0  0  0  0  0  0  0  0  0  0  0
    0.8614   -0.3675    1.0022 C   0  0  0  0  0  0  0  0  0  0  0  0
    1.0569   -1.4000    0.3752 O   0  0  0  0  0  0  0  0  0  0  0  0
    2.1020    0.0729    1.3877 N   0  0  0  0  0  0  0  0  0  0  0  0
    2.7947   -0.5981    1.0634 H   0  0  0  0  0  0  0  0  0  0  0  0
    2.2560    0.4477    2.7882 C   0  0  0  0  0  0  0  0  0  0  0  0
    2.3683   -0.4486    3.4072 H   0  0  0  0  0  0  0  0  0  0  0  0
    3.1452    1.0729    2.9146 H   0  0  0  0  0  0  0  0  0  0  0  0
    1.3867    1.0064    3.1505 H   0  0  0  0  0  0  0  0  0  0  0  0
  1  2  1  0  0  0  0
  2  3  1  0  0  0  0
  2  4  1  0  0  0  0
  2  5  1  0  0  0  0
  5  6  2  0  0  0  0
  5  7  1  0  0  0  0
  7  8  1  0  0  0  0
  7  9  1  0  0  0  0
  9 10  1  0  0  0  0
  9 11  1  0  0  0  0
  9 24  1  0  0  0  0
 11 12  1  0  0  0  0
 11 13  1  0  0  0  0
 11 17  1  0  0  0  0
 13 14  1  0  0  0  0
 13 15  1  0  0  0  0
 13 16  1  0  0  0  0
 17 18  1  0  0  0  0
 17 19  1  0  0  0  0
 17 20  1  0  0  0  0
 20 21  1  0  0  0  0
 20 22  1  0  0  0  0
 20 23  1  0  0  0  0
 24 25  2  0  0  0  0
 24 26  1  0  0  0  0
 26 27  1  0  0  0  0
 26 28  1  0  0  0  0
 28 29  1  0  0  0  0
 28 30  1  0  0  0  0
 28 31  1  0  0  0  0
M  END
$$$$

  -OEChem-01062216083D

 31 30  0     1  0  0  0  0  0999 V2000
   -3.2707   -3.0676    1.2449 H   0  0  0  0  0  0  0  0  0  0  0  0
   -3.1838   -2.1032    0.7363 C   0  0  0  0  0  0  0  0  0  0  0  0
   -4.1298   -1.5655    0.8338 H   0  0  0  0  0  0  0  0  0  0  0  0
   -2.9793   -2.2842   -0.3215 H   0  0  0  0  0  0  0  0  0  0  0  0
   -2.0575   -1.2922    1.3495 C   0  0  0  0  0  0  0  0  0  0  0  0
   -1.5981   -1.6381    2.4247 O   0  0  0  0  0  0  0  0  0  0  0  0
   -1.7722   -0.0390    0.8356 N   0  0  0  0  0  0  0  0  0  0  0  0
   -2.4132    0.2137    0.0916 H   0  0  0  0  0  0  0  0  0  0  0  0
   -0.4233    0.5685    0.6805 C   0  0  1  0  0  0  0  0  0  0  0  0
   -0.1204    0.4526   -0.3652 H   0  0  0  0  0  0  0  0  0  0  0  0
   -0.6049    2.1052    0.9442 C   0  0  1  0  0  0  0  0  0  0  0  0
   -1.0485    2.2491    1.9356 H   0  0  0  0  0  0  0  0  0  0  0  0
    0.7358    2.8792    0.8700 C   0  0  0  0  0  0  0  0  0  0  0  0
    1.3989    2.4286    0.1243 H   0  0  0  0  0  0  0  0  0  0  0  0
    1.2375    2.8841    1.8397 H   0  0  0  0  0  0  0  0  0  0  0  0
    0.6002    3.9264    0.5984 H   0  0  0  0  0  0  0  0  0  0  0  0
   -1.5537    2.7073   -0.1358 C   0  0  0  0  0  0  0  0  0  0  0  0
   -1.0594    2.6888   -1.1130 H   0  0  0  0  0  0  0  0  0  0  0  0
   -2.4597    2.1020   -0.2190 H   0  0  0  0  0  0  0  0  0  0  0  0
   -2.0206    4.1379    0.1692 C   0  0  0  0  0  0  0  0  0  0  0  0
   -1.2170    4.8674    0.0453 H   0  0  0  0  0  0  0  0  0  0  0  0
   -2.8267    4.4154   -0.5169 H   0  0  0  0  0  0  0  0  0  0  0  0
   -2.4024    4.2042    1.1928 H   0  0  0  0  0  0  0  0  0  0  0  0
    0.7003   -0.1721    1.4780 C   0  0  0  0  0  0  0  0  0  0  0  0
    0.9987   -1.2918    1.0760 O   0  0  0  0  0  0  0  0  0  0  0  0
    1.6648    0.4537    2.2491 N   0  0  0  0  0  0  0  0  0  0  0  0
    1.4110    1.3591    2.6285 H   0  0  0  0  0  0  0  0  0  0  0  0
    2.7792   -0.2600    2.8644 C   0  0  0  0  0  0  0  0  0  0  0  0
    3.4232   -0.7026    2.0971 H   0  0  0  0  0  0  0  0  0  0  0  0
    3.3830    0.4272    3.4646 H   0  0  0  0  0  0  0  0  0  0  0  0
    2.4087   -1.0577    3.5171 H   0  0  0  0  0  0  0  0  0  0  0  0
  1  2  1  0  0  0  0
  2  3  1  0  0  0  0
  2  4  1  0  0  0  0
  2  5  1  0  0  0  0
  5  6  2  0  0  0  0
  5  7  1  0  0  0  0
  7  8  1  0  0  0  0
  7  9  1  0  0  0  0
  9 10  1  0  0  0  0
  9 11  1  0  0  0  0
  9 24  1  0  0  0  0
 11 12  1  0  0  0  0
 11 13  1  0  0  0  0
 11 17  1  0  0  0  0
 13 14  1  0  0  0  0
 13 15  1  0  0  0  0
 13 16  1  0  0  0  0
 17 18  1  0  0  0  0
 17 19  1  0  0  0  0
 17 20  1  0  0  0  0
 20 21  1  0  0  0  0
 20 22  1  0  0  0  0
 20 23  1  0  0  0  0
 24 25  2  0  0  0  0
 24 26  1  0  0  0  0
 26 27  1  0  0  0  0
 26 28  1  0  0  0  0
 28 29  1  0  0  0  0
 28 30  1  0  0  0  0
 28 31  1  0  0  0  0
M  END
$$$$

  -OEChem-01062216083D

 31 30  0     1  0  0  0  0  0999 V2000
   -3.3455   -3.0550    1.2396 H   0  0  0  0  0  0  0  0  0  0  0  0
   -3.2714   -2.0637    0.7833 C   0  0  0  0  0  0  0  0  0  0  0  0
   -4.1690   -1.4926    1.0321 H   0  0  0  0  0  0  0  0  0  0  0  0
   -3.2092   -2.1829   -0.3010 H   0  0  0  0  0  0  0  0  0  0  0  0
   -2.0381   -1.3444    1.2974 C   0  0  0  0  0  0  0  0  0  0  0  0
   -1.4492   -1.8081    2.2579 O   0  0  0  0  0  0  0  0  0  0  0  0
   -1.7539   -0.0798    0.8086 N   0  0  0  0  0  0  0  0  0  0  0  0
   -2.4353    0.2286    0.1236 H   0  0  0  0  0  0  0  0  0  0  0  0
   -0.4181    0.5567    0.6617 C   0  0  1  0  0  0  0  0  0  0  0  0
   -0.1191    0.4575   -0.3871 H   0  0  0  0  0  0  0  0  0  0  0  0
   -0.5993    2.0875    0.9444 C   0  0  1  0  0  0  0  0  0  0  0  0
   -1.0311    2.2241    1.9418 H   0  0  0  0  0  0  0  0  0  0  0  0
    0.7438    2.8566    0.8550 C   0  0  0  0  0  0  0  0  0  0  0  0
    1.3436    2.4827    0.0188 H   0  0  0  0  0  0  0  0  0  0  0  0
    0.5957    3.9272    0.7083 H   0  0  0  0  0  0  0  0  0  0  0  0
    1.3228    2.7616    1.7745 H   0  0  0  0  0  0  0  0  0  0  0  0
   -1.5534    2.6980   -0.1247 C   0  0  0  0  0  0  0  0  0  0  0  0
   -1.0643    2.6896   -1.1049 H   0  0  0  0  0  0  0  0  0  0  0  0
   -2.4578    2.0902   -0.2084 H   0  0  0  0  0  0  0  0  0  0  0  0
   -2.0214    4.1241    0.1966 C   0  0  0  0  0  0  0  0  0  0  0  0
   -1.2168    4.8537    0.0780 H   0  0  0  0  0  0  0  0  0  0  0  0
   -2.8286    4.4085   -0.4853 H   0  0  0  0  0  0  0  0  0  0  0  0
   -2.4011    4.1804    1.2215 H   0  0  0  0  0  0  0  0  0  0  0  0
    0.7179   -0.1730    1.4437 C   0  0  0  0  0  0  0  0  0  0  0  0
    1.1784   -1.1842    0.9253 O   0  0  0  0  0  0  0  0  0  0  0  0
    1.4761    0.4093    2.4440 N   0  0  0  0  0  0  0  0  0  0  0  0
    1.0586    1.2072    2.9113 H   0  0  0  0  0  0  0  0  0  0  0  0
    2.5741   -0.2836    3.1079 C   0  0  0  0  0  0  0  0  0  0  0  0
    3.3666   -0.5228    2.3910 H   0  0  0  0  0  0  0  0  0  0  0  0
    2.9999    0.3477    3.8934 H   0  0  0  0  0  0  0  0  0  0  0  0
    2.2183   -1.2136    3.5639 H   0  0  0  0  0  0  0  0  0  0  0  0
  1  2  1  0  0  0  0
  2  3  1  0  0  0  0
  2  4  1  0  0  0  0
  2  5  1  0  0  0  0
  5  6  2  0  0  0  0
  5  7  1  0  0  0  0
  7  8  1  0  0  0  0
  7  9  1  0  0  0  0
  9 10  1  0  0  0  0
  9 11  1  0  0  0  0
  9 24  1  0  0  0  0
 11 12  1  0  0  0  0
 11 13  1  0  0  0  0
 11 17  1  0  0  0  0
 13 14  1  0  0  0  0
 13 15  1  0  0  0  0
 13 16  1  0  0  0  0
 17 18  1  0  0  0  0
 17 19  1  0  0  0  0
 17 20  1  0  0  0  0
 20 21  1  0  0  0  0
 20 22  1  0  0  0  0
 20 23  1  0  0  0  0
 24 25  2  0  0  0  0
 24 26  1  0  0  0  0
 26 27  1  0  0  0  0
 26 28  1  0  0  0  0
 28 29  1  0  0  0  0
 28 30  1  0  0  0  0
 28 31  1  0  0  0  0
M  END
$$$$

  -OEChem-01062216083D

 31 30  0     1  0  0  0  0  0999 V2000
   -3.4270   -3.0306    1.2386 H   0  0  0  0  0  0  0  0  0  0  0  0
   -3.3412   -2.0266    0.8128 C   0  0  0  0  0  0  0  0  0  0  0  0
   -4.1723   -1.4176    1.1765 H   0  0  0  0  0  0  0  0  0  0  0  0
   -3.4007   -2.1031   -0.2755 H   0  0  0  0  0  0  0  0  0  0  0  0
   -2.0205   -1.3980    1.2173 C   0  0  0  0  0  0  0  0  0  0  0  0
   -1.3379   -1.9666    2.0497 O   0  0  0  0  0  0  0  0  0  0  0  0
   -1.7222   -0.1317    0.7401 N   0  0  0  0  0  0  0  0  0  0  0  0
   -2.4350    0.2334    0.1175 H   0  0  0  0  0  0  0  0  0  0  0  0
   -0.3961    0.5295    0.6234 C   0  0  1  0  0  0  0  0  0  0  0  0
   -0.0769    0.4442   -0.4208 H   0  0  0  0  0  0  0  0  0  0  0  0
   -0.5864    2.0515    0.9267 C   0  0  1  0  0  0  0  0  0  0  0  0
   -1.0185    2.1672    1.9266 H   0  0  0  0  0  0  0  0  0  0  0  0
    0.7514    2.8311    0.8450 C   0  0  0  0  0  0  0  0  0  0  0  0
    1.2177    2.6831   -0.1343 H   0  0  0  0  0  0  0  0  0  0  0  0
    0.5943    3.9015    0.9940 H   0  0  0  0  0  0  0  0  0  0  0  0
    1.4645    2.5235    1.6092 H   0  0  0  0  0  0  0  0  0  0  0  0
   -1.5296    2.6799   -0.1389 C   0  0  0  0  0  0  0  0  0  0  0  0
   -1.0341    2.6922   -1.1157 H   0  0  0  0  0  0  0  0  0  0  0  0
   -2.4325    2.0728   -0.2421 H   0  0  0  0  0  0  0  0  0  0  0  0
   -1.9953    4.0978    0.2138 C   0  0  0  0  0  0  0  0  0  0  0  0
   -1.1792    4.8200    0.1298 H   0  0  0  0  0  0  0  0  0  0  0  0
   -2.7874    4.4081   -0.4742 H   0  0  0  0  0  0  0  0  0  0  0  0
   -2.3922    4.1294    1.2333 H   0  0  0  0  0  0  0  0  0  0  0  0
    0.7339   -0.1761    1.4301 C   0  0  0  0  0  0  0  0  0  0  0  0
    1.3840   -1.0405    0.8538 O   0  0  0  0  0  0  0  0  0  0  0  0
    1.2355    0.3177    2.6223 N   0  0  0  0  0  0  0  0  0  0  0  0
    0.6364    0.9673    3.1209 H   0  0  0  0  0  0  0  0  0  0  0  0
    2.2992   -0.3491    3.3628 C   0  0  0  0  0  0  0  0  0  0  0  0
    3.2167   -0.3868    2.7663 H   0  0  0  0  0  0  0  0  0  0  0  0
    2.5123    0.1935    4.2886 H   0  0  0  0  0  0  0  0  0  0  0  0
    2.0028   -1.3717    3.6195 H   0  0  0  0  0  0  0  0  0  0  0  0
  1  2  1  0  0  0  0
  2  3  1  0  0  0  0
  2  4  1  0  0  0  0
  2  5  1  0  0  0  0
  5  6  2  0  0  0  0
  5  7  1  0  0  0  0
  7  8  1  0  0  0  0
  7  9  1  0  0  0  0
  9 10  1  0  0  0  0
  9 11  1  0  0  0  0
  9 24  1  0  0  0  0
 11 12  1  0  0  0  0
 11 13  1  0  0  0  0
 11 17  1  0  0  0  0
 13 14  1  0  0  0  0
 13 15  1  0  0  0  0
 13 16  1  0  0  0  0
 17 18  1  0  0  0  0
 17 19  1  0  0  0  0
 17 20  1  0  0  0  0
 20 21  1  0  0  0  0
 20 22  1  0  0  0  0
 20 23  1  0  0  0  0
 24 25  2  0  0  0  0
 24 26  1  0  0  0  0
 26 27  1  0  0  0  0
 26 28  1  0  0  0  0
 28 29  1  0  0  0  0
 28 30  1  0  0  0  0
 28 31  1  0  0  0  0
M  END
$$$$

  -OEChem-01062216083D

 31 30  0     1  0  0  0  0  0999 V2000
   -3.4688   -3.0258    1.2284 H   0  0  0  0  0  0  0  0  0  0  0  0
   -3.3914   -2.0050    0.8428 C   0  0  0  0  0  0  0  0  0  0  0  0
   -4.1638   -1.3917    1.3131 H   0  0  0  0  0  0  0  0  0  0  0  0
   -3.5570   -2.0262   -0.2370 H   0  0  0  0  0  0  0  0  0  0  0  0
   -2.0185   -1.4342    1.1469 C   0  0  0  0  0  0  0  0  0  0  0  0
   -1.2711   -2.0708    1.8661 O   0  0  0  0  0  0  0  0  0  0  0  0
   -1.7142   -0.1672    0.6759 N   0  0  0  0  0  0  0  0  0  0  0  0
   -2.4495    0.2443    0.1107 H   0  0  0  0  0  0  0  0  0  0  0  0
   -0.3916    0.5022    0.5845 C   0  0  1  0  0  0  0  0  0  0  0  0
   -0.0599    0.4280   -0.4567 H   0  0  0  0  0  0  0  0  0  0  0  0
   -0.5830    2.0168    0.9087 C   0  0  1  0  0  0  0  0  0  0  0  0
   -1.0320    2.1129    1.9032 H   0  0  0  0  0  0  0  0  0  0  0  0
    0.7652    2.7774    0.8830 C   0  0  0  0  0  0  0  0  0  0  0  0
    1.2397    2.6790   -0.0987 H   0  0  0  0  0  0  0  0  0  0  0  0
    0.6216    3.8397    1.0932 H   0  0  0  0  0  0  0  0  0  0  0  0
    1.4626    2.4054    1.6357 H   0  0  0  0  0  0  0  0  0  0  0  0
   -1.5112    2.6730   -0.1501 C   0  0  0  0  0  0  0  0  0  0  0  0
   -1.0044    2.7057   -1.1205 H   0  0  0  0  0  0  0  0  0  0  0  0
   -2.4157    2.0727   -0.2765 H   0  0  0  0  0  0  0  0  0  0  0  0
   -1.9683    4.0848    0.2342 C   0  0  0  0  0  0  0  0  0  0  0  0
   -1.1394    4.7966    0.1990 H   0  0  0  0  0  0  0  0  0  0  0  0
   -2.7352    4.4292   -0.4662 H   0  0  0  0  0  0  0  0  0  0  0  0
   -2.3948    4.0881    1.2420 H   0  0  0  0  0  0  0  0  0  0  0  0
    0.7421   -0.1742    1.4053 C   0  0  0  0  0  0  0  0  0  0  0  0
    1.5749   -0.8428    0.8048 O   0  0  0  0  0  0  0  0  0  0  0  0
    0.9953    0.1719    2.7221 N   0  0  0  0  0  0  0  0  0  0  0  0
    0.2241    0.6072    3.2173 H   0  0  0  0  0  0  0  0  0  0  0  0
    2.0434   -0.4681    3.5065 C   0  0  0  0  0  0  0  0  0  0  0  0
    3.0237   -0.2991    3.0486 H   0  0  0  0  0  0  0  0  0  0  0  0
    2.0617   -0.0561    4.5198 H   0  0  0  0  0  0  0  0  0  0  0  0
    1.8663   -1.5469    3.5720 H   0  0  0  0  0  0  0  0  0  0  0  0
  1  2  1  0  0  0  0
  2  3  1  0  0  0  0
  2  4  1  0  0  0  0
  2  5  1  0  0  0  0
  5  6  2  0  0  0  0
  5  7  1  0  0  0  0
  7  8  1  0  0  0  0
  7  9  1  0  0  0  0
  9 10  1  0  0  0  0
  9 11  1  0  0  0  0
  9 24  1  0  0  0  0
 11 12  1  0  0  0  0
 11 13  1  0  0  0  0
 11 17  1  0  0  0  0
 13 14  1  0  0  0  0
 13 15  1  0  0  0  0
 13 16  1  0  0  0  0
 17 18  1  0  0  0  0
 17 19  1  0  0  0  0
 17 20  1  0  0  0  0
 20 21  1  0  0  0  0
 20 22  1  0  0  0  0
 20 23  1  0  0  0  0
 24 25  2  0  0  0  0
 24 26  1  0  0  0  0
 26 27  1  0  0  0  0
 26 28  1  0  0  0  0
 28 29  1  0  0  0  0
 28 30  1  0  0  0  0
 28 31  1  0  0  0  0
M  END
$$$$

  -OEChem-01062216083D

 31 30  0     1  0  0  0  0  0999 V2000
   -3.5129   -3.0053    1.2368 H   0  0  0  0  0  0  0  0  0  0  0  0
   -3.4286   -1.9811    0.8620 C   0  0  0  0  0  0  0  0  0  0  0  0
   -4.1558   -1.3545    1.3839 H   0  0  0  0  0  0  0  0  0  0  0  0
   -3.6556   -1.9804   -0.2069 H   0  0  0  0  0  0  0  0  0  0  0  0
   -2.0254   -1.4524    1.0959 C   0  0  0  0  0  0  0  0  0  0  0  0
   -1.2437   -2.1329    1.7337 O   0  0  0  0  0  0  0  0  0  0  0  0
   -1.7115   -0.1875    0.6275 N   0  0  0  0  0  0  0  0  0  0  0  0
   -2.4623    0.2635    0.1149 H   0  0  0  0  0  0  0  0  0  0  0  0
   -0.3879    0.4813    0.5552 C   0  0  1  0  0  0  0  0  0  0  0  0
   -0.0477    0.4153   -0.4840 H   0  0  0  0  0  0  0  0  0  0  0  0
   -0.5828    1.9903    0.8965 C   0  0  1  0  0  0  0  0  0  0  0  0
   -1.0517    2.0675    1.8835 H   0  0  0  0  0  0  0  0  0  0  0  0
    0.7688    2.7403    0.9312 C   0  0  0  0  0  0  0  0  0  0  0  0
    1.2816    2.6479   -0.0315 H   0  0  0  0  0  0  0  0  0  0  0  0
    0.6267    3.8014    1.1481 H   0  0  0  0  0  0  0  0  0  0  0  0
    1.4271    2.3476    1.7104 H   0  0  0  0  0  0  0  0  0  0  0  0
   -1.4992    2.6656   -0.1593 C   0  0  0  0  0  0  0  0  0  0  0  0
   -0.9800    2.7149   -1.1225 H   0  0  0  0  0  0  0  0  0  0  0  0
   -2.4030    2.0692   -0.3074 H   0  0  0  0  0  0  0  0  0  0  0  0
   -1.9562    4.0718    0.2444 C   0  0  0  0  0  0  0  0  0  0  0  0
   -1.1223    4.7787    0.2406 H   0  0  0  0  0  0  0  0  0  0  0  0
   -2.7064    4.4352   -0.4646 H   0  0  0  0  0  0  0  0  0  0  0  0
   -2.4031    4.0578    1.2432 H   0  0  0  0  0  0  0  0  0  0  0  0
    0.7517   -0.1685    1.3851 C   0  0  0  0  0  0  0  0  0  0  0  0
    1.7308   -0.6127    0.7975 O   0  0  0  0  0  0  0  0  0  0  0  0
    0.7954   -0.0330    2.7623 N   0  0  0  0  0  0  0  0  0  0  0  0
   -0.0987    0.1572    3.2032 H   0  0  0  0  0  0  0  0  0  0  0  0
    1.8289   -0.6710    3.5672 C   0  0  0  0  0  0  0  0  0  0  0  0
    2.8221   -0.3213    3.2662 H   0  0  0  0  0  0  0  0  0  0  0  0
    1.6865   -0.4305    4.6249 H   0  0  0  0  0  0  0  0  0  0  0  0
    1.7866   -1.7589    3.4480 H   0  0  0  0  0  0  0  0  0  0  0  0
  1  2  1  0  0  0  0
  2  3  1  0  0  0  0
  2  4  1  0  0  0  0
  2  5  1  0  0  0  0
  5  6  2  0  0  0  0
  5  7  1  0  0  0  0
  7  8  1  0  0  0  0
  7  9  1  0  0  0  0
  9 10  1  0  0  0  0
  9 11  1  0  0  0  0
  9 24  1  0  0  0  0
 11 12  1  0  0  0  0
 11 13  1  0  0  0  0
 11 17  1  0  0  0  0
 13 14  1  0  0  0  0
 13 15  1  0  0  0  0
 13 16  1  0  0  0  0
 17 18  1  0  0  0  0
 17 19  1  0  0  0  0
 17 20  1  0  0  0  0
 20 21  1  0  0  0  0
 20 22  1  0  0  0  0
 20 23  1  0  0  0  0
 24 25  2  0  0  0  0
 24 26  1  0  0  0  0
 26 27  1  0  0  0  0
 26 28  1  0  0  0  0
 28 29  1  0  0  0  0
 28 30  1  0  0  0  0
 28 31  1  0  0  0  0
M  END
$$$$

  -OEChem-01062216083D

 31 30  0     1  0  0  0  0  0999 V2000
   -3.5946   -2.9602    1.2349 H   0  0  0  0  0  0  0  0  0  0  0  0
   -3.4851   -1.9385    0.8596 C   0  0  0  0  0  0  0  0  0  0  0  0
   -4.1752   -1.2885    1.4028 H   0  0  0  0  0  0  0  0  0  0  0  0
   -3.7426   -1.9271   -0.2024 H   0  0  0  0  0  0  0  0  0  0  0  0
   -2.0583   -1.4591    1.0542 C   0  0  0  0  0  0  0  0  0  0  0  0
   -1.2733   -2.1805    1.6401 O   0  0  0  0  0  0  0  0  0  0  0  0
   -1.7151   -0.2010    0.5910 N   0  0  0  0  0  0  0  0  0  0  0  0
   -2.4676    0.2884    0.1175 H   0  0  0  0  0  0  0  0  0  0  0  0
   -0.3840    0.4565    0.5403 C   0  0  1  0  0  0  0  0  0  0  0  0
   -0.0323    0.3949   -0.4949 H   0  0  0  0  0  0  0  0  0  0  0  0
   -0.5874    1.9629    0.8927 C   0  0  1  0  0  0  0  0  0  0  0  0
   -1.0775    2.0245    1.8706 H   0  0  0  0  0  0  0  0  0  0  0  0
    0.7594    2.7158    0.9795 C   0  0  0  0  0  0  0  0  0  0  0  0
    1.3087    2.6276    0.0366 H   0  0  0  0  0  0  0  0  0  0  0  0
    0.6085    3.7757    1.1955 H   0  0  0  0  0  0  0  0  0  0  0  0
    1.3855    2.3188    1.7837 H   0  0  0  0  0  0  0  0  0  0  0  0
   -1.4878    2.6512   -0.1685 C   0  0  0  0  0  0  0  0  0  0  0  0
   -0.9521    2.7129   -1.1218 H   0  0  0  0  0  0  0  0  0  0  0  0
   -2.3886    2.0570   -0.3401 H   0  0  0  0  0  0  0  0  0  0  0  0
   -1.9514    4.0525    0.2443 C   0  0  0  0  0  0  0  0  0  0  0  0
   -1.1176    4.7593    0.2609 H   0  0  0  0  0  0  0  0  0  0  0  0
   -2.6905    4.4237   -0.4721 H   0  0  0  0  0  0  0  0  0  0  0  0
   -2.4134    4.0277    1.2360 H   0  0  0  0  0  0  0  0  0  0  0  0
    0.7587   -0.1734    1.3818 C   0  0  0  0  0  0  0  0  0  0  0  0
    1.8411   -0.3812    0.8461 O   0  0  0  0  0  0  0  0  0  0  0  0
    0.6498   -0.2944    2.7559 N   0  0  0  0  0  0  0  0  0  0  0  0
   -0.3059   -0.3740    3.0909 H   0  0  0  0  0  0  0  0  0  0  0  0
    1.6956   -0.9177    3.5569 C   0  0  0  0  0  0  0  0  0  0  0  0
    2.6431   -0.3819    3.4373 H   0  0  0  0  0  0  0  0  0  0  0  0
    1.4224   -0.8982    4.6161 H   0  0  0  0  0  0  0  0  0  0  0  0
    1.8387   -1.9600    3.2525 H   0  0  0  0  0  0  0  0  0  0  0  0
  1  2  1  0  0  0  0
  2  3  1  0  0  0  0
  2  4  1  0  0  0  0
  2  5  1  0  0  0  0
  5  6  2  0  0  0  0
  5  7  1  0  0  0  0
  7  8  1  0  0  0  0
  7  9  1  0  0  0  0
  9 10  1  0  0  0  0
  9 11  1  0  0  0  0
  9 24  1  0  0  0  0
 11 12  1  0  0  0  0
 11 13  1  0  0  0  0
 11 17  1  0  0  0  0
 13 14  1  0  0  0  0
 13 15  1  0  0  0  0
 13 16  1  0  0  0  0
 17 18  1  0  0  0  0
 17 19  1  0  0  0  0
 17 20  1  0  0  0  0
 20 21  1  0  0  0  0
 20 22  1  0  0  0  0
 20 23  1  0  0  0  0
 24 25  2  0  0  0  0
 24 26  1  0  0  0  0
 26 27  1  0  0  0  0
 26 28  1  0  0  0  0
 28 29  1  0  0  0  0
 28 30  1  0  0  0  0
 28 31  1  0  0  0  0
M  END
$$$$

  -OEChem-01062216083D

 31 30  0     1  0  0  0  0  0999 V2000
   -3.7105   -2.8839    1.2150 H   0  0  0  0  0  0  0  0  0  0  0  0
   -3.5596   -1.8636    0.8505 C   0  0  0  0  0  0  0  0  0  0  0  0
   -4.2004   -1.1879    1.4223 H   0  0  0  0  0  0  0  0  0  0  0  0
   -3.8459   -1.8230   -0.2034 H   0  0  0  0  0  0  0  0  0  0  0  0
   -2.1055   -1.4596    1.0095 C   0  0  0  0  0  0  0  0  0  0  0  0
   -1.3364   -2.2393    1.5386 O   0  0  0  0  0  0  0  0  0  0  0  0
   -1.7153   -0.2109    0.5604 N   0  0  0  0  0  0  0  0  0  0  0  0
   -2.4637    0.3275    0.1362 H   0  0  0  0  0  0  0  0  0  0  0  0
   -0.3739    0.4304    0.5379 C   0  0  1  0  0  0  0  0  0  0  0  0
   -0.0067    0.3735   -0.4924 H   0  0  0  0  0  0  0  0  0  0  0  0
   -0.5966    1.9356    0.8947 C   0  0  1  0  0  0  0  0  0  0  0  0
   -1.1151    1.9824    1.8587 H   0  0  0  0  0  0  0  0  0  0  0  0
    0.7348    2.7071    1.0352 C   0  0  0  0  0  0  0  0  0  0  0  0
    1.3230    2.6275    0.1153 H   0  0  0  0  0  0  0  0  0  0  0  0
    0.5624    3.7646    1.2467 H   0  0  0  0  0  0  0  0  0  0  0  0
    1.3314    2.3170    1.8651 H   0  0  0  0  0  0  0  0  0  0  0  0
   -1.4763    2.6267   -0.1838 C   0  0  0  0  0  0  0  0  0  0  0  0
   -0.9159    2.6994   -1.1220 H   0  0  0  0  0  0  0  0  0  0  0  0
   -2.3693    2.0305   -0.3853 H   0  0  0  0  0  0  0  0  0  0  0  0
   -1.9597    4.0224    0.2258 C   0  0  0  0  0  0  0  0  0  0  0  0
   -1.1327    4.7366    0.2578 H   0  0  0  0  0  0  0  0  0  0  0  0
   -2.6904    4.3895   -0.5014 H   0  0  0  0  0  0  0  0  0  0  0  0
   -2.4379    3.9903    1.2097 H   0  0  0  0  0  0  0  0  0  0  0  0
    0.7711   -0.1851    1.3922 C   0  0  0  0  0  0  0  0  0  0  0  0
    1.9078   -0.1884    0.9333 O   0  0  0  0  0  0  0  0  0  0  0  0
    0.5787   -0.5862    2.7014 N   0  0  0  0  0  0  0  0  0  0  0  0
   -0.3703   -0.9047    2.8874 H   0  0  0  0  0  0  0  0  0  0  0  0
    1.6461   -1.2020    3.4796 C   0  0  0  0  0  0  0  0  0  0  0  0
    2.5038   -0.5256    3.5584 H   0  0  0  0  0  0  0  0  0  0  0  0
    1.2931   -1.4286    4.4901 H   0  0  0  0  0  0  0  0  0  0  0  0
    1.9737   -2.1341    3.0074 H   0  0  0  0  0  0  0  0  0  0  0  0
  1  2  1  0  0  0  0
  2  3  1  0  0  0  0
  2  4  1  0  0  0  0
  2  5  1  0  0  0  0
  5  6  2  0  0  0  0
  5  7  1  0  0  0  0
  7  8  1  0  0  0  0
  7  9  1  0  0  0  0
  9 10  1  0  0  0  0
  9 11  1  0  0  0  0
  9 24  1  0  0  0  0
 11 12  1  0  0  0  0
 11 13  1  0  0  0  0
 11 17  1  0  0  0  0
 13 14  1  0  0  0  0
 13 15  1  0  0  0  0
 13 16  1  0  0  0  0
 17 18  1  0  0  0  0
 17 19  1  0  0  0  0
 17 20  1  0  0  0  0
 20 21  1  0  0  0  0
 20 22  1  0  0  0  0
 20 23  1  0  0  0  0
 24 25  2  0  0  0  0
 24 26  1  0  0  0  0
 26 27  1  0  0  0  0
 26 28  1  0  0  0  0
 28 29  1  0  0  0  0
 28 30  1  0  0  0  0
 28 31  1  0  0  0  0
M  END
$$$$

  -OEChem-01062216083D

 31 30  0     1  0  0  0  0  0999 V2000
   -3.8238   -2.7913    1.2154 H   0  0  0  0  0  0  0  0  0  0  0  0
   -3.6290   -1.7762    0.8572 C   0  0  0  0  0  0  0  0  0  0  0  0
   -4.2025   -1.0733    1.4662 H   0  0  0  0  0  0  0  0  0  0  0  0
   -3.9594   -1.7026   -0.1817 H   0  0  0  0  0  0  0  0  0  0  0  0
   -2.1477   -1.4613    0.9545 C   0  0  0  0  0  0  0  0  0  0  0  0
   -1.3967   -2.3178    1.3806 O   0  0  0  0  0  0  0  0  0  0  0  0
   -1.7109   -0.2194    0.5309 N   0  0  0  0  0  0  0  0  0  0  0  0
   -2.4569    0.3744    0.1838 H   0  0  0  0  0  0  0  0  0  0  0  0
   -0.3606    0.4082    0.5432 C   0  0  1  0  0  0  0  0  0  0  0  0
    0.0241    0.3570   -0.4809 H   0  0  0  0  0  0  0  0  0  0  0  0
   -0.6099    1.9142    0.8974 C   0  0  1  0  0  0  0  0  0  0  0  0
   -1.1622    1.9494    1.8429 H   0  0  0  0  0  0  0  0  0  0  0  0
    0.6986    2.7123    1.0937 C   0  0  0  0  0  0  0  0  0  0  0  0
    1.3264    2.6453    0.1994 H   0  0  0  0  0  0  0  0  0  0  0  0
    0.4981    3.7659    1.2985 H   0  0  0  0  0  0  0  0  0  0  0  0
    1.2655    2.3340    1.9494 H   0  0  0  0  0  0  0  0  0  0  0  0
   -1.4636    2.6023   -0.2062 C   0  0  0  0  0  0  0  0  0  0  0  0
   -0.8734    2.6838   -1.1253 H   0  0  0  0  0  0  0  0  0  0  0  0
   -2.3445    2.0008   -0.4414 H   0  0  0  0  0  0  0  0  0  0  0  0
   -1.9737    3.9923    0.1911 C   0  0  0  0  0  0  0  0  0  0  0  0
   -1.1571    4.7166    0.2484 H   0  0  0  0  0  0  0  0  0  0  0  0
   -2.6867    4.3524   -0.5567 H   0  0  0  0  0  0  0  0  0  0  0  0
   -2.4802    3.9524    1.1603 H   0  0  0  0  0  0  0  0  0  0  0  0
    0.7860   -0.1989    1.4096 C   0  0  0  0  0  0  0  0  0  0  0  0
    1.9433   -0.0378    1.0379 O   0  0  0  0  0  0  0  0  0  0  0  0
    0.5748   -0.8780    2.5949 N   0  0  0  0  0  0  0  0  0  0  0  0
   -0.3430   -1.3195    2.6514 H   0  0  0  0  0  0  0  0  0  0  0  0
    1.6601   -1.5180    3.3285 C   0  0  0  0  0  0  0  0  0  0  0  0
    2.4206   -0.7823    3.6103 H   0  0  0  0  0  0  0  0  0  0  0  0
    1.2752   -1.9806    4.2421 H   0  0  0  0  0  0  0  0  0  0  0  0
    2.1304   -2.2949    2.7164 H   0  0  0  0  0  0  0  0  0  0  0  0
  1  2  1  0  0  0  0
  2  3  1  0  0  0  0
  2  4  1  0  0  0  0
  2  5  1  0  0  0  0
  5  6  2  0  0  0  0
  5  7  1  0  0  0  0
  7  8  1  0  0  0  0
  7  9  1  0  0  0  0
  9 10  1  0  0  0  0
  9 11  1  0  0  0  0
  9 24  1  0  0  0  0
 11 12  1  0  0  0  0
 11 13  1  0  0  0  0
 11 17  1  0  0  0  0
 13 14  1  0  0  0  0
 13 15  1  0  0  0  0
 13 16  1  0  0  0  0
 17 18  1  0  0  0  0
 17 19  1  0  0  0  0
 17 20  1  0  0  0  0
 20 21  1  0  0  0  0
 20 22  1  0  0  0  0
 20 23  1  0  0  0  0
 24 25  2  0  0  0  0
 24 26  1  0  0  0  0
 26 27  1  0  0  0  0
 26 28  1  0  0  0  0
 28 29  1  0  0  0  0
 28 30  1  0  0  0  0
 28 31  1  0  0  0  0
M  END
$$$$

  -OEChem-01062216083D

 31 30  0     1  0  0  0  0  0999 V2000
   -3.9039   -2.6941    1.2626 H   0  0  0  0  0  0  0  0  0  0  0  0
   -3.6749   -1.6901    0.8933 C   0  0  0  0  0  0  0  0  0  0  0  0
   -4.1661   -0.9588    1.5399 H   0  0  0  0  0  0  0  0  0  0  0  0
   -4.0676   -1.5918   -0.1218 H   0  0  0  0  0  0  0  0  0  0  0  0
   -2.1749   -1.4604    0.8935 C   0  0  0  0  0  0  0  0  0  0  0  0
   -1.4445   -2.3891    1.1824 O   0  0  0  0  0  0  0  0  0  0  0  0
   -1.7013   -0.2228    0.4988 N   0  0  0  0  0  0  0  0  0  0  0  0
   -2.4442    0.4229    0.2522 H   0  0  0  0  0  0  0  0  0  0  0  0
   -0.3437    0.3907    0.5462 C   0  0  1  0  0  0  0  0  0  0  0  0
    0.0598    0.3464   -0.4708 H   0  0  0  0  0  0  0  0  0  0  0  0
   -0.6211    1.8967    0.8983 C   0  0  1  0  0  0  0  0  0  0  0  0
   -1.2072    1.9187    1.8238 H   0  0  0  0  0  0  0  0  0  0  0  0
    0.6599    2.7222    1.1514 C   0  0  0  0  0  0  0  0  0  0  0  0
    1.3294    2.6674    0.2870 H   0  0  0  0  0  0  0  0  0  0  0  0
    0.4299    3.7717    1.3452 H   0  0  0  0  0  0  0  0  0  0  0  0
    1.1921    2.3563    2.0342 H   0  0  0  0  0  0  0  0  0  0  0  0
   -1.4492    2.5806   -0.2300 C   0  0  0  0  0  0  0  0  0  0  0  0
   -0.8293    2.6729   -1.1284 H   0  0  0  0  0  0  0  0  0  0  0  0
   -2.3151    1.9720   -0.4995 H   0  0  0  0  0  0  0  0  0  0  0  0
   -1.9883    3.9640    0.1527 C   0  0  0  0  0  0  0  0  0  0  0  0
   -1.1843    4.7012    0.2220 H   0  0  0  0  0  0  0  0  0  0  0  0
   -2.6922    4.3103   -0.6102 H   0  0  0  0  0  0  0  0  0  0  0  0
   -2.5129    3.9201    1.1123 H   0  0  0  0  0  0  0  0  0  0  0  0
    0.7991   -0.2190    1.4239 C   0  0  0  0  0  0  0  0  0  0  0  0
    1.9580    0.0784    1.1555 O   0  0  0  0  0  0  0  0  0  0  0  0
    0.6119   -1.1460    2.4314 N   0  0  0  0  0  0  0  0  0  0  0  0
   -0.2768   -1.6445    2.3825 H   0  0  0  0  0  0  0  0  0  0  0  0
    1.7172   -1.8237    3.0987 C   0  0  0  0  0  0  0  0  0  0  0  0
    2.3841   -1.0964    3.5732 H   0  0  0  0  0  0  0  0  0  0  0  0
    1.3339   -2.4944    3.8736 H   0  0  0  0  0  0  0  0  0  0  0  0
    2.2937   -2.4157    2.3802 H   0  0  0  0  0  0  0  0  0  0  0  0
  1  2  1  0  0  0  0
  2  3  1  0  0  0  0
  2  4  1  0  0  0  0
  2  5  1  0  0  0  0
  5  6  2  0  0  0  0
  5  7  1  0  0  0  0
  7  8  1  0  0  0  0
  7  9  1  0  0  0  0
  9 10  1  0  0  0  0
  9 11  1  0  0  0  0
  9 24  1  0  0  0  0
 11 12  1  0  0  0  0
 11 13  1  0  0  0  0
 11 17  1  0  0  0  0
 13 14  1  0  0  0  0
 13 15  1  0  0  0  0
 13 16  1  0  0  0  0
 17 18  1  0  0  0  0
 17 19  1  0  0  0  0
 17 20  1  0  0  0  0
 20 21  1  0  0  0  0
 20 22  1  0  0  0  0
 20 23  1  0  0  0  0
 24 25  2  0  0  0  0
 24 26  1  0  0  0  0
 26 27  1  0  0  0  0
 26 28  1  0  0  0  0
 28 29  1  0  0  0  0
 28 30  1  0  0  0  0
 28 31  1  0  0  0  0
M  END
$$$$

  -OEChem-01062216083D

 31 30  0     1  0  0  0  0  0999 V2000
   -3.8806   -2.6909    1.3680 H   0  0  0  0  0  0  0  0  0  0  0  0
   -3.6483   -1.6880    0.9983 C   0  0  0  0  0  0  0  0  0  0  0  0
   -4.0821   -0.9541    1.6818 H   0  0  0  0  0  0  0  0  0  0  0  0
   -4.0966   -1.5653    0.0093 H   0  0  0  0  0  0  0  0  0  0  0  0
   -2.1456   -1.4952    0.9141 C   0  0  0  0  0  0  0  0  0  0  0  0
   -1.4244   -2.4535    1.1169 O   0  0  0  0  0  0  0  0  0  0  0  0
   -1.6668   -0.2659    0.5015 N   0  0  0  0  0  0  0  0  0  0  0  0
   -2.4155    0.3907    0.3058 H   0  0  0  0  0  0  0  0  0  0  0  0
   -0.3173    0.3662    0.5638 C   0  0  1  0  0  0  0  0  0  0  0  0
    0.1130    0.2940   -0.4404 H   0  0  0  0  0  0  0  0  0  0  0  0
   -0.6540    1.8797    0.8432 C   0  0  1  0  0  0  0  0  0  0  0  0
   -1.2757    1.9189    1.7447 H   0  0  0  0  0  0  0  0  0  0  0  0
    0.5788    2.7704    1.1107 C   0  0  0  0  0  0  0  0  0  0  0  0
    1.2959    2.6929    0.2870 H   0  0  0  0  0  0  0  0  0  0  0  0
    0.3018    3.8194    1.2298 H   0  0  0  0  0  0  0  0  0  0  0  0
    1.0732    2.4786    2.0416 H   0  0  0  0  0  0  0  0  0  0  0  0
   -1.4629    2.4883   -0.3432 C   0  0  0  0  0  0  0  0  0  0  0  0
   -0.8137    2.5623   -1.2221 H   0  0  0  0  0  0  0  0  0  0  0  0
   -2.2990    1.8423   -0.6186 H   0  0  0  0  0  0  0  0  0  0  0  0
   -2.0606    3.8683   -0.0440 C   0  0  0  0  0  0  0  0  0  0  0  0
   -1.2861    4.6383    0.0039 H   0  0  0  0  0  0  0  0  0  0  0  0
   -2.7587    4.1485   -0.8387 H   0  0  0  0  0  0  0  0  0  0  0  0
   -2.6054    3.8534    0.9049 H   0  0  0  0  0  0  0  0  0  0  0  0
    0.8213   -0.1986    1.4840 C   0  0  0  0  0  0  0  0  0  0  0  0
    1.9558    0.2453    1.3501 O   0  0  0  0  0  0  0  0  0  0  0  0
    0.7103   -1.2982    2.3130 N   0  0  0  0  0  0  0  0  0  0  0  0
   -0.1275   -1.8633    2.1762 H   0  0  0  0  0  0  0  0  0  0  0  0
    1.8465   -1.9320    2.9721 C   0  0  0  0  0  0  0  0  0  0  0  0
    2.3765   -1.2112    3.6035 H   0  0  0  0  0  0  0  0  0  0  0  0
    1.5017   -2.7547    3.6056 H   0  0  0  0  0  0  0  0  0  0  0  0
    2.5448   -2.3333    2.2303 H   0  0  0  0  0  0  0  0  0  0  0  0
  1  2  1  0  0  0  0
  2  3  1  0  0  0  0
  2  4  1  0  0  0  0
  2  5  1  0  0  0  0
  5  6  2  0  0  0  0
  5  7  1  0  0  0  0
  7  8  1  0  0  0  0
  7  9  1  0  0  0  0
  9 10  1  0  0  0  0
  9 11  1  0  0  0  0
  9 24  1  0  0  0  0
 11 12  1  0  0  0  0
 11 13  1  0  0  0  0
 11 17  1  0  0  0  0
 13 14  1  0  0  0  0
 13 15  1  0  0  0  0
 13 16  1  0  0  0  0
 17 18  1  0  0  0  0
 17 19  1  0  0  0  0
 17 20  1  0  0  0  0
 20 21  1  0  0  0  0
 20 22  1  0  0  0  0
 20 23  1  0  0  0  0
 24 25  2  0  0  0  0
 24 26  1  0  0  0  0
 26 27  1  0  0  0  0
 26 28  1  0  0  0  0
 28 29  1  0  0  0  0
 28 30  1  0  0  0  0
 28 31  1  0  0  0  0
M  END
$$$$

  -OEChem-01062216083D

 31 30  0     1  0  0  0  0  0999 V2000
   -3.1836   -3.0255    1.6190 H   0  0  0  0  0  0  0  0  0  0  0  0
   -3.1305   -1.9613    1.3719 C   0  0  0  0  0  0  0  0  0  0  0  0
   -3.2817   -1.3816    2.2856 H   0  0  0  0  0  0  0  0  0  0  0  0
   -3.9258   -1.7251    0.6608 H   0  0  0  0  0  0  0  0  0  0  0  0
   -1.7790   -1.6323    0.7658 C   0  0  0  0  0  0  0  0  0  0  0  0
   -1.0450   -2.5450    0.4390 O   0  0  0  0  0  0  0  0  0  0  0  0
   -1.5131   -0.3273    0.4045 N   0  0  0  0  0  0  0  0  0  0  0  0
   -2.3043    0.2848    0.5739 H   0  0  0  0  0  0  0  0  0  0  0  0
   -0.2173    0.3962    0.2972 C   0  0  1  0  0  0  0  0  0  0  0  0
    0.0208    0.4470   -0.7706 H   0  0  0  0  0  0  0  0  0  0  0  0
   -0.5754    1.8474    0.7896 C   0  0  1  0  0  0  0  0  0  0  0  0
   -1.0208    1.7594    1.7868 H   0  0  0  0  0  0  0  0  0  0  0  0
    0.6407    2.7901    0.9203 C   0  0  0  0  0  0  0  0  0  0  0  0
    1.1821    2.8524   -0.0291 H   0  0  0  0  0  0  0  0  0  0  0  0
    0.3391    3.7977    1.2129 H   0  0  0  0  0  0  0  0  0  0  0  0
    1.3255    2.4381    1.6968 H   0  0  0  0  0  0  0  0  0  0  0  0
   -1.6183    2.5040   -0.1644 C   0  0  0  0  0  0  0  0  0  0  0  0
   -1.1456    2.7056   -1.1316 H   0  0  0  0  0  0  0  0  0  0  0  0
   -2.4540    1.8261   -0.3532 H   0  0  0  0  0  0  0  0  0  0  0  0
   -2.2233    3.8040    0.3787 C   0  0  0  0  0  0  0  0  0  0  0  0
   -1.4925    4.6172    0.3757 H   0  0  0  0  0  0  0  0  0  0  0  0
   -3.0643    4.1107   -0.2507 H   0  0  0  0  0  0  0  0  0  0  0  0
   -2.5905    3.6607    1.3995 H   0  0  0  0  0  0  0  0  0  0  0  0
    1.1081   -0.1536    0.9362 C   0  0  0  0  0  0  0  0  0  0  0  0
    2.1665    0.3366    0.5708 O   0  0  0  0  0  0  0  0  0  0  0  0
    1.3910   -1.4065    1.4183 N   0  0  0  0  0  0  0  0  0  0  0  0
    2.3805   -1.6092    1.3053 H   0  0  0  0  0  0  0  0  0  0  0  0
    0.8089   -1.8569    2.6761 C   0  0  0  0  0  0  0  0  0  0  0  0
    1.5364   -1.7444    3.4859 H   0  0  0  0  0  0  0  0  0  0  0  0
   -0.0818   -1.2768    2.9371 H   0  0  0  0  0  0  0  0  0  0  0  0
    0.5280   -2.9125    2.6042 H   0  0  0  0  0  0  0  0  0  0  0  0
  1  2  1  0  0  0  0
  2  3  1  0  0  0  0
  2  4  1  0  0  0  0
  2  5  1  0  0  0  0
  5  6  2  0  0  0  0
  5  7  1  0  0  0  0
  7  8  1  0  0  0  0
  7  9  1  0  0  0  0
  9 10  1  0  0  0  0
  9 11  1  0  0  0  0
  9 24  1  0  0  0  0
 11 12  1  0  0  0  0
 11 13  1  0  0  0  0
 11 17  1  0  0  0  0
 13 14  1  0  0  0  0
 13 15  1  0  0  0  0
 13 16  1  0  0  0  0
 17 18  1  0  0  0  0
 17 19  1  0  0  0  0
 17 20  1  0  0  0  0
 20 21  1  0  0  0  0
 20 22  1  0  0  0  0
 20 23  1  0  0  0  0
 24 25  2  0  0  0  0
 24 26  1  0  0  0  0
 26 27  1  0  0  0  0
 26 28  1  0  0  0  0
 28 29  1  0  0  0  0
 28 30  1  0  0  0  0
 28 31  1  0  0  0  0
M  END
$$$$

  -OEChem-01062216083D

 31 30  0     1  0  0  0  0  0999 V2000
   -3.8171   -2.7056    1.2574 H   0  0  0  0  0  0  0  0  0  0  0  0
   -3.5980   -1.6618    1.0148 C   0  0  0  0  0  0  0  0  0  0  0  0
   -3.8892   -1.0377    1.8634 H   0  0  0  0  0  0  0  0  0  0  0  0
   -4.1848   -1.3732    0.1393 H   0  0  0  0  0  0  0  0  0  0  0  0
   -2.1180   -1.4897    0.7273 C   0  0  0  0  0  0  0  0  0  0  0  0
   -1.4346   -2.4869    0.5890 O   0  0  0  0  0  0  0  0  0  0  0  0
   -1.6486   -0.2176    0.4571 N   0  0  0  0  0  0  0  0  0  0  0  0
   -2.3983    0.4664    0.4844 H   0  0  0  0  0  0  0  0  0  0  0  0
   -0.2972    0.4073    0.5560 C   0  0  1  0  0  0  0  0  0  0  0  0
    0.1173    0.4127   -0.4567 H   0  0  0  0  0  0  0  0  0  0  0  0
   -0.6347    1.9076    0.9224 C   0  0  1  0  0  0  0  0  0  0  0  0
   -1.2497    1.9075    1.8290 H   0  0  0  0  0  0  0  0  0  0  0  0
    0.5966    2.8012    1.2003 C   0  0  0  0  0  0  0  0  0  0  0  0
    1.3653    2.6451    0.4368 H   0  0  0  0  0  0  0  0  0  0  0  0
    0.3447    3.8620    1.2175 H   0  0  0  0  0  0  0  0  0  0  0  0
    1.0177    2.5817    2.1849 H   0  0  0  0  0  0  0  0  0  0  0  0
   -1.4458    2.5660   -0.2400 C   0  0  0  0  0  0  0  0  0  0  0  0
   -0.7955    2.6814   -1.1139 H   0  0  0  0  0  0  0  0  0  0  0  0
   -2.2777    1.9274   -0.5455 H   0  0  0  0  0  0  0  0  0  0  0  0
   -2.0583    3.9291    0.1101 C   0  0  0  0  0  0  0  0  0  0  0  0
   -1.2991    4.7136    0.1601 H   0  0  0  0  0  0  0  0  0  0  0  0
   -2.7796    4.2176   -0.6606 H   0  0  0  0  0  0  0  0  0  0  0  0
   -2.5814    3.8796    1.0700 H   0  0  0  0  0  0  0  0  0  0  0  0
    0.8439   -0.3044    1.3791 C   0  0  0  0  0  0  0  0  0  0  0  0
    1.7845    0.3225    1.8448 O   0  0  0  0  0  0  0  0  0  0  0  0
    0.9527   -1.6718    1.5396 N   0  0  0  0  0  0  0  0  0  0  0  0
    0.2229   -2.2431    1.1121 H   0  0  0  0  0  0  0  0  0  0  0  0
    2.0454   -2.3471    2.2307 C   0  0  0  0  0  0  0  0  0  0  0  0
    2.1105   -2.0069    3.2694 H   0  0  0  0  0  0  0  0  0  0  0  0
    1.8779   -3.4283    2.2317 H   0  0  0  0  0  0  0  0  0  0  0  0
    2.9985   -2.1449    1.7313 H   0  0  0  0  0  0  0  0  0  0  0  0
  1  2  1  0  0  0  0
  2  3  1  0  0  0  0
  2  4  1  0  0  0  0
  2  5  1  0  0  0  0
  5  6  2  0  0  0  0
  5  7  1  0  0  0  0
  7  8  1  0  0  0  0
  7  9  1  0  0  0  0
  9 10  1  0  0  0  0
  9 11  1  0  0  0  0
  9 24  1  0  0  0  0
 11 12  1  0  0  0  0
 11 13  1  0  0  0  0
 11 17  1  0  0  0  0
 13 14  1  0  0  0  0
 13 15  1  0  0  0  0
 13 16  1  0  0  0  0
 17 18  1  0  0  0  0
 17 19  1  0  0  0  0
 17 20  1  0  0  0  0
 20 21  1  0  0  0  0
 20 22  1  0  0  0  0
 20 23  1  0  0  0  0
 24 25  2  0  0  0  0
 24 26  1  0  0  0  0
 26 27  1  0  0  0  0
 26 28  1  0  0  0  0
 28 29  1  0  0  0  0
 28 30  1  0  0  0  0
 28 31  1  0  0  0  0
M  END
$$$$

  -OEChem-01062216083D

 31 30  0     1  0  0  0  0  0999 V2000
   -3.6713   -2.7774    1.3946 H   0  0  0  0  0  0  0  0  0  0  0  0
   -3.5057   -1.7211    1.1640 C   0  0  0  0  0  0  0  0  0  0  0  0
   -3.7328   -1.1302    2.0548 H   0  0  0  0  0  0  0  0  0  0  0  0
   -4.1807   -1.4270    0.3564 H   0  0  0  0  0  0  0  0  0  0  0  0
   -2.0647   -1.4958    0.7449 C   0  0  0  0  0  0  0  0  0  0  0  0
   -1.3716   -2.4659    0.4986 O   0  0  0  0  0  0  0  0  0  0  0  0
   -1.6533   -0.2045    0.4708 N   0  0  0  0  0  0  0  0  0  0  0  0
   -2.4094    0.4615    0.5974 H   0  0  0  0  0  0  0  0  0  0  0  0
   -0.3092    0.4382    0.5161 C   0  0  1  0  0  0  0  0  0  0  0  0
    0.0596    0.4478   -0.5141 H   0  0  0  0  0  0  0  0  0  0  0  0
   -0.5948    1.9396    0.8976 C   0  0  1  0  0  0  0  0  0  0  0  0
   -1.1474    1.9660    1.8431 H   0  0  0  0  0  0  0  0  0  0  0  0
    0.6919    2.7880    1.0596 C   0  0  0  0  0  0  0  0  0  0  0  0
    1.4224    2.5290    0.2868 H   0  0  0  0  0  0  0  0  0  0  0  0
    0.4970    3.8586    0.9937 H   0  0  0  0  0  0  0  0  0  0  0  0
    1.1420    2.6302    2.0427 H   0  0  0  0  0  0  0  0  0  0  0  0
   -1.4497    2.6065   -0.2252 C   0  0  0  0  0  0  0  0  0  0  0  0
   -0.8464    2.7044   -1.1341 H   0  0  0  0  0  0  0  0  0  0  0  0
   -2.3072    1.9784   -0.4780 H   0  0  0  0  0  0  0  0  0  0  0  0
   -2.0181    3.9819    0.1504 C   0  0  0  0  0  0  0  0  0  0  0  0
   -1.2433    4.7522    0.1681 H   0  0  0  0  0  0  0  0  0  0  0  0
   -2.7665    4.2848   -0.5882 H   0  0  0  0  0  0  0  0  0  0  0  0
   -2.4994    3.9416    1.1324 H   0  0  0  0  0  0  0  0  0  0  0  0
    0.8528   -0.3013    1.2771 C   0  0  0  0  0  0  0  0  0  0  0  0
    1.5477    0.2667    2.1076 O   0  0  0  0  0  0  0  0  0  0  0  0
    1.1097   -1.6508    1.1340 N   0  0  0  0  0  0  0  0  0  0  0  0
    0.4038   -2.1841    0.6221 H   0  0  0  0  0  0  0  0  0  0  0  0
    2.0731   -2.3925    1.9397 C   0  0  0  0  0  0  0  0  0  0  0  0
    1.7934   -2.3597    2.9977 H   0  0  0  0  0  0  0  0  0  0  0  0
    2.1025   -3.4387    1.6207 H   0  0  0  0  0  0  0  0  0  0  0  0
    3.0764   -1.9693    1.8248 H   0  0  0  0  0  0  0  0  0  0  0  0
  1  2  1  0  0  0  0
  2  3  1  0  0  0  0
  2  4  1  0  0  0  0
  2  5  1  0  0  0  0
  5  6  2  0  0  0  0
  5  7  1  0  0  0  0
  7  8  1  0  0  0  0
  7  9  1  0  0  0  0
  9 10  1  0  0  0  0
  9 11  1  0  0  0  0
  9 24  1  0  0  0  0
 11 12  1  0  0  0  0
 11 13  1  0  0  0  0
 11 17  1  0  0  0  0
 13 14  1  0  0  0  0
 13 15  1  0  0  0  0
 13 16  1  0  0  0  0
 17 18  1  0  0  0  0
 17 19  1  0  0  0  0
 17 20  1  0  0  0  0
 20 21  1  0  0  0  0
 20 22  1  0  0  0  0
 20 23  1  0  0  0  0
 24 25  2  0  0  0  0
 24 26  1  0  0  0  0
 26 27  1  0  0  0  0
 26 28  1  0  0  0  0
 28 29  1  0  0  0  0
 28 30  1  0  0  0  0
 28 31  1  0  0  0  0
M  END
$$$$

  -OEChem-01062216083D

 31 30  0     1  0  0  0  0  0999 V2000
   -3.4645   -2.8919    1.4230 H   0  0  0  0  0  0  0  0  0  0  0  0
   -3.3690   -1.8244    1.2045 C   0  0  0  0  0  0  0  0  0  0  0  0
   -3.5824   -1.2614    2.1163 H   0  0  0  0  0  0  0  0  0  0  0  0
   -4.0990   -1.5551    0.4373 H   0  0  0  0  0  0  0  0  0  0  0  0
   -1.9654   -1.5133    0.7197 C   0  0  0  0  0  0  0  0  0  0  0  0
   -1.2238   -2.4362    0.4329 O   0  0  0  0  0  0  0  0  0  0  0  0
   -1.6361   -0.2035    0.4254 N   0  0  0  0  0  0  0  0  0  0  0  0
   -2.4126    0.4291    0.5928 H   0  0  0  0  0  0  0  0  0  0  0  0
   -0.3128    0.4742    0.4716 C   0  0  1  0  0  0  0  0  0  0  0  0
    0.0623    0.4951   -0.5562 H   0  0  0  0  0  0  0  0  0  0  0  0
   -0.5851    1.9651    0.8766 C   0  0  1  0  0  0  0  0  0  0  0  0
   -1.1096    1.9871    1.8380 H   0  0  0  0  0  0  0  0  0  0  0  0
    0.7222    2.7900    0.9963 C   0  0  0  0  0  0  0  0  0  0  0  0
    1.3627    2.6205    0.1252 H   0  0  0  0  0  0  0  0  0  0  0  0
    0.5213    3.8598    1.0694 H   0  0  0  0  0  0  0  0  0  0  0  0
    1.2822    2.5330    1.8970 H   0  0  0  0  0  0  0  0  0  0  0  0
   -1.4543    2.6488   -0.2207 C   0  0  0  0  0  0  0  0  0  0  0  0
   -0.8690    2.7566   -1.1403 H   0  0  0  0  0  0  0  0  0  0  0  0
   -2.3180    2.0243   -0.4621 H   0  0  0  0  0  0  0  0  0  0  0  0
   -2.0072    4.0202    0.1893 C   0  0  0  0  0  0  0  0  0  0  0  0
   -1.2218    4.7793    0.2256 H   0  0  0  0  0  0  0  0  0  0  0  0
   -2.7532    4.3498   -0.5404 H   0  0  0  0  0  0  0  0  0  0  0  0
   -2.4876    3.9614    1.1710 H   0  0  0  0  0  0  0  0  0  0  0  0
    0.8305   -0.2596    1.2520 C   0  0  0  0  0  0  0  0  0  0  0  0
    1.2568    0.1784    2.3129 O   0  0  0  0  0  0  0  0  0  0  0  0
    1.2742   -1.5163    0.8864 N   0  0  0  0  0  0  0  0  0  0  0  0
    0.6281   -2.0226    0.2766 H   0  0  0  0  0  0  0  0  0  0  0  0
    2.1566   -2.3209    1.7238 C   0  0  0  0  0  0  0  0  0  0  0  0
    1.6671   -2.5629    2.6729 H   0  0  0  0  0  0  0  0  0  0  0  0
    2.4082   -3.2560    1.2144 H   0  0  0  0  0  0  0  0  0  0  0  0
    3.0869   -1.7823    1.9327 H   0  0  0  0  0  0  0  0  0  0  0  0
  1  2  1  0  0  0  0
  2  3  1  0  0  0  0
  2  4  1  0  0  0  0
  2  5  1  0  0  0  0
  5  6  2  0  0  0  0
  5  7  1  0  0  0  0
  7  8  1  0  0  0  0
  7  9  1  0  0  0  0
  9 10  1  0  0  0  0
  9 11  1  0  0  0  0
  9 24  1  0  0  0  0
 11 12  1  0  0  0  0
 11 13  1  0  0  0  0
 11 17  1  0  0  0  0
 13 14  1  0  0  0  0
 13 15  1  0  0  0  0
 13 16  1  0  0  0  0
 17 18  1  0  0  0  0
 17 19  1  0  0  0  0
 17 20  1  0  0  0  0
 20 21  1  0  0  0  0
 20 22  1  0  0  0  0
 20 23  1  0  0  0  0
 24 25  2  0  0  0  0
 24 26  1  0  0  0  0
 26 27  1  0  0  0  0
 26 28  1  0  0  0  0
 28 29  1  0  0  0  0
 28 30  1  0  0  0  0
 28 31  1  0  0  0  0
M  END
$$$$

  -OEChem-01062216083D

 31 30  0     1  0  0  0  0  0999 V2000
   -3.3321   -2.9382    1.4739 H   0  0  0  0  0  0  0  0  0  0  0  0
   -3.2923   -1.8798    1.2011 C   0  0  0  0  0  0  0  0  0  0  0  0
   -3.5520   -1.2831    2.0791 H   0  0  0  0  0  0  0  0  0  0  0  0
   -4.0223   -1.6909    0.4103 H   0  0  0  0  0  0  0  0  0  0  0  0
   -1.9001   -1.5161    0.7199 C   0  0  0  0  0  0  0  0  0  0  0  0
   -1.1025   -2.4053    0.4762 O   0  0  0  0  0  0  0  0  0  0  0  0
   -1.6276   -0.2033    0.3839 N   0  0  0  0  0  0  0  0  0  0  0  0
   -2.4205    0.4105    0.5436 H   0  0  0  0  0  0  0  0  0  0  0  0
   -0.3168    0.4920    0.4267 C   0  0  1  0  0  0  0  0  0  0  0  0
    0.0713    0.5156   -0.5964 H   0  0  0  0  0  0  0  0  0  0  0  0
   -0.5808    1.9734    0.8506 C   0  0  1  0  0  0  0  0  0  0  0  0
   -1.0900    1.9799    1.8207 H   0  0  0  0  0  0  0  0  0  0  0  0
    0.7341    2.7843    0.9656 C   0  0  0  0  0  0  0  0  0  0  0  0
    1.2867    2.7537    0.0214 H   0  0  0  0  0  0  0  0  0  0  0  0
    0.5329    3.8283    1.2151 H   0  0  0  0  0  0  0  0  0  0  0  0
    1.3841    2.4039    1.7554 H   0  0  0  0  0  0  0  0  0  0  0  0
   -1.4620    2.6780   -0.2198 C   0  0  0  0  0  0  0  0  0  0  0  0
   -0.8941    2.7990   -1.1484 H   0  0  0  0  0  0  0  0  0  0  0  0
   -2.3335    2.0612   -0.4540 H   0  0  0  0  0  0  0  0  0  0  0  0
   -1.9955    4.0430    0.2310 C   0  0  0  0  0  0  0  0  0  0  0  0
   -1.1958    4.7863    0.2873 H   0  0  0  0  0  0  0  0  0  0  0  0
   -2.7385    4.4055   -0.4859 H   0  0  0  0  0  0  0  0  0  0  0  0
   -2.4731    3.9628    1.2124 H   0  0  0  0  0  0  0  0  0  0  0  0
    0.7952   -0.2345    1.2467 C   0  0  0  0  0  0  0  0  0  0  0  0
    1.0333    0.0890    2.4047 O   0  0  0  0  0  0  0  0  0  0  0  0
    1.4358   -1.3504    0.7408 N   0  0  0  0  0  0  0  0  0  0  0  0
    0.8860   -1.8427    0.0358 H   0  0  0  0  0  0  0  0  0  0  0  0
    2.3264   -2.1670    1.5572 C   0  0  0  0  0  0  0  0  0  0  0  0
    1.7756   -2.6188    2.3887 H   0  0  0  0  0  0  0  0  0  0  0  0
    2.7627   -2.9678    0.9527 H   0  0  0  0  0  0  0  0  0  0  0  0
    3.1425   -1.5598    1.9627 H   0  0  0  0  0  0  0  0  0  0  0  0
  1  2  1  0  0  0  0
  2  3  1  0  0  0  0
  2  4  1  0  0  0  0
  2  5  1  0  0  0  0
  5  6  2  0  0  0  0
  5  7  1  0  0  0  0
  7  8  1  0  0  0  0
  7  9  1  0  0  0  0
  9 10  1  0  0  0  0
  9 11  1  0  0  0  0
  9 24  1  0  0  0  0
 11 12  1  0  0  0  0
 11 13  1  0  0  0  0
 11 17  1  0  0  0  0
 13 14  1  0  0  0  0
 13 15  1  0  0  0  0
 13 16  1  0  0  0  0
 17 18  1  0  0  0  0
 17 19  1  0  0  0  0
 17 20  1  0  0  0  0
 20 21  1  0  0  0  0
 20 22  1  0  0  0  0
 20 23  1  0  0  0  0
 24 25  2  0  0  0  0
 24 26  1  0  0  0  0
 26 27  1  0  0  0  0
 26 28  1  0  0  0  0
 28 29  1  0  0  0  0
 28 30  1  0  0  0  0
 28 31  1  0  0  0  0
M  END
$$$$

  -OEChem-01062216083D

 31 30  0     1  0  0  0  0  0999 V2000
   -3.2429   -2.9844    1.4635 H   0  0  0  0  0  0  0  0  0  0  0  0
   -3.2311   -1.9191    1.2159 C   0  0  0  0  0  0  0  0  0  0  0  0
   -3.4895   -1.3492    2.1118 H   0  0  0  0  0  0  0  0  0  0  0  0
   -3.9777   -1.7288    0.4411 H   0  0  0  0  0  0  0  0  0  0  0  0
   -1.8546   -1.5125    0.7242 C   0  0  0  0  0  0  0  0  0  0  0  0
   -1.0147   -2.3723    0.5155 O   0  0  0  0  0  0  0  0  0  0  0  0
   -1.6288   -0.1995    0.3532 N   0  0  0  0  0  0  0  0  0  0  0  0
   -2.4324    0.4000    0.5130 H   0  0  0  0  0  0  0  0  0  0  0  0
   -0.3259    0.5062    0.3921 C   0  0  1  0  0  0  0  0  0  0  0  0
    0.0690    0.5296   -0.6281 H   0  0  0  0  0  0  0  0  0  0  0  0
   -0.5843    1.9822    0.8262 C   0  0  1  0  0  0  0  0  0  0  0  0
   -1.0917    1.9785    1.7974 H   0  0  0  0  0  0  0  0  0  0  0  0
    0.7379    2.7739    0.9584 C   0  0  0  0  0  0  0  0  0  0  0  0
    1.2783    2.7798    0.0067 H   0  0  0  0  0  0  0  0  0  0  0  0
    0.5481    3.8076    1.2564 H   0  0  0  0  0  0  0  0  0  0  0  0
    1.3917    2.3468    1.7223 H   0  0  0  0  0  0  0  0  0  0  0  0
   -1.4719    2.7009   -0.2263 C   0  0  0  0  0  0  0  0  0  0  0  0
   -0.9115    2.8320   -1.1580 H   0  0  0  0  0  0  0  0  0  0  0  0
   -2.3468    2.0887   -0.4600 H   0  0  0  0  0  0  0  0  0  0  0  0
   -1.9923    4.0620    0.2494 C   0  0  0  0  0  0  0  0  0  0  0  0
   -1.1834    4.7936    0.3232 H   0  0  0  0  0  0  0  0  0  0  0  0
   -2.7285    4.4470   -0.4628 H   0  0  0  0  0  0  0  0  0  0  0  0
   -2.4739    3.9681    1.2276 H   0  0  0  0  0  0  0  0  0  0  0  0
    0.7654   -0.2104    1.2400 C   0  0  0  0  0  0  0  0  0  0  0  0
    0.8543    0.0006    2.4449 O   0  0  0  0  0  0  0  0  0  0  0  0
    1.6117   -1.1339    0.6537 N   0  0  0  0  0  0  0  0  0  0  0  0
    1.2434   -1.5457   -0.2007 H   0  0  0  0  0  0  0  0  0  0  0  0
    2.5066   -1.9647    1.4499 C   0  0  0  0  0  0  0  0  0  0  0  0
    1.9304   -2.6176    2.1140 H   0  0  0  0  0  0  0  0  0  0  0  0
    3.1223   -2.5895    0.7961 H   0  0  0  0  0  0  0  0  0  0  0  0
    3.1726   -1.3426    2.0571 H   0  0  0  0  0  0  0  0  0  0  0  0
  1  2  1  0  0  0  0
  2  3  1  0  0  0  0
  2  4  1  0  0  0  0
  2  5  1  0  0  0  0
  5  6  2  0  0  0  0
  5  7  1  0  0  0  0
  7  8  1  0  0  0  0
  7  9  1  0  0  0  0
  9 10  1  0  0  0  0
  9 11  1  0  0  0  0
  9 24  1  0  0  0  0
 11 12  1  0  0  0  0
 11 13  1  0  0  0  0
 11 17  1  0  0  0  0
 13 14  1  0  0  0  0
 13 15  1  0  0  0  0
 13 16  1  0  0  0  0
 17 18  1  0  0  0  0
 17 19  1  0  0  0  0
 17 20  1  0  0  0  0
 20 21  1  0  0  0  0
 20 22  1  0  0  0  0
 20 23  1  0  0  0  0
 24 25  2  0  0  0  0
 24 26  1  0  0  0  0
 26 27  1  0  0  0  0
 26 28  1  0  0  0  0
 28 29  1  0  0  0  0
 28 30  1  0  0  0  0
 28 31  1  0  0  0  0
M  END
$$$$

  -OEChem-01062216083D

 31 30  0     1  0  0  0  0  0999 V2000
   -3.1845   -2.9786    1.5405 H   0  0  0  0  0  0  0  0  0  0  0  0
   -3.2086   -1.9314    1.2261 C   0  0  0  0  0  0  0  0  0  0  0  0
   -3.4917   -1.3160    2.0835 H   0  0  0  0  0  0  0  0  0  0  0  0
   -3.9562   -1.8159    0.4380 H   0  0  0  0  0  0  0  0  0  0  0  0
   -1.8444   -1.5092    0.7149 C   0  0  0  0  0  0  0  0  0  0  0  0
   -0.9899   -2.3561    0.5087 O   0  0  0  0  0  0  0  0  0  0  0  0
   -1.6404   -0.1971    0.3273 N   0  0  0  0  0  0  0  0  0  0  0  0
   -2.4456    0.3971    0.4972 H   0  0  0  0  0  0  0  0  0  0  0  0
   -0.3387    0.5079    0.3697 C   0  0  1  0  0  0  0  0  0  0  0  0
    0.0598    0.5316   -0.6489 H   0  0  0  0  0  0  0  0  0  0  0  0
   -0.5912    1.9796    0.8145 C   0  0  1  0  0  0  0  0  0  0  0  0
   -1.1037    1.9676    1.7829 H   0  0  0  0  0  0  0  0  0  0  0  0
    0.7373    2.7530    0.9715 C   0  0  0  0  0  0  0  0  0  0  0  0
    1.2934    2.7565    0.0289 H   0  0  0  0  0  0  0  0  0  0  0  0
    0.5567    3.7876    1.2721 H   0  0  0  0  0  0  0  0  0  0  0  0
    1.3694    2.3080    1.7447 H   0  0  0  0  0  0  0  0  0  0  0  0
   -1.4769    2.7114   -0.2292 C   0  0  0  0  0  0  0  0  0  0  0  0
   -0.9153    2.8502   -1.1590 H   0  0  0  0  0  0  0  0  0  0  0  0
   -2.3541    2.1040   -0.4683 H   0  0  0  0  0  0  0  0  0  0  0  0
   -1.9904    4.0701    0.2597 C   0  0  0  0  0  0  0  0  0  0  0  0
   -1.1766    4.7948    0.3464 H   0  0  0  0  0  0  0  0  0  0  0  0
   -2.7203    4.4684   -0.4516 H   0  0  0  0  0  0  0  0  0  0  0  0
   -2.4780    3.9682    1.2342 H   0  0  0  0  0  0  0  0  0  0  0  0
    0.7402   -0.2040    1.2329 C   0  0  0  0  0  0  0  0  0  0  0  0
    0.7015   -0.1202    2.4563 O   0  0  0  0  0  0  0  0  0  0  0  0
    1.7772   -0.8917    0.6292 N   0  0  0  0  0  0  0  0  0  0  0  0
    1.6101   -1.1635   -0.3351 H   0  0  0  0  0  0  0  0  0  0  0  0
    2.7131   -1.6995    1.4010 C   0  0  0  0  0  0  0  0  0  0  0  0
    2.1836   -2.5094    1.9142 H   0  0  0  0  0  0  0  0  0  0  0  0
    3.4663   -2.1394    0.7405 H   0  0  0  0  0  0  0  0  0  0  0  0
    3.2273   -1.0853    2.1477 H   0  0  0  0  0  0  0  0  0  0  0  0
  1  2  1  0  0  0  0
  2  3  1  0  0  0  0
  2  4  1  0  0  0  0
  2  5  1  0  0  0  0
  5  6  2  0  0  0  0
  5  7  1  0  0  0  0
  7  8  1  0  0  0  0
  7  9  1  0  0  0  0
  9 10  1  0  0  0  0
  9 11  1  0  0  0  0
  9 24  1  0  0  0  0
 11 12  1  0  0  0  0
 11 13  1  0  0  0  0
 11 17  1  0  0  0  0
 13 14  1  0  0  0  0
 13 15  1  0  0  0  0
 13 16  1  0  0  0  0
 17 18  1  0  0  0  0
 17 19  1  0  0  0  0
 17 20  1  0  0  0  0
 20 21  1  0  0  0  0
 20 22  1  0  0  0  0
 20 23  1  0  0  0  0
 24 25  2  0  0  0  0
 24 26  1  0  0  0  0
 26 27  1  0  0  0  0
 26 28  1  0  0  0  0
 28 29  1  0  0  0  0
 28 30  1  0  0  0  0
 28 31  1  0  0  0  0
M  END
$$$$

  -OEChem-01062216083D

 31 30  0     1  0  0  0  0  0999 V2000
   -3.1808   -2.9823    1.5416 H   0  0  0  0  0  0  0  0  0  0  0  0
   -3.2081   -1.9319    1.2379 C   0  0  0  0  0  0  0  0  0  0  0  0
   -3.4667   -1.3236    2.1081 H   0  0  0  0  0  0  0  0  0  0  0  0
   -3.9745   -1.8054    0.4697 H   0  0  0  0  0  0  0  0  0  0  0  0
   -1.8552   -1.5107    0.6966 C   0  0  0  0  0  0  0  0  0  0  0  0
   -1.0062   -2.3574    0.4665 O   0  0  0  0  0  0  0  0  0  0  0  0
   -1.6567   -0.1998    0.3016 N   0  0  0  0  0  0  0  0  0  0  0  0
   -2.4570    0.3948    0.4903 H   0  0  0  0  0  0  0  0  0  0  0  0
   -0.3514    0.4973    0.3506 C   0  0  1  0  0  0  0  0  0  0  0  0
    0.0495    0.5196   -0.6668 H   0  0  0  0  0  0  0  0  0  0  0  0
   -0.5970    1.9670    0.8038 C   0  0  1  0  0  0  0  0  0  0  0  0
   -1.1172    1.9482    1.7681 H   0  0  0  0  0  0  0  0  0  0  0  0
    0.7344    2.7287    0.9857 C   0  0  0  0  0  0  0  0  0  0  0  0
    1.3050    2.7341    0.0518 H   0  0  0  0  0  0  0  0  0  0  0  0
    0.5579    3.7628    1.2909 H   0  0  0  0  0  0  0  0  0  0  0  0
    1.3491    2.2715    1.7665 H   0  0  0  0  0  0  0  0  0  0  0  0
   -1.4758    2.7115   -0.2359 C   0  0  0  0  0  0  0  0  0  0  0  0
   -0.9103    2.8543   -1.1627 H   0  0  0  0  0  0  0  0  0  0  0  0
   -2.3559    2.1113   -0.4825 H   0  0  0  0  0  0  0  0  0  0  0  0
   -1.9814    4.0692    0.2633 C   0  0  0  0  0  0  0  0  0  0  0  0
   -1.1628    4.7873    0.3607 H   0  0  0  0  0  0  0  0  0  0  0  0
   -2.7054    4.4794   -0.4474 H   0  0  0  0  0  0  0  0  0  0  0  0
   -2.4742    3.9614    1.2346 H   0  0  0  0  0  0  0  0  0  0  0  0
    0.7199   -0.2128    1.2230 C   0  0  0  0  0  0  0  0  0  0  0  0
    0.5737   -0.2668    2.4399 O   0  0  0  0  0  0  0  0  0  0  0  0
    1.9109   -0.6391    0.6633 N   0  0  0  0  0  0  0  0  0  0  0  0
    1.9149   -0.7463   -0.3461 H   0  0  0  0  0  0  0  0  0  0  0  0
    2.9062   -1.3761    1.4320 C   0  0  0  0  0  0  0  0  0  0  0  0
    2.4820   -2.3142    1.8059 H   0  0  0  0  0  0  0  0  0  0  0  0
    3.7704   -1.6109    0.8034 H   0  0  0  0  0  0  0  0  0  0  0  0
    3.2522   -0.7812    2.2839 H   0  0  0  0  0  0  0  0  0  0  0  0
  1  2  1  0  0  0  0
  2  3  1  0  0  0  0
  2  4  1  0  0  0  0
  2  5  1  0  0  0  0
  5  6  2  0  0  0  0
  5  7  1  0  0  0  0
  7  8  1  0  0  0  0
  7  9  1  0  0  0  0
  9 10  1  0  0  0  0
  9 11  1  0  0  0  0
  9 24  1  0  0  0  0
 11 12  1  0  0  0  0
 11 13  1  0  0  0  0
 11 17  1  0  0  0  0
 13 14  1  0  0  0  0
 13 15  1  0  0  0  0
 13 16  1  0  0  0  0
 17 18  1  0  0  0  0
 17 19  1  0  0  0  0
 17 20  1  0  0  0  0
 20 21  1  0  0  0  0
 20 22  1  0  0  0  0
 20 23  1  0  0  0  0
 24 25  2  0  0  0  0
 24 26  1  0  0  0  0
 26 27  1  0  0  0  0
 26 28  1  0  0  0  0
 28 29  1  0  0  0  0
 28 30  1  0  0  0  0
 28 31  1  0  0  0  0
M  END
$$$$

  -OEChem-01062216083D

 31 30  0     1  0  0  0  0  0999 V2000
   -3.2029   -2.9898    1.4945 H   0  0  0  0  0  0  0  0  0  0  0  0
   -3.2097   -1.9227    1.2548 C   0  0  0  0  0  0  0  0  0  0  0  0
   -3.4022   -1.3595    2.1712 H   0  0  0  0  0  0  0  0  0  0  0  0
   -4.0096   -1.7266    0.5371 H   0  0  0  0  0  0  0  0  0  0  0  0
   -1.8718   -1.5122    0.6695 C   0  0  0  0  0  0  0  0  0  0  0  0
   -1.0425   -2.3652    0.3938 O   0  0  0  0  0  0  0  0  0  0  0  0
   -1.6687   -0.2018    0.2763 N   0  0  0  0  0  0  0  0  0  0  0  0
   -2.4593    0.3971    0.4906 H   0  0  0  0  0  0  0  0  0  0  0  0
   -0.3563    0.4819    0.3339 C   0  0  1  0  0  0  0  0  0  0  0  0
    0.0478    0.5043   -0.6823 H   0  0  0  0  0  0  0  0  0  0  0  0
   -0.5993    1.9492    0.7963 C   0  0  1  0  0  0  0  0  0  0  0  0
   -1.1286    1.9233    1.7555 H   0  0  0  0  0  0  0  0  0  0  0  0
    0.7301    2.7074    1.0022 C   0  0  0  0  0  0  0  0  0  0  0  0
    1.3117    2.7229    0.0752 H   0  0  0  0  0  0  0  0  0  0  0  0
    0.5509    3.7380    1.3174 H   0  0  0  0  0  0  0  0  0  0  0  0
    1.3339    2.2403    1.7857 H   0  0  0  0  0  0  0  0  0  0  0  0
   -1.4697    2.7033   -0.2439 C   0  0  0  0  0  0  0  0  0  0  0  0
   -0.8979    2.8495   -1.1664 H   0  0  0  0  0  0  0  0  0  0  0  0
   -2.3503    2.1076   -0.4998 H   0  0  0  0  0  0  0  0  0  0  0  0
   -1.9749    4.0595    0.2591 C   0  0  0  0  0  0  0  0  0  0  0  0
   -1.1544    4.7736    0.3681 H   0  0  0  0  0  0  0  0  0  0  0  0
   -2.6907    4.4768   -0.4558 H   0  0  0  0  0  0  0  0  0  0  0  0
   -2.4769    3.9475    1.2251 H   0  0  0  0  0  0  0  0  0  0  0  0
    0.7105   -0.2329    1.2090 C   0  0  0  0  0  0  0  0  0  0  0  0
    0.4811   -0.4318    2.3978 O   0  0  0  0  0  0  0  0  0  0  0  0
    2.0056   -0.3892    0.7465 N   0  0  0  0  0  0  0  0  0  0  0  0
    2.1454   -0.3070   -0.2553 H   0  0  0  0  0  0  0  0  0  0  0  0
    3.0462   -1.0312    1.5402 C   0  0  0  0  0  0  0  0  0  0  0  0
    2.7625   -2.0619    1.7786 H   0  0  0  0  0  0  0  0  0  0  0  0
    3.9888   -1.0494    0.9849 H   0  0  0  0  0  0  0  0  0  0  0  0
    3.2083   -0.4852    2.4756 H   0  0  0  0  0  0  0  0  0  0  0  0
  1  2  1  0  0  0  0
  2  3  1  0  0  0  0
  2  4  1  0  0  0  0
  2  5  1  0  0  0  0
  5  6  2  0  0  0  0
  5  7  1  0  0  0  0
  7  8  1  0  0  0  0
  7  9  1  0  0  0  0
  9 10  1  0  0  0  0
  9 11  1  0  0  0  0
  9 24  1  0  0  0  0
 11 12  1  0  0  0  0
 11 13  1  0  0  0  0
 11 17  1  0  0  0  0
 13 14  1  0  0  0  0
 13 15  1  0  0  0  0
 13 16  1  0  0  0  0
 17 18  1  0  0  0  0
 17 19  1  0  0  0  0
 17 20  1  0  0  0  0
 20 21  1  0  0  0  0
 20 22  1  0  0  0  0
 20 23  1  0  0  0  0
 24 25  2  0  0  0  0
 24 26  1  0  0  0  0
 26 27  1  0  0  0  0
 26 28  1  0  0  0  0
 28 29  1  0  0  0  0
 28 30  1  0  0  0  0
 28 31  1  0  0  0  0
M  END
$$$$

  -OEChem-01062216083D

 31 30  0     1  0  0  0  0  0999 V2000
   -3.2164   -2.9712    1.4899 H   0  0  0  0  0  0  0  0  0  0  0  0
   -3.2076   -1.8994    1.2727 C   0  0  0  0  0  0  0  0  0  0  0  0
   -3.3465   -1.3520    2.2082 H   0  0  0  0  0  0  0  0  0  0  0  0
   -4.0323   -1.6691    0.5943 H   0  0  0  0  0  0  0  0  0  0  0  0
   -1.8858   -1.5079    0.6399 C   0  0  0  0  0  0  0  0  0  0  0  0
   -1.0891   -2.3722    0.3089 O   0  0  0  0  0  0  0  0  0  0  0  0
   -1.6687   -0.1979    0.2539 N   0  0  0  0  0  0  0  0  0  0  0  0
   -2.4451    0.4088    0.4954 H   0  0  0  0  0  0  0  0  0  0  0  0
   -0.3452    0.4655    0.3156 C   0  0  1  0  0  0  0  0  0  0  0  0
    0.0593    0.4908   -0.7004 H   0  0  0  0  0  0  0  0  0  0  0  0
   -0.5971    1.9310    0.7893 C   0  0  1  0  0  0  0  0  0  0  0  0
   -1.1389    1.8906    1.7410 H   0  0  0  0  0  0  0  0  0  0  0  0
    0.7178    2.7027    1.0293 C   0  0  0  0  0  0  0  0  0  0  0  0
    1.3279    2.7170    0.1209 H   0  0  0  0  0  0  0  0  0  0  0  0
    0.5221    3.7340    1.3318 H   0  0  0  0  0  0  0  0  0  0  0  0
    1.2973    2.2460    1.8369 H   0  0  0  0  0  0  0  0  0  0  0  0
   -1.4642    2.6916   -0.2509 C   0  0  0  0  0  0  0  0  0  0  0  0
   -0.8856    2.8471   -1.1674 H   0  0  0  0  0  0  0  0  0  0  0  0
   -2.3410    2.0965   -0.5200 H   0  0  0  0  0  0  0  0  0  0  0  0
   -1.9796    4.0426    0.2565 C   0  0  0  0  0  0  0  0  0  0  0  0
   -1.1656    4.7636    0.3683 H   0  0  0  0  0  0  0  0  0  0  0  0
   -2.6978    4.4561   -0.4582 H   0  0  0  0  0  0  0  0  0  0  0  0
   -2.4821    3.9241    1.2216 H   0  0  0  0  0  0  0  0  0  0  0  0
    0.7219   -0.2617    1.1852 C   0  0  0  0  0  0  0  0  0  0  0  0
    0.4345   -0.6127    2.3253 O   0  0  0  0  0  0  0  0  0  0  0  0
    2.0664   -0.1623    0.8665 N   0  0  0  0  0  0  0  0  0  0  0  0
    2.2974    0.1178   -0.0811 H   0  0  0  0  0  0  0  0  0  0  0  0
    3.1225   -0.7117    1.7085 C   0  0  0  0  0  0  0  0  0  0  0  0
    2.9807   -1.7889    1.8462 H   0  0  0  0  0  0  0  0  0  0  0  0
    4.0999   -0.5473    1.2455 H   0  0  0  0  0  0  0  0  0  0  0  0
    3.1208   -0.2276    2.6907 H   0  0  0  0  0  0  0  0  0  0  0  0
  1  2  1  0  0  0  0
  2  3  1  0  0  0  0
  2  4  1  0  0  0  0
  2  5  1  0  0  0  0
  5  6  2  0  0  0  0
  5  7  1  0  0  0  0
  7  8  1  0  0  0  0
  7  9  1  0  0  0  0
  9 10  1  0  0  0  0
  9 11  1  0  0  0  0
  9 24  1  0  0  0  0
 11 12  1  0  0  0  0
 11 13  1  0  0  0  0
 11 17  1  0  0  0  0
 13 14  1  0  0  0  0
 13 15  1  0  0  0  0
 13 16  1  0  0  0  0
 17 18  1  0  0  0  0
 17 19  1  0  0  0  0
 17 20  1  0  0  0  0
 20 21  1  0  0  0  0
 20 22  1  0  0  0  0
 20 23  1  0  0  0  0
 24 25  2  0  0  0  0
 24 26  1  0  0  0  0
 26 27  1  0  0  0  0
 26 28  1  0  0  0  0
 28 29  1  0  0  0  0
 28 30  1  0  0  0  0
 28 31  1  0  0  0  0
M  END
$$$$

  -OEChem-01062216083D

 31 30  0     1  0  0  0  0  0999 V2000
   -3.2315   -2.9392    1.4964 H   0  0  0  0  0  0  0  0  0  0  0  0
   -3.2051   -1.8653    1.2916 C   0  0  0  0  0  0  0  0  0  0  0  0
   -3.3001   -1.3264    2.2374 H   0  0  0  0  0  0  0  0  0  0  0  0
   -4.0456   -1.6073    0.6433 H   0  0  0  0  0  0  0  0  0  0  0  0
   -1.8959   -1.4975    0.6201 C   0  0  0  0  0  0  0  0  0  0  0  0
   -1.1457   -2.3757    0.2235 O   0  0  0  0  0  0  0  0  0  0  0  0
   -1.6548   -0.1879    0.2483 N   0  0  0  0  0  0  0  0  0  0  0  0
   -2.4151    0.4287    0.5136 H   0  0  0  0  0  0  0  0  0  0  0  0
   -0.3188    0.4542    0.3066 C   0  0  1  0  0  0  0  0  0  0  0  0
    0.0807    0.4852   -0.7112 H   0  0  0  0  0  0  0  0  0  0  0  0
   -0.5923    1.9197    0.7864 C   0  0  1  0  0  0  0  0  0  0  0  0
   -1.1464    1.8645    1.7304 H   0  0  0  0  0  0  0  0  0  0  0  0
    0.6964    2.7235    1.0566 C   0  0  0  0  0  0  0  0  0  0  0  0
    1.3436    2.7244    0.1742 H   0  0  0  0  0  0  0  0  0  0  0  0
    0.4731    3.7590    1.3217 H   0  0  0  0  0  0  0  0  0  0  0  0
    1.2449    2.3017    1.9034 H   0  0  0  0  0  0  0  0  0  0  0  0
   -1.4636    2.6743   -0.2585 C   0  0  0  0  0  0  0  0  0  0  0  0
   -0.8790    2.8396   -1.1696 H   0  0  0  0  0  0  0  0  0  0  0  0
   -2.3315    2.0716   -0.5388 H   0  0  0  0  0  0  0  0  0  0  0  0
   -2.0027    4.0185    0.2445 C   0  0  0  0  0  0  0  0  0  0  0  0
   -1.2030    4.7566    0.3488 H   0  0  0  0  0  0  0  0  0  0  0  0
   -2.7313    4.4145   -0.4696 H   0  0  0  0  0  0  0  0  0  0  0  0
   -2.4997    3.8950    1.2118 H   0  0  0  0  0  0  0  0  0  0  0  0
    0.7587   -0.2882    1.1596 C   0  0  0  0  0  0  0  0  0  0  0  0
    0.4395   -0.8082    2.2241 O   0  0  0  0  0  0  0  0  0  0  0  0
    2.1003    0.0355    1.0273 N   0  0  0  0  0  0  0  0  0  0  0  0
    2.3796    0.5196    0.1804 H   0  0  0  0  0  0  0  0  0  0  0  0
    3.1388   -0.4510    1.9290 C   0  0  0  0  0  0  0  0  0  0  0  0
    3.1375   -1.5458    1.9595 H   0  0  0  0  0  0  0  0  0  0  0  0
    4.1229   -0.1156    1.5883 H   0  0  0  0  0  0  0  0  0  0  0  0
    2.9757   -0.0698    2.9425 H   0  0  0  0  0  0  0  0  0  0  0  0
  1  2  1  0  0  0  0
  2  3  1  0  0  0  0
  2  4  1  0  0  0  0
  2  5  1  0  0  0  0
  5  6  2  0  0  0  0
  5  7  1  0  0  0  0
  7  8  1  0  0  0  0
  7  9  1  0  0  0  0
  9 10  1  0  0  0  0
  9 11  1  0  0  0  0
  9 24  1  0  0  0  0
 11 12  1  0  0  0  0
 11 13  1  0  0  0  0
 11 17  1  0  0  0  0
 13 14  1  0  0  0  0
 13 15  1  0  0  0  0
 13 16  1  0  0  0  0
 17 18  1  0  0  0  0
 17 19  1  0  0  0  0
 17 20  1  0  0  0  0
 20 21  1  0  0  0  0
 20 22  1  0  0  0  0
 20 23  1  0  0  0  0
 24 25  2  0  0  0  0
 24 26  1  0  0  0  0
 26 27  1  0  0  0  0
 26 28  1  0  0  0  0
 28 29  1  0  0  0  0
 28 30  1  0  0  0  0
 28 31  1  0  0  0  0
M  END
$$$$

  -OEChem-01062216083D

 31 30  0     1  0  0  0  0  0999 V2000
   -3.2388   -2.8460    1.5887 H   0  0  0  0  0  0  0  0  0  0  0  0
   -3.1399   -1.7666    1.4432 C   0  0  0  0  0  0  0  0  0  0  0  0
   -3.0041   -1.2937    2.4187 H   0  0  0  0  0  0  0  0  0  0  0  0
   -4.0537   -1.3860    0.9810 H   0  0  0  0  0  0  0  0  0  0  0  0
   -1.9442   -1.4717    0.5577 C   0  0  0  0  0  0  0  0  0  0  0  0
   -1.4405   -2.3696   -0.0971 O   0  0  0  0  0  0  0  0  0  0  0  0
   -1.6383   -0.1669    0.2234 N   0  0  0  0  0  0  0  0  0  0  0  0
   -2.3557    0.4629    0.5643 H   0  0  0  0  0  0  0  0  0  0  0  0
   -0.2829    0.4427    0.2868 C   0  0  1  0  0  0  0  0  0  0  0  0
   -0.0050    0.7196   -0.7344 H   0  0  0  0  0  0  0  0  0  0  0  0
   -0.5209    1.7632    1.1107 C   0  0  1  0  0  0  0  0  0  0  0  0
   -0.9958    1.4817    2.0575 H   0  0  0  0  0  0  0  0  0  0  0  0
    0.7627    2.5423    1.4667 C   0  0  0  0  0  0  0  0  0  0  0  0
    1.3626    2.7302    0.5711 H   0  0  0  0  0  0  0  0  0  0  0  0
    0.5361    3.5025    1.9339 H   0  0  0  0  0  0  0  0  0  0  0  0
    1.3588    1.9884    2.1968 H   0  0  0  0  0  0  0  0  0  0  0  0
   -1.4858    2.7126    0.3359 C   0  0  0  0  0  0  0  0  0  0  0  0
   -0.9806    3.0907   -0.5592 H   0  0  0  0  0  0  0  0  0  0  0  0
   -2.3729    2.1723   -0.0037 H   0  0  0  0  0  0  0  0  0  0  0  0
   -1.9915    3.9002    1.1642 C   0  0  0  0  0  0  0  0  0  0  0  0
   -1.2015    4.6358    1.3355 H   0  0  0  0  0  0  0  0  0  0  0  0
   -2.8032    4.4036    0.6299 H   0  0  0  0  0  0  0  0  0  0  0  0
   -2.3748    3.5587    2.1307 H   0  0  0  0  0  0  0  0  0  0  0  0
    0.9084   -0.4522    0.7843 C   0  0  0  0  0  0  0  0  0  0  0  0
    0.7195   -1.3961    1.5405 O   0  0  0  0  0  0  0  0  0  0  0  0
    2.1968    0.0571    0.8516 N   0  0  0  0  0  0  0  0  0  0  0  0
    2.3828    0.9150    0.3430 H   0  0  0  0  0  0  0  0  0  0  0  0
    3.3050   -0.5998    1.5389 C   0  0  0  0  0  0  0  0  0  0  0  0
    3.4275   -1.6258    1.1759 H   0  0  0  0  0  0  0  0  0  0  0  0
    4.2375   -0.0571    1.3578 H   0  0  0  0  0  0  0  0  0  0  0  0
    3.1239   -0.6265    2.6185 H   0  0  0  0  0  0  0  0  0  0  0  0
  1  2  1  0  0  0  0
  2  3  1  0  0  0  0
  2  4  1  0  0  0  0
  2  5  1  0  0  0  0
  5  6  2  0  0  0  0
  5  7  1  0  0  0  0
  7  8  1  0  0  0  0
  7  9  1  0  0  0  0
  9 10  1  0  0  0  0
  9 11  1  0  0  0  0
  9 24  1  0  0  0  0
 11 12  1  0  0  0  0
 11 13  1  0  0  0  0
 11 17  1  0  0  0  0
 13 14  1  0  0  0  0
 13 15  1  0  0  0  0
 13 16  1  0  0  0  0
 17 18  1  0  0  0  0
 17 19  1  0  0  0  0
 17 20  1  0  0  0  0
 20 21  1  0  0  0  0
 20 22  1  0  0  0  0
 20 23  1  0  0  0  0
 24 25  2  0  0  0  0
 24 26  1  0  0  0  0
 26 27  1  0  0  0  0
 26 28  1  0  0  0  0
 28 29  1  0  0  0  0
 28 30  1  0  0  0  0
 28 31  1  0  0  0  0
M  END
$$$$

  -OEChem-01062216083D

 31 30  0     1  0  0  0  0  0999 V2000
   -3.2360   -3.0677    1.3915 H   0  0  0  0  0  0  0  0  0  0  0  0
   -3.1427   -2.1353    0.8278 C   0  0  0  0  0  0  0  0  0  0  0  0
   -4.0916   -1.5962    0.8750 H   0  0  0  0  0  0  0  0  0  0  0  0
   -2.9169   -2.3786   -0.2132 H   0  0  0  0  0  0  0  0  0  0  0  0
   -2.0303   -1.2859    1.4126 C   0  0  0  0  0  0  0  0  0  0  0  0
   -1.5828   -1.5579    2.5152 O   0  0  0  0  0  0  0  0  0  0  0  0
   -1.7456   -0.0515    0.8578 N   0  0  0  0  0  0  0  0  0  0  0  0
   -2.3880    0.1716    0.1057 H   0  0  0  0  0  0  0  0  0  0  0  0
   -0.3855    0.5192    0.6543 C   0  0  1  0  0  0  0  0  0  0  0  0
   -0.2240    0.6518   -0.4196 H   0  0  0  0  0  0  0  0  0  0  0  0
   -0.4896    1.9485    1.3082 C   0  0  1  0  0  0  0  0  0  0  0  0
   -0.8337    1.8218    2.3414 H   0  0  0  0  0  0  0  0  0  0  0  0
    0.8409    2.7306    1.3532 C   0  0  0  0  0  0  0  0  0  0  0  0
    1.3723    2.6443    0.3999 H   0  0  0  0  0  0  0  0  0  0  0  0
    0.6882    3.7911    1.5584 H   0  0  0  0  0  0  0  0  0  0  0  0
    1.4721    2.3606    2.1650 H   0  0  0  0  0  0  0  0  0  0  0  0
   -1.5411    2.8082    0.5400 C   0  0  0  0  0  0  0  0  0  0  0  0
   -1.1659    3.0348   -0.4634 H   0  0  0  0  0  0  0  0  0  0  0  0
   -2.4721    2.2494    0.4184 H   0  0  0  0  0  0  0  0  0  0  0  0
   -1.9210    4.1183    1.2434 C   0  0  0  0  0  0  0  0  0  0  0  0
   -1.1223    4.8611    1.1760 H   0  0  0  0  0  0  0  0  0  0  0  0
   -2.8106    4.5453    0.7702 H   0  0  0  0  0  0  0  0  0  0  0  0
   -2.1474    3.9349    2.2984 H   0  0  0  0  0  0  0  0  0  0  0  0
    0.8125   -0.3889    1.1081 C   0  0  0  0  0  0  0  0  0  0  0  0
    0.7715   -1.5815    0.8260 O   0  0  0  0  0  0  0  0  0  0  0  0
    2.1041    0.0843    1.2789 N   0  0  0  0  0  0  0  0  0  0  0  0
    2.2204    1.0844    1.3879 H   0  0  0  0  0  0  0  0  0  0  0  0
    3.2725   -0.7730    1.4585 C   0  0  0  0  0  0  0  0  0  0  0  0
    3.4798   -1.3355    0.5423 H   0  0  0  0  0  0  0  0  0  0  0  0
    4.1521   -0.1687    1.6997 H   0  0  0  0  0  0  0  0  0  0  0  0
    3.1062   -1.4811    2.2774 H   0  0  0  0  0  0  0  0  0  0  0  0
  1  2  1  0  0  0  0
  2  3  1  0  0  0  0
  2  4  1  0  0  0  0
  2  5  1  0  0  0  0
  5  6  2  0  0  0  0
  5  7  1  0  0  0  0
  7  8  1  0  0  0  0
  7  9  1  0  0  0  0
  9 10  1  0  0  0  0
  9 11  1  0  0  0  0
  9 24  1  0  0  0  0
 11 12  1  0  0  0  0
 11 13  1  0  0  0  0
 11 17  1  0  0  0  0
 13 14  1  0  0  0  0
 13 15  1  0  0  0  0
 13 16  1  0  0  0  0
 17 18  1  0  0  0  0
 17 19  1  0  0  0  0
 17 20  1  0  0  0  0
 20 21  1  0  0  0  0
 20 22  1  0  0  0  0
 20 23  1  0  0  0  0
 24 25  2  0  0  0  0
 24 26  1  0  0  0  0
 26 27  1  0  0  0  0
 26 28  1  0  0  0  0
 28 29  1  0  0  0  0
 28 30  1  0  0  0  0
 28 31  1  0  0  0  0
M  END
$$$$

  -OEChem-01062216083D

 31 30  0     1  0  0  0  0  0999 V2000
   -3.1270   -3.1711    1.2891 H   0  0  0  0  0  0  0  0  0  0  0  0
   -3.1476   -2.1466    0.9068 C   0  0  0  0  0  0  0  0  0  0  0  0
   -4.0028   -1.6240    1.3415 H   0  0  0  0  0  0  0  0  0  0  0  0
   -3.2611   -2.1820   -0.1792 H   0  0  0  0  0  0  0  0  0  0  0  0
   -1.8605   -1.4298    1.2687 C   0  0  0  0  0  0  0  0  0  0  0  0
   -1.1117   -1.9319    2.0921 O   0  0  0  0  0  0  0  0  0  0  0  0
   -1.6700   -0.1259    0.8417 N   0  0  0  0  0  0  0  0  0  0  0  0
   -2.4573    0.2206    0.3040 H   0  0  0  0  0  0  0  0  0  0  0  0
   -0.3719    0.5097    0.4872 C   0  0  1  0  0  0  0  0  0  0  0  0
   -0.3893    0.7374   -0.5833 H   0  0  0  0  0  0  0  0  0  0  0  0
   -0.3161    1.8831    1.2402 C   0  0  1  0  0  0  0  0  0  0  0  0
   -0.4228    1.7130    2.3170 H   0  0  0  0  0  0  0  0  0  0  0  0
    0.9975    2.6550    0.9608 C   0  0  0  0  0  0  0  0  0  0  0  0
    1.2335    2.6326   -0.1079 H   0  0  0  0  0  0  0  0  0  0  0  0
    1.8384    2.2408    1.5122 H   0  0  0  0  0  0  0  0  0  0  0  0
    0.9315    3.6983    1.2723 H   0  0  0  0  0  0  0  0  0  0  0  0
   -1.4731    2.7928    0.7265 C   0  0  0  0  0  0  0  0  0  0  0  0
   -1.2885    3.0772   -0.3148 H   0  0  0  0  0  0  0  0  0  0  0  0
   -2.4171    2.2427    0.7489 H   0  0  0  0  0  0  0  0  0  0  0  0
   -1.6952    4.0582    1.5662 C   0  0  0  0  0  0  0  0  0  0  0  0
   -0.8969    4.7898    1.4196 H   0  0  0  0  0  0  0  0  0  0  0  0
   -2.6365    4.5332    1.2736 H   0  0  0  0  0  0  0  0  0  0  0  0
   -1.7531    3.8055    2.6295 H   0  0  0  0  0  0  0  0  0  0  0  0
    0.8313   -0.4800    0.6370 C   0  0  0  0  0  0  0  0  0  0  0  0
    0.8567   -1.3975   -0.1730 O   0  0  0  0  0  0  0  0  0  0  0  0
    2.1324   -0.1915    0.9618 N   0  0  0  0  0  0  0  0  0  0  0  0
    2.7410   -0.8222    0.4453 H   0  0  0  0  0  0  0  0  0  0  0  0
    2.4416   -0.1151    2.3852 C   0  0  0  0  0  0  0  0  0  0  0  0
    2.5431   -1.1226    2.8024 H   0  0  0  0  0  0  0  0  0  0  0  0
    3.3822    0.4227    2.5377 H   0  0  0  0  0  0  0  0  0  0  0  0
    1.6533    0.4050    2.9392 H   0  0  0  0  0  0  0  0  0  0  0  0
  1  2  1  0  0  0  0
  2  3  1  0  0  0  0
  2  4  1  0  0  0  0
  2  5  1  0  0  0  0
  5  6  2  0  0  0  0
  5  7  1  0  0  0  0
  7  8  1  0  0  0  0
  7  9  1  0  0  0  0
  9 10  1  0  0  0  0
  9 11  1  0  0  0  0
  9 24  1  0  0  0  0
 11 12  1  0  0  0  0
 11 13  1  0  0  0  0
 11 17  1  0  0  0  0
 13 14  1  0  0  0  0
 13 15  1  0  0  0  0
 13 16  1  0  0  0  0
 17 18  1  0  0  0  0
 17 19  1  0  0  0  0
 17 20  1  0  0  0  0
 20 21  1  0  0  0  0
 20 22  1  0  0  0  0
 20 23  1  0  0  0  0
 24 25  2  0  0  0  0
 24 26  1  0  0  0  0
 26 27  1  0  0  0  0
 26 28  1  0  0  0  0
 28 29  1  0  0  0  0
 28 30  1  0  0  0  0
 28 31  1  0  0  0  0
M  END
$$$$

  -OEChem-01062216083D

 31 30  0     1  0  0  0  0  0999 V2000
   -3.2124   -3.1036    1.2933 H   0  0  0  0  0  0  0  0  0  0  0  0
   -3.1659   -2.1270    0.8030 C   0  0  0  0  0  0  0  0  0  0  0  0
   -4.1000   -1.5922    0.9899 H   0  0  0  0  0  0  0  0  0  0  0  0
   -3.0480   -2.2818   -0.2722 H   0  0  0  0  0  0  0  0  0  0  0  0
   -1.9930   -1.3298    1.3418 C   0  0  0  0  0  0  0  0  0  0  0  0
   -1.4290   -1.7092    2.3556 O   0  0  0  0  0  0  0  0  0  0  0  0
   -1.7389   -0.0691    0.8289 N   0  0  0  0  0  0  0  0  0  0  0  0
   -2.4042    0.1902    0.1085 H   0  0  0  0  0  0  0  0  0  0  0  0
   -0.3992    0.5535    0.6612 C   0  0  1  0  0  0  0  0  0  0  0  0
   -0.2206    0.6887   -0.4100 H   0  0  0  0  0  0  0  0  0  0  0  0
   -0.4908    1.9833    1.2998 C   0  0  1  0  0  0  0  0  0  0  0  0
   -0.8099    1.8907    2.3439 H   0  0  0  0  0  0  0  0  0  0  0  0
    0.8610    2.7384    1.2469 C   0  0  0  0  0  0  0  0  0  0  0  0
    1.4124    2.4765    0.3380 H   0  0  0  0  0  0  0  0  0  0  0  0
    1.4744    2.5019    2.1186 H   0  0  0  0  0  0  0  0  0  0  0  0
    0.7349    3.8215    1.2543 H   0  0  0  0  0  0  0  0  0  0  0  0
   -1.5366    2.8313    0.5157 C   0  0  0  0  0  0  0  0  0  0  0  0
   -1.1610    3.0409   -0.4913 H   0  0  0  0  0  0  0  0  0  0  0  0
   -2.4667    2.2680    0.4045 H   0  0  0  0  0  0  0  0  0  0  0  0
   -1.9131    4.1523    1.2015 C   0  0  0  0  0  0  0  0  0  0  0  0
   -1.1004    4.8813    1.1622 H   0  0  0  0  0  0  0  0  0  0  0  0
   -2.7780    4.5943    0.6974 H   0  0  0  0  0  0  0  0  0  0  0  0
   -2.1785    3.9758    2.2484 H   0  0  0  0  0  0  0  0  0  0  0  0
    0.7738   -0.3715    1.1220 C   0  0  0  0  0  0  0  0  0  0  0  0
    0.9346   -1.4039    0.4786 O   0  0  0  0  0  0  0  0  0  0  0  0
    1.8438    0.0321    1.9007 N   0  0  0  0  0  0  0  0  0  0  0  0
    1.6768    0.8341    2.4983 H   0  0  0  0  0  0  0  0  0  0  0  0
    2.9548   -0.8519    2.2355 C   0  0  0  0  0  0  0  0  0  0  0  0
    3.4930   -1.1528    1.3305 H   0  0  0  0  0  0  0  0  0  0  0  0
    3.6581   -0.3405    2.8994 H   0  0  0  0  0  0  0  0  0  0  0  0
    2.5883   -1.7508    2.7428 H   0  0  0  0  0  0  0  0  0  0  0  0
  1  2  1  0  0  0  0
  2  3  1  0  0  0  0
  2  4  1  0  0  0  0
  2  5  1  0  0  0  0
  5  6  2  0  0  0  0
  5  7  1  0  0  0  0
  7  8  1  0  0  0  0
  7  9  1  0  0  0  0
  9 10  1  0  0  0  0
  9 11  1  0  0  0  0
  9 24  1  0  0  0  0
 11 12  1  0  0  0  0
 11 13  1  0  0  0  0
 11 17  1  0  0  0  0
 13 14  1  0  0  0  0
 13 15  1  0  0  0  0
 13 16  1  0  0  0  0
 17 18  1  0  0  0  0
 17 19  1  0  0  0  0
 17 20  1  0  0  0  0
 20 21  1  0  0  0  0
 20 22  1  0  0  0  0
 20 23  1  0  0  0  0
 24 25  2  0  0  0  0
 24 26  1  0  0  0  0
 26 27  1  0  0  0  0
 26 28  1  0  0  0  0
 28 29  1  0  0  0  0
 28 30  1  0  0  0  0
 28 31  1  0  0  0  0
M  END
$$$$

  -OEChem-01062216083D

 31 30  0     1  0  0  0  0  0999 V2000
   -3.2429   -3.1026    1.3066 H   0  0  0  0  0  0  0  0  0  0  0  0
   -3.2033   -2.1149    0.8388 C   0  0  0  0  0  0  0  0  0  0  0  0
   -4.1099   -1.5640    1.0995 H   0  0  0  0  0  0  0  0  0  0  0  0
   -3.1595   -2.2438   -0.2452 H   0  0  0  0  0  0  0  0  0  0  0  0
   -1.9787   -1.3594    1.3196 C   0  0  0  0  0  0  0  0  0  0  0  0
   -1.3494   -1.7948    2.2697 O   0  0  0  0  0  0  0  0  0  0  0  0
   -1.7324   -0.0914    0.8196 N   0  0  0  0  0  0  0  0  0  0  0  0
   -2.4257    0.1983    0.1379 H   0  0  0  0  0  0  0  0  0  0  0  0
   -0.4034    0.5519    0.6488 C   0  0  1  0  0  0  0  0  0  0  0  0
   -0.2368    0.6964   -0.4237 H   0  0  0  0  0  0  0  0  0  0  0  0
   -0.4852    1.9743    1.2983 C   0  0  1  0  0  0  0  0  0  0  0  0
   -0.7807    1.8752    2.3485 H   0  0  0  0  0  0  0  0  0  0  0  0
    0.8634    2.7330    1.2118 C   0  0  0  0  0  0  0  0  0  0  0  0
    1.3092    2.6078    0.2198 H   0  0  0  0  0  0  0  0  0  0  0  0
    0.7418    3.8015    1.3947 H   0  0  0  0  0  0  0  0  0  0  0  0
    1.5736    2.3847    1.9621 H   0  0  0  0  0  0  0  0  0  0  0  0
   -1.5427    2.8247    0.5347 C   0  0  0  0  0  0  0  0  0  0  0  0
   -1.1845    3.0410   -0.4774 H   0  0  0  0  0  0  0  0  0  0  0  0
   -2.4731    2.2595    0.4357 H   0  0  0  0  0  0  0  0  0  0  0  0
   -1.9093    4.1402    1.2341 C   0  0  0  0  0  0  0  0  0  0  0  0
   -1.0988    4.8708    1.1763 H   0  0  0  0  0  0  0  0  0  0  0  0
   -2.7874    4.5809    0.7523 H   0  0  0  0  0  0  0  0  0  0  0  0
   -2.1488    3.9599    2.2866 H   0  0  0  0  0  0  0  0  0  0  0  0
    0.7796   -0.3625    1.0931 C   0  0  0  0  0  0  0  0  0  0  0  0
    1.0642   -1.2926    0.3461 O   0  0  0  0  0  0  0  0  0  0  0  0
    1.6822   -0.0523    2.0943 N   0  0  0  0  0  0  0  0  0  0  0  0
    1.3685    0.6359    2.7710 H   0  0  0  0  0  0  0  0  0  0  0  0
    2.7651   -0.9498    2.4790 C   0  0  0  0  0  0  0  0  0  0  0  0
    3.4457   -1.1146    1.6371 H   0  0  0  0  0  0  0  0  0  0  0  0
    3.3385   -0.5185    3.3048 H   0  0  0  0  0  0  0  0  0  0  0  0
    2.3632   -1.9163    2.8017 H   0  0  0  0  0  0  0  0  0  0  0  0
  1  2  1  0  0  0  0
  2  3  1  0  0  0  0
  2  4  1  0  0  0  0
  2  5  1  0  0  0  0
  5  6  2  0  0  0  0
  5  7  1  0  0  0  0
  7  8  1  0  0  0  0
  7  9  1  0  0  0  0
  9 10  1  0  0  0  0
  9 11  1  0  0  0  0
  9 24  1  0  0  0  0
 11 12  1  0  0  0  0
 11 13  1  0  0  0  0
 11 17  1  0  0  0  0
 13 14  1  0  0  0  0
 13 15  1  0  0  0  0
 13 16  1  0  0  0  0
 17 18  1  0  0  0  0
 17 19  1  0  0  0  0
 17 20  1  0  0  0  0
 20 21  1  0  0  0  0
 20 22  1  0  0  0  0
 20 23  1  0  0  0  0
 24 25  2  0  0  0  0
 24 26  1  0  0  0  0
 26 27  1  0  0  0  0
 26 28  1  0  0  0  0
 28 29  1  0  0  0  0
 28 30  1  0  0  0  0
 28 31  1  0  0  0  0
M  END
$$$$

  -OEChem-01062216083D

 31 30  0     1  0  0  0  0  0999 V2000
   -3.3061   -3.0869    1.3099 H   0  0  0  0  0  0  0  0  0  0  0  0
   -3.2532   -2.0970    0.8475 C   0  0  0  0  0  0  0  0  0  0  0  0
   -4.1262   -1.5167    1.1553 H   0  0  0  0  0  0  0  0  0  0  0  0
   -3.2662   -2.2180   -0.2384 H   0  0  0  0  0  0  0  0  0  0  0  0
   -1.9814   -1.3885    1.2754 C   0  0  0  0  0  0  0  0  0  0  0  0
   -1.3090   -1.8749    2.1688 O   0  0  0  0  0  0  0  0  0  0  0  0
   -1.7224   -0.1228    0.7750 N   0  0  0  0  0  0  0  0  0  0  0  0
   -2.4294    0.1941    0.1198 H   0  0  0  0  0  0  0  0  0  0  0  0
   -0.3985    0.5341    0.6211 C   0  0  1  0  0  0  0  0  0  0  0  0
   -0.2223    0.6829   -0.4494 H   0  0  0  0  0  0  0  0  0  0  0  0
   -0.4763    1.9486    1.2796 C   0  0  1  0  0  0  0  0  0  0  0  0
   -0.7638    1.8392    2.3309 H   0  0  0  0  0  0  0  0  0  0  0  0
    0.8726    2.7063    1.1865 C   0  0  0  0  0  0  0  0  0  0  0  0
    1.1879    2.7952    0.1420 H   0  0  0  0  0  0  0  0  0  0  0  0
    0.7900    3.7102    1.6090 H   0  0  0  0  0  0  0  0  0  0  0  0
    1.6705    2.2112    1.7394 H   0  0  0  0  0  0  0  0  0  0  0  0
   -1.5274    2.8133    0.5276 C   0  0  0  0  0  0  0  0  0  0  0  0
   -1.1720    3.0408   -0.4830 H   0  0  0  0  0  0  0  0  0  0  0  0
   -2.4615    2.2549    0.4245 H   0  0  0  0  0  0  0  0  0  0  0  0
   -1.8753    4.1197    1.2508 C   0  0  0  0  0  0  0  0  0  0  0  0
   -1.0442    4.8289    1.2179 H   0  0  0  0  0  0  0  0  0  0  0  0
   -2.7366    4.5916    0.7682 H   0  0  0  0  0  0  0  0  0  0  0  0
   -2.1314    3.9223    2.2963 H   0  0  0  0  0  0  0  0  0  0  0  0
    0.7884   -0.3589    1.0878 C   0  0  0  0  0  0  0  0  0  0  0  0
    1.2437   -1.1571    0.2766 O   0  0  0  0  0  0  0  0  0  0  0  0
    1.4706   -0.1657    2.2763 N   0  0  0  0  0  0  0  0  0  0  0  0
    0.9699    0.3645    2.9825 H   0  0  0  0  0  0  0  0  0  0  0  0
    2.5242   -1.0692    2.7210 C   0  0  0  0  0  0  0  0  0  0  0  0
    3.3468   -1.0865    1.9983 H   0  0  0  0  0  0  0  0  0  0  0  0
    2.9215   -0.7408    3.6860 H   0  0  0  0  0  0  0  0  0  0  0  0
    2.1315   -2.0855    2.8334 H   0  0  0  0  0  0  0  0  0  0  0  0
  1  2  1  0  0  0  0
  2  3  1  0  0  0  0
  2  4  1  0  0  0  0
  2  5  1  0  0  0  0
  5  6  2  0  0  0  0
  5  7  1  0  0  0  0
  7  8  1  0  0  0  0
  7  9  1  0  0  0  0
  9 10  1  0  0  0  0
  9 11  1  0  0  0  0
  9 24  1  0  0  0  0
 11 12  1  0  0  0  0
 11 13  1  0  0  0  0
 11 17  1  0  0  0  0
 13 14  1  0  0  0  0
 13 15  1  0  0  0  0
 13 16  1  0  0  0  0
 17 18  1  0  0  0  0
 17 19  1  0  0  0  0
 17 20  1  0  0  0  0
 20 21  1  0  0  0  0
 20 22  1  0  0  0  0
 20 23  1  0  0  0  0
 24 25  2  0  0  0  0
 24 26  1  0  0  0  0
 26 27  1  0  0  0  0
 26 28  1  0  0  0  0
 28 29  1  0  0  0  0
 28 30  1  0  0  0  0
 28 31  1  0  0  0  0
M  END
$$$$

  -OEChem-01062216083D

 31 30  0     1  0  0  0  0  0999 V2000
   -3.4100   -3.0534    1.2985 H   0  0  0  0  0  0  0  0  0  0  0  0
   -3.3408   -2.0527    0.8619 C   0  0  0  0  0  0  0  0  0  0  0  0
   -4.1620   -1.4432    1.2464 H   0  0  0  0  0  0  0  0  0  0  0  0
   -3.4342   -2.1382   -0.2235 H   0  0  0  0  0  0  0  0  0  0  0  0
   -2.0105   -1.4166    1.2199 C   0  0  0  0  0  0  0  0  0  0  0  0
   -1.2936   -1.9745    2.0318 O   0  0  0  0  0  0  0  0  0  0  0  0
   -1.7233   -0.1557    0.7240 N   0  0  0  0  0  0  0  0  0  0  0  0
   -2.4467    0.2123    0.1147 H   0  0  0  0  0  0  0  0  0  0  0  0
   -0.3973    0.5002    0.5936 C   0  0  1  0  0  0  0  0  0  0  0  0
   -0.2119    0.6559   -0.4745 H   0  0  0  0  0  0  0  0  0  0  0  0
   -0.4766    1.9066    1.2643 C   0  0  1  0  0  0  0  0  0  0  0  0
   -0.7841    1.7828    2.3083 H   0  0  0  0  0  0  0  0  0  0  0  0
    0.8868    2.6382    1.2201 C   0  0  0  0  0  0  0  0  0  0  0  0
    1.2181    2.7658    0.1846 H   0  0  0  0  0  0  0  0  0  0  0  0
    0.8181    3.6239    1.6861 H   0  0  0  0  0  0  0  0  0  0  0  0
    1.6635    2.0943    1.7610 H   0  0  0  0  0  0  0  0  0  0  0  0
   -1.5105    2.7913    0.5160 C   0  0  0  0  0  0  0  0  0  0  0  0
   -1.1397    3.0317   -0.4861 H   0  0  0  0  0  0  0  0  0  0  0  0
   -2.4481    2.2429    0.3933 H   0  0  0  0  0  0  0  0  0  0  0  0
   -1.8510    4.0885    1.2581 C   0  0  0  0  0  0  0  0  0  0  0  0
   -1.0046    4.7804    1.2610 H   0  0  0  0  0  0  0  0  0  0  0  0
   -2.6901    4.5880    0.7643 H   0  0  0  0  0  0  0  0  0  0  0  0
   -2.1366    3.8749    2.2928 H   0  0  0  0  0  0  0  0  0  0  0  0
    0.8053   -0.3580    1.0767 C   0  0  0  0  0  0  0  0  0  0  0  0
    1.4643   -0.9549    0.2336 O   0  0  0  0  0  0  0  0  0  0  0  0
    1.2578   -0.3232    2.3846 N   0  0  0  0  0  0  0  0  0  0  0  0
    0.5664   -0.0207    3.0642 H   0  0  0  0  0  0  0  0  0  0  0  0
    2.3295   -1.1926    2.8520 C   0  0  0  0  0  0  0  0  0  0  0  0
    3.2492   -1.0074    2.2872 H   0  0  0  0  0  0  0  0  0  0  0  0
    2.5325   -1.0052    3.9106 H   0  0  0  0  0  0  0  0  0  0  0  0
    2.0472   -2.2440    2.7319 H   0  0  0  0  0  0  0  0  0  0  0  0
  1  2  1  0  0  0  0
  2  3  1  0  0  0  0
  2  4  1  0  0  0  0
  2  5  1  0  0  0  0
  5  6  2  0  0  0  0
  5  7  1  0  0  0  0
  7  8  1  0  0  0  0
  7  9  1  0  0  0  0
  9 10  1  0  0  0  0
  9 11  1  0  0  0  0
  9 24  1  0  0  0  0
 11 12  1  0  0  0  0
 11 13  1  0  0  0  0
 11 17  1  0  0  0  0
 13 14  1  0  0  0  0
 13 15  1  0  0  0  0
 13 16  1  0  0  0  0
 17 18  1  0  0  0  0
 17 19  1  0  0  0  0
 17 20  1  0  0  0  0
 20 21  1  0  0  0  0
 20 22  1  0  0  0  0
 20 23  1  0  0  0  0
 24 25  2  0  0  0  0
 24 26  1  0  0  0  0
 26 27  1  0  0  0  0
 26 28  1  0  0  0  0
 28 29  1  0  0  0  0
 28 30  1  0  0  0  0
 28 31  1  0  0  0  0
M  END
$$$$

  -OEChem-01062216083D

 31 30  0     1  0  0  0  0  0999 V2000
   -3.5390   -3.0050    1.2592 H   0  0  0  0  0  0  0  0  0  0  0  0
   -3.4469   -1.9881    0.8667 C   0  0  0  0  0  0  0  0  0  0  0  0
   -4.2103   -1.3603    1.3327 H   0  0  0  0  0  0  0  0  0  0  0  0
   -3.6139   -2.0146   -0.2129 H   0  0  0  0  0  0  0  0  0  0  0  0
   -2.0657   -1.4348    1.1658 C   0  0  0  0  0  0  0  0  0  0  0  0
   -1.3302   -2.0631    1.9051 O   0  0  0  0  0  0  0  0  0  0  0  0
   -1.7340   -0.1837    0.6752 N   0  0  0  0  0  0  0  0  0  0  0  0
   -2.4636    0.2396    0.1105 H   0  0  0  0  0  0  0  0  0  0  0  0
   -0.3991    0.4592    0.5700 C   0  0  1  0  0  0  0  0  0  0  0  0
   -0.2023    0.6216   -0.4950 H   0  0  0  0  0  0  0  0  0  0  0  0
   -0.4824    1.8579    1.2545 C   0  0  1  0  0  0  0  0  0  0  0  0
   -0.8165    1.7206    2.2888 H   0  0  0  0  0  0  0  0  0  0  0  0
    0.8933    2.5638    1.2686 C   0  0  0  0  0  0  0  0  0  0  0  0
    1.2760    2.6754    0.2490 H   0  0  0  0  0  0  0  0  0  0  0  0
    0.8244    3.5543    1.7238 H   0  0  0  0  0  0  0  0  0  0  0  0
    1.6277    2.0029    1.8522 H   0  0  0  0  0  0  0  0  0  0  0  0
   -1.4956    2.7634    0.5037 C   0  0  0  0  0  0  0  0  0  0  0  0
   -1.1033    3.0166   -0.4868 H   0  0  0  0  0  0  0  0  0  0  0  0
   -2.4360    2.2263    0.3547 H   0  0  0  0  0  0  0  0  0  0  0  0
   -1.8355    4.0520    1.2609 C   0  0  0  0  0  0  0  0  0  0  0  0
   -0.9802    4.7322    1.2935 H   0  0  0  0  0  0  0  0  0  0  0  0
   -2.6576    4.5709    0.7586 H   0  0  0  0  0  0  0  0  0  0  0  0
   -2.1458    3.8246    2.2854 H   0  0  0  0  0  0  0  0  0  0  0  0
    0.8183   -0.3664    1.0709 C   0  0  0  0  0  0  0  0  0  0  0  0
    1.6670   -0.7069    0.2554 O   0  0  0  0  0  0  0  0  0  0  0  0
    1.0686   -0.5437    2.4206 N   0  0  0  0  0  0  0  0  0  0  0  0
    0.2312   -0.5271    2.9976 H   0  0  0  0  0  0  0  0  0  0  0  0
    2.1909   -1.3425    2.8962 C   0  0  0  0  0  0  0  0  0  0  0  0
    3.1380   -0.9331    2.5294 H   0  0  0  0  0  0  0  0  0  0  0  0
    2.2175   -1.3408    3.9901 H   0  0  0  0  0  0  0  0  0  0  0  0
    2.0967   -2.3777    2.5512 H   0  0  0  0  0  0  0  0  0  0  0  0
  1  2  1  0  0  0  0
  2  3  1  0  0  0  0
  2  4  1  0  0  0  0
  2  5  1  0  0  0  0
  5  6  2  0  0  0  0
  5  7  1  0  0  0  0
  7  8  1  0  0  0  0
  7  9  1  0  0  0  0
  9 10  1  0  0  0  0
  9 11  1  0  0  0  0
  9 24  1  0  0  0  0
 11 12  1  0  0  0  0
 11 13  1  0  0  0  0
 11 17  1  0  0  0  0
 13 14  1  0  0  0  0
 13 15  1  0  0  0  0
 13 16  1  0  0  0  0
 17 18  1  0  0  0  0
 17 19  1  0  0  0  0
 17 20  1  0  0  0  0
 20 21  1  0  0  0  0
 20 22  1  0  0  0  0
 20 23  1  0  0  0  0
 24 25  2  0  0  0  0
 24 26  1  0  0  0  0
 26 27  1  0  0  0  0
 26 28  1  0  0  0  0
 28 29  1  0  0  0  0
 28 30  1  0  0  0  0
 28 31  1  0  0  0  0
M  END
$$$$

  -OEChem-01062216083D

 31 30  0     1  0  0  0  0  0999 V2000
   -3.6958   -2.9106    1.2617 H   0  0  0  0  0  0  0  0  0  0  0  0
   -3.5516   -1.8968    0.8770 C   0  0  0  0  0  0  0  0  0  0  0  0
   -4.2453   -1.2249    1.3882 H   0  0  0  0  0  0  0  0  0  0  0  0
   -3.7728   -1.8942   -0.1931 H   0  0  0  0  0  0  0  0  0  0  0  0
   -2.1224   -1.4450    1.1134 C   0  0  0  0  0  0  0  0  0  0  0  0
   -1.3897   -2.1541    1.7773 O   0  0  0  0  0  0  0  0  0  0  0  0
   -1.7361   -0.2065    0.6323 N   0  0  0  0  0  0  0  0  0  0  0  0
   -2.4685    0.2785    0.1234 H   0  0  0  0  0  0  0  0  0  0  0  0
   -0.3902    0.4204    0.5512 C   0  0  1  0  0  0  0  0  0  0  0  0
   -0.1802    0.5874   -0.5107 H   0  0  0  0  0  0  0  0  0  0  0  0
   -0.4905    1.8140    1.2471 C   0  0  1  0  0  0  0  0  0  0  0  0
   -0.8560    1.6612    2.2686 H   0  0  0  0  0  0  0  0  0  0  0  0
    0.8834    2.5180    1.3265 C   0  0  0  0  0  0  0  0  0  0  0  0
    1.3133    2.6324    0.3262 H   0  0  0  0  0  0  0  0  0  0  0  0
    0.7969    3.5068    1.7822 H   0  0  0  0  0  0  0  0  0  0  0  0
    1.5860    1.9507    1.9436 H   0  0  0  0  0  0  0  0  0  0  0  0
   -1.4858    2.7304    0.4849 C   0  0  0  0  0  0  0  0  0  0  0  0
   -1.0682    2.9955   -0.4924 H   0  0  0  0  0  0  0  0  0  0  0  0
   -2.4237    2.1988    0.3055 H   0  0  0  0  0  0  0  0  0  0  0  0
   -1.8412    4.0107    1.2490 C   0  0  0  0  0  0  0  0  0  0  0  0
   -0.9874    4.6909    1.3052 H   0  0  0  0  0  0  0  0  0  0  0  0
   -2.6536    4.5345    0.7362 H   0  0  0  0  0  0  0  0  0  0  0  0
   -2.1713    3.7723    2.2648 H   0  0  0  0  0  0  0  0  0  0  0  0
    0.8415   -0.3761    1.0675 C   0  0  0  0  0  0  0  0  0  0  0  0
    1.8177   -0.4744    0.3332 O   0  0  0  0  0  0  0  0  0  0  0  0
    0.9445   -0.8023    2.3788 N   0  0  0  0  0  0  0  0  0  0  0  0
    0.0414   -1.0228    2.7980 H   0  0  0  0  0  0  0  0  0  0  0  0
    2.0952   -1.5597    2.8536 C   0  0  0  0  0  0  0  0  0  0  0  0
    3.0175   -0.9859    2.7155 H   0  0  0  0  0  0  0  0  0  0  0  0
    1.9858   -1.7814    3.9194 H   0  0  0  0  0  0  0  0  0  0  0  0
    2.1824   -2.5048    2.3076 H   0  0  0  0  0  0  0  0  0  0  0  0
  1  2  1  0  0  0  0
  2  3  1  0  0  0  0
  2  4  1  0  0  0  0
  2  5  1  0  0  0  0
  5  6  2  0  0  0  0
  5  7  1  0  0  0  0
  7  8  1  0  0  0  0
  7  9  1  0  0  0  0
  9 10  1  0  0  0  0
  9 11  1  0  0  0  0
  9 24  1  0  0  0  0
 11 12  1  0  0  0  0
 11 13  1  0  0  0  0
 11 17  1  0  0  0  0
 13 14  1  0  0  0  0
 13 15  1  0  0  0  0
 13 16  1  0  0  0  0
 17 18  1  0  0  0  0
 17 19  1  0  0  0  0
 17 20  1  0  0  0  0
 20 21  1  0  0  0  0
 20 22  1  0  0  0  0
 20 23  1  0  0  0  0
 24 25  2  0  0  0  0
 24 26  1  0  0  0  0
 26 27  1  0  0  0  0
 26 28  1  0  0  0  0
 28 29  1  0  0  0  0
 28 30  1  0  0  0  0
 28 31  1  0  0  0  0
M  END
$$$$

  -OEChem-01062216083D

 31 30  0     1  0  0  0  0  0999 V2000
   -3.8478   -2.7969    1.2676 H   0  0  0  0  0  0  0  0  0  0  0  0
   -3.6452   -1.7901    0.8910 C   0  0  0  0  0  0  0  0  0  0  0  0
   -4.2617   -1.0775    1.4445 H   0  0  0  0  0  0  0  0  0  0  0  0
   -3.9163   -1.7522   -0.1669 H   0  0  0  0  0  0  0  0  0  0  0  0
   -2.1761   -1.4502    1.0647 C   0  0  0  0  0  0  0  0  0  0  0  0
   -1.4600   -2.2531    1.6313 O   0  0  0  0  0  0  0  0  0  0  0  0
   -1.7313   -0.2246    0.6013 N   0  0  0  0  0  0  0  0  0  0  0  0
   -2.4625    0.3261    0.1627 H   0  0  0  0  0  0  0  0  0  0  0  0
   -0.3750    0.3878    0.5469 C   0  0  1  0  0  0  0  0  0  0  0  0
   -0.1497    0.5584   -0.5113 H   0  0  0  0  0  0  0  0  0  0  0  0
   -0.5032    1.7809    1.2464 C   0  0  1  0  0  0  0  0  0  0  0  0
   -0.9007    1.6185    2.2546 H   0  0  0  0  0  0  0  0  0  0  0  0
    0.8590    2.4986    1.3841 C   0  0  0  0  0  0  0  0  0  0  0  0
    1.3292    2.6200    0.4030 H   0  0  0  0  0  0  0  0  0  0  0  0
    0.7459    3.4849    1.8389 H   0  0  0  0  0  0  0  0  0  0  0  0
    1.5394    1.9357    2.0297 H   0  0  0  0  0  0  0  0  0  0  0  0
   -1.4818    2.6978    0.4608 C   0  0  0  0  0  0  0  0  0  0  0  0
   -1.0371    2.9698   -0.5024 H   0  0  0  0  0  0  0  0  0  0  0  0
   -2.4126    2.1656    0.2505 H   0  0  0  0  0  0  0  0  0  0  0  0
   -1.8658    3.9730    1.2197 C   0  0  0  0  0  0  0  0  0  0  0  0
   -1.0196    4.6604    1.2988 H   0  0  0  0  0  0  0  0  0  0  0  0
   -2.6695    4.4919    0.6886 H   0  0  0  0  0  0  0  0  0  0  0  0
   -2.2189    3.7288    2.2264 H   0  0  0  0  0  0  0  0  0  0  0  0
    0.8703   -0.3842    1.0770 C   0  0  0  0  0  0  0  0  0  0  0  0
    1.9141   -0.2969    0.4399 O   0  0  0  0  0  0  0  0  0  0  0  0
    0.8911   -1.0696    2.2764 N   0  0  0  0  0  0  0  0  0  0  0  0
   -0.0274   -1.4066    2.5690 H   0  0  0  0  0  0  0  0  0  0  0  0
    2.0504   -1.8345    2.7178 C   0  0  0  0  0  0  0  0  0  0  0  0
    2.9296   -1.1872    2.8006 H   0  0  0  0  0  0  0  0  0  0  0  0
    1.8567   -2.2776    3.6993 H   0  0  0  0  0  0  0  0  0  0  0  0
    2.2704   -2.6399    2.0094 H   0  0  0  0  0  0  0  0  0  0  0  0
  1  2  1  0  0  0  0
  2  3  1  0  0  0  0
  2  4  1  0  0  0  0
  2  5  1  0  0  0  0
  5  6  2  0  0  0  0
  5  7  1  0  0  0  0
  7  8  1  0  0  0  0
  7  9  1  0  0  0  0
  9 10  1  0  0  0  0
  9 11  1  0  0  0  0
  9 24  1  0  0  0  0
 11 12  1  0  0  0  0
 11 13  1  0  0  0  0
 11 17  1  0  0  0  0
 13 14  1  0  0  0  0
 13 15  1  0  0  0  0
 13 16  1  0  0  0  0
 17 18  1  0  0  0  0
 17 19  1  0  0  0  0
 17 20  1  0  0  0  0
 20 21  1  0  0  0  0
 20 22  1  0  0  0  0
 20 23  1  0  0  0  0
 24 25  2  0  0  0  0
 24 26  1  0  0  0  0
 26 27  1  0  0  0  0
 26 28  1  0  0  0  0
 28 29  1  0  0  0  0
 28 30  1  0  0  0  0
 28 31  1  0  0  0  0
M  END
$$$$

  -OEChem-01062216083D

 31 30  0     1  0  0  0  0  0999 V2000
   -3.9803   -2.6836    1.2840 H   0  0  0  0  0  0  0  0  0  0  0  0
   -3.7250   -1.6890    0.9071 C   0  0  0  0  0  0  0  0  0  0  0  0
   -4.2787   -0.9435    1.4830 H   0  0  0  0  0  0  0  0  0  0  0  0
   -4.0231   -1.6259   -0.1423 H   0  0  0  0  0  0  0  0  0  0  0  0
   -2.2331   -1.4435    1.0396 C   0  0  0  0  0  0  0  0  0  0  0  0
   -1.5507   -2.3145    1.5424 O   0  0  0  0  0  0  0  0  0  0  0  0
   -1.7349   -0.2345    0.5871 N   0  0  0  0  0  0  0  0  0  0  0  0
   -2.4555    0.3600    0.1903 H   0  0  0  0  0  0  0  0  0  0  0  0
   -0.3664    0.3563    0.5472 C   0  0  1  0  0  0  0  0  0  0  0  0
   -0.1316    0.5256   -0.5088 H   0  0  0  0  0  0  0  0  0  0  0  0
   -0.5154    1.7525    1.2453 C   0  0  1  0  0  0  0  0  0  0  0  0
   -0.9403    1.5841    2.2411 H   0  0  0  0  0  0  0  0  0  0  0  0
    0.8332    2.4840    1.4337 C   0  0  0  0  0  0  0  0  0  0  0  0
    1.3372    2.6134    0.4704 H   0  0  0  0  0  0  0  0  0  0  0  0
    0.6949    3.4677    1.8873 H   0  0  0  0  0  0  0  0  0  0  0  0
    1.4939    1.9257    2.1034 H   0  0  0  0  0  0  0  0  0  0  0  0
   -1.4789    2.6710    0.4400 C   0  0  0  0  0  0  0  0  0  0  0  0
   -1.0119    2.9459   -0.5116 H   0  0  0  0  0  0  0  0  0  0  0  0
   -2.4049    2.1414    0.2055 H   0  0  0  0  0  0  0  0  0  0  0  0
   -1.8827    3.9447    1.1917 C   0  0  0  0  0  0  0  0  0  0  0  0
   -1.0427    4.6386    1.2810 H   0  0  0  0  0  0  0  0  0  0  0  0
   -2.6821    4.4576    0.6481 H   0  0  0  0  0  0  0  0  0  0  0  0
   -2.2478    3.6996    2.1940 H   0  0  0  0  0  0  0  0  0  0  0  0
    0.8885   -0.4024    1.0848 C   0  0  0  0  0  0  0  0  0  0  0  0
    1.9628   -0.1801    0.5366 O   0  0  0  0  0  0  0  0  0  0  0  0
    0.8841   -1.3204    2.1160 N   0  0  0  0  0  0  0  0  0  0  0  0
   -0.0344   -1.7066    2.3402 H   0  0  0  0  0  0  0  0  0  0  0  0
    2.0549   -2.1049    2.4876 C   0  0  0  0  0  0  0  0  0  0  0  0
    2.8826   -1.4476    2.7735 H   0  0  0  0  0  0  0  0  0  0  0  0
    1.8195   -2.7518    3.3380 H   0  0  0  0  0  0  0  0  0  0  0  0
    2.3759   -2.7340    1.6511 H   0  0  0  0  0  0  0  0  0  0  0  0
  1  2  1  0  0  0  0
  2  3  1  0  0  0  0
  2  4  1  0  0  0  0
  2  5  1  0  0  0  0
  5  6  2  0  0  0  0
  5  7  1  0  0  0  0
  7  8  1  0  0  0  0
  7  9  1  0  0  0  0
  9 10  1  0  0  0  0
  9 11  1  0  0  0  0
  9 24  1  0  0  0  0
 11 12  1  0  0  0  0
 11 13  1  0  0  0  0
 11 17  1  0  0  0  0
 13 14  1  0  0  0  0
 13 15  1  0  0  0  0
 13 16  1  0  0  0  0
 17 18  1  0  0  0  0
 17 19  1  0  0  0  0
 17 20  1  0  0  0  0
 20 21  1  0  0  0  0
 20 22  1  0  0  0  0
 20 23  1  0  0  0  0
 24 25  2  0  0  0  0
 24 26  1  0  0  0  0
 26 27  1  0  0  0  0
 26 28  1  0  0  0  0
 28 29  1  0  0  0  0
 28 30  1  0  0  0  0
 28 31  1  0  0  0  0
M  END
$$$$

  -OEChem-01062216083D

 31 30  0     1  0  0  0  0  0999 V2000
   -3.9787   -2.7071    1.3709 H   0  0  0  0  0  0  0  0  0  0  0  0
   -3.7164   -1.7168    0.9873 C   0  0  0  0  0  0  0  0  0  0  0  0
   -4.2610   -0.9631    1.5614 H   0  0  0  0  0  0  0  0  0  0  0  0
   -4.0193   -1.6566   -0.0610 H   0  0  0  0  0  0  0  0  0  0  0  0
   -2.2218   -1.4831    1.1119 C   0  0  0  0  0  0  0  0  0  0  0  0
   -1.5513   -2.3511    1.6345 O   0  0  0  0  0  0  0  0  0  0  0  0
   -1.7171   -0.2910    0.6224 N   0  0  0  0  0  0  0  0  0  0  0  0
   -2.4414    0.2897    0.2131 H   0  0  0  0  0  0  0  0  0  0  0  0
   -0.3553    0.3177    0.5632 C   0  0  1  0  0  0  0  0  0  0  0  0
   -0.1226    0.4494   -0.4987 H   0  0  0  0  0  0  0  0  0  0  0  0
   -0.5593    1.7413    1.1994 C   0  0  1  0  0  0  0  0  0  0  0  0
   -1.0008    1.5980    2.1920 H   0  0  0  0  0  0  0  0  0  0  0  0
    0.7523    2.5337    1.3976 C   0  0  0  0  0  0  0  0  0  0  0  0
    1.2787    2.6507    0.4450 H   0  0  0  0  0  0  0  0  0  0  0  0
    0.5625    3.5259    1.8125 H   0  0  0  0  0  0  0  0  0  0  0  0
    1.4131    2.0261    2.1063 H   0  0  0  0  0  0  0  0  0  0  0  0
   -1.5390    2.5952    0.3410 C   0  0  0  0  0  0  0  0  0  0  0  0
   -1.0639    2.8432   -0.6142 H   0  0  0  0  0  0  0  0  0  0  0  0
   -2.4452    2.0298    0.1140 H   0  0  0  0  0  0  0  0  0  0  0  0
   -1.9959    3.8876    1.0278 C   0  0  0  0  0  0  0  0  0  0  0  0
   -1.1824    4.6153    1.0903 H   0  0  0  0  0  0  0  0  0  0  0  0
   -2.8078    4.3445    0.4538 H   0  0  0  0  0  0  0  0  0  0  0  0
   -2.3623    3.6778    2.0374 H   0  0  0  0  0  0  0  0  0  0  0  0
    0.9283   -0.3819    1.1241 C   0  0  0  0  0  0  0  0  0  0  0  0
    2.0074   -0.0348    0.6559 O   0  0  0  0  0  0  0  0  0  0  0  0
    0.9624   -1.4623    1.9819 N   0  0  0  0  0  0  0  0  0  0  0  0
    0.0623   -1.8977    2.1855 H   0  0  0  0  0  0  0  0  0  0  0  0
    2.1720   -2.2099    2.3028 C   0  0  0  0  0  0  0  0  0  0  0  0
    2.9250   -1.5504    2.7468 H   0  0  0  0  0  0  0  0  0  0  0  0
    1.9434   -3.0034    3.0207 H   0  0  0  0  0  0  0  0  0  0  0  0
    2.5904   -2.6679    1.4006 H   0  0  0  0  0  0  0  0  0  0  0  0
  1  2  1  0  0  0  0
  2  3  1  0  0  0  0
  2  4  1  0  0  0  0
  2  5  1  0  0  0  0
  5  6  2  0  0  0  0
  5  7  1  0  0  0  0
  7  8  1  0  0  0  0
  7  9  1  0  0  0  0
  9 10  1  0  0  0  0
  9 11  1  0  0  0  0
  9 24  1  0  0  0  0
 11 12  1  0  0  0  0
 11 13  1  0  0  0  0
 11 17  1  0  0  0  0
 13 14  1  0  0  0  0
 13 15  1  0  0  0  0
 13 16  1  0  0  0  0
 17 18  1  0  0  0  0
 17 19  1  0  0  0  0
 17 20  1  0  0  0  0
 20 21  1  0  0  0  0
 20 22  1  0  0  0  0
 20 23  1  0  0  0  0
 24 25  2  0  0  0  0
 24 26  1  0  0  0  0
 26 27  1  0  0  0  0
 26 28  1  0  0  0  0
 28 29  1  0  0  0  0
 28 30  1  0  0  0  0
 28 31  1  0  0  0  0
M  END
$$$$

  -OEChem-01062216083D

 31 30  0     1  0  0  0  0  0999 V2000
   -3.3605   -3.0126    1.5473 H   0  0  0  0  0  0  0  0  0  0  0  0
   -3.2593   -1.9472    1.3206 C   0  0  0  0  0  0  0  0  0  0  0  0
   -3.4221   -1.3772    2.2384 H   0  0  0  0  0  0  0  0  0  0  0  0
   -4.0202   -1.6710    0.5867 H   0  0  0  0  0  0  0  0  0  0  0  0
   -1.8758   -1.6584    0.7678 C   0  0  0  0  0  0  0  0  0  0  0  0
   -1.1539   -2.5989    0.5050 O   0  0  0  0  0  0  0  0  0  0  0  0
   -1.5783   -0.3588    0.4053 N   0  0  0  0  0  0  0  0  0  0  0  0
   -2.3742    0.2562    0.5319 H   0  0  0  0  0  0  0  0  0  0  0  0
   -0.2870    0.3699    0.2560 C   0  0  1  0  0  0  0  0  0  0  0  0
   -0.2298    0.6643   -0.7973 H   0  0  0  0  0  0  0  0  0  0  0  0
   -0.4877    1.6699    1.1167 C   0  0  1  0  0  0  0  0  0  0  0  0
   -0.7660    1.3570    2.1292 H   0  0  0  0  0  0  0  0  0  0  0  0
    0.7854    2.5372    1.2419 C   0  0  0  0  0  0  0  0  0  0  0  0
    1.1514    2.8269    0.2515 H   0  0  0  0  0  0  0  0  0  0  0  0
    0.5969    3.4444    1.8198 H   0  0  0  0  0  0  0  0  0  0  0  0
    1.5792    1.9979    1.7670 H   0  0  0  0  0  0  0  0  0  0  0  0
   -1.6366    2.5454    0.5335 C   0  0  0  0  0  0  0  0  0  0  0  0
   -1.3211    2.9624   -0.4288 H   0  0  0  0  0  0  0  0  0  0  0  0
   -2.5269    1.9422    0.3444 H   0  0  0  0  0  0  0  0  0  0  0  0
   -2.0722    3.6880    1.4583 C   0  0  0  0  0  0  0  0  0  0  0  0
   -1.3054    4.4646    1.5218 H   0  0  0  0  0  0  0  0  0  0  0  0
   -2.9835    4.1517    1.0685 H   0  0  0  0  0  0  0  0  0  0  0  0
   -2.2796    3.3111    2.4645 H   0  0  0  0  0  0  0  0  0  0  0  0
    1.1180   -0.2751    0.5192 C   0  0  0  0  0  0  0  0  0  0  0  0
    2.0763    0.2066   -0.0683 O   0  0  0  0  0  0  0  0  0  0  0  0
    1.4508   -1.5433    0.9211 N   0  0  0  0  0  0  0  0  0  0  0  0
    2.3895   -1.7797    0.6127 H   0  0  0  0  0  0  0  0  0  0  0  0
    1.1029   -1.9947    2.2624 C   0  0  0  0  0  0  0  0  0  0  0  0
    1.9396   -1.8201    2.9459 H   0  0  0  0  0  0  0  0  0  0  0  0
    0.2286   -1.4625    2.6499 H   0  0  0  0  0  0  0  0  0  0  0  0
    0.8782   -3.0660    2.2510 H   0  0  0  0  0  0  0  0  0  0  0  0
  1  2  1  0  0  0  0
  2  3  1  0  0  0  0
  2  4  1  0  0  0  0
  2  5  1  0  0  0  0
  5  6  2  0  0  0  0
  5  7  1  0  0  0  0
  7  8  1  0  0  0  0
  7  9  1  0  0  0  0
  9 10  1  0  0  0  0
  9 11  1  0  0  0  0
  9 24  1  0  0  0  0
 11 12  1  0  0  0  0
 11 13  1  0  0  0  0
 11 17  1  0  0  0  0
 13 14  1  0  0  0  0
 13 15  1  0  0  0  0
 13 16  1  0  0  0  0
 17 18  1  0  0  0  0
 17 19  1  0  0  0  0
 17 20  1  0  0  0  0
 20 21  1  0  0  0  0
 20 22  1  0  0  0  0
 20 23  1  0  0  0  0
 24 25  2  0  0  0  0
 24 26  1  0  0  0  0
 26 27  1  0  0  0  0
 26 28  1  0  0  0  0
 28 29  1  0  0  0  0
 28 30  1  0  0  0  0
 28 31  1  0  0  0  0
M  END
$$$$

  -OEChem-01062216083D

 31 30  0     1  0  0  0  0  0999 V2000
   -3.6109   -2.9852    1.5043 H   0  0  0  0  0  0  0  0  0  0  0  0
   -3.4899   -2.0170    1.0099 C   0  0  0  0  0  0  0  0  0  0  0  0
   -4.2232   -1.3190    1.4207 H   0  0  0  0  0  0  0  0  0  0  0  0
   -3.6754   -2.1448   -0.0592 H   0  0  0  0  0  0  0  0  0  0  0  0
   -2.0855   -1.4868    1.2320 C   0  0  0  0  0  0  0  0  0  0  0  0
   -1.3553   -2.0931    1.9890 O   0  0  0  0  0  0  0  0  0  0  0  0
   -1.7816   -0.2277    0.7527 N   0  0  0  0  0  0  0  0  0  0  0  0
   -2.5887    0.2124    0.3235 H   0  0  0  0  0  0  0  0  0  0  0  0
   -0.4912    0.3840    0.3305 C   0  0  1  0  0  0  0  0  0  0  0  0
   -0.6029    0.6571   -0.7236 H   0  0  0  0  0  0  0  0  0  0  0  0
   -0.4261    1.7061    1.1787 C   0  0  1  0  0  0  0  0  0  0  0  0
   -0.5313    1.4259    2.2329 H   0  0  0  0  0  0  0  0  0  0  0  0
    0.9072    2.4751    1.0426 C   0  0  0  0  0  0  0  0  0  0  0  0
    1.1034    2.7214   -0.0059 H   0  0  0  0  0  0  0  0  0  0  0  0
    0.8962    3.4018    1.6199 H   0  0  0  0  0  0  0  0  0  0  0  0
    1.7418    1.8832    1.4291 H   0  0  0  0  0  0  0  0  0  0  0  0
   -1.5989    2.6589    0.8013 C   0  0  0  0  0  0  0  0  0  0  0  0
   -1.4494    3.0362   -0.2158 H   0  0  0  0  0  0  0  0  0  0  0  0
   -2.5485    2.1187    0.8106 H   0  0  0  0  0  0  0  0  0  0  0  0
   -1.7648    3.8436    1.7603 C   0  0  0  0  0  0  0  0  0  0  0  0
   -0.9473    4.5613    1.6537 H   0  0  0  0  0  0  0  0  0  0  0  0
   -2.6999    4.3682    1.5418 H   0  0  0  0  0  0  0  0  0  0  0  0
   -1.7986    3.4953    2.7973 H   0  0  0  0  0  0  0  0  0  0  0  0
    0.8701   -0.3915    0.3624 C   0  0  0  0  0  0  0  0  0  0  0  0
    1.7615    0.0346   -0.3590 O   0  0  0  0  0  0  0  0  0  0  0  0
    1.0717   -1.7420    0.4867 N   0  0  0  0  0  0  0  0  0  0  0  0
    1.7003   -2.0384   -0.2544 H   0  0  0  0  0  0  0  0  0  0  0  0
    1.5159   -2.2155    1.7931 C   0  0  0  0  0  0  0  0  0  0  0  0
    1.1205   -1.5908    2.6014 H   0  0  0  0  0  0  0  0  0  0  0  0
    1.1753   -3.2429    1.9555 H   0  0  0  0  0  0  0  0  0  0  0  0
    2.6088   -2.1956    1.8495 H   0  0  0  0  0  0  0  0  0  0  0  0
  1  2  1  0  0  0  0
  2  3  1  0  0  0  0
  2  4  1  0  0  0  0
  2  5  1  0  0  0  0
  5  6  2  0  0  0  0
  5  7  1  0  0  0  0
  7  8  1  0  0  0  0
  7  9  1  0  0  0  0
  9 10  1  0  0  0  0
  9 11  1  0  0  0  0
  9 24  1  0  0  0  0
 11 12  1  0  0  0  0
 11 13  1  0  0  0  0
 11 17  1  0  0  0  0
 13 14  1  0  0  0  0
 13 15  1  0  0  0  0
 13 16  1  0  0  0  0
 17 18  1  0  0  0  0
 17 19  1  0  0  0  0
 17 20  1  0  0  0  0
 20 21  1  0  0  0  0
 20 22  1  0  0  0  0
 20 23  1  0  0  0  0
 24 25  2  0  0  0  0
 24 26  1  0  0  0  0
 26 27  1  0  0  0  0
 26 28  1  0  0  0  0
 28 29  1  0  0  0  0
 28 30  1  0  0  0  0
 28 31  1  0  0  0  0
M  END
$$$$

  -OEChem-01062216083D

 31 30  0     1  0  0  0  0  0999 V2000
   -3.9608   -2.6605    1.3215 H   0  0  0  0  0  0  0  0  0  0  0  0
   -3.6966   -1.6659    0.9502 C   0  0  0  0  0  0  0  0  0  0  0  0
   -4.2642   -0.9205    1.5126 H   0  0  0  0  0  0  0  0  0  0  0  0
   -3.9697   -1.6033   -0.1060 H   0  0  0  0  0  0  0  0  0  0  0  0
   -2.2082   -1.4200    1.1176 C   0  0  0  0  0  0  0  0  0  0  0  0
   -1.5469   -2.2762    1.6716 O   0  0  0  0  0  0  0  0  0  0  0  0
   -1.7017   -0.2066    0.6845 N   0  0  0  0  0  0  0  0  0  0  0  0
   -2.4258    0.3920    0.3013 H   0  0  0  0  0  0  0  0  0  0  0  0
   -0.3241    0.3571    0.5514 C   0  0  1  0  0  0  0  0  0  0  0  0
   -0.1576    0.5396   -0.5145 H   0  0  0  0  0  0  0  0  0  0  0  0
   -0.4670    1.7654    1.2576 C   0  0  1  0  0  0  0  0  0  0  0  0
   -0.8535    1.5919    2.2682 H   0  0  0  0  0  0  0  0  0  0  0  0
    0.8480    2.5634    1.4080 C   0  0  0  0  0  0  0  0  0  0  0  0
    1.3831    2.6067    0.4542 H   0  0  0  0  0  0  0  0  0  0  0  0
    0.6736    3.5844    1.7495 H   0  0  0  0  0  0  0  0  0  0  0  0
    1.4925    2.1046    2.1624 H   0  0  0  0  0  0  0  0  0  0  0  0
   -1.4870    2.6589    0.4822 C   0  0  0  0  0  0  0  0  0  0  0  0
   -1.0633    2.9311   -0.4904 H   0  0  0  0  0  0  0  0  0  0  0  0
   -2.4122    2.1129    0.2885 H   0  0  0  0  0  0  0  0  0  0  0  0
   -1.8985    3.9366    1.2257 C   0  0  0  0  0  0  0  0  0  0  0  0
   -1.0940    4.6763    1.2317 H   0  0  0  0  0  0  0  0  0  0  0  0
   -2.7608    4.3913    0.7287 H   0  0  0  0  0  0  0  0  0  0  0  0
   -2.1775    3.7064    2.2587 H   0  0  0  0  0  0  0  0  0  0  0  0
    0.9406   -0.4926    0.9467 C   0  0  0  0  0  0  0  0  0  0  0  0
    2.0434    0.0293    1.0425 O   0  0  0  0  0  0  0  0  0  0  0  0
    0.9804   -1.8709    0.8497 N   0  0  0  0  0  0  0  0  0  0  0  0
    0.0750   -2.3327    0.9354 H   0  0  0  0  0  0  0  0  0  0  0  0
    2.1681   -2.6716    1.1264 C   0  0  0  0  0  0  0  0  0  0  0  0
    2.5205   -2.4953    2.1479 H   0  0  0  0  0  0  0  0  0  0  0  0
    1.9366   -3.7354    1.0183 H   0  0  0  0  0  0  0  0  0  0  0  0
    2.9720   -2.4218    0.4261 H   0  0  0  0  0  0  0  0  0  0  0  0
  1  2  1  0  0  0  0
  2  3  1  0  0  0  0
  2  4  1  0  0  0  0
  2  5  1  0  0  0  0
  5  6  2  0  0  0  0
  5  7  1  0  0  0  0
  7  8  1  0  0  0  0
  7  9  1  0  0  0  0
  9 10  1  0  0  0  0
  9 11  1  0  0  0  0
  9 24  1  0  0  0  0
 11 12  1  0  0  0  0
 11 13  1  0  0  0  0
 11 17  1  0  0  0  0
 13 14  1  0  0  0  0
 13 15  1  0  0  0  0
 13 16  1  0  0  0  0
 17 18  1  0  0  0  0
 17 19  1  0  0  0  0
 17 20  1  0  0  0  0
 20 21  1  0  0  0  0
 20 22  1  0  0  0  0
 20 23  1  0  0  0  0
 24 25  2  0  0  0  0
 24 26  1  0  0  0  0
 26 27  1  0  0  0  0
 26 28  1  0  0  0  0
 28 29  1  0  0  0  0
 28 30  1  0  0  0  0
 28 31  1  0  0  0  0
M  END
$$$$

  -OEChem-01062216083D

 31 30  0     1  0  0  0  0  0999 V2000
   -3.8441   -2.6975    1.4247 H   0  0  0  0  0  0  0  0  0  0  0  0
   -3.6173   -1.6921    1.0579 C   0  0  0  0  0  0  0  0  0  0  0  0
   -4.0824   -0.9637    1.7266 H   0  0  0  0  0  0  0  0  0  0  0  0
   -4.0394   -1.5803    0.0563 H   0  0  0  0  0  0  0  0  0  0  0  0
   -2.1160   -1.4744    1.0159 C   0  0  0  0  0  0  0  0  0  0  0  0
   -1.3930   -2.4113    1.2918 O   0  0  0  0  0  0  0  0  0  0  0  0
   -1.6569   -0.2219    0.6457 N   0  0  0  0  0  0  0  0  0  0  0  0
   -2.4150    0.4268    0.4626 H   0  0  0  0  0  0  0  0  0  0  0  0
   -0.2974    0.3875    0.5533 C   0  0  1  0  0  0  0  0  0  0  0  0
   -0.1203    0.5937   -0.5065 H   0  0  0  0  0  0  0  0  0  0  0  0
   -0.4590    1.7877    1.2647 C   0  0  1  0  0  0  0  0  0  0  0  0
   -0.8387    1.6181    2.2784 H   0  0  0  0  0  0  0  0  0  0  0  0
    0.8569    2.5954    1.3768 C   0  0  0  0  0  0  0  0  0  0  0  0
    1.4277    2.5302    0.4453 H   0  0  0  0  0  0  0  0  0  0  0  0
    0.6826    3.6494    1.5936 H   0  0  0  0  0  0  0  0  0  0  0  0
    1.4711    2.2232    2.2008 H   0  0  0  0  0  0  0  0  0  0  0  0
   -1.4801    2.6681    0.4758 C   0  0  0  0  0  0  0  0  0  0  0  0
   -1.0487    2.9462   -0.4917 H   0  0  0  0  0  0  0  0  0  0  0  0
   -2.3942    2.1083    0.2698 H   0  0  0  0  0  0  0  0  0  0  0  0
   -1.9200    3.9409    1.2126 C   0  0  0  0  0  0  0  0  0  0  0  0
   -1.1301    4.6959    1.2280 H   0  0  0  0  0  0  0  0  0  0  0  0
   -2.7843    4.3798    0.7047 H   0  0  0  0  0  0  0  0  0  0  0  0
   -2.2074    3.7074    2.2424 H   0  0  0  0  0  0  0  0  0  0  0  0
    0.9574   -0.4832    0.9303 C   0  0  0  0  0  0  0  0  0  0  0  0
    1.9343   -0.0268    1.5075 O   0  0  0  0  0  0  0  0  0  0  0  0
    1.0923   -1.7829    0.4773 N   0  0  0  0  0  0  0  0  0  0  0  0
    0.2007   -2.2548    0.3210 H   0  0  0  0  0  0  0  0  0  0  0  0
    2.2303   -2.6292    0.8203 C   0  0  0  0  0  0  0  0  0  0  0  0
    2.2961   -2.7619    1.9052 H   0  0  0  0  0  0  0  0  0  0  0  0
    2.1192   -3.6135    0.3560 H   0  0  0  0  0  0  0  0  0  0  0  0
    3.1641   -2.1834    0.4618 H   0  0  0  0  0  0  0  0  0  0  0  0
  1  2  1  0  0  0  0
  2  3  1  0  0  0  0
  2  4  1  0  0  0  0
  2  5  1  0  0  0  0
  5  6  2  0  0  0  0
  5  7  1  0  0  0  0
  7  8  1  0  0  0  0
  7  9  1  0  0  0  0
  9 10  1  0  0  0  0
  9 11  1  0  0  0  0
  9 24  1  0  0  0  0
 11 12  1  0  0  0  0
 11 13  1  0  0  0  0
 11 17  1  0  0  0  0
 13 14  1  0  0  0  0
 13 15  1  0  0  0  0
 13 16  1  0  0  0  0
 17 18  1  0  0  0  0
 17 19  1  0  0  0  0
 17 20  1  0  0  0  0
 20 21  1  0  0  0  0
 20 22  1  0  0  0  0
 20 23  1  0  0  0  0
 24 25  2  0  0  0  0
 24 26  1  0  0  0  0
 26 27  1  0  0  0  0
 26 28  1  0  0  0  0
 28 29  1  0  0  0  0
 28 30  1  0  0  0  0
 28 31  1  0  0  0  0
M  END
$$$$

  -OEChem-01062216083D

 31 30  0     1  0  0  0  0  0999 V2000
   -3.6210   -2.8183    1.4475 H   0  0  0  0  0  0  0  0  0  0  0  0
   -3.4748   -1.7691    1.1748 C   0  0  0  0  0  0  0  0  0  0  0  0
   -3.7881   -1.1433    2.0141 H   0  0  0  0  0  0  0  0  0  0  0  0
   -4.0971   -1.5419    0.3059 H   0  0  0  0  0  0  0  0  0  0  0  0
   -2.0149   -1.5100    0.8514 C   0  0  0  0  0  0  0  0  0  0  0  0
   -1.2574   -2.4596    0.7920 O   0  0  0  0  0  0  0  0  0  0  0  0
   -1.6364   -0.2197    0.5230 N   0  0  0  0  0  0  0  0  0  0  0  0
   -2.4115    0.4333    0.5721 H   0  0  0  0  0  0  0  0  0  0  0  0
   -0.2974    0.4321    0.5026 C   0  0  1  0  0  0  0  0  0  0  0  0
   -0.0823    0.6680   -0.5440 H   0  0  0  0  0  0  0  0  0  0  0  0
   -0.4698    1.8085    1.2413 C   0  0  1  0  0  0  0  0  0  0  0  0
   -0.8543    1.6251    2.2507 H   0  0  0  0  0  0  0  0  0  0  0  0
    0.8590    2.5992    1.3500 C   0  0  0  0  0  0  0  0  0  0  0  0
    1.4008    2.5720    0.3995 H   0  0  0  0  0  0  0  0  0  0  0  0
    0.6937    3.6434    1.6176 H   0  0  0  0  0  0  0  0  0  0  0  0
    1.5018    2.1936    2.1335 H   0  0  0  0  0  0  0  0  0  0  0  0
   -1.4727    2.7036    0.4510 C   0  0  0  0  0  0  0  0  0  0  0  0
   -1.0242    3.0036   -0.5022 H   0  0  0  0  0  0  0  0  0  0  0  0
   -2.3803    2.1432    0.2161 H   0  0  0  0  0  0  0  0  0  0  0  0
   -1.9236    3.9580    1.2117 C   0  0  0  0  0  0  0  0  0  0  0  0
   -1.1267    4.7028    1.2769 H   0  0  0  0  0  0  0  0  0  0  0  0
   -2.7666    4.4216    0.6904 H   0  0  0  0  0  0  0  0  0  0  0  0
   -2.2463    3.6962    2.2242 H   0  0  0  0  0  0  0  0  0  0  0  0
    0.9348   -0.4420    0.9167 C   0  0  0  0  0  0  0  0  0  0  0  0
    1.6298   -0.1784    1.8890 O   0  0  0  0  0  0  0  0  0  0  0  0
    1.2550   -1.5857    0.2078 N   0  0  0  0  0  0  0  0  0  0  0  0
    0.4455   -2.0097   -0.2457 H   0  0  0  0  0  0  0  0  0  0  0  0
    2.3026   -2.5022    0.6446 C   0  0  0  0  0  0  0  0  0  0  0  0
    2.0588   -2.9226    1.6260 H   0  0  0  0  0  0  0  0  0  0  0  0
    2.4047   -3.3244   -0.0699 H   0  0  0  0  0  0  0  0  0  0  0  0
    3.2649   -1.9839    0.7115 H   0  0  0  0  0  0  0  0  0  0  0  0
  1  2  1  0  0  0  0
  2  3  1  0  0  0  0
  2  4  1  0  0  0  0
  2  5  1  0  0  0  0
  5  6  2  0  0  0  0
  5  7  1  0  0  0  0
  7  8  1  0  0  0  0
  7  9  1  0  0  0  0
  9 10  1  0  0  0  0
  9 11  1  0  0  0  0
  9 24  1  0  0  0  0
 11 12  1  0  0  0  0
 11 13  1  0  0  0  0
 11 17  1  0  0  0  0
 13 14  1  0  0  0  0
 13 15  1  0  0  0  0
 13 16  1  0  0  0  0
 17 18  1  0  0  0  0
 17 19  1  0  0  0  0
 17 20  1  0  0  0  0
 20 21  1  0  0  0  0
 20 22  1  0  0  0  0
 20 23  1  0  0  0  0
 24 25  2  0  0  0  0
 24 26  1  0  0  0  0
 26 27  1  0  0  0  0
 26 28  1  0  0  0  0
 28 29  1  0  0  0  0
 28 30  1  0  0  0  0
 28 31  1  0  0  0  0
M  END
$$$$

  -OEChem-01062216083D

 31 30  0     1  0  0  0  0  0999 V2000
   -3.4081   -2.8983    1.4905 H   0  0  0  0  0  0  0  0  0  0  0  0
   -3.3344   -1.8396    1.2257 C   0  0  0  0  0  0  0  0  0  0  0  0
   -3.5883   -1.2417    2.1044 H   0  0  0  0  0  0  0  0  0  0  0  0
   -4.0479   -1.6254    0.4265 H   0  0  0  0  0  0  0  0  0  0  0  0
   -1.9258   -1.5129    0.7664 C   0  0  0  0  0  0  0  0  0  0  0  0
   -1.1446   -2.4270    0.5748 O   0  0  0  0  0  0  0  0  0  0  0  0
   -1.6252   -0.2065    0.4224 N   0  0  0  0  0  0  0  0  0  0  0  0
   -2.4126    0.4192    0.5577 H   0  0  0  0  0  0  0  0  0  0  0  0
   -0.3040    0.4736    0.4417 C   0  0  1  0  0  0  0  0  0  0  0  0
   -0.0564    0.7246   -0.5942 H   0  0  0  0  0  0  0  0  0  0  0  0
   -0.4794    1.8271    1.2062 C   0  0  1  0  0  0  0  0  0  0  0  0
   -0.8592    1.6192    2.2127 H   0  0  0  0  0  0  0  0  0  0  0  0
    0.8552    2.6055    1.3214 C   0  0  0  0  0  0  0  0  0  0  0  0
    1.2933    2.7623    0.3307 H   0  0  0  0  0  0  0  0  0  0  0  0
    0.7067    3.5796    1.7919 H   0  0  0  0  0  0  0  0  0  0  0  0
    1.5846    2.0809    1.9406 H   0  0  0  0  0  0  0  0  0  0  0  0
   -1.4770    2.7409    0.4375 C   0  0  0  0  0  0  0  0  0  0  0  0
   -1.0300    3.0652   -0.5084 H   0  0  0  0  0  0  0  0  0  0  0  0
   -2.3843    2.1845    0.1900 H   0  0  0  0  0  0  0  0  0  0  0  0
   -1.9200    3.9725    1.2362 C   0  0  0  0  0  0  0  0  0  0  0  0
   -1.1057    4.6934    1.3453 H   0  0  0  0  0  0  0  0  0  0  0  0
   -2.7421    4.4742    0.7170 H   0  0  0  0  0  0  0  0  0  0  0  0
   -2.2681    3.6793    2.2314 H   0  0  0  0  0  0  0  0  0  0  0  0
    0.8974   -0.4006    0.9163 C   0  0  0  0  0  0  0  0  0  0  0  0
    1.3353   -0.3196    2.0583 O   0  0  0  0  0  0  0  0  0  0  0  0
    1.4286   -1.3608    0.0740 N   0  0  0  0  0  0  0  0  0  0  0  0
    0.7774   -1.6768   -0.6411 H   0  0  0  0  0  0  0  0  0  0  0  0
    2.4011   -2.3397    0.5456 C   0  0  0  0  0  0  0  0  0  0  0  0
    1.9576   -2.9762    1.3187 H   0  0  0  0  0  0  0  0  0  0  0  0
    2.7280   -2.9747   -0.2831 H   0  0  0  0  0  0  0  0  0  0  0  0
    3.2816   -1.8398    0.9628 H   0  0  0  0  0  0  0  0  0  0  0  0
  1  2  1  0  0  0  0
  2  3  1  0  0  0  0
  2  4  1  0  0  0  0
  2  5  1  0  0  0  0
  5  6  2  0  0  0  0
  5  7  1  0  0  0  0
  7  8  1  0  0  0  0
  7  9  1  0  0  0  0
  9 10  1  0  0  0  0
  9 11  1  0  0  0  0
  9 24  1  0  0  0  0
 11 12  1  0  0  0  0
 11 13  1  0  0  0  0
 11 17  1  0  0  0  0
 13 14  1  0  0  0  0
 13 15  1  0  0  0  0
 13 16  1  0  0  0  0
 17 18  1  0  0  0  0
 17 19  1  0  0  0  0
 17 20  1  0  0  0  0
 20 21  1  0  0  0  0
 20 22  1  0  0  0  0
 20 23  1  0  0  0  0
 24 25  2  0  0  0  0
 24 26  1  0  0  0  0
 26 27  1  0  0  0  0
 26 28  1  0  0  0  0
 28 29  1  0  0  0  0
 28 30  1  0  0  0  0
 28 31  1  0  0  0  0
M  END
$$$$

  -OEChem-01062216083D

 31 30  0     1  0  0  0  0  0999 V2000
   -3.3076   -2.9263    1.5230 H   0  0  0  0  0  0  0  0  0  0  0  0
   -3.2721   -1.8687    1.2463 C   0  0  0  0  0  0  0  0  0  0  0  0
   -3.5135   -1.2691    2.1274 H   0  0  0  0  0  0  0  0  0  0  0  0
   -4.0169   -1.6818    0.4690 H   0  0  0  0  0  0  0  0  0  0  0  0
   -1.8890   -1.5083    0.7380 C   0  0  0  0  0  0  0  0  0  0  0  0
   -1.0900   -2.4009    0.5128 O   0  0  0  0  0  0  0  0  0  0  0  0
   -1.6306   -0.1990    0.3709 N   0  0  0  0  0  0  0  0  0  0  0  0
   -2.4243    0.4131    0.5298 H   0  0  0  0  0  0  0  0  0  0  0  0
   -0.3172    0.4908    0.4035 C   0  0  1  0  0  0  0  0  0  0  0  0
   -0.0562    0.7458   -0.6279 H   0  0  0  0  0  0  0  0  0  0  0  0
   -0.4914    1.8332    1.1809 C   0  0  1  0  0  0  0  0  0  0  0  0
   -0.8765    1.6109    2.1823 H   0  0  0  0  0  0  0  0  0  0  0  0
    0.8519    2.5892    1.3195 C   0  0  0  0  0  0  0  0  0  0  0  0
    1.2769    2.8003    0.3333 H   0  0  0  0  0  0  0  0  0  0  0  0
    0.7183    3.5348    1.8495 H   0  0  0  0  0  0  0  0  0  0  0  0
    1.5838    2.0160    1.8930 H   0  0  0  0  0  0  0  0  0  0  0  0
   -1.4864    2.7606    0.4298 C   0  0  0  0  0  0  0  0  0  0  0  0
   -1.0408    3.0984   -0.5119 H   0  0  0  0  0  0  0  0  0  0  0  0
   -2.3959    2.2098    0.1771 H   0  0  0  0  0  0  0  0  0  0  0  0
   -1.9187    3.9794    1.2528 C   0  0  0  0  0  0  0  0  0  0  0  0
   -1.0942    4.6851    1.3847 H   0  0  0  0  0  0  0  0  0  0  0  0
   -2.7300    4.5044    0.7394 H   0  0  0  0  0  0  0  0  0  0  0  0
   -2.2781    3.6685    2.2386 H   0  0  0  0  0  0  0  0  0  0  0  0
    0.8667   -0.3802    0.9151 C   0  0  0  0  0  0  0  0  0  0  0  0
    1.1418   -0.4250    2.1095 O   0  0  0  0  0  0  0  0  0  0  0  0
    1.6116   -1.1290    0.0217 N   0  0  0  0  0  0  0  0  0  0  0  0
    1.1545   -1.3062   -0.8678 H   0  0  0  0  0  0  0  0  0  0  0  0
    2.5850   -2.1141    0.4770 C   0  0  0  0  0  0  0  0  0  0  0  0
    2.0870   -2.9044    1.0490 H   0  0  0  0  0  0  0  0  0  0  0  0
    3.0905   -2.5700   -0.3796 H   0  0  0  0  0  0  0  0  0  0  0  0
    3.3428   -1.6431    1.1120 H   0  0  0  0  0  0  0  0  0  0  0  0
  1  2  1  0  0  0  0
  2  3  1  0  0  0  0
  2  4  1  0  0  0  0
  2  5  1  0  0  0  0
  5  6  2  0  0  0  0
  5  7  1  0  0  0  0
  7  8  1  0  0  0  0
  7  9  1  0  0  0  0
  9 10  1  0  0  0  0
  9 11  1  0  0  0  0
  9 24  1  0  0  0  0
 11 12  1  0  0  0  0
 11 13  1  0  0  0  0
 11 17  1  0  0  0  0
 13 14  1  0  0  0  0
 13 15  1  0  0  0  0
 13 16  1  0  0  0  0
 17 18  1  0  0  0  0
 17 19  1  0  0  0  0
 17 20  1  0  0  0  0
 20 21  1  0  0  0  0
 20 22  1  0  0  0  0
 20 23  1  0  0  0  0
 24 25  2  0  0  0  0
 24 26  1  0  0  0  0
 26 27  1  0  0  0  0
 26 28  1  0  0  0  0
 28 29  1  0  0  0  0
 28 30  1  0  0  0  0
 28 31  1  0  0  0  0
M  END
$$$$

  -OEChem-01062216083D

 31 30  0     1  0  0  0  0  0999 V2000
   -3.2765   -2.9263    1.5486 H   0  0  0  0  0  0  0  0  0  0  0  0
   -3.2578   -1.8700    1.2657 C   0  0  0  0  0  0  0  0  0  0  0  0
   -3.4726   -1.2677    2.1517 H   0  0  0  0  0  0  0  0  0  0  0  0
   -4.0303   -1.6918    0.5139 H   0  0  0  0  0  0  0  0  0  0  0  0
   -1.8948   -1.5038    0.7090 C   0  0  0  0  0  0  0  0  0  0  0  0
   -1.1029   -2.3918    0.4402 O   0  0  0  0  0  0  0  0  0  0  0  0
   -1.6505   -0.1948    0.3317 N   0  0  0  0  0  0  0  0  0  0  0  0
   -2.4397    0.4152    0.5167 H   0  0  0  0  0  0  0  0  0  0  0  0
   -0.3352    0.4883    0.3765 C   0  0  1  0  0  0  0  0  0  0  0  0
   -0.0653    0.7456   -0.6517 H   0  0  0  0  0  0  0  0  0  0  0  0
   -0.5038    1.8228    1.1649 C   0  0  1  0  0  0  0  0  0  0  0  0
   -0.8993    1.5913    2.1603 H   0  0  0  0  0  0  0  0  0  0  0  0
    0.8481    2.5547    1.3305 C   0  0  0  0  0  0  0  0  0  0  0  0
    1.2887    2.7738    0.3529 H   0  0  0  0  0  0  0  0  0  0  0  0
    0.7227    3.4943    1.8735 H   0  0  0  0  0  0  0  0  0  0  0  0
    1.5607    1.9565    1.9046 H   0  0  0  0  0  0  0  0  0  0  0  0
   -1.4884    2.7653    0.4214 C   0  0  0  0  0  0  0  0  0  0  0  0
   -1.0358    3.1117   -0.5141 H   0  0  0  0  0  0  0  0  0  0  0  0
   -2.4009    2.2242    0.1581 H   0  0  0  0  0  0  0  0  0  0  0  0
   -1.9124    3.9767    1.2586 C   0  0  0  0  0  0  0  0  0  0  0  0
   -1.0803    4.6703    1.4049 H   0  0  0  0  0  0  0  0  0  0  0  0
   -2.7144    4.5179    0.7475 H   0  0  0  0  0  0  0  0  0  0  0  0
   -2.2812    3.6558    2.2378 H   0  0  0  0  0  0  0  0  0  0  0  0
    0.8370   -0.3835    0.9080 C   0  0  0  0  0  0  0  0  0  0  0  0
    0.9861   -0.5470    2.1147 O   0  0  0  0  0  0  0  0  0  0  0  0
    1.7788   -0.8949    0.0331 N   0  0  0  0  0  0  0  0  0  0  0  0
    1.4993   -0.9305   -0.9422 H   0  0  0  0  0  0  0  0  0  0  0  0
    2.8153   -1.8195    0.4757 C   0  0  0  0  0  0  0  0  0  0  0  0
    2.3646   -2.7349    0.8739 H   0  0  0  0  0  0  0  0  0  0  0  0
    3.4656   -2.0875   -0.3622 H   0  0  0  0  0  0  0  0  0  0  0  0
    3.4318   -1.3619    1.2565 H   0  0  0  0  0  0  0  0  0  0  0  0
  1  2  1  0  0  0  0
  2  3  1  0  0  0  0
  2  4  1  0  0  0  0
  2  5  1  0  0  0  0
  5  6  2  0  0  0  0
  5  7  1  0  0  0  0
  7  8  1  0  0  0  0
  7  9  1  0  0  0  0
  9 10  1  0  0  0  0
  9 11  1  0  0  0  0
  9 24  1  0  0  0  0
 11 12  1  0  0  0  0
 11 13  1  0  0  0  0
 11 17  1  0  0  0  0
 13 14  1  0  0  0  0
 13 15  1  0  0  0  0
 13 16  1  0  0  0  0
 17 18  1  0  0  0  0
 17 19  1  0  0  0  0
 17 20  1  0  0  0  0
 20 21  1  0  0  0  0
 20 22  1  0  0  0  0
 20 23  1  0  0  0  0
 24 25  2  0  0  0  0
 24 26  1  0  0  0  0
 26 27  1  0  0  0  0
 26 28  1  0  0  0  0
 28 29  1  0  0  0  0
 28 30  1  0  0  0  0
 28 31  1  0  0  0  0
M  END
$$$$

  -OEChem-01062216083D

 31 30  0     1  0  0  0  0  0999 V2000
   -3.2786   -2.9191    1.5616 H   0  0  0  0  0  0  0  0  0  0  0  0
   -3.2615   -1.8619    1.2825 C   0  0  0  0  0  0  0  0  0  0  0  0
   -3.4413   -1.2621    2.1779 H   0  0  0  0  0  0  0  0  0  0  0  0
   -4.0568   -1.6741    0.5574 H   0  0  0  0  0  0  0  0  0  0  0  0
   -1.9152   -1.5037    0.6822 C   0  0  0  0  0  0  0  0  0  0  0  0
   -1.1436   -2.3947    0.3674 O   0  0  0  0  0  0  0  0  0  0  0  0
   -1.6706   -0.1963    0.3012 N   0  0  0  0  0  0  0  0  0  0  0  0
   -2.4518    0.4173    0.5074 H   0  0  0  0  0  0  0  0  0  0  0  0
   -0.3497    0.4741    0.3539 C   0  0  1  0  0  0  0  0  0  0  0  0
   -0.0754    0.7325   -0.6728 H   0  0  0  0  0  0  0  0  0  0  0  0
   -0.5116    1.8034    1.1513 C   0  0  1  0  0  0  0  0  0  0  0  0
   -0.9184    1.5654    2.1407 H   0  0  0  0  0  0  0  0  0  0  0  0
    0.8463    2.5159    1.3423 C   0  0  0  0  0  0  0  0  0  0  0  0
    1.3040    2.7376    0.3733 H   0  0  0  0  0  0  0  0  0  0  0  0
    0.7260    3.4525    1.8918 H   0  0  0  0  0  0  0  0  0  0  0  0
    1.5402    1.9005    1.9218 H   0  0  0  0  0  0  0  0  0  0  0  0
   -1.4855    2.7609    0.4133 C   0  0  0  0  0  0  0  0  0  0  0  0
   -1.0262    3.1117   -0.5170 H   0  0  0  0  0  0  0  0  0  0  0  0
   -2.4017    2.2302    0.1415 H   0  0  0  0  0  0  0  0  0  0  0  0
   -1.9018    3.9681    1.2604 C   0  0  0  0  0  0  0  0  0  0  0  0
   -1.0633    4.6516    1.4178 H   0  0  0  0  0  0  0  0  0  0  0  0
   -2.6962    4.5225    0.7516 H   0  0  0  0  0  0  0  0  0  0  0  0
   -2.2789    3.6413    2.2345 H   0  0  0  0  0  0  0  0  0  0  0  0
    0.8173   -0.3991    0.8940 C   0  0  0  0  0  0  0  0  0  0  0  0
    0.8640   -0.6825    2.0868 O   0  0  0  0  0  0  0  0  0  0  0  0
    1.9204   -0.6601    0.1002 N   0  0  0  0  0  0  0  0  0  0  0  0
    1.7962   -0.5378   -0.8994 H   0  0  0  0  0  0  0  0  0  0  0  0
    3.0284   -1.4890    0.5591 C   0  0  0  0  0  0  0  0  0  0  0  0
    2.6758   -2.4970    0.8026 H   0  0  0  0  0  0  0  0  0  0  0  0
    3.7914   -1.5666   -0.2212 H   0  0  0  0  0  0  0  0  0  0  0  0
    3.4912   -1.0524    1.4505 H   0  0  0  0  0  0  0  0  0  0  0  0
  1  2  1  0  0  0  0
  2  3  1  0  0  0  0
  2  4  1  0  0  0  0
  2  5  1  0  0  0  0
  5  6  2  0  0  0  0
  5  7  1  0  0  0  0
  7  8  1  0  0  0  0
  7  9  1  0  0  0  0
  9 10  1  0  0  0  0
  9 11  1  0  0  0  0
  9 24  1  0  0  0  0
 11 12  1  0  0  0  0
 11 13  1  0  0  0  0
 11 17  1  0  0  0  0
 13 14  1  0  0  0  0
 13 15  1  0  0  0  0
 13 16  1  0  0  0  0
 17 18  1  0  0  0  0
 17 19  1  0  0  0  0
 17 20  1  0  0  0  0
 20 21  1  0  0  0  0
 20 22  1  0  0  0  0
 20 23  1  0  0  0  0
 24 25  2  0  0  0  0
 24 26  1  0  0  0  0
 26 27  1  0  0  0  0
 26 28  1  0  0  0  0
 28 29  1  0  0  0  0
 28 30  1  0  0  0  0
 28 31  1  0  0  0  0
M  END
$$$$

  -OEChem-01062216083D

 31 30  0     1  0  0  0  0  0999 V2000
   -3.2742   -2.9154    1.5656 H   0  0  0  0  0  0  0  0  0  0  0  0
   -3.2527   -1.8523    1.3100 C   0  0  0  0  0  0  0  0  0  0  0  0
   -3.3771   -1.2701    2.2262 H   0  0  0  0  0  0  0  0  0  0  0  0
   -4.0794   -1.6351    0.6299 H   0  0  0  0  0  0  0  0  0  0  0  0
   -1.9315   -1.5028    0.6518 C   0  0  0  0  0  0  0  0  0  0  0  0
   -1.1926   -2.3975    0.2742 O   0  0  0  0  0  0  0  0  0  0  0  0
   -1.6840   -0.1962    0.2709 N   0  0  0  0  0  0  0  0  0  0  0  0
   -2.4536    0.4209    0.5066 H   0  0  0  0  0  0  0  0  0  0  0  0
   -0.3558    0.4599    0.3290 C   0  0  1  0  0  0  0  0  0  0  0  0
   -0.0782    0.7191   -0.6965 H   0  0  0  0  0  0  0  0  0  0  0  0
   -0.5136    1.7843    1.1367 C   0  0  1  0  0  0  0  0  0  0  0  0
   -0.9312    1.5373    2.1194 H   0  0  0  0  0  0  0  0  0  0  0  0
    0.8443    2.4871    1.3559 C   0  0  0  0  0  0  0  0  0  0  0  0
    1.3138    2.7251    0.3965 H   0  0  0  0  0  0  0  0  0  0  0  0
    0.7210    3.4135    1.9215 H   0  0  0  0  0  0  0  0  0  0  0  0
    1.5277    1.8574    1.9329 H   0  0  0  0  0  0  0  0  0  0  0  0
   -1.4786    2.7540    0.4030 C   0  0  0  0  0  0  0  0  0  0  0  0
   -1.0112    3.1101   -0.5213 H   0  0  0  0  0  0  0  0  0  0  0  0
   -2.3964    2.2316    0.1206 H   0  0  0  0  0  0  0  0  0  0  0  0
   -1.8921    3.9573    1.2571 C   0  0  0  0  0  0  0  0  0  0  0  0
   -1.0487    4.6306    1.4312 H   0  0  0  0  0  0  0  0  0  0  0  0
   -2.6737    4.5251    0.7431 H   0  0  0  0  0  0  0  0  0  0  0  0
   -2.2848    3.6256    2.2233 H   0  0  0  0  0  0  0  0  0  0  0  0
    0.8073   -0.4178    0.8712 C   0  0  0  0  0  0  0  0  0  0  0  0
    0.7657   -0.8296    2.0262 O   0  0  0  0  0  0  0  0  0  0  0  0
    2.0281   -0.4321    0.2178 N   0  0  0  0  0  0  0  0  0  0  0  0
    2.0312   -0.1402   -0.7540 H   0  0  0  0  0  0  0  0  0  0  0  0
    3.1794   -1.1697    0.7239 C   0  0  0  0  0  0  0  0  0  0  0  0
    2.9389   -2.2339    0.8211 H   0  0  0  0  0  0  0  0  0  0  0  0
    4.0260   -1.0663    0.0385 H   0  0  0  0  0  0  0  0  0  0  0  0
    3.4808   -0.7855    1.7041 H   0  0  0  0  0  0  0  0  0  0  0  0
  1  2  1  0  0  0  0
  2  3  1  0  0  0  0
  2  4  1  0  0  0  0
  2  5  1  0  0  0  0
  5  6  2  0  0  0  0
  5  7  1  0  0  0  0
  7  8  1  0  0  0  0
  7  9  1  0  0  0  0
  9 10  1  0  0  0  0
  9 11  1  0  0  0  0
  9 24  1  0  0  0  0
 11 12  1  0  0  0  0
 11 13  1  0  0  0  0
 11 17  1  0  0  0  0
 13 14  1  0  0  0  0
 13 15  1  0  0  0  0
 13 16  1  0  0  0  0
 17 18  1  0  0  0  0
 17 19  1  0  0  0  0
 17 20  1  0  0  0  0
 20 21  1  0  0  0  0
 20 22  1  0  0  0  0
 20 23  1  0  0  0  0
 24 25  2  0  0  0  0
 24 26  1  0  0  0  0
 26 27  1  0  0  0  0
 26 28  1  0  0  0  0
 28 29  1  0  0  0  0
 28 30  1  0  0  0  0
 28 31  1  0  0  0  0
M  END
$$$$

  -OEChem-01062216083D

 31 30  0     1  0  0  0  0  0999 V2000
   -3.2896   -2.8899    1.5633 H   0  0  0  0  0  0  0  0  0  0  0  0
   -3.2429   -1.8200    1.3416 C   0  0  0  0  0  0  0  0  0  0  0  0
   -3.2948   -1.2662    2.2821 H   0  0  0  0  0  0  0  0  0  0  0  0
   -4.0970   -1.5502    0.7162 H   0  0  0  0  0  0  0  0  0  0  0  0
   -1.9472   -1.4948    0.6232 C   0  0  0  0  0  0  0  0  0  0  0  0
   -1.2578   -2.4001    0.1822 O   0  0  0  0  0  0  0  0  0  0  0  0
   -1.6832   -0.1915    0.2439 N   0  0  0  0  0  0  0  0  0  0  0  0
   -2.4358    0.4349    0.5073 H   0  0  0  0  0  0  0  0  0  0  0  0
   -0.3437    0.4430    0.3001 C   0  0  1  0  0  0  0  0  0  0  0  0
   -0.0654    0.7058   -0.7243 H   0  0  0  0  0  0  0  0  0  0  0  0
   -0.5113    1.7616    1.1212 C   0  0  1  0  0  0  0  0  0  0  0  0
   -0.9441    1.5004    2.0936 H   0  0  0  0  0  0  0  0  0  0  0  0
    0.8363    2.4677    1.3826 C   0  0  0  0  0  0  0  0  0  0  0  0
    1.3434    2.6931    0.4395 H   0  0  0  0  0  0  0  0  0  0  0  0
    0.6949    3.4012    1.9316 H   0  0  0  0  0  0  0  0  0  0  0  0
    1.4918    1.8430    1.9963 H   0  0  0  0  0  0  0  0  0  0  0  0
   -1.4736    2.7376    0.3893 C   0  0  0  0  0  0  0  0  0  0  0  0
   -0.9972    3.1041   -0.5263 H   0  0  0  0  0  0  0  0  0  0  0  0
   -2.3881    2.2186    0.0916 H   0  0  0  0  0  0  0  0  0  0  0  0
   -1.8992    3.9329    1.2490 C   0  0  0  0  0  0  0  0  0  0  0  0
   -1.0619    4.6116    1.4315 H   0  0  0  0  0  0  0  0  0  0  0  0
   -2.6825    4.4984    0.7349 H   0  0  0  0  0  0  0  0  0  0  0  0
   -2.2950    3.5924    2.2109 H   0  0  0  0  0  0  0  0  0  0  0  0
    0.8198   -0.4420    0.8367 C   0  0  0  0  0  0  0  0  0  0  0  0
    0.7083   -0.9893    1.9288 O   0  0  0  0  0  0  0  0  0  0  0  0
    2.1092   -0.2346    0.3728 N   0  0  0  0  0  0  0  0  0  0  0  0
    2.2097    0.2374   -0.5197 H   0  0  0  0  0  0  0  0  0  0  0  0
    3.2789   -0.8833    0.9544 C   0  0  0  0  0  0  0  0  0  0  0  0
    3.1694   -1.9726    0.9199 H   0  0  0  0  0  0  0  0  0  0  0  0
    4.1798   -0.6077    0.3981 H   0  0  0  0  0  0  0  0  0  0  0  0
    3.4098   -0.5753    1.9971 H   0  0  0  0  0  0  0  0  0  0  0  0
  1  2  1  0  0  0  0
  2  3  1  0  0  0  0
  2  4  1  0  0  0  0
  2  5  1  0  0  0  0
  5  6  2  0  0  0  0
  5  7  1  0  0  0  0
  7  8  1  0  0  0  0
  7  9  1  0  0  0  0
  9 10  1  0  0  0  0
  9 11  1  0  0  0  0
  9 24  1  0  0  0  0
 11 12  1  0  0  0  0
 11 13  1  0  0  0  0
 11 17  1  0  0  0  0
 13 14  1  0  0  0  0
 13 15  1  0  0  0  0
 13 16  1  0  0  0  0
 17 18  1  0  0  0  0
 17 19  1  0  0  0  0
 17 20  1  0  0  0  0
 20 21  1  0  0  0  0
 20 22  1  0  0  0  0
 20 23  1  0  0  0  0
 24 25  2  0  0  0  0
 24 26  1  0  0  0  0
 26 27  1  0  0  0  0
 26 28  1  0  0  0  0
 28 29  1  0  0  0  0
 28 30  1  0  0  0  0
 28 31  1  0  0  0  0
M  END
$$$$

  -OEChem-01062216083D

 31 30  0     1  0  0  0  0  0999 V2000
   -3.2597   -2.8576    1.5918 H   0  0  0  0  0  0  0  0  0  0  0  0
   -3.2010   -1.7856    1.3843 C   0  0  0  0  0  0  0  0  0  0  0  0
   -3.1793   -1.2472    2.3347 H   0  0  0  0  0  0  0  0  0  0  0  0
   -4.0859   -1.4846    0.8190 H   0  0  0  0  0  0  0  0  0  0  0  0
   -1.9453   -1.4797    0.5904 C   0  0  0  0  0  0  0  0  0  0  0  0
   -1.3280   -2.3886    0.0590 O   0  0  0  0  0  0  0  0  0  0  0  0
   -1.6635   -0.1774    0.2237 N   0  0  0  0  0  0  0  0  0  0  0  0
   -2.3993    0.4540    0.5201 H   0  0  0  0  0  0  0  0  0  0  0  0
   -0.3142    0.4405    0.2804 C   0  0  1  0  0  0  0  0  0  0  0  0
   -0.0347    0.7108   -0.7419 H   0  0  0  0  0  0  0  0  0  0  0  0
   -0.5134    1.7556    1.1105 C   0  0  1  0  0  0  0  0  0  0  0  0
   -0.9681    1.4773    2.0680 H   0  0  0  0  0  0  0  0  0  0  0  0
    0.8053    2.4898    1.4307 C   0  0  0  0  0  0  0  0  0  0  0  0
    1.3589    2.7088    0.5126 H   0  0  0  0  0  0  0  0  0  0  0  0
    0.6224    3.4293    1.9563 H   0  0  0  0  0  0  0  0  0  0  0  0
    1.4325    1.8867    2.0932 H   0  0  0  0  0  0  0  0  0  0  0  0
   -1.4780    2.7249    0.3674 C   0  0  0  0  0  0  0  0  0  0  0  0
   -0.9896    3.1021   -0.5372 H   0  0  0  0  0  0  0  0  0  0  0  0
   -2.3813    2.1991    0.0486 H   0  0  0  0  0  0  0  0  0  0  0  0
   -1.9377    3.9110    1.2227 C   0  0  0  0  0  0  0  0  0  0  0  0
   -1.1203    4.6135    1.4042 H   0  0  0  0  0  0  0  0  0  0  0  0
   -2.7345    4.4536    0.7048 H   0  0  0  0  0  0  0  0  0  0  0  0
   -2.3261    3.5630    2.1849 H   0  0  0  0  0  0  0  0  0  0  0  0
    0.8575   -0.4513    0.8041 C   0  0  0  0  0  0  0  0  0  0  0  0
    0.6890   -1.1699    1.7832 O   0  0  0  0  0  0  0  0  0  0  0  0
    2.1714   -0.0649    0.5847 N   0  0  0  0  0  0  0  0  0  0  0  0
    2.3411    0.5987   -0.1638 H   0  0  0  0  0  0  0  0  0  0  0  0
    3.3176   -0.7029    1.2241 C   0  0  0  0  0  0  0  0  0  0  0  0
    3.3077   -1.7822    1.0378 H   0  0  0  0  0  0  0  0  0  0  0  0
    4.2503   -0.2923    0.8261 H   0  0  0  0  0  0  0  0  0  0  0  0
    3.2984   -0.5314    2.3055 H   0  0  0  0  0  0  0  0  0  0  0  0
  1  2  1  0  0  0  0
  2  3  1  0  0  0  0
  2  4  1  0  0  0  0
  2  5  1  0  0  0  0
  5  6  2  0  0  0  0
  5  7  1  0  0  0  0
  7  8  1  0  0  0  0
  7  9  1  0  0  0  0
  9 10  1  0  0  0  0
  9 11  1  0  0  0  0
  9 24  1  0  0  0  0
 11 12  1  0  0  0  0
 11 13  1  0  0  0  0
 11 17  1  0  0  0  0
 13 14  1  0  0  0  0
 13 15  1  0  0  0  0
 13 16  1  0  0  0  0
 17 18  1  0  0  0  0
 17 19  1  0  0  0  0
 17 20  1  0  0  0  0
 20 21  1  0  0  0  0
 20 22  1  0  0  0  0
 20 23  1  0  0  0  0
 24 25  2  0  0  0  0
 24 26  1  0  0  0  0
 26 27  1  0  0  0  0
 26 28  1  0  0  0  0
 28 29  1  0  0  0  0
 28 30  1  0  0  0  0
 28 31  1  0  0  0  0
M  END
$$$$

  -OEChem-01062216083D

 31 30  0     1  0  0  0  0  0999 V2000
   -3.1968   -3.1034    1.4270 H   0  0  0  0  0  0  0  0  0  0  0  0
   -3.1413   -2.1675    0.8637 C   0  0  0  0  0  0  0  0  0  0  0  0
   -4.0851   -1.6291    0.9767 H   0  0  0  0  0  0  0  0  0  0  0  0
   -2.9846   -2.4041   -0.1913 H   0  0  0  0  0  0  0  0  0  0  0  0
   -1.9923   -1.3205    1.3774 C   0  0  0  0  0  0  0  0  0  0  0  0
   -1.4513   -1.6096    2.4332 O   0  0  0  0  0  0  0  0  0  0  0  0
   -1.7352   -0.0871    0.8067 N   0  0  0  0  0  0  0  0  0  0  0  0
   -2.3910    0.1283    0.0638 H   0  0  0  0  0  0  0  0  0  0  0  0
   -0.3794    0.4881    0.5973 C   0  0  1  0  0  0  0  0  0  0  0  0
   -0.3245    0.8741   -0.4245 H   0  0  0  0  0  0  0  0  0  0  0  0
   -0.3375    1.7108    1.5865 C   0  0  1  0  0  0  0  0  0  0  0  0
   -0.5804    1.3340    2.5872 H   0  0  0  0  0  0  0  0  0  0  0  0
    1.0330    2.4128    1.6827 C   0  0  0  0  0  0  0  0  0  0  0  0
    1.4055    2.6706    0.6863 H   0  0  0  0  0  0  0  0  0  0  0  0
    0.9769    3.3291    2.2733 H   0  0  0  0  0  0  0  0  0  0  0  0
    1.7570    1.7726    2.1934 H   0  0  0  0  0  0  0  0  0  0  0  0
   -1.4146    2.7624    1.1838 C   0  0  0  0  0  0  0  0  0  0  0  0
   -1.1372    3.2242    0.2307 H   0  0  0  0  0  0  0  0  0  0  0  0
   -2.3826    2.2758    1.0388 H   0  0  0  0  0  0  0  0  0  0  0  0
   -1.6380    3.8607    2.2311 C   0  0  0  0  0  0  0  0  0  0  0  0
   -0.7976    4.5586    2.2672 H   0  0  0  0  0  0  0  0  0  0  0  0
   -2.5349    4.4345    1.9789 H   0  0  0  0  0  0  0  0  0  0  0  0
   -1.7782    3.4212    3.2236 H   0  0  0  0  0  0  0  0  0  0  0  0
    0.8299   -0.5065    0.7048 C   0  0  0  0  0  0  0  0  0  0  0  0
    0.6766   -1.6939    0.4424 O   0  0  0  0  0  0  0  0  0  0  0  0
    2.1333   -0.0672    0.5288 N   0  0  0  0  0  0  0  0  0  0  0  0
    2.3016    0.9273    0.6330 H   0  0  0  0  0  0  0  0  0  0  0  0
    3.2836   -0.9543    0.3824 C   0  0  0  0  0  0  0  0  0  0  0  0
    3.2201   -1.5123   -0.5577 H   0  0  0  0  0  0  0  0  0  0  0  0
    4.2107   -0.3733    0.3779 H   0  0  0  0  0  0  0  0  0  0  0  0
    3.3273   -1.6665    1.2134 H   0  0  0  0  0  0  0  0  0  0  0  0
  1  2  1  0  0  0  0
  2  3  1  0  0  0  0
  2  4  1  0  0  0  0
  2  5  1  0  0  0  0
  5  6  2  0  0  0  0
  5  7  1  0  0  0  0
  7  8  1  0  0  0  0
  7  9  1  0  0  0  0
  9 10  1  0  0  0  0
  9 11  1  0  0  0  0
  9 24  1  0  0  0  0
 11 12  1  0  0  0  0
 11 13  1  0  0  0  0
 11 17  1  0  0  0  0
 13 14  1  0  0  0  0
 13 15  1  0  0  0  0
 13 16  1  0  0  0  0
 17 18  1  0  0  0  0
 17 19  1  0  0  0  0
 17 20  1  0  0  0  0
 20 21  1  0  0  0  0
 20 22  1  0  0  0  0
 20 23  1  0  0  0  0
 24 25  2  0  0  0  0
 24 26  1  0  0  0  0
 26 27  1  0  0  0  0
 26 28  1  0  0  0  0
 28 29  1  0  0  0  0
 28 30  1  0  0  0  0
 28 31  1  0  0  0  0
M  END
$$$$

  -OEChem-01062216083D

 31 30  0     1  0  0  0  0  0999 V2000
   -3.1514   -3.1114    1.4214 H   0  0  0  0  0  0  0  0  0  0  0  0
   -3.1185   -2.1625    0.8787 C   0  0  0  0  0  0  0  0  0  0  0  0
   -4.0571   -1.6280    1.0421 H   0  0  0  0  0  0  0  0  0  0  0  0
   -3.0040   -2.3735   -0.1872 H   0  0  0  0  0  0  0  0  0  0  0  0
   -1.9501   -1.3271    1.3665 C   0  0  0  0  0  0  0  0  0  0  0  0
   -1.3472   -1.6587    2.3758 O   0  0  0  0  0  0  0  0  0  0  0  0
   -1.7191   -0.0780    0.8174 N   0  0  0  0  0  0  0  0  0  0  0  0
   -2.3886    0.1482    0.0899 H   0  0  0  0  0  0  0  0  0  0  0  0
   -0.3731    0.5206    0.6107 C   0  0  1  0  0  0  0  0  0  0  0  0
   -0.3182    0.9103   -0.4099 H   0  0  0  0  0  0  0  0  0  0  0  0
   -0.3452    1.7460    1.5977 C   0  0  1  0  0  0  0  0  0  0  0  0
   -0.5766    1.3756    2.6032 H   0  0  0  0  0  0  0  0  0  0  0  0
    1.0151    2.4721    1.6692 C   0  0  0  0  0  0  0  0  0  0  0  0
    1.4364    2.6035    0.6675 H   0  0  0  0  0  0  0  0  0  0  0  0
    0.9317    3.4570    2.1308 H   0  0  0  0  0  0  0  0  0  0  0  0
    1.7133    1.9094    2.2940 H   0  0  0  0  0  0  0  0  0  0  0  0
   -1.4405    2.7774    1.1880 C   0  0  0  0  0  0  0  0  0  0  0  0
   -1.1714    3.2368    0.2313 H   0  0  0  0  0  0  0  0  0  0  0  0
   -2.3995    2.2726    1.0470 H   0  0  0  0  0  0  0  0  0  0  0  0
   -1.6878    3.8807    2.2258 C   0  0  0  0  0  0  0  0  0  0  0  0
   -0.8689    4.6039    2.2519 H   0  0  0  0  0  0  0  0  0  0  0  0
   -2.6023    4.4256    1.9723 H   0  0  0  0  0  0  0  0  0  0  0  0
   -1.8112    3.4476    3.2234 H   0  0  0  0  0  0  0  0  0  0  0  0
    0.8167   -0.4984    0.7016 C   0  0  0  0  0  0  0  0  0  0  0  0
    0.6679   -1.6046    0.1913 O   0  0  0  0  0  0  0  0  0  0  0  0
    2.1415   -0.1181    0.8425 N   0  0  0  0  0  0  0  0  0  0  0  0
    2.3207    0.8255    1.1642 H   0  0  0  0  0  0  0  0  0  0  0  0
    3.2690   -1.0377    0.7240 C   0  0  0  0  0  0  0  0  0  0  0  0
    3.3632   -1.3986   -0.3055 H   0  0  0  0  0  0  0  0  0  0  0  0
    4.1993   -0.5327    1.0003 H   0  0  0  0  0  0  0  0  0  0  0  0
    3.1337   -1.8980    1.3883 H   0  0  0  0  0  0  0  0  0  0  0  0
  1  2  1  0  0  0  0
  2  3  1  0  0  0  0
  2  4  1  0  0  0  0
  2  5  1  0  0  0  0
  5  6  2  0  0  0  0
  5  7  1  0  0  0  0
  7  8  1  0  0  0  0
  7  9  1  0  0  0  0
  9 10  1  0  0  0  0
  9 11  1  0  0  0  0
  9 24  1  0  0  0  0
 11 12  1  0  0  0  0
 11 13  1  0  0  0  0
 11 17  1  0  0  0  0
 13 14  1  0  0  0  0
 13 15  1  0  0  0  0
 13 16  1  0  0  0  0
 17 18  1  0  0  0  0
 17 19  1  0  0  0  0
 17 20  1  0  0  0  0
 20 21  1  0  0  0  0
 20 22  1  0  0  0  0
 20 23  1  0  0  0  0
 24 25  2  0  0  0  0
 24 26  1  0  0  0  0
 26 27  1  0  0  0  0
 26 28  1  0  0  0  0
 28 29  1  0  0  0  0
 28 30  1  0  0  0  0
 28 31  1  0  0  0  0
M  END
$$$$

  -OEChem-01062216083D

 31 30  0     1  0  0  0  0  0999 V2000
   -2.9943   -3.2393    1.2813 H   0  0  0  0  0  0  0  0  0  0  0  0
   -3.0666   -2.2141    0.9074 C   0  0  0  0  0  0  0  0  0  0  0  0
   -3.9145   -1.7215    1.3888 H   0  0  0  0  0  0  0  0  0  0  0  0
   -3.2343   -2.2471   -0.1719 H   0  0  0  0  0  0  0  0  0  0  0  0
   -1.7857   -1.4587    1.2077 C   0  0  0  0  0  0  0  0  0  0  0  0
   -0.9497   -1.9641    1.9417 O   0  0  0  0  0  0  0  0  0  0  0  0
   -1.6615   -0.1405    0.8004 N   0  0  0  0  0  0  0  0  0  0  0  0
   -2.4676    0.1879    0.2790 H   0  0  0  0  0  0  0  0  0  0  0  0
   -0.3861    0.5458    0.4636 C   0  0  1  0  0  0  0  0  0  0  0  0
   -0.5017    1.0221   -0.5149 H   0  0  0  0  0  0  0  0  0  0  0  0
   -0.1860    1.6971    1.5066 C   0  0  1  0  0  0  0  0  0  0  0  0
   -0.1792    1.2755    2.5175 H   0  0  0  0  0  0  0  0  0  0  0  0
    1.1187    2.4953    1.2625 C   0  0  0  0  0  0  0  0  0  0  0  0
    1.2006    2.7792    0.2086 H   0  0  0  0  0  0  0  0  0  0  0  0
    2.0050    1.9298    1.5378 H   0  0  0  0  0  0  0  0  0  0  0  0
    1.1538    3.4041    1.8653 H   0  0  0  0  0  0  0  0  0  0  0  0
   -1.3519    2.7208    1.3609 C   0  0  0  0  0  0  0  0  0  0  0  0
   -1.2732    3.2424    0.4011 H   0  0  0  0  0  0  0  0  0  0  0  0
   -2.3100    2.1946    1.3650 H   0  0  0  0  0  0  0  0  0  0  0  0
   -1.4233    3.7518    2.4950 C   0  0  0  0  0  0  0  0  0  0  0  0
   -0.6119    4.4807    2.4310 H   0  0  0  0  0  0  0  0  0  0  0  0
   -2.3678    4.3010    2.4347 H   0  0  0  0  0  0  0  0  0  0  0  0
   -1.3762    3.2534    3.4681 H   0  0  0  0  0  0  0  0  0  0  0  0
    0.7673   -0.4897    0.2468 C   0  0  0  0  0  0  0  0  0  0  0  0
    0.6289   -1.2463   -0.7056 O   0  0  0  0  0  0  0  0  0  0  0  0
    2.1100   -0.3347    0.4810 N   0  0  0  0  0  0  0  0  0  0  0  0
    2.6242   -0.8747   -0.2107 H   0  0  0  0  0  0  0  0  0  0  0  0
    2.5565   -0.5683    1.8501 C   0  0  0  0  0  0  0  0  0  0  0  0
    2.6620   -1.6429    2.0323 H   0  0  0  0  0  0  0  0  0  0  0  0
    3.5256   -0.0884    2.0177 H   0  0  0  0  0  0  0  0  0  0  0  0
    1.8432   -0.1696    2.5791 H   0  0  0  0  0  0  0  0  0  0  0  0
  1  2  1  0  0  0  0
  2  3  1  0  0  0  0
  2  4  1  0  0  0  0
  2  5  1  0  0  0  0
  5  6  2  0  0  0  0
  5  7  1  0  0  0  0
  7  8  1  0  0  0  0
  7  9  1  0  0  0  0
  9 10  1  0  0  0  0
  9 11  1  0  0  0  0
  9 24  1  0  0  0  0
 11 12  1  0  0  0  0
 11 13  1  0  0  0  0
 11 17  1  0  0  0  0
 13 14  1  0  0  0  0
 13 15  1  0  0  0  0
 13 16  1  0  0  0  0
 17 18  1  0  0  0  0
 17 19  1  0  0  0  0
 17 20  1  0  0  0  0
 20 21  1  0  0  0  0
 20 22  1  0  0  0  0
 20 23  1  0  0  0  0
 24 25  2  0  0  0  0
 24 26  1  0  0  0  0
 26 27  1  0  0  0  0
 26 28  1  0  0  0  0
 28 29  1  0  0  0  0
 28 30  1  0  0  0  0
 28 31  1  0  0  0  0
M  END
$$$$

  -OEChem-01062216083D

 31 30  0     1  0  0  0  0  0999 V2000
   -3.1279   -3.1409    1.3212 H   0  0  0  0  0  0  0  0  0  0  0  0
   -3.1226   -2.1585    0.8404 C   0  0  0  0  0  0  0  0  0  0  0  0
   -4.0463   -1.6345    1.0963 H   0  0  0  0  0  0  0  0  0  0  0  0
   -3.0765   -2.2997   -0.2421 H   0  0  0  0  0  0  0  0  0  0  0  0
   -1.9220   -1.3575    1.3077 C   0  0  0  0  0  0  0  0  0  0  0  0
   -1.2577   -1.7627    2.2492 O   0  0  0  0  0  0  0  0  0  0  0  0
   -1.7084   -0.0879    0.7982 N   0  0  0  0  0  0  0  0  0  0  0  0
   -2.3921    0.1718    0.0950 H   0  0  0  0  0  0  0  0  0  0  0  0
   -0.3776    0.5514    0.6316 C   0  0  1  0  0  0  0  0  0  0  0  0
   -0.3098    0.9384   -0.3897 H   0  0  0  0  0  0  0  0  0  0  0  0
   -0.3415    1.7835    1.6001 C   0  0  1  0  0  0  0  0  0  0  0  0
   -0.5439    1.4420    2.6214 H   0  0  0  0  0  0  0  0  0  0  0  0
    1.0236    2.5151    1.5703 C   0  0  0  0  0  0  0  0  0  0  0  0
    1.4452    2.5019    0.5601 H   0  0  0  0  0  0  0  0  0  0  0  0
    1.7320    2.0520    2.2595 H   0  0  0  0  0  0  0  0  0  0  0  0
    0.9432    3.5570    1.8820 H   0  0  0  0  0  0  0  0  0  0  0  0
   -1.4375    2.8046    1.1730 C   0  0  0  0  0  0  0  0  0  0  0  0
   -1.1716    3.2493    0.2082 H   0  0  0  0  0  0  0  0  0  0  0  0
   -2.3937    2.2914    1.0412 H   0  0  0  0  0  0  0  0  0  0  0  0
   -1.6837    3.9235    2.1951 C   0  0  0  0  0  0  0  0  0  0  0  0
   -0.8542    4.6332    2.2331 H   0  0  0  0  0  0  0  0  0  0  0  0
   -2.5839    4.4814    1.9197 H   0  0  0  0  0  0  0  0  0  0  0  0
   -1.8331    3.5011    3.1936 H   0  0  0  0  0  0  0  0  0  0  0  0
    0.7916   -0.4814    0.7274 C   0  0  0  0  0  0  0  0  0  0  0  0
    0.7950   -1.3817   -0.1066 O   0  0  0  0  0  0  0  0  0  0  0  0
    1.9553   -0.3021    1.4531 N   0  0  0  0  0  0  0  0  0  0  0  0
    1.8954    0.3558    2.2225 H   0  0  0  0  0  0  0  0  0  0  0  0
    3.0243   -1.2936    1.4847 C   0  0  0  0  0  0  0  0  0  0  0  0
    3.4445   -1.4376    0.4838 H   0  0  0  0  0  0  0  0  0  0  0  0
    3.8272   -0.9630    2.1504 H   0  0  0  0  0  0  0  0  0  0  0  0
    2.6441   -2.2538    1.8493 H   0  0  0  0  0  0  0  0  0  0  0  0
  1  2  1  0  0  0  0
  2  3  1  0  0  0  0
  2  4  1  0  0  0  0
  2  5  1  0  0  0  0
  5  6  2  0  0  0  0
  5  7  1  0  0  0  0
  7  8  1  0  0  0  0
  7  9  1  0  0  0  0
  9 10  1  0  0  0  0
  9 11  1  0  0  0  0
  9 24  1  0  0  0  0
 11 12  1  0  0  0  0
 11 13  1  0  0  0  0
 11 17  1  0  0  0  0
 13 14  1  0  0  0  0
 13 15  1  0  0  0  0
 13 16  1  0  0  0  0
 17 18  1  0  0  0  0
 17 19  1  0  0  0  0
 17 20  1  0  0  0  0
 20 21  1  0  0  0  0
 20 22  1  0  0  0  0
 20 23  1  0  0  0  0
 24 25  2  0  0  0  0
 24 26  1  0  0  0  0
 26 27  1  0  0  0  0
 26 28  1  0  0  0  0
 28 29  1  0  0  0  0
 28 30  1  0  0  0  0
 28 31  1  0  0  0  0
M  END
$$$$

  -OEChem-01062216083D

 31 30  0     1  0  0  0  0  0999 V2000
   -3.1156   -3.1673    1.2965 H   0  0  0  0  0  0  0  0  0  0  0  0
   -3.1412   -2.1609    0.8692 C   0  0  0  0  0  0  0  0  0  0  0  0
   -4.0435   -1.6521    1.2163 H   0  0  0  0  0  0  0  0  0  0  0  0
   -3.1714   -2.2450   -0.2197 H   0  0  0  0  0  0  0  0  0  0  0  0
   -1.9098   -1.3837    1.2947 C   0  0  0  0  0  0  0  0  0  0  0  0
   -1.2094   -1.8196    2.1951 O   0  0  0  0  0  0  0  0  0  0  0  0
   -1.7042   -0.1089    0.7942 N   0  0  0  0  0  0  0  0  0  0  0  0
   -2.4065    0.1679    0.1160 H   0  0  0  0  0  0  0  0  0  0  0  0
   -0.3843    0.5508    0.6259 C   0  0  1  0  0  0  0  0  0  0  0  0
   -0.3271    0.9442   -0.3940 H   0  0  0  0  0  0  0  0  0  0  0  0
   -0.3346    1.7760    1.5986 C   0  0  1  0  0  0  0  0  0  0  0  0
   -0.5064    1.4299    2.6238 H   0  0  0  0  0  0  0  0  0  0  0  0
    1.0200    2.5249    1.5243 C   0  0  0  0  0  0  0  0  0  0  0  0
    1.3040    2.6941    0.4808 H   0  0  0  0  0  0  0  0  0  0  0  0
    0.9740    3.4930    2.0256 H   0  0  0  0  0  0  0  0  0  0  0  0
    1.8206    1.9757    2.0191 H   0  0  0  0  0  0  0  0  0  0  0  0
   -1.4405    2.7940    1.1945 C   0  0  0  0  0  0  0  0  0  0  0  0
   -1.1966    3.2434    0.2259 H   0  0  0  0  0  0  0  0  0  0  0  0
   -2.3967    2.2765    1.0797 H   0  0  0  0  0  0  0  0  0  0  0  0
   -1.6697    3.9057    2.2270 C   0  0  0  0  0  0  0  0  0  0  0  0
   -0.8409    4.6174    2.2467 H   0  0  0  0  0  0  0  0  0  0  0  0
   -2.5781    4.4613    1.9749 H   0  0  0  0  0  0  0  0  0  0  0  0
   -1.7933    3.4788    3.2271 H   0  0  0  0  0  0  0  0  0  0  0  0
    0.7908   -0.4713    0.7118 C   0  0  0  0  0  0  0  0  0  0  0  0
    0.9062   -1.2588   -0.2214 O   0  0  0  0  0  0  0  0  0  0  0  0
    1.8066   -0.4279    1.6489 N   0  0  0  0  0  0  0  0  0  0  0  0
    1.5993    0.1007    2.4906 H   0  0  0  0  0  0  0  0  0  0  0  0
    2.8520   -1.4414    1.7180 C   0  0  0  0  0  0  0  0  0  0  0  0
    3.4277   -1.4641    0.7868 H   0  0  0  0  0  0  0  0  0  0  0  0
    3.5386   -1.2205    2.5406 H   0  0  0  0  0  0  0  0  0  0  0  0
    2.4133   -2.4306    1.8863 H   0  0  0  0  0  0  0  0  0  0  0  0
  1  2  1  0  0  0  0
  2  3  1  0  0  0  0
  2  4  1  0  0  0  0
  2  5  1  0  0  0  0
  5  6  2  0  0  0  0
  5  7  1  0  0  0  0
  7  8  1  0  0  0  0
  7  9  1  0  0  0  0
  9 10  1  0  0  0  0
  9 11  1  0  0  0  0
  9 24  1  0  0  0  0
 11 12  1  0  0  0  0
 11 13  1  0  0  0  0
 11 17  1  0  0  0  0
 13 14  1  0  0  0  0
 13 15  1  0  0  0  0
 13 16  1  0  0  0  0
 17 18  1  0  0  0  0
 17 19  1  0  0  0  0
 17 20  1  0  0  0  0
 20 21  1  0  0  0  0
 20 22  1  0  0  0  0
 20 23  1  0  0  0  0
 24 25  2  0  0  0  0
 24 26  1  0  0  0  0
 26 27  1  0  0  0  0
 26 28  1  0  0  0  0
 28 29  1  0  0  0  0
 28 30  1  0  0  0  0
 28 31  1  0  0  0  0
M  END
$$$$

  -OEChem-01062216083D

 31 30  0     1  0  0  0  0  0999 V2000
   -3.1958   -3.1353    1.3393 H   0  0  0  0  0  0  0  0  0  0  0  0
   -3.1817   -2.1469    0.8714 C   0  0  0  0  0  0  0  0  0  0  0  0
   -4.0662   -1.5918    1.1925 H   0  0  0  0  0  0  0  0  0  0  0  0
   -3.2104   -2.2736   -0.2136 H   0  0  0  0  0  0  0  0  0  0  0  0
   -1.9247   -1.3980    1.2716 C   0  0  0  0  0  0  0  0  0  0  0  0
   -1.2096   -1.8584    2.1471 O   0  0  0  0  0  0  0  0  0  0  0  0
   -1.7052   -0.1284    0.7649 N   0  0  0  0  0  0  0  0  0  0  0  0
   -2.4158    0.1664    0.1028 H   0  0  0  0  0  0  0  0  0  0  0  0
   -0.3875    0.5363    0.6052 C   0  0  1  0  0  0  0  0  0  0  0  0
   -0.3270    0.9300   -0.4144 H   0  0  0  0  0  0  0  0  0  0  0  0
   -0.3289    1.7548    1.5797 C   0  0  1  0  0  0  0  0  0  0  0  0
   -0.4928    1.4013    2.6035 H   0  0  0  0  0  0  0  0  0  0  0  0
    1.0284    2.4966    1.4987 C   0  0  0  0  0  0  0  0  0  0  0  0
    1.2116    2.8455    0.4773 H   0  0  0  0  0  0  0  0  0  0  0  0
    1.0427    3.3607    2.1671 H   0  0  0  0  0  0  0  0  0  0  0  0
    1.8673    1.8679    1.7965 H   0  0  0  0  0  0  0  0  0  0  0  0
   -1.4279    2.7829    1.1908 C   0  0  0  0  0  0  0  0  0  0  0  0
   -1.1902    3.2386    0.2238 H   0  0  0  0  0  0  0  0  0  0  0  0
   -2.3885    2.2725    1.0808 H   0  0  0  0  0  0  0  0  0  0  0  0
   -1.6334    3.8844    2.2372 C   0  0  0  0  0  0  0  0  0  0  0  0
   -0.7829    4.5703    2.2679 H   0  0  0  0  0  0  0  0  0  0  0  0
   -2.5252    4.4682    1.9891 H   0  0  0  0  0  0  0  0  0  0  0  0
   -1.7721    3.4476    3.2310 H   0  0  0  0  0  0  0  0  0  0  0  0
    0.7978   -0.4675    0.7110 C   0  0  0  0  0  0  0  0  0  0  0  0
    1.0756   -1.1176   -0.2903 O   0  0  0  0  0  0  0  0  0  0  0  0
    1.6182   -0.5721    1.8203 N   0  0  0  0  0  0  0  0  0  0  0  0
    1.2183   -0.2095    2.6809 H   0  0  0  0  0  0  0  0  0  0  0  0
    2.6413   -1.6038    1.9322 C   0  0  0  0  0  0  0  0  0  0  0  0
    3.3662   -1.5168    1.1160 H   0  0  0  0  0  0  0  0  0  0  0  0
    3.1776   -1.5024    2.8804 H   0  0  0  0  0  0  0  0  0  0  0  0
    2.1848   -2.5987    1.8948 H   0  0  0  0  0  0  0  0  0  0  0  0
  1  2  1  0  0  0  0
  2  3  1  0  0  0  0
  2  4  1  0  0  0  0
  2  5  1  0  0  0  0
  5  6  2  0  0  0  0
  5  7  1  0  0  0  0
  7  8  1  0  0  0  0
  7  9  1  0  0  0  0
  9 10  1  0  0  0  0
  9 11  1  0  0  0  0
  9 24  1  0  0  0  0
 11 12  1  0  0  0  0
 11 13  1  0  0  0  0
 11 17  1  0  0  0  0
 13 14  1  0  0  0  0
 13 15  1  0  0  0  0
 13 16  1  0  0  0  0
 17 18  1  0  0  0  0
 17 19  1  0  0  0  0
 17 20  1  0  0  0  0
 20 21  1  0  0  0  0
 20 22  1  0  0  0  0
 20 23  1  0  0  0  0
 24 25  2  0  0  0  0
 24 26  1  0  0  0  0
 26 27  1  0  0  0  0
 26 28  1  0  0  0  0
 28 29  1  0  0  0  0
 28 30  1  0  0  0  0
 28 31  1  0  0  0  0
M  END
$$$$

  -OEChem-01062216083D

 31 30  0     1  0  0  0  0  0999 V2000
   -3.3119   -3.1071    1.3134 H   0  0  0  0  0  0  0  0  0  0  0  0
   -3.2874   -2.1009    0.8849 C   0  0  0  0  0  0  0  0  0  0  0  0
   -4.1316   -1.5289    1.2775 H   0  0  0  0  0  0  0  0  0  0  0  0
   -3.3820   -2.1816   -0.2007 H   0  0  0  0  0  0  0  0  0  0  0  0
   -1.9833   -1.4129    1.2431 C   0  0  0  0  0  0  0  0  0  0  0  0
   -1.2562   -1.9181    2.0818 O   0  0  0  0  0  0  0  0  0  0  0  0
   -1.7244   -0.1537    0.7310 N   0  0  0  0  0  0  0  0  0  0  0  0
   -2.4427    0.1822    0.0970 H   0  0  0  0  0  0  0  0  0  0  0  0
   -0.3992    0.4982    0.5850 C   0  0  1  0  0  0  0  0  0  0  0  0
   -0.3330    0.8940   -0.4338 H   0  0  0  0  0  0  0  0  0  0  0  0
   -0.3339    1.7109    1.5629 C   0  0  1  0  0  0  0  0  0  0  0  0
   -0.5174    1.3524    2.5817 H   0  0  0  0  0  0  0  0  0  0  0  0
    1.0462    2.4093    1.5113 C   0  0  0  0  0  0  0  0  0  0  0  0
    1.2591    2.7599    0.4963 H   0  0  0  0  0  0  0  0  0  0  0  0
    1.0783    3.2664    2.1879 H   0  0  0  0  0  0  0  0  0  0  0  0
    1.8547    1.7430    1.8181 H   0  0  0  0  0  0  0  0  0  0  0  0
   -1.4124    2.7585    1.1770 C   0  0  0  0  0  0  0  0  0  0  0  0
   -1.1585    3.2199    0.2170 H   0  0  0  0  0  0  0  0  0  0  0  0
   -2.3809    2.2656    1.0556 H   0  0  0  0  0  0  0  0  0  0  0  0
   -1.6004    3.8518    2.2345 C   0  0  0  0  0  0  0  0  0  0  0  0
   -0.7293    4.5101    2.2865 H   0  0  0  0  0  0  0  0  0  0  0  0
   -2.4699    4.4662    1.9819 H   0  0  0  0  0  0  0  0  0  0  0  0
   -1.7666    3.4065    3.2203 H   0  0  0  0  0  0  0  0  0  0  0  0
    0.8078   -0.4740    0.7123 C   0  0  0  0  0  0  0  0  0  0  0  0
    1.2993   -0.9168   -0.3188 O   0  0  0  0  0  0  0  0  0  0  0  0
    1.4165   -0.7520    1.9237 N   0  0  0  0  0  0  0  0  0  0  0  0
    0.8056   -0.6311    2.7282 H   0  0  0  0  0  0  0  0  0  0  0  0
    2.4925   -1.7271    2.0411 C   0  0  0  0  0  0  0  0  0  0  0  0
    3.3417   -1.4393    1.4126 H   0  0  0  0  0  0  0  0  0  0  0  0
    2.8365   -1.7849    3.0781 H   0  0  0  0  0  0  0  0  0  0  0  0
    2.1447   -2.7189    1.7333 H   0  0  0  0  0  0  0  0  0  0  0  0
  1  2  1  0  0  0  0
  2  3  1  0  0  0  0
  2  4  1  0  0  0  0
  2  5  1  0  0  0  0
  5  6  2  0  0  0  0
  5  7  1  0  0  0  0
  7  8  1  0  0  0  0
  7  9  1  0  0  0  0
  9 10  1  0  0  0  0
  9 11  1  0  0  0  0
  9 24  1  0  0  0  0
 11 12  1  0  0  0  0
 11 13  1  0  0  0  0
 11 17  1  0  0  0  0
 13 14  1  0  0  0  0
 13 15  1  0  0  0  0
 13 16  1  0  0  0  0
 17 18  1  0  0  0  0
 17 19  1  0  0  0  0
 17 20  1  0  0  0  0
 20 21  1  0  0  0  0
 20 22  1  0  0  0  0
 20 23  1  0  0  0  0
 24 25  2  0  0  0  0
 24 26  1  0  0  0  0
 26 27  1  0  0  0  0
 26 28  1  0  0  0  0
 28 29  1  0  0  0  0
 28 30  1  0  0  0  0
 28 31  1  0  0  0  0
M  END
$$$$

  -OEChem-01062216083D

 31 30  0     1  0  0  0  0  0999 V2000
   -3.4909   -3.0292    1.3200 H   0  0  0  0  0  0  0  0  0  0  0  0
   -3.4175   -2.0209    0.9020 C   0  0  0  0  0  0  0  0  0  0  0  0
   -4.2069   -1.4017    1.3351 H   0  0  0  0  0  0  0  0  0  0  0  0
   -3.5608   -2.0799   -0.1797 H   0  0  0  0  0  0  0  0  0  0  0  0
   -2.0586   -1.4228    1.2150 C   0  0  0  0  0  0  0  0  0  0  0  0
   -1.3348   -1.9893    2.0150 O   0  0  0  0  0  0  0  0  0  0  0  0
   -1.7414   -0.1796    0.6986 N   0  0  0  0  0  0  0  0  0  0  0  0
   -2.4645    0.2093    0.1012 H   0  0  0  0  0  0  0  0  0  0  0  0
   -0.4040    0.4515    0.5621 C   0  0  1  0  0  0  0  0  0  0  0  0
   -0.3332    0.8497   -0.4558 H   0  0  0  0  0  0  0  0  0  0  0  0
   -0.3417    1.6577    1.5482 C   0  0  1  0  0  0  0  0  0  0  0  0
   -0.5512    1.2904    2.5588 H   0  0  0  0  0  0  0  0  0  0  0  0
    1.0538    2.3237    1.5444 C   0  0  0  0  0  0  0  0  0  0  0  0
    1.3129    2.6639    0.5368 H   0  0  0  0  0  0  0  0  0  0  0  0
    1.0827    3.1826    2.2187 H   0  0  0  0  0  0  0  0  0  0  0  0
    1.8300    1.6338    1.8852 H   0  0  0  0  0  0  0  0  0  0  0  0
   -1.4023    2.7226    1.1608 C   0  0  0  0  0  0  0  0  0  0  0  0
   -1.1271    3.1911    0.2099 H   0  0  0  0  0  0  0  0  0  0  0  0
   -2.3754    2.2443    1.0203 H   0  0  0  0  0  0  0  0  0  0  0  0
   -1.5899    3.8082    2.2264 C   0  0  0  0  0  0  0  0  0  0  0  0
   -0.7109    4.4544    2.2958 H   0  0  0  0  0  0  0  0  0  0  0  0
   -2.4483    4.4359    1.9684 H   0  0  0  0  0  0  0  0  0  0  0  0
   -1.7751    3.3564    3.2059 H   0  0  0  0  0  0  0  0  0  0  0  0
    0.8287   -0.4851    0.7064 C   0  0  0  0  0  0  0  0  0  0  0  0
    1.5209   -0.6854   -0.2843 O   0  0  0  0  0  0  0  0  0  0  0  0
    1.2510   -0.9704    1.9304 N   0  0  0  0  0  0  0  0  0  0  0  0
    0.4899   -1.0825    2.6008 H   0  0  0  0  0  0  0  0  0  0  0  0
    2.3853   -1.8762    2.0537 C   0  0  0  0  0  0  0  0  0  0  0  0
    3.2939   -1.4103    1.6580 H   0  0  0  0  0  0  0  0  0  0  0  0
    2.5564   -2.1228    3.1058 H   0  0  0  0  0  0  0  0  0  0  0  0
    2.1959   -2.8040    1.5039 H   0  0  0  0  0  0  0  0  0  0  0  0
  1  2  1  0  0  0  0
  2  3  1  0  0  0  0
  2  4  1  0  0  0  0
  2  5  1  0  0  0  0
  5  6  2  0  0  0  0
  5  7  1  0  0  0  0
  7  8  1  0  0  0  0
  7  9  1  0  0  0  0
  9 10  1  0  0  0  0
  9 11  1  0  0  0  0
  9 24  1  0  0  0  0
 11 12  1  0  0  0  0
 11 13  1  0  0  0  0
 11 17  1  0  0  0  0
 13 14  1  0  0  0  0
 13 15  1  0  0  0  0
 13 16  1  0  0  0  0
 17 18  1  0  0  0  0
 17 19  1  0  0  0  0
 17 20  1  0  0  0  0
 20 21  1  0  0  0  0
 20 22  1  0  0  0  0
 20 23  1  0  0  0  0
 24 25  2  0  0  0  0
 24 26  1  0  0  0  0
 26 27  1  0  0  0  0
 26 28  1  0  0  0  0
 28 29  1  0  0  0  0
 28 30  1  0  0  0  0
 28 31  1  0  0  0  0
M  END
$$$$

  -OEChem-01062216083D

 31 30  0     1  0  0  0  0  0999 V2000
   -3.6781   -2.9262    1.3223 H   0  0  0  0  0  0  0  0  0  0  0  0
   -3.5411   -1.9200    0.9157 C   0  0  0  0  0  0  0  0  0  0  0  0
   -4.2665   -1.2497    1.3834 H   0  0  0  0  0  0  0  0  0  0  0  0
   -3.7239   -1.9508   -0.1612 H   0  0  0  0  0  0  0  0  0  0  0  0
   -2.1311   -1.4311    1.1903 C   0  0  0  0  0  0  0  0  0  0  0  0
   -1.4238   -2.0790    1.9399 O   0  0  0  0  0  0  0  0  0  0  0  0
   -1.7476   -0.2055    0.6773 N   0  0  0  0  0  0  0  0  0  0  0  0
   -2.4737    0.2457    0.1295 H   0  0  0  0  0  0  0  0  0  0  0  0
   -0.3994    0.4087    0.5499 C   0  0  1  0  0  0  0  0  0  0  0  0
   -0.3256    0.8078   -0.4674 H   0  0  0  0  0  0  0  0  0  0  0  0
   -0.3524    1.6129    1.5411 C   0  0  1  0  0  0  0  0  0  0  0  0
   -0.5868    1.2403    2.5445 H   0  0  0  0  0  0  0  0  0  0  0  0
    1.0474    2.2680    1.5847 C   0  0  0  0  0  0  0  0  0  0  0  0
    1.3483    2.5963    0.5846 H   0  0  0  0  0  0  0  0  0  0  0  0
    1.0602    3.1323    2.2524 H   0  0  0  0  0  0  0  0  0  0  0  0
    1.8010    1.5711    1.9626 H   0  0  0  0  0  0  0  0  0  0  0  0
   -1.4029    2.6837    1.1404 C   0  0  0  0  0  0  0  0  0  0  0  0
   -1.1088    3.1552    0.1968 H   0  0  0  0  0  0  0  0  0  0  0  0
   -2.3759    2.2117    0.9804 H   0  0  0  0  0  0  0  0  0  0  0  0
   -1.6052    3.7653    2.2070 C   0  0  0  0  0  0  0  0  0  0  0  0
   -0.7263    4.4095    2.2933 H   0  0  0  0  0  0  0  0  0  0  0  0
   -2.4579    4.3961    1.9377 H   0  0  0  0  0  0  0  0  0  0  0  0
   -1.8069    3.3096    3.1815 H   0  0  0  0  0  0  0  0  0  0  0  0
    0.8606   -0.4913    0.7059 C   0  0  0  0  0  0  0  0  0  0  0  0
    1.6874   -0.4808   -0.1985 O   0  0  0  0  0  0  0  0  0  0  0  0
    1.1476   -1.2054    1.8530 N   0  0  0  0  0  0  0  0  0  0  0  0
    0.3231   -1.4388    2.4105 H   0  0  0  0  0  0  0  0  0  0  0  0
    2.3044   -2.0842    1.9618 C   0  0  0  0  0  0  0  0  0  0  0  0
    3.2297   -1.5227    1.7957 H   0  0  0  0  0  0  0  0  0  0  0  0
    2.3463   -2.5279    2.9609 H   0  0  0  0  0  0  0  0  0  0  0  0
    2.2436   -2.8911    1.2244 H   0  0  0  0  0  0  0  0  0  0  0  0
  1  2  1  0  0  0  0
  2  3  1  0  0  0  0
  2  4  1  0  0  0  0
  2  5  1  0  0  0  0
  5  6  2  0  0  0  0
  5  7  1  0  0  0  0
  7  8  1  0  0  0  0
  7  9  1  0  0  0  0
  9 10  1  0  0  0  0
  9 11  1  0  0  0  0
  9 24  1  0  0  0  0
 11 12  1  0  0  0  0
 11 13  1  0  0  0  0
 11 17  1  0  0  0  0
 13 14  1  0  0  0  0
 13 15  1  0  0  0  0
 13 16  1  0  0  0  0
 17 18  1  0  0  0  0
 17 19  1  0  0  0  0
 17 20  1  0  0  0  0
 20 21  1  0  0  0  0
 20 22  1  0  0  0  0
 20 23  1  0  0  0  0
 24 25  2  0  0  0  0
 24 26  1  0  0  0  0
 26 27  1  0  0  0  0
 26 28  1  0  0  0  0
 28 29  1  0  0  0  0
 28 30  1  0  0  0  0
 28 31  1  0  0  0  0
M  END
$$$$

  -OEChem-01062216083D

 31 30  0     1  0  0  0  0  0999 V2000
   -3.8272   -2.8284    1.3424 H   0  0  0  0  0  0  0  0  0  0  0  0
   -3.6365   -1.8337    0.9291 C   0  0  0  0  0  0  0  0  0  0  0  0
   -4.3160   -1.1204    1.4021 H   0  0  0  0  0  0  0  0  0  0  0  0
   -3.8334   -1.8585   -0.1454 H   0  0  0  0  0  0  0  0  0  0  0  0
   -2.1972   -1.4266    1.1849 C   0  0  0  0  0  0  0  0  0  0  0  0
   -1.5199   -2.1271    1.9130 O   0  0  0  0  0  0  0  0  0  0  0  0
   -1.7586   -0.2196    0.6706 N   0  0  0  0  0  0  0  0  0  0  0  0
   -2.4779    0.2702    0.1474 H   0  0  0  0  0  0  0  0  0  0  0  0
   -0.3983    0.3738    0.5434 C   0  0  1  0  0  0  0  0  0  0  0  0
   -0.3219    0.7709   -0.4743 H   0  0  0  0  0  0  0  0  0  0  0  0
   -0.3632    1.5803    1.5368 C   0  0  1  0  0  0  0  0  0  0  0  0
   -0.6185    1.2045    2.5340 H   0  0  0  0  0  0  0  0  0  0  0  0
    1.0350    2.2350    1.6203 C   0  0  0  0  0  0  0  0  0  0  0  0
    1.3638    2.5649    0.6297 H   0  0  0  0  0  0  0  0  0  0  0  0
    1.0304    3.0981    2.2896 H   0  0  0  0  0  0  0  0  0  0  0  0
    1.7763    1.5366    2.0195 H   0  0  0  0  0  0  0  0  0  0  0  0
   -1.4047    2.6562    1.1226 C   0  0  0  0  0  0  0  0  0  0  0  0
   -1.0932    3.1275    0.1845 H   0  0  0  0  0  0  0  0  0  0  0  0
   -2.3775    2.1903    0.9462 H   0  0  0  0  0  0  0  0  0  0  0  0
   -1.6198    3.7384    2.1865 C   0  0  0  0  0  0  0  0  0  0  0  0
   -0.7434    4.3851    2.2800 H   0  0  0  0  0  0  0  0  0  0  0  0
   -2.4714    4.3666    1.9085 H   0  0  0  0  0  0  0  0  0  0  0  0
   -1.8296    3.2833    3.1594 H   0  0  0  0  0  0  0  0  0  0  0  0
    0.8800   -0.5038    0.7047 C   0  0  0  0  0  0  0  0  0  0  0  0
    1.7868   -0.3335   -0.1022 O   0  0  0  0  0  0  0  0  0  0  0  0
    1.0773   -1.4361    1.7029 N   0  0  0  0  0  0  0  0  0  0  0  0
    0.2326   -1.7213    2.2030 H   0  0  0  0  0  0  0  0  0  0  0  0
    2.2397   -2.3121    1.7647 C   0  0  0  0  0  0  0  0  0  0  0  0
    3.1615   -1.7237    1.8185 H   0  0  0  0  0  0  0  0  0  0  0  0
    2.1844   -2.9467    2.6543 H   0  0  0  0  0  0  0  0  0  0  0  0
    2.2819   -2.9556    0.8800 H   0  0  0  0  0  0  0  0  0  0  0  0
  1  2  1  0  0  0  0
  2  3  1  0  0  0  0
  2  4  1  0  0  0  0
  2  5  1  0  0  0  0
  5  6  2  0  0  0  0
  5  7  1  0  0  0  0
  7  8  1  0  0  0  0
  7  9  1  0  0  0  0
  9 10  1  0  0  0  0
  9 11  1  0  0  0  0
  9 24  1  0  0  0  0
 11 12  1  0  0  0  0
 11 13  1  0  0  0  0
 11 17  1  0  0  0  0
 13 14  1  0  0  0  0
 13 15  1  0  0  0  0
 13 16  1  0  0  0  0
 17 18  1  0  0  0  0
 17 19  1  0  0  0  0
 17 20  1  0  0  0  0
 20 21  1  0  0  0  0
 20 22  1  0  0  0  0
 20 23  1  0  0  0  0
 24 25  2  0  0  0  0
 24 26  1  0  0  0  0
 26 27  1  0  0  0  0
 26 28  1  0  0  0  0
 28 29  1  0  0  0  0
 28 30  1  0  0  0  0
 28 31  1  0  0  0  0
M  END
$$$$

  -OEChem-01062216083D

 31 30  0     1  0  0  0  0  0999 V2000
   -3.8923   -2.7970    1.4628 H   0  0  0  0  0  0  0  0  0  0  0  0
   -3.6912   -1.8107    1.0349 C   0  0  0  0  0  0  0  0  0  0  0  0
   -4.3568   -1.0820    1.5040 H   0  0  0  0  0  0  0  0  0  0  0  0
   -3.8981   -1.8471   -0.0374 H   0  0  0  0  0  0  0  0  0  0  0  0
   -2.2442   -1.4195    1.2730 C   0  0  0  0  0  0  0  0  0  0  0  0
   -1.5769   -2.1082    2.0212 O   0  0  0  0  0  0  0  0  0  0  0  0
   -1.7937   -0.2308    0.7274 N   0  0  0  0  0  0  0  0  0  0  0  0
   -2.5191    0.2577    0.2116 H   0  0  0  0  0  0  0  0  0  0  0  0
   -0.4302    0.3426    0.5409 C   0  0  1  0  0  0  0  0  0  0  0  0
   -0.3893    0.7236   -0.4849 H   0  0  0  0  0  0  0  0  0  0  0  0
   -0.3677    1.5676    1.5152 C   0  0  1  0  0  0  0  0  0  0  0  0
   -0.6024    1.2070    2.5233 H   0  0  0  0  0  0  0  0  0  0  0  0
    1.0297    2.2262    1.5679 C   0  0  0  0  0  0  0  0  0  0  0  0
    1.3426    2.5445    0.5683 H   0  0  0  0  0  0  0  0  0  0  0  0
    1.0350    3.0976    2.2262 H   0  0  0  0  0  0  0  0  0  0  0  0
    1.7776    1.5336    1.9649 H   0  0  0  0  0  0  0  0  0  0  0  0
   -1.4182    2.6397    1.1092 C   0  0  0  0  0  0  0  0  0  0  0  0
   -1.1295    3.0936    0.1554 H   0  0  0  0  0  0  0  0  0  0  0  0
   -2.3965    2.1745    0.9658 H   0  0  0  0  0  0  0  0  0  0  0  0
   -1.6070    3.7415    2.1580 C   0  0  0  0  0  0  0  0  0  0  0  0
   -0.7298    4.3914    2.2164 H   0  0  0  0  0  0  0  0  0  0  0  0
   -2.4666    4.3634    1.8903 H   0  0  0  0  0  0  0  0  0  0  0  0
   -1.7907    3.3046    3.1445 H   0  0  0  0  0  0  0  0  0  0  0  0
    0.8601   -0.5293    0.6627 C   0  0  0  0  0  0  0  0  0  0  0  0
    1.7949   -0.2473   -0.0788 O   0  0  0  0  0  0  0  0  0  0  0  0
    1.0181   -1.6421    1.4623 N   0  0  0  0  0  0  0  0  0  0  0  0
    0.1935   -1.9479    1.9822 H   0  0  0  0  0  0  0  0  0  0  0  0
    2.1977   -2.4972    1.4546 C   0  0  0  0  0  0  0  0  0  0  0  0
    3.0911   -1.9196    1.7129 H   0  0  0  0  0  0  0  0  0  0  0  0
    2.0832   -3.3016    2.1873 H   0  0  0  0  0  0  0  0  0  0  0  0
    2.3400   -2.9461    0.4661 H   0  0  0  0  0  0  0  0  0  0  0  0
  1  2  1  0  0  0  0
  2  3  1  0  0  0  0
  2  4  1  0  0  0  0
  2  5  1  0  0  0  0
  5  6  2  0  0  0  0
  5  7  1  0  0  0  0
  7  8  1  0  0  0  0
  7  9  1  0  0  0  0
  9 10  1  0  0  0  0
  9 11  1  0  0  0  0
  9 24  1  0  0  0  0
 11 12  1  0  0  0  0
 11 13  1  0  0  0  0
 11 17  1  0  0  0  0
 13 14  1  0  0  0  0
 13 15  1  0  0  0  0
 13 16  1  0  0  0  0
 17 18  1  0  0  0  0
 17 19  1  0  0  0  0
 17 20  1  0  0  0  0
 20 21  1  0  0  0  0
 20 22  1  0  0  0  0
 20 23  1  0  0  0  0
 24 25  2  0  0  0  0
 24 26  1  0  0  0  0
 26 27  1  0  0  0  0
 26 28  1  0  0  0  0
 28 29  1  0  0  0  0
 28 30  1  0  0  0  0
 28 31  1  0  0  0  0
M  END
$$$$

  -OEChem-01062216083D

 31 30  0     1  0  0  0  0  0999 V2000
   -3.1884   -3.1693    1.5335 H   0  0  0  0  0  0  0  0  0  0  0  0
   -3.1048   -2.2155    1.0047 C   0  0  0  0  0  0  0  0  0  0  0  0
   -3.9766   -1.6022    1.2456 H   0  0  0  0  0  0  0  0  0  0  0  0
   -3.0892   -2.4112   -0.0700 H   0  0  0  0  0  0  0  0  0  0  0  0
   -1.8349   -1.4972    1.4205 C   0  0  0  0  0  0  0  0  0  0  0  0
   -1.2236   -1.9044    2.3896 O   0  0  0  0  0  0  0  0  0  0  0  0
   -1.5384   -0.2827    0.8352 N   0  0  0  0  0  0  0  0  0  0  0  0
   -2.2544    0.0182    0.1821 H   0  0  0  0  0  0  0  0  0  0  0  0
   -0.2371    0.4209    0.6713 C   0  0  1  0  0  0  0  0  0  0  0  0
   -0.1952    0.7764   -0.3629 H   0  0  0  0  0  0  0  0  0  0  0  0
   -0.3819    1.6735    1.6098 C   0  0  1  0  0  0  0  0  0  0  0  0
   -0.6342    1.3069    2.6115 H   0  0  0  0  0  0  0  0  0  0  0  0
    0.9087    2.5112    1.7448 C   0  0  0  0  0  0  0  0  0  0  0  0
    1.2605    2.8380    0.7611 H   0  0  0  0  0  0  0  0  0  0  0  0
    0.7501    3.3942    2.3671 H   0  0  0  0  0  0  0  0  0  0  0  0
    1.6998    1.9326    2.2302 H   0  0  0  0  0  0  0  0  0  0  0  0
   -1.5349    2.5963    1.1156 C   0  0  0  0  0  0  0  0  0  0  0  0
   -1.2509    3.0574    0.1639 H   0  0  0  0  0  0  0  0  0  0  0  0
   -2.4403    2.0114    0.9360 H   0  0  0  0  0  0  0  0  0  0  0  0
   -1.9200    3.6943    2.1137 C   0  0  0  0  0  0  0  0  0  0  0  0
   -1.1410    4.4575    2.1886 H   0  0  0  0  0  0  0  0  0  0  0  0
   -2.8393    4.1876    1.7838 H   0  0  0  0  0  0  0  0  0  0  0  0
   -2.0944    3.2665    3.1058 H   0  0  0  0  0  0  0  0  0  0  0  0
    1.1425   -0.3031    0.8588 C   0  0  0  0  0  0  0  0  0  0  0  0
    2.1522    0.2108    0.3991 O   0  0  0  0  0  0  0  0  0  0  0  0
    1.4559   -1.5115    1.4322 N   0  0  0  0  0  0  0  0  0  0  0  0
    2.4355   -1.5030    1.7009 H   0  0  0  0  0  0  0  0  0  0  0  0
    1.0833   -2.7359    0.7328 C   0  0  0  0  0  0  0  0  0  0  0  0
    1.9518   -3.1417    0.2048 H   0  0  0  0  0  0  0  0  0  0  0  0
    0.7295   -3.4861    1.4472 H   0  0  0  0  0  0  0  0  0  0  0  0
    0.2942   -2.5566   -0.0040 H   0  0  0  0  0  0  0  0  0  0  0  0
  1  2  1  0  0  0  0
  2  3  1  0  0  0  0
  2  4  1  0  0  0  0
  2  5  1  0  0  0  0
  5  6  2  0  0  0  0
  5  7  1  0  0  0  0
  7  8  1  0  0  0  0
  7  9  1  0  0  0  0
  9 10  1  0  0  0  0
  9 11  1  0  0  0  0
  9 24  1  0  0  0  0
 11 12  1  0  0  0  0
 11 13  1  0  0  0  0
 11 17  1  0  0  0  0
 13 14  1  0  0  0  0
 13 15  1  0  0  0  0
 13 16  1  0  0  0  0
 17 18  1  0  0  0  0
 17 19  1  0  0  0  0
 17 20  1  0  0  0  0
 20 21  1  0  0  0  0
 20 22  1  0  0  0  0
 20 23  1  0  0  0  0
 24 25  2  0  0  0  0
 24 26  1  0  0  0  0
 26 27  1  0  0  0  0
 26 28  1  0  0  0  0
 28 29  1  0  0  0  0
 28 30  1  0  0  0  0
 28 31  1  0  0  0  0
M  END
$$$$

  -OEChem-01062216083D

 31 30  0     1  0  0  0  0  0999 V2000
   -3.3674   -3.1932    1.3949 H   0  0  0  0  0  0  0  0  0  0  0  0
   -3.3861   -2.1731    1.0009 C   0  0  0  0  0  0  0  0  0  0  0  0
   -4.2017   -1.6247    1.4785 H   0  0  0  0  0  0  0  0  0  0  0  0
   -3.5649   -2.2177   -0.0761 H   0  0  0  0  0  0  0  0  0  0  0  0
   -2.0645   -1.4826    1.2795 C   0  0  0  0  0  0  0  0  0  0  0  0
   -1.3167   -1.9600    2.1115 O   0  0  0  0  0  0  0  0  0  0  0  0
   -1.8672   -0.2024    0.8051 N   0  0  0  0  0  0  0  0  0  0  0  0
   -2.6939    0.1572    0.3390 H   0  0  0  0  0  0  0  0  0  0  0  0
   -0.6091    0.4415    0.3436 C   0  0  1  0  0  0  0  0  0  0  0  0
   -0.8409    0.9602   -0.5922 H   0  0  0  0  0  0  0  0  0  0  0  0
   -0.2900    1.5219    1.4316 C   0  0  1  0  0  0  0  0  0  0  0  0
   -0.2476    1.0157    2.4028 H   0  0  0  0  0  0  0  0  0  0  0  0
    1.0700    2.2208    1.2088 C   0  0  0  0  0  0  0  0  0  0  0  0
    1.1047    2.6857    0.2183 H   0  0  0  0  0  0  0  0  0  0  0  0
    1.2498    2.9925    1.9604 H   0  0  0  0  0  0  0  0  0  0  0  0
    1.8966    1.5094    1.2920 H   0  0  0  0  0  0  0  0  0  0  0  0
   -1.4132    2.5961    1.4786 C   0  0  0  0  0  0  0  0  0  0  0  0
   -1.3924    3.1898    0.5587 H   0  0  0  0  0  0  0  0  0  0  0  0
   -2.3933    2.1154    1.5338 H   0  0  0  0  0  0  0  0  0  0  0  0
   -1.3138    3.5328    2.6876 C   0  0  0  0  0  0  0  0  0  0  0  0
   -0.4540    4.2024    2.6042 H   0  0  0  0  0  0  0  0  0  0  0  0
   -2.2143    4.1511    2.7520 H   0  0  0  0  0  0  0  0  0  0  0  0
   -1.2249    2.9549    3.6126 H   0  0  0  0  0  0  0  0  0  0  0  0
    0.6621   -0.4057    0.0069 C   0  0  0  0  0  0  0  0  0  0  0  0
    1.3875    0.0256   -0.8780 O   0  0  0  0  0  0  0  0  0  0  0  0
    0.8277   -1.7666    0.0744 N   0  0  0  0  0  0  0  0  0  0  0  0
    1.3284   -2.0686   -0.7568 H   0  0  0  0  0  0  0  0  0  0  0  0
    1.4220   -2.3008    1.2952 C   0  0  0  0  0  0  0  0  0  0  0  0
    1.2437   -1.6416    2.1521 H   0  0  0  0  0  0  0  0  0  0  0  0
    0.9974   -3.2839    1.5222 H   0  0  0  0  0  0  0  0  0  0  0  0
    2.5040   -2.4081    1.1698 H   0  0  0  0  0  0  0  0  0  0  0  0
  1  2  1  0  0  0  0
  2  3  1  0  0  0  0
  2  4  1  0  0  0  0
  2  5  1  0  0  0  0
  5  6  2  0  0  0  0
  5  7  1  0  0  0  0
  7  8  1  0  0  0  0
  7  9  1  0  0  0  0
  9 10  1  0  0  0  0
  9 11  1  0  0  0  0
  9 24  1  0  0  0  0
 11 12  1  0  0  0  0
 11 13  1  0  0  0  0
 11 17  1  0  0  0  0
 13 14  1  0  0  0  0
 13 15  1  0  0  0  0
 13 16  1  0  0  0  0
 17 18  1  0  0  0  0
 17 19  1  0  0  0  0
 17 20  1  0  0  0  0
 20 21  1  0  0  0  0
 20 22  1  0  0  0  0
 20 23  1  0  0  0  0
 24 25  2  0  0  0  0
 24 26  1  0  0  0  0
 26 27  1  0  0  0  0
 26 28  1  0  0  0  0
 28 29  1  0  0  0  0
 28 30  1  0  0  0  0
 28 31  1  0  0  0  0
M  END
$$$$

  -OEChem-01062216083D

 31 30  0     1  0  0  0  0  0999 V2000
   -3.8575   -2.7504    1.4210 H   0  0  0  0  0  0  0  0  0  0  0  0
   -3.6553   -1.7600    1.0027 C   0  0  0  0  0  0  0  0  0  0  0  0
   -4.2912   -1.0290    1.5085 H   0  0  0  0  0  0  0  0  0  0  0  0
   -3.9009   -1.7735   -0.0620 H   0  0  0  0  0  0  0  0  0  0  0  0
   -2.1945   -1.3971    1.1951 C   0  0  0  0  0  0  0  0  0  0  0  0
   -1.4970   -2.1281    1.8740 O   0  0  0  0  0  0  0  0  0  0  0  0
   -1.7436   -0.1922    0.6884 N   0  0  0  0  0  0  0  0  0  0  0  0
   -2.4765    0.3420    0.2320 H   0  0  0  0  0  0  0  0  0  0  0  0
   -0.3723    0.3638    0.4990 C   0  0  1  0  0  0  0  0  0  0  0  0
   -0.3257    0.7770   -0.5133 H   0  0  0  0  0  0  0  0  0  0  0  0
   -0.3384    1.5644    1.5193 C   0  0  1  0  0  0  0  0  0  0  0  0
   -0.5963    1.1648    2.5066 H   0  0  0  0  0  0  0  0  0  0  0  0
    1.0368    2.2528    1.6586 C   0  0  0  0  0  0  0  0  0  0  0  0
    1.4089    2.5721    0.6800 H   0  0  0  0  0  0  0  0  0  0  0  0
    0.9883    3.1261    2.3115 H   0  0  0  0  0  0  0  0  0  0  0  0
    1.7643    1.5743    2.1128 H   0  0  0  0  0  0  0  0  0  0  0  0
   -1.3991    2.6383    1.1298 C   0  0  0  0  0  0  0  0  0  0  0  0
   -1.0978    3.1239    0.1959 H   0  0  0  0  0  0  0  0  0  0  0  0
   -2.3707    2.1712    0.9533 H   0  0  0  0  0  0  0  0  0  0  0  0
   -1.6256    3.7091    2.2039 C   0  0  0  0  0  0  0  0  0  0  0  0
   -0.7720    4.3878    2.2799 H   0  0  0  0  0  0  0  0  0  0  0  0
   -2.5049    4.3082    1.9482 H   0  0  0  0  0  0  0  0  0  0  0  0
   -1.7971    3.2435    3.1793 H   0  0  0  0  0  0  0  0  0  0  0  0
    0.8898   -0.5662    0.5633 C   0  0  0  0  0  0  0  0  0  0  0  0
    1.9855   -0.0903    0.2902 O   0  0  0  0  0  0  0  0  0  0  0  0
    0.8316   -1.9461    0.4960 N   0  0  0  0  0  0  0  0  0  0  0  0
   -0.0225   -2.3545    0.8761 H   0  0  0  0  0  0  0  0  0  0  0  0
    2.0120   -2.8010    0.4299 C   0  0  0  0  0  0  0  0  0  0  0  0
    2.6598   -2.6284    1.2957 H   0  0  0  0  0  0  0  0  0  0  0  0
    1.7130   -3.8535    0.4241 H   0  0  0  0  0  0  0  0  0  0  0  0
    2.5820   -2.6010   -0.4837 H   0  0  0  0  0  0  0  0  0  0  0  0
  1  2  1  0  0  0  0
  2  3  1  0  0  0  0
  2  4  1  0  0  0  0
  2  5  1  0  0  0  0
  5  6  2  0  0  0  0
  5  7  1  0  0  0  0
  7  8  1  0  0  0  0
  7  9  1  0  0  0  0
  9 10  1  0  0  0  0
  9 11  1  0  0  0  0
  9 24  1  0  0  0  0
 11 12  1  0  0  0  0
 11 13  1  0  0  0  0
 11 17  1  0  0  0  0
 13 14  1  0  0  0  0
 13 15  1  0  0  0  0
 13 16  1  0  0  0  0
 17 18  1  0  0  0  0
 17 19  1  0  0  0  0
 17 20  1  0  0  0  0
 20 21  1  0  0  0  0
 20 22  1  0  0  0  0
 20 23  1  0  0  0  0
 24 25  2  0  0  0  0
 24 26  1  0  0  0  0
 26 27  1  0  0  0  0
 26 28  1  0  0  0  0
 28 29  1  0  0  0  0
 28 30  1  0  0  0  0
 28 31  1  0  0  0  0
M  END
$$$$

  -OEChem-01062216083D

 31 30  0     1  0  0  0  0  0999 V2000
   -3.7845   -2.7597    1.4727 H   0  0  0  0  0  0  0  0  0  0  0  0
   -3.5957   -1.7610    1.0681 C   0  0  0  0  0  0  0  0  0  0  0  0
   -4.1757   -1.0348    1.6428 H   0  0  0  0  0  0  0  0  0  0  0  0
   -3.9236   -1.7379    0.0260 H   0  0  0  0  0  0  0  0  0  0  0  0
   -2.1174   -1.4302    1.1559 C   0  0  0  0  0  0  0  0  0  0  0  0
   -1.3724   -2.2301    1.6905 O   0  0  0  0  0  0  0  0  0  0  0  0
   -1.6885   -0.2038    0.6808 N   0  0  0  0  0  0  0  0  0  0  0  0
   -2.4431    0.3694    0.3163 H   0  0  0  0  0  0  0  0  0  0  0  0
   -0.3259    0.3775    0.5062 C   0  0  1  0  0  0  0  0  0  0  0  0
   -0.2754    0.7968   -0.5031 H   0  0  0  0  0  0  0  0  0  0  0  0
   -0.3201    1.5811    1.5270 C   0  0  1  0  0  0  0  0  0  0  0  0
   -0.5755    1.1816    2.5150 H   0  0  0  0  0  0  0  0  0  0  0  0
    1.0369    2.3056    1.6659 C   0  0  0  0  0  0  0  0  0  0  0  0
    1.4383    2.5640    0.6809 H   0  0  0  0  0  0  0  0  0  0  0  0
    0.9550    3.2205    2.2540 H   0  0  0  0  0  0  0  0  0  0  0  0
    1.7574    1.6751    2.1933 H   0  0  0  0  0  0  0  0  0  0  0  0
   -1.3983    2.6337    1.1217 C   0  0  0  0  0  0  0  0  0  0  0  0
   -1.0976    3.1203    0.1880 H   0  0  0  0  0  0  0  0  0  0  0  0
   -2.3587    2.1471    0.9380 H   0  0  0  0  0  0  0  0  0  0  0  0
   -1.6604    3.7068    2.1863 C   0  0  0  0  0  0  0  0  0  0  0  0
   -0.8304    4.4146    2.2567 H   0  0  0  0  0  0  0  0  0  0  0  0
   -2.5582    4.2748    1.9246 H   0  0  0  0  0  0  0  0  0  0  0  0
   -1.8176    3.2452    3.1661 H   0  0  0  0  0  0  0  0  0  0  0  0
    0.9231   -0.5735    0.5539 C   0  0  0  0  0  0  0  0  0  0  0  0
    2.0585   -0.1163    0.5753 O   0  0  0  0  0  0  0  0  0  0  0  0
    0.8412   -1.8942    0.1486 N   0  0  0  0  0  0  0  0  0  0  0  0
   -0.0505   -2.3337    0.3764 H   0  0  0  0  0  0  0  0  0  0  0  0
    2.0029   -2.7727    0.0618 C   0  0  0  0  0  0  0  0  0  0  0  0
    2.5001   -2.8476    1.0347 H   0  0  0  0  0  0  0  0  0  0  0  0
    1.6935   -3.7752   -0.2485 H   0  0  0  0  0  0  0  0  0  0  0  0
    2.7197   -2.3917   -0.6734 H   0  0  0  0  0  0  0  0  0  0  0  0
  1  2  1  0  0  0  0
  2  3  1  0  0  0  0
  2  4  1  0  0  0  0
  2  5  1  0  0  0  0
  5  6  2  0  0  0  0
  5  7  1  0  0  0  0
  7  8  1  0  0  0  0
  7  9  1  0  0  0  0
  9 10  1  0  0  0  0
  9 11  1  0  0  0  0
  9 24  1  0  0  0  0
 11 12  1  0  0  0  0
 11 13  1  0  0  0  0
 11 17  1  0  0  0  0
 13 14  1  0  0  0  0
 13 15  1  0  0  0  0
 13 16  1  0  0  0  0
 17 18  1  0  0  0  0
 17 19  1  0  0  0  0
 17 20  1  0  0  0  0
 20 21  1  0  0  0  0
 20 22  1  0  0  0  0
 20 23  1  0  0  0  0
 24 25  2  0  0  0  0
 24 26  1  0  0  0  0
 26 27  1  0  0  0  0
 26 28  1  0  0  0  0
 28 29  1  0  0  0  0
 28 30  1  0  0  0  0
 28 31  1  0  0  0  0
M  END
$$$$

  -OEChem-01062216083D

 31 30  0     1  0  0  0  0  0999 V2000
   -3.6819   -2.7970    1.5117 H   0  0  0  0  0  0  0  0  0  0  0  0
   -3.5193   -1.7887    1.1196 C   0  0  0  0  0  0  0  0  0  0  0  0
   -4.0300   -1.0744    1.7701 H   0  0  0  0  0  0  0  0  0  0  0  0
   -3.9469   -1.7294    0.1158 H   0  0  0  0  0  0  0  0  0  0  0  0
   -2.0346   -1.4777    1.0714 C   0  0  0  0  0  0  0  0  0  0  0  0
   -1.2487   -2.3439    1.4037 O   0  0  0  0  0  0  0  0  0  0  0  0
   -1.6410   -0.2186    0.6520 N   0  0  0  0  0  0  0  0  0  0  0  0
   -2.4192    0.3954    0.4338 H   0  0  0  0  0  0  0  0  0  0  0  0
   -0.2919    0.4014    0.5178 C   0  0  1  0  0  0  0  0  0  0  0  0
   -0.2330    0.8368   -0.4843 H   0  0  0  0  0  0  0  0  0  0  0  0
   -0.3074    1.5996    1.5415 C   0  0  1  0  0  0  0  0  0  0  0  0
   -0.5527    1.2036    2.5333 H   0  0  0  0  0  0  0  0  0  0  0  0
    1.0408    2.3512    1.6489 C   0  0  0  0  0  0  0  0  0  0  0  0
    1.4736    2.5088    0.6561 H   0  0  0  0  0  0  0  0  0  0  0  0
    0.9383    3.3231    2.1324 H   0  0  0  0  0  0  0  0  0  0  0  0
    1.7487    1.7884    2.2627 H   0  0  0  0  0  0  0  0  0  0  0  0
   -1.3965    2.6351    1.1221 C   0  0  0  0  0  0  0  0  0  0  0  0
   -1.0951    3.1248    0.1900 H   0  0  0  0  0  0  0  0  0  0  0  0
   -2.3467    2.1322    0.9305 H   0  0  0  0  0  0  0  0  0  0  0  0
   -1.6881    3.7057    2.1821 C   0  0  0  0  0  0  0  0  0  0  0  0
   -0.8754    4.4321    2.2593 H   0  0  0  0  0  0  0  0  0  0  0  0
   -2.5959    4.2539    1.9125 H   0  0  0  0  0  0  0  0  0  0  0  0
   -1.8437    3.2423    3.1613 H   0  0  0  0  0  0  0  0  0  0  0  0
    0.9451   -0.5639    0.5476 C   0  0  0  0  0  0  0  0  0  0  0  0
    2.0359   -0.2414    0.9977 O   0  0  0  0  0  0  0  0  0  0  0  0
    0.9155   -1.7341   -0.1916 N   0  0  0  0  0  0  0  0  0  0  0  0
   -0.0142   -2.1466   -0.2413 H   0  0  0  0  0  0  0  0  0  0  0  0
    2.0402   -2.6625   -0.2298 C   0  0  0  0  0  0  0  0  0  0  0  0
    2.2617   -3.0357    0.7756 H   0  0  0  0  0  0  0  0  0  0  0  0
    1.8026   -3.5148   -0.8733 H   0  0  0  0  0  0  0  0  0  0  0  0
    2.9336   -2.1706   -0.6285 H   0  0  0  0  0  0  0  0  0  0  0  0
  1  2  1  0  0  0  0
  2  3  1  0  0  0  0
  2  4  1  0  0  0  0
  2  5  1  0  0  0  0
  5  6  2  0  0  0  0
  5  7  1  0  0  0  0
  7  8  1  0  0  0  0
  7  9  1  0  0  0  0
  9 10  1  0  0  0  0
  9 11  1  0  0  0  0
  9 24  1  0  0  0  0
 11 12  1  0  0  0  0
 11 13  1  0  0  0  0
 11 17  1  0  0  0  0
 13 14  1  0  0  0  0
 13 15  1  0  0  0  0
 13 16  1  0  0  0  0
 17 18  1  0  0  0  0
 17 19  1  0  0  0  0
 17 20  1  0  0  0  0
 20 21  1  0  0  0  0
 20 22  1  0  0  0  0
 20 23  1  0  0  0  0
 24 25  2  0  0  0  0
 24 26  1  0  0  0  0
 26 27  1  0  0  0  0
 26 28  1  0  0  0  0
 28 29  1  0  0  0  0
 28 30  1  0  0  0  0
 28 31  1  0  0  0  0
M  END
$$$$

  -OEChem-01062216083D

 31 30  0     1  0  0  0  0  0999 V2000
   -3.5372   -2.8716    1.5035 H   0  0  0  0  0  0  0  0  0  0  0  0
   -3.4215   -1.8457    1.1420 C   0  0  0  0  0  0  0  0  0  0  0  0
   -3.8834   -1.1673    1.8635 H   0  0  0  0  0  0  0  0  0  0  0  0
   -3.9341   -1.7517    0.1817 H   0  0  0  0  0  0  0  0  0  0  0  0
   -1.9506   -1.5094    0.9805 C   0  0  0  0  0  0  0  0  0  0  0  0
   -1.1319   -2.3890    1.1654 O   0  0  0  0  0  0  0  0  0  0  0  0
   -1.6134   -0.2233    0.5914 N   0  0  0  0  0  0  0  0  0  0  0  0
   -2.4133    0.3935    0.4945 H   0  0  0  0  0  0  0  0  0  0  0  0
   -0.2848    0.4409    0.4980 C   0  0  1  0  0  0  0  0  0  0  0  0
   -0.2179    0.8950   -0.4952 H   0  0  0  0  0  0  0  0  0  0  0  0
   -0.3043    1.6202    1.5344 C   0  0  1  0  0  0  0  0  0  0  0  0
   -0.5252    1.2151    2.5280 H   0  0  0  0  0  0  0  0  0  0  0  0
    1.0440    2.3815    1.5954 C   0  0  0  0  0  0  0  0  0  0  0  0
    1.4343    2.5536    0.5875 H   0  0  0  0  0  0  0  0  0  0  0  0
    0.9480    3.3478    2.0918 H   0  0  0  0  0  0  0  0  0  0  0  0
    1.7868    1.8263    2.1718 H   0  0  0  0  0  0  0  0  0  0  0  0
   -1.4029    2.6500    1.1327 C   0  0  0  0  0  0  0  0  0  0  0  0
   -1.1123    3.1549    0.2054 H   0  0  0  0  0  0  0  0  0  0  0  0
   -2.3479    2.1374    0.9393 H   0  0  0  0  0  0  0  0  0  0  0  0
   -1.6967    3.7030    2.2098 C   0  0  0  0  0  0  0  0  0  0  0  0
   -0.8817    4.4246    2.3043 H   0  0  0  0  0  0  0  0  0  0  0  0
   -2.6013    4.2590    1.9448 H   0  0  0  0  0  0  0  0  0  0  0  0
   -1.8584    3.2233    3.1801 H   0  0  0  0  0  0  0  0  0  0  0  0
    0.9514   -0.5156    0.5387 C   0  0  0  0  0  0  0  0  0  0  0  0
    1.8447   -0.4308    1.3710 O   0  0  0  0  0  0  0  0  0  0  0  0
    1.0768   -1.4845   -0.4426 N   0  0  0  0  0  0  0  0  0  0  0  0
    0.1986   -1.7432   -0.8820 H   0  0  0  0  0  0  0  0  0  0  0  0
    2.1129   -2.5092   -0.3865 C   0  0  0  0  0  0  0  0  0  0  0  0
    1.9892   -3.1266    0.5096 H   0  0  0  0  0  0  0  0  0  0  0  0
    2.0519   -3.1560   -1.2667 H   0  0  0  0  0  0  0  0  0  0  0  0
    3.1076   -2.0516   -0.3653 H   0  0  0  0  0  0  0  0  0  0  0  0
  1  2  1  0  0  0  0
  2  3  1  0  0  0  0
  2  4  1  0  0  0  0
  2  5  1  0  0  0  0
  5  6  2  0  0  0  0
  5  7  1  0  0  0  0
  7  8  1  0  0  0  0
  7  9  1  0  0  0  0
  9 10  1  0  0  0  0
  9 11  1  0  0  0  0
  9 24  1  0  0  0  0
 11 12  1  0  0  0  0
 11 13  1  0  0  0  0
 11 17  1  0  0  0  0
 13 14  1  0  0  0  0
 13 15  1  0  0  0  0
 13 16  1  0  0  0  0
 17 18  1  0  0  0  0
 17 19  1  0  0  0  0
 17 20  1  0  0  0  0
 20 21  1  0  0  0  0
 20 22  1  0  0  0  0
 20 23  1  0  0  0  0
 24 25  2  0  0  0  0
 24 26  1  0  0  0  0
 26 27  1  0  0  0  0
 26 28  1  0  0  0  0
 28 29  1  0  0  0  0
 28 30  1  0  0  0  0
 28 31  1  0  0  0  0
M  END
$$$$

  -OEChem-01062216083D

 31 30  0     1  0  0  0  0  0999 V2000
   -3.4369   -2.8715    1.5884 H   0  0  0  0  0  0  0  0  0  0  0  0
   -3.3630   -1.8528    1.1967 C   0  0  0  0  0  0  0  0  0  0  0  0
   -3.7507   -1.1614    1.9488 H   0  0  0  0  0  0  0  0  0  0  0  0
   -3.9709   -1.7781    0.2920 H   0  0  0  0  0  0  0  0  0  0  0  0
   -1.9171   -1.5182    0.8798 C   0  0  0  0  0  0  0  0  0  0  0  0
   -1.0999   -2.4196    0.8842 O   0  0  0  0  0  0  0  0  0  0  0  0
   -1.6124   -0.2206    0.5001 N   0  0  0  0  0  0  0  0  0  0  0  0
   -2.4146    0.4001    0.5217 H   0  0  0  0  0  0  0  0  0  0  0  0
   -0.2920    0.4613    0.4595 C   0  0  1  0  0  0  0  0  0  0  0  0
   -0.1957    0.9281   -0.5252 H   0  0  0  0  0  0  0  0  0  0  0  0
   -0.3220    1.6204    1.5108 C   0  0  1  0  0  0  0  0  0  0  0  0
   -0.5473    1.1988    2.4968 H   0  0  0  0  0  0  0  0  0  0  0  0
    1.0287    2.3765    1.5818 C   0  0  0  0  0  0  0  0  0  0  0  0
    1.3266    2.7226    0.5874 H   0  0  0  0  0  0  0  0  0  0  0  0
    0.9660    3.2420    2.2441 H   0  0  0  0  0  0  0  0  0  0  0  0
    1.8279    1.7511    1.9827 H   0  0  0  0  0  0  0  0  0  0  0  0
   -1.4093    2.6613    1.1164 C   0  0  0  0  0  0  0  0  0  0  0  0
   -1.1092    3.1836    0.2017 H   0  0  0  0  0  0  0  0  0  0  0  0
   -2.3540    2.1550    0.9048 H   0  0  0  0  0  0  0  0  0  0  0  0
   -1.7027    3.6912    2.2144 C   0  0  0  0  0  0  0  0  0  0  0  0
   -0.8704    4.3877    2.3456 H   0  0  0  0  0  0  0  0  0  0  0  0
   -2.5871    4.2766    1.9452 H   0  0  0  0  0  0  0  0  0  0  0  0
   -1.8975    3.1901    3.1676 H   0  0  0  0  0  0  0  0  0  0  0  0
    0.9401   -0.4889    0.5510 C   0  0  0  0  0  0  0  0  0  0  0  0
    1.6023   -0.6104    1.5749 O   0  0  0  0  0  0  0  0  0  0  0  0
    1.2916   -1.2390   -0.5580 N   0  0  0  0  0  0  0  0  0  0  0  0
    0.5609   -1.3378   -1.2554 H   0  0  0  0  0  0  0  0  0  0  0  0
    2.2927   -2.2967   -0.4836 C   0  0  0  0  0  0  0  0  0  0  0  0
    1.9699   -3.0782    0.2127 H   0  0  0  0  0  0  0  0  0  0  0  0
    2.4397   -2.7473   -1.4697 H   0  0  0  0  0  0  0  0  0  0  0  0
    3.2531   -1.8957   -0.1427 H   0  0  0  0  0  0  0  0  0  0  0  0
  1  2  1  0  0  0  0
  2  3  1  0  0  0  0
  2  4  1  0  0  0  0
  2  5  1  0  0  0  0
  5  6  2  0  0  0  0
  5  7  1  0  0  0  0
  7  8  1  0  0  0  0
  7  9  1  0  0  0  0
  9 10  1  0  0  0  0
  9 11  1  0  0  0  0
  9 24  1  0  0  0  0
 11 12  1  0  0  0  0
 11 13  1  0  0  0  0
 11 17  1  0  0  0  0
 13 14  1  0  0  0  0
 13 15  1  0  0  0  0
 13 16  1  0  0  0  0
 17 18  1  0  0  0  0
 17 19  1  0  0  0  0
 17 20  1  0  0  0  0
 20 21  1  0  0  0  0
 20 22  1  0  0  0  0
 20 23  1  0  0  0  0
 24 25  2  0  0  0  0
 24 26  1  0  0  0  0
 26 27  1  0  0  0  0
 26 28  1  0  0  0  0
 28 29  1  0  0  0  0
 28 30  1  0  0  0  0
 28 31  1  0  0  0  0
M  END
$$$$

  -OEChem-01062216083D

 31 30  0     1  0  0  0  0  0999 V2000
   -3.3871   -2.8831    1.5737 H   0  0  0  0  0  0  0  0  0  0  0  0
   -3.3257   -1.8364    1.2624 C   0  0  0  0  0  0  0  0  0  0  0  0
   -3.5987   -1.2040    2.1105 H   0  0  0  0  0  0  0  0  0  0  0  0
   -4.0331   -1.6693    0.4470 H   0  0  0  0  0  0  0  0  0  0  0  0
   -1.9165   -1.5099    0.8037 C   0  0  0  0  0  0  0  0  0  0  0  0
   -1.1253   -2.4230    0.6533 O   0  0  0  0  0  0  0  0  0  0  0  0
   -1.6302   -0.2101    0.4200 N   0  0  0  0  0  0  0  0  0  0  0  0
   -2.4227    0.4135    0.5302 H   0  0  0  0  0  0  0  0  0  0  0  0
   -0.3092    0.4683    0.4159 C   0  0  1  0  0  0  0  0  0  0  0  0
   -0.1874    0.9436   -0.5616 H   0  0  0  0  0  0  0  0  0  0  0  0
   -0.3484    1.6106    1.4810 C   0  0  1  0  0  0  0  0  0  0  0  0
   -0.5941    1.1738    2.4555 H   0  0  0  0  0  0  0  0  0  0  0  0
    1.0132    2.3403    1.5876 C   0  0  0  0  0  0  0  0  0  0  0  0
    1.3038    2.7547    0.6173 H   0  0  0  0  0  0  0  0  0  0  0  0
    0.9673    3.1556    2.3130 H   0  0  0  0  0  0  0  0  0  0  0  0
    1.8083    1.6736    1.9276 H   0  0  0  0  0  0  0  0  0  0  0  0
   -1.4193    2.6677    1.0914 C   0  0  0  0  0  0  0  0  0  0  0  0
   -1.1024    3.2046    0.1910 H   0  0  0  0  0  0  0  0  0  0  0  0
   -2.3661    2.1746    0.8579 H   0  0  0  0  0  0  0  0  0  0  0  0
   -1.7116    3.6767    2.2080 C   0  0  0  0  0  0  0  0  0  0  0  0
   -0.8660    4.3505    2.3689 H   0  0  0  0  0  0  0  0  0  0  0  0
   -2.5789    4.2870    1.9383 H   0  0  0  0  0  0  0  0  0  0  0  0
   -1.9330    3.1575    3.1456 H   0  0  0  0  0  0  0  0  0  0  0  0
    0.9155   -0.4826    0.5516 C   0  0  0  0  0  0  0  0  0  0  0  0
    1.4063   -0.7403    1.6455 O   0  0  0  0  0  0  0  0  0  0  0  0
    1.5022   -1.0058   -0.5873 N   0  0  0  0  0  0  0  0  0  0  0  0
    0.9332   -0.9699   -1.4267 H   0  0  0  0  0  0  0  0  0  0  0  0
    2.5357   -2.0317   -0.5154 C   0  0  0  0  0  0  0  0  0  0  0  0
    2.1442   -2.9336   -0.0322 H   0  0  0  0  0  0  0  0  0  0  0  0
    2.8774   -2.2952   -1.5207 H   0  0  0  0  0  0  0  0  0  0  0  0
    3.3975   -1.6718    0.0565 H   0  0  0  0  0  0  0  0  0  0  0  0
  1  2  1  0  0  0  0
  2  3  1  0  0  0  0
  2  4  1  0  0  0  0
  2  5  1  0  0  0  0
  5  6  2  0  0  0  0
  5  7  1  0  0  0  0
  7  8  1  0  0  0  0
  7  9  1  0  0  0  0
  9 10  1  0  0  0  0
  9 11  1  0  0  0  0
  9 24  1  0  0  0  0
 11 12  1  0  0  0  0
 11 13  1  0  0  0  0
 11 17  1  0  0  0  0
 13 14  1  0  0  0  0
 13 15  1  0  0  0  0
 13 16  1  0  0  0  0
 17 18  1  0  0  0  0
 17 19  1  0  0  0  0
 17 20  1  0  0  0  0
 20 21  1  0  0  0  0
 20 22  1  0  0  0  0
 20 23  1  0  0  0  0
 24 25  2  0  0  0  0
 24 26  1  0  0  0  0
 26 27  1  0  0  0  0
 26 28  1  0  0  0  0
 28 29  1  0  0  0  0
 28 30  1  0  0  0  0
 28 31  1  0  0  0  0
M  END
$$$$

  -OEChem-01062216083D

 31 30  0     1  0  0  0  0  0999 V2000
   -3.3757   -2.8718    1.6166 H   0  0  0  0  0  0  0  0  0  0  0  0
   -3.3275   -1.8266    1.2978 C   0  0  0  0  0  0  0  0  0  0  0  0
   -3.5520   -1.1896    2.1565 H   0  0  0  0  0  0  0  0  0  0  0  0
   -4.0764   -1.6595    0.5200 H   0  0  0  0  0  0  0  0  0  0  0  0
   -1.9437   -1.5078    0.7634 C   0  0  0  0  0  0  0  0  0  0  0  0
   -1.1808   -2.4269    0.5245 O   0  0  0  0  0  0  0  0  0  0  0  0
   -1.6619   -0.2082    0.3770 N   0  0  0  0  0  0  0  0  0  0  0  0
   -2.4441    0.4192    0.5300 H   0  0  0  0  0  0  0  0  0  0  0  0
   -0.3354    0.4572    0.3898 C   0  0  1  0  0  0  0  0  0  0  0  0
   -0.2037    0.9356   -0.5847 H   0  0  0  0  0  0  0  0  0  0  0  0
   -0.3663    1.5909    1.4619 C   0  0  1  0  0  0  0  0  0  0  0  0
   -0.6285    1.1482    2.4295 H   0  0  0  0  0  0  0  0  0  0  0  0
    1.0090    2.2874    1.5925 C   0  0  0  0  0  0  0  0  0  0  0  0
    1.3158    2.7149    0.6328 H   0  0  0  0  0  0  0  0  0  0  0  0
    0.9755    3.0884    2.3345 H   0  0  0  0  0  0  0  0  0  0  0  0
    1.7843    1.5922    1.9236 H   0  0  0  0  0  0  0  0  0  0  0  0
   -1.4190    2.6664    1.0777 C   0  0  0  0  0  0  0  0  0  0  0  0
   -1.0890    3.2078    0.1847 H   0  0  0  0  0  0  0  0  0  0  0  0
   -2.3712    2.1890    0.8341 H   0  0  0  0  0  0  0  0  0  0  0  0
   -1.6999    3.6677    2.2037 C   0  0  0  0  0  0  0  0  0  0  0  0
   -0.8426    4.3237    2.3765 H   0  0  0  0  0  0  0  0  0  0  0  0
   -2.5542    4.2969    1.9359 H   0  0  0  0  0  0  0  0  0  0  0  0
   -1.9357    3.1423    3.1344 H   0  0  0  0  0  0  0  0  0  0  0  0
    0.8853   -0.4945    0.5444 C   0  0  0  0  0  0  0  0  0  0  0  0
    1.2521   -0.8657    1.6545 O   0  0  0  0  0  0  0  0  0  0  0  0
    1.6812   -0.7795   -0.5514 N   0  0  0  0  0  0  0  0  0  0  0  0
    1.2696   -0.6039   -1.4620 H   0  0  0  0  0  0  0  0  0  0  0  0
    2.7997   -1.7114   -0.4729 C   0  0  0  0  0  0  0  0  0  0  0  0
    2.4491   -2.7040   -0.1701 H   0  0  0  0  0  0  0  0  0  0  0  0
    3.2897   -1.7975   -1.4473 H   0  0  0  0  0  0  0  0  0  0  0  0
    3.5405   -1.3627    0.2544 H   0  0  0  0  0  0  0  0  0  0  0  0
  1  2  1  0  0  0  0
  2  3  1  0  0  0  0
  2  4  1  0  0  0  0
  2  5  1  0  0  0  0
  5  6  2  0  0  0  0
  5  7  1  0  0  0  0
  7  8  1  0  0  0  0
  7  9  1  0  0  0  0
  9 10  1  0  0  0  0
  9 11  1  0  0  0  0
  9 24  1  0  0  0  0
 11 12  1  0  0  0  0
 11 13  1  0  0  0  0
 11 17  1  0  0  0  0
 13 14  1  0  0  0  0
 13 15  1  0  0  0  0
 13 16  1  0  0  0  0
 17 18  1  0  0  0  0
 17 19  1  0  0  0  0
 17 20  1  0  0  0  0
 20 21  1  0  0  0  0
 20 22  1  0  0  0  0
 20 23  1  0  0  0  0
 24 25  2  0  0  0  0
 24 26  1  0  0  0  0
 26 27  1  0  0  0  0
 26 28  1  0  0  0  0
 28 29  1  0  0  0  0
 28 30  1  0  0  0  0
 28 31  1  0  0  0  0
M  END
$$$$

  -OEChem-01062216083D

 31 30  0     1  0  0  0  0  0999 V2000
   -3.3522   -2.8576    1.6380 H   0  0  0  0  0  0  0  0  0  0  0  0
   -3.3038   -1.8030    1.3525 C   0  0  0  0  0  0  0  0  0  0  0  0
   -3.4307   -1.1926    2.2497 H   0  0  0  0  0  0  0  0  0  0  0  0
   -4.1155   -1.5884    0.6535 H   0  0  0  0  0  0  0  0  0  0  0  0
   -1.9651   -1.4998    0.7059 C   0  0  0  0  0  0  0  0  0  0  0  0
   -1.2528   -2.4246    0.3563 O   0  0  0  0  0  0  0  0  0  0  0  0
   -1.6858   -0.2009    0.3189 N   0  0  0  0  0  0  0  0  0  0  0  0
   -2.4520    0.4299    0.5267 H   0  0  0  0  0  0  0  0  0  0  0  0
   -0.3521    0.4478    0.3493 C   0  0  1  0  0  0  0  0  0  0  0  0
   -0.2077    0.9316   -0.6207 H   0  0  0  0  0  0  0  0  0  0  0  0
   -0.3833    1.5677    1.4347 C   0  0  1  0  0  0  0  0  0  0  0  0
   -0.6665    1.1140    2.3912 H   0  0  0  0  0  0  0  0  0  0  0  0
    1.0019    2.2344    1.6014 C   0  0  0  0  0  0  0  0  0  0  0  0
    1.3387    2.6642    0.6529 H   0  0  0  0  0  0  0  0  0  0  0  0
    0.9694    3.0289    2.3506 H   0  0  0  0  0  0  0  0  0  0  0  0
    1.7526    1.5163    1.9424 H   0  0  0  0  0  0  0  0  0  0  0  0
   -1.4197    2.6603    1.0564 C   0  0  0  0  0  0  0  0  0  0  0  0
   -1.0736    3.2106    0.1753 H   0  0  0  0  0  0  0  0  0  0  0  0
   -2.3750    2.1986    0.7954 H   0  0  0  0  0  0  0  0  0  0  0  0
   -1.6992    3.6478    2.1946 C   0  0  0  0  0  0  0  0  0  0  0  0
   -0.8344    4.2882    2.3877 H   0  0  0  0  0  0  0  0  0  0  0  0
   -2.5416    4.2933    1.9275 H   0  0  0  0  0  0  0  0  0  0  0  0
   -1.9533    3.1108    3.1139 H   0  0  0  0  0  0  0  0  0  0  0  0
    0.8640   -0.5067    0.5195 C   0  0  0  0  0  0  0  0  0  0  0  0
    1.1097   -0.9982    1.6163 O   0  0  0  0  0  0  0  0  0  0  0  0
    1.8446   -0.5584   -0.4564 N   0  0  0  0  0  0  0  0  0  0  0  0
    1.5879   -0.2248   -1.3795 H   0  0  0  0  0  0  0  0  0  0  0  0
    3.0275   -1.4015   -0.3297 C   0  0  0  0  0  0  0  0  0  0  0  0
    2.7374   -2.4519   -0.2196 H   0  0  0  0  0  0  0  0  0  0  0  0
    3.6578   -1.3064   -1.2188 H   0  0  0  0  0  0  0  0  0  0  0  0
    3.6180   -1.1058    0.5438 H   0  0  0  0  0  0  0  0  0  0  0  0
  1  2  1  0  0  0  0
  2  3  1  0  0  0  0
  2  4  1  0  0  0  0
  2  5  1  0  0  0  0
  5  6  2  0  0  0  0
  5  7  1  0  0  0  0
  7  8  1  0  0  0  0
  7  9  1  0  0  0  0
  9 10  1  0  0  0  0
  9 11  1  0  0  0  0
  9 24  1  0  0  0  0
 11 12  1  0  0  0  0
 11 13  1  0  0  0  0
 11 17  1  0  0  0  0
 13 14  1  0  0  0  0
 13 15  1  0  0  0  0
 13 16  1  0  0  0  0
 17 18  1  0  0  0  0
 17 19  1  0  0  0  0
 17 20  1  0  0  0  0
 20 21  1  0  0  0  0
 20 22  1  0  0  0  0
 20 23  1  0  0  0  0
 24 25  2  0  0  0  0
 24 26  1  0  0  0  0
 26 27  1  0  0  0  0
 26 28  1  0  0  0  0
 28 29  1  0  0  0  0
 28 30  1  0  0  0  0
 28 31  1  0  0  0  0
M  END
$$$$

  -OEChem-01062216083D

 31 30  0     1  0  0  0  0  0999 V2000
   -3.3293   -2.8439    1.6637 H   0  0  0  0  0  0  0  0  0  0  0  0
   -3.2768   -1.7833    1.4017 C   0  0  0  0  0  0  0  0  0  0  0  0
   -3.3231   -1.1942    2.3208 H   0  0  0  0  0  0  0  0  0  0  0  0
   -4.1315   -1.5317    0.7693 H   0  0  0  0  0  0  0  0  0  0  0  0
   -1.9819   -1.4939    0.6664 C   0  0  0  0  0  0  0  0  0  0  0  0
   -1.3315   -2.4223    0.2181 O   0  0  0  0  0  0  0  0  0  0  0  0
   -1.7013   -0.1967    0.2777 N   0  0  0  0  0  0  0  0  0  0  0  0
   -2.4508    0.4380    0.5292 H   0  0  0  0  0  0  0  0  0  0  0  0
   -0.3600    0.4350    0.3137 C   0  0  1  0  0  0  0  0  0  0  0  0
   -0.2098    0.9202   -0.6547 H   0  0  0  0  0  0  0  0  0  0  0  0
   -0.3901    1.5460    1.4097 C   0  0  1  0  0  0  0  0  0  0  0  0
   -0.6889    1.0835    2.3573 H   0  0  0  0  0  0  0  0  0  0  0  0
    0.9987    2.1938    1.6087 C   0  0  0  0  0  0  0  0  0  0  0  0
    1.3582    2.6300    0.6715 H   0  0  0  0  0  0  0  0  0  0  0  0
    0.9625    2.9802    2.3662 H   0  0  0  0  0  0  0  0  0  0  0  0
    1.7321    1.4606    1.9565 H   0  0  0  0  0  0  0  0  0  0  0  0
   -1.4152    2.6508    1.0354 C   0  0  0  0  0  0  0  0  0  0  0  0
   -1.0560    3.2066    0.1629 H   0  0  0  0  0  0  0  0  0  0  0  0
   -2.3724    2.2009    0.7610 H   0  0  0  0  0  0  0  0  0  0  0  0
   -1.6954    3.6305    2.1802 C   0  0  0  0  0  0  0  0  0  0  0  0
   -0.8251    4.2578    2.3905 H   0  0  0  0  0  0  0  0  0  0  0  0
   -2.5257    4.2897    1.9089 H   0  0  0  0  0  0  0  0  0  0  0  0
   -1.9683    3.0882    3.0908 H   0  0  0  0  0  0  0  0  0  0  0  0
    0.8524   -0.5237    0.4889 C   0  0  0  0  0  0  0  0  0  0  0  0
    0.9957   -1.1367    1.5415 O   0  0  0  0  0  0  0  0  0  0  0  0
    1.9731   -0.3606   -0.3089 N   0  0  0  0  0  0  0  0  0  0  0  0
    1.8458    0.1277   -1.1890 H   0  0  0  0  0  0  0  0  0  0  0  0
    3.2037   -1.1161   -0.1051 C   0  0  0  0  0  0  0  0  0  0  0  0
    3.0074   -2.1919   -0.1665 H   0  0  0  0  0  0  0  0  0  0  0  0
    3.9403   -0.8534   -0.8702 H   0  0  0  0  0  0  0  0  0  0  0  0
    3.6327   -0.8918    0.8773 H   0  0  0  0  0  0  0  0  0  0  0  0
  1  2  1  0  0  0  0
  2  3  1  0  0  0  0
  2  4  1  0  0  0  0
  2  5  1  0  0  0  0
  5  6  2  0  0  0  0
  5  7  1  0  0  0  0
  7  8  1  0  0  0  0
  7  9  1  0  0  0  0
  9 10  1  0  0  0  0
  9 11  1  0  0  0  0
  9 24  1  0  0  0  0
 11 12  1  0  0  0  0
 11 13  1  0  0  0  0
 11 17  1  0  0  0  0
 13 14  1  0  0  0  0
 13 15  1  0  0  0  0
 13 16  1  0  0  0  0
 17 18  1  0  0  0  0
 17 19  1  0  0  0  0
 17 20  1  0  0  0  0
 20 21  1  0  0  0  0
 20 22  1  0  0  0  0
 20 23  1  0  0  0  0
 24 25  2  0  0  0  0
 24 26  1  0  0  0  0
 26 27  1  0  0  0  0
 26 28  1  0  0  0  0
 28 29  1  0  0  0  0
 28 30  1  0  0  0  0
 28 31  1  0  0  0  0
M  END
$$$$

  -OEChem-01062216083D

 31 30  0     1  0  0  0  0  0999 V2000
   -3.2951   -2.8261    1.6848 H   0  0  0  0  0  0  0  0  0  0  0  0
   -3.2214   -1.7570    1.4663 C   0  0  0  0  0  0  0  0  0  0  0  0
   -3.1573   -1.2113    2.4106 H   0  0  0  0  0  0  0  0  0  0  0  0
   -4.1185   -1.4427    0.9280 H   0  0  0  0  0  0  0  0  0  0  0  0
   -1.9876   -1.4835    0.6271 C   0  0  0  0  0  0  0  0  0  0  0  0
   -1.4210   -2.4118    0.0756 O   0  0  0  0  0  0  0  0  0  0  0  0
   -1.7014   -0.1885    0.2378 N   0  0  0  0  0  0  0  0  0  0  0  0
   -2.4330    0.4496    0.5295 H   0  0  0  0  0  0  0  0  0  0  0  0
   -0.3517    0.4274    0.2746 C   0  0  1  0  0  0  0  0  0  0  0  0
   -0.1959    0.9157   -0.6915 H   0  0  0  0  0  0  0  0  0  0  0  0
   -0.3967    1.5308    1.3816 C   0  0  1  0  0  0  0  0  0  0  0  0
   -0.7163    1.0574    2.3168 H   0  0  0  0  0  0  0  0  0  0  0  0
    0.9855    2.1728    1.6299 C   0  0  0  0  0  0  0  0  0  0  0  0
    1.3826    2.6028    0.7053 H   0  0  0  0  0  0  0  0  0  0  0  0
    0.9277    2.9627    2.3821 H   0  0  0  0  0  0  0  0  0  0  0  0
    1.6971    1.4344    2.0107 H   0  0  0  0  0  0  0  0  0  0  0  0
   -1.4182    2.6402    1.0051 C   0  0  0  0  0  0  0  0  0  0  0  0
   -1.0459    3.2045    0.1436 H   0  0  0  0  0  0  0  0  0  0  0  0
   -2.3726    2.1961    0.7118 H   0  0  0  0  0  0  0  0  0  0  0  0
   -1.7155    3.6113    2.1533 C   0  0  0  0  0  0  0  0  0  0  0  0
   -0.8506    4.2412    2.3774 H   0  0  0  0  0  0  0  0  0  0  0  0
   -2.5454    4.2687    1.8765 H   0  0  0  0  0  0  0  0  0  0  0  0
   -1.9973    3.0621    3.0570 H   0  0  0  0  0  0  0  0  0  0  0  0
    0.8614   -0.5345    0.4498 C   0  0  0  0  0  0  0  0  0  0  0  0
    0.9087   -1.2840    1.4188 O   0  0  0  0  0  0  0  0  0  0  0  0
    2.0821   -0.1952   -0.1133 N   0  0  0  0  0  0  0  0  0  0  0  0
    2.0714    0.4673   -0.8815 H   0  0  0  0  0  0  0  0  0  0  0  0
    3.3236   -0.9022    0.1818 C   0  0  0  0  0  0  0  0  0  0  0  0
    3.2241   -1.9663   -0.0576 H   0  0  0  0  0  0  0  0  0  0  0  0
    4.1444   -0.4888   -0.4118 H   0  0  0  0  0  0  0  0  0  0  0  0
    3.5801   -0.8023    1.2418 H   0  0  0  0  0  0  0  0  0  0  0  0
  1  2  1  0  0  0  0
  2  3  1  0  0  0  0
  2  4  1  0  0  0  0
  2  5  1  0  0  0  0
  5  6  2  0  0  0  0
  5  7  1  0  0  0  0
  7  8  1  0  0  0  0
  7  9  1  0  0  0  0
  9 10  1  0  0  0  0
  9 11  1  0  0  0  0
  9 24  1  0  0  0  0
 11 12  1  0  0  0  0
 11 13  1  0  0  0  0
 11 17  1  0  0  0  0
 13 14  1  0  0  0  0
 13 15  1  0  0  0  0
 13 16  1  0  0  0  0
 17 18  1  0  0  0  0
 17 19  1  0  0  0  0
 17 20  1  0  0  0  0
 20 21  1  0  0  0  0
 20 22  1  0  0  0  0
 20 23  1  0  0  0  0
 24 25  2  0  0  0  0
 24 26  1  0  0  0  0
 26 27  1  0  0  0  0
 26 28  1  0  0  0  0
 28 29  1  0  0  0  0
 28 30  1  0  0  0  0
 28 31  1  0  0  0  0
M  END
$$$$

  -OEChem-01062216083D

 31 30  0     1  0  0  0  0  0999 V2000
   -3.2304   -3.1091    1.4189 H   0  0  0  0  0  0  0  0  0  0  0  0
   -3.1503   -2.1870    0.8361 C   0  0  0  0  0  0  0  0  0  0  0  0
   -4.1017   -1.6523    0.8863 H   0  0  0  0  0  0  0  0  0  0  0  0
   -2.9368   -2.4484   -0.2030 H   0  0  0  0  0  0  0  0  0  0  0  0
   -2.0354   -1.3198    1.3895 C   0  0  0  0  0  0  0  0  0  0  0  0
   -1.5790   -1.5586    2.4957 O   0  0  0  0  0  0  0  0  0  0  0  0
   -1.7585   -0.0992    0.8027 N   0  0  0  0  0  0  0  0  0  0  0  0
   -2.4025    0.1035    0.0462 H   0  0  0  0  0  0  0  0  0  0  0  0
   -0.3982    0.4633    0.5896 C   0  0  1  0  0  0  0  0  0  0  0  0
   -0.3538    0.8467   -0.4336 H   0  0  0  0  0  0  0  0  0  0  0  0
   -0.3282    1.6819    1.5763 C   0  0  1  0  0  0  0  0  0  0  0  0
   -0.5669    1.3058    2.5781 H   0  0  0  0  0  0  0  0  0  0  0  0
    1.0601    2.3501    1.6605 C   0  0  0  0  0  0  0  0  0  0  0  0
    1.3942    2.6750    0.6704 H   0  0  0  0  0  0  0  0  0  0  0  0
    1.0424    3.2203    2.3202 H   0  0  0  0  0  0  0  0  0  0  0  0
    1.7963    1.6622    2.0855 H   0  0  0  0  0  0  0  0  0  0  0  0
   -1.3890    2.7528    1.1888 C   0  0  0  0  0  0  0  0  0  0  0  0
   -1.1147    3.2143    0.2347 H   0  0  0  0  0  0  0  0  0  0  0  0
   -2.3669    2.2833    1.0536 H   0  0  0  0  0  0  0  0  0  0  0  0
   -1.5759    3.8483    2.2448 C   0  0  0  0  0  0  0  0  0  0  0  0
   -0.7121    4.5169    2.2853 H   0  0  0  0  0  0  0  0  0  0  0  0
   -2.4545    4.4526    1.9992 H   0  0  0  0  0  0  0  0  0  0  0  0
   -1.7283    3.4046    3.2337 H   0  0  0  0  0  0  0  0  0  0  0  0
    0.8348   -0.4977    0.7058 C   0  0  0  0  0  0  0  0  0  0  0  0
    0.7228   -1.7137    0.7774 O   0  0  0  0  0  0  0  0  0  0  0  0
    2.0603   -0.0737    0.2117 N   0  0  0  0  0  0  0  0  0  0  0  0
    2.1798    0.9234    0.0671 H   0  0  0  0  0  0  0  0  0  0  0  0
    3.2251   -0.9423    0.0675 C   0  0  0  0  0  0  0  0  0  0  0  0
    3.0322   -1.7222   -0.6766 H   0  0  0  0  0  0  0  0  0  0  0  0
    4.0929   -0.3612   -0.2586 H   0  0  0  0  0  0  0  0  0  0  0  0
    3.4683   -1.4194    1.0229 H   0  0  0  0  0  0  0  0  0  0  0  0
  1  2  1  0  0  0  0
  2  3  1  0  0  0  0
  2  4  1  0  0  0  0
  2  5  1  0  0  0  0
  5  6  2  0  0  0  0
  5  7  1  0  0  0  0
  7  8  1  0  0  0  0
  7  9  1  0  0  0  0
  9 10  1  0  0  0  0
  9 11  1  0  0  0  0
  9 24  1  0  0  0  0
 11 12  1  0  0  0  0
 11 13  1  0  0  0  0
 11 17  1  0  0  0  0
 13 14  1  0  0  0  0
 13 15  1  0  0  0  0
 13 16  1  0  0  0  0
 17 18  1  0  0  0  0
 17 19  1  0  0  0  0
 17 20  1  0  0  0  0
 20 21  1  0  0  0  0
 20 22  1  0  0  0  0
 20 23  1  0  0  0  0
 24 25  2  0  0  0  0
 24 26  1  0  0  0  0
 26 27  1  0  0  0  0
 26 28  1  0  0  0  0
 28 29  1  0  0  0  0
 28 30  1  0  0  0  0
 28 31  1  0  0  0  0
M  END
$$$$

  -OEChem-01062216083D

 31 30  0     1  0  0  0  0  0999 V2000
   -3.1305   -3.1293    1.4285 H   0  0  0  0  0  0  0  0  0  0  0  0
   -3.1163   -2.1796    0.8864 C   0  0  0  0  0  0  0  0  0  0  0  0
   -4.0387   -1.6357    1.1015 H   0  0  0  0  0  0  0  0  0  0  0  0
   -3.0621   -2.3890   -0.1846 H   0  0  0  0  0  0  0  0  0  0  0  0
   -1.9146   -1.3567    1.3102 C   0  0  0  0  0  0  0  0  0  0  0  0
   -1.2241   -1.7272    2.2475 O   0  0  0  0  0  0  0  0  0  0  0  0
   -1.7132   -0.1014    0.7620 N   0  0  0  0  0  0  0  0  0  0  0  0
   -2.3941    0.1247    0.0450 H   0  0  0  0  0  0  0  0  0  0  0  0
   -0.3729    0.5086    0.5639 C   0  0  1  0  0  0  0  0  0  0  0  0
   -0.4079    1.1348   -0.3319 H   0  0  0  0  0  0  0  0  0  0  0  0
   -0.1695    1.4510    1.8052 C   0  0  1  0  0  0  0  0  0  0  0  0
   -0.3083    0.8498    2.7109 H   0  0  0  0  0  0  0  0  0  0  0  0
    1.2303    2.0926    1.8918 C   0  0  0  0  0  0  0  0  0  0  0  0
    1.4966    2.5692    0.9432 H   0  0  0  0  0  0  0  0  0  0  0  0
    1.2797    2.8471    2.6792 H   0  0  0  0  0  0  0  0  0  0  0  0
    1.9809    1.3411    2.1493 H   0  0  0  0  0  0  0  0  0  0  0  0
   -1.2448    2.5767    1.7942 C   0  0  0  0  0  0  0  0  0  0  0  0
   -1.0604    3.2527    0.9530 H   0  0  0  0  0  0  0  0  0  0  0  0
   -2.2390    2.1447    1.6516 H   0  0  0  0  0  0  0  0  0  0  0  0
   -1.3080    3.3911    3.0921 C   0  0  0  0  0  0  0  0  0  0  0  0
   -0.4424    4.0505    3.1949 H   0  0  0  0  0  0  0  0  0  0  0  0
   -2.2051    4.0176    3.0915 H   0  0  0  0  0  0  0  0  0  0  0  0
   -1.3527    2.7257    3.9600 H   0  0  0  0  0  0  0  0  0  0  0  0
    0.7799   -0.5179    0.2910 C   0  0  0  0  0  0  0  0  0  0  0  0
    0.5206   -1.6155   -0.1915 O   0  0  0  0  0  0  0  0  0  0  0  0
    2.0854   -0.0992    0.0888 N   0  0  0  0  0  0  0  0  0  0  0  0
    2.3231    0.8353    0.4031 H   0  0  0  0  0  0  0  0  0  0  0  0
    3.1609   -0.9765   -0.3623 C   0  0  0  0  0  0  0  0  0  0  0  0
    2.9689   -1.3250   -1.3824 H   0  0  0  0  0  0  0  0  0  0  0  0
    4.1145   -0.4403   -0.3545 H   0  0  0  0  0  0  0  0  0  0  0  0
    3.2484   -1.8463    0.2976 H   0  0  0  0  0  0  0  0  0  0  0  0
  1  2  1  0  0  0  0
  2  3  1  0  0  0  0
  2  4  1  0  0  0  0
  2  5  1  0  0  0  0
  5  6  2  0  0  0  0
  5  7  1  0  0  0  0
  7  8  1  0  0  0  0
  7  9  1  0  0  0  0
  9 10  1  0  0  0  0
  9 11  1  0  0  0  0
  9 24  1  0  0  0  0
 11 12  1  0  0  0  0
 11 13  1  0  0  0  0
 11 17  1  0  0  0  0
 13 14  1  0  0  0  0
 13 15  1  0  0  0  0
 13 16  1  0  0  0  0
 17 18  1  0  0  0  0
 17 19  1  0  0  0  0
 17 20  1  0  0  0  0
 20 21  1  0  0  0  0
 20 22  1  0  0  0  0
 20 23  1  0  0  0  0
 24 25  2  0  0  0  0
 24 26  1  0  0  0  0
 26 27  1  0  0  0  0
 26 28  1  0  0  0  0
 28 29  1  0  0  0  0
 28 30  1  0  0  0  0
 28 31  1  0  0  0  0
M  END
$$$$

  -OEChem-01062216083D

 31 30  0     1  0  0  0  0  0999 V2000
   -3.0575   -3.1546    1.3896 H   0  0  0  0  0  0  0  0  0  0  0  0
   -3.0838   -2.1800    0.8942 C   0  0  0  0  0  0  0  0  0  0  0  0
   -4.0015   -1.6616    1.1812 H   0  0  0  0  0  0  0  0  0  0  0  0
   -3.0807   -2.3373   -0.1871 H   0  0  0  0  0  0  0  0  0  0  0  0
   -1.8741   -1.3590    1.2980 C   0  0  0  0  0  0  0  0  0  0  0  0
   -1.1449   -1.7534    2.1957 O   0  0  0  0  0  0  0  0  0  0  0  0
   -1.6944   -0.0920    0.7690 N   0  0  0  0  0  0  0  0  0  0  0  0
   -2.3828    0.1394    0.0606 H   0  0  0  0  0  0  0  0  0  0  0  0
   -0.3624    0.5373    0.5782 C   0  0  1  0  0  0  0  0  0  0  0  0
   -0.3954    1.1659   -0.3162 H   0  0  0  0  0  0  0  0  0  0  0  0
   -0.1754    1.4822    1.8212 C   0  0  1  0  0  0  0  0  0  0  0  0
   -0.3037    0.8831    2.7301 H   0  0  0  0  0  0  0  0  0  0  0  0
    1.2127    2.1530    1.8930 C   0  0  0  0  0  0  0  0  0  0  0  0
    1.5200    2.5120    0.9056 H   0  0  0  0  0  0  0  0  0  0  0  0
    1.2239    3.0018    2.5781 H   0  0  0  0  0  0  0  0  0  0  0  0
    1.9550    1.4492    2.2776 H   0  0  0  0  0  0  0  0  0  0  0  0
   -1.2691    2.5915    1.8035 C   0  0  0  0  0  0  0  0  0  0  0  0
   -1.0915    3.2683    0.9614 H   0  0  0  0  0  0  0  0  0  0  0  0
   -2.2553    2.1434    1.6571 H   0  0  0  0  0  0  0  0  0  0  0  0
   -1.3551    3.4092    3.0991 C   0  0  0  0  0  0  0  0  0  0  0  0
   -0.5081    4.0913    3.2050 H   0  0  0  0  0  0  0  0  0  0  0  0
   -2.2676    4.0131    3.0934 H   0  0  0  0  0  0  0  0  0  0  0  0
   -1.3872    2.7457    3.9689 H   0  0  0  0  0  0  0  0  0  0  0  0
    0.7718   -0.5060    0.2905 C   0  0  0  0  0  0  0  0  0  0  0  0
    0.4967   -1.4889   -0.3917 O   0  0  0  0  0  0  0  0  0  0  0  0
    2.1231   -0.2150    0.3752 N   0  0  0  0  0  0  0  0  0  0  0  0
    2.3851    0.6247    0.8778 H   0  0  0  0  0  0  0  0  0  0  0  0
    3.1771   -1.1333   -0.0435 C   0  0  0  0  0  0  0  0  0  0  0  0
    3.1203   -1.3180   -1.1215 H   0  0  0  0  0  0  0  0  0  0  0  0
    4.1602   -0.7093    0.1823 H   0  0  0  0  0  0  0  0  0  0  0  0
    3.0833   -2.0889    0.4834 H   0  0  0  0  0  0  0  0  0  0  0  0
  1  2  1  0  0  0  0
  2  3  1  0  0  0  0
  2  4  1  0  0  0  0
  2  5  1  0  0  0  0
  5  6  2  0  0  0  0
  5  7  1  0  0  0  0
  7  8  1  0  0  0  0
  7  9  1  0  0  0  0
  9 10  1  0  0  0  0
  9 11  1  0  0  0  0
  9 24  1  0  0  0  0
 11 12  1  0  0  0  0
 11 13  1  0  0  0  0
 11 17  1  0  0  0  0
 13 14  1  0  0  0  0
 13 15  1  0  0  0  0
 13 16  1  0  0  0  0
 17 18  1  0  0  0  0
 17 19  1  0  0  0  0
 17 20  1  0  0  0  0
 20 21  1  0  0  0  0
 20 22  1  0  0  0  0
 20 23  1  0  0  0  0
 24 25  2  0  0  0  0
 24 26  1  0  0  0  0
 26 27  1  0  0  0  0
 26 28  1  0  0  0  0
 28 29  1  0  0  0  0
 28 30  1  0  0  0  0
 28 31  1  0  0  0  0
M  END
$$$$

  -OEChem-01062216083D

 31 30  0     1  0  0  0  0  0999 V2000
   -2.8862   -3.2775    1.2376 H   0  0  0  0  0  0  0  0  0  0  0  0
   -2.9956   -2.2535    0.8693 C   0  0  0  0  0  0  0  0  0  0  0  0
   -3.8321   -1.7793    1.3880 H   0  0  0  0  0  0  0  0  0  0  0  0
   -3.2091   -2.2878   -0.2019 H   0  0  0  0  0  0  0  0  0  0  0  0
   -1.7196   -1.4708    1.1157 C   0  0  0  0  0  0  0  0  0  0  0  0
   -0.8066   -1.9868    1.7438 O   0  0  0  0  0  0  0  0  0  0  0  0
   -1.6533   -0.1394    0.7402 N   0  0  0  0  0  0  0  0  0  0  0  0
   -2.4699    0.1782    0.2281 H   0  0  0  0  0  0  0  0  0  0  0  0
   -0.3949    0.5922    0.4485 C   0  0  1  0  0  0  0  0  0  0  0  0
   -0.5813    1.2935   -0.3704 H   0  0  0  0  0  0  0  0  0  0  0  0
   -0.0319    1.4489    1.7069 C   0  0  1  0  0  0  0  0  0  0  0  0
    0.0696    0.7935    2.5786 H   0  0  0  0  0  0  0  0  0  0  0  0
    1.2673    2.2683    1.5080 C   0  0  0  0  0  0  0  0  0  0  0  0
    1.2088    2.8581    0.5878 H   0  0  0  0  0  0  0  0  0  0  0  0
    2.1523    1.6407    1.4546 H   0  0  0  0  0  0  0  0  0  0  0  0
    1.4400    2.9495    2.3434 H   0  0  0  0  0  0  0  0  0  0  0  0
   -1.1601    2.4948    1.9476 C   0  0  0  0  0  0  0  0  0  0  0  0
   -1.1649    3.2339    1.1397 H   0  0  0  0  0  0  0  0  0  0  0  0
   -2.1333    1.9969    1.9359 H   0  0  0  0  0  0  0  0  0  0  0  0
   -1.0602    3.2168    3.2973 C   0  0  0  0  0  0  0  0  0  0  0  0
   -0.2227    3.9185    3.3187 H   0  0  0  0  0  0  0  0  0  0  0  0
   -1.9764    3.7868    3.4791 H   0  0  0  0  0  0  0  0  0  0  0  0
   -0.9374    2.4936    4.1095 H   0  0  0  0  0  0  0  0  0  0  0  0
    0.6644   -0.4074   -0.1249 C   0  0  0  0  0  0  0  0  0  0  0  0
    0.3654   -0.9702   -1.1702 O   0  0  0  0  0  0  0  0  0  0  0  0
    2.0315   -0.3690   -0.0119 N   0  0  0  0  0  0  0  0  0  0  0  0
    2.4391   -0.7862   -0.8451 H   0  0  0  0  0  0  0  0  0  0  0  0
    2.5967   -0.8834    1.2315 C   0  0  0  0  0  0  0  0  0  0  0  0
    2.6690   -1.9750    1.1869 H   0  0  0  0  0  0  0  0  0  0  0  0
    3.5987   -0.4724    1.3883 H   0  0  0  0  0  0  0  0  0  0  0  0
    1.9775   -0.6216    2.0957 H   0  0  0  0  0  0  0  0  0  0  0  0
  1  2  1  0  0  0  0
  2  3  1  0  0  0  0
  2  4  1  0  0  0  0
  2  5  1  0  0  0  0
  5  6  2  0  0  0  0
  5  7  1  0  0  0  0
  7  8  1  0  0  0  0
  7  9  1  0  0  0  0
  9 10  1  0  0  0  0
  9 11  1  0  0  0  0
  9 24  1  0  0  0  0
 11 12  1  0  0  0  0
 11 13  1  0  0  0  0
 11 17  1  0  0  0  0
 13 14  1  0  0  0  0
 13 15  1  0  0  0  0
 13 16  1  0  0  0  0
 17 18  1  0  0  0  0
 17 19  1  0  0  0  0
 17 20  1  0  0  0  0
 20 21  1  0  0  0  0
 20 22  1  0  0  0  0
 20 23  1  0  0  0  0
 24 25  2  0  0  0  0
 24 26  1  0  0  0  0
 26 27  1  0  0  0  0
 26 28  1  0  0  0  0
 28 29  1  0  0  0  0
 28 30  1  0  0  0  0
 28 31  1  0  0  0  0
M  END
$$$$

  -OEChem-01062216083D

 31 30  0     1  0  0  0  0  0999 V2000
   -3.0349   -3.1749    1.2817 H   0  0  0  0  0  0  0  0  0  0  0  0
   -3.0837   -2.1695    0.8539 C   0  0  0  0  0  0  0  0  0  0  0  0
   -3.9833   -1.6714    1.2228 H   0  0  0  0  0  0  0  0  0  0  0  0
   -3.1396   -2.2549   -0.2340 H   0  0  0  0  0  0  0  0  0  0  0  0
   -1.8521   -1.3761    1.2469 C   0  0  0  0  0  0  0  0  0  0  0  0
   -1.0944   -1.8168    2.0984 O   0  0  0  0  0  0  0  0  0  0  0  0
   -1.6747   -0.0964    0.7495 N   0  0  0  0  0  0  0  0  0  0  0  0
   -2.3656    0.1632    0.0529 H   0  0  0  0  0  0  0  0  0  0  0  0
   -0.3520    0.5596    0.6052 C   0  0  1  0  0  0  0  0  0  0  0  0
   -0.3685    1.1833   -0.2940 H   0  0  0  0  0  0  0  0  0  0  0  0
   -0.1643    1.5154    1.8322 C   0  0  1  0  0  0  0  0  0  0  0  0
   -0.2634    0.9376    2.7580 H   0  0  0  0  0  0  0  0  0  0  0  0
    1.2134    2.2227    1.8178 C   0  0  0  0  0  0  0  0  0  0  0  0
    1.4991    2.4861    0.7943 H   0  0  0  0  0  0  0  0  0  0  0  0
    1.9877    1.5887    2.2523 H   0  0  0  0  0  0  0  0  0  0  0  0
    1.2128    3.1388    2.4097 H   0  0  0  0  0  0  0  0  0  0  0  0
   -1.2630    2.6172    1.7917 C   0  0  0  0  0  0  0  0  0  0  0  0
   -1.0905    3.2812    0.9383 H   0  0  0  0  0  0  0  0  0  0  0  0
   -2.2445    2.1569    1.6506 H   0  0  0  0  0  0  0  0  0  0  0  0
   -1.3562    3.4543    3.0748 C   0  0  0  0  0  0  0  0  0  0  0  0
   -0.5065    4.1326    3.1821 H   0  0  0  0  0  0  0  0  0  0  0  0
   -2.2654    4.0629    3.0514 H   0  0  0  0  0  0  0  0  0  0  0  0
   -1.4013    2.8027    3.9531 H   0  0  0  0  0  0  0  0  0  0  0  0
    0.7625   -0.5000    0.3304 C   0  0  0  0  0  0  0  0  0  0  0  0
    0.6090   -1.2195   -0.6519 O   0  0  0  0  0  0  0  0  0  0  0  0
    1.9976   -0.5337    0.9507 N   0  0  0  0  0  0  0  0  0  0  0  0
    2.0451   -0.0703    1.8519 H   0  0  0  0  0  0  0  0  0  0  0  0
    3.0015   -1.5486    0.6523 C   0  0  0  0  0  0  0  0  0  0  0  0
    3.3003   -1.4955   -0.3999 H   0  0  0  0  0  0  0  0  0  0  0  0
    3.8911   -1.3929    1.2700 H   0  0  0  0  0  0  0  0  0  0  0  0
    2.6069   -2.5495    0.8568 H   0  0  0  0  0  0  0  0  0  0  0  0
  1  2  1  0  0  0  0
  2  3  1  0  0  0  0
  2  4  1  0  0  0  0
  2  5  1  0  0  0  0
  5  6  2  0  0  0  0
  5  7  1  0  0  0  0
  7  8  1  0  0  0  0
  7  9  1  0  0  0  0
  9 10  1  0  0  0  0
  9 11  1  0  0  0  0
  9 24  1  0  0  0  0
 11 12  1  0  0  0  0
 11 13  1  0  0  0  0
 11 17  1  0  0  0  0
 13 14  1  0  0  0  0
 13 15  1  0  0  0  0
 13 16  1  0  0  0  0
 17 18  1  0  0  0  0
 17 19  1  0  0  0  0
 17 20  1  0  0  0  0
 20 21  1  0  0  0  0
 20 22  1  0  0  0  0
 20 23  1  0  0  0  0
 24 25  2  0  0  0  0
 24 26  1  0  0  0  0
 26 27  1  0  0  0  0
 26 28  1  0  0  0  0
 28 29  1  0  0  0  0
 28 30  1  0  0  0  0
 28 31  1  0  0  0  0
M  END
$$$$

  -OEChem-01062216083D

 31 30  0     1  0  0  0  0  0999 V2000
   -3.0165   -3.1999    1.2889 H   0  0  0  0  0  0  0  0  0  0  0  0
   -3.0722   -2.1948    0.8617 C   0  0  0  0  0  0  0  0  0  0  0  0
   -3.9705   -1.6996    1.2379 H   0  0  0  0  0  0  0  0  0  0  0  0
   -3.1368   -2.2804   -0.2258 H   0  0  0  0  0  0  0  0  0  0  0  0
   -1.8405   -1.3971    1.2454 C   0  0  0  0  0  0  0  0  0  0  0  0
   -1.0655   -1.8455    2.0767 O   0  0  0  0  0  0  0  0  0  0  0  0
   -1.6771   -0.1138    0.7530 N   0  0  0  0  0  0  0  0  0  0  0  0
   -2.3832    0.1525    0.0740 H   0  0  0  0  0  0  0  0  0  0  0  0
   -0.3660    0.5627    0.6037 C   0  0  1  0  0  0  0  0  0  0  0  0
   -0.3987    1.1895   -0.2929 H   0  0  0  0  0  0  0  0  0  0  0  0
   -0.1567    1.5124    1.8288 C   0  0  1  0  0  0  0  0  0  0  0  0
   -0.2198    0.9288    2.7539 H   0  0  0  0  0  0  0  0  0  0  0  0
    1.2066    2.2462    1.7702 C   0  0  0  0  0  0  0  0  0  0  0  0
    1.3516    2.7030    0.7860 H   0  0  0  0  0  0  0  0  0  0  0  0
    1.2703    3.0323    2.5247 H   0  0  0  0  0  0  0  0  0  0  0  0
    2.0445    1.5789    1.9686 H   0  0  0  0  0  0  0  0  0  0  0  0
   -1.2626    2.6060    1.8186 C   0  0  0  0  0  0  0  0  0  0  0  0
   -1.1175    3.2757    0.9645 H   0  0  0  0  0  0  0  0  0  0  0  0
   -2.2433    2.1371    1.7002 H   0  0  0  0  0  0  0  0  0  0  0  0
   -1.3275    3.4341    3.1082 C   0  0  0  0  0  0  0  0  0  0  0  0
   -0.4711    4.1068    3.1993 H   0  0  0  0  0  0  0  0  0  0  0  0
   -2.2339    4.0471    3.1075 H   0  0  0  0  0  0  0  0  0  0  0  0
   -1.3572    2.7771    3.9830 H   0  0  0  0  0  0  0  0  0  0  0  0
    0.7531   -0.4851    0.3204 C   0  0  0  0  0  0  0  0  0  0  0  0
    0.6991   -1.0802   -0.7506 O   0  0  0  0  0  0  0  0  0  0  0  0
    1.8578   -0.6920    1.1250 N   0  0  0  0  0  0  0  0  0  0  0  0
    1.7671   -0.3519    2.0777 H   0  0  0  0  0  0  0  0  0  0  0  0
    2.8288   -1.7477    0.8673 C   0  0  0  0  0  0  0  0  0  0  0  0
    3.2985   -1.6071   -0.1118 H   0  0  0  0  0  0  0  0  0  0  0  0
    3.6130   -1.7334    1.6303 H   0  0  0  0  0  0  0  0  0  0  0  0
    2.3413   -2.7282    0.8872 H   0  0  0  0  0  0  0  0  0  0  0  0
  1  2  1  0  0  0  0
  2  3  1  0  0  0  0
  2  4  1  0  0  0  0
  2  5  1  0  0  0  0
  5  6  2  0  0  0  0
  5  7  1  0  0  0  0
  7  8  1  0  0  0  0
  7  9  1  0  0  0  0
  9 10  1  0  0  0  0
  9 11  1  0  0  0  0
  9 24  1  0  0  0  0
 11 12  1  0  0  0  0
 11 13  1  0  0  0  0
 11 17  1  0  0  0  0
 13 14  1  0  0  0  0
 13 15  1  0  0  0  0
 13 16  1  0  0  0  0
 17 18  1  0  0  0  0
 17 19  1  0  0  0  0
 17 20  1  0  0  0  0
 20 21  1  0  0  0  0
 20 22  1  0  0  0  0
 20 23  1  0  0  0  0
 24 25  2  0  0  0  0
 24 26  1  0  0  0  0
 26 27  1  0  0  0  0
 26 28  1  0  0  0  0
 28 29  1  0  0  0  0
 28 30  1  0  0  0  0
 28 31  1  0  0  0  0
M  END
$$$$

  -OEChem-01062216083D

 31 30  0     1  0  0  0  0  0999 V2000
   -3.0941   -3.1702    1.3314 H   0  0  0  0  0  0  0  0  0  0  0  0
   -3.1186   -2.1786    0.8708 C   0  0  0  0  0  0  0  0  0  0  0  0
   -4.0034   -1.6457    1.2270 H   0  0  0  0  0  0  0  0  0  0  0  0
   -3.1827   -2.2978   -0.2137 H   0  0  0  0  0  0  0  0  0  0  0  0
   -1.8652   -1.4046    1.2322 C   0  0  0  0  0  0  0  0  0  0  0  0
   -1.0900   -1.8639    2.0569 O   0  0  0  0  0  0  0  0  0  0  0  0
   -1.6830   -0.1299    0.7258 N   0  0  0  0  0  0  0  0  0  0  0  0
   -2.3950    0.1507    0.0586 H   0  0  0  0  0  0  0  0  0  0  0  0
   -0.3726    0.5474    0.5821 C   0  0  1  0  0  0  0  0  0  0  0  0
   -0.4015    1.1717   -0.3166 H   0  0  0  0  0  0  0  0  0  0  0  0
   -0.1543    1.4925    1.8044 C   0  0  1  0  0  0  0  0  0  0  0  0
   -0.2100    0.9038    2.7267 H   0  0  0  0  0  0  0  0  0  0  0  0
    1.2133    2.2156    1.7333 C   0  0  0  0  0  0  0  0  0  0  0  0
    1.2839    2.8086    0.8159 H   0  0  0  0  0  0  0  0  0  0  0  0
    1.3469    2.8833    2.5876 H   0  0  0  0  0  0  0  0  0  0  0  0
    2.0541    1.5220    1.7519 H   0  0  0  0  0  0  0  0  0  0  0  0
   -1.2498    2.5936    1.8114 C   0  0  0  0  0  0  0  0  0  0  0  0
   -1.1101    3.2690    0.9608 H   0  0  0  0  0  0  0  0  0  0  0  0
   -2.2352    2.1323    1.7012 H   0  0  0  0  0  0  0  0  0  0  0  0
   -1.2852    3.4073    3.1098 C   0  0  0  0  0  0  0  0  0  0  0  0
   -0.4089    4.0546    3.1995 H   0  0  0  0  0  0  0  0  0  0  0  0
   -2.1751    4.0437    3.1235 H   0  0  0  0  0  0  0  0  0  0  0  0
   -1.3237    2.7416    3.9776 H   0  0  0  0  0  0  0  0  0  0  0  0
    0.7613   -0.4878    0.3267 C   0  0  0  0  0  0  0  0  0  0  0  0
    0.8736   -0.9343   -0.8090 O   0  0  0  0  0  0  0  0  0  0  0  0
    1.6816   -0.8680    1.2871 N   0  0  0  0  0  0  0  0  0  0  0  0
    1.3799   -0.7041    2.2444 H   0  0  0  0  0  0  0  0  0  0  0  0
    2.6464   -1.9358    1.0580 C   0  0  0  0  0  0  0  0  0  0  0  0
    3.2861   -1.6991    0.2013 H   0  0  0  0  0  0  0  0  0  0  0  0
    3.2842   -2.0626    1.9379 H   0  0  0  0  0  0  0  0  0  0  0  0
    2.1299   -2.8816    0.8629 H   0  0  0  0  0  0  0  0  0  0  0  0
  1  2  1  0  0  0  0
  2  3  1  0  0  0  0
  2  4  1  0  0  0  0
  2  5  1  0  0  0  0
  5  6  2  0  0  0  0
  5  7  1  0  0  0  0
  7  8  1  0  0  0  0
  7  9  1  0  0  0  0
  9 10  1  0  0  0  0
  9 11  1  0  0  0  0
  9 24  1  0  0  0  0
 11 12  1  0  0  0  0
 11 13  1  0  0  0  0
 11 17  1  0  0  0  0
 13 14  1  0  0  0  0
 13 15  1  0  0  0  0
 13 16  1  0  0  0  0
 17 18  1  0  0  0  0
 17 19  1  0  0  0  0
 17 20  1  0  0  0  0
 20 21  1  0  0  0  0
 20 22  1  0  0  0  0
 20 23  1  0  0  0  0
 24 25  2  0  0  0  0
 24 26  1  0  0  0  0
 26 27  1  0  0  0  0
 26 28  1  0  0  0  0
 28 29  1  0  0  0  0
 28 30  1  0  0  0  0
 28 31  1  0  0  0  0
M  END
$$$$

  -OEChem-01062216083D

 31 30  0     1  0  0  0  0  0999 V2000
   -3.2226   -3.1316    1.3535 H   0  0  0  0  0  0  0  0  0  0  0  0
   -3.2194   -2.1377    0.8970 C   0  0  0  0  0  0  0  0  0  0  0  0
   -4.0714   -1.5705    1.2797 H   0  0  0  0  0  0  0  0  0  0  0  0
   -3.3194   -2.2499   -0.1854 H   0  0  0  0  0  0  0  0  0  0  0  0
   -1.9263   -1.4162    1.2263 C   0  0  0  0  0  0  0  0  0  0  0  0
   -1.1550   -1.9058    2.0362 O   0  0  0  0  0  0  0  0  0  0  0  0
   -1.7050   -0.1522    0.7104 N   0  0  0  0  0  0  0  0  0  0  0  0
   -2.4268    0.1655    0.0707 H   0  0  0  0  0  0  0  0  0  0  0  0
   -0.3867    0.5099    0.5674 C   0  0  1  0  0  0  0  0  0  0  0  0
   -0.4151    1.1342   -0.3316 H   0  0  0  0  0  0  0  0  0  0  0  0
   -0.1612    1.4540    1.7867 C   0  0  1  0  0  0  0  0  0  0  0  0
   -0.2357    0.8651    2.7076 H   0  0  0  0  0  0  0  0  0  0  0  0
    1.2289    2.1296    1.7297 C   0  0  0  0  0  0  0  0  0  0  0  0
    1.3262    2.7272    0.8179 H   0  0  0  0  0  0  0  0  0  0  0  0
    1.3817    2.7839    2.5912 H   0  0  0  0  0  0  0  0  0  0  0  0
    2.0400    1.3991    1.7465 H   0  0  0  0  0  0  0  0  0  0  0  0
   -1.2382    2.5712    1.7955 C   0  0  0  0  0  0  0  0  0  0  0  0
   -1.0847    3.2465    0.9473 H   0  0  0  0  0  0  0  0  0  0  0  0
   -2.2313    2.1272    1.6828 H   0  0  0  0  0  0  0  0  0  0  0  0
   -1.2574    3.3816    3.0959 C   0  0  0  0  0  0  0  0  0  0  0  0
   -0.3601    3.9984    3.1932 H   0  0  0  0  0  0  0  0  0  0  0  0
   -2.1253    4.0479    3.1049 H   0  0  0  0  0  0  0  0  0  0  0  0
   -1.3244    2.7155    3.9617 H   0  0  0  0  0  0  0  0  0  0  0  0
    0.7744   -0.4966    0.3296 C   0  0  0  0  0  0  0  0  0  0  0  0
    1.0996   -0.7364   -0.8267 O   0  0  0  0  0  0  0  0  0  0  0  0
    1.4959   -1.0646    1.3642 N   0  0  0  0  0  0  0  0  0  0  0  0
    0.9775   -1.1121    2.2408 H   0  0  0  0  0  0  0  0  0  0  0  0
    2.5117   -2.0831    1.1332 C   0  0  0  0  0  0  0  0  0  0  0  0
    3.3001   -1.6979    0.4783 H   0  0  0  0  0  0  0  0  0  0  0  0
    2.9678   -2.3812    2.0819 H   0  0  0  0  0  0  0  0  0  0  0  0
    2.0666   -2.9684    0.6675 H   0  0  0  0  0  0  0  0  0  0  0  0
  1  2  1  0  0  0  0
  2  3  1  0  0  0  0
  2  4  1  0  0  0  0
  2  5  1  0  0  0  0
  5  6  2  0  0  0  0
  5  7  1  0  0  0  0
  7  8  1  0  0  0  0
  7  9  1  0  0  0  0
  9 10  1  0  0  0  0
  9 11  1  0  0  0  0
  9 24  1  0  0  0  0
 11 12  1  0  0  0  0
 11 13  1  0  0  0  0
 11 17  1  0  0  0  0
 13 14  1  0  0  0  0
 13 15  1  0  0  0  0
 13 16  1  0  0  0  0
 17 18  1  0  0  0  0
 17 19  1  0  0  0  0
 17 20  1  0  0  0  0
 20 21  1  0  0  0  0
 20 22  1  0  0  0  0
 20 23  1  0  0  0  0
 24 25  2  0  0  0  0
 24 26  1  0  0  0  0
 26 27  1  0  0  0  0
 26 28  1  0  0  0  0
 28 29  1  0  0  0  0
 28 30  1  0  0  0  0
 28 31  1  0  0  0  0
M  END
$$$$

  -OEChem-01062216083D

 31 30  0     1  0  0  0  0  0999 V2000
   -3.3811   -3.0751    1.3601 H   0  0  0  0  0  0  0  0  0  0  0  0
   -3.3409   -2.0749    0.9193 C   0  0  0  0  0  0  0  0  0  0  0  0
   -4.1544   -1.4742    1.3333 H   0  0  0  0  0  0  0  0  0  0  0  0
   -3.4751   -2.1637   -0.1614 H   0  0  0  0  0  0  0  0  0  0  0  0
   -2.0059   -1.4222    1.2250 C   0  0  0  0  0  0  0  0  0  0  0  0
   -1.2529   -1.9526    2.0247 O   0  0  0  0  0  0  0  0  0  0  0  0
   -1.7295   -0.1748    0.6968 N   0  0  0  0  0  0  0  0  0  0  0  0
   -2.4562    0.1825    0.0841 H   0  0  0  0  0  0  0  0  0  0  0  0
   -0.4009    0.4686    0.5476 C   0  0  1  0  0  0  0  0  0  0  0  0
   -0.4320    1.0938   -0.3509 H   0  0  0  0  0  0  0  0  0  0  0  0
   -0.1699    1.4082    1.7694 C   0  0  1  0  0  0  0  0  0  0  0  0
   -0.2617    0.8172    2.6873 H   0  0  0  0  0  0  0  0  0  0  0  0
    1.2379    2.0455    1.7303 C   0  0  0  0  0  0  0  0  0  0  0  0
    1.3758    2.6116    0.8036 H   0  0  0  0  0  0  0  0  0  0  0  0
    1.3885    2.7211    2.5754 H   0  0  0  0  0  0  0  0  0  0  0  0
    2.0234    1.2877    1.7914 H   0  0  0  0  0  0  0  0  0  0  0  0
   -1.2312    2.5397    1.7823 C   0  0  0  0  0  0  0  0  0  0  0  0
   -1.0636    3.2164    0.9378 H   0  0  0  0  0  0  0  0  0  0  0  0
   -2.2303    2.1113    1.6646 H   0  0  0  0  0  0  0  0  0  0  0  0
   -1.2416    3.3447    3.0864 C   0  0  0  0  0  0  0  0  0  0  0  0
   -0.3344    3.9453    3.1915 H   0  0  0  0  0  0  0  0  0  0  0  0
   -2.0981    4.0256    3.0946 H   0  0  0  0  0  0  0  0  0  0  0  0
   -1.3244    2.6757    3.9485 H   0  0  0  0  0  0  0  0  0  0  0  0
    0.7908   -0.5046    0.3260 C   0  0  0  0  0  0  0  0  0  0  0  0
    1.3116   -0.5373   -0.7820 O   0  0  0  0  0  0  0  0  0  0  0  0
    1.3307   -1.2706    1.3419 N   0  0  0  0  0  0  0  0  0  0  0  0
    0.6790   -1.4532    2.1082 H   0  0  0  0  0  0  0  0  0  0  0  0
    2.3941   -2.2393    1.1138 C   0  0  0  0  0  0  0  0  0  0  0  0
    3.2801   -1.7462    0.7007 H   0  0  0  0  0  0  0  0  0  0  0  0
    2.6754   -2.7175    2.0568 H   0  0  0  0  0  0  0  0  0  0  0  0
    2.0628   -3.0139    0.4147 H   0  0  0  0  0  0  0  0  0  0  0  0
  1  2  1  0  0  0  0
  2  3  1  0  0  0  0
  2  4  1  0  0  0  0
  2  5  1  0  0  0  0
  5  6  2  0  0  0  0
  5  7  1  0  0  0  0
  7  8  1  0  0  0  0
  7  9  1  0  0  0  0
  9 10  1  0  0  0  0
  9 11  1  0  0  0  0
  9 24  1  0  0  0  0
 11 12  1  0  0  0  0
 11 13  1  0  0  0  0
 11 17  1  0  0  0  0
 13 14  1  0  0  0  0
 13 15  1  0  0  0  0
 13 16  1  0  0  0  0
 17 18  1  0  0  0  0
 17 19  1  0  0  0  0
 17 20  1  0  0  0  0
 20 21  1  0  0  0  0
 20 22  1  0  0  0  0
 20 23  1  0  0  0  0
 24 25  2  0  0  0  0
 24 26  1  0  0  0  0
 26 27  1  0  0  0  0
 26 28  1  0  0  0  0
 28 29  1  0  0  0  0
 28 30  1  0  0  0  0
 28 31  1  0  0  0  0
M  END
$$$$

  -OEChem-01062216083D

 31 30  0     1  0  0  0  0  0999 V2000
   -3.5379   -3.0015    1.3878 H   0  0  0  0  0  0  0  0  0  0  0  0
   -3.4502   -2.0066    0.9416 C   0  0  0  0  0  0  0  0  0  0  0  0
   -4.2269   -1.3629    1.3619 H   0  0  0  0  0  0  0  0  0  0  0  0
   -3.6008   -2.0932   -0.1372 H   0  0  0  0  0  0  0  0  0  0  0  0
   -2.0802   -1.4221    1.2304 C   0  0  0  0  0  0  0  0  0  0  0  0
   -1.3536   -1.9883    2.0286 O   0  0  0  0  0  0  0  0  0  0  0  0
   -1.7511   -0.1921    0.6917 N   0  0  0  0  0  0  0  0  0  0  0  0
   -2.4787    0.2001    0.1016 H   0  0  0  0  0  0  0  0  0  0  0  0
   -0.4115    0.4309    0.5326 C   0  0  1  0  0  0  0  0  0  0  0  0
   -0.4458    1.0553   -0.3664 H   0  0  0  0  0  0  0  0  0  0  0  0
   -0.1817    1.3700    1.7566 C   0  0  1  0  0  0  0  0  0  0  0  0
   -0.2947    0.7765    2.6707 H   0  0  0  0  0  0  0  0  0  0  0  0
    1.2375    1.9817    1.7504 C   0  0  0  0  0  0  0  0  0  0  0  0
    1.4120    2.5357    0.8226 H   0  0  0  0  0  0  0  0  0  0  0  0
    1.3782    2.6621    2.5932 H   0  0  0  0  0  0  0  0  0  0  0  0
    2.0047    1.2076    1.8425 H   0  0  0  0  0  0  0  0  0  0  0  0
   -1.2317    2.5124    1.7642 C   0  0  0  0  0  0  0  0  0  0  0  0
   -1.0489    3.1881    0.9222 H   0  0  0  0  0  0  0  0  0  0  0  0
   -2.2351    2.0966    1.6381 H   0  0  0  0  0  0  0  0  0  0  0  0
   -1.2429    3.3168    3.0685 C   0  0  0  0  0  0  0  0  0  0  0  0
   -0.3335    3.9139    3.1760 H   0  0  0  0  0  0  0  0  0  0  0  0
   -2.0964    4.0014    3.0743 H   0  0  0  0  0  0  0  0  0  0  0  0
   -1.3308    2.6480    3.9305 H   0  0  0  0  0  0  0  0  0  0  0  0
    0.8061   -0.5139    0.3199 C   0  0  0  0  0  0  0  0  0  0  0  0
    1.4733   -0.3668   -0.6968 O   0  0  0  0  0  0  0  0  0  0  0  0
    1.1980   -1.4791    1.2259 N   0  0  0  0  0  0  0  0  0  0  0  0
    0.4947   -1.7243    1.9272 H   0  0  0  0  0  0  0  0  0  0  0  0
    2.2839   -2.4172    0.9780 C   0  0  0  0  0  0  0  0  0  0  0  0
    3.2194   -1.8796    0.7902 H   0  0  0  0  0  0  0  0  0  0  0  0
    2.4278   -3.0637    1.8489 H   0  0  0  0  0  0  0  0  0  0  0  0
    2.0565   -3.0455    0.1107 H   0  0  0  0  0  0  0  0  0  0  0  0
  1  2  1  0  0  0  0
  2  3  1  0  0  0  0
  2  4  1  0  0  0  0
  2  5  1  0  0  0  0
  5  6  2  0  0  0  0
  5  7  1  0  0  0  0
  7  8  1  0  0  0  0
  7  9  1  0  0  0  0
  9 10  1  0  0  0  0
  9 11  1  0  0  0  0
  9 24  1  0  0  0  0
 11 12  1  0  0  0  0
 11 13  1  0  0  0  0
 11 17  1  0  0  0  0
 13 14  1  0  0  0  0
 13 15  1  0  0  0  0
 13 16  1  0  0  0  0
 17 18  1  0  0  0  0
 17 19  1  0  0  0  0
 17 20  1  0  0  0  0
 20 21  1  0  0  0  0
 20 22  1  0  0  0  0
 20 23  1  0  0  0  0
 24 25  2  0  0  0  0
 24 26  1  0  0  0  0
 26 27  1  0  0  0  0
 26 28  1  0  0  0  0
 28 29  1  0  0  0  0
 28 30  1  0  0  0  0
 28 31  1  0  0  0  0
M  END
$$$$

  -OEChem-01062216083D

 31 30  0     1  0  0  0  0  0999 V2000
   -3.6567   -2.9393    1.4038 H   0  0  0  0  0  0  0  0  0  0  0  0
   -3.5365   -1.9475    0.9584 C   0  0  0  0  0  0  0  0  0  0  0  0
   -4.2868   -1.2770    1.3846 H   0  0  0  0  0  0  0  0  0  0  0  0
   -3.6970   -2.0267   -0.1195 H   0  0  0  0  0  0  0  0  0  0  0  0
   -2.1447   -1.4124    1.2390 C   0  0  0  0  0  0  0  0  0  0  0  0
   -1.4395   -2.0007    2.0399 O   0  0  0  0  0  0  0  0  0  0  0  0
   -1.7774   -0.1964    0.6935 N   0  0  0  0  0  0  0  0  0  0  0  0
   -2.5040    0.2206    0.1195 H   0  0  0  0  0  0  0  0  0  0  0  0
   -0.4275    0.4038    0.5189 C   0  0  1  0  0  0  0  0  0  0  0  0
   -0.4647    1.0288   -0.3794 H   0  0  0  0  0  0  0  0  0  0  0  0
   -0.1897    1.3393    1.7464 C   0  0  1  0  0  0  0  0  0  0  0  0
   -0.3120    0.7434    2.6579 H   0  0  0  0  0  0  0  0  0  0  0  0
    1.2355    1.9367    1.7533 C   0  0  0  0  0  0  0  0  0  0  0  0
    1.4250    2.4861    0.8257 H   0  0  0  0  0  0  0  0  0  0  0  0
    1.3758    2.6181    2.5952 H   0  0  0  0  0  0  0  0  0  0  0  0
    1.9929    1.1541    1.8561 H   0  0  0  0  0  0  0  0  0  0  0  0
   -1.2282    2.4934    1.7564 C   0  0  0  0  0  0  0  0  0  0  0  0
   -1.0368    3.1692    0.9163 H   0  0  0  0  0  0  0  0  0  0  0  0
   -2.2364    2.0902    1.6282 H   0  0  0  0  0  0  0  0  0  0  0  0
   -1.2334    3.2957    3.0621 C   0  0  0  0  0  0  0  0  0  0  0  0
   -0.3193    3.8849    3.1721 H   0  0  0  0  0  0  0  0  0  0  0  0
   -2.0809    3.9877    3.0678 H   0  0  0  0  0  0  0  0  0  0  0  0
   -1.3286    2.6257    3.9223 H   0  0  0  0  0  0  0  0  0  0  0  0
    0.7972   -0.5342    0.2993 C   0  0  0  0  0  0  0  0  0  0  0  0
    1.5738   -0.2466   -0.6037 O   0  0  0  0  0  0  0  0  0  0  0  0
    1.0577   -1.6795    1.0234 N   0  0  0  0  0  0  0  0  0  0  0  0
    0.3443   -1.9585    1.7008 H   0  0  0  0  0  0  0  0  0  0  0  0
    2.1743   -2.5776    0.7635 C   0  0  0  0  0  0  0  0  0  0  0  0
    3.1243   -2.0376    0.8339 H   0  0  0  0  0  0  0  0  0  0  0  0
    2.1833   -3.3884    1.4981 H   0  0  0  0  0  0  0  0  0  0  0  0
    2.0892   -3.0154   -0.2363 H   0  0  0  0  0  0  0  0  0  0  0  0
  1  2  1  0  0  0  0
  2  3  1  0  0  0  0
  2  4  1  0  0  0  0
  2  5  1  0  0  0  0
  5  6  2  0  0  0  0
  5  7  1  0  0  0  0
  7  8  1  0  0  0  0
  7  9  1  0  0  0  0
  9 10  1  0  0  0  0
  9 11  1  0  0  0  0
  9 24  1  0  0  0  0
 11 12  1  0  0  0  0
 11 13  1  0  0  0  0
 11 17  1  0  0  0  0
 13 14  1  0  0  0  0
 13 15  1  0  0  0  0
 13 16  1  0  0  0  0
 17 18  1  0  0  0  0
 17 19  1  0  0  0  0
 17 20  1  0  0  0  0
 20 21  1  0  0  0  0
 20 22  1  0  0  0  0
 20 23  1  0  0  0  0
 24 25  2  0  0  0  0
 24 26  1  0  0  0  0
 26 27  1  0  0  0  0
 26 28  1  0  0  0  0
 28 29  1  0  0  0  0
 28 30  1  0  0  0  0
 28 31  1  0  0  0  0
M  END
$$$$

  -OEChem-01062216083D

 31 30  0     1  0  0  0  0  0999 V2000
   -2.9696   -2.5408   -0.1632 H   0  0  0  0  0  0  0  0  0  0  0  0
   -3.0183   -2.2783    0.8963 C   0  0  0  0  0  0  0  0  0  0  0  0
   -3.9038   -1.6628    1.0732 H   0  0  0  0  0  0  0  0  0  0  0  0
   -3.1067   -3.1979    1.4820 H   0  0  0  0  0  0  0  0  0  0  0  0
   -1.7687   -1.5191    1.3014 C   0  0  0  0  0  0  0  0  0  0  0  0
   -1.1110   -1.9210    2.2431 O   0  0  0  0  0  0  0  0  0  0  0  0
   -1.5122   -0.2921    0.7242 N   0  0  0  0  0  0  0  0  0  0  0  0
   -2.2215   -0.0071    0.0565 H   0  0  0  0  0  0  0  0  0  0  0  0
   -0.2187    0.4294    0.6034 C   0  0  1  0  0  0  0  0  0  0  0  0
   -0.2646    1.0212   -0.3162 H   0  0  0  0  0  0  0  0  0  0  0  0
   -0.2008    1.4238    1.8162 C   0  0  1  0  0  0  0  0  0  0  0  0
   -0.3452    0.8385    2.7315 H   0  0  0  0  0  0  0  0  0  0  0  0
    1.1347    2.1866    1.9607 C   0  0  0  0  0  0  0  0  0  0  0  0
    1.3701    2.7275    1.0386 H   0  0  0  0  0  0  0  0  0  0  0  0
    1.0981    2.9035    2.7835 H   0  0  0  0  0  0  0  0  0  0  0  0
    1.9555    1.4998    2.1860 H   0  0  0  0  0  0  0  0  0  0  0  0
   -1.3614    2.4515    1.6933 C   0  0  0  0  0  0  0  0  0  0  0  0
   -1.1711    3.1215    0.8484 H   0  0  0  0  0  0  0  0  0  0  0  0
   -2.3031    1.9340    1.4931 H   0  0  0  0  0  0  0  0  0  0  0  0
   -1.5788    3.2850    2.9612 C   0  0  0  0  0  0  0  0  0  0  0  0
   -0.7647    3.9981    3.1142 H   0  0  0  0  0  0  0  0  0  0  0  0
   -2.5097    3.8535    2.8756 H   0  0  0  0  0  0  0  0  0  0  0  0
   -1.6507    2.6351    3.8391 H   0  0  0  0  0  0  0  0  0  0  0  0
    1.1349   -0.3507    0.4836 C   0  0  0  0  0  0  0  0  0  0  0  0
    2.0741    0.1926   -0.0798 O   0  0  0  0  0  0  0  0  0  0  0  0
    1.5140   -1.5777    0.9744 N   0  0  0  0  0  0  0  0  0  0  0  0
    2.5245   -1.5891    1.0806 H   0  0  0  0  0  0  0  0  0  0  0  0
    1.0095   -2.7873    0.3359 C   0  0  0  0  0  0  0  0  0  0  0  0
    1.8061   -3.2574   -0.2491 H   0  0  0  0  0  0  0  0  0  0  0  0
    0.6684   -3.5013    1.0922 H   0  0  0  0  0  0  0  0  0  0  0  0
    0.1787   -2.5699   -0.3425 H   0  0  0  0  0  0  0  0  0  0  0  0
  1  2  1  0  0  0  0
  2  3  1  0  0  0  0
  2  4  1  0  0  0  0
  2  5  1  0  0  0  0
  5  6  2  0  0  0  0
  5  7  1  0  0  0  0
  7  8  1  0  0  0  0
  7  9  1  0  0  0  0
  9 10  1  0  0  0  0
  9 11  1  0  0  0  0
  9 24  1  0  0  0  0
 11 12  1  0  0  0  0
 11 13  1  0  0  0  0
 11 17  1  0  0  0  0
 13 14  1  0  0  0  0
 13 15  1  0  0  0  0
 13 16  1  0  0  0  0
 17 18  1  0  0  0  0
 17 19  1  0  0  0  0
 17 20  1  0  0  0  0
 20 21  1  0  0  0  0
 20 22  1  0  0  0  0
 20 23  1  0  0  0  0
 24 25  2  0  0  0  0
 24 26  1  0  0  0  0
 26 27  1  0  0  0  0
 26 28  1  0  0  0  0
 28 29  1  0  0  0  0
 28 30  1  0  0  0  0
 28 31  1  0  0  0  0
M  END
$$$$

  -OEChem-01062216083D

 31 30  0     1  0  0  0  0  0999 V2000
   -3.3942   -3.1693    1.2644 H   0  0  0  0  0  0  0  0  0  0  0  0
   -3.4015   -2.1483    0.8723 C   0  0  0  0  0  0  0  0  0  0  0  0
   -4.2235   -1.5977    1.3361 H   0  0  0  0  0  0  0  0  0  0  0  0
   -3.5612   -2.1899   -0.2078 H   0  0  0  0  0  0  0  0  0  0  0  0
   -2.0821   -1.4636    1.1758 C   0  0  0  0  0  0  0  0  0  0  0  0
   -1.3298   -1.9657    1.9896 O   0  0  0  0  0  0  0  0  0  0  0  0
   -1.8742   -0.1773    0.7222 N   0  0  0  0  0  0  0  0  0  0  0  0
   -2.6752    0.1833    0.2137 H   0  0  0  0  0  0  0  0  0  0  0  0
   -0.5909    0.4741    0.3531 C   0  0  1  0  0  0  0  0  0  0  0  0
   -0.8150    1.2053   -0.4306 H   0  0  0  0  0  0  0  0  0  0  0  0
   -0.1186    1.2587    1.6197 C   0  0  1  0  0  0  0  0  0  0  0  0
   -0.0587    0.5523    2.4553 H   0  0  0  0  0  0  0  0  0  0  0  0
    1.2789    1.8907    1.4304 C   0  0  0  0  0  0  0  0  0  0  0  0
    1.2847    2.5547    0.5599 H   0  0  0  0  0  0  0  0  0  0  0  0
    1.5756    2.4680    2.3088 H   0  0  0  0  0  0  0  0  0  0  0  0
    2.0448    1.1226    1.2892 H   0  0  0  0  0  0  0  0  0  0  0  0
   -1.1403    2.3719    1.9789 C   0  0  0  0  0  0  0  0  0  0  0  0
   -1.1232    3.1508    1.2094 H   0  0  0  0  0  0  0  0  0  0  0  0
   -2.1517    1.9573    2.0014 H   0  0  0  0  0  0  0  0  0  0  0  0
   -0.8914    3.0077    3.3512 C   0  0  0  0  0  0  0  0  0  0  0  0
    0.0204    3.6105    3.3519 H   0  0  0  0  0  0  0  0  0  0  0  0
   -1.7273    3.6638    3.6121 H   0  0  0  0  0  0  0  0  0  0  0  0
   -0.8059    2.2347    4.1214 H   0  0  0  0  0  0  0  0  0  0  0  0
    0.5779   -0.3854   -0.2271 C   0  0  0  0  0  0  0  0  0  0  0  0
    1.1895    0.0870   -1.1738 O   0  0  0  0  0  0  0  0  0  0  0  0
    0.7413   -1.7490   -0.2157 N   0  0  0  0  0  0  0  0  0  0  0  0
    1.2096   -2.0280   -1.0737 H   0  0  0  0  0  0  0  0  0  0  0  0
    1.3334   -2.3527    0.9729 C   0  0  0  0  0  0  0  0  0  0  0  0
    1.2293   -1.7042    1.8498 H   0  0  0  0  0  0  0  0  0  0  0  0
    0.8505   -3.3105    1.1908 H   0  0  0  0  0  0  0  0  0  0  0  0
    2.4009   -2.5305    0.8096 H   0  0  0  0  0  0  0  0  0  0  0  0
  1  2  1  0  0  0  0
  2  3  1  0  0  0  0
  2  4  1  0  0  0  0
  2  5  1  0  0  0  0
  5  6  2  0  0  0  0
  5  7  1  0  0  0  0
  7  8  1  0  0  0  0
  7  9  1  0  0  0  0
  9 10  1  0  0  0  0
  9 11  1  0  0  0  0
  9 24  1  0  0  0  0
 11 12  1  0  0  0  0
 11 13  1  0  0  0  0
 11 17  1  0  0  0  0
 13 14  1  0  0  0  0
 13 15  1  0  0  0  0
 13 16  1  0  0  0  0
 17 18  1  0  0  0  0
 17 19  1  0  0  0  0
 17 20  1  0  0  0  0
 20 21  1  0  0  0  0
 20 22  1  0  0  0  0
 20 23  1  0  0  0  0
 24 25  2  0  0  0  0
 24 26  1  0  0  0  0
 26 27  1  0  0  0  0
 26 28  1  0  0  0  0
 28 29  1  0  0  0  0
 28 30  1  0  0  0  0
 28 31  1  0  0  0  0
M  END
$$$$

  -OEChem-01062216083D

 31 30  0     1  0  0  0  0  0999 V2000
   -3.7312   -2.8324    1.5096 H   0  0  0  0  0  0  0  0  0  0  0  0
   -3.5923   -1.8419    1.0668 C   0  0  0  0  0  0  0  0  0  0  0  0
   -4.2505   -1.1339    1.5762 H   0  0  0  0  0  0  0  0  0  0  0  0
   -3.8665   -1.8896    0.0102 H   0  0  0  0  0  0  0  0  0  0  0  0
   -2.1474   -1.4017    1.2096 C   0  0  0  0  0  0  0  0  0  0  0  0
   -1.3841   -2.0848    1.8698 O   0  0  0  0  0  0  0  0  0  0  0  0
   -1.7649   -0.1869    0.6726 N   0  0  0  0  0  0  0  0  0  0  0  0
   -2.5203    0.3108    0.2112 H   0  0  0  0  0  0  0  0  0  0  0  0
   -0.4084    0.3917    0.4641 C   0  0  1  0  0  0  0  0  0  0  0  0
   -0.4535    1.0289   -0.4247 H   0  0  0  0  0  0  0  0  0  0  0  0
   -0.1841    1.3119    1.7164 C   0  0  1  0  0  0  0  0  0  0  0  0
   -0.3258    0.6964    2.6120 H   0  0  0  0  0  0  0  0  0  0  0  0
    1.2348    1.9152    1.7959 C   0  0  0  0  0  0  0  0  0  0  0  0
    1.4690    2.4697    0.8816 H   0  0  0  0  0  0  0  0  0  0  0  0
    1.3362    2.5914    2.6470 H   0  0  0  0  0  0  0  0  0  0  0  0
    1.9840    1.1307    1.9354 H   0  0  0  0  0  0  0  0  0  0  0  0
   -1.2301    2.4639    1.7365 C   0  0  0  0  0  0  0  0  0  0  0  0
   -1.0303    3.1528    0.9092 H   0  0  0  0  0  0  0  0  0  0  0  0
   -2.2370    2.0646    1.5911 H   0  0  0  0  0  0  0  0  0  0  0  0
   -1.2578    3.2496    3.0525 C   0  0  0  0  0  0  0  0  0  0  0  0
   -0.3567    3.8560    3.1747 H   0  0  0  0  0  0  0  0  0  0  0  0
   -2.1185    3.9252    3.0618 H   0  0  0  0  0  0  0  0  0  0  0  0
   -1.3449    2.5678    3.9042 H   0  0  0  0  0  0  0  0  0  0  0  0
    0.8048   -0.5577    0.1891 C   0  0  0  0  0  0  0  0  0  0  0  0
    1.8154   -0.0672   -0.3017 O   0  0  0  0  0  0  0  0  0  0  0  0
    0.7169   -1.9358    0.1249 N   0  0  0  0  0  0  0  0  0  0  0  0
   -0.0353   -2.3405    0.6837 H   0  0  0  0  0  0  0  0  0  0  0  0
    1.8436   -2.7961   -0.2168 C   0  0  0  0  0  0  0  0  0  0  0  0
    2.6686   -2.6449    0.4870 H   0  0  0  0  0  0  0  0  0  0  0  0
    1.5403   -3.8466   -0.1762 H   0  0  0  0  0  0  0  0  0  0  0  0
    2.1992   -2.5804   -1.2298 H   0  0  0  0  0  0  0  0  0  0  0  0
  1  2  1  0  0  0  0
  2  3  1  0  0  0  0
  2  4  1  0  0  0  0
  2  5  1  0  0  0  0
  5  6  2  0  0  0  0
  5  7  1  0  0  0  0
  7  8  1  0  0  0  0
  7  9  1  0  0  0  0
  9 10  1  0  0  0  0
  9 11  1  0  0  0  0
  9 24  1  0  0  0  0
 11 12  1  0  0  0  0
 11 13  1  0  0  0  0
 11 17  1  0  0  0  0
 13 14  1  0  0  0  0
 13 15  1  0  0  0  0
 13 16  1  0  0  0  0
 17 18  1  0  0  0  0
 17 19  1  0  0  0  0
 17 20  1  0  0  0  0
 20 21  1  0  0  0  0
 20 22  1  0  0  0  0
 20 23  1  0  0  0  0
 24 25  2  0  0  0  0
 24 26  1  0  0  0  0
 26 27  1  0  0  0  0
 26 28  1  0  0  0  0
 28 29  1  0  0  0  0
 28 30  1  0  0  0  0
 28 31  1  0  0  0  0
M  END
$$$$

  -OEChem-01062216083D

 31 30  0     1  0  0  0  0  0999 V2000
   -3.6862   -2.8199    1.5567 H   0  0  0  0  0  0  0  0  0  0  0  0
   -3.5528   -1.8247    1.1227 C   0  0  0  0  0  0  0  0  0  0  0  0
   -4.1553   -1.1110    1.6900 H   0  0  0  0  0  0  0  0  0  0  0  0
   -3.9012   -1.8446    0.0871 H   0  0  0  0  0  0  0  0  0  0  0  0
   -2.0904   -1.4232    1.1721 C   0  0  0  0  0  0  0  0  0  0  0  0
   -1.2911   -2.1647    1.7155 O   0  0  0  0  0  0  0  0  0  0  0  0
   -1.7184   -0.1963    0.6549 N   0  0  0  0  0  0  0  0  0  0  0  0
   -2.4894    0.3421    0.2719 H   0  0  0  0  0  0  0  0  0  0  0  0
   -0.3656    0.3956    0.4599 C   0  0  1  0  0  0  0  0  0  0  0  0
   -0.4048    1.0345   -0.4276 H   0  0  0  0  0  0  0  0  0  0  0  0
   -0.1718    1.3190    1.7188 C   0  0  1  0  0  0  0  0  0  0  0  0
   -0.3218    0.7013    2.6116 H   0  0  0  0  0  0  0  0  0  0  0  0
    1.2340    1.9470    1.8319 C   0  0  0  0  0  0  0  0  0  0  0  0
    1.4945    2.4768    0.9101 H   0  0  0  0  0  0  0  0  0  0  0  0
    1.2976    2.6503    2.6643 H   0  0  0  0  0  0  0  0  0  0  0  0
    1.9868    1.1778    2.0255 H   0  0  0  0  0  0  0  0  0  0  0  0
   -1.2353    2.4567    1.7204 C   0  0  0  0  0  0  0  0  0  0  0  0
   -1.0322    3.1470    0.8949 H   0  0  0  0  0  0  0  0  0  0  0  0
   -2.2339    2.0430    1.5599 H   0  0  0  0  0  0  0  0  0  0  0  0
   -1.2997    3.2455    3.0337 C   0  0  0  0  0  0  0  0  0  0  0  0
   -0.4179    3.8780    3.1650 H   0  0  0  0  0  0  0  0  0  0  0  0
   -2.1788    3.8970    3.0306 H   0  0  0  0  0  0  0  0  0  0  0  0
   -1.3778    2.5641    3.8865 H   0  0  0  0  0  0  0  0  0  0  0  0
    0.8395   -0.5637    0.1763 C   0  0  0  0  0  0  0  0  0  0  0  0
    1.9273   -0.0801   -0.1145 O   0  0  0  0  0  0  0  0  0  0  0  0
    0.6649   -1.8852   -0.1949 N   0  0  0  0  0  0  0  0  0  0  0  0
   -0.1365   -2.3319    0.2511 H   0  0  0  0  0  0  0  0  0  0  0  0
    1.7690   -2.7498   -0.5963 C   0  0  0  0  0  0  0  0  0  0  0  0
    2.5146   -2.8165    0.2030 H   0  0  0  0  0  0  0  0  0  0  0  0
    1.3989   -3.7565   -0.8120 H   0  0  0  0  0  0  0  0  0  0  0  0
    2.2526   -2.3617   -1.4989 H   0  0  0  0  0  0  0  0  0  0  0  0
  1  2  1  0  0  0  0
  2  3  1  0  0  0  0
  2  4  1  0  0  0  0
  2  5  1  0  0  0  0
  5  6  2  0  0  0  0
  5  7  1  0  0  0  0
  7  8  1  0  0  0  0
  7  9  1  0  0  0  0
  9 10  1  0  0  0  0
  9 11  1  0  0  0  0
  9 24  1  0  0  0  0
 11 12  1  0  0  0  0
 11 13  1  0  0  0  0
 11 17  1  0  0  0  0
 13 14  1  0  0  0  0
 13 15  1  0  0  0  0
 13 16  1  0  0  0  0
 17 18  1  0  0  0  0
 17 19  1  0  0  0  0
 17 20  1  0  0  0  0
 20 21  1  0  0  0  0
 20 22  1  0  0  0  0
 20 23  1  0  0  0  0
 24 25  2  0  0  0  0
 24 26  1  0  0  0  0
 26 27  1  0  0  0  0
 26 28  1  0  0  0  0
 28 29  1  0  0  0  0
 28 30  1  0  0  0  0
 28 31  1  0  0  0  0
M  END
$$$$

  -OEChem-01062216083D

 31 30  0     1  0  0  0  0  0999 V2000
   -3.6103   -2.8250    1.5875 H   0  0  0  0  0  0  0  0  0  0  0  0
   -3.4882   -1.8225    1.1672 C   0  0  0  0  0  0  0  0  0  0  0  0
   -4.0321   -1.1115    1.7940 H   0  0  0  0  0  0  0  0  0  0  0  0
   -3.9125   -1.8101    0.1602 H   0  0  0  0  0  0  0  0  0  0  0  0
   -2.0183   -1.4502    1.1169 C   0  0  0  0  0  0  0  0  0  0  0  0
   -1.1917   -2.2485    1.5183 O   0  0  0  0  0  0  0  0  0  0  0  0
   -1.6633   -0.2050    0.6314 N   0  0  0  0  0  0  0  0  0  0  0  0
   -2.4493    0.3777    0.3599 H   0  0  0  0  0  0  0  0  0  0  0  0
   -0.3165    0.4067    0.4604 C   0  0  1  0  0  0  0  0  0  0  0  0
   -0.3475    1.0509   -0.4233 H   0  0  0  0  0  0  0  0  0  0  0  0
   -0.1547    1.3286    1.7271 C   0  0  1  0  0  0  0  0  0  0  0  0
   -0.3044    0.7081    2.6179 H   0  0  0  0  0  0  0  0  0  0  0  0
    1.2338    1.9927    1.8562 C   0  0  0  0  0  0  0  0  0  0  0  0
    1.5220    2.4688    0.9138 H   0  0  0  0  0  0  0  0  0  0  0  0
    1.2550    2.7477    2.6435 H   0  0  0  0  0  0  0  0  0  0  0  0
    1.9908    1.2527    2.1293 H   0  0  0  0  0  0  0  0  0  0  0  0
   -1.2382    2.4489    1.7106 C   0  0  0  0  0  0  0  0  0  0  0  0
   -1.0328    3.1427    0.8886 H   0  0  0  0  0  0  0  0  0  0  0  0
   -2.2266    2.0189    1.5327 H   0  0  0  0  0  0  0  0  0  0  0  0
   -1.3434    3.2376    3.0219 C   0  0  0  0  0  0  0  0  0  0  0  0
   -0.4863    3.9010    3.1634 H   0  0  0  0  0  0  0  0  0  0  0  0
   -2.2443    3.8586    3.0072 H   0  0  0  0  0  0  0  0  0  0  0  0
   -1.4085    2.5552    3.8750 H   0  0  0  0  0  0  0  0  0  0  0  0
    0.8725   -0.5703    0.1647 C   0  0  0  0  0  0  0  0  0  0  0  0
    2.0297   -0.1707    0.1511 O   0  0  0  0  0  0  0  0  0  0  0  0
    0.6477   -1.7545   -0.5165 N   0  0  0  0  0  0  0  0  0  0  0  0
   -0.2312   -2.1989   -0.2574 H   0  0  0  0  0  0  0  0  0  0  0  0
    1.7298   -2.6385   -0.9360 C   0  0  0  0  0  0  0  0  0  0  0  0
    2.3183   -2.9615   -0.0709 H   0  0  0  0  0  0  0  0  0  0  0  0
    1.3208   -3.5255   -1.4289 H   0  0  0  0  0  0  0  0  0  0  0  0
    2.3923   -2.1281   -1.6429 H   0  0  0  0  0  0  0  0  0  0  0  0
  1  2  1  0  0  0  0
  2  3  1  0  0  0  0
  2  4  1  0  0  0  0
  2  5  1  0  0  0  0
  5  6  2  0  0  0  0
  5  7  1  0  0  0  0
  7  8  1  0  0  0  0
  7  9  1  0  0  0  0
  9 10  1  0  0  0  0
  9 11  1  0  0  0  0
  9 24  1  0  0  0  0
 11 12  1  0  0  0  0
 11 13  1  0  0  0  0
 11 17  1  0  0  0  0
 13 14  1  0  0  0  0
 13 15  1  0  0  0  0
 13 16  1  0  0  0  0
 17 18  1  0  0  0  0
 17 19  1  0  0  0  0
 17 20  1  0  0  0  0
 20 21  1  0  0  0  0
 20 22  1  0  0  0  0
 20 23  1  0  0  0  0
 24 25  2  0  0  0  0
 24 26  1  0  0  0  0
 26 27  1  0  0  0  0
 26 28  1  0  0  0  0
 28 29  1  0  0  0  0
 28 30  1  0  0  0  0
 28 31  1  0  0  0  0
M  END
$$$$

  -OEChem-01062216083D

 31 30  0     1  0  0  0  0  0999 V2000
   -3.4763   -2.9031    1.5439 H   0  0  0  0  0  0  0  0  0  0  0  0
   -3.3895   -1.8860    1.1505 C   0  0  0  0  0  0  0  0  0  0  0  0
   -3.9196   -1.2051    1.8210 H   0  0  0  0  0  0  0  0  0  0  0  0
   -3.8547   -1.8506    0.1625 H   0  0  0  0  0  0  0  0  0  0  0  0
   -1.9291   -1.4853    1.0532 C   0  0  0  0  0  0  0  0  0  0  0  0
   -1.0755   -2.2918    1.3699 O   0  0  0  0  0  0  0  0  0  0  0  0
   -1.6182   -0.2097    0.6145 N   0  0  0  0  0  0  0  0  0  0  0  0
   -2.4236    0.3817    0.4341 H   0  0  0  0  0  0  0  0  0  0  0  0
   -0.2865    0.4392    0.4744 C   0  0  1  0  0  0  0  0  0  0  0  0
   -0.3209    1.0969   -0.3991 H   0  0  0  0  0  0  0  0  0  0  0  0
   -0.1345    1.3544    1.7441 C   0  0  1  0  0  0  0  0  0  0  0  0
   -0.2565    0.7335    2.6387 H   0  0  0  0  0  0  0  0  0  0  0  0
    1.2395    2.0601    1.8307 C   0  0  0  0  0  0  0  0  0  0  0  0
    1.5373    2.4439    0.8499 H   0  0  0  0  0  0  0  0  0  0  0  0
    1.2341    2.8933    2.5343 H   0  0  0  0  0  0  0  0  0  0  0  0
    2.0065    1.3701    2.1914 H   0  0  0  0  0  0  0  0  0  0  0  0
   -1.2392    2.4537    1.7295 C   0  0  0  0  0  0  0  0  0  0  0  0
   -1.0486    3.1533    0.9086 H   0  0  0  0  0  0  0  0  0  0  0  0
   -2.2180    2.0027    1.5510 H   0  0  0  0  0  0  0  0  0  0  0  0
   -1.3608    3.2380    3.0428 C   0  0  0  0  0  0  0  0  0  0  0  0
   -0.5196    3.9198    3.1882 H   0  0  0  0  0  0  0  0  0  0  0  0
   -2.2750    3.8389    3.0297 H   0  0  0  0  0  0  0  0  0  0  0  0
   -1.4115    2.5522    3.8940 H   0  0  0  0  0  0  0  0  0  0  0  0
    0.8869   -0.5451    0.1497 C   0  0  0  0  0  0  0  0  0  0  0  0
    2.0378   -0.3784    0.5289 O   0  0  0  0  0  0  0  0  0  0  0  0
    0.6883   -1.5129   -0.8212 N   0  0  0  0  0  0  0  0  0  0  0  0
   -0.2804   -1.7925   -0.9365 H   0  0  0  0  0  0  0  0  0  0  0  0
    1.7111   -2.4931   -1.1677 C   0  0  0  0  0  0  0  0  0  0  0  0
    1.9671   -3.1026   -0.2946 H   0  0  0  0  0  0  0  0  0  0  0  0
    1.3467   -3.1544   -1.9591 H   0  0  0  0  0  0  0  0  0  0  0  0
    2.6170   -1.9945   -1.5278 H   0  0  0  0  0  0  0  0  0  0  0  0
  1  2  1  0  0  0  0
  2  3  1  0  0  0  0
  2  4  1  0  0  0  0
  2  5  1  0  0  0  0
  5  6  2  0  0  0  0
  5  7  1  0  0  0  0
  7  8  1  0  0  0  0
  7  9  1  0  0  0  0
  9 10  1  0  0  0  0
  9 11  1  0  0  0  0
  9 24  1  0  0  0  0
 11 12  1  0  0  0  0
 11 13  1  0  0  0  0
 11 17  1  0  0  0  0
 13 14  1  0  0  0  0
 13 15  1  0  0  0  0
 13 16  1  0  0  0  0
 17 18  1  0  0  0  0
 17 19  1  0  0  0  0
 17 20  1  0  0  0  0
 20 21  1  0  0  0  0
 20 22  1  0  0  0  0
 20 23  1  0  0  0  0
 24 25  2  0  0  0  0
 24 26  1  0  0  0  0
 26 27  1  0  0  0  0
 26 28  1  0  0  0  0
 28 29  1  0  0  0  0
 28 30  1  0  0  0  0
 28 31  1  0  0  0  0
M  END
$$$$

  -OEChem-01062216083D

 31 30  0     1  0  0  0  0  0999 V2000
   -3.4026   -2.9455    1.5035 H   0  0  0  0  0  0  0  0  0  0  0  0
   -3.3355   -1.9202    1.1277 C   0  0  0  0  0  0  0  0  0  0  0  0
   -3.8535   -1.2577    1.8253 H   0  0  0  0  0  0  0  0  0  0  0  0
   -3.8269   -1.8704    0.1532 H   0  0  0  0  0  0  0  0  0  0  0  0
   -1.8815   -1.5046    0.9993 C   0  0  0  0  0  0  0  0  0  0  0  0
   -1.0165   -2.3185    1.2601 O   0  0  0  0  0  0  0  0  0  0  0  0
   -1.5978   -0.2142    0.5827 N   0  0  0  0  0  0  0  0  0  0  0  0
   -2.4146    0.3752    0.4573 H   0  0  0  0  0  0  0  0  0  0  0  0
   -0.2791    0.4632    0.4758 C   0  0  1  0  0  0  0  0  0  0  0  0
   -0.3096    1.1298   -0.3909 H   0  0  0  0  0  0  0  0  0  0  0  0
   -0.1283    1.3685    1.7473 C   0  0  1  0  0  0  0  0  0  0  0  0
   -0.2259    0.7438    2.6421 H   0  0  0  0  0  0  0  0  0  0  0  0
    1.2367    2.0990    1.7939 C   0  0  0  0  0  0  0  0  0  0  0  0
    1.4787    2.5232    0.8147 H   0  0  0  0  0  0  0  0  0  0  0  0
    1.2428    2.9070    2.5265 H   0  0  0  0  0  0  0  0  0  0  0  0
    2.0401    1.4230    2.0928 H   0  0  0  0  0  0  0  0  0  0  0  0
   -1.2424    2.4566    1.7433 C   0  0  0  0  0  0  0  0  0  0  0  0
   -1.0659    3.1629    0.9253 H   0  0  0  0  0  0  0  0  0  0  0  0
   -2.2167    1.9936    1.5685 H   0  0  0  0  0  0  0  0  0  0  0  0
   -1.3623    3.2300    3.0629 C   0  0  0  0  0  0  0  0  0  0  0  0
   -0.5204    3.9107    3.2113 H   0  0  0  0  0  0  0  0  0  0  0  0
   -2.2771    3.8303    3.0572 H   0  0  0  0  0  0  0  0  0  0  0  0
   -1.4102    2.5373    3.9089 H   0  0  0  0  0  0  0  0  0  0  0  0
    0.8962   -0.5152    0.1609 C   0  0  0  0  0  0  0  0  0  0  0  0
    1.9081   -0.6146    0.8417 O   0  0  0  0  0  0  0  0  0  0  0  0
    0.8349   -1.2481   -1.0125 N   0  0  0  0  0  0  0  0  0  0  0  0
   -0.0853   -1.3140   -1.4339 H   0  0  0  0  0  0  0  0  0  0  0  0
    1.8005   -2.2954   -1.3242 C   0  0  0  0  0  0  0  0  0  0  0  0
    1.7638   -3.0848   -0.5657 H   0  0  0  0  0  0  0  0  0  0  0  0
    1.5772   -2.7386   -2.2992 H   0  0  0  0  0  0  0  0  0  0  0  0
    2.8156   -1.8860   -1.3576 H   0  0  0  0  0  0  0  0  0  0  0  0
  1  2  1  0  0  0  0
  2  3  1  0  0  0  0
  2  4  1  0  0  0  0
  2  5  1  0  0  0  0
  5  6  2  0  0  0  0
  5  7  1  0  0  0  0
  7  8  1  0  0  0  0
  7  9  1  0  0  0  0
  9 10  1  0  0  0  0
  9 11  1  0  0  0  0
  9 24  1  0  0  0  0
 11 12  1  0  0  0  0
 11 13  1  0  0  0  0
 11 17  1  0  0  0  0
 13 14  1  0  0  0  0
 13 15  1  0  0  0  0
 13 16  1  0  0  0  0
 17 18  1  0  0  0  0
 17 19  1  0  0  0  0
 17 20  1  0  0  0  0
 20 21  1  0  0  0  0
 20 22  1  0  0  0  0
 20 23  1  0  0  0  0
 24 25  2  0  0  0  0
 24 26  1  0  0  0  0
 26 27  1  0  0  0  0
 26 28  1  0  0  0  0
 28 29  1  0  0  0  0
 28 30  1  0  0  0  0
 28 31  1  0  0  0  0
M  END
$$$$

  -OEChem-01062216083D

 31 30  0     1  0  0  0  0  0999 V2000
   -3.4131   -2.9206    1.5508 H   0  0  0  0  0  0  0  0  0  0  0  0
   -3.3453   -1.9020    1.1573 C   0  0  0  0  0  0  0  0  0  0  0  0
   -3.8215   -1.2208    1.8666 H   0  0  0  0  0  0  0  0  0  0  0  0
   -3.8763   -1.8573    0.2034 H   0  0  0  0  0  0  0  0  0  0  0  0
   -1.8915   -1.5135    0.9610 C   0  0  0  0  0  0  0  0  0  0  0  0
   -1.0353   -2.3565    1.1455 O   0  0  0  0  0  0  0  0  0  0  0  0
   -1.6069   -0.2229    0.5452 N   0  0  0  0  0  0  0  0  0  0  0  0
   -2.4226    0.3760    0.4697 H   0  0  0  0  0  0  0  0  0  0  0  0
   -0.2907    0.4605    0.4636 C   0  0  1  0  0  0  0  0  0  0  0  0
   -0.3116    1.1295   -0.4014 H   0  0  0  0  0  0  0  0  0  0  0  0
   -0.1408    1.3593    1.7356 C   0  0  1  0  0  0  0  0  0  0  0  0
   -0.2329    0.7302    2.6280 H   0  0  0  0  0  0  0  0  0  0  0  0
    1.2237    2.0923    1.7719 C   0  0  0  0  0  0  0  0  0  0  0  0
    1.3902    2.6382    0.8382 H   0  0  0  0  0  0  0  0  0  0  0  0
    1.2731    2.8019    2.5999 H   0  0  0  0  0  0  0  0  0  0  0  0
    2.0551    1.4017    1.9209 H   0  0  0  0  0  0  0  0  0  0  0  0
   -1.2489    2.4511    1.7369 C   0  0  0  0  0  0  0  0  0  0  0  0
   -1.0712    3.1620    0.9232 H   0  0  0  0  0  0  0  0  0  0  0  0
   -2.2244    1.9914    1.5601 H   0  0  0  0  0  0  0  0  0  0  0  0
   -1.3600    3.2143    3.0624 C   0  0  0  0  0  0  0  0  0  0  0  0
   -0.5014    3.8717    3.2212 H   0  0  0  0  0  0  0  0  0  0  0  0
   -2.2597    3.8372    3.0556 H   0  0  0  0  0  0  0  0  0  0  0  0
   -1.4299    2.5151    3.9016 H   0  0  0  0  0  0  0  0  0  0  0  0
    0.8964   -0.5089    0.1800 C   0  0  0  0  0  0  0  0  0  0  0  0
    1.7435   -0.8000    1.0150 O   0  0  0  0  0  0  0  0  0  0  0  0
    1.0437   -1.0084   -1.1027 N   0  0  0  0  0  0  0  0  0  0  0  0
    0.2389   -0.9103   -1.7119 H   0  0  0  0  0  0  0  0  0  0  0  0
    2.0302   -2.0308   -1.4305 C   0  0  0  0  0  0  0  0  0  0  0  0
    1.8387   -2.9435   -0.8559 H   0  0  0  0  0  0  0  0  0  0  0  0
    1.9835   -2.2740   -2.4961 H   0  0  0  0  0  0  0  0  0  0  0  0
    3.0413   -1.6769   -1.2029 H   0  0  0  0  0  0  0  0  0  0  0  0
  1  2  1  0  0  0  0
  2  3  1  0  0  0  0
  2  4  1  0  0  0  0
  2  5  1  0  0  0  0
  5  6  2  0  0  0  0
  5  7  1  0  0  0  0
  7  8  1  0  0  0  0
  7  9  1  0  0  0  0
  9 10  1  0  0  0  0
  9 11  1  0  0  0  0
  9 24  1  0  0  0  0
 11 12  1  0  0  0  0
 11 13  1  0  0  0  0
 11 17  1  0  0  0  0
 13 14  1  0  0  0  0
 13 15  1  0  0  0  0
 13 16  1  0  0  0  0
 17 18  1  0  0  0  0
 17 19  1  0  0  0  0
 17 20  1  0  0  0  0
 20 21  1  0  0  0  0
 20 22  1  0  0  0  0
 20 23  1  0  0  0  0
 24 25  2  0  0  0  0
 24 26  1  0  0  0  0
 26 27  1  0  0  0  0
 26 28  1  0  0  0  0
 28 29  1  0  0  0  0
 28 30  1  0  0  0  0
 28 31  1  0  0  0  0
M  END
$$$$

  -OEChem-01062216083D

 31 30  0     1  0  0  0  0  0999 V2000
   -3.4563   -2.9014    1.5667 H   0  0  0  0  0  0  0  0  0  0  0  0
   -3.3810   -1.8744    1.1975 C   0  0  0  0  0  0  0  0  0  0  0  0
   -3.8052   -1.2019    1.9467 H   0  0  0  0  0  0  0  0  0  0  0  0
   -3.9559   -1.7907    0.2722 H   0  0  0  0  0  0  0  0  0  0  0  0
   -1.9284   -1.5166    0.9419 C   0  0  0  0  0  0  0  0  0  0  0  0
   -1.0884   -2.3863    1.0635 O   0  0  0  0  0  0  0  0  0  0  0  0
   -1.6340   -0.2313    0.5172 N   0  0  0  0  0  0  0  0  0  0  0  0
   -2.4431    0.3794    0.4760 H   0  0  0  0  0  0  0  0  0  0  0  0
   -0.3144    0.4454    0.4439 C   0  0  1  0  0  0  0  0  0  0  0  0
   -0.3307    1.1153   -0.4202 H   0  0  0  0  0  0  0  0  0  0  0  0
   -0.1587    1.3400    1.7160 C   0  0  1  0  0  0  0  0  0  0  0  0
   -0.2556    0.7077    2.6058 H   0  0  0  0  0  0  0  0  0  0  0  0
    1.2149    2.0543    1.7525 C   0  0  0  0  0  0  0  0  0  0  0  0
    1.3567    2.6596    0.8519 H   0  0  0  0  0  0  0  0  0  0  0  0
    1.2963    2.7061    2.6250 H   0  0  0  0  0  0  0  0  0  0  0  0
    2.0429    1.3469    1.8238 H   0  0  0  0  0  0  0  0  0  0  0  0
   -1.2545    2.4420    1.7254 C   0  0  0  0  0  0  0  0  0  0  0  0
   -1.0726    3.1559    0.9152 H   0  0  0  0  0  0  0  0  0  0  0  0
   -2.2349    1.9926    1.5496 H   0  0  0  0  0  0  0  0  0  0  0  0
   -1.3498    3.1968    3.0564 C   0  0  0  0  0  0  0  0  0  0  0  0
   -0.4783    3.8368    3.2171 H   0  0  0  0  0  0  0  0  0  0  0  0
   -2.2384    3.8354    3.0571 H   0  0  0  0  0  0  0  0  0  0  0  0
   -1.4298    2.4931    3.8909 H   0  0  0  0  0  0  0  0  0  0  0  0
    0.8844   -0.5153    0.1848 C   0  0  0  0  0  0  0  0  0  0  0  0
    1.6028   -0.9319    1.0859 O   0  0  0  0  0  0  0  0  0  0  0  0
    1.2555   -0.7831   -1.1219 N   0  0  0  0  0  0  0  0  0  0  0  0
    0.5770   -0.5550   -1.8405 H   0  0  0  0  0  0  0  0  0  0  0  0
    2.3235   -1.7197   -1.4525 C   0  0  0  0  0  0  0  0  0  0  0  0
    2.0909   -2.7168   -1.0633 H   0  0  0  0  0  0  0  0  0  0  0  0
    2.4444   -1.7893   -2.5376 H   0  0  0  0  0  0  0  0  0  0  0  0
    3.2735   -1.3868   -1.0214 H   0  0  0  0  0  0  0  0  0  0  0  0
  1  2  1  0  0  0  0
  2  3  1  0  0  0  0
  2  4  1  0  0  0  0
  2  5  1  0  0  0  0
  5  6  2  0  0  0  0
  5  7  1  0  0  0  0
  7  8  1  0  0  0  0
  7  9  1  0  0  0  0
  9 10  1  0  0  0  0
  9 11  1  0  0  0  0
  9 24  1  0  0  0  0
 11 12  1  0  0  0  0
 11 13  1  0  0  0  0
 11 17  1  0  0  0  0
 13 14  1  0  0  0  0
 13 15  1  0  0  0  0
 13 16  1  0  0  0  0
 17 18  1  0  0  0  0
 17 19  1  0  0  0  0
 17 20  1  0  0  0  0
 20 21  1  0  0  0  0
 20 22  1  0  0  0  0
 20 23  1  0  0  0  0
 24 25  2  0  0  0  0
 24 26  1  0  0  0  0
 26 27  1  0  0  0  0
 26 28  1  0  0  0  0
 28 29  1  0  0  0  0
 28 30  1  0  0  0  0
 28 31  1  0  0  0  0
M  END
$$$$

  -OEChem-01062216083D

 31 30  0     1  0  0  0  0  0999 V2000
   -3.5034   -2.8611    1.6306 H   0  0  0  0  0  0  0  0  0  0  0  0
   -3.4190   -1.8415    1.2435 C   0  0  0  0  0  0  0  0  0  0  0  0
   -3.7988   -1.1489    1.9984 H   0  0  0  0  0  0  0  0  0  0  0  0
   -4.0262   -1.7569    0.3392 H   0  0  0  0  0  0  0  0  0  0  0  0
   -1.9694   -1.5219    0.9274 C   0  0  0  0  0  0  0  0  0  0  0  0
   -1.1529   -2.4195    0.9878 O   0  0  0  0  0  0  0  0  0  0  0  0
   -1.6605   -0.2430    0.4951 N   0  0  0  0  0  0  0  0  0  0  0  0
   -2.4596    0.3818    0.4846 H   0  0  0  0  0  0  0  0  0  0  0  0
   -0.3347    0.4206    0.4229 C   0  0  1  0  0  0  0  0  0  0  0  0
   -0.3503    1.0904   -0.4412 H   0  0  0  0  0  0  0  0  0  0  0  0
   -0.1736    1.3114    1.6957 C   0  0  1  0  0  0  0  0  0  0  0  0
   -0.2829    0.6774    2.5830 H   0  0  0  0  0  0  0  0  0  0  0  0
    1.2134    1.9969    1.7403 C   0  0  0  0  0  0  0  0  0  0  0  0
    1.3692    2.6060    0.8447 H   0  0  0  0  0  0  0  0  0  0  0  0
    1.3069    2.6401    2.6181 H   0  0  0  0  0  0  0  0  0  0  0  0
    2.0243    1.2683    1.8063 H   0  0  0  0  0  0  0  0  0  0  0  0
   -1.2566    2.4254    1.7087 C   0  0  0  0  0  0  0  0  0  0  0  0
   -1.0655    3.1405    0.9018 H   0  0  0  0  0  0  0  0  0  0  0  0
   -2.2426    1.9887    1.5307 H   0  0  0  0  0  0  0  0  0  0  0  0
   -1.3416    3.1750    3.0428 C   0  0  0  0  0  0  0  0  0  0  0  0
   -0.4573    3.7954    3.2093 H   0  0  0  0  0  0  0  0  0  0  0  0
   -2.2165    3.8321    3.0435 H   0  0  0  0  0  0  0  0  0  0  0  0
   -1.4392    2.4687    3.8732 H   0  0  0  0  0  0  0  0  0  0  0  0
    0.8750   -0.5301    0.1778 C   0  0  0  0  0  0  0  0  0  0  0  0
    1.4853   -1.0554    1.1018 O   0  0  0  0  0  0  0  0  0  0  0  0
    1.4585   -0.5626   -1.0779 N   0  0  0  0  0  0  0  0  0  0  0  0
    0.9121   -0.1927   -1.8481 H   0  0  0  0  0  0  0  0  0  0  0  0
    2.6210   -1.3886   -1.3841 C   0  0  0  0  0  0  0  0  0  0  0  0
    2.4056   -2.4432   -1.1811 H   0  0  0  0  0  0  0  0  0  0  0  0
    2.8909   -1.2865   -2.4394 H   0  0  0  0  0  0  0  0  0  0  0  0
    3.4797   -1.0817   -0.7775 H   0  0  0  0  0  0  0  0  0  0  0  0
  1  2  1  0  0  0  0
  2  3  1  0  0  0  0
  2  4  1  0  0  0  0
  2  5  1  0  0  0  0
  5  6  2  0  0  0  0
  5  7  1  0  0  0  0
  7  8  1  0  0  0  0
  7  9  1  0  0  0  0
  9 10  1  0  0  0  0
  9 11  1  0  0  0  0
  9 24  1  0  0  0  0
 11 12  1  0  0  0  0
 11 13  1  0  0  0  0
 11 17  1  0  0  0  0
 13 14  1  0  0  0  0
 13 15  1  0  0  0  0
 13 16  1  0  0  0  0
 17 18  1  0  0  0  0
 17 19  1  0  0  0  0
 17 20  1  0  0  0  0
 20 21  1  0  0  0  0
 20 22  1  0  0  0  0
 20 23  1  0  0  0  0
 24 25  2  0  0  0  0
 24 26  1  0  0  0  0
 26 27  1  0  0  0  0
 26 28  1  0  0  0  0
 28 29  1  0  0  0  0
 28 30  1  0  0  0  0
 28 31  1  0  0  0  0
M  END
$$$$

  -OEChem-01062216083D

 31 30  0     1  0  0  0  0  0999 V2000
   -3.5454   -2.8355    1.6620 H   0  0  0  0  0  0  0  0  0  0  0  0
   -3.4474   -1.8103    1.2934 C   0  0  0  0  0  0  0  0  0  0  0  0
   -3.7610   -1.1239    2.0836 H   0  0  0  0  0  0  0  0  0  0  0  0
   -4.1002   -1.6841    0.4264 H   0  0  0  0  0  0  0  0  0  0  0  0
   -2.0073   -1.5308    0.9042 C   0  0  0  0  0  0  0  0  0  0  0  0
   -1.2249   -2.4596    0.8805 O   0  0  0  0  0  0  0  0  0  0  0  0
   -1.6842   -0.2574    0.4670 N   0  0  0  0  0  0  0  0  0  0  0  0
   -2.4707    0.3821    0.4989 H   0  0  0  0  0  0  0  0  0  0  0  0
   -0.3517    0.3933    0.3949 C   0  0  1  0  0  0  0  0  0  0  0  0
   -0.3686    1.0624   -0.4693 H   0  0  0  0  0  0  0  0  0  0  0  0
   -0.1840    1.2805    1.6688 C   0  0  1  0  0  0  0  0  0  0  0  0
   -0.3070    0.6444    2.5529 H   0  0  0  0  0  0  0  0  0  0  0  0
    1.2146    1.9391    1.7273 C   0  0  0  0  0  0  0  0  0  0  0  0
    1.3893    2.5495    0.8360 H   0  0  0  0  0  0  0  0  0  0  0  0
    1.3139    2.5758    2.6093 H   0  0  0  0  0  0  0  0  0  0  0  0
    2.0088    1.1915    1.7956 H   0  0  0  0  0  0  0  0  0  0  0  0
   -1.2541    2.4057    1.6852 C   0  0  0  0  0  0  0  0  0  0  0  0
   -1.0536    3.1214    0.8811 H   0  0  0  0  0  0  0  0  0  0  0  0
   -2.2448    1.9809    1.5047 H   0  0  0  0  0  0  0  0  0  0  0  0
   -1.3295    3.1511    3.0222 C   0  0  0  0  0  0  0  0  0  0  0  0
   -0.4392    3.7634    3.1878 H   0  0  0  0  0  0  0  0  0  0  0  0
   -2.1987    3.8158    3.0276 H   0  0  0  0  0  0  0  0  0  0  0  0
   -1.4304    2.4429    3.8505 H   0  0  0  0  0  0  0  0  0  0  0  0
    0.8693   -0.5447    0.1592 C   0  0  0  0  0  0  0  0  0  0  0  0
    1.3749   -1.1787    1.0778 O   0  0  0  0  0  0  0  0  0  0  0  0
    1.6478   -0.3535   -0.9710 N   0  0  0  0  0  0  0  0  0  0  0  0
    1.2325    0.1628   -1.7389 H   0  0  0  0  0  0  0  0  0  0  0  0
    2.8929   -1.0753   -1.2082 C   0  0  0  0  0  0  0  0  0  0  0  0
    2.7175   -2.1563   -1.1932 H   0  0  0  0  0  0  0  0  0  0  0  0
    3.3076   -0.8049   -2.1838 H   0  0  0  0  0  0  0  0  0  0  0  0
    3.6318   -0.8277   -0.4388 H   0  0  0  0  0  0  0  0  0  0  0  0
  1  2  1  0  0  0  0
  2  3  1  0  0  0  0
  2  4  1  0  0  0  0
  2  5  1  0  0  0  0
  5  6  2  0  0  0  0
  5  7  1  0  0  0  0
  7  8  1  0  0  0  0
  7  9  1  0  0  0  0
  9 10  1  0  0  0  0
  9 11  1  0  0  0  0
  9 24  1  0  0  0  0
 11 12  1  0  0  0  0
 11 13  1  0  0  0  0
 11 17  1  0  0  0  0
 13 14  1  0  0  0  0
 13 15  1  0  0  0  0
 13 16  1  0  0  0  0
 17 18  1  0  0  0  0
 17 19  1  0  0  0  0
 17 20  1  0  0  0  0
 20 21  1  0  0  0  0
 20 22  1  0  0  0  0
 20 23  1  0  0  0  0
 24 25  2  0  0  0  0
 24 26  1  0  0  0  0
 26 27  1  0  0  0  0
 26 28  1  0  0  0  0
 28 29  1  0  0  0  0
 28 30  1  0  0  0  0
 28 31  1  0  0  0  0
M  END
$$$$

  -OEChem-01062216083D

 31 30  0     1  0  0  0  0  0999 V2000
   -3.6241   -2.9405    1.4869 H   0  0  0  0  0  0  0  0  0  0  0  0
   -3.4987   -1.9512    1.0371 C   0  0  0  0  0  0  0  0  0  0  0  0
   -4.1626   -1.2481    1.5456 H   0  0  0  0  0  0  0  0  0  0  0  0
   -3.7756   -2.0094   -0.0181 H   0  0  0  0  0  0  0  0  0  0  0  0
   -2.0571   -1.4948    1.1722 C   0  0  0  0  0  0  0  0  0  0  0  0
   -1.2936   -2.1962    1.8015 O   0  0  0  0  0  0  0  0  0  0  0  0
   -1.7163   -0.2593    0.6474 N   0  0  0  0  0  0  0  0  0  0  0  0
   -2.4986    0.2301    0.2268 H   0  0  0  0  0  0  0  0  0  0  0  0
   -0.3852    0.3741    0.4570 C   0  0  1  0  0  0  0  0  0  0  0  0
   -0.4598    1.0133   -0.4268 H   0  0  0  0  0  0  0  0  0  0  0  0
   -0.1427    1.2947    1.6953 C   0  0  1  0  0  0  0  0  0  0  0  0
   -0.2313    0.6779    2.5973 H   0  0  0  0  0  0  0  0  0  0  0  0
    1.2678    1.9271    1.6855 C   0  0  0  0  0  0  0  0  0  0  0  0
    1.4211    2.5141    0.7749 H   0  0  0  0  0  0  0  0  0  0  0  0
    1.4129    2.5810    2.5484 H   0  0  0  0  0  0  0  0  0  0  0  0
    2.0459    1.1605    1.7440 H   0  0  0  0  0  0  0  0  0  0  0  0
   -1.2061    2.4254    1.7475 C   0  0  0  0  0  0  0  0  0  0  0  0
   -1.0494    3.1200    0.9159 H   0  0  0  0  0  0  0  0  0  0  0  0
   -2.2073    2.0011    1.6352 H   0  0  0  0  0  0  0  0  0  0  0  0
   -1.2002    3.2048    3.0674 C   0  0  0  0  0  0  0  0  0  0  0  0
   -0.2972    3.8125    3.1681 H   0  0  0  0  0  0  0  0  0  0  0  0
   -2.0627    3.8772    3.1051 H   0  0  0  0  0  0  0  0  0  0  0  0
   -1.2608    2.5178    3.9174 H   0  0  0  0  0  0  0  0  0  0  0  0
    0.8440   -0.5498    0.1931 C   0  0  0  0  0  0  0  0  0  0  0  0
    1.2670   -1.3693    0.9933 O   0  0  0  0  0  0  0  0  0  0  0  0
    1.7192   -0.1883   -0.8207 N   0  0  0  0  0  0  0  0  0  0  0  0
    1.4458    0.5747   -1.4303 H   0  0  0  0  0  0  0  0  0  0  0  0
    3.0177   -0.8213   -1.0290 C   0  0  0  0  0  0  0  0  0  0  0  0
    2.9009   -1.9027   -1.1570 H   0  0  0  0  0  0  0  0  0  0  0  0
    3.4963   -0.4180   -1.9262 H   0  0  0  0  0  0  0  0  0  0  0  0
    3.6753   -0.6375   -0.1728 H   0  0  0  0  0  0  0  0  0  0  0  0
  1  2  1  0  0  0  0
  2  3  1  0  0  0  0
  2  4  1  0  0  0  0
  2  5  1  0  0  0  0
  5  6  2  0  0  0  0
  5  7  1  0  0  0  0
  7  8  1  0  0  0  0
  7  9  1  0  0  0  0
  9 10  1  0  0  0  0
  9 11  1  0  0  0  0
  9 24  1  0  0  0  0
 11 12  1  0  0  0  0
 11 13  1  0  0  0  0
 11 17  1  0  0  0  0
 13 14  1  0  0  0  0
 13 15  1  0  0  0  0
 13 16  1  0  0  0  0
 17 18  1  0  0  0  0
 17 19  1  0  0  0  0
 17 20  1  0  0  0  0
 20 21  1  0  0  0  0
 20 22  1  0  0  0  0
 20 23  1  0  0  0  0
 24 25  2  0  0  0  0
 24 26  1  0  0  0  0
 26 27  1  0  0  0  0
 26 28  1  0  0  0  0
 28 29  1  0  0  0  0
 28 30  1  0  0  0  0
 28 31  1  0  0  0  0
M  END
$$$$

  -OEChem-01062216083D

 31 30  0     1  0  0  0  0  0999 V2000
   -3.2045   -3.1452    1.4050 H   0  0  0  0  0  0  0  0  0  0  0  0
   -3.1505   -2.2158    0.8312 C   0  0  0  0  0  0  0  0  0  0  0  0
   -4.0932   -1.6753    0.9435 H   0  0  0  0  0  0  0  0  0  0  0  0
   -2.9994   -2.4639   -0.2220 H   0  0  0  0  0  0  0  0  0  0  0  0
   -1.9989   -1.3646    1.3313 C   0  0  0  0  0  0  0  0  0  0  0  0
   -1.4433   -1.6593    2.3769 O   0  0  0  0  0  0  0  0  0  0  0  0
   -1.7636   -0.1271    0.7599 N   0  0  0  0  0  0  0  0  0  0  0  0
   -2.4248    0.0800    0.0195 H   0  0  0  0  0  0  0  0  0  0  0  0
   -0.4177    0.4676    0.5569 C   0  0  1  0  0  0  0  0  0  0  0  0
   -0.4718    1.0894   -0.3409 H   0  0  0  0  0  0  0  0  0  0  0  0
   -0.1583    1.4079    1.7796 C   0  0  1  0  0  0  0  0  0  0  0  0
   -0.2774    0.8137    2.6929 H   0  0  0  0  0  0  0  0  0  0  0  0
    1.2672    2.0004    1.7930 C   0  0  0  0  0  0  0  0  0  0  0  0
    1.4605    2.5621    0.8740 H   0  0  0  0  0  0  0  0  0  0  0  0
    1.4074    2.6712    2.6439 H   0  0  0  0  0  0  0  0  0  0  0  0
    2.0183    1.2117    1.8944 H   0  0  0  0  0  0  0  0  0  0  0  0
   -1.1974    2.5622    1.7996 C   0  0  0  0  0  0  0  0  0  0  0  0
   -1.0214    3.2333    0.9527 H   0  0  0  0  0  0  0  0  0  0  0  0
   -2.2067    2.1558    1.6903 H   0  0  0  0  0  0  0  0  0  0  0  0
   -1.1860    3.3725    3.1006 C   0  0  0  0  0  0  0  0  0  0  0  0
   -0.2766    3.9726    3.1887 H   0  0  0  0  0  0  0  0  0  0  0  0
   -2.0413    4.0549    3.1195 H   0  0  0  0  0  0  0  0  0  0  0  0
   -1.2568    2.7070    3.9666 H   0  0  0  0  0  0  0  0  0  0  0  0
    0.7789   -0.5080    0.3072 C   0  0  0  0  0  0  0  0  0  0  0  0
    0.7131   -1.7219    0.4361 O   0  0  0  0  0  0  0  0  0  0  0  0
    1.8323   -0.0526   -0.4720 N   0  0  0  0  0  0  0  0  0  0  0  0
    1.8969    0.9481   -0.6273 H   0  0  0  0  0  0  0  0  0  0  0  0
    2.9299   -0.9014   -0.9250 C   0  0  0  0  0  0  0  0  0  0  0  0
    2.5587   -1.6806   -1.5990 H   0  0  0  0  0  0  0  0  0  0  0  0
    3.6725   -0.3046   -1.4630 H   0  0  0  0  0  0  0  0  0  0  0  0
    3.4229   -1.3794   -0.0718 H   0  0  0  0  0  0  0  0  0  0  0  0
  1  2  1  0  0  0  0
  2  3  1  0  0  0  0
  2  4  1  0  0  0  0
  2  5  1  0  0  0  0
  5  6  2  0  0  0  0
  5  7  1  0  0  0  0
  7  8  1  0  0  0  0
  7  9  1  0  0  0  0
  9 10  1  0  0  0  0
  9 11  1  0  0  0  0
  9 24  1  0  0  0  0
 11 12  1  0  0  0  0
 11 13  1  0  0  0  0
 11 17  1  0  0  0  0
 13 14  1  0  0  0  0
 13 15  1  0  0  0  0
 13 16  1  0  0  0  0
 17 18  1  0  0  0  0
 17 19  1  0  0  0  0
 17 20  1  0  0  0  0
 20 21  1  0  0  0  0
 20 22  1  0  0  0  0
 20 23  1  0  0  0  0
 24 25  2  0  0  0  0
 24 26  1  0  0  0  0
 26 27  1  0  0  0  0
 26 28  1  0  0  0  0
 28 29  1  0  0  0  0
 28 30  1  0  0  0  0
 28 31  1  0  0  0  0
M  END
$$$$

  -OEChem-01062216083D

 31 30  0     1  0  0  0  0  0999 V2000
   -3.1646   -3.1351    1.4230 H   0  0  0  0  0  0  0  0  0  0  0  0
   -3.1345   -2.1965    0.8624 C   0  0  0  0  0  0  0  0  0  0  0  0
   -4.0705   -1.6572    1.0240 H   0  0  0  0  0  0  0  0  0  0  0  0
   -3.0295   -2.4277   -0.2004 H   0  0  0  0  0  0  0  0  0  0  0  0
   -1.9607   -1.3540    1.3241 C   0  0  0  0  0  0  0  0  0  0  0  0
   -1.3331   -1.6823    2.3190 O   0  0  0  0  0  0  0  0  0  0  0  0
   -1.7396   -0.1109    0.7574 N   0  0  0  0  0  0  0  0  0  0  0  0
   -2.4071    0.1017    0.0240 H   0  0  0  0  0  0  0  0  0  0  0  0
   -0.3928    0.4836    0.5575 C   0  0  1  0  0  0  0  0  0  0  0  0
   -0.4306    1.1060   -0.3409 H   0  0  0  0  0  0  0  0  0  0  0  0
   -0.1657    1.4259    1.7912 C   0  0  1  0  0  0  0  0  0  0  0  0
   -0.3053    0.8281    2.6991 H   0  0  0  0  0  0  0  0  0  0  0  0
    1.2503    2.0340    1.8584 C   0  0  0  0  0  0  0  0  0  0  0  0
    1.4854    2.5711    0.9345 H   0  0  0  0  0  0  0  0  0  0  0  0
    1.3446    2.7306    2.6943 H   0  0  0  0  0  0  0  0  0  0  0  0
    1.9982    1.2541    2.0257 H   0  0  0  0  0  0  0  0  0  0  0  0
   -1.2189    2.5702    1.7906 C   0  0  0  0  0  0  0  0  0  0  0  0
   -1.0316    3.2435    0.9477 H   0  0  0  0  0  0  0  0  0  0  0  0
   -2.2218    2.1551    1.6596 H   0  0  0  0  0  0  0  0  0  0  0  0
   -1.2476    3.3820    3.0908 C   0  0  0  0  0  0  0  0  0  0  0  0
   -0.3555    4.0052    3.1932 H   0  0  0  0  0  0  0  0  0  0  0  0
   -2.1196    4.0429    3.0950 H   0  0  0  0  0  0  0  0  0  0  0  0
   -1.3166    2.7157    3.9564 H   0  0  0  0  0  0  0  0  0  0  0  0
    0.7825   -0.5206    0.3044 C   0  0  0  0  0  0  0  0  0  0  0  0
    0.5857   -1.7095    0.0844 O   0  0  0  0  0  0  0  0  0  0  0  0
    1.9846   -0.0389   -0.1921 N   0  0  0  0  0  0  0  0  0  0  0  0
    2.1612    0.9546   -0.0857 H   0  0  0  0  0  0  0  0  0  0  0  0
    3.0705   -0.8925   -0.6645 C   0  0  0  0  0  0  0  0  0  0  0  0
    2.7615   -1.4495   -1.5553 H   0  0  0  0  0  0  0  0  0  0  0  0
    3.9433   -0.2854   -0.9227 H   0  0  0  0  0  0  0  0  0  0  0  0
    3.3633   -1.6061    0.1131 H   0  0  0  0  0  0  0  0  0  0  0  0
  1  2  1  0  0  0  0
  2  3  1  0  0  0  0
  2  4  1  0  0  0  0
  2  5  1  0  0  0  0
  5  6  2  0  0  0  0
  5  7  1  0  0  0  0
  7  8  1  0  0  0  0
  7  9  1  0  0  0  0
  9 10  1  0  0  0  0
  9 11  1  0  0  0  0
  9 24  1  0  0  0  0
 11 12  1  0  0  0  0
 11 13  1  0  0  0  0
 11 17  1  0  0  0  0
 13 14  1  0  0  0  0
 13 15  1  0  0  0  0
 13 16  1  0  0  0  0
 17 18  1  0  0  0  0
 17 19  1  0  0  0  0
 17 20  1  0  0  0  0
 20 21  1  0  0  0  0
 20 22  1  0  0  0  0
 20 23  1  0  0  0  0
 24 25  2  0  0  0  0
 24 26  1  0  0  0  0
 26 27  1  0  0  0  0
 26 28  1  0  0  0  0
 28 29  1  0  0  0  0
 28 30  1  0  0  0  0
 28 31  1  0  0  0  0
M  END
$$$$

  -OEChem-01062216083D

 31 30  0     1  0  0  0  0  0999 V2000
   -3.0765   -3.1736    1.3302 H   0  0  0  0  0  0  0  0  0  0  0  0
   -3.1058   -2.1835    0.8668 C   0  0  0  0  0  0  0  0  0  0  0  0
   -3.9925   -1.6530    1.2208 H   0  0  0  0  0  0  0  0  0  0  0  0
   -3.1672   -2.3064   -0.2172 H   0  0  0  0  0  0  0  0  0  0  0  0
   -1.8553   -1.4038    1.2258 C   0  0  0  0  0  0  0  0  0  0  0  0
   -1.0539   -1.8799    2.0154 O   0  0  0  0  0  0  0  0  0  0  0  0
   -1.6878   -0.1209    0.7294 N   0  0  0  0  0  0  0  0  0  0  0  0
   -2.3909    0.1396    0.0459 H   0  0  0  0  0  0  0  0  0  0  0  0
   -0.3621    0.5251    0.5653 C   0  0  1  0  0  0  0  0  0  0  0  0
   -0.4707    1.3524   -0.1417 H   0  0  0  0  0  0  0  0  0  0  0  0
    0.0232    1.1462    1.9562 C   0  0  1  0  0  0  0  0  0  0  0  0
   -0.0151    0.3594    2.7163 H   0  0  0  0  0  0  0  0  0  0  0  0
    1.4414    1.7502    1.9941 C   0  0  0  0  0  0  0  0  0  0  0  0
    1.5977    2.4248    1.1464 H   0  0  0  0  0  0  0  0  0  0  0  0
    1.6157    2.3117    2.9140 H   0  0  0  0  0  0  0  0  0  0  0  0
    2.1948    0.9587    1.9764 H   0  0  0  0  0  0  0  0  0  0  0  0
   -1.0100    2.2453    2.3335 C   0  0  0  0  0  0  0  0  0  0  0  0
   -0.9062    3.0973    1.6541 H   0  0  0  0  0  0  0  0  0  0  0  0
   -2.0250    1.8564    2.2152 H   0  0  0  0  0  0  0  0  0  0  0  0
   -0.8954    2.7362    3.7819 C   0  0  0  0  0  0  0  0  0  0  0  0
    0.0051    3.3367    3.9327 H   0  0  0  0  0  0  0  0  0  0  0  0
   -1.7585    3.3619    4.0289 H   0  0  0  0  0  0  0  0  0  0  0  0
   -0.8761    1.8875    4.4727 H   0  0  0  0  0  0  0  0  0  0  0  0
    0.6888   -0.4295   -0.0940 C   0  0  0  0  0  0  0  0  0  0  0  0
    0.3111   -1.4000   -0.7433 O   0  0  0  0  0  0  0  0  0  0  0  0
    1.9916   -0.0267   -0.3376 N   0  0  0  0  0  0  0  0  0  0  0  0
    2.3164    0.8040    0.1455 H   0  0  0  0  0  0  0  0  0  0  0  0
    2.9610   -0.8281   -1.0772 C   0  0  0  0  0  0  0  0  0  0  0  0
    2.6394   -0.9585   -2.1158 H   0  0  0  0  0  0  0  0  0  0  0  0
    3.9375   -0.3346   -1.0779 H   0  0  0  0  0  0  0  0  0  0  0  0
    3.0727   -1.8152   -0.6160 H   0  0  0  0  0  0  0  0  0  0  0  0
  1  2  1  0  0  0  0
  2  3  1  0  0  0  0
  2  4  1  0  0  0  0
  2  5  1  0  0  0  0
  5  6  2  0  0  0  0
  5  7  1  0  0  0  0
  7  8  1  0  0  0  0
  7  9  1  0  0  0  0
  9 10  1  0  0  0  0
  9 11  1  0  0  0  0
  9 24  1  0  0  0  0
 11 12  1  0  0  0  0
 11 13  1  0  0  0  0
 11 17  1  0  0  0  0
 13 14  1  0  0  0  0
 13 15  1  0  0  0  0
 13 16  1  0  0  0  0
 17 18  1  0  0  0  0
 17 19  1  0  0  0  0
 17 20  1  0  0  0  0
 20 21  1  0  0  0  0
 20 22  1  0  0  0  0
 20 23  1  0  0  0  0
 24 25  2  0  0  0  0
 24 26  1  0  0  0  0
 26 27  1  0  0  0  0
 26 28  1  0  0  0  0
 28 29  1  0  0  0  0
 28 30  1  0  0  0  0
 28 31  1  0  0  0  0
M  END
$$$$

  -OEChem-01062216083D

 31 30  0     1  0  0  0  0  0999 V2000
   -3.0225   -3.1837    1.3134 H   0  0  0  0  0  0  0  0  0  0  0  0
   -3.0690   -2.1857    0.8687 C   0  0  0  0  0  0  0  0  0  0  0  0
   -3.9491   -1.6669    1.2554 H   0  0  0  0  0  0  0  0  0  0  0  0
   -3.1590   -2.2894   -0.2154 H   0  0  0  0  0  0  0  0  0  0  0  0
   -1.8137   -1.4046    1.2088 C   0  0  0  0  0  0  0  0  0  0  0  0
   -0.9825   -1.8944    1.9589 O   0  0  0  0  0  0  0  0  0  0  0  0
   -1.6651   -0.1122    0.7320 N   0  0  0  0  0  0  0  0  0  0  0  0
   -2.3728    0.1525    0.0545 H   0  0  0  0  0  0  0  0  0  0  0  0
   -0.3468    0.5502    0.5800 C   0  0  1  0  0  0  0  0  0  0  0  0
   -0.4541    1.3803   -0.1238 H   0  0  0  0  0  0  0  0  0  0  0  0
    0.0217    1.1712    1.9761 C   0  0  1  0  0  0  0  0  0  0  0  0
   -0.0090    0.3836    2.7362 H   0  0  0  0  0  0  0  0  0  0  0  0
    1.4277    1.8060    2.0163 C   0  0  0  0  0  0  0  0  0  0  0  0
    1.6128    2.3925    1.1106 H   0  0  0  0  0  0  0  0  0  0  0  0
    1.5539    2.4646    2.8770 H   0  0  0  0  0  0  0  0  0  0  0  0
    2.1926    1.0323    2.1168 H   0  0  0  0  0  0  0  0  0  0  0  0
   -1.0316    2.2555    2.3451 C   0  0  0  0  0  0  0  0  0  0  0  0
   -0.9341    3.1097    1.6673 H   0  0  0  0  0  0  0  0  0  0  0  0
   -2.0397    1.8522    2.2170 H   0  0  0  0  0  0  0  0  0  0  0  0
   -0.9414    2.7483    3.7949 C   0  0  0  0  0  0  0  0  0  0  0  0
   -0.0593    3.3725    3.9568 H   0  0  0  0  0  0  0  0  0  0  0  0
   -1.8230    3.3506    4.0342 H   0  0  0  0  0  0  0  0  0  0  0  0
   -0.9068    1.8997    4.4853 H   0  0  0  0  0  0  0  0  0  0  0  0
    0.6874   -0.4125   -0.0939 C   0  0  0  0  0  0  0  0  0  0  0  0
    0.2786   -1.2343   -0.9096 O   0  0  0  0  0  0  0  0  0  0  0  0
    2.0544   -0.1953   -0.0957 N   0  0  0  0  0  0  0  0  0  0  0  0
    2.4132    0.4995    0.5488 H   0  0  0  0  0  0  0  0  0  0  0  0
    3.0049   -1.0488   -0.8001 C   0  0  0  0  0  0  0  0  0  0  0  0
    2.8258   -1.0130   -1.8798 H   0  0  0  0  0  0  0  0  0  0  0  0
    4.0287   -0.7138   -0.6089 H   0  0  0  0  0  0  0  0  0  0  0  0
    2.9110   -2.0859   -0.4607 H   0  0  0  0  0  0  0  0  0  0  0  0
  1  2  1  0  0  0  0
  2  3  1  0  0  0  0
  2  4  1  0  0  0  0
  2  5  1  0  0  0  0
  5  6  2  0  0  0  0
  5  7  1  0  0  0  0
  7  8  1  0  0  0  0
  7  9  1  0  0  0  0
  9 10  1  0  0  0  0
  9 11  1  0  0  0  0
  9 24  1  0  0  0  0
 11 12  1  0  0  0  0
 11 13  1  0  0  0  0
 11 17  1  0  0  0  0
 13 14  1  0  0  0  0
 13 15  1  0  0  0  0
 13 16  1  0  0  0  0
 17 18  1  0  0  0  0
 17 19  1  0  0  0  0
 17 20  1  0  0  0  0
 20 21  1  0  0  0  0
 20 22  1  0  0  0  0
 20 23  1  0  0  0  0
 24 25  2  0  0  0  0
 24 26  1  0  0  0  0
 26 27  1  0  0  0  0
 26 28  1  0  0  0  0
 28 29  1  0  0  0  0
 28 30  1  0  0  0  0
 28 31  1  0  0  0  0
M  END
$$$$

  -OEChem-01062216083D

 31 30  0     1  0  0  0  0  0999 V2000
   -2.8180   -3.2923    1.1367 H   0  0  0  0  0  0  0  0  0  0  0  0
   -2.9554   -2.2586    0.8072 C   0  0  0  0  0  0  0  0  0  0  0  0
   -3.7688   -1.8097    1.3822 H   0  0  0  0  0  0  0  0  0  0  0  0
   -3.2226   -2.2606   -0.2524 H   0  0  0  0  0  0  0  0  0  0  0  0
   -1.6761   -1.4707    1.0142 C   0  0  0  0  0  0  0  0  0  0  0  0
   -0.7033   -2.0170    1.5138 O   0  0  0  0  0  0  0  0  0  0  0  0
   -1.6443   -0.1264    0.6853 N   0  0  0  0  0  0  0  0  0  0  0  0
   -2.4642    0.2001    0.1835 H   0  0  0  0  0  0  0  0  0  0  0  0
   -0.3944    0.6367    0.4595 C   0  0  1  0  0  0  0  0  0  0  0  0
   -0.6258    1.5190   -0.1447 H   0  0  0  0  0  0  0  0  0  0  0  0
    0.1415    1.1590    1.8335 C   0  0  1  0  0  0  0  0  0  0  0  0
    0.3131    0.3149    2.5094 H   0  0  0  0  0  0  0  0  0  0  0  0
    1.4421    1.9856    1.6805 C   0  0  0  0  0  0  0  0  0  0  0  0
    1.2853    2.8191    0.9886 H   0  0  0  0  0  0  0  0  0  0  0  0
    2.2749    1.3943    1.3110 H   0  0  0  0  0  0  0  0  0  0  0  0
    1.7664    2.3902    2.6416 H   0  0  0  0  0  0  0  0  0  0  0  0
   -0.9081    2.1330    2.4424 C   0  0  0  0  0  0  0  0  0  0  0  0
   -0.9721    3.0446    1.8389 H   0  0  0  0  0  0  0  0  0  0  0  0
   -1.8962    1.6650    2.4245 H   0  0  0  0  0  0  0  0  0  0  0  0
   -0.6294    2.5069    3.9034 C   0  0  0  0  0  0  0  0  0  0  0  0
    0.2476    3.1527    3.9936 H   0  0  0  0  0  0  0  0  0  0  0  0
   -1.4862    3.0485    4.3155 H   0  0  0  0  0  0  0  0  0  0  0  0
   -0.4693    1.6061    4.5039 H   0  0  0  0  0  0  0  0  0  0  0  0
    0.5312   -0.2385   -0.4486 C   0  0  0  0  0  0  0  0  0  0  0  0
    0.0763   -0.5759   -1.5339 O   0  0  0  0  0  0  0  0  0  0  0  0
    1.9026   -0.2872   -0.4893 N   0  0  0  0  0  0  0  0  0  0  0  0
    2.1944   -0.5457   -1.4286 H   0  0  0  0  0  0  0  0  0  0  0  0
    2.5676   -1.0557    0.5583 C   0  0  0  0  0  0  0  0  0  0  0  0
    2.5721   -2.1192    0.2974 H   0  0  0  0  0  0  0  0  0  0  0  0
    3.6025   -0.7192    0.6722 H   0  0  0  0  0  0  0  0  0  0  0  0
    2.0623   -0.9482    1.5231 H   0  0  0  0  0  0  0  0  0  0  0  0
  1  2  1  0  0  0  0
  2  3  1  0  0  0  0
  2  4  1  0  0  0  0
  2  5  1  0  0  0  0
  5  6  2  0  0  0  0
  5  7  1  0  0  0  0
  7  8  1  0  0  0  0
  7  9  1  0  0  0  0
  9 10  1  0  0  0  0
  9 11  1  0  0  0  0
  9 24  1  0  0  0  0
 11 12  1  0  0  0  0
 11 13  1  0  0  0  0
 11 17  1  0  0  0  0
 13 14  1  0  0  0  0
 13 15  1  0  0  0  0
 13 16  1  0  0  0  0
 17 18  1  0  0  0  0
 17 19  1  0  0  0  0
 17 20  1  0  0  0  0
 20 21  1  0  0  0  0
 20 22  1  0  0  0  0
 20 23  1  0  0  0  0
 24 25  2  0  0  0  0
 24 26  1  0  0  0  0
 26 27  1  0  0  0  0
 26 28  1  0  0  0  0
 28 29  1  0  0  0  0
 28 30  1  0  0  0  0
 28 31  1  0  0  0  0
M  END
$$$$

  -OEChem-01062216083D

 31 30  0     1  0  0  0  0  0999 V2000
   -3.0147   -3.1799    1.2390 H   0  0  0  0  0  0  0  0  0  0  0  0
   -3.0681   -2.1645    0.8363 C   0  0  0  0  0  0  0  0  0  0  0  0
   -3.9344   -1.6580    1.2684 H   0  0  0  0  0  0  0  0  0  0  0  0
   -3.1897   -2.2239   -0.2480 H   0  0  0  0  0  0  0  0  0  0  0  0
   -1.8006   -1.4021    1.1721 C   0  0  0  0  0  0  0  0  0  0  0  0
   -0.9598   -1.9141    1.8963 O   0  0  0  0  0  0  0  0  0  0  0  0
   -1.6413   -0.1077    0.7083 N   0  0  0  0  0  0  0  0  0  0  0  0
   -2.3438    0.1803    0.0344 H   0  0  0  0  0  0  0  0  0  0  0  0
   -0.3252    0.5626    0.6029 C   0  0  1  0  0  0  0  0  0  0  0  0
   -0.4112    1.3851   -0.1136 H   0  0  0  0  0  0  0  0  0  0  0  0
    0.0362    1.1989    1.9884 C   0  0  1  0  0  0  0  0  0  0  0  0
    0.0281    0.4252    2.7635 H   0  0  0  0  0  0  0  0  0  0  0  0
    1.4253    1.8827    1.9694 C   0  0  0  0  0  0  0  0  0  0  0  0
    1.5771    2.4175    1.0265 H   0  0  0  0  0  0  0  0  0  0  0  0
    2.2284    1.1565    2.0989 H   0  0  0  0  0  0  0  0  0  0  0  0
    1.5393    2.5991    2.7841 H   0  0  0  0  0  0  0  0  0  0  0  0
   -1.0225    2.2854    2.3318 C   0  0  0  0  0  0  0  0  0  0  0  0
   -0.9261    3.1303    1.6417 H   0  0  0  0  0  0  0  0  0  0  0  0
   -2.0271    1.8734    2.2027 H   0  0  0  0  0  0  0  0  0  0  0  0
   -0.9420    2.7979    3.7759 C   0  0  0  0  0  0  0  0  0  0  0  0
   -0.0610    3.4233    3.9378 H   0  0  0  0  0  0  0  0  0  0  0  0
   -1.8248    3.4040    4.0011 H   0  0  0  0  0  0  0  0  0  0  0  0
   -0.9129    1.9579    4.4770 H   0  0  0  0  0  0  0  0  0  0  0  0
    0.6939   -0.4268   -0.0433 C   0  0  0  0  0  0  0  0  0  0  0  0
    0.3847   -0.9219   -1.1228 O   0  0  0  0  0  0  0  0  0  0  0  0
    1.9801   -0.6462    0.4129 N   0  0  0  0  0  0  0  0  0  0  0  0
    2.1464   -0.3964    1.3824 H   0  0  0  0  0  0  0  0  0  0  0  0
    2.8852   -1.6056   -0.2091 C   0  0  0  0  0  0  0  0  0  0  0  0
    3.0738   -1.3353   -1.2533 H   0  0  0  0  0  0  0  0  0  0  0  0
    3.8429   -1.6185    0.3197 H   0  0  0  0  0  0  0  0  0  0  0  0
    2.4565   -2.6128   -0.1770 H   0  0  0  0  0  0  0  0  0  0  0  0
  1  2  1  0  0  0  0
  2  3  1  0  0  0  0
  2  4  1  0  0  0  0
  2  5  1  0  0  0  0
  5  6  2  0  0  0  0
  5  7  1  0  0  0  0
  7  8  1  0  0  0  0
  7  9  1  0  0  0  0
  9 10  1  0  0  0  0
  9 11  1  0  0  0  0
  9 24  1  0  0  0  0
 11 12  1  0  0  0  0
 11 13  1  0  0  0  0
 11 17  1  0  0  0  0
 13 14  1  0  0  0  0
 13 15  1  0  0  0  0
 13 16  1  0  0  0  0
 17 18  1  0  0  0  0
 17 19  1  0  0  0  0
 17 20  1  0  0  0  0
 20 21  1  0  0  0  0
 20 22  1  0  0  0  0
 20 23  1  0  0  0  0
 24 25  2  0  0  0  0
 24 26  1  0  0  0  0
 26 27  1  0  0  0  0
 26 28  1  0  0  0  0
 28 29  1  0  0  0  0
 28 30  1  0  0  0  0
 28 31  1  0  0  0  0
M  END
$$$$

  -OEChem-01062216083D

 31 30  0     1  0  0  0  0  0999 V2000
   -2.9976   -3.2023    1.2522 H   0  0  0  0  0  0  0  0  0  0  0  0
   -3.0557   -2.1904    0.8416 C   0  0  0  0  0  0  0  0  0  0  0  0
   -3.9215   -1.6831    1.2737 H   0  0  0  0  0  0  0  0  0  0  0  0
   -3.1822   -2.2587   -0.2417 H   0  0  0  0  0  0  0  0  0  0  0  0
   -1.7894   -1.4214    1.1662 C   0  0  0  0  0  0  0  0  0  0  0  0
   -0.9386   -1.9307    1.8805 O   0  0  0  0  0  0  0  0  0  0  0  0
   -1.6413   -0.1257    0.7030 N   0  0  0  0  0  0  0  0  0  0  0  0
   -2.3547    0.1649    0.0413 H   0  0  0  0  0  0  0  0  0  0  0  0
   -0.3364    0.5652    0.5982 C   0  0  1  0  0  0  0  0  0  0  0  0
   -0.4344    1.3896   -0.1149 H   0  0  0  0  0  0  0  0  0  0  0  0
    0.0428    1.1940    1.9791 C   0  0  1  0  0  0  0  0  0  0  0  0
    0.0696    0.4115    2.7448 H   0  0  0  0  0  0  0  0  0  0  0  0
    1.4126    1.9151    1.9314 C   0  0  0  0  0  0  0  0  0  0  0  0
    1.4361    2.6335    1.1059 H   0  0  0  0  0  0  0  0  0  0  0  0
    1.6090    2.4531    2.8611 H   0  0  0  0  0  0  0  0  0  0  0  0
    2.2435    1.2219    1.8063 H   0  0  0  0  0  0  0  0  0  0  0  0
   -1.0203    2.2642    2.3522 C   0  0  0  0  0  0  0  0  0  0  0  0
   -0.9514    3.1163    1.6678 H   0  0  0  0  0  0  0  0  0  0  0  0
   -2.0219    1.8390    2.2415 H   0  0  0  0  0  0  0  0  0  0  0  0
   -0.9123    2.7627    3.7982 C   0  0  0  0  0  0  0  0  0  0  0  0
   -0.0265    3.3864    3.9431 H   0  0  0  0  0  0  0  0  0  0  0  0
   -1.7901    3.3668    4.0468 H   0  0  0  0  0  0  0  0  0  0  0  0
   -0.8676    1.9174    4.4919 H   0  0  0  0  0  0  0  0  0  0  0  0
    0.6893   -0.4137   -0.0456 C   0  0  0  0  0  0  0  0  0  0  0  0
    0.4829   -0.7632   -1.2027 O   0  0  0  0  0  0  0  0  0  0  0  0
    1.8527   -0.8381    0.5681 N   0  0  0  0  0  0  0  0  0  0  0  0
    1.8731   -0.7225    1.5776 H   0  0  0  0  0  0  0  0  0  0  0  0
    2.7341   -1.8368   -0.0232 C   0  0  0  0  0  0  0  0  0  0  0  0
    3.1030   -1.4960   -0.9963 H   0  0  0  0  0  0  0  0  0  0  0  0
    3.5955   -2.0125    0.6279 H   0  0  0  0  0  0  0  0  0  0  0  0
    2.2013   -2.7838   -0.1592 H   0  0  0  0  0  0  0  0  0  0  0  0
  1  2  1  0  0  0  0
  2  3  1  0  0  0  0
  2  4  1  0  0  0  0
  2  5  1  0  0  0  0
  5  6  2  0  0  0  0
  5  7  1  0  0  0  0
  7  8  1  0  0  0  0
  7  9  1  0  0  0  0
  9 10  1  0  0  0  0
  9 11  1  0  0  0  0
  9 24  1  0  0  0  0
 11 12  1  0  0  0  0
 11 13  1  0  0  0  0
 11 17  1  0  0  0  0
 13 14  1  0  0  0  0
 13 15  1  0  0  0  0
 13 16  1  0  0  0  0
 17 18  1  0  0  0  0
 17 19  1  0  0  0  0
 17 20  1  0  0  0  0
 20 21  1  0  0  0  0
 20 22  1  0  0  0  0
 20 23  1  0  0  0  0
 24 25  2  0  0  0  0
 24 26  1  0  0  0  0
 26 27  1  0  0  0  0
 26 28  1  0  0  0  0
 28 29  1  0  0  0  0
 28 30  1  0  0  0  0
 28 31  1  0  0  0  0
M  END
$$$$

  -OEChem-01062216083D

 31 30  0     1  0  0  0  0  0999 V2000
   -3.0559   -3.1875    1.2816 H   0  0  0  0  0  0  0  0  0  0  0  0
   -3.1008   -2.1798    0.8592 C   0  0  0  0  0  0  0  0  0  0  0  0
   -3.9534   -1.6528    1.2940 H   0  0  0  0  0  0  0  0  0  0  0  0
   -3.2401   -2.2591   -0.2217 H   0  0  0  0  0  0  0  0  0  0  0  0
   -1.8179   -1.4292    1.1619 C   0  0  0  0  0  0  0  0  0  0  0  0
   -0.9683   -1.9461    1.8721 O   0  0  0  0  0  0  0  0  0  0  0  0
   -1.6532   -0.1411    0.6840 N   0  0  0  0  0  0  0  0  0  0  0  0
   -2.3759    0.1666    0.0402 H   0  0  0  0  0  0  0  0  0  0  0  0
   -0.3481    0.5482    0.5807 C   0  0  1  0  0  0  0  0  0  0  0  0
   -0.4455    1.3695   -0.1363 H   0  0  0  0  0  0  0  0  0  0  0  0
    0.0412    1.1784    1.9544 C   0  0  1  0  0  0  0  0  0  0  0  0
    0.0697    0.3950    2.7192 H   0  0  0  0  0  0  0  0  0  0  0  0
    1.4191    1.8792    1.8880 C   0  0  0  0  0  0  0  0  0  0  0  0
    1.4080    2.6723    1.1338 H   0  0  0  0  0  0  0  0  0  0  0  0
    1.6783    2.3220    2.8525 H   0  0  0  0  0  0  0  0  0  0  0  0
    2.2244    1.1873    1.6393 H   0  0  0  0  0  0  0  0  0  0  0  0
   -1.0079    2.2547    2.3414 C   0  0  0  0  0  0  0  0  0  0  0  0
   -0.9409    3.1087    1.6592 H   0  0  0  0  0  0  0  0  0  0  0  0
   -2.0139    1.8372    2.2417 H   0  0  0  0  0  0  0  0  0  0  0  0
   -0.8704    2.7441    3.7871 C   0  0  0  0  0  0  0  0  0  0  0  0
    0.0379    3.3372    3.9221 H   0  0  0  0  0  0  0  0  0  0  0  0
   -1.7255    3.3757    4.0469 H   0  0  0  0  0  0  0  0  0  0  0  0
   -0.8451    1.8955    4.4779 H   0  0  0  0  0  0  0  0  0  0  0  0
    0.6974   -0.4213   -0.0381 C   0  0  0  0  0  0  0  0  0  0  0  0
    0.6619   -0.6023   -1.2495 O   0  0  0  0  0  0  0  0  0  0  0  0
    1.6841   -1.0443    0.7036 N   0  0  0  0  0  0  0  0  0  0  0  0
    1.4850   -1.1005    1.7003 H   0  0  0  0  0  0  0  0  0  0  0  0
    2.5718   -2.0489    0.1335 C   0  0  0  0  0  0  0  0  0  0  0  0
    3.1376   -1.6298   -0.7051 H   0  0  0  0  0  0  0  0  0  0  0  0
    3.2830   -2.3954    0.8892 H   0  0  0  0  0  0  0  0  0  0  0  0
    1.9960   -2.9093   -0.2233 H   0  0  0  0  0  0  0  0  0  0  0  0
  1  2  1  0  0  0  0
  2  3  1  0  0  0  0
  2  4  1  0  0  0  0
  2  5  1  0  0  0  0
  5  6  2  0  0  0  0
  5  7  1  0  0  0  0
  7  8  1  0  0  0  0
  7  9  1  0  0  0  0
  9 10  1  0  0  0  0
  9 11  1  0  0  0  0
  9 24  1  0  0  0  0
 11 12  1  0  0  0  0
 11 13  1  0  0  0  0
 11 17  1  0  0  0  0
 13 14  1  0  0  0  0
 13 15  1  0  0  0  0
 13 16  1  0  0  0  0
 17 18  1  0  0  0  0
 17 19  1  0  0  0  0
 17 20  1  0  0  0  0
 20 21  1  0  0  0  0
 20 22  1  0  0  0  0
 20 23  1  0  0  0  0
 24 25  2  0  0  0  0
 24 26  1  0  0  0  0
 26 27  1  0  0  0  0
 26 28  1  0  0  0  0
 28 29  1  0  0  0  0
 28 30  1  0  0  0  0
 28 31  1  0  0  0  0
M  END
$$$$

  -OEChem-01062216083D

 31 30  0     1  0  0  0  0  0999 V2000
   -3.1641   -3.1571    1.3166 H   0  0  0  0  0  0  0  0  0  0  0  0
   -3.1842   -2.1491    0.8928 C   0  0  0  0  0  0  0  0  0  0  0  0
   -4.0110   -1.5942    1.3425 H   0  0  0  0  0  0  0  0  0  0  0  0
   -3.3478   -2.2260   -0.1850 H   0  0  0  0  0  0  0  0  0  0  0  0
   -1.8720   -1.4395    1.1683 C   0  0  0  0  0  0  0  0  0  0  0  0
   -1.0318   -1.9772    1.8736 O   0  0  0  0  0  0  0  0  0  0  0  0
   -1.6748   -0.1622    0.6753 N   0  0  0  0  0  0  0  0  0  0  0  0
   -2.4112    0.1767    0.0631 H   0  0  0  0  0  0  0  0  0  0  0  0
   -0.3644    0.5167    0.5636 C   0  0  1  0  0  0  0  0  0  0  0  0
   -0.4657    1.3367   -0.1546 H   0  0  0  0  0  0  0  0  0  0  0  0
    0.0335    1.1482    1.9323 C   0  0  1  0  0  0  0  0  0  0  0  0
    0.0496    0.3662    2.6987 H   0  0  0  0  0  0  0  0  0  0  0  0
    1.4302    1.8065    1.8585 C   0  0  0  0  0  0  0  0  0  0  0  0
    1.4414    2.5957    1.1000 H   0  0  0  0  0  0  0  0  0  0  0  0
    1.7072    2.2454    2.8201 H   0  0  0  0  0  0  0  0  0  0  0  0
    2.2081    1.0817    1.6091 H   0  0  0  0  0  0  0  0  0  0  0  0
   -0.9988    2.2359    2.3264 C   0  0  0  0  0  0  0  0  0  0  0  0
   -0.9226    3.0890    1.6441 H   0  0  0  0  0  0  0  0  0  0  0  0
   -2.0110    1.8321    2.2324 H   0  0  0  0  0  0  0  0  0  0  0  0
   -0.8417    2.7213    3.7714 C   0  0  0  0  0  0  0  0  0  0  0  0
    0.0830    3.2896    3.9023 H   0  0  0  0  0  0  0  0  0  0  0  0
   -1.6785    3.3748    4.0357 H   0  0  0  0  0  0  0  0  0  0  0  0
   -0.8355    1.8722    4.4618 H   0  0  0  0  0  0  0  0  0  0  0  0
    0.7110   -0.4298   -0.0353 C   0  0  0  0  0  0  0  0  0  0  0  0
    0.8824   -0.4192   -1.2480 O   0  0  0  0  0  0  0  0  0  0  0  0
    1.5015   -1.2467    0.7520 N   0  0  0  0  0  0  0  0  0  0  0  0
    1.0911   -1.4585    1.6624 H   0  0  0  0  0  0  0  0  0  0  0  0
    2.4250   -2.2207    0.1854 C   0  0  0  0  0  0  0  0  0  0  0  0
    3.1669   -1.7235   -0.4482 H   0  0  0  0  0  0  0  0  0  0  0  0
    2.9544   -2.7472    0.9854 H   0  0  0  0  0  0  0  0  0  0  0  0
    1.8827   -2.9569   -0.4168 H   0  0  0  0  0  0  0  0  0  0  0  0
  1  2  1  0  0  0  0
  2  3  1  0  0  0  0
  2  4  1  0  0  0  0
  2  5  1  0  0  0  0
  5  6  2  0  0  0  0
  5  7  1  0  0  0  0
  7  8  1  0  0  0  0
  7  9  1  0  0  0  0
  9 10  1  0  0  0  0
  9 11  1  0  0  0  0
  9 24  1  0  0  0  0
 11 12  1  0  0  0  0
 11 13  1  0  0  0  0
 11 17  1  0  0  0  0
 13 14  1  0  0  0  0
 13 15  1  0  0  0  0
 13 16  1  0  0  0  0
 17 18  1  0  0  0  0
 17 19  1  0  0  0  0
 17 20  1  0  0  0  0
 20 21  1  0  0  0  0
 20 22  1  0  0  0  0
 20 23  1  0  0  0  0
 24 25  2  0  0  0  0
 24 26  1  0  0  0  0
 26 27  1  0  0  0  0
 26 28  1  0  0  0  0
 28 29  1  0  0  0  0
 28 30  1  0  0  0  0
 28 31  1  0  0  0  0
M  END
$$$$

  -OEChem-01062216083D

 31 30  0     1  0  0  0  0  0999 V2000
   -3.3077   -3.0998    1.3647 H   0  0  0  0  0  0  0  0  0  0  0  0
   -3.2915   -2.0929    0.9378 C   0  0  0  0  0  0  0  0  0  0  0  0
   -4.0785   -1.4982    1.4079 H   0  0  0  0  0  0  0  0  0  0  0  0
   -3.4880   -2.1642   -0.1348 H   0  0  0  0  0  0  0  0  0  0  0  0
   -1.9406   -1.4453    1.1762 C   0  0  0  0  0  0  0  0  0  0  0  0
   -1.1201   -2.0143    1.8788 O   0  0  0  0  0  0  0  0  0  0  0  0
   -1.6972   -0.1833    0.6655 N   0  0  0  0  0  0  0  0  0  0  0  0
   -2.4448    0.1923    0.0894 H   0  0  0  0  0  0  0  0  0  0  0  0
   -0.3791    0.4822    0.5387 C   0  0  1  0  0  0  0  0  0  0  0  0
   -0.4841    1.3022   -0.1794 H   0  0  0  0  0  0  0  0  0  0  0  0
    0.0228    1.1090    1.9076 C   0  0  1  0  0  0  0  0  0  0  0  0
    0.0234    0.3243    2.6716 H   0  0  0  0  0  0  0  0  0  0  0  0
    1.4356    1.7312    1.8417 C   0  0  0  0  0  0  0  0  0  0  0  0
    1.4787    2.5022    1.0658 H   0  0  0  0  0  0  0  0  0  0  0  0
    1.7115    2.1841    2.7969 H   0  0  0  0  0  0  0  0  0  0  0  0
    2.1950    0.9764    1.6207 H   0  0  0  0  0  0  0  0  0  0  0  0
   -0.9965    2.2063    2.3074 C   0  0  0  0  0  0  0  0  0  0  0  0
   -0.9094    3.0608    1.6282 H   0  0  0  0  0  0  0  0  0  0  0  0
   -2.0139    1.8162    2.2129 H   0  0  0  0  0  0  0  0  0  0  0  0
   -0.8310    2.6850    3.7537 C   0  0  0  0  0  0  0  0  0  0  0  0
    0.1046    3.2343    3.8869 H   0  0  0  0  0  0  0  0  0  0  0  0
   -1.6550    3.3540    4.0193 H   0  0  0  0  0  0  0  0  0  0  0  0
   -0.8421    1.8338    4.4415 H   0  0  0  0  0  0  0  0  0  0  0  0
    0.7293   -0.4374   -0.0412 C   0  0  0  0  0  0  0  0  0  0  0  0
    1.1016   -0.2469   -1.1920 O   0  0  0  0  0  0  0  0  0  0  0  0
    1.3291   -1.4371    0.7004 N   0  0  0  0  0  0  0  0  0  0  0  0
    0.7944   -1.7290    1.5224 H   0  0  0  0  0  0  0  0  0  0  0  0
    2.2875   -2.3772    0.1356 C   0  0  0  0  0  0  0  0  0  0  0  0
    3.1503   -1.8443   -0.2777 H   0  0  0  0  0  0  0  0  0  0  0  0
    2.6451   -3.0604    0.9118 H   0  0  0  0  0  0  0  0  0  0  0  0
    1.8221   -2.9672   -0.6606 H   0  0  0  0  0  0  0  0  0  0  0  0
  1  2  1  0  0  0  0
  2  3  1  0  0  0  0
  2  4  1  0  0  0  0
  2  5  1  0  0  0  0
  5  6  2  0  0  0  0
  5  7  1  0  0  0  0
  7  8  1  0  0  0  0
  7  9  1  0  0  0  0
  9 10  1  0  0  0  0
  9 11  1  0  0  0  0
  9 24  1  0  0  0  0
 11 12  1  0  0  0  0
 11 13  1  0  0  0  0
 11 17  1  0  0  0  0
 13 14  1  0  0  0  0
 13 15  1  0  0  0  0
 13 16  1  0  0  0  0
 17 18  1  0  0  0  0
 17 19  1  0  0  0  0
 17 20  1  0  0  0  0
 20 21  1  0  0  0  0
 20 22  1  0  0  0  0
 20 23  1  0  0  0  0
 24 25  2  0  0  0  0
 24 26  1  0  0  0  0
 26 27  1  0  0  0  0
 26 28  1  0  0  0  0
 28 29  1  0  0  0  0
 28 30  1  0  0  0  0
 28 31  1  0  0  0  0
M  END
$$$$

  -OEChem-01062216083D

 31 30  0     1  0  0  0  0  0999 V2000
   -3.4373   -3.0489    1.3827 H   0  0  0  0  0  0  0  0  0  0  0  0
   -3.3940   -2.0318    0.9825 C   0  0  0  0  0  0  0  0  0  0  0  0
   -4.1376   -1.4189    1.4976 H   0  0  0  0  0  0  0  0  0  0  0  0
   -3.6325   -2.0648   -0.0833 H   0  0  0  0  0  0  0  0  0  0  0  0
   -2.0093   -1.4472    1.1883 C   0  0  0  0  0  0  0  0  0  0  0  0
   -1.2080   -2.0493    1.8841 O   0  0  0  0  0  0  0  0  0  0  0  0
   -1.7221   -0.1997    0.6652 N   0  0  0  0  0  0  0  0  0  0  0  0
   -2.4747    0.2095    0.1193 H   0  0  0  0  0  0  0  0  0  0  0  0
   -0.3939    0.4469    0.5217 C   0  0  1  0  0  0  0  0  0  0  0  0
   -0.5017    1.2666   -0.1962 H   0  0  0  0  0  0  0  0  0  0  0  0
    0.0097    1.0736    1.8909 C   0  0  1  0  0  0  0  0  0  0  0  0
   -0.0107    0.2888    2.6546 H   0  0  0  0  0  0  0  0  0  0  0  0
    1.4372    1.6613    1.8451 C   0  0  0  0  0  0  0  0  0  0  0  0
    1.5185    2.4119    1.0526 H   0  0  0  0  0  0  0  0  0  0  0  0
    1.7021    2.1296    2.7958 H   0  0  0  0  0  0  0  0  0  0  0  0
    2.1806    0.8802    1.6614 H   0  0  0  0  0  0  0  0  0  0  0  0
   -0.9977    2.1848    2.2854 C   0  0  0  0  0  0  0  0  0  0  0  0
   -0.8958    3.0366    1.6049 H   0  0  0  0  0  0  0  0  0  0  0  0
   -2.0199    1.8088    2.1878 H   0  0  0  0  0  0  0  0  0  0  0  0
   -0.8329    2.6666    3.7304 C   0  0  0  0  0  0  0  0  0  0  0  0
    0.1058    3.2104    3.8642 H   0  0  0  0  0  0  0  0  0  0  0  0
   -1.6526    3.3428    3.9918 H   0  0  0  0  0  0  0  0  0  0  0  0
   -0.8516    1.8178    4.4210 H   0  0  0  0  0  0  0  0  0  0  0  0
    0.7370   -0.4527   -0.0502 C   0  0  0  0  0  0  0  0  0  0  0  0
    1.2771   -0.1081   -1.0938 O   0  0  0  0  0  0  0  0  0  0  0  0
    1.1611   -1.6190    0.5545 N   0  0  0  0  0  0  0  0  0  0  0  0
    0.5771   -1.9557    1.3244 H   0  0  0  0  0  0  0  0  0  0  0  0
    2.1528   -2.5166   -0.0219 C   0  0  0  0  0  0  0  0  0  0  0  0
    3.0898   -1.9821   -0.2099 H   0  0  0  0  0  0  0  0  0  0  0  0
    2.3594   -3.3409    0.6673 H   0  0  0  0  0  0  0  0  0  0  0  0
    1.7882   -2.9341   -0.9661 H   0  0  0  0  0  0  0  0  0  0  0  0
  1  2  1  0  0  0  0
  2  3  1  0  0  0  0
  2  4  1  0  0  0  0
  2  5  1  0  0  0  0
  5  6  2  0  0  0  0
  5  7  1  0  0  0  0
  7  8  1  0  0  0  0
  7  9  1  0  0  0  0
  9 10  1  0  0  0  0
  9 11  1  0  0  0  0
  9 24  1  0  0  0  0
 11 12  1  0  0  0  0
 11 13  1  0  0  0  0
 11 17  1  0  0  0  0
 13 14  1  0  0  0  0
 13 15  1  0  0  0  0
 13 16  1  0  0  0  0
 17 18  1  0  0  0  0
 17 19  1  0  0  0  0
 17 20  1  0  0  0  0
 20 21  1  0  0  0  0
 20 22  1  0  0  0  0
 20 23  1  0  0  0  0
 24 25  2  0  0  0  0
 24 26  1  0  0  0  0
 26 27  1  0  0  0  0
 26 28  1  0  0  0  0
 28 29  1  0  0  0  0
 28 30  1  0  0  0  0
 28 31  1  0  0  0  0
M  END
$$$$

  -OEChem-01062216083D

 31 30  0     1  0  0  0  0  0999 V2000
   -3.5451   -2.9891    1.4467 H   0  0  0  0  0  0  0  0  0  0  0  0
   -3.4681   -1.9894    1.0099 C   0  0  0  0  0  0  0  0  0  0  0  0
   -4.1967   -1.3361    1.4961 H   0  0  0  0  0  0  0  0  0  0  0  0
   -3.6997   -2.0544   -0.0559 H   0  0  0  0  0  0  0  0  0  0  0  0
   -2.0676   -1.4394    1.2044 C   0  0  0  0  0  0  0  0  0  0  0  0
   -1.2764   -2.0603    1.8950 O   0  0  0  0  0  0  0  0  0  0  0  0
   -1.7548   -0.2020    0.6721 N   0  0  0  0  0  0  0  0  0  0  0  0
   -2.5101    0.2264    0.1453 H   0  0  0  0  0  0  0  0  0  0  0  0
   -0.4197    0.4276    0.5037 C   0  0  1  0  0  0  0  0  0  0  0  0
   -0.5307    1.2486   -0.2125 H   0  0  0  0  0  0  0  0  0  0  0  0
    0.0014    1.0470    1.8729 C   0  0  1  0  0  0  0  0  0  0  0  0
   -0.0196    0.2589    2.6333 H   0  0  0  0  0  0  0  0  0  0  0  0
    1.4334    1.6243    1.8208 C   0  0  0  0  0  0  0  0  0  0  0  0
    1.5135    2.3813    1.0340 H   0  0  0  0  0  0  0  0  0  0  0  0
    1.7103    2.0826    2.7730 H   0  0  0  0  0  0  0  0  0  0  0  0
    2.1697    0.8395    1.6244 H   0  0  0  0  0  0  0  0  0  0  0  0
   -0.9906    2.1677    2.2814 C   0  0  0  0  0  0  0  0  0  0  0  0
   -0.8864    3.0206    1.6025 H   0  0  0  0  0  0  0  0  0  0  0  0
   -2.0178    1.8036    2.1931 H   0  0  0  0  0  0  0  0  0  0  0  0
   -0.8078    2.6424    3.7271 C   0  0  0  0  0  0  0  0  0  0  0  0
    0.1366    3.1780    3.8544 H   0  0  0  0  0  0  0  0  0  0  0  0
   -1.6196    3.3242    3.9988 H   0  0  0  0  0  0  0  0  0  0  0  0
   -0.8270    1.7911    4.4147 H   0  0  0  0  0  0  0  0  0  0  0  0
    0.7092   -0.4709   -0.0797 C   0  0  0  0  0  0  0  0  0  0  0  0
    1.3878   -0.0179   -0.9934 O   0  0  0  0  0  0  0  0  0  0  0  0
    0.9590   -1.7660    0.3269 N   0  0  0  0  0  0  0  0  0  0  0  0
    0.3697   -2.1275    1.0808 H   0  0  0  0  0  0  0  0  0  0  0  0
    2.0001   -2.6172   -0.2328 C   0  0  0  0  0  0  0  0  0  0  0  0
    2.9823   -2.1467   -0.1191 H   0  0  0  0  0  0  0  0  0  0  0  0
    2.0171   -3.5810    0.2850 H   0  0  0  0  0  0  0  0  0  0  0  0
    1.8157   -2.7984   -1.2966 H   0  0  0  0  0  0  0  0  0  0  0  0
  1  2  1  0  0  0  0
  2  3  1  0  0  0  0
  2  4  1  0  0  0  0
  2  5  1  0  0  0  0
  5  6  2  0  0  0  0
  5  7  1  0  0  0  0
  7  8  1  0  0  0  0
  7  9  1  0  0  0  0
  9 10  1  0  0  0  0
  9 11  1  0  0  0  0
  9 24  1  0  0  0  0
 11 12  1  0  0  0  0
 11 13  1  0  0  0  0
 11 17  1  0  0  0  0
 13 14  1  0  0  0  0
 13 15  1  0  0  0  0
 13 16  1  0  0  0  0
 17 18  1  0  0  0  0
 17 19  1  0  0  0  0
 17 20  1  0  0  0  0
 20 21  1  0  0  0  0
 20 22  1  0  0  0  0
 20 23  1  0  0  0  0
 24 25  2  0  0  0  0
 24 26  1  0  0  0  0
 26 27  1  0  0  0  0
 26 28  1  0  0  0  0
 28 29  1  0  0  0  0
 28 30  1  0  0  0  0
 28 31  1  0  0  0  0
M  END
$$$$

  -OEChem-01062216083D

 31 30  0     1  0  0  0  0  0999 V2000
   -3.6152   -2.9391    1.3721 H   0  0  0  0  0  0  0  0  0  0  0  0
   -3.5205   -1.9254    0.9724 C   0  0  0  0  0  0  0  0  0  0  0  0
   -4.2154   -1.2711    1.5043 H   0  0  0  0  0  0  0  0  0  0  0  0
   -3.7836   -1.9414   -0.0880 H   0  0  0  0  0  0  0  0  0  0  0  0
   -2.0993   -1.4238    1.1481 C   0  0  0  0  0  0  0  0  0  0  0  0
   -1.3132   -2.0860    1.8050 O   0  0  0  0  0  0  0  0  0  0  0  0
   -1.7568   -0.1871    0.6328 N   0  0  0  0  0  0  0  0  0  0  0  0
   -2.5085    0.2775    0.1320 H   0  0  0  0  0  0  0  0  0  0  0  0
   -0.4102    0.4253    0.4835 C   0  0  1  0  0  0  0  0  0  0  0  0
   -0.5027    1.2565   -0.2229 H   0  0  0  0  0  0  0  0  0  0  0  0
   -0.0122    1.0209    1.8724 C   0  0  1  0  0  0  0  0  0  0  0  0
   -0.0630    0.2208    2.6189 H   0  0  0  0  0  0  0  0  0  0  0  0
    1.4278    1.5794    1.8767 C   0  0  0  0  0  0  0  0  0  0  0  0
    1.5458    2.3428    1.1013 H   0  0  0  0  0  0  0  0  0  0  0  0
    1.6784    2.0237    2.8424 H   0  0  0  0  0  0  0  0  0  0  0  0
    2.1586    0.7854    1.6988 H   0  0  0  0  0  0  0  0  0  0  0  0
   -1.0014    2.1472    2.2753 C   0  0  0  0  0  0  0  0  0  0  0  0
   -0.8707    3.0082    1.6119 H   0  0  0  0  0  0  0  0  0  0  0  0
   -2.0312    1.7982    2.1587 H   0  0  0  0  0  0  0  0  0  0  0  0
   -0.8464    2.5996    3.7311 C   0  0  0  0  0  0  0  0  0  0  0  0
    0.0930    3.1376    3.8829 H   0  0  0  0  0  0  0  0  0  0  0  0
   -1.6660    3.2730    3.9992 H   0  0  0  0  0  0  0  0  0  0  0  0
   -0.8736    1.7376    4.4048 H   0  0  0  0  0  0  0  0  0  0  0  0
    0.7248   -0.4700   -0.0981 C   0  0  0  0  0  0  0  0  0  0  0  0
    1.5387    0.0553   -0.8484 O   0  0  0  0  0  0  0  0  0  0  0  0
    0.7982   -1.8398    0.0585 N   0  0  0  0  0  0  0  0  0  0  0  0
    0.1780   -2.2413    0.7650 H   0  0  0  0  0  0  0  0  0  0  0  0
    1.8715   -2.6639   -0.4813 C   0  0  0  0  0  0  0  0  0  0  0  0
    2.8393   -2.3428   -0.0826 H   0  0  0  0  0  0  0  0  0  0  0  0
    1.7137   -3.7115   -0.2080 H   0  0  0  0  0  0  0  0  0  0  0  0
    1.8976   -2.5922   -1.5735 H   0  0  0  0  0  0  0  0  0  0  0  0
  1  2  1  0  0  0  0
  2  3  1  0  0  0  0
  2  4  1  0  0  0  0
  2  5  1  0  0  0  0
  5  6  2  0  0  0  0
  5  7  1  0  0  0  0
  7  8  1  0  0  0  0
  7  9  1  0  0  0  0
  9 10  1  0  0  0  0
  9 11  1  0  0  0  0
  9 24  1  0  0  0  0
 11 12  1  0  0  0  0
 11 13  1  0  0  0  0
 11 17  1  0  0  0  0
 13 14  1  0  0  0  0
 13 15  1  0  0  0  0
 13 16  1  0  0  0  0
 17 18  1  0  0  0  0
 17 19  1  0  0  0  0
 17 20  1  0  0  0  0
 20 21  1  0  0  0  0
 20 22  1  0  0  0  0
 20 23  1  0  0  0  0
 24 25  2  0  0  0  0
 24 26  1  0  0  0  0
 26 27  1  0  0  0  0
 26 28  1  0  0  0  0
 28 29  1  0  0  0  0
 28 30  1  0  0  0  0
 28 31  1  0  0  0  0
M  END
$$$$

  -OEChem-01062216083D

 31 30  0     1  0  0  0  0  0999 V2000
   -3.6100   -2.9079    1.5494 H   0  0  0  0  0  0  0  0  0  0  0  0
   -3.5213   -1.9104    1.1095 C   0  0  0  0  0  0  0  0  0  0  0  0
   -4.1714   -1.2252    1.6591 H   0  0  0  0  0  0  0  0  0  0  0  0
   -3.8482   -1.9565    0.0678 H   0  0  0  0  0  0  0  0  0  0  0  0
   -2.0833   -1.4317    1.1823 C   0  0  0  0  0  0  0  0  0  0  0  0
   -1.2551   -2.1198    1.7553 O   0  0  0  0  0  0  0  0  0  0  0  0
   -1.7590   -0.1971    0.6511 N   0  0  0  0  0  0  0  0  0  0  0  0
   -2.5362    0.2921    0.2175 H   0  0  0  0  0  0  0  0  0  0  0  0
   -0.4183    0.4177    0.4610 C   0  0  1  0  0  0  0  0  0  0  0  0
   -0.5293    1.2443   -0.2481 H   0  0  0  0  0  0  0  0  0  0  0  0
   -0.0055    1.0221    1.8448 C   0  0  1  0  0  0  0  0  0  0  0  0
   -0.0478    0.2237    2.5936 H   0  0  0  0  0  0  0  0  0  0  0  0
    1.4324    1.5838    1.8449 C   0  0  0  0  0  0  0  0  0  0  0  0
    1.5500    2.3389    1.0611 H   0  0  0  0  0  0  0  0  0  0  0  0
    1.6825    2.0384    2.8060 H   0  0  0  0  0  0  0  0  0  0  0  0
    2.1636    0.7876    1.6776 H   0  0  0  0  0  0  0  0  0  0  0  0
   -0.9968    2.1447    2.2564 C   0  0  0  0  0  0  0  0  0  0  0  0
   -0.8789    3.0033    1.5870 H   0  0  0  0  0  0  0  0  0  0  0  0
   -2.0260    1.7905    2.1550 H   0  0  0  0  0  0  0  0  0  0  0  0
   -0.8290    2.6067    3.7082 C   0  0  0  0  0  0  0  0  0  0  0  0
    0.1078    3.1530    3.8468 H   0  0  0  0  0  0  0  0  0  0  0  0
   -1.6506    3.2760    3.9810 H   0  0  0  0  0  0  0  0  0  0  0  0
   -0.8423    1.7487    4.3876 H   0  0  0  0  0  0  0  0  0  0  0  0
    0.7067   -0.4757   -0.1473 C   0  0  0  0  0  0  0  0  0  0  0  0
    1.5982    0.0781   -0.7804 O   0  0  0  0  0  0  0  0  0  0  0  0
    0.6377   -1.8525   -0.2403 N   0  0  0  0  0  0  0  0  0  0  0  0
    0.0020   -2.2971    0.4243 H   0  0  0  0  0  0  0  0  0  0  0  0
    1.6853   -2.6686   -0.8409 C   0  0  0  0  0  0  0  0  0  0  0  0
    2.6346   -2.5229   -0.3150 H   0  0  0  0  0  0  0  0  0  0  0  0
    1.4154   -3.7274   -0.7852 H   0  0  0  0  0  0  0  0  0  0  0  0
    1.8206   -2.4034   -1.8946 H   0  0  0  0  0  0  0  0  0  0  0  0
  1  2  1  0  0  0  0
  2  3  1  0  0  0  0
  2  4  1  0  0  0  0
  2  5  1  0  0  0  0
  5  6  2  0  0  0  0
  5  7  1  0  0  0  0
  7  8  1  0  0  0  0
  7  9  1  0  0  0  0
  9 10  1  0  0  0  0
  9 11  1  0  0  0  0
  9 24  1  0  0  0  0
 11 12  1  0  0  0  0
 11 13  1  0  0  0  0
 11 17  1  0  0  0  0
 13 14  1  0  0  0  0
 13 15  1  0  0  0  0
 13 16  1  0  0  0  0
 17 18  1  0  0  0  0
 17 19  1  0  0  0  0
 17 20  1  0  0  0  0
 20 21  1  0  0  0  0
 20 22  1  0  0  0  0
 20 23  1  0  0  0  0
 24 25  2  0  0  0  0
 24 26  1  0  0  0  0
 26 27  1  0  0  0  0
 26 28  1  0  0  0  0
 28 29  1  0  0  0  0
 28 30  1  0  0  0  0
 28 31  1  0  0  0  0
M  END
$$$$

  -OEChem-01062216083D

 31 30  0     1  0  0  0  0  0999 V2000
   -3.5759   -2.8925    1.5842 H   0  0  0  0  0  0  0  0  0  0  0  0
   -3.4940   -1.8912    1.1517 C   0  0  0  0  0  0  0  0  0  0  0  0
   -4.1008   -1.2024    1.7444 H   0  0  0  0  0  0  0  0  0  0  0  0
   -3.8778   -1.9185    0.1289 H   0  0  0  0  0  0  0  0  0  0  0  0
   -2.0463   -1.4374    1.1520 C   0  0  0  0  0  0  0  0  0  0  0  0
   -1.1928   -2.1658    1.6291 O   0  0  0  0  0  0  0  0  0  0  0  0
   -1.7295   -0.1969    0.6301 N   0  0  0  0  0  0  0  0  0  0  0  0
   -2.5195    0.3274    0.2659 H   0  0  0  0  0  0  0  0  0  0  0  0
   -0.3901    0.4232    0.4467 C   0  0  1  0  0  0  0  0  0  0  0  0
   -0.4963    1.2509   -0.2614 H   0  0  0  0  0  0  0  0  0  0  0  0
   -0.0001    1.0247    1.8418 C   0  0  1  0  0  0  0  0  0  0  0  0
   -0.0511    0.2220    2.5856 H   0  0  0  0  0  0  0  0  0  0  0  0
    1.4332    1.5958    1.8781 C   0  0  0  0  0  0  0  0  0  0  0  0
    1.5715    2.3388    1.0862 H   0  0  0  0  0  0  0  0  0  0  0  0
    1.6532    2.0672    2.8382 H   0  0  0  0  0  0  0  0  0  0  0  0
    2.1718    0.7998    1.7482 H   0  0  0  0  0  0  0  0  0  0  0  0
   -1.0054    2.1398    2.2447 C   0  0  0  0  0  0  0  0  0  0  0  0
   -0.8835    3.0017    1.5805 H   0  0  0  0  0  0  0  0  0  0  0  0
   -2.0309    1.7802    2.1273 H   0  0  0  0  0  0  0  0  0  0  0  0
   -0.8639    2.5983    3.7007 C   0  0  0  0  0  0  0  0  0  0  0  0
    0.0594    3.1634    3.8530 H   0  0  0  0  0  0  0  0  0  0  0  0
   -1.7019    3.2496    3.9667 H   0  0  0  0  0  0  0  0  0  0  0  0
   -0.8677    1.7372    4.3760 H   0  0  0  0  0  0  0  0  0  0  0  0
    0.7298   -0.4757   -0.1675 C   0  0  0  0  0  0  0  0  0  0  0  0
    1.7175    0.0694   -0.6466 O   0  0  0  0  0  0  0  0  0  0  0  0
    0.5204   -1.7934   -0.5312 N   0  0  0  0  0  0  0  0  0  0  0  0
   -0.1689   -2.2761    0.0464 H   0  0  0  0  0  0  0  0  0  0  0  0
    1.5351   -2.6067   -1.1906 C   0  0  0  0  0  0  0  0  0  0  0  0
    2.4362   -2.6723   -0.5719 H   0  0  0  0  0  0  0  0  0  0  0  0
    1.1543   -3.6185   -1.3591 H   0  0  0  0  0  0  0  0  0  0  0  0
    1.8034   -2.1745   -2.1604 H   0  0  0  0  0  0  0  0  0  0  0  0
  1  2  1  0  0  0  0
  2  3  1  0  0  0  0
  2  4  1  0  0  0  0
  2  5  1  0  0  0  0
  5  6  2  0  0  0  0
  5  7  1  0  0  0  0
  7  8  1  0  0  0  0
  7  9  1  0  0  0  0
  9 10  1  0  0  0  0
  9 11  1  0  0  0  0
  9 24  1  0  0  0  0
 11 12  1  0  0  0  0
 11 13  1  0  0  0  0
 11 17  1  0  0  0  0
 13 14  1  0  0  0  0
 13 15  1  0  0  0  0
 13 16  1  0  0  0  0
 17 18  1  0  0  0  0
 17 19  1  0  0  0  0
 17 20  1  0  0  0  0
 20 21  1  0  0  0  0
 20 22  1  0  0  0  0
 20 23  1  0  0  0  0
 24 25  2  0  0  0  0
 24 26  1  0  0  0  0
 26 27  1  0  0  0  0
 26 28  1  0  0  0  0
 28 29  1  0  0  0  0
 28 30  1  0  0  0  0
 28 31  1  0  0  0  0
M  END
$$$$

  -OEChem-01062216083D

 31 30  0     1  0  0  0  0  0999 V2000
   -3.5190   -2.8662    1.6570 H   0  0  0  0  0  0  0  0  0  0  0  0
   -3.4464   -1.8661    1.2200 C   0  0  0  0  0  0  0  0  0  0  0  0
   -3.9851   -1.1640    1.8610 H   0  0  0  0  0  0  0  0  0  0  0  0
   -3.9127   -1.8797    0.2318 H   0  0  0  0  0  0  0  0  0  0  0  0
   -1.9923   -1.4497    1.1027 C   0  0  0  0  0  0  0  0  0  0  0  0
   -1.1186   -2.2241    1.4513 O   0  0  0  0  0  0  0  0  0  0  0  0
   -1.6868   -0.1998    0.5968 N   0  0  0  0  0  0  0  0  0  0  0  0
   -2.4884    0.3719    0.3478 H   0  0  0  0  0  0  0  0  0  0  0  0
   -0.3484    0.4271    0.4290 C   0  0  1  0  0  0  0  0  0  0  0  0
   -0.4455    1.2576   -0.2770 H   0  0  0  0  0  0  0  0  0  0  0  0
    0.0077    1.0241    1.8378 C   0  0  1  0  0  0  0  0  0  0  0  0
   -0.0569    0.2158    2.5747 H   0  0  0  0  0  0  0  0  0  0  0  0
    1.4339    1.6078    1.9224 C   0  0  0  0  0  0  0  0  0  0  0  0
    1.6025    2.3310    1.1183 H   0  0  0  0  0  0  0  0  0  0  0  0
    1.6106    2.1050    2.8779 H   0  0  0  0  0  0  0  0  0  0  0  0
    2.1819    0.8136    1.8481 H   0  0  0  0  0  0  0  0  0  0  0  0
   -1.0180    2.1294    2.2221 C   0  0  0  0  0  0  0  0  0  0  0  0
   -0.8865    2.9945    1.5637 H   0  0  0  0  0  0  0  0  0  0  0  0
   -2.0377    1.7637    2.0789 H   0  0  0  0  0  0  0  0  0  0  0  0
   -0.9188    2.5859    3.6825 C   0  0  0  0  0  0  0  0  0  0  0  0
   -0.0081    3.1637    3.8606 H   0  0  0  0  0  0  0  0  0  0  0  0
   -1.7720    3.2252    3.9288 H   0  0  0  0  0  0  0  0  0  0  0  0
   -0.9284    1.7230    4.3555 H   0  0  0  0  0  0  0  0  0  0  0  0
    0.7626   -0.4805   -0.1910 C   0  0  0  0  0  0  0  0  0  0  0  0
    1.8491    0.0073   -0.4792 O   0  0  0  0  0  0  0  0  0  0  0  0
    0.4448   -1.6663   -0.8297 N   0  0  0  0  0  0  0  0  0  0  0  0
   -0.3279   -2.1632   -0.3887 H   0  0  0  0  0  0  0  0  0  0  0  0
    1.4348   -2.4710   -1.5365 C   0  0  0  0  0  0  0  0  0  0  0  0
    2.2426   -2.7670   -0.8590 H   0  0  0  0  0  0  0  0  0  0  0  0
    0.9673   -3.3753   -1.9375 H   0  0  0  0  0  0  0  0  0  0  0  0
    1.8636   -1.9073   -2.3716 H   0  0  0  0  0  0  0  0  0  0  0  0
  1  2  1  0  0  0  0
  2  3  1  0  0  0  0
  2  4  1  0  0  0  0
  2  5  1  0  0  0  0
  5  6  2  0  0  0  0
  5  7  1  0  0  0  0
  7  8  1  0  0  0  0
  7  9  1  0  0  0  0
  9 10  1  0  0  0  0
  9 11  1  0  0  0  0
  9 24  1  0  0  0  0
 11 12  1  0  0  0  0
 11 13  1  0  0  0  0
 11 17  1  0  0  0  0
 13 14  1  0  0  0  0
 13 15  1  0  0  0  0
 13 16  1  0  0  0  0
 17 18  1  0  0  0  0
 17 19  1  0  0  0  0
 17 20  1  0  0  0  0
 20 21  1  0  0  0  0
 20 22  1  0  0  0  0
 20 23  1  0  0  0  0
 24 25  2  0  0  0  0
 24 26  1  0  0  0  0
 26 27  1  0  0  0  0
 26 28  1  0  0  0  0
 28 29  1  0  0  0  0
 28 30  1  0  0  0  0
 28 31  1  0  0  0  0
M  END
$$$$

  -OEChem-01062216083D

 31 30  0     1  0  0  0  0  0999 V2000
   -3.4124   -2.9067    1.6314 H   0  0  0  0  0  0  0  0  0  0  0  0
   -3.3649   -1.8949    1.2181 C   0  0  0  0  0  0  0  0  0  0  0  0
   -3.8820   -1.2143    1.8989 H   0  0  0  0  0  0  0  0  0  0  0  0
   -3.8713   -1.8869    0.2499 H   0  0  0  0  0  0  0  0  0  0  0  0
   -1.9193   -1.4649    1.0534 C   0  0  0  0  0  0  0  0  0  0  0  0
   -1.0286   -2.2469    1.3307 O   0  0  0  0  0  0  0  0  0  0  0  0
   -1.6417   -0.1963    0.5776 N   0  0  0  0  0  0  0  0  0  0  0  0
   -2.4527    0.3926    0.4136 H   0  0  0  0  0  0  0  0  0  0  0  0
   -0.3090    0.4461    0.4305 C   0  0  1  0  0  0  0  0  0  0  0  0
   -0.4026    1.2823   -0.2687 H   0  0  0  0  0  0  0  0  0  0  0  0
    0.0269    1.0374    1.8484 C   0  0  1  0  0  0  0  0  0  0  0  0
   -0.0307    0.2253    2.5814 H   0  0  0  0  0  0  0  0  0  0  0  0
    1.4393    1.6535    1.9478 C   0  0  0  0  0  0  0  0  0  0  0  0
    1.6258    2.3265    1.1051 H   0  0  0  0  0  0  0  0  0  0  0  0
    1.5766    2.2147    2.8733 H   0  0  0  0  0  0  0  0  0  0  0  0
    2.2019    0.8704    1.9550 H   0  0  0  0  0  0  0  0  0  0  0  0
   -1.0192    2.1280    2.2233 C   0  0  0  0  0  0  0  0  0  0  0  0
   -0.8903    2.9973    1.5699 H   0  0  0  0  0  0  0  0  0  0  0  0
   -2.0320    1.7493    2.0654 H   0  0  0  0  0  0  0  0  0  0  0  0
   -0.9498    2.5824    3.6865 C   0  0  0  0  0  0  0  0  0  0  0  0
   -0.0603    3.1882    3.8774 H   0  0  0  0  0  0  0  0  0  0  0  0
   -1.8254    3.1938    3.9252 H   0  0  0  0  0  0  0  0  0  0  0  0
   -0.9402    1.7171    4.3566 H   0  0  0  0  0  0  0  0  0  0  0  0
    0.7785   -0.4759   -0.2126 C   0  0  0  0  0  0  0  0  0  0  0  0
    1.9595   -0.1556   -0.2436 O   0  0  0  0  0  0  0  0  0  0  0  0
    0.3919   -1.4515   -1.1162 N   0  0  0  0  0  0  0  0  0  0  0  0
   -0.5246   -1.8448   -0.9250 H   0  0  0  0  0  0  0  0  0  0  0  0
    1.3506   -2.3001   -1.8147 C   0  0  0  0  0  0  0  0  0  0  0  0
    1.9547   -2.8649   -1.0969 H   0  0  0  0  0  0  0  0  0  0  0  0
    0.8251   -3.0091   -2.4611 H   0  0  0  0  0  0  0  0  0  0  0  0
    2.0169   -1.6957   -2.4391 H   0  0  0  0  0  0  0  0  0  0  0  0
  1  2  1  0  0  0  0
  2  3  1  0  0  0  0
  2  4  1  0  0  0  0
  2  5  1  0  0  0  0
  5  6  2  0  0  0  0
  5  7  1  0  0  0  0
  7  8  1  0  0  0  0
  7  9  1  0  0  0  0
  9 10  1  0  0  0  0
  9 11  1  0  0  0  0
  9 24  1  0  0  0  0
 11 12  1  0  0  0  0
 11 13  1  0  0  0  0
 11 17  1  0  0  0  0
 13 14  1  0  0  0  0
 13 15  1  0  0  0  0
 13 16  1  0  0  0  0
 17 18  1  0  0  0  0
 17 19  1  0  0  0  0
 17 20  1  0  0  0  0
 20 21  1  0  0  0  0
 20 22  1  0  0  0  0
 20 23  1  0  0  0  0
 24 25  2  0  0  0  0
 24 26  1  0  0  0  0
 26 27  1  0  0  0  0
 26 28  1  0  0  0  0
 28 29  1  0  0  0  0
 28 30  1  0  0  0  0
 28 31  1  0  0  0  0
M  END
$$$$

  -OEChem-01062216083D

 31 30  0     1  0  0  0  0  0999 V2000
   -3.3161   -2.9752    1.5351 H   0  0  0  0  0  0  0  0  0  0  0  0
   -3.2890   -1.9524    1.1481 C   0  0  0  0  0  0  0  0  0  0  0  0
   -3.8278   -1.3013    1.8409 H   0  0  0  0  0  0  0  0  0  0  0  0
   -3.7863   -1.9321    0.1754 H   0  0  0  0  0  0  0  0  0  0  0  0
   -1.8523   -1.4847    1.0085 C   0  0  0  0  0  0  0  0  0  0  0  0
   -0.9485   -2.2482    1.2928 O   0  0  0  0  0  0  0  0  0  0  0  0
   -1.6048   -0.1960    0.5678 N   0  0  0  0  0  0  0  0  0  0  0  0
   -2.4276    0.3839    0.4336 H   0  0  0  0  0  0  0  0  0  0  0  0
   -0.2829    0.4711    0.4507 C   0  0  1  0  0  0  0  0  0  0  0  0
   -0.3780    1.3138   -0.2399 H   0  0  0  0  0  0  0  0  0  0  0  0
    0.0492    1.0579    1.8690 C   0  0  1  0  0  0  0  0  0  0  0  0
    0.0191    0.2447    2.6030 H   0  0  0  0  0  0  0  0  0  0  0  0
    1.4450    1.7211    1.9370 C   0  0  0  0  0  0  0  0  0  0  0  0
    1.6236    2.3345    1.0486 H   0  0  0  0  0  0  0  0  0  0  0  0
    1.5568    2.3559    2.8167 H   0  0  0  0  0  0  0  0  0  0  0  0
    2.2313    0.9662    2.0116 H   0  0  0  0  0  0  0  0  0  0  0  0
   -1.0147    2.1303    2.2464 C   0  0  0  0  0  0  0  0  0  0  0  0
   -0.9034    3.0039    1.5956 H   0  0  0  0  0  0  0  0  0  0  0  0
   -2.0198    1.7322    2.0872 H   0  0  0  0  0  0  0  0  0  0  0  0
   -0.9534    2.5813    3.7116 C   0  0  0  0  0  0  0  0  0  0  0  0
   -0.0766    3.2032    3.9082 H   0  0  0  0  0  0  0  0  0  0  0  0
   -1.8409    3.1744    3.9519 H   0  0  0  0  0  0  0  0  0  0  0  0
   -0.9279    1.7134    4.3778 H   0  0  0  0  0  0  0  0  0  0  0  0
    0.7854   -0.4571   -0.2121 C   0  0  0  0  0  0  0  0  0  0  0  0
    1.9761   -0.4394    0.0666 O   0  0  0  0  0  0  0  0  0  0  0  0
    0.4180   -1.1705   -1.3412 N   0  0  0  0  0  0  0  0  0  0  0  0
   -0.5800   -1.2978   -1.4672 H   0  0  0  0  0  0  0  0  0  0  0  0
    1.3172   -2.1046   -2.0087 C   0  0  0  0  0  0  0  0  0  0  0  0
    1.6179   -2.9016   -1.3203 H   0  0  0  0  0  0  0  0  0  0  0  0
    0.8199   -2.5588   -2.8709 H   0  0  0  0  0  0  0  0  0  0  0  0
    2.2149   -1.5872   -2.3636 H   0  0  0  0  0  0  0  0  0  0  0  0
  1  2  1  0  0  0  0
  2  3  1  0  0  0  0
  2  4  1  0  0  0  0
  2  5  1  0  0  0  0
  5  6  2  0  0  0  0
  5  7  1  0  0  0  0
  7  8  1  0  0  0  0
  7  9  1  0  0  0  0
  9 10  1  0  0  0  0
  9 11  1  0  0  0  0
  9 24  1  0  0  0  0
 11 12  1  0  0  0  0
 11 13  1  0  0  0  0
 11 17  1  0  0  0  0
 13 14  1  0  0  0  0
 13 15  1  0  0  0  0
 13 16  1  0  0  0  0
 17 18  1  0  0  0  0
 17 19  1  0  0  0  0
 17 20  1  0  0  0  0
 20 21  1  0  0  0  0
 20 22  1  0  0  0  0
 20 23  1  0  0  0  0
 24 25  2  0  0  0  0
 24 26  1  0  0  0  0
 26 27  1  0  0  0  0
 26 28  1  0  0  0  0
 28 29  1  0  0  0  0
 28 30  1  0  0  0  0
 28 31  1  0  0  0  0
M  END
$$$$

  -OEChem-01062216083D

 31 30  0     1  0  0  0  0  0999 V2000
   -3.3049   -2.9970    1.4820 H   0  0  0  0  0  0  0  0  0  0  0  0
   -3.2766   -1.9726    1.0990 C   0  0  0  0  0  0  0  0  0  0  0  0
   -3.8336   -1.3275    1.7826 H   0  0  0  0  0  0  0  0  0  0  0  0
   -3.7534   -1.9519    0.1161 H   0  0  0  0  0  0  0  0  0  0  0  0
   -1.8402   -1.4956    0.9897 C   0  0  0  0  0  0  0  0  0  0  0  0
   -0.9403   -2.2563    1.2902 O   0  0  0  0  0  0  0  0  0  0  0  0
   -1.5970   -0.2021    0.5606 N   0  0  0  0  0  0  0  0  0  0  0  0
   -2.4242    0.3704    0.4250 H   0  0  0  0  0  0  0  0  0  0  0  0
   -0.2822    0.4789    0.4647 C   0  0  1  0  0  0  0  0  0  0  0  0
   -0.3774    1.3243   -0.2226 H   0  0  0  0  0  0  0  0  0  0  0  0
    0.0568    1.0648    1.8778 C   0  0  1  0  0  0  0  0  0  0  0  0
    0.0528    0.2525    2.6132 H   0  0  0  0  0  0  0  0  0  0  0  0
    1.4403    1.7596    1.9067 C   0  0  0  0  0  0  0  0  0  0  0  0
    1.5554    2.4218    1.0432 H   0  0  0  0  0  0  0  0  0  0  0  0
    1.5783    2.3517    2.8126 H   0  0  0  0  0  0  0  0  0  0  0  0
    2.2536    1.0318    1.9018 H   0  0  0  0  0  0  0  0  0  0  0  0
   -1.0107    2.1290    2.2635 C   0  0  0  0  0  0  0  0  0  0  0  0
   -0.9143    3.0036    1.6118 H   0  0  0  0  0  0  0  0  0  0  0  0
   -2.0131    1.7201    2.1135 H   0  0  0  0  0  0  0  0  0  0  0  0
   -0.9382    2.5770    3.7288 C   0  0  0  0  0  0  0  0  0  0  0  0
   -0.0562    3.1931    3.9202 H   0  0  0  0  0  0  0  0  0  0  0  0
   -1.8208    3.1743    3.9763 H   0  0  0  0  0  0  0  0  0  0  0  0
   -0.9127    1.7075    4.3930 H   0  0  0  0  0  0  0  0  0  0  0  0
    0.7878   -0.4490   -0.1901 C   0  0  0  0  0  0  0  0  0  0  0  0
    1.8733   -0.7132    0.3080 O   0  0  0  0  0  0  0  0  0  0  0  0
    0.5473   -0.9045   -1.4755 N   0  0  0  0  0  0  0  0  0  0  0  0
   -0.4041   -0.8060   -1.8122 H   0  0  0  0  0  0  0  0  0  0  0  0
    1.4253   -1.8540   -2.1495 C   0  0  0  0  0  0  0  0  0  0  0  0
    1.4804   -2.7903   -1.5839 H   0  0  0  0  0  0  0  0  0  0  0  0
    1.0467   -2.0747   -3.1519 H   0  0  0  0  0  0  0  0  0  0  0  0
    2.4349   -1.4411   -2.2463 H   0  0  0  0  0  0  0  0  0  0  0  0
  1  2  1  0  0  0  0
  2  3  1  0  0  0  0
  2  4  1  0  0  0  0
  2  5  1  0  0  0  0
  5  6  2  0  0  0  0
  5  7  1  0  0  0  0
  7  8  1  0  0  0  0
  7  9  1  0  0  0  0
  9 10  1  0  0  0  0
  9 11  1  0  0  0  0
  9 24  1  0  0  0  0
 11 12  1  0  0  0  0
 11 13  1  0  0  0  0
 11 17  1  0  0  0  0
 13 14  1  0  0  0  0
 13 15  1  0  0  0  0
 13 16  1  0  0  0  0
 17 18  1  0  0  0  0
 17 19  1  0  0  0  0
 17 20  1  0  0  0  0
 20 21  1  0  0  0  0
 20 22  1  0  0  0  0
 20 23  1  0  0  0  0
 24 25  2  0  0  0  0
 24 26  1  0  0  0  0
 26 27  1  0  0  0  0
 26 28  1  0  0  0  0
 28 29  1  0  0  0  0
 28 30  1  0  0  0  0
 28 31  1  0  0  0  0
M  END
$$$$

  -OEChem-01062216083D

 31 30  0     1  0  0  0  0  0999 V2000
   -3.3371   -2.9995    1.4712 H   0  0  0  0  0  0  0  0  0  0  0  0
   -3.3019   -1.9787    1.0798 C   0  0  0  0  0  0  0  0  0  0  0  0
   -3.8794   -1.3294    1.7419 H   0  0  0  0  0  0  0  0  0  0  0  0
   -3.7513   -1.9689    0.0841 H   0  0  0  0  0  0  0  0  0  0  0  0
   -1.8648   -1.4978    1.0059 C   0  0  0  0  0  0  0  0  0  0  0  0
   -0.9756   -2.2497    1.3538 O   0  0  0  0  0  0  0  0  0  0  0  0
   -1.6155   -0.2098    0.5640 N   0  0  0  0  0  0  0  0  0  0  0  0
   -2.4419    0.3486    0.3767 H   0  0  0  0  0  0  0  0  0  0  0  0
   -0.3029    0.4737    0.4681 C   0  0  1  0  0  0  0  0  0  0  0  0
   -0.4002    1.3173   -0.2208 H   0  0  0  0  0  0  0  0  0  0  0  0
    0.0509    1.0630    1.8726 C   0  0  1  0  0  0  0  0  0  0  0  0
    0.0604    0.2502    2.6074 H   0  0  0  0  0  0  0  0  0  0  0  0
    1.4317    1.7639    1.8762 C   0  0  0  0  0  0  0  0  0  0  0  0
    1.4720    2.5354    1.1014 H   0  0  0  0  0  0  0  0  0  0  0  0
    1.6350    2.2315    2.8417 H   0  0  0  0  0  0  0  0  0  0  0  0
    2.2487    1.0616    1.7051 H   0  0  0  0  0  0  0  0  0  0  0  0
   -1.0080    2.1290    2.2713 C   0  0  0  0  0  0  0  0  0  0  0  0
   -0.9200    3.0042    1.6190 H   0  0  0  0  0  0  0  0  0  0  0  0
   -2.0130    1.7209    2.1356 H   0  0  0  0  0  0  0  0  0  0  0  0
   -0.9089    2.5747    3.7349 C   0  0  0  0  0  0  0  0  0  0  0  0
   -0.0086    3.1682    3.9127 H   0  0  0  0  0  0  0  0  0  0  0  0
   -1.7736    3.1936    3.9928 H   0  0  0  0  0  0  0  0  0  0  0  0
   -0.8964    1.7049    4.3991 H   0  0  0  0  0  0  0  0  0  0  0  0
    0.7782   -0.4520   -0.1674 C   0  0  0  0  0  0  0  0  0  0  0  0
    1.7287   -0.9194    0.4458 O   0  0  0  0  0  0  0  0  0  0  0  0
    0.7257   -0.6690   -1.5340 N   0  0  0  0  0  0  0  0  0  0  0  0
   -0.1222   -0.3807   -2.0098 H   0  0  0  0  0  0  0  0  0  0  0  0
    1.6439   -1.5655   -2.2266 C   0  0  0  0  0  0  0  0  0  0  0  0
    1.5605   -2.5815   -1.8264 H   0  0  0  0  0  0  0  0  0  0  0  0
    1.4124   -1.5925   -3.2954 H   0  0  0  0  0  0  0  0  0  0  0  0
    2.6774   -1.2236   -2.1064 H   0  0  0  0  0  0  0  0  0  0  0  0
  1  2  1  0  0  0  0
  2  3  1  0  0  0  0
  2  4  1  0  0  0  0
  2  5  1  0  0  0  0
  5  6  2  0  0  0  0
  5  7  1  0  0  0  0
  7  8  1  0  0  0  0
  7  9  1  0  0  0  0
  9 10  1  0  0  0  0
  9 11  1  0  0  0  0
  9 24  1  0  0  0  0
 11 12  1  0  0  0  0
 11 13  1  0  0  0  0
 11 17  1  0  0  0  0
 13 14  1  0  0  0  0
 13 15  1  0  0  0  0
 13 16  1  0  0  0  0
 17 18  1  0  0  0  0
 17 19  1  0  0  0  0
 17 20  1  0  0  0  0
 20 21  1  0  0  0  0
 20 22  1  0  0  0  0
 20 23  1  0  0  0  0
 24 25  2  0  0  0  0
 24 26  1  0  0  0  0
 26 27  1  0  0  0  0
 26 28  1  0  0  0  0
 28 29  1  0  0  0  0
 28 30  1  0  0  0  0
 28 31  1  0  0  0  0
M  END
$$$$

  -OEChem-01062216083D

 31 30  0     1  0  0  0  0  0999 V2000
   -3.3908   -3.0029    1.4688 H   0  0  0  0  0  0  0  0  0  0  0  0
   -3.3443   -1.9863    1.0674 C   0  0  0  0  0  0  0  0  0  0  0  0
   -3.9514   -1.3322    1.6978 H   0  0  0  0  0  0  0  0  0  0  0  0
   -3.7532   -1.9900    0.0542 H   0  0  0  0  0  0  0  0  0  0  0  0
   -1.9074   -1.4988    1.0461 C   0  0  0  0  0  0  0  0  0  0  0  0
   -1.0339   -2.2328    1.4632 O   0  0  0  0  0  0  0  0  0  0  0  0
   -1.6483   -0.2203    0.5836 N   0  0  0  0  0  0  0  0  0  0  0  0
   -2.4696    0.3173    0.3265 H   0  0  0  0  0  0  0  0  0  0  0  0
   -0.3351    0.4583    0.4704 C   0  0  1  0  0  0  0  0  0  0  0  0
   -0.4413    1.2993   -0.2204 H   0  0  0  0  0  0  0  0  0  0  0  0
    0.0418    1.0535    1.8636 C   0  0  1  0  0  0  0  0  0  0  0  0
    0.0563    0.2436    2.6018 H   0  0  0  0  0  0  0  0  0  0  0  0
    1.4311    1.7340    1.8378 C   0  0  0  0  0  0  0  0  0  0  0  0
    1.4560    2.5277    1.0851 H   0  0  0  0  0  0  0  0  0  0  0  0
    1.6727    2.1692    2.8101 H   0  0  0  0  0  0  0  0  0  0  0  0
    2.2290    1.0236    1.6137 H   0  0  0  0  0  0  0  0  0  0  0  0
   -1.0021    2.1270    2.2764 C   0  0  0  0  0  0  0  0  0  0  0  0
   -0.9212    2.9995    1.6195 H   0  0  0  0  0  0  0  0  0  0  0  0
   -2.0115    1.7233    2.1601 H   0  0  0  0  0  0  0  0  0  0  0  0
   -0.8710    2.5756    3.7366 C   0  0  0  0  0  0  0  0  0  0  0  0
    0.0398    3.1589    3.8951 H   0  0  0  0  0  0  0  0  0  0  0  0
   -1.7237    3.2051    4.0084 H   0  0  0  0  0  0  0  0  0  0  0  0
   -0.8552    1.7080    4.4038 H   0  0  0  0  0  0  0  0  0  0  0  0
    0.7585   -0.4601   -0.1531 C   0  0  0  0  0  0  0  0  0  0  0  0
    1.5925   -1.0684    0.5047 O   0  0  0  0  0  0  0  0  0  0  0  0
    0.9143   -0.4499   -1.5293 N   0  0  0  0  0  0  0  0  0  0  0  0
    0.1938    0.0088   -2.0759 H   0  0  0  0  0  0  0  0  0  0  0  0
    1.9178   -1.2499   -2.2222 C   0  0  0  0  0  0  0  0  0  0  0  0
    1.7682   -2.3148   -2.0147 H   0  0  0  0  0  0  0  0  0  0  0  0
    1.8473   -1.0939   -3.3027 H   0  0  0  0  0  0  0  0  0  0  0  0
    2.9245   -0.9657   -1.8980 H   0  0  0  0  0  0  0  0  0  0  0  0
  1  2  1  0  0  0  0
  2  3  1  0  0  0  0
  2  4  1  0  0  0  0
  2  5  1  0  0  0  0
  5  6  2  0  0  0  0
  5  7  1  0  0  0  0
  7  8  1  0  0  0  0
  7  9  1  0  0  0  0
  9 10  1  0  0  0  0
  9 11  1  0  0  0  0
  9 24  1  0  0  0  0
 11 12  1  0  0  0  0
 11 13  1  0  0  0  0
 11 17  1  0  0  0  0
 13 14  1  0  0  0  0
 13 15  1  0  0  0  0
 13 16  1  0  0  0  0
 17 18  1  0  0  0  0
 17 19  1  0  0  0  0
 17 20  1  0  0  0  0
 20 21  1  0  0  0  0
 20 22  1  0  0  0  0
 20 23  1  0  0  0  0
 24 25  2  0  0  0  0
 24 26  1  0  0  0  0
 26 27  1  0  0  0  0
 26 28  1  0  0  0  0
 28 29  1  0  0  0  0
 28 30  1  0  0  0  0
 28 31  1  0  0  0  0
M  END
$$$$

  -OEChem-01062216083D

 31 30  0     1  0  0  0  0  0999 V2000
   -3.4220   -3.0340    1.4220 H   0  0  0  0  0  0  0  0  0  0  0  0
   -3.3744   -2.0152    1.0267 C   0  0  0  0  0  0  0  0  0  0  0  0
   -4.0389   -1.3784    1.6156 H   0  0  0  0  0  0  0  0  0  0  0  0
   -3.7137   -2.0264   -0.0118 H   0  0  0  0  0  0  0  0  0  0  0  0
   -1.9520   -1.4917    1.1039 C   0  0  0  0  0  0  0  0  0  0  0  0
   -1.1084   -2.1739    1.6498 O   0  0  0  0  0  0  0  0  0  0  0  0
   -1.6875   -0.2240    0.6153 N   0  0  0  0  0  0  0  0  0  0  0  0
   -2.4950    0.2647    0.2433 H   0  0  0  0  0  0  0  0  0  0  0  0
   -0.3732    0.4477    0.4731 C   0  0  1  0  0  0  0  0  0  0  0  0
   -0.4958    1.2846   -0.2195 H   0  0  0  0  0  0  0  0  0  0  0  0
    0.0346    1.0489    1.8533 C   0  0  1  0  0  0  0  0  0  0  0  0
    0.0536    0.2427    2.5956 H   0  0  0  0  0  0  0  0  0  0  0  0
    1.4360    1.6998    1.7939 C   0  0  0  0  0  0  0  0  0  0  0  0
    1.4611    2.4904    1.0376 H   0  0  0  0  0  0  0  0  0  0  0  0
    1.7086    2.1332    2.7589 H   0  0  0  0  0  0  0  0  0  0  0  0
    2.2100    0.9669    1.5535 H   0  0  0  0  0  0  0  0  0  0  0  0
   -0.9899    2.1314    2.2857 C   0  0  0  0  0  0  0  0  0  0  0  0
   -0.9161    3.0013    1.6248 H   0  0  0  0  0  0  0  0  0  0  0  0
   -2.0051    1.7356    2.1938 H   0  0  0  0  0  0  0  0  0  0  0  0
   -0.8167    2.5806    3.7407 C   0  0  0  0  0  0  0  0  0  0  0  0
    0.1050    3.1530    3.8742 H   0  0  0  0  0  0  0  0  0  0  0  0
   -1.6549    3.2199    4.0336 H   0  0  0  0  0  0  0  0  0  0  0  0
   -0.7938    1.7136    4.4084 H   0  0  0  0  0  0  0  0  0  0  0  0
    0.7326   -0.4593   -0.1454 C   0  0  0  0  0  0  0  0  0  0  0  0
    1.4365   -1.2140    0.5111 O   0  0  0  0  0  0  0  0  0  0  0  0
    1.1014   -0.2417   -1.4632 N   0  0  0  0  0  0  0  0  0  0  0  0
    0.5361    0.3964   -2.0124 H   0  0  0  0  0  0  0  0  0  0  0  0
    2.1886   -0.9602   -2.1191 C   0  0  0  0  0  0  0  0  0  0  0  0
    1.9973   -2.0385   -2.1063 H   0  0  0  0  0  0  0  0  0  0  0  0
    2.2823   -0.6377   -3.1603 H   0  0  0  0  0  0  0  0  0  0  0  0
    3.1387   -0.7654   -1.6103 H   0  0  0  0  0  0  0  0  0  0  0  0
  1  2  1  0  0  0  0
  2  3  1  0  0  0  0
  2  4  1  0  0  0  0
  2  5  1  0  0  0  0
  5  6  2  0  0  0  0
  5  7  1  0  0  0  0
  7  8  1  0  0  0  0
  7  9  1  0  0  0  0
  9 10  1  0  0  0  0
  9 11  1  0  0  0  0
  9 24  1  0  0  0  0
 11 12  1  0  0  0  0
 11 13  1  0  0  0  0
 11 17  1  0  0  0  0
 13 14  1  0  0  0  0
 13 15  1  0  0  0  0
 13 16  1  0  0  0  0
 17 18  1  0  0  0  0
 17 19  1  0  0  0  0
 17 20  1  0  0  0  0
 20 21  1  0  0  0  0
 20 22  1  0  0  0  0
 20 23  1  0  0  0  0
 24 25  2  0  0  0  0
 24 26  1  0  0  0  0
 26 27  1  0  0  0  0
 26 28  1  0  0  0  0
 28 29  1  0  0  0  0
 28 30  1  0  0  0  0
 28 31  1  0  0  0  0
M  END
$$$$

  -OEChem-01062216083D

 31 30  0     1  0  0  0  0  0999 V2000
   -3.3235   -3.1259    1.3194 H   0  0  0  0  0  0  0  0  0  0  0  0
   -3.2959   -2.1316    0.8645 C   0  0  0  0  0  0  0  0  0  0  0  0
   -4.1354   -1.5462    1.2465 H   0  0  0  0  0  0  0  0  0  0  0  0
   -3.3949   -2.2400   -0.2180 H   0  0  0  0  0  0  0  0  0  0  0  0
   -1.9861   -1.4424    1.1997 C   0  0  0  0  0  0  0  0  0  0  0  0
   -1.2522   -1.9510    2.0255 O   0  0  0  0  0  0  0  0  0  0  0  0
   -1.7486   -0.1795    0.6842 N   0  0  0  0  0  0  0  0  0  0  0  0
   -2.4909    0.1565    0.0800 H   0  0  0  0  0  0  0  0  0  0  0  0
   -0.4278    0.4721    0.5084 C   0  0  1  0  0  0  0  0  0  0  0  0
   -0.5643    1.3063   -0.1846 H   0  0  0  0  0  0  0  0  0  0  0  0
    0.0332    1.0752    1.8704 C   0  0  1  0  0  0  0  0  0  0  0  0
    0.0515    0.2771    2.6205 H   0  0  0  0  0  0  0  0  0  0  0  0
    1.4546    1.6706    1.7693 C   0  0  0  0  0  0  0  0  0  0  0  0
    1.4963    2.4408    0.9931 H   0  0  0  0  0  0  0  0  0  0  0  0
    1.7625    2.1167    2.7179 H   0  0  0  0  0  0  0  0  0  0  0  0
    2.1900    0.8957    1.5337 H   0  0  0  0  0  0  0  0  0  0  0  0
   -0.9558    2.1784    2.3271 C   0  0  0  0  0  0  0  0  0  0  0  0
   -0.8861    3.0417    1.6579 H   0  0  0  0  0  0  0  0  0  0  0  0
   -1.9800    1.7994    2.2693 H   0  0  0  0  0  0  0  0  0  0  0  0
   -0.7284    2.6336    3.7726 C   0  0  0  0  0  0  0  0  0  0  0  0
    0.2128    3.1798    3.8755 H   0  0  0  0  0  0  0  0  0  0  0  0
   -1.5392    3.2991    4.0839 H   0  0  0  0  0  0  0  0  0  0  0  0
   -0.7117    1.7710    4.4463 H   0  0  0  0  0  0  0  0  0  0  0  0
    0.6695   -0.4376   -0.1202 C   0  0  0  0  0  0  0  0  0  0  0  0
    1.1247   -1.4347    0.4178 O   0  0  0  0  0  0  0  0  0  0  0  0
    1.2480   -0.0456   -1.3170 N   0  0  0  0  0  0  0  0  0  0  0  0
    0.9256    0.8191   -1.7379 H   0  0  0  0  0  0  0  0  0  0  0  0
    2.3501   -0.7643   -1.9480 C   0  0  0  0  0  0  0  0  0  0  0  0
    2.0755   -1.8097   -2.1253 H   0  0  0  0  0  0  0  0  0  0  0  0
    2.5994   -0.3065   -2.9100 H   0  0  0  0  0  0  0  0  0  0  0  0
    3.2399   -0.7375   -1.3101 H   0  0  0  0  0  0  0  0  0  0  0  0
  1  2  1  0  0  0  0
  2  3  1  0  0  0  0
  2  4  1  0  0  0  0
  2  5  1  0  0  0  0
  5  6  2  0  0  0  0
  5  7  1  0  0  0  0
  7  8  1  0  0  0  0
  7  9  1  0  0  0  0
  9 10  1  0  0  0  0
  9 11  1  0  0  0  0
  9 24  1  0  0  0  0
 11 12  1  0  0  0  0
 11 13  1  0  0  0  0
 11 17  1  0  0  0  0
 13 14  1  0  0  0  0
 13 15  1  0  0  0  0
 13 16  1  0  0  0  0
 17 18  1  0  0  0  0
 17 19  1  0  0  0  0
 17 20  1  0  0  0  0
 20 21  1  0  0  0  0
 20 22  1  0  0  0  0
 20 23  1  0  0  0  0
 24 25  2  0  0  0  0
 24 26  1  0  0  0  0
 26 27  1  0  0  0  0
 26 28  1  0  0  0  0
 28 29  1  0  0  0  0
 28 30  1  0  0  0  0
 28 31  1  0  0  0  0
M  END
$$$$

  -OEChem-01062216083D

 31 30  0     1  0  0  0  0  0999 V2000
   -3.1814   -3.1939    1.2762 H   0  0  0  0  0  0  0  0  0  0  0  0
   -3.1712   -2.2181    0.7824 C   0  0  0  0  0  0  0  0  0  0  0  0
   -4.0971   -1.6903    1.0223 H   0  0  0  0  0  0  0  0  0  0  0  0
   -3.1134   -2.3745   -0.2973 H   0  0  0  0  0  0  0  0  0  0  0  0
   -1.9755   -1.4112    1.2518 C   0  0  0  0  0  0  0  0  0  0  0  0
   -1.3267   -1.8100    2.2040 O   0  0  0  0  0  0  0  0  0  0  0  0
   -1.7654   -0.1466    0.7270 N   0  0  0  0  0  0  0  0  0  0  0  0
   -2.4516    0.1000    0.0220 H   0  0  0  0  0  0  0  0  0  0  0  0
   -0.4341    0.4850    0.5519 C   0  0  1  0  0  0  0  0  0  0  0  0
   -0.5669    1.3110   -0.1519 H   0  0  0  0  0  0  0  0  0  0  0  0
    0.0309    1.1036    1.9069 C   0  0  1  0  0  0  0  0  0  0  0  0
    0.0276    0.3193    2.6708 H   0  0  0  0  0  0  0  0  0  0  0  0
    1.4654    1.6676    1.8227 C   0  0  0  0  0  0  0  0  0  0  0  0
    1.5351    2.4316    1.0424 H   0  0  0  0  0  0  0  0  0  0  0  0
    1.7675    2.1139    2.7732 H   0  0  0  0  0  0  0  0  0  0  0  0
    2.1871    0.8743    1.6063 H   0  0  0  0  0  0  0  0  0  0  0  0
   -0.9464    2.2276    2.3366 C   0  0  0  0  0  0  0  0  0  0  0  0
   -0.8607    3.0779    1.6526 H   0  0  0  0  0  0  0  0  0  0  0  0
   -1.9752    1.8611    2.2772 H   0  0  0  0  0  0  0  0  0  0  0  0
   -0.7235    2.7070    3.7746 C   0  0  0  0  0  0  0  0  0  0  0  0
    0.2227    3.2456    3.8725 H   0  0  0  0  0  0  0  0  0  0  0  0
   -1.5295    3.3864    4.0683 H   0  0  0  0  0  0  0  0  0  0  0  0
   -0.7198    1.8572    4.4646 H   0  0  0  0  0  0  0  0  0  0  0  0
    0.6640   -0.4282   -0.0739 C   0  0  0  0  0  0  0  0  0  0  0  0
    0.7364   -1.6351    0.1020 O   0  0  0  0  0  0  0  0  0  0  0  0
    1.4662    0.1028   -1.0719 N   0  0  0  0  0  0  0  0  0  0  0  0
    1.4226    1.1049   -1.2254 H   0  0  0  0  0  0  0  0  0  0  0  0
    2.4726   -0.6717   -1.7904 C   0  0  0  0  0  0  0  0  0  0  0  0
    2.0054   -1.5061   -2.3242 H   0  0  0  0  0  0  0  0  0  0  0  0
    2.9864   -0.0398   -2.5212 H   0  0  0  0  0  0  0  0  0  0  0  0
    3.2170   -1.0719   -1.0940 H   0  0  0  0  0  0  0  0  0  0  0  0
  1  2  1  0  0  0  0
  2  3  1  0  0  0  0
  2  4  1  0  0  0  0
  2  5  1  0  0  0  0
  5  6  2  0  0  0  0
  5  7  1  0  0  0  0
  7  8  1  0  0  0  0
  7  9  1  0  0  0  0
  9 10  1  0  0  0  0
  9 11  1  0  0  0  0
  9 24  1  0  0  0  0
 11 12  1  0  0  0  0
 11 13  1  0  0  0  0
 11 17  1  0  0  0  0
 13 14  1  0  0  0  0
 13 15  1  0  0  0  0
 13 16  1  0  0  0  0
 17 18  1  0  0  0  0
 17 19  1  0  0  0  0
 17 20  1  0  0  0  0
 20 21  1  0  0  0  0
 20 22  1  0  0  0  0
 20 23  1  0  0  0  0
 24 25  2  0  0  0  0
 24 26  1  0  0  0  0
 26 27  1  0  0  0  0
 26 28  1  0  0  0  0
 28 29  1  0  0  0  0
 28 30  1  0  0  0  0
 28 31  1  0  0  0  0
M  END
$$$$

  -OEChem-01062216083D

 31 30  0     1  0  0  0  0  0999 V2000
   -3.1935   -3.1694    1.3406 H   0  0  0  0  0  0  0  0  0  0  0  0
   -3.1767   -2.2011    0.8324 C   0  0  0  0  0  0  0  0  0  0  0  0
   -4.0811   -1.6478    1.0960 H   0  0  0  0  0  0  0  0  0  0  0  0
   -3.1600   -2.3728   -0.2465 H   0  0  0  0  0  0  0  0  0  0  0  0
   -1.9462   -1.4173    1.2485 C   0  0  0  0  0  0  0  0  0  0  0  0
   -1.2428   -1.8426    2.1507 O   0  0  0  0  0  0  0  0  0  0  0  0
   -1.7397   -0.1519    0.7234 N   0  0  0  0  0  0  0  0  0  0  0  0
   -2.4274    0.0974    0.0209 H   0  0  0  0  0  0  0  0  0  0  0  0
   -0.4062    0.4768    0.5529 C   0  0  1  0  0  0  0  0  0  0  0  0
   -0.5287    1.2981   -0.1589 H   0  0  0  0  0  0  0  0  0  0  0  0
    0.0296    1.1042    1.9177 C   0  0  1  0  0  0  0  0  0  0  0  0
    0.0062    0.3240    2.6852 H   0  0  0  0  0  0  0  0  0  0  0  0
    1.4643    1.6707    1.8792 C   0  0  0  0  0  0  0  0  0  0  0  0
    1.5615    2.4231    1.0906 H   0  0  0  0  0  0  0  0  0  0  0  0
    1.7312    2.1326    2.8326 H   0  0  0  0  0  0  0  0  0  0  0  0
    2.1936    0.8743    1.7051 H   0  0  0  0  0  0  0  0  0  0  0  0
   -0.9612    2.2280    2.3205 C   0  0  0  0  0  0  0  0  0  0  0  0
   -0.8634    3.0742    1.6330 H   0  0  0  0  0  0  0  0  0  0  0  0
   -1.9877    1.8590    2.2413 H   0  0  0  0  0  0  0  0  0  0  0  0
   -0.7744    2.7182    3.7605 C   0  0  0  0  0  0  0  0  0  0  0  0
    0.1614    3.2713    3.8757 H   0  0  0  0  0  0  0  0  0  0  0  0
   -1.5961    3.3874    4.0332 H   0  0  0  0  0  0  0  0  0  0  0  0
   -0.7735    1.8721    4.4549 H   0  0  0  0  0  0  0  0  0  0  0  0
    0.6906   -0.4437   -0.0703 C   0  0  0  0  0  0  0  0  0  0  0  0
    0.5401   -1.6466   -0.2384 O   0  0  0  0  0  0  0  0  0  0  0  0
    1.6941    0.1472   -0.8230 N   0  0  0  0  0  0  0  0  0  0  0  0
    1.8205    1.1490   -0.7220 H   0  0  0  0  0  0  0  0  0  0  0  0
    2.6863   -0.6086   -1.5801 C   0  0  0  0  0  0  0  0  0  0  0  0
    2.2026   -1.1895   -2.3725 H   0  0  0  0  0  0  0  0  0  0  0  0
    3.4080    0.0714   -2.0426 H   0  0  0  0  0  0  0  0  0  0  0  0
    3.2297   -1.2942   -0.9214 H   0  0  0  0  0  0  0  0  0  0  0  0
  1  2  1  0  0  0  0
  2  3  1  0  0  0  0
  2  4  1  0  0  0  0
  2  5  1  0  0  0  0
  5  6  2  0  0  0  0
  5  7  1  0  0  0  0
  7  8  1  0  0  0  0
  7  9  1  0  0  0  0
  9 10  1  0  0  0  0
  9 11  1  0  0  0  0
  9 24  1  0  0  0  0
 11 12  1  0  0  0  0
 11 13  1  0  0  0  0
 11 17  1  0  0  0  0
 13 14  1  0  0  0  0
 13 15  1  0  0  0  0
 13 16  1  0  0  0  0
 17 18  1  0  0  0  0
 17 19  1  0  0  0  0
 17 20  1  0  0  0  0
 20 21  1  0  0  0  0
 20 22  1  0  0  0  0
 20 23  1  0  0  0  0
 24 25  2  0  0  0  0
 24 26  1  0  0  0  0
 26 27  1  0  0  0  0
 26 28  1  0  0  0  0
 28 29  1  0  0  0  0
 28 30  1  0  0  0  0
 28 31  1  0  0  0  0
M  END
$$$$

  -OEChem-01062216083D

 31 30  0     1  0  0  0  0  0999 V2000
   -3.1418   -3.1688    1.3427 H   0  0  0  0  0  0  0  0  0  0  0  0
   -3.1474   -2.1900    0.8552 C   0  0  0  0  0  0  0  0  0  0  0  0
   -4.0427   -1.6461    1.1649 H   0  0  0  0  0  0  0  0  0  0  0  0
   -3.1714   -2.3384   -0.2271 H   0  0  0  0  0  0  0  0  0  0  0  0
   -1.9045   -1.4097    1.2394 C   0  0  0  0  0  0  0  0  0  0  0  0
   -1.1464   -1.8640    2.0822 O   0  0  0  0  0  0  0  0  0  0  0  0
   -1.7159   -0.1368    0.7249 N   0  0  0  0  0  0  0  0  0  0  0  0
   -2.4107    0.1164    0.0303 H   0  0  0  0  0  0  0  0  0  0  0  0
   -0.3845    0.4967    0.5551 C   0  0  1  0  0  0  0  0  0  0  0  0
   -0.4979    1.3200   -0.1556 H   0  0  0  0  0  0  0  0  0  0  0  0
    0.0267    1.1217    1.9337 C   0  0  1  0  0  0  0  0  0  0  0  0
   -0.0093    0.3384    2.6974 H   0  0  0  0  0  0  0  0  0  0  0  0
    1.4561    1.7004    1.9428 C   0  0  0  0  0  0  0  0  0  0  0  0
    1.5837    2.4289    1.1362 H   0  0  0  0  0  0  0  0  0  0  0  0
    1.6783    2.1948    2.8911 H   0  0  0  0  0  0  0  0  0  0  0  0
    2.1962    0.9032    1.8326 H   0  0  0  0  0  0  0  0  0  0  0  0
   -0.9832    2.2361    2.3221 C   0  0  0  0  0  0  0  0  0  0  0  0
   -0.8801    3.0847    1.6382 H   0  0  0  0  0  0  0  0  0  0  0  0
   -2.0050    1.8593    2.2234 H   0  0  0  0  0  0  0  0  0  0  0  0
   -0.8318    2.7273    3.7662 C   0  0  0  0  0  0  0  0  0  0  0  0
    0.0881    3.3028    3.8985 H   0  0  0  0  0  0  0  0  0  0  0  0
   -1.6735    3.3766    4.0259 H   0  0  0  0  0  0  0  0  0  0  0  0
   -0.8235    1.8803    4.4594 H   0  0  0  0  0  0  0  0  0  0  0  0
    0.6898   -0.4425   -0.0842 C   0  0  0  0  0  0  0  0  0  0  0  0
    0.3962   -1.5490   -0.5225 O   0  0  0  0  0  0  0  0  0  0  0  0
    1.8661    0.0968   -0.5808 N   0  0  0  0  0  0  0  0  0  0  0  0
    2.1150    1.0282   -0.2642 H   0  0  0  0  0  0  0  0  0  0  0  0
    2.8512   -0.6697   -1.3365 C   0  0  0  0  0  0  0  0  0  0  0  0
    2.4255   -1.0112   -2.2859 H   0  0  0  0  0  0  0  0  0  0  0  0
    3.7262   -0.0499   -1.5535 H   0  0  0  0  0  0  0  0  0  0  0  0
    3.1796   -1.5430   -0.7630 H   0  0  0  0  0  0  0  0  0  0  0  0
  1  2  1  0  0  0  0
  2  3  1  0  0  0  0
  2  4  1  0  0  0  0
  2  5  1  0  0  0  0
  5  6  2  0  0  0  0
  5  7  1  0  0  0  0
  7  8  1  0  0  0  0
  7  9  1  0  0  0  0
  9 10  1  0  0  0  0
  9 11  1  0  0  0  0
  9 24  1  0  0  0  0
 11 12  1  0  0  0  0
 11 13  1  0  0  0  0
 11 17  1  0  0  0  0
 13 14  1  0  0  0  0
 13 15  1  0  0  0  0
 13 16  1  0  0  0  0
 17 18  1  0  0  0  0
 17 19  1  0  0  0  0
 17 20  1  0  0  0  0
 20 21  1  0  0  0  0
 20 22  1  0  0  0  0
 20 23  1  0  0  0  0
 24 25  2  0  0  0  0
 24 26  1  0  0  0  0
 26 27  1  0  0  0  0
 26 28  1  0  0  0  0
 28 29  1  0  0  0  0
 28 30  1  0  0  0  0
 28 31  1  0  0  0  0
M  END
$$$$

  -OEChem-01062216083D

 31 30  0     1  0  0  0  0  0999 V2000
   -3.1319   -3.1821    1.2281 H   0  0  0  0  0  0  0  0  0  0  0  0
   -3.1492   -2.1622    0.8338 C   0  0  0  0  0  0  0  0  0  0  0  0
   -3.9751   -1.6180    1.2977 H   0  0  0  0  0  0  0  0  0  0  0  0
   -3.3083   -2.2068   -0.2464 H   0  0  0  0  0  0  0  0  0  0  0  0
   -1.8351   -1.4651    1.1313 C   0  0  0  0  0  0  0  0  0  0  0  0
   -0.9738   -2.0618    1.7579 O   0  0  0  0  0  0  0  0  0  0  0  0
   -1.6565   -0.1602    0.7005 N   0  0  0  0  0  0  0  0  0  0  0  0
   -2.3781    0.1615    0.0634 H   0  0  0  0  0  0  0  0  0  0  0  0
   -0.3378    0.5075    0.5839 C   0  0  1  0  0  0  0  0  0  0  0  0
   -0.4999    1.4809    0.1124 H   0  0  0  0  0  0  0  0  0  0  0  0
    0.2363    0.7993    2.0178 C   0  0  1  0  0  0  0  0  0  0  0  0
    0.2858   -0.1292    2.5921 H   0  0  0  0  0  0  0  0  0  0  0  0
    1.6592    1.3925    1.9985 C   0  0  0  0  0  0  0  0  0  0  0  0
    1.7175    2.2367    1.3044 H   0  0  0  0  0  0  0  0  0  0  0  0
    1.9626    1.7414    2.9877 H   0  0  0  0  0  0  0  0  0  0  0  0
    2.3874    0.6303    1.7100 H   0  0  0  0  0  0  0  0  0  0  0  0
   -0.7168    1.7843    2.7480 C   0  0  0  0  0  0  0  0  0  0  0  0
   -0.6763    2.7658    2.2649 H   0  0  0  0  0  0  0  0  0  0  0  0
   -1.7463    1.4235    2.6694 H   0  0  0  0  0  0  0  0  0  0  0  0
   -0.4169    1.9422    4.2433 C   0  0  0  0  0  0  0  0  0  0  0  0
    0.5128    2.4917    4.4113 H   0  0  0  0  0  0  0  0  0  0  0  0
   -1.2260    2.4992    4.7253 H   0  0  0  0  0  0  0  0  0  0  0  0
   -0.3406    0.9613    4.7232 H   0  0  0  0  0  0  0  0  0  0  0  0
    0.5757   -0.2651   -0.4214 C   0  0  0  0  0  0  0  0  0  0  0  0
    0.0831   -1.0811   -1.1948 O   0  0  0  0  0  0  0  0  0  0  0  0
    1.8645    0.1469   -0.7152 N   0  0  0  0  0  0  0  0  0  0  0  0
    2.2798    0.8405   -0.1024 H   0  0  0  0  0  0  0  0  0  0  0  0
    2.7049   -0.4864   -1.7257 C   0  0  0  0  0  0  0  0  0  0  0  0
    2.2476   -0.3965   -2.7167 H   0  0  0  0  0  0  0  0  0  0  0  0
    3.6877   -0.0065   -1.7550 H   0  0  0  0  0  0  0  0  0  0  0  0
    2.8446   -1.5483   -1.4966 H   0  0  0  0  0  0  0  0  0  0  0  0
  1  2  1  0  0  0  0
  2  3  1  0  0  0  0
  2  4  1  0  0  0  0
  2  5  1  0  0  0  0
  5  6  2  0  0  0  0
  5  7  1  0  0  0  0
  7  8  1  0  0  0  0
  7  9  1  0  0  0  0
  9 10  1  0  0  0  0
  9 11  1  0  0  0  0
  9 24  1  0  0  0  0
 11 12  1  0  0  0  0
 11 13  1  0  0  0  0
 11 17  1  0  0  0  0
 13 14  1  0  0  0  0
 13 15  1  0  0  0  0
 13 16  1  0  0  0  0
 17 18  1  0  0  0  0
 17 19  1  0  0  0  0
 17 20  1  0  0  0  0
 20 21  1  0  0  0  0
 20 22  1  0  0  0  0
 20 23  1  0  0  0  0
 24 25  2  0  0  0  0
 24 26  1  0  0  0  0
 26 27  1  0  0  0  0
 26 28  1  0  0  0  0
 28 29  1  0  0  0  0
 28 30  1  0  0  0  0
 28 31  1  0  0  0  0
M  END
$$$$

  -OEChem-01062216083D

 31 30  0     1  0  0  0  0  0999 V2000
   -3.0810   -3.1922    1.2097 H   0  0  0  0  0  0  0  0  0  0  0  0
   -3.1108   -2.1671    0.8299 C   0  0  0  0  0  0  0  0  0  0  0  0
   -3.9319   -1.6346    1.3153 H   0  0  0  0  0  0  0  0  0  0  0  0
   -3.2889   -2.1979   -0.2479 H   0  0  0  0  0  0  0  0  0  0  0  0
   -1.7964   -1.4651    1.1145 C   0  0  0  0  0  0  0  0  0  0  0  0
   -0.9113   -2.0684    1.7008 O   0  0  0  0  0  0  0  0  0  0  0  0
   -1.6327   -0.1528    0.7033 N   0  0  0  0  0  0  0  0  0  0  0  0
   -2.3563    0.1740    0.0706 H   0  0  0  0  0  0  0  0  0  0  0  0
   -0.3188    0.5251    0.6021 C   0  0  1  0  0  0  0  0  0  0  0  0
   -0.4795    1.5000    0.1334 H   0  0  0  0  0  0  0  0  0  0  0  0
    0.2386    0.8164    2.0437 C   0  0  1  0  0  0  0  0  0  0  0  0
    0.2908   -0.1126    2.6179 H   0  0  0  0  0  0  0  0  0  0  0  0
    1.6523    1.4349    2.0380 C   0  0  0  0  0  0  0  0  0  0  0  0
    1.7343    2.2074    1.2669 H   0  0  0  0  0  0  0  0  0  0  0  0
    1.9025    1.8881    2.9985 H   0  0  0  0  0  0  0  0  0  0  0  0
    2.4051    0.6623    1.8656 H   0  0  0  0  0  0  0  0  0  0  0  0
   -0.7351    1.7919    2.7622 C   0  0  0  0  0  0  0  0  0  0  0  0
   -0.6983    2.7740    2.2796 H   0  0  0  0  0  0  0  0  0  0  0  0
   -1.7596    1.4210    2.6687 H   0  0  0  0  0  0  0  0  0  0  0  0
   -0.4634    1.9555    4.2630 C   0  0  0  0  0  0  0  0  0  0  0  0
    0.4517    2.5228    4.4494 H   0  0  0  0  0  0  0  0  0  0  0  0
   -1.2914    2.4977    4.7297 H   0  0  0  0  0  0  0  0  0  0  0  0
   -0.3779    0.9763    4.7447 H   0  0  0  0  0  0  0  0  0  0  0  0
    0.5802   -0.2490   -0.4156 C   0  0  0  0  0  0  0  0  0  0  0  0
    0.0410   -0.8737   -1.3248 O   0  0  0  0  0  0  0  0  0  0  0  0
    1.9482   -0.0724   -0.5256 N   0  0  0  0  0  0  0  0  0  0  0  0
    2.4086    0.4467    0.2130 H   0  0  0  0  0  0  0  0  0  0  0  0
    2.7726   -0.7572   -1.5152 C   0  0  0  0  0  0  0  0  0  0  0  0
    2.4647   -0.4811   -2.5291 H   0  0  0  0  0  0  0  0  0  0  0  0
    3.8239   -0.4825   -1.3874 H   0  0  0  0  0  0  0  0  0  0  0  0
    2.6822   -1.8427   -1.4023 H   0  0  0  0  0  0  0  0  0  0  0  0
  1  2  1  0  0  0  0
  2  3  1  0  0  0  0
  2  4  1  0  0  0  0
  2  5  1  0  0  0  0
  5  6  2  0  0  0  0
  5  7  1  0  0  0  0
  7  8  1  0  0  0  0
  7  9  1  0  0  0  0
  9 10  1  0  0  0  0
  9 11  1  0  0  0  0
  9 24  1  0  0  0  0
 11 12  1  0  0  0  0
 11 13  1  0  0  0  0
 11 17  1  0  0  0  0
 13 14  1  0  0  0  0
 13 15  1  0  0  0  0
 13 16  1  0  0  0  0
 17 18  1  0  0  0  0
 17 19  1  0  0  0  0
 17 20  1  0  0  0  0
 20 21  1  0  0  0  0
 20 22  1  0  0  0  0
 20 23  1  0  0  0  0
 24 25  2  0  0  0  0
 24 26  1  0  0  0  0
 26 27  1  0  0  0  0
 26 28  1  0  0  0  0
 28 29  1  0  0  0  0
 28 30  1  0  0  0  0
 28 31  1  0  0  0  0
M  END
$$$$

  -OEChem-01062216083D

 31 30  0     1  0  0  0  0  0999 V2000
   -2.8486   -3.2865    1.0193 H   0  0  0  0  0  0  0  0  0  0  0  0
   -2.9801   -2.2351    0.7489 C   0  0  0  0  0  0  0  0  0  0  0  0
   -3.7365   -1.7951    1.4030 H   0  0  0  0  0  0  0  0  0  0  0  0
   -3.3240   -2.1785   -0.2869 H   0  0  0  0  0  0  0  0  0  0  0  0
   -1.6679   -1.4892    0.8983 C   0  0  0  0  0  0  0  0  0  0  0  0
   -0.6630   -2.0994    1.2309 O   0  0  0  0  0  0  0  0  0  0  0  0
   -1.6275   -0.1313    0.6369 N   0  0  0  0  0  0  0  0  0  0  0  0
   -2.4555    0.2447    0.1843 H   0  0  0  0  0  0  0  0  0  0  0  0
   -0.3778    0.6476    0.4937 C   0  0  1  0  0  0  0  0  0  0  0  0
   -0.6369    1.6526    0.1475 H   0  0  0  0  0  0  0  0  0  0  0  0
    0.3295    0.8359    1.8779 C   0  0  1  0  0  0  0  0  0  0  0  0
    0.5549   -0.1354    2.3275 H   0  0  0  0  0  0  0  0  0  0  0  0
    1.6291    1.6678    1.7580 C   0  0  0  0  0  0  0  0  0  0  0  0
    1.4193    2.6405    1.3022 H   0  0  0  0  0  0  0  0  0  0  0  0
    2.3895    1.1738    1.1597 H   0  0  0  0  0  0  0  0  0  0  0  0
    2.0791    1.8350    2.7389 H   0  0  0  0  0  0  0  0  0  0  0  0
   -0.6131    1.6527    2.8058 C   0  0  0  0  0  0  0  0  0  0  0  0
   -0.7141    2.6783    2.4355 H   0  0  0  0  0  0  0  0  0  0  0  0
   -1.6111    1.2054    2.7942 H   0  0  0  0  0  0  0  0  0  0  0  0
   -0.1608    1.6807    4.2708 C   0  0  0  0  0  0  0  0  0  0  0  0
    0.7422    2.2826    4.4006 H   0  0  0  0  0  0  0  0  0  0  0  0
   -0.9475    2.1200    4.8917 H   0  0  0  0  0  0  0  0  0  0  0  0
    0.0358    0.6656    4.6298 H   0  0  0  0  0  0  0  0  0  0  0  0
    0.3911    0.0043   -0.7043 C   0  0  0  0  0  0  0  0  0  0  0  0
   -0.2002   -0.0654   -1.7740 O   0  0  0  0  0  0  0  0  0  0  0  0
    1.7458   -0.0733   -0.9146 N   0  0  0  0  0  0  0  0  0  0  0  0
    1.9231   -0.1264   -1.9146 H   0  0  0  0  0  0  0  0  0  0  0  0
    2.4929   -1.0547   -0.1337 C   0  0  0  0  0  0  0  0  0  0  0  0
    2.4461   -2.0344   -0.6204 H   0  0  0  0  0  0  0  0  0  0  0  0
    3.5420   -0.7531   -0.0558 H   0  0  0  0  0  0  0  0  0  0  0  0
    2.0901   -1.1621    0.8782 H   0  0  0  0  0  0  0  0  0  0  0  0
  1  2  1  0  0  0  0
  2  3  1  0  0  0  0
  2  4  1  0  0  0  0
  2  5  1  0  0  0  0
  5  6  2  0  0  0  0
  5  7  1  0  0  0  0
  7  8  1  0  0  0  0
  7  9  1  0  0  0  0
  9 10  1  0  0  0  0
  9 11  1  0  0  0  0
  9 24  1  0  0  0  0
 11 12  1  0  0  0  0
 11 13  1  0  0  0  0
 11 17  1  0  0  0  0
 13 14  1  0  0  0  0
 13 15  1  0  0  0  0
 13 16  1  0  0  0  0
 17 18  1  0  0  0  0
 17 19  1  0  0  0  0
 17 20  1  0  0  0  0
 20 21  1  0  0  0  0
 20 22  1  0  0  0  0
 20 23  1  0  0  0  0
 24 25  2  0  0  0  0
 24 26  1  0  0  0  0
 26 27  1  0  0  0  0
 26 28  1  0  0  0  0
 28 29  1  0  0  0  0
 28 30  1  0  0  0  0
 28 31  1  0  0  0  0
M  END
$$$$

  -OEChem-01062216083D

 31 30  0     1  0  0  0  0  0999 V2000
   -3.0769   -3.1664    1.1893 H   0  0  0  0  0  0  0  0  0  0  0  0
   -3.1067   -2.1372    0.8208 C   0  0  0  0  0  0  0  0  0  0  0  0
   -3.9126   -1.6037    1.3302 H   0  0  0  0  0  0  0  0  0  0  0  0
   -3.3094   -2.1543   -0.2529 H   0  0  0  0  0  0  0  0  0  0  0  0
   -1.7808   -1.4492    1.0848 C   0  0  0  0  0  0  0  0  0  0  0  0
   -0.8870   -2.0617    1.6488 O   0  0  0  0  0  0  0  0  0  0  0  0
   -1.6025   -0.1407    0.6724 N   0  0  0  0  0  0  0  0  0  0  0  0
   -2.3217    0.2107    0.0471 H   0  0  0  0  0  0  0  0  0  0  0  0
   -0.2872    0.5339    0.6152 C   0  0  1  0  0  0  0  0  0  0  0  0
   -0.4244    1.5036    0.1273 H   0  0  0  0  0  0  0  0  0  0  0  0
    0.2544    0.8401    2.0544 C   0  0  1  0  0  0  0  0  0  0  0  0
    0.3242   -0.0810    2.6405 H   0  0  0  0  0  0  0  0  0  0  0  0
    1.6462    1.5158    2.0196 C   0  0  0  0  0  0  0  0  0  0  0  0
    1.6766    2.2920    1.2484 H   0  0  0  0  0  0  0  0  0  0  0  0
    2.4387    0.7930    1.8245 H   0  0  0  0  0  0  0  0  0  0  0  0
    1.8948    1.9784    2.9761 H   0  0  0  0  0  0  0  0  0  0  0  0
   -0.7311    1.8225    2.7459 C   0  0  0  0  0  0  0  0  0  0  0  0
   -0.6949    2.7986    2.2508 H   0  0  0  0  0  0  0  0  0  0  0  0
   -1.7522    1.4439    2.6450 H   0  0  0  0  0  0  0  0  0  0  0  0
   -0.4770    2.0040    4.2476 C   0  0  0  0  0  0  0  0  0  0  0  0
    0.4346    2.5754    4.4379 H   0  0  0  0  0  0  0  0  0  0  0  0
   -1.3119    2.5486    4.6990 H   0  0  0  0  0  0  0  0  0  0  0  0
   -0.3944    1.0306    4.7411 H   0  0  0  0  0  0  0  0  0  0  0  0
    0.6043   -0.2789   -0.3700 C   0  0  0  0  0  0  0  0  0  0  0  0
    0.1509   -0.5071   -1.4874 O   0  0  0  0  0  0  0  0  0  0  0  0
    1.9183   -0.6325   -0.1286 N   0  0  0  0  0  0  0  0  0  0  0  0
    2.2044   -0.6139    0.8453 H   0  0  0  0  0  0  0  0  0  0  0  0
    2.7054   -1.4330   -1.0592 C   0  0  0  0  0  0  0  0  0  0  0  0
    2.7905   -0.9249   -2.0255 H   0  0  0  0  0  0  0  0  0  0  0  0
    3.7135   -1.5893   -0.6641 H   0  0  0  0  0  0  0  0  0  0  0  0
    2.2371   -2.4106   -1.2147 H   0  0  0  0  0  0  0  0  0  0  0  0
  1  2  1  0  0  0  0
  2  3  1  0  0  0  0
  2  4  1  0  0  0  0
  2  5  1  0  0  0  0
  5  6  2  0  0  0  0
  5  7  1  0  0  0  0
  7  8  1  0  0  0  0
  7  9  1  0  0  0  0
  9 10  1  0  0  0  0
  9 11  1  0  0  0  0
  9 24  1  0  0  0  0
 11 12  1  0  0  0  0
 11 13  1  0  0  0  0
 11 17  1  0  0  0  0
 13 14  1  0  0  0  0
 13 15  1  0  0  0  0
 13 16  1  0  0  0  0
 17 18  1  0  0  0  0
 17 19  1  0  0  0  0
 17 20  1  0  0  0  0
 20 21  1  0  0  0  0
 20 22  1  0  0  0  0
 20 23  1  0  0  0  0
 24 25  2  0  0  0  0
 24 26  1  0  0  0  0
 26 27  1  0  0  0  0
 26 28  1  0  0  0  0
 28 29  1  0  0  0  0
 28 30  1  0  0  0  0
 28 31  1  0  0  0  0
M  END
$$$$

  -OEChem-01062216083D

 31 30  0     1  0  0  0  0  0999 V2000
   -3.0637   -3.1874    1.1949 H   0  0  0  0  0  0  0  0  0  0  0  0
   -3.1002   -2.1587    0.8254 C   0  0  0  0  0  0  0  0  0  0  0  0
   -3.9003   -1.6261    1.3449 H   0  0  0  0  0  0  0  0  0  0  0  0
   -3.3178   -2.1775   -0.2453 H   0  0  0  0  0  0  0  0  0  0  0  0
   -1.7725   -1.4672    1.0706 C   0  0  0  0  0  0  0  0  0  0  0  0
   -0.8673   -2.0772    1.6193 O   0  0  0  0  0  0  0  0  0  0  0  0
   -1.6044   -0.1579    0.6568 N   0  0  0  0  0  0  0  0  0  0  0  0
   -2.3404    0.2038    0.0572 H   0  0  0  0  0  0  0  0  0  0  0  0
   -0.3007    0.5373    0.6069 C   0  0  1  0  0  0  0  0  0  0  0  0
   -0.4497    1.5073    0.1221 H   0  0  0  0  0  0  0  0  0  0  0  0
    0.2560    0.8373    2.0383 C   0  0  1  0  0  0  0  0  0  0  0  0
    0.3595   -0.0905    2.6083 H   0  0  0  0  0  0  0  0  0  0  0  0
    1.6285    1.5510    1.9804 C   0  0  0  0  0  0  0  0  0  0  0  0
    1.5671    2.4463    1.3535 H   0  0  0  0  0  0  0  0  0  0  0  0
    1.9591    1.8506    2.9772 H   0  0  0  0  0  0  0  0  0  0  0  0
    2.4133    0.9082    1.5826 H   0  0  0  0  0  0  0  0  0  0  0  0
   -0.7284    1.7958    2.7608 C   0  0  0  0  0  0  0  0  0  0  0  0
   -0.7163    2.7798    2.2804 H   0  0  0  0  0  0  0  0  0  0  0  0
   -1.7459    1.4038    2.6740 H   0  0  0  0  0  0  0  0  0  0  0  0
   -0.4409    1.9566    4.2580 C   0  0  0  0  0  0  0  0  0  0  0  0
    0.4810    2.5174    4.4316 H   0  0  0  0  0  0  0  0  0  0  0  0
   -1.2601    2.5032    4.7349 H   0  0  0  0  0  0  0  0  0  0  0  0
   -0.3550    0.9767    4.7379 H   0  0  0  0  0  0  0  0  0  0  0  0
    0.6018   -0.2684   -0.3686 C   0  0  0  0  0  0  0  0  0  0  0  0
    0.2590   -0.3305   -1.5443 O   0  0  0  0  0  0  0  0  0  0  0  0
    1.7987   -0.8533   -0.0013 N   0  0  0  0  0  0  0  0  0  0  0  0
    1.9292   -0.9773    0.9993 H   0  0  0  0  0  0  0  0  0  0  0  0
    2.5774   -1.6925   -0.9034 C   0  0  0  0  0  0  0  0  0  0  0  0
    2.8602   -1.1331   -1.8014 H   0  0  0  0  0  0  0  0  0  0  0  0
    3.4922   -2.0306   -0.4074 H   0  0  0  0  0  0  0  0  0  0  0  0
    1.9985   -2.5722   -1.2039 H   0  0  0  0  0  0  0  0  0  0  0  0
  1  2  1  0  0  0  0
  2  3  1  0  0  0  0
  2  4  1  0  0  0  0
  2  5  1  0  0  0  0
  5  6  2  0  0  0  0
  5  7  1  0  0  0  0
  7  8  1  0  0  0  0
  7  9  1  0  0  0  0
  9 10  1  0  0  0  0
  9 11  1  0  0  0  0
  9 24  1  0  0  0  0
 11 12  1  0  0  0  0
 11 13  1  0  0  0  0
 11 17  1  0  0  0  0
 13 14  1  0  0  0  0
 13 15  1  0  0  0  0
 13 16  1  0  0  0  0
 17 18  1  0  0  0  0
 17 19  1  0  0  0  0
 17 20  1  0  0  0  0
 20 21  1  0  0  0  0
 20 22  1  0  0  0  0
 20 23  1  0  0  0  0
 24 25  2  0  0  0  0
 24 26  1  0  0  0  0
 26 27  1  0  0  0  0
 26 28  1  0  0  0  0
 28 29  1  0  0  0  0
 28 30  1  0  0  0  0
 28 31  1  0  0  0  0
M  END
$$$$

  -OEChem-01062216083D

 31 30  0     1  0  0  0  0  0999 V2000
   -3.1139   -3.1699    1.2413 H   0  0  0  0  0  0  0  0  0  0  0  0
   -3.1431   -2.1423    0.8682 C   0  0  0  0  0  0  0  0  0  0  0  0
   -3.9121   -1.5909    1.4144 H   0  0  0  0  0  0  0  0  0  0  0  0
   -3.4007   -2.1613   -0.1936 H   0  0  0  0  0  0  0  0  0  0  0  0
   -1.7941   -1.4764    1.0611 C   0  0  0  0  0  0  0  0  0  0  0  0
   -0.8842   -2.0976    1.5897 O   0  0  0  0  0  0  0  0  0  0  0  0
   -1.6139   -0.1738    0.6319 N   0  0  0  0  0  0  0  0  0  0  0  0
   -2.3712    0.2181    0.0795 H   0  0  0  0  0  0  0  0  0  0  0  0
   -0.3109    0.5208    0.5834 C   0  0  1  0  0  0  0  0  0  0  0  0
   -0.4607    1.4883    0.0939 H   0  0  0  0  0  0  0  0  0  0  0  0
    0.2495    0.8239    2.0087 C   0  0  1  0  0  0  0  0  0  0  0  0
    0.3515   -0.1049    2.5776 H   0  0  0  0  0  0  0  0  0  0  0  0
    1.6287    1.5188    1.9299 C   0  0  0  0  0  0  0  0  0  0  0  0
    1.5541    2.4534    1.3649 H   0  0  0  0  0  0  0  0  0  0  0  0
    2.0090    1.7473    2.9284 H   0  0  0  0  0  0  0  0  0  0  0  0
    2.3783    0.8895    1.4482 H   0  0  0  0  0  0  0  0  0  0  0  0
   -0.7225    1.7843    2.7416 C   0  0  0  0  0  0  0  0  0  0  0  0
   -0.7088    2.7697    2.2643 H   0  0  0  0  0  0  0  0  0  0  0  0
   -1.7431    1.3983    2.6639 H   0  0  0  0  0  0  0  0  0  0  0  0
   -0.4124    1.9364    4.2345 C   0  0  0  0  0  0  0  0  0  0  0  0
    0.5293    2.4680    4.3941 H   0  0  0  0  0  0  0  0  0  0  0  0
   -1.2079    2.5082    4.7219 H   0  0  0  0  0  0  0  0  0  0  0  0
   -0.3500    0.9543    4.7135 H   0  0  0  0  0  0  0  0  0  0  0  0
    0.6181   -0.2788   -0.3669 C   0  0  0  0  0  0  0  0  0  0  0  0
    0.4567   -0.1569   -1.5754 O   0  0  0  0  0  0  0  0  0  0  0  0
    1.6420   -1.0828    0.0981 N   0  0  0  0  0  0  0  0  0  0  0  0
    1.5445   -1.3678    1.0710 H   0  0  0  0  0  0  0  0  0  0  0  0
    2.4343   -1.9301   -0.7835 C   0  0  0  0  0  0  0  0  0  0  0  0
    2.9359   -1.3264   -1.5474 H   0  0  0  0  0  0  0  0  0  0  0  0
    3.1990   -2.4612   -0.2084 H   0  0  0  0  0  0  0  0  0  0  0  0
    1.7959   -2.6685   -1.2799 H   0  0  0  0  0  0  0  0  0  0  0  0
  1  2  1  0  0  0  0
  2  3  1  0  0  0  0
  2  4  1  0  0  0  0
  2  5  1  0  0  0  0
  5  6  2  0  0  0  0
  5  7  1  0  0  0  0
  7  8  1  0  0  0  0
  7  9  1  0  0  0  0
  9 10  1  0  0  0  0
  9 11  1  0  0  0  0
  9 24  1  0  0  0  0
 11 12  1  0  0  0  0
 11 13  1  0  0  0  0
 11 17  1  0  0  0  0
 13 14  1  0  0  0  0
 13 15  1  0  0  0  0
 13 16  1  0  0  0  0
 17 18  1  0  0  0  0
 17 19  1  0  0  0  0
 17 20  1  0  0  0  0
 20 21  1  0  0  0  0
 20 22  1  0  0  0  0
 20 23  1  0  0  0  0
 24 25  2  0  0  0  0
 24 26  1  0  0  0  0
 26 27  1  0  0  0  0
 26 28  1  0  0  0  0
 28 29  1  0  0  0  0
 28 30  1  0  0  0  0
 28 31  1  0  0  0  0
M  END
$$$$

  -OEChem-01062216083D

 31 30  0     1  0  0  0  0  0999 V2000
   -3.1905   -3.1438    1.2961 H   0  0  0  0  0  0  0  0  0  0  0  0
   -3.2040   -2.1200    0.9118 C   0  0  0  0  0  0  0  0  0  0  0  0
   -3.9474   -1.5450    1.4689 H   0  0  0  0  0  0  0  0  0  0  0  0
   -3.4870   -2.1447   -0.1432 H   0  0  0  0  0  0  0  0  0  0  0  0
   -1.8350   -1.4850    1.0664 C   0  0  0  0  0  0  0  0  0  0  0  0
   -0.9298   -2.1233    1.5827 O   0  0  0  0  0  0  0  0  0  0  0  0
   -1.6339   -0.1910    0.6203 N   0  0  0  0  0  0  0  0  0  0  0  0
   -2.4059    0.2279    0.1097 H   0  0  0  0  0  0  0  0  0  0  0  0
   -0.3280    0.4987    0.5613 C   0  0  1  0  0  0  0  0  0  0  0  0
   -0.4820    1.4655    0.0711 H   0  0  0  0  0  0  0  0  0  0  0  0
    0.2403    0.8022    1.9815 C   0  0  1  0  0  0  0  0  0  0  0  0
    0.3310   -0.1276    2.5510 H   0  0  0  0  0  0  0  0  0  0  0  0
    1.6350    1.4590    1.8885 C   0  0  0  0  0  0  0  0  0  0  0  0
    1.5812    2.3966    1.3261 H   0  0  0  0  0  0  0  0  0  0  0  0
    2.0327    1.6733    2.8836 H   0  0  0  0  0  0  0  0  0  0  0  0
    2.3564    0.8039    1.3942 H   0  0  0  0  0  0  0  0  0  0  0  0
   -0.7166    1.7686    2.7232 C   0  0  0  0  0  0  0  0  0  0  0  0
   -0.6973    2.7537    2.2456 H   0  0  0  0  0  0  0  0  0  0  0  0
   -1.7412    1.3918    2.6537 H   0  0  0  0  0  0  0  0  0  0  0  0
   -0.3892    1.9166    4.2125 C   0  0  0  0  0  0  0  0  0  0  0  0
    0.5626    2.4336    4.3603 H   0  0  0  0  0  0  0  0  0  0  0  0
   -1.1706    2.5011    4.7076 H   0  0  0  0  0  0  0  0  0  0  0  0
   -0.3362    0.9343    4.6923 H   0  0  0  0  0  0  0  0  0  0  0  0
    0.6312   -0.2855   -0.3680 C   0  0  0  0  0  0  0  0  0  0  0  0
    0.6754    0.0098   -1.5558 O   0  0  0  0  0  0  0  0  0  0  0  0
    1.4520   -1.2861    0.1169 N   0  0  0  0  0  0  0  0  0  0  0  0
    1.1454   -1.6799    1.0081 H   0  0  0  0  0  0  0  0  0  0  0  0
    2.2693   -2.1203   -0.7536 C   0  0  0  0  0  0  0  0  0  0  0  0
    2.9630   -1.5039   -1.3351 H   0  0  0  0  0  0  0  0  0  0  0  0
    2.8549   -2.8264   -0.1572 H   0  0  0  0  0  0  0  0  0  0  0  0
    1.6368   -2.6873   -1.4445 H   0  0  0  0  0  0  0  0  0  0  0  0
  1  2  1  0  0  0  0
  2  3  1  0  0  0  0
  2  4  1  0  0  0  0
  2  5  1  0  0  0  0
  5  6  2  0  0  0  0
  5  7  1  0  0  0  0
  7  8  1  0  0  0  0
  7  9  1  0  0  0  0
  9 10  1  0  0  0  0
  9 11  1  0  0  0  0
  9 24  1  0  0  0  0
 11 12  1  0  0  0  0
 11 13  1  0  0  0  0
 11 17  1  0  0  0  0
 13 14  1  0  0  0  0
 13 15  1  0  0  0  0
 13 16  1  0  0  0  0
 17 18  1  0  0  0  0
 17 19  1  0  0  0  0
 17 20  1  0  0  0  0
 20 21  1  0  0  0  0
 20 22  1  0  0  0  0
 20 23  1  0  0  0  0
 24 25  2  0  0  0  0
 24 26  1  0  0  0  0
 26 27  1  0  0  0  0
 26 28  1  0  0  0  0
 28 29  1  0  0  0  0
 28 30  1  0  0  0  0
 28 31  1  0  0  0  0
M  END
$$$$

  -OEChem-01062216083D

 31 30  0     1  0  0  0  0  0999 V2000
   -3.2951   -3.1018    1.3575 H   0  0  0  0  0  0  0  0  0  0  0  0
   -3.2812   -2.0822    0.9617 C   0  0  0  0  0  0  0  0  0  0  0  0
   -3.9943   -1.4761    1.5259 H   0  0  0  0  0  0  0  0  0  0  0  0
   -3.5851   -2.1092   -0.0876 H   0  0  0  0  0  0  0  0  0  0  0  0
   -1.8889   -1.4920    1.0834 C   0  0  0  0  0  0  0  0  0  0  0  0
   -1.0010   -2.1539    1.5986 O   0  0  0  0  0  0  0  0  0  0  0  0
   -1.6559   -0.2103    0.6176 N   0  0  0  0  0  0  0  0  0  0  0  0
   -2.4370    0.2342    0.1441 H   0  0  0  0  0  0  0  0  0  0  0  0
   -0.3452    0.4733    0.5385 C   0  0  1  0  0  0  0  0  0  0  0  0
   -0.5042    1.4391    0.0476 H   0  0  0  0  0  0  0  0  0  0  0  0
    0.2275    0.7754    1.9561 C   0  0  1  0  0  0  0  0  0  0  0  0
    0.3056   -0.1562    2.5246 H   0  0  0  0  0  0  0  0  0  0  0  0
    1.6366    1.3985    1.8590 C   0  0  0  0  0  0  0  0  0  0  0  0
    1.6080    2.3255    1.2776 H   0  0  0  0  0  0  0  0  0  0  0  0
    2.0358    1.6223    2.8511 H   0  0  0  0  0  0  0  0  0  0  0  0
    2.3414    0.7125    1.3811 H   0  0  0  0  0  0  0  0  0  0  0  0
   -0.7173    1.7486    2.7043 C   0  0  0  0  0  0  0  0  0  0  0  0
   -0.6895    2.7342    2.2282 H   0  0  0  0  0  0  0  0  0  0  0  0
   -1.7461    1.3827    2.6399 H   0  0  0  0  0  0  0  0  0  0  0  0
   -0.3793    1.8917    4.1918 C   0  0  0  0  0  0  0  0  0  0  0  0
    0.5816    2.3929    4.3350 H   0  0  0  0  0  0  0  0  0  0  0  0
   -1.1482    2.4892    4.6910 H   0  0  0  0  0  0  0  0  0  0  0  0
   -0.3399    0.9085    4.6711 H   0  0  0  0  0  0  0  0  0  0  0  0
    0.6450   -0.2934   -0.3727 C   0  0  0  0  0  0  0  0  0  0  0  0
    0.8926    0.1507   -1.4866 O   0  0  0  0  0  0  0  0  0  0  0  0
    1.2585   -1.4585    0.0441 N   0  0  0  0  0  0  0  0  0  0  0  0
    0.8310   -1.8981    0.8633 H   0  0  0  0  0  0  0  0  0  0  0  0
    2.0944   -2.2735   -0.8262 C   0  0  0  0  0  0  0  0  0  0  0  0
    2.9372   -1.6871   -1.2070 H   0  0  0  0  0  0  0  0  0  0  0  0
    2.4930   -3.1285   -0.2720 H   0  0  0  0  0  0  0  0  0  0  0  0
    1.5127   -2.6485   -1.6744 H   0  0  0  0  0  0  0  0  0  0  0  0
  1  2  1  0  0  0  0
  2  3  1  0  0  0  0
  2  4  1  0  0  0  0
  2  5  1  0  0  0  0
  5  6  2  0  0  0  0
  5  7  1  0  0  0  0
  7  8  1  0  0  0  0
  7  9  1  0  0  0  0
  9 10  1  0  0  0  0
  9 11  1  0  0  0  0
  9 24  1  0  0  0  0
 11 12  1  0  0  0  0
 11 13  1  0  0  0  0
 11 17  1  0  0  0  0
 13 14  1  0  0  0  0
 13 15  1  0  0  0  0
 13 16  1  0  0  0  0
 17 18  1  0  0  0  0
 17 19  1  0  0  0  0
 17 20  1  0  0  0  0
 20 21  1  0  0  0  0
 20 22  1  0  0  0  0
 20 23  1  0  0  0  0
 24 25  2  0  0  0  0
 24 26  1  0  0  0  0
 26 27  1  0  0  0  0
 26 28  1  0  0  0  0
 28 29  1  0  0  0  0
 28 30  1  0  0  0  0
 28 31  1  0  0  0  0
M  END
$$$$

  -OEChem-01062216083D

 31 30  0     1  0  0  0  0  0999 V2000
   -3.4097   -3.0510    1.4063 H   0  0  0  0  0  0  0  0  0  0  0  0
   -3.3675   -2.0313    1.0130 C   0  0  0  0  0  0  0  0  0  0  0  0
   -4.0428   -1.4013    1.5970 H   0  0  0  0  0  0  0  0  0  0  0  0
   -3.6992   -2.0430   -0.0281 H   0  0  0  0  0  0  0  0  0  0  0  0
   -1.9515   -1.4937    1.1004 C   0  0  0  0  0  0  0  0  0  0  0  0
   -1.0813   -2.1835    1.6077 O   0  0  0  0  0  0  0  0  0  0  0  0
   -1.6845   -0.2249    0.6183 N   0  0  0  0  0  0  0  0  0  0  0  0
   -2.4717    0.2491    0.1851 H   0  0  0  0  0  0  0  0  0  0  0  0
   -0.3667    0.4465    0.5174 C   0  0  1  0  0  0  0  0  0  0  0  0
   -0.5270    1.4117    0.0259 H   0  0  0  0  0  0  0  0  0  0  0  0
    0.2138    0.7450    1.9329 C   0  0  1  0  0  0  0  0  0  0  0  0
    0.2812   -0.1883    2.5003 H   0  0  0  0  0  0  0  0  0  0  0  0
    1.6320    1.3466    1.8355 C   0  0  0  0  0  0  0  0  0  0  0  0
    1.6195    2.2654    1.2406 H   0  0  0  0  0  0  0  0  0  0  0  0
    2.0302    1.5794    2.8261 H   0  0  0  0  0  0  0  0  0  0  0  0
    2.3284    0.6421    1.3717 H   0  0  0  0  0  0  0  0  0  0  0  0
   -0.7163    1.7285    2.6863 C   0  0  0  0  0  0  0  0  0  0  0  0
   -0.6809    2.7134    2.2091 H   0  0  0  0  0  0  0  0  0  0  0  0
   -1.7492    1.3734    2.6288 H   0  0  0  0  0  0  0  0  0  0  0  0
   -0.3688    1.8684    4.1719 C   0  0  0  0  0  0  0  0  0  0  0  0
    0.5904    2.3746    4.3093 H   0  0  0  0  0  0  0  0  0  0  0  0
   -1.1376    2.4599    4.6782 H   0  0  0  0  0  0  0  0  0  0  0  0
   -0.3204    0.8843    4.6485 H   0  0  0  0  0  0  0  0  0  0  0  0
    0.6415   -0.3109   -0.3846 C   0  0  0  0  0  0  0  0  0  0  0  0
    1.0795    0.2503   -1.3809 O   0  0  0  0  0  0  0  0  0  0  0  0
    1.0469   -1.6026   -0.1140 N   0  0  0  0  0  0  0  0  0  0  0  0
    0.5618   -2.0715    0.6556 H   0  0  0  0  0  0  0  0  0  0  0  0
    1.9244   -2.3792   -0.9781 C   0  0  0  0  0  0  0  0  0  0  0  0
    2.8641   -1.8445   -1.1511 H   0  0  0  0  0  0  0  0  0  0  0  0
    2.1573   -3.3408   -0.5108 H   0  0  0  0  0  0  0  0  0  0  0  0
    1.4420   -2.5678   -1.9425 H   0  0  0  0  0  0  0  0  0  0  0  0
  1  2  1  0  0  0  0
  2  3  1  0  0  0  0
  2  4  1  0  0  0  0
  2  5  1  0  0  0  0
  5  6  2  0  0  0  0
  5  7  1  0  0  0  0
  7  8  1  0  0  0  0
  7  9  1  0  0  0  0
  9 10  1  0  0  0  0
  9 11  1  0  0  0  0
  9 24  1  0  0  0  0
 11 12  1  0  0  0  0
 11 13  1  0  0  0  0
 11 17  1  0  0  0  0
 13 14  1  0  0  0  0
 13 15  1  0  0  0  0
 13 16  1  0  0  0  0
 17 18  1  0  0  0  0
 17 19  1  0  0  0  0
 17 20  1  0  0  0  0
 20 21  1  0  0  0  0
 20 22  1  0  0  0  0
 20 23  1  0  0  0  0
 24 25  2  0  0  0  0
 24 26  1  0  0  0  0
 26 27  1  0  0  0  0
 26 28  1  0  0  0  0
 28 29  1  0  0  0  0
 28 30  1  0  0  0  0
 28 31  1  0  0  0  0
M  END
$$$$

  -OEChem-01062216083D

 31 30  0     1  0  0  0  0  0999 V2000
   -3.4934   -2.9960    1.5018 H   0  0  0  0  0  0  0  0  0  0  0  0
   -3.4328   -1.9913    1.0738 C   0  0  0  0  0  0  0  0  0  0  0  0
   -4.0784   -1.3248    1.6508 H   0  0  0  0  0  0  0  0  0  0  0  0
   -3.7869   -2.0280    0.0407 H   0  0  0  0  0  0  0  0  0  0  0  0
   -2.0015   -1.4896    1.1141 C   0  0  0  0  0  0  0  0  0  0  0  0
   -1.1336   -2.2028    1.5915 O   0  0  0  0  0  0  0  0  0  0  0  0
   -1.7192   -0.2276    0.6225 N   0  0  0  0  0  0  0  0  0  0  0  0
   -2.5123    0.2680    0.2257 H   0  0  0  0  0  0  0  0  0  0  0  0
   -0.3953    0.4311    0.4940 C   0  0  1  0  0  0  0  0  0  0  0  0
   -0.5566    1.3980    0.0062 H   0  0  0  0  0  0  0  0  0  0  0  0
    0.2001    0.7200    1.9067 C   0  0  1  0  0  0  0  0  0  0  0  0
    0.2598   -0.2165    2.4696 H   0  0  0  0  0  0  0  0  0  0  0  0
    1.6261    1.3027    1.8085 C   0  0  0  0  0  0  0  0  0  0  0  0
    1.6253    2.2231    1.2160 H   0  0  0  0  0  0  0  0  0  0  0  0
    2.0300    1.5268    2.7986 H   0  0  0  0  0  0  0  0  0  0  0  0
    2.3119    0.5894    1.3420 H   0  0  0  0  0  0  0  0  0  0  0  0
   -0.7140    1.7113    2.6706 C   0  0  0  0  0  0  0  0  0  0  0  0
   -0.6701    2.6971    2.1959 H   0  0  0  0  0  0  0  0  0  0  0  0
   -1.7516    1.3693    2.6203 H   0  0  0  0  0  0  0  0  0  0  0  0
   -0.3547    1.8449    4.1540 C   0  0  0  0  0  0  0  0  0  0  0  0
    0.6120    2.3378    4.2855 H   0  0  0  0  0  0  0  0  0  0  0  0
   -1.1118    2.4465    4.6661 H   0  0  0  0  0  0  0  0  0  0  0  0
   -0.3170    0.8596    4.6291 H   0  0  0  0  0  0  0  0  0  0  0  0
    0.6085   -0.3228   -0.4191 C   0  0  0  0  0  0  0  0  0  0  0  0
    1.2110    0.3106   -1.2768 O   0  0  0  0  0  0  0  0  0  0  0  0
    0.8045   -1.6874   -0.3514 N   0  0  0  0  0  0  0  0  0  0  0  0
    0.3147   -2.1771    0.4017 H   0  0  0  0  0  0  0  0  0  0  0  0
    1.7504   -2.4196   -1.1817 C   0  0  0  0  0  0  0  0  0  0  0  0
    2.7672   -2.0448   -1.0258 H   0  0  0  0  0  0  0  0  0  0  0  0
    1.7301   -3.4833   -0.9263 H   0  0  0  0  0  0  0  0  0  0  0  0
    1.4928   -2.3129   -2.2405 H   0  0  0  0  0  0  0  0  0  0  0  0
  1  2  1  0  0  0  0
  2  3  1  0  0  0  0
  2  4  1  0  0  0  0
  2  5  1  0  0  0  0
  5  6  2  0  0  0  0
  5  7  1  0  0  0  0
  7  8  1  0  0  0  0
  7  9  1  0  0  0  0
  9 10  1  0  0  0  0
  9 11  1  0  0  0  0
  9 24  1  0  0  0  0
 11 12  1  0  0  0  0
 11 13  1  0  0  0  0
 11 17  1  0  0  0  0
 13 14  1  0  0  0  0
 13 15  1  0  0  0  0
 13 16  1  0  0  0  0
 17 18  1  0  0  0  0
 17 19  1  0  0  0  0
 17 20  1  0  0  0  0
 20 21  1  0  0  0  0
 20 22  1  0  0  0  0
 20 23  1  0  0  0  0
 24 25  2  0  0  0  0
 24 26  1  0  0  0  0
 26 27  1  0  0  0  0
 26 28  1  0  0  0  0
 28 29  1  0  0  0  0
 28 30  1  0  0  0  0
 28 31  1  0  0  0  0
M  END
$$$$

  -OEChem-01062216083D

 31 30  0     1  0  0  0  0  0999 V2000
   -3.5195   -2.9592    1.5675 H   0  0  0  0  0  0  0  0  0  0  0  0
   -3.4580   -1.9559    1.1362 C   0  0  0  0  0  0  0  0  0  0  0  0
   -4.0614   -1.2760    1.7426 H   0  0  0  0  0  0  0  0  0  0  0  0
   -3.8621   -1.9850    0.1213 H   0  0  0  0  0  0  0  0  0  0  0  0
   -2.0159   -1.4856    1.1087 C   0  0  0  0  0  0  0  0  0  0  0  0
   -1.1386   -2.2264    1.5220 O   0  0  0  0  0  0  0  0  0  0  0  0
   -1.7289   -0.2256    0.6152 N   0  0  0  0  0  0  0  0  0  0  0  0
   -2.5299    0.2982    0.2749 H   0  0  0  0  0  0  0  0  0  0  0  0
   -0.4017    0.4252    0.4729 C   0  0  1  0  0  0  0  0  0  0  0  0
   -0.5614    1.3941   -0.0116 H   0  0  0  0  0  0  0  0  0  0  0  0
    0.1908    0.7066    1.8908 C   0  0  1  0  0  0  0  0  0  0  0  0
    0.2370   -0.2330    2.4501 H   0  0  0  0  0  0  0  0  0  0  0  0
    1.6243    1.2737    1.8117 C   0  0  0  0  0  0  0  0  0  0  0  0
    1.6433    2.1891    1.2116 H   0  0  0  0  0  0  0  0  0  0  0  0
    2.0161    1.5012    2.8057 H   0  0  0  0  0  0  0  0  0  0  0  0
    2.3086    0.5479    1.3624 H   0  0  0  0  0  0  0  0  0  0  0  0
   -0.7204    1.7019    2.6549 C   0  0  0  0  0  0  0  0  0  0  0  0
   -0.6677    2.6887    2.1833 H   0  0  0  0  0  0  0  0  0  0  0  0
   -1.7604    1.3685    2.6000 H   0  0  0  0  0  0  0  0  0  0  0  0
   -0.3672    1.8297    4.1405 C   0  0  0  0  0  0  0  0  0  0  0  0
    0.5994    2.3211    4.2792 H   0  0  0  0  0  0  0  0  0  0  0  0
   -1.1257    2.4301    4.6518 H   0  0  0  0  0  0  0  0  0  0  0  0
   -0.3328    0.8426    4.6120 H   0  0  0  0  0  0  0  0  0  0  0  0
    0.6003   -0.3240   -0.4497 C   0  0  0  0  0  0  0  0  0  0  0  0
    1.3394    0.3379   -1.1683 O   0  0  0  0  0  0  0  0  0  0  0  0
    0.5969   -1.6956   -0.6116 N   0  0  0  0  0  0  0  0  0  0  0  0
    0.0750   -2.2193    0.0947 H   0  0  0  0  0  0  0  0  0  0  0  0
    1.5512   -2.4095   -1.4495 C   0  0  0  0  0  0  0  0  0  0  0  0
    2.5748   -2.2231   -1.1085 H   0  0  0  0  0  0  0  0  0  0  0  0
    1.3608   -3.4861   -1.4051 H   0  0  0  0  0  0  0  0  0  0  0  0
    1.4618   -2.0864   -2.4919 H   0  0  0  0  0  0  0  0  0  0  0  0
  1  2  1  0  0  0  0
  2  3  1  0  0  0  0
  2  4  1  0  0  0  0
  2  5  1  0  0  0  0
  5  6  2  0  0  0  0
  5  7  1  0  0  0  0
  7  8  1  0  0  0  0
  7  9  1  0  0  0  0
  9 10  1  0  0  0  0
  9 11  1  0  0  0  0
  9 24  1  0  0  0  0
 11 12  1  0  0  0  0
 11 13  1  0  0  0  0
 11 17  1  0  0  0  0
 13 14  1  0  0  0  0
 13 15  1  0  0  0  0
 13 16  1  0  0  0  0
 17 18  1  0  0  0  0
 17 19  1  0  0  0  0
 17 20  1  0  0  0  0
 20 21  1  0  0  0  0
 20 22  1  0  0  0  0
 20 23  1  0  0  0  0
 24 25  2  0  0  0  0
 24 26  1  0  0  0  0
 26 27  1  0  0  0  0
 26 28  1  0  0  0  0
 28 29  1  0  0  0  0
 28 30  1  0  0  0  0
 28 31  1  0  0  0  0
M  END
$$$$

  -OEChem-01062216083D

 31 30  0     1  0  0  0  0  0999 V2000
   -3.5005   -2.9333    1.6238 H   0  0  0  0  0  0  0  0  0  0  0  0
   -3.4453   -1.9297    1.1923 C   0  0  0  0  0  0  0  0  0  0  0  0
   -4.0048   -1.2423    1.8314 H   0  0  0  0  0  0  0  0  0  0  0  0
   -3.9024   -1.9483    0.1999 H   0  0  0  0  0  0  0  0  0  0  0  0
   -1.9993   -1.4824    1.0895 C   0  0  0  0  0  0  0  0  0  0  0  0
   -1.1098   -2.2499    1.4176 O   0  0  0  0  0  0  0  0  0  0  0  0
   -1.7165   -0.2217    0.5965 N   0  0  0  0  0  0  0  0  0  0  0  0
   -2.5254    0.3312    0.3288 H   0  0  0  0  0  0  0  0  0  0  0  0
   -0.3881    0.4280    0.4527 C   0  0  1  0  0  0  0  0  0  0  0  0
   -0.5434    1.3976   -0.0313 H   0  0  0  0  0  0  0  0  0  0  0  0
    0.1881    0.7021    1.8816 C   0  0  1  0  0  0  0  0  0  0  0  0
    0.2223   -0.2415    2.4353 H   0  0  0  0  0  0  0  0  0  0  0  0
    1.6245    1.2643    1.8372 C   0  0  0  0  0  0  0  0  0  0  0  0
    1.6614    2.1794    1.2376 H   0  0  0  0  0  0  0  0  0  0  0  0
    1.9945    1.4903    2.8397 H   0  0  0  0  0  0  0  0  0  0  0  0
    2.3158    0.5348    1.4059 H   0  0  0  0  0  0  0  0  0  0  0  0
   -0.7322    1.6953    2.6396 C   0  0  0  0  0  0  0  0  0  0  0  0
   -0.6720    2.6839    2.1725 H   0  0  0  0  0  0  0  0  0  0  0  0
   -1.7720    1.3643    2.5712 H   0  0  0  0  0  0  0  0  0  0  0  0
   -0.3995    1.8173    4.1306 C   0  0  0  0  0  0  0  0  0  0  0  0
    0.5611    2.3157    4.2848 H   0  0  0  0  0  0  0  0  0  0  0  0
   -1.1693    2.4096    4.6345 H   0  0  0  0  0  0  0  0  0  0  0  0
   -0.3636    0.8281    4.5974 H   0  0  0  0  0  0  0  0  0  0  0  0
    0.6136   -0.3223   -0.4731 C   0  0  0  0  0  0  0  0  0  0  0  0
    1.4705    0.3283   -1.0598 O   0  0  0  0  0  0  0  0  0  0  0  0
    0.4253   -1.6334   -0.8678 N   0  0  0  0  0  0  0  0  0  0  0  0
   -0.1483   -2.1882   -0.2300 H   0  0  0  0  0  0  0  0  0  0  0  0
    1.3432   -2.3371   -1.7544 C   0  0  0  0  0  0  0  0  0  0  0  0
    2.3485   -2.3663   -1.3212 H   0  0  0  0  0  0  0  0  0  0  0  0
    1.0017   -3.3647   -1.9104 H   0  0  0  0  0  0  0  0  0  0  0  0
    1.3926   -1.8393   -2.7285 H   0  0  0  0  0  0  0  0  0  0  0  0
  1  2  1  0  0  0  0
  2  3  1  0  0  0  0
  2  4  1  0  0  0  0
  2  5  1  0  0  0  0
  5  6  2  0  0  0  0
  5  7  1  0  0  0  0
  7  8  1  0  0  0  0
  7  9  1  0  0  0  0
  9 10  1  0  0  0  0
  9 11  1  0  0  0  0
  9 24  1  0  0  0  0
 11 12  1  0  0  0  0
 11 13  1  0  0  0  0
 11 17  1  0  0  0  0
 13 14  1  0  0  0  0
 13 15  1  0  0  0  0
 13 16  1  0  0  0  0
 17 18  1  0  0  0  0
 17 19  1  0  0  0  0
 17 20  1  0  0  0  0
 20 21  1  0  0  0  0
 20 22  1  0  0  0  0
 20 23  1  0  0  0  0
 24 25  2  0  0  0  0
 24 26  1  0  0  0  0
 26 27  1  0  0  0  0
 26 28  1  0  0  0  0
 28 29  1  0  0  0  0
 28 30  1  0  0  0  0
 28 31  1  0  0  0  0
M  END
$$$$

  -OEChem-01062216083D

 31 30  0     1  0  0  0  0  0999 V2000
   -3.4462   -2.9116    1.6884 H   0  0  0  0  0  0  0  0  0  0  0  0
   -3.4063   -1.9069    1.2580 C   0  0  0  0  0  0  0  0  0  0  0  0
   -3.9072   -1.2144    1.9387 H   0  0  0  0  0  0  0  0  0  0  0  0
   -3.9335   -1.9129    0.3010 H   0  0  0  0  0  0  0  0  0  0  0  0
   -1.9644   -1.4821    1.0537 C   0  0  0  0  0  0  0  0  0  0  0  0
   -1.0662   -2.2771    1.2726 O   0  0  0  0  0  0  0  0  0  0  0  0
   -1.6925   -0.2172    0.5666 N   0  0  0  0  0  0  0  0  0  0  0  0
   -2.5053    0.3683    0.3985 H   0  0  0  0  0  0  0  0  0  0  0  0
   -0.3626    0.4321    0.4310 C   0  0  1  0  0  0  0  0  0  0  0  0
   -0.5094    1.4024   -0.0535 H   0  0  0  0  0  0  0  0  0  0  0  0
    0.1869    0.6990    1.8745 C   0  0  1  0  0  0  0  0  0  0  0  0
    0.2049   -0.2480    2.4234 H   0  0  0  0  0  0  0  0  0  0  0  0
    1.6257    1.2557    1.8741 C   0  0  0  0  0  0  0  0  0  0  0  0
    1.6891    2.1583    1.2584 H   0  0  0  0  0  0  0  0  0  0  0  0
    1.9609    1.5001    2.8843 H   0  0  0  0  0  0  0  0  0  0  0  0
    2.3283    0.5135    1.4848 H   0  0  0  0  0  0  0  0  0  0  0  0
   -0.7482    1.6899    2.6193 C   0  0  0  0  0  0  0  0  0  0  0  0
   -0.6772    2.6803    2.1576 H   0  0  0  0  0  0  0  0  0  0  0  0
   -1.7869    1.3615    2.5296 H   0  0  0  0  0  0  0  0  0  0  0  0
   -0.4474    1.8067    4.1177 C   0  0  0  0  0  0  0  0  0  0  0  0
    0.5049    2.3130    4.2959 H   0  0  0  0  0  0  0  0  0  0  0  0
   -1.2332    2.3892    4.6084 H   0  0  0  0  0  0  0  0  0  0  0  0
   -0.4128    0.8150    4.5795 H   0  0  0  0  0  0  0  0  0  0  0  0
    0.6353   -0.3233   -0.4973 C   0  0  0  0  0  0  0  0  0  0  0  0
    1.6073    0.2770   -0.9410 O   0  0  0  0  0  0  0  0  0  0  0  0
    0.2871   -1.5042   -1.1273 N   0  0  0  0  0  0  0  0  0  0  0  0
   -0.3671   -2.0747   -0.5913 H   0  0  0  0  0  0  0  0  0  0  0  0
    1.1685   -2.1880   -2.0658 C   0  0  0  0  0  0  0  0  0  0  0  0
    2.1160   -2.4479   -1.5823 H   0  0  0  0  0  0  0  0  0  0  0  0
    0.6963   -3.1078   -2.4235 H   0  0  0  0  0  0  0  0  0  0  0  0
    1.3771   -1.5501   -2.9311 H   0  0  0  0  0  0  0  0  0  0  0  0
  1  2  1  0  0  0  0
  2  3  1  0  0  0  0
  2  4  1  0  0  0  0
  2  5  1  0  0  0  0
  5  6  2  0  0  0  0
  5  7  1  0  0  0  0
  7  8  1  0  0  0  0
  7  9  1  0  0  0  0
  9 10  1  0  0  0  0
  9 11  1  0  0  0  0
  9 24  1  0  0  0  0
 11 12  1  0  0  0  0
 11 13  1  0  0  0  0
 11 17  1  0  0  0  0
 13 14  1  0  0  0  0
 13 15  1  0  0  0  0
 13 16  1  0  0  0  0
 17 18  1  0  0  0  0
 17 19  1  0  0  0  0
 17 20  1  0  0  0  0
 20 21  1  0  0  0  0
 20 22  1  0  0  0  0
 20 23  1  0  0  0  0
 24 25  2  0  0  0  0
 24 26  1  0  0  0  0
 26 27  1  0  0  0  0
 26 28  1  0  0  0  0
 28 29  1  0  0  0  0
 28 30  1  0  0  0  0
 28 31  1  0  0  0  0
M  END
$$$$

  -OEChem-01062216083D

 31 30  0     1  0  0  0  0  0999 V2000
   -3.3602   -2.9198    1.7109 H   0  0  0  0  0  0  0  0  0  0  0  0
   -3.3432   -1.9090    1.2931 C   0  0  0  0  0  0  0  0  0  0  0  0
   -3.8034   -1.2262    2.0115 H   0  0  0  0  0  0  0  0  0  0  0  0
   -3.9243   -1.9009    0.3678 H   0  0  0  0  0  0  0  0  0  0  0  0
   -1.9141   -1.4838    1.0134 C   0  0  0  0  0  0  0  0  0  0  0  0
   -1.0085   -2.2869    1.1522 O   0  0  0  0  0  0  0  0  0  0  0  0
   -1.6615   -0.2094    0.5410 N   0  0  0  0  0  0  0  0  0  0  0  0
   -2.4745    0.3938    0.4568 H   0  0  0  0  0  0  0  0  0  0  0  0
   -0.3309    0.4405    0.4189 C   0  0  1  0  0  0  0  0  0  0  0  0
   -0.4684    1.4132   -0.0628 H   0  0  0  0  0  0  0  0  0  0  0  0
    0.1945    0.7005    1.8758 C   0  0  1  0  0  0  0  0  0  0  0  0
    0.2010   -0.2492    2.4207 H   0  0  0  0  0  0  0  0  0  0  0  0
    1.6318    1.2596    1.9144 C   0  0  0  0  0  0  0  0  0  0  0  0
    1.7215    2.1378    1.2672 H   0  0  0  0  0  0  0  0  0  0  0  0
    1.9281    1.5433    2.9259 H   0  0  0  0  0  0  0  0  0  0  0  0
    2.3486    0.5021    1.5859 H   0  0  0  0  0  0  0  0  0  0  0  0
   -0.7578    1.6883    2.6061 C   0  0  0  0  0  0  0  0  0  0  0  0
   -0.6795    2.6801    2.1485 H   0  0  0  0  0  0  0  0  0  0  0  0
   -1.7942    1.3590    2.4954 H   0  0  0  0  0  0  0  0  0  0  0  0
   -0.4907    1.8031    4.1114 C   0  0  0  0  0  0  0  0  0  0  0  0
    0.4498    2.3226    4.3128 H   0  0  0  0  0  0  0  0  0  0  0  0
   -1.2947    2.3726    4.5873 H   0  0  0  0  0  0  0  0  0  0  0  0
   -0.4521    0.8104    4.5703 H   0  0  0  0  0  0  0  0  0  0  0  0
    0.6509   -0.3247   -0.5216 C   0  0  0  0  0  0  0  0  0  0  0  0
    1.7443    0.1547   -0.7957 O   0  0  0  0  0  0  0  0  0  0  0  0
    0.1761   -1.3028   -1.3781 N   0  0  0  0  0  0  0  0  0  0  0  0
   -0.6149   -1.8213   -1.0038 H   0  0  0  0  0  0  0  0  0  0  0  0
    1.0267   -1.9809   -2.3493 C   0  0  0  0  0  0  0  0  0  0  0  0
    1.8558   -2.4875   -1.8444 H   0  0  0  0  0  0  0  0  0  0  0  0
    0.4472   -2.7268   -2.9014 H   0  0  0  0  0  0  0  0  0  0  0  0
    1.4366   -1.2642   -3.0688 H   0  0  0  0  0  0  0  0  0  0  0  0
  1  2  1  0  0  0  0
  2  3  1  0  0  0  0
  2  4  1  0  0  0  0
  2  5  1  0  0  0  0
  5  6  2  0  0  0  0
  5  7  1  0  0  0  0
  7  8  1  0  0  0  0
  7  9  1  0  0  0  0
  9 10  1  0  0  0  0
  9 11  1  0  0  0  0
  9 24  1  0  0  0  0
 11 12  1  0  0  0  0
 11 13  1  0  0  0  0
 11 17  1  0  0  0  0
 13 14  1  0  0  0  0
 13 15  1  0  0  0  0
 13 16  1  0  0  0  0
 17 18  1  0  0  0  0
 17 19  1  0  0  0  0
 17 20  1  0  0  0  0
 20 21  1  0  0  0  0
 20 22  1  0  0  0  0
 20 23  1  0  0  0  0
 24 25  2  0  0  0  0
 24 26  1  0  0  0  0
 26 27  1  0  0  0  0
 26 28  1  0  0  0  0
 28 29  1  0  0  0  0
 28 30  1  0  0  0  0
 28 31  1  0  0  0  0
M  END
$$$$

  -OEChem-01062216083D

 31 30  0     1  0  0  0  0  0999 V2000
   -3.2756   -2.9695    1.6368 H   0  0  0  0  0  0  0  0  0  0  0  0
   -3.2746   -1.9512    1.2370 C   0  0  0  0  0  0  0  0  0  0  0  0
   -3.7538   -1.2899    1.9630 H   0  0  0  0  0  0  0  0  0  0  0  0
   -3.8475   -1.9380    0.3067 H   0  0  0  0  0  0  0  0  0  0  0  0
   -1.8513   -1.4940    0.9778 C   0  0  0  0  0  0  0  0  0  0  0  0
   -0.9316   -2.2780    1.1258 O   0  0  0  0  0  0  0  0  0  0  0  0
   -1.6219   -0.2044    0.5327 N   0  0  0  0  0  0  0  0  0  0  0  0
   -2.4407    0.3949    0.4861 H   0  0  0  0  0  0  0  0  0  0  0  0
   -0.2958    0.4564    0.4293 C   0  0  1  0  0  0  0  0  0  0  0  0
   -0.4308    1.4325   -0.0458 H   0  0  0  0  0  0  0  0  0  0  0  0
    0.2191    0.7125    1.8921 C   0  0  1  0  0  0  0  0  0  0  0  0
    0.2372   -0.2385    2.4346 H   0  0  0  0  0  0  0  0  0  0  0  0
    1.6441    1.3049    1.9422 C   0  0  0  0  0  0  0  0  0  0  0  0
    1.7381    2.1423    1.2439 H   0  0  0  0  0  0  0  0  0  0  0  0
    1.9040    1.6589    2.9410 H   0  0  0  0  0  0  0  0  0  0  0  0
    2.3868    0.5444    1.6882 H   0  0  0  0  0  0  0  0  0  0  0  0
   -0.7518    1.6887    2.6160 C   0  0  0  0  0  0  0  0  0  0  0  0
   -0.6816    2.6823    2.1610 H   0  0  0  0  0  0  0  0  0  0  0  0
   -1.7827    1.3465    2.4946 H   0  0  0  0  0  0  0  0  0  0  0  0
   -0.5050    1.8049    4.1253 C   0  0  0  0  0  0  0  0  0  0  0  0
    0.4186    2.3479    4.3414 H   0  0  0  0  0  0  0  0  0  0  0  0
   -1.3295    2.3513    4.5934 H   0  0  0  0  0  0  0  0  0  0  0  0
   -0.4468    0.8114    4.5806 H   0  0  0  0  0  0  0  0  0  0  0  0
    0.6561   -0.3175   -0.5363 C   0  0  0  0  0  0  0  0  0  0  0  0
    1.8556   -0.0852   -0.6051 O   0  0  0  0  0  0  0  0  0  0  0  0
    0.1049   -1.0272   -1.5901 N   0  0  0  0  0  0  0  0  0  0  0  0
   -0.8532   -1.3271   -1.4448 H   0  0  0  0  0  0  0  0  0  0  0  0
    0.9105   -1.7554   -2.5636 C   0  0  0  0  0  0  0  0  0  0  0  0
    1.5146   -2.5203   -2.0644 H   0  0  0  0  0  0  0  0  0  0  0  0
    0.2636   -2.2467   -3.2966 H   0  0  0  0  0  0  0  0  0  0  0  0
    1.5782   -1.0721   -3.0988 H   0  0  0  0  0  0  0  0  0  0  0  0
  1  2  1  0  0  0  0
  2  3  1  0  0  0  0
  2  4  1  0  0  0  0
  2  5  1  0  0  0  0
  5  6  2  0  0  0  0
  5  7  1  0  0  0  0
  7  8  1  0  0  0  0
  7  9  1  0  0  0  0
  9 10  1  0  0  0  0
  9 11  1  0  0  0  0
  9 24  1  0  0  0  0
 11 12  1  0  0  0  0
 11 13  1  0  0  0  0
 11 17  1  0  0  0  0
 13 14  1  0  0  0  0
 13 15  1  0  0  0  0
 13 16  1  0  0  0  0
 17 18  1  0  0  0  0
 17 19  1  0  0  0  0
 17 20  1  0  0  0  0
 20 21  1  0  0  0  0
 20 22  1  0  0  0  0
 20 23  1  0  0  0  0
 24 25  2  0  0  0  0
 24 26  1  0  0  0  0
 26 27  1  0  0  0  0
 26 28  1  0  0  0  0
 28 29  1  0  0  0  0
 28 30  1  0  0  0  0
 28 31  1  0  0  0  0
M  END
$$$$

  -OEChem-01062216083D

 31 30  0     1  0  0  0  0  0999 V2000
   -3.2370   -3.0098    1.5415 H   0  0  0  0  0  0  0  0  0  0  0  0
   -3.2395   -1.9792    1.1749 C   0  0  0  0  0  0  0  0  0  0  0  0
   -3.7288   -1.3447    1.9178 H   0  0  0  0  0  0  0  0  0  0  0  0
   -3.8044   -1.9398    0.2406 H   0  0  0  0  0  0  0  0  0  0  0  0
   -1.8174   -1.5047    0.9432 C   0  0  0  0  0  0  0  0  0  0  0  0
   -0.8933   -2.2776    1.1165 O   0  0  0  0  0  0  0  0  0  0  0  0
   -1.5980   -0.2043    0.5236 N   0  0  0  0  0  0  0  0  0  0  0  0
   -2.4215    0.3891    0.4914 H   0  0  0  0  0  0  0  0  0  0  0  0
   -0.2758    0.4641    0.4454 C   0  0  1  0  0  0  0  0  0  0  0  0
   -0.4101    1.4435   -0.0226 H   0  0  0  0  0  0  0  0  0  0  0  0
    0.2364    0.7191    1.9072 C   0  0  1  0  0  0  0  0  0  0  0  0
    0.2719   -0.2317    2.4493 H   0  0  0  0  0  0  0  0  0  0  0  0
    1.6485    1.3477    1.9431 C   0  0  0  0  0  0  0  0  0  0  0  0
    1.7301    2.1534    1.2071 H   0  0  0  0  0  0  0  0  0  0  0  0
    1.8896    1.7560    2.9256 H   0  0  0  0  0  0  0  0  0  0  0  0
    2.4147    0.5976    1.7343 H   0  0  0  0  0  0  0  0  0  0  0  0
   -0.7450    1.6868    2.6280 C   0  0  0  0  0  0  0  0  0  0  0  0
   -0.6825    2.6815    2.1742 H   0  0  0  0  0  0  0  0  0  0  0  0
   -1.7721    1.3349    2.5021 H   0  0  0  0  0  0  0  0  0  0  0  0
   -0.5049    1.8039    4.1385 C   0  0  0  0  0  0  0  0  0  0  0  0
    0.4102    2.3584    4.3604 H   0  0  0  0  0  0  0  0  0  0  0  0
   -1.3384    2.3382    4.6041 H   0  0  0  0  0  0  0  0  0  0  0  0
   -0.4352    0.8106    4.5928 H   0  0  0  0  0  0  0  0  0  0  0  0
    0.6607   -0.3118   -0.5319 C   0  0  0  0  0  0  0  0  0  0  0  0
    1.8707   -0.4140   -0.3884 O   0  0  0  0  0  0  0  0  0  0  0  0
    0.1343   -0.7241   -1.7447 N   0  0  0  0  0  0  0  0  0  0  0  0
   -0.8780   -0.7522   -1.7960 H   0  0  0  0  0  0  0  0  0  0  0  0
    0.8998   -1.4910   -2.7208 C   0  0  0  0  0  0  0  0  0  0  0  0
    1.2311   -2.4399   -2.2857 H   0  0  0  0  0  0  0  0  0  0  0  0
    0.2840   -1.7069   -3.5990 H   0  0  0  0  0  0  0  0  0  0  0  0
    1.7798   -0.9273   -3.0485 H   0  0  0  0  0  0  0  0  0  0  0  0
  1  2  1  0  0  0  0
  2  3  1  0  0  0  0
  2  4  1  0  0  0  0
  2  5  1  0  0  0  0
  5  6  2  0  0  0  0
  5  7  1  0  0  0  0
  7  8  1  0  0  0  0
  7  9  1  0  0  0  0
  9 10  1  0  0  0  0
  9 11  1  0  0  0  0
  9 24  1  0  0  0  0
 11 12  1  0  0  0  0
 11 13  1  0  0  0  0
 11 17  1  0  0  0  0
 13 14  1  0  0  0  0
 13 15  1  0  0  0  0
 13 16  1  0  0  0  0
 17 18  1  0  0  0  0
 17 19  1  0  0  0  0
 17 20  1  0  0  0  0
 20 21  1  0  0  0  0
 20 22  1  0  0  0  0
 20 23  1  0  0  0  0
 24 25  2  0  0  0  0
 24 26  1  0  0  0  0
 26 27  1  0  0  0  0
 26 28  1  0  0  0  0
 28 29  1  0  0  0  0
 28 30  1  0  0  0  0
 28 31  1  0  0  0  0
M  END
$$$$

  -OEChem-01062216083D

 31 30  0     1  0  0  0  0  0999 V2000
   -3.2526   -3.0243    1.4785 H   0  0  0  0  0  0  0  0  0  0  0  0
   -3.2482   -1.9970    1.1028 C   0  0  0  0  0  0  0  0  0  0  0  0
   -3.7835   -1.3623    1.8129 H   0  0  0  0  0  0  0  0  0  0  0  0
   -3.7632   -1.9730    0.1396 H   0  0  0  0  0  0  0  0  0  0  0  0
   -1.8212   -1.5072    0.9409 C   0  0  0  0  0  0  0  0  0  0  0  0
   -0.9015   -2.2685    1.1737 O   0  0  0  0  0  0  0  0  0  0  0  0
   -1.5989   -0.2054    0.5271 N   0  0  0  0  0  0  0  0  0  0  0  0
   -2.4283    0.3747    0.4490 H   0  0  0  0  0  0  0  0  0  0  0  0
   -0.2826    0.4729    0.4620 C   0  0  1  0  0  0  0  0  0  0  0  0
   -0.4206    1.4535   -0.0022 H   0  0  0  0  0  0  0  0  0  0  0  0
    0.2457    0.7277    1.9145 C   0  0  1  0  0  0  0  0  0  0  0  0
    0.3105   -0.2241    2.4526 H   0  0  0  0  0  0  0  0  0  0  0  0
    1.6427    1.3943    1.9144 C   0  0  0  0  0  0  0  0  0  0  0  0
    1.6598    2.2507    1.2336 H   0  0  0  0  0  0  0  0  0  0  0  0
    1.9236    1.7416    2.9101 H   0  0  0  0  0  0  0  0  0  0  0  0
    2.4217    0.6923    1.6125 H   0  0  0  0  0  0  0  0  0  0  0  0
   -0.7332    1.6839    2.6513 C   0  0  0  0  0  0  0  0  0  0  0  0
   -0.6903    2.6810    2.2010 H   0  0  0  0  0  0  0  0  0  0  0  0
   -1.7574    1.3186    2.5394 H   0  0  0  0  0  0  0  0  0  0  0  0
   -0.4698    1.7959    4.1581 C   0  0  0  0  0  0  0  0  0  0  0  0
    0.4528    2.3433    4.3668 H   0  0  0  0  0  0  0  0  0  0  0  0
   -1.2925    2.3343    4.6382 H   0  0  0  0  0  0  0  0  0  0  0  0
   -0.3995    0.8007    4.6082 H   0  0  0  0  0  0  0  0  0  0  0  0
    0.6559   -0.3040   -0.5100 C   0  0  0  0  0  0  0  0  0  0  0  0
    1.7666   -0.7212   -0.2140 O   0  0  0  0  0  0  0  0  0  0  0  0
    0.2537   -0.4406   -1.8280 N   0  0  0  0  0  0  0  0  0  0  0  0
   -0.7140   -0.2140   -2.0286 H   0  0  0  0  0  0  0  0  0  0  0  0
    1.0057   -1.2151   -2.8089 C   0  0  0  0  0  0  0  0  0  0  0  0
    1.0794   -2.2614   -2.4940 H   0  0  0  0  0  0  0  0  0  0  0  0
    0.5074   -1.1788   -3.7821 H   0  0  0  0  0  0  0  0  0  0  0  0
    2.0169   -0.8107   -2.9250 H   0  0  0  0  0  0  0  0  0  0  0  0
  1  2  1  0  0  0  0
  2  3  1  0  0  0  0
  2  4  1  0  0  0  0
  2  5  1  0  0  0  0
  5  6  2  0  0  0  0
  5  7  1  0  0  0  0
  7  8  1  0  0  0  0
  7  9  1  0  0  0  0
  9 10  1  0  0  0  0
  9 11  1  0  0  0  0
  9 24  1  0  0  0  0
 11 12  1  0  0  0  0
 11 13  1  0  0  0  0
 11 17  1  0  0  0  0
 13 14  1  0  0  0  0
 13 15  1  0  0  0  0
 13 16  1  0  0  0  0
 17 18  1  0  0  0  0
 17 19  1  0  0  0  0
 17 20  1  0  0  0  0
 20 21  1  0  0  0  0
 20 22  1  0  0  0  0
 20 23  1  0  0  0  0
 24 25  2  0  0  0  0
 24 26  1  0  0  0  0
 26 27  1  0  0  0  0
 26 28  1  0  0  0  0
 28 29  1  0  0  0  0
 28 30  1  0  0  0  0
 28 31  1  0  0  0  0
M  END
$$$$

  -OEChem-01062216083D

 31 30  0     1  0  0  0  0  0999 V2000
   -3.2983   -3.0403    1.4336 H   0  0  0  0  0  0  0  0  0  0  0  0
   -3.2814   -2.0141    1.0553 C   0  0  0  0  0  0  0  0  0  0  0  0
   -3.8641   -1.3821    1.7296 H   0  0  0  0  0  0  0  0  0  0  0  0
   -3.7378   -1.9982    0.0629 H   0  0  0  0  0  0  0  0  0  0  0  0
   -1.8521   -1.5110    0.9772 C   0  0  0  0  0  0  0  0  0  0  0  0
   -0.9461   -2.2531    1.3039 O   0  0  0  0  0  0  0  0  0  0  0  0
   -1.6212   -0.2153    0.5492 N   0  0  0  0  0  0  0  0  0  0  0  0
   -2.4517    0.3411    0.3747 H   0  0  0  0  0  0  0  0  0  0  0  0
   -0.3092    0.4685    0.4756 C   0  0  1  0  0  0  0  0  0  0  0  0
   -0.4558    1.4471    0.0102 H   0  0  0  0  0  0  0  0  0  0  0  0
    0.2420    0.7329    1.9139 C   0  0  1  0  0  0  0  0  0  0  0  0
    0.3252   -0.2174    2.4521 H   0  0  0  0  0  0  0  0  0  0  0  0
    1.6337    1.4075    1.8765 C   0  0  0  0  0  0  0  0  0  0  0  0
    1.5941    2.3389    1.3035 H   0  0  0  0  0  0  0  0  0  0  0  0
    1.9874    1.6346    2.8845 H   0  0  0  0  0  0  0  0  0  0  0  0
    2.3882    0.7594    1.4276 H   0  0  0  0  0  0  0  0  0  0  0  0
   -0.7231    1.6873    2.6678 C   0  0  0  0  0  0  0  0  0  0  0  0
   -0.6927    2.6840    2.2155 H   0  0  0  0  0  0  0  0  0  0  0  0
   -1.7485    1.3185    2.5772 H   0  0  0  0  0  0  0  0  0  0  0  0
   -0.4215    1.7997    4.1665 C   0  0  0  0  0  0  0  0  0  0  0  0
    0.5167    2.3312    4.3462 H   0  0  0  0  0  0  0  0  0  0  0  0
   -1.2220    2.3546    4.6651 H   0  0  0  0  0  0  0  0  0  0  0  0
   -0.3565    0.8052    4.6193 H   0  0  0  0  0  0  0  0  0  0  0  0
    0.6402   -0.3072   -0.4836 C   0  0  0  0  0  0  0  0  0  0  0  0
    1.6134   -0.9499   -0.1142 O   0  0  0  0  0  0  0  0  0  0  0  0
    0.4221   -0.1995   -1.8471 N   0  0  0  0  0  0  0  0  0  0  0  0
   -0.4341    0.2554   -2.1439 H   0  0  0  0  0  0  0  0  0  0  0  0
    1.2147   -0.9185   -2.8381 C   0  0  0  0  0  0  0  0  0  0  0  0
    1.1265   -1.9996   -2.6870 H   0  0  0  0  0  0  0  0  0  0  0  0
    0.8674   -0.6795   -3.8476 H   0  0  0  0  0  0  0  0  0  0  0  0
    2.2705   -0.6375   -2.7616 H   0  0  0  0  0  0  0  0  0  0  0  0
  1  2  1  0  0  0  0
  2  3  1  0  0  0  0
  2  4  1  0  0  0  0
  2  5  1  0  0  0  0
  5  6  2  0  0  0  0
  5  7  1  0  0  0  0
  7  8  1  0  0  0  0
  7  9  1  0  0  0  0
  9 10  1  0  0  0  0
  9 11  1  0  0  0  0
  9 24  1  0  0  0  0
 11 12  1  0  0  0  0
 11 13  1  0  0  0  0
 11 17  1  0  0  0  0
 13 14  1  0  0  0  0
 13 15  1  0  0  0  0
 13 16  1  0  0  0  0
 17 18  1  0  0  0  0
 17 19  1  0  0  0  0
 17 20  1  0  0  0  0
 20 21  1  0  0  0  0
 20 22  1  0  0  0  0
 20 23  1  0  0  0  0
 24 25  2  0  0  0  0
 24 26  1  0  0  0  0
 26 27  1  0  0  0  0
 26 28  1  0  0  0  0
 28 29  1  0  0  0  0
 28 30  1  0  0  0  0
 28 31  1  0  0  0  0
M  END
$$$$

  -OEChem-01062216083D

 31 30  0     1  0  0  0  0  0999 V2000
   -3.3537   -3.0604    1.3974 H   0  0  0  0  0  0  0  0  0  0  0  0
   -3.3251   -2.0378    1.0102 C   0  0  0  0  0  0  0  0  0  0  0  0
   -3.9662   -1.4093    1.6328 H   0  0  0  0  0  0  0  0  0  0  0  0
   -3.7076   -2.0398   -0.0131 H   0  0  0  0  0  0  0  0  0  0  0  0
   -1.9018   -1.5114    1.0323 C   0  0  0  0  0  0  0  0  0  0  0  0
   -1.0197   -2.2207    1.4758 O   0  0  0  0  0  0  0  0  0  0  0  0
   -1.6623   -0.2236    0.5846 N   0  0  0  0  0  0  0  0  0  0  0  0
   -2.4821    0.2886    0.2765 H   0  0  0  0  0  0  0  0  0  0  0  0
   -0.3513    0.4597    0.4890 C   0  0  1  0  0  0  0  0  0  0  0  0
   -0.5113    1.4363    0.0244 H   0  0  0  0  0  0  0  0  0  0  0  0
    0.2341    0.7335    1.9096 C   0  0  1  0  0  0  0  0  0  0  0  0
    0.3272   -0.2128    2.4527 H   0  0  0  0  0  0  0  0  0  0  0  0
    1.6312    1.3897    1.8232 C   0  0  0  0  0  0  0  0  0  0  0  0
    1.5816    2.3288    1.2636 H   0  0  0  0  0  0  0  0  0  0  0  0
    2.0278    1.5993    2.8193 H   0  0  0  0  0  0  0  0  0  0  0  0
    2.3542    0.7338    1.3328 H   0  0  0  0  0  0  0  0  0  0  0  0
   -0.7070    1.6923    2.6841 C   0  0  0  0  0  0  0  0  0  0  0  0
   -0.6885    2.6869    2.2269 H   0  0  0  0  0  0  0  0  0  0  0  0
   -1.7344    1.3228    2.6237 H   0  0  0  0  0  0  0  0  0  0  0  0
   -0.3596    1.8078    4.1721 C   0  0  0  0  0  0  0  0  0  0  0  0
    0.5878    2.3325    4.3203 H   0  0  0  0  0  0  0  0  0  0  0  0
   -1.1408    2.3696    4.6929 H   0  0  0  0  0  0  0  0  0  0  0  0
   -0.2880    0.8145    4.6262 H   0  0  0  0  0  0  0  0  0  0  0  0
    0.6090   -0.3099   -0.4626 C   0  0  0  0  0  0  0  0  0  0  0  0
    1.4400   -1.1207   -0.0776 O   0  0  0  0  0  0  0  0  0  0  0  0
    0.6068    0.0153   -1.8090 N   0  0  0  0  0  0  0  0  0  0  0  0
   -0.0952    0.6709   -2.1340 H   0  0  0  0  0  0  0  0  0  0  0  0
    1.4847   -0.6190   -2.7862 C   0  0  0  0  0  0  0  0  0  0  0  0
    1.3273   -1.7029   -2.7965 H   0  0  0  0  0  0  0  0  0  0  0  0
    1.2794   -0.2304   -3.7882 H   0  0  0  0  0  0  0  0  0  0  0  0
    2.5340   -0.4181   -2.5453 H   0  0  0  0  0  0  0  0  0  0  0  0
  1  2  1  0  0  0  0
  2  3  1  0  0  0  0
  2  4  1  0  0  0  0
  2  5  1  0  0  0  0
  5  6  2  0  0  0  0
  5  7  1  0  0  0  0
  7  8  1  0  0  0  0
  7  9  1  0  0  0  0
  9 10  1  0  0  0  0
  9 11  1  0  0  0  0
  9 24  1  0  0  0  0
 11 12  1  0  0  0  0
 11 13  1  0  0  0  0
 11 17  1  0  0  0  0
 13 14  1  0  0  0  0
 13 15  1  0  0  0  0
 13 16  1  0  0  0  0
 17 18  1  0  0  0  0
 17 19  1  0  0  0  0
 17 20  1  0  0  0  0
 20 21  1  0  0  0  0
 20 22  1  0  0  0  0
 20 23  1  0  0  0  0
 24 25  2  0  0  0  0
 24 26  1  0  0  0  0
 26 27  1  0  0  0  0
 26 28  1  0  0  0  0
 28 29  1  0  0  0  0
 28 30  1  0  0  0  0
 28 31  1  0  0  0  0
M  END
$$$$

  -OEChem-01062216083D

 31 30  0     1  0  0  0  0  0999 V2000
   -3.3547   -3.1166    1.3112 H   0  0  0  0  0  0  0  0  0  0  0  0
   -3.3309   -2.0953    0.9200 C   0  0  0  0  0  0  0  0  0  0  0  0
   -4.0657   -1.4945    1.4608 H   0  0  0  0  0  0  0  0  0  0  0  0
   -3.5953   -2.1205   -0.1397 H   0  0  0  0  0  0  0  0  0  0  0  0
   -1.9454   -1.5019    1.0960 C   0  0  0  0  0  0  0  0  0  0  0  0
   -1.1067   -2.1469    1.6956 O   0  0  0  0  0  0  0  0  0  0  0  0
   -1.7099   -0.2178    0.6332 N   0  0  0  0  0  0  0  0  0  0  0  0
   -2.4983    0.2159    0.1645 H   0  0  0  0  0  0  0  0  0  0  0  0
   -0.3971    0.4589    0.5122 C   0  0  1  0  0  0  0  0  0  0  0  0
   -0.5729    1.4331    0.0488 H   0  0  0  0  0  0  0  0  0  0  0  0
    0.2286    0.7437    1.9122 C   0  0  1  0  0  0  0  0  0  0  0  0
    0.3242   -0.1962    2.4647 H   0  0  0  0  0  0  0  0  0  0  0  0
    1.6364    1.3633    1.7774 C   0  0  0  0  0  0  0  0  0  0  0  0
    1.5940    2.3001    1.2137 H   0  0  0  0  0  0  0  0  0  0  0  0
    2.0693    1.5673    2.7596 H   0  0  0  0  0  0  0  0  0  0  0  0
    2.3221    0.6807    1.2679 H   0  0  0  0  0  0  0  0  0  0  0  0
   -0.6810    1.7152    2.7056 C   0  0  0  0  0  0  0  0  0  0  0  0
   -0.6667    2.7057    2.2394 H   0  0  0  0  0  0  0  0  0  0  0  0
   -1.7127    1.3530    2.6774 H   0  0  0  0  0  0  0  0  0  0  0  0
   -0.2867    1.8404    4.1809 C   0  0  0  0  0  0  0  0  0  0  0  0
    0.6779    2.3423    4.2931 H   0  0  0  0  0  0  0  0  0  0  0  0
   -1.0375    2.4284    4.7173 H   0  0  0  0  0  0  0  0  0  0  0  0
   -0.2267    0.8512    4.6455 H   0  0  0  0  0  0  0  0  0  0  0  0
    0.5649   -0.3016   -0.4428 C   0  0  0  0  0  0  0  0  0  0  0  0
    1.2040   -1.2885   -0.1091 O   0  0  0  0  0  0  0  0  0  0  0  0
    0.7939    0.2126   -1.7086 N   0  0  0  0  0  0  0  0  0  0  0  0
    0.2931    1.0528   -1.9770 H   0  0  0  0  0  0  0  0  0  0  0  0
    1.7378   -0.3761   -2.6521 C   0  0  0  0  0  0  0  0  0  0  0  0
    1.4643   -1.4137   -2.8709 H   0  0  0  0  0  0  0  0  0  0  0  0
    1.7363    0.1864   -3.5904 H   0  0  0  0  0  0  0  0  0  0  0  0
    2.7521   -0.3587   -2.2395 H   0  0  0  0  0  0  0  0  0  0  0  0
  1  2  1  0  0  0  0
  2  3  1  0  0  0  0
  2  4  1  0  0  0  0
  2  5  1  0  0  0  0
  5  6  2  0  0  0  0
  5  7  1  0  0  0  0
  7  8  1  0  0  0  0
  7  9  1  0  0  0  0
  9 10  1  0  0  0  0
  9 11  1  0  0  0  0
  9 24  1  0  0  0  0
 11 12  1  0  0  0  0
 11 13  1  0  0  0  0
 11 17  1  0  0  0  0
 13 14  1  0  0  0  0
 13 15  1  0  0  0  0
 13 16  1  0  0  0  0
 17 18  1  0  0  0  0
 17 19  1  0  0  0  0
 17 20  1  0  0  0  0
 20 21  1  0  0  0  0
 20 22  1  0  0  0  0
 20 23  1  0  0  0  0
 24 25  2  0  0  0  0
 24 26  1  0  0  0  0
 26 27  1  0  0  0  0
 26 28  1  0  0  0  0
 28 29  1  0  0  0  0
 28 30  1  0  0  0  0
 28 31  1  0  0  0  0
M  END
$$$$

  -OEChem-01062216083D

 31 30  0     1  0  0  0  0  0999 V2000
   -3.2869   -3.1734    1.2038 H   0  0  0  0  0  0  0  0  0  0  0  0
   -3.2738   -2.1579    0.7977 C   0  0  0  0  0  0  0  0  0  0  0  0
   -4.1122   -1.5987    1.2194 H   0  0  0  0  0  0  0  0  0  0  0  0
   -3.3878   -2.2145   -0.2874 H   0  0  0  0  0  0  0  0  0  0  0  0
   -1.9649   -1.4743    1.1476 C   0  0  0  0  0  0  0  0  0  0  0  0
   -1.2029   -2.0314    1.9170 O   0  0  0  0  0  0  0  0  0  0  0  0
   -1.7419   -0.1895    0.6777 N   0  0  0  0  0  0  0  0  0  0  0  0
   -2.4764    0.1522    0.0671 H   0  0  0  0  0  0  0  0  0  0  0  0
   -0.4236    0.4766    0.5475 C   0  0  1  0  0  0  0  0  0  0  0  0
   -0.6058    1.4500    0.0846 H   0  0  0  0  0  0  0  0  0  0  0  0
    0.2319    0.7630    1.9327 C   0  0  1  0  0  0  0  0  0  0  0  0
    0.3328   -0.1719    2.4911 H   0  0  0  0  0  0  0  0  0  0  0  0
    1.6449    1.3620    1.7665 C   0  0  0  0  0  0  0  0  0  0  0  0
    1.6058    2.2904    1.1886 H   0  0  0  0  0  0  0  0  0  0  0  0
    2.0959    1.5763    2.7383 H   0  0  0  0  0  0  0  0  0  0  0  0
    2.3121    0.6600    1.2578 H   0  0  0  0  0  0  0  0  0  0  0  0
   -0.6565    1.7453    2.7348 C   0  0  0  0  0  0  0  0  0  0  0  0
   -0.6444    2.7326    2.2618 H   0  0  0  0  0  0  0  0  0  0  0  0
   -1.6909    1.3887    2.7260 H   0  0  0  0  0  0  0  0  0  0  0  0
   -0.2351    1.8762    4.2019 C   0  0  0  0  0  0  0  0  0  0  0  0
    0.7339    2.3733    4.2948 H   0  0  0  0  0  0  0  0  0  0  0  0
   -0.9735    2.4703    4.7485 H   0  0  0  0  0  0  0  0  0  0  0  0
   -0.1721    0.8887    4.6698 H   0  0  0  0  0  0  0  0  0  0  0  0
    0.5358   -0.2820   -0.4109 C   0  0  0  0  0  0  0  0  0  0  0  0
    0.8505   -1.4525   -0.2586 O   0  0  0  0  0  0  0  0  0  0  0  0
    1.0150    0.3713   -1.5345 N   0  0  0  0  0  0  0  0  0  0  0  0
    0.7913    1.3553   -1.6399 H   0  0  0  0  0  0  0  0  0  0  0  0
    1.9354   -0.2447   -2.4840 C   0  0  0  0  0  0  0  0  0  0  0  0
    1.4964   -1.1529   -2.9106 H   0  0  0  0  0  0  0  0  0  0  0  0
    2.1556    0.4478   -3.3020 H   0  0  0  0  0  0  0  0  0  0  0  0
    2.8762   -0.5079   -1.9890 H   0  0  0  0  0  0  0  0  0  0  0  0
  1  2  1  0  0  0  0
  2  3  1  0  0  0  0
  2  4  1  0  0  0  0
  2  5  1  0  0  0  0
  5  6  2  0  0  0  0
  5  7  1  0  0  0  0
  7  8  1  0  0  0  0
  7  9  1  0  0  0  0
  9 10  1  0  0  0  0
  9 11  1  0  0  0  0
  9 24  1  0  0  0  0
 11 12  1  0  0  0  0
 11 13  1  0  0  0  0
 11 17  1  0  0  0  0
 13 14  1  0  0  0  0
 13 15  1  0  0  0  0
 13 16  1  0  0  0  0
 17 18  1  0  0  0  0
 17 19  1  0  0  0  0
 17 20  1  0  0  0  0
 20 21  1  0  0  0  0
 20 22  1  0  0  0  0
 20 23  1  0  0  0  0
 24 25  2  0  0  0  0
 24 26  1  0  0  0  0
 26 27  1  0  0  0  0
 26 28  1  0  0  0  0
 28 29  1  0  0  0  0
 28 30  1  0  0  0  0
 28 31  1  0  0  0  0
M  END
$$$$

  -OEChem-01062216083D

 31 30  0     1  0  0  0  0  0999 V2000
   -3.2528   -3.1854    1.2090 H   0  0  0  0  0  0  0  0  0  0  0  0
   -3.2296   -2.1846    0.7686 C   0  0  0  0  0  0  0  0  0  0  0  0
   -4.0974   -1.6232    1.1222 H   0  0  0  0  0  0  0  0  0  0  0  0
   -3.2796   -2.2802   -0.3187 H   0  0  0  0  0  0  0  0  0  0  0  0
   -1.9509   -1.4706    1.1650 C   0  0  0  0  0  0  0  0  0  0  0  0
   -1.2017   -2.0056    1.9643 O   0  0  0  0  0  0  0  0  0  0  0  0
   -1.7348   -0.1842    0.6953 N   0  0  0  0  0  0  0  0  0  0  0  0
   -2.4432    0.1241    0.0379 H   0  0  0  0  0  0  0  0  0  0  0  0
   -0.4107    0.4718    0.5678 C   0  0  1  0  0  0  0  0  0  0  0  0
   -0.5912    1.4409    0.0951 H   0  0  0  0  0  0  0  0  0  0  0  0
    0.2349    0.7699    1.9575 C   0  0  1  0  0  0  0  0  0  0  0  0
    0.3200   -0.1582    2.5290 H   0  0  0  0  0  0  0  0  0  0  0  0
    1.6565    1.3513    1.8103 C   0  0  0  0  0  0  0  0  0  0  0  0
    1.6395    2.2706    1.2172 H   0  0  0  0  0  0  0  0  0  0  0  0
    2.0901    1.5772    2.7874 H   0  0  0  0  0  0  0  0  0  0  0  0
    2.3250    0.6322    1.3279 H   0  0  0  0  0  0  0  0  0  0  0  0
   -0.6562    1.7676    2.7381 C   0  0  0  0  0  0  0  0  0  0  0  0
   -0.6328    2.7487    2.2534 H   0  0  0  0  0  0  0  0  0  0  0  0
   -1.6926    1.4170    2.7224 H   0  0  0  0  0  0  0  0  0  0  0  0
   -0.2518    1.9166    4.2083 C   0  0  0  0  0  0  0  0  0  0  0  0
    0.7144    2.4185    4.3058 H   0  0  0  0  0  0  0  0  0  0  0  0
   -0.9978    2.5157    4.7391 H   0  0  0  0  0  0  0  0  0  0  0  0
   -0.1909    0.9352    4.6894 H   0  0  0  0  0  0  0  0  0  0  0  0
    0.5523   -0.2861   -0.3909 C   0  0  0  0  0  0  0  0  0  0  0  0
    0.5407   -1.5014   -0.5264 O   0  0  0  0  0  0  0  0  0  0  0  0
    1.2811    0.4436   -1.3165 N   0  0  0  0  0  0  0  0  0  0  0  0
    1.2960    1.4530   -1.2120 H   0  0  0  0  0  0  0  0  0  0  0  0
    2.1432   -0.1695   -2.3211 C   0  0  0  0  0  0  0  0  0  0  0  0
    1.5590   -0.8159   -2.9847 H   0  0  0  0  0  0  0  0  0  0  0  0
    2.6254    0.6023   -2.9287 H   0  0  0  0  0  0  0  0  0  0  0  0
    2.9233   -0.7704   -1.8416 H   0  0  0  0  0  0  0  0  0  0  0  0
  1  2  1  0  0  0  0
  2  3  1  0  0  0  0
  2  4  1  0  0  0  0
  2  5  1  0  0  0  0
  5  6  2  0  0  0  0
  5  7  1  0  0  0  0
  7  8  1  0  0  0  0
  7  9  1  0  0  0  0
  9 10  1  0  0  0  0
  9 11  1  0  0  0  0
  9 24  1  0  0  0  0
 11 12  1  0  0  0  0
 11 13  1  0  0  0  0
 11 17  1  0  0  0  0
 13 14  1  0  0  0  0
 13 15  1  0  0  0  0
 13 16  1  0  0  0  0
 17 18  1  0  0  0  0
 17 19  1  0  0  0  0
 17 20  1  0  0  0  0
 20 21  1  0  0  0  0
 20 22  1  0  0  0  0
 20 23  1  0  0  0  0
 24 25  2  0  0  0  0
 24 26  1  0  0  0  0
 26 27  1  0  0  0  0
 26 28  1  0  0  0  0
 28 29  1  0  0  0  0
 28 30  1  0  0  0  0
 28 31  1  0  0  0  0
M  END
$$$$

  -OEChem-01062216083D

 31 30  0     1  0  0  0  0  0999 V2000
   -3.2319   -3.1795    1.2406 H   0  0  0  0  0  0  0  0  0  0  0  0
   -3.2208   -2.1748    0.8088 C   0  0  0  0  0  0  0  0  0  0  0  0
   -4.0692   -1.6113    1.2040 H   0  0  0  0  0  0  0  0  0  0  0  0
   -3.3175   -2.2595   -0.2762 H   0  0  0  0  0  0  0  0  0  0  0  0
   -1.9220   -1.4722    1.1570 C   0  0  0  0  0  0  0  0  0  0  0  0
   -1.1303   -2.0300    1.8989 O   0  0  0  0  0  0  0  0  0  0  0  0
   -1.7147   -0.1825    0.6923 N   0  0  0  0  0  0  0  0  0  0  0  0
   -2.4277    0.1301    0.0418 H   0  0  0  0  0  0  0  0  0  0  0  0
   -0.3898    0.4721    0.5641 C   0  0  1  0  0  0  0  0  0  0  0  0
   -0.5638    1.4408    0.0871 H   0  0  0  0  0  0  0  0  0  0  0  0
    0.2341    0.7712    1.9673 C   0  0  1  0  0  0  0  0  0  0  0  0
    0.3040   -0.1547    2.5436 H   0  0  0  0  0  0  0  0  0  0  0  0
    1.6608    1.3468    1.8615 C   0  0  0  0  0  0  0  0  0  0  0  0
    1.6679    2.2551    1.2512 H   0  0  0  0  0  0  0  0  0  0  0  0
    2.0615    1.5904    2.8483 H   0  0  0  0  0  0  0  0  0  0  0  0
    2.3425    0.6141    1.4202 H   0  0  0  0  0  0  0  0  0  0  0  0
   -0.6720    1.7709    2.7297 C   0  0  0  0  0  0  0  0  0  0  0  0
   -0.6402    2.7504    2.2420 H   0  0  0  0  0  0  0  0  0  0  0  0
   -1.7079    1.4209    2.6962 H   0  0  0  0  0  0  0  0  0  0  0  0
   -0.2976    1.9247    4.2078 C   0  0  0  0  0  0  0  0  0  0  0  0
    0.6632    2.4326    4.3248 H   0  0  0  0  0  0  0  0  0  0  0  0
   -1.0576    2.5197    4.7232 H   0  0  0  0  0  0  0  0  0  0  0  0
   -0.2408    0.9441    4.6910 H   0  0  0  0  0  0  0  0  0  0  0  0
    0.5657   -0.2890   -0.4035 C   0  0  0  0  0  0  0  0  0  0  0  0
    0.3301   -1.4235   -0.8002 O   0  0  0  0  0  0  0  0  0  0  0  0
    1.5198    0.4263   -1.1100 N   0  0  0  0  0  0  0  0  0  0  0  0
    1.7182    1.3710   -0.7967 H   0  0  0  0  0  0  0  0  0  0  0  0
    2.3827   -0.1692   -2.1243 C   0  0  0  0  0  0  0  0  0  0  0  0
    1.7855   -0.5599   -2.9550 H   0  0  0  0  0  0  0  0  0  0  0  0
    3.0741    0.5807   -2.5201 H   0  0  0  0  0  0  0  0  0  0  0  0
    2.9689   -0.9887   -1.6952 H   0  0  0  0  0  0  0  0  0  0  0  0
  1  2  1  0  0  0  0
  2  3  1  0  0  0  0
  2  4  1  0  0  0  0
  2  5  1  0  0  0  0
  5  6  2  0  0  0  0
  5  7  1  0  0  0  0
  7  8  1  0  0  0  0
  7  9  1  0  0  0  0
  9 10  1  0  0  0  0
  9 11  1  0  0  0  0
  9 24  1  0  0  0  0
 11 12  1  0  0  0  0
 11 13  1  0  0  0  0
 11 17  1  0  0  0  0
 13 14  1  0  0  0  0
 13 15  1  0  0  0  0
 13 16  1  0  0  0  0
 17 18  1  0  0  0  0
 17 19  1  0  0  0  0
 17 20  1  0  0  0  0
 20 21  1  0  0  0  0
 20 22  1  0  0  0  0
 20 23  1  0  0  0  0
 24 25  2  0  0  0  0
 24 26  1  0  0  0  0
 26 27  1  0  0  0  0
 26 28  1  0  0  0  0
 28 29  1  0  0  0  0
 28 30  1  0  0  0  0
 28 31  1  0  0  0  0
M  END
$$$$

  -OEChem-01062216083D

 31 30  0     1  0  0  0  0  0999 V2000
   -3.1855   -3.1815    1.2374 H   0  0  0  0  0  0  0  0  0  0  0  0
   -3.1890   -2.1688    0.8246 C   0  0  0  0  0  0  0  0  0  0  0  0
   -4.0261   -1.6149    1.2555 H   0  0  0  0  0  0  0  0  0  0  0  0
   -3.3181   -2.2331   -0.2586 H   0  0  0  0  0  0  0  0  0  0  0  0
   -1.8812   -1.4699    1.1459 C   0  0  0  0  0  0  0  0  0  0  0  0
   -1.0490   -2.0519    1.8229 O   0  0  0  0  0  0  0  0  0  0  0  0
   -1.6880   -0.1723    0.6978 N   0  0  0  0  0  0  0  0  0  0  0  0
   -2.4084    0.1477    0.0588 H   0  0  0  0  0  0  0  0  0  0  0  0
   -0.3653    0.4869    0.5709 C   0  0  1  0  0  0  0  0  0  0  0  0
   -0.5338    1.4576    0.0964 H   0  0  0  0  0  0  0  0  0  0  0  0
    0.2352    0.7832    1.9896 C   0  0  1  0  0  0  0  0  0  0  0  0
    0.2898   -0.1440    2.5654 H   0  0  0  0  0  0  0  0  0  0  0  0
    1.6637    1.3590    1.9308 C   0  0  0  0  0  0  0  0  0  0  0  0
    1.6991    2.2437    1.2878 H   0  0  0  0  0  0  0  0  0  0  0  0
    2.0189    1.6413    2.9242 H   0  0  0  0  0  0  0  0  0  0  0  0
    2.3649    0.6091    1.5549 H   0  0  0  0  0  0  0  0  0  0  0  0
   -0.6925    1.7781    2.7361 C   0  0  0  0  0  0  0  0  0  0  0  0
   -0.6546    2.7585    2.2506 H   0  0  0  0  0  0  0  0  0  0  0  0
   -1.7263    1.4248    2.6805 H   0  0  0  0  0  0  0  0  0  0  0  0
   -0.3546    1.9355    4.2230 C   0  0  0  0  0  0  0  0  0  0  0  0
    0.5941    2.4594    4.3651 H   0  0  0  0  0  0  0  0  0  0  0  0
   -1.1363    2.5179    4.7200 H   0  0  0  0  0  0  0  0  0  0  0  0
   -0.2941    0.9554    4.7066 H   0  0  0  0  0  0  0  0  0  0  0  0
    0.5685   -0.2784   -0.4185 C   0  0  0  0  0  0  0  0  0  0  0  0
    0.1768   -1.2688   -1.0261 O   0  0  0  0  0  0  0  0  0  0  0  0
    1.7140    0.3250   -0.9117 N   0  0  0  0  0  0  0  0  0  0  0  0
    2.0419    1.1558   -0.4301 H   0  0  0  0  0  0  0  0  0  0  0  0
    2.5724   -0.2808   -1.9239 C   0  0  0  0  0  0  0  0  0  0  0  0
    2.0229   -0.4170   -2.8613 H   0  0  0  0  0  0  0  0  0  0  0  0
    3.4363    0.3614   -2.1206 H   0  0  0  0  0  0  0  0  0  0  0  0
    2.9365   -1.2562   -1.5840 H   0  0  0  0  0  0  0  0  0  0  0  0
  1  2  1  0  0  0  0
  2  3  1  0  0  0  0
  2  4  1  0  0  0  0
  2  5  1  0  0  0  0
  5  6  2  0  0  0  0
  5  7  1  0  0  0  0
  7  8  1  0  0  0  0
  7  9  1  0  0  0  0
  9 10  1  0  0  0  0
  9 11  1  0  0  0  0
  9 24  1  0  0  0  0
 11 12  1  0  0  0  0
 11 13  1  0  0  0  0
 11 17  1  0  0  0  0
 13 14  1  0  0  0  0
 13 15  1  0  0  0  0
 13 16  1  0  0  0  0
 17 18  1  0  0  0  0
 17 19  1  0  0  0  0
 17 20  1  0  0  0  0
 20 21  1  0  0  0  0
 20 22  1  0  0  0  0
 20 23  1  0  0  0  0
 24 25  2  0  0  0  0
 24 26  1  0  0  0  0
 26 27  1  0  0  0  0
 26 28  1  0  0  0  0
 28 29  1  0  0  0  0
 28 30  1  0  0  0  0
 28 31  1  0  0  0  0
M  END
$$$$

  -OEChem-01062216083D

 31 30  0     1  0  0  0  0  0999 V2000
   -3.2488   -3.1644    1.1385 H   0  0  0  0  0  0  0  0  0  0  0  0
   -3.2233   -2.1262    0.7955 C   0  0  0  0  0  0  0  0  0  0  0  0
   -3.9868   -1.5589    1.3328 H   0  0  0  0  0  0  0  0  0  0  0  0
   -3.4448   -2.1048   -0.2744 H   0  0  0  0  0  0  0  0  0  0  0  0
   -1.8537   -1.5245    1.0493 C   0  0  0  0  0  0  0  0  0  0  0  0
   -0.9885   -2.2250    1.5475 O   0  0  0  0  0  0  0  0  0  0  0  0
   -1.6298   -0.2099    0.6753 N   0  0  0  0  0  0  0  0  0  0  0  0
   -2.3637    0.1780    0.0906 H   0  0  0  0  0  0  0  0  0  0  0  0
   -0.3112    0.4658    0.5947 C   0  0  1  0  0  0  0  0  0  0  0  0
   -0.5069    1.5222    0.3899 H   0  0  0  0  0  0  0  0  0  0  0  0
    0.4545    0.4376    1.9684 C   0  0  1  0  0  0  0  0  0  0  0  0
    0.5783   -0.5896    2.3157 H   0  0  0  0  0  0  0  0  0  0  0  0
    1.8679    1.0487    1.8898 C   0  0  0  0  0  0  0  0  0  0  0  0
    1.8437    2.0203    1.3866 H   0  0  0  0  0  0  0  0  0  0  0  0
    2.3005    1.1890    2.8824 H   0  0  0  0  0  0  0  0  0  0  0  0
    2.5449    0.3768    1.3561 H   0  0  0  0  0  0  0  0  0  0  0  0
   -0.3807    1.2295    3.0105 C   0  0  0  0  0  0  0  0  0  0  0  0
   -0.3871    2.2933    2.7516 H   0  0  0  0  0  0  0  0  0  0  0  0
   -1.4171    0.8806    2.9839 H   0  0  0  0  0  0  0  0  0  0  0  0
    0.1067    1.0630    4.4548 C   0  0  0  0  0  0  0  0  0  0  0  0
    1.0614    1.5688    4.6187 H   0  0  0  0  0  0  0  0  0  0  0  0
   -0.6243    1.4985    5.1426 H   0  0  0  0  0  0  0  0  0  0  0  0
    0.2207    0.0022    4.6992 H   0  0  0  0  0  0  0  0  0  0  0  0
    0.4390   -0.0355   -0.6796 C   0  0  0  0  0  0  0  0  0  0  0  0
   -0.1669   -0.6722   -1.5364 O   0  0  0  0  0  0  0  0  0  0  0  0
    1.7005    0.4147   -1.0296 N   0  0  0  0  0  0  0  0  0  0  0  0
    2.2104    0.9508   -0.3355 H   0  0  0  0  0  0  0  0  0  0  0  0
    2.3920    0.0122   -2.2498 C   0  0  0  0  0  0  0  0  0  0  0  0
    1.8209    0.3166   -3.1333 H   0  0  0  0  0  0  0  0  0  0  0  0
    3.3784    0.4831   -2.2986 H   0  0  0  0  0  0  0  0  0  0  0  0
    2.5260   -1.0745   -2.2735 H   0  0  0  0  0  0  0  0  0  0  0  0
  1  2  1  0  0  0  0
  2  3  1  0  0  0  0
  2  4  1  0  0  0  0
  2  5  1  0  0  0  0
  5  6  2  0  0  0  0
  5  7  1  0  0  0  0
  7  8  1  0  0  0  0
  7  9  1  0  0  0  0
  9 10  1  0  0  0  0
  9 11  1  0  0  0  0
  9 24  1  0  0  0  0
 11 12  1  0  0  0  0
 11 13  1  0  0  0  0
 11 17  1  0  0  0  0
 13 14  1  0  0  0  0
 13 15  1  0  0  0  0
 13 16  1  0  0  0  0
 17 18  1  0  0  0  0
 17 19  1  0  0  0  0
 17 20  1  0  0  0  0
 20 21  1  0  0  0  0
 20 22  1  0  0  0  0
 20 23  1  0  0  0  0
 24 25  2  0  0  0  0
 24 26  1  0  0  0  0
 26 27  1  0  0  0  0
 26 28  1  0  0  0  0
 28 29  1  0  0  0  0
 28 30  1  0  0  0  0
 28 31  1  0  0  0  0
M  END
$$$$

  -OEChem-01062216083D

 31 30  0     1  0  0  0  0  0999 V2000
   -3.2122   -3.1683    1.1264 H   0  0  0  0  0  0  0  0  0  0  0  0
   -3.1937   -2.1255    0.7977 C   0  0  0  0  0  0  0  0  0  0  0  0
   -3.9465   -1.5660    1.3577 H   0  0  0  0  0  0  0  0  0  0  0  0
   -3.4365   -2.0887   -0.2671 H   0  0  0  0  0  0  0  0  0  0  0  0
   -1.8200   -1.5263    1.0336 C   0  0  0  0  0  0  0  0  0  0  0  0
   -0.9392   -2.2333    1.4945 O   0  0  0  0  0  0  0  0  0  0  0  0
   -1.6013   -0.2076    0.6745 N   0  0  0  0  0  0  0  0  0  0  0  0
   -2.3327    0.1864    0.0901 H   0  0  0  0  0  0  0  0  0  0  0  0
   -0.2844    0.4712    0.6112 C   0  0  1  0  0  0  0  0  0  0  0  0
   -0.4760    1.5282    0.4053 H   0  0  0  0  0  0  0  0  0  0  0  0
    0.4597    0.4438    1.9975 C   0  0  1  0  0  0  0  0  0  0  0  0
    0.5825   -0.5819    2.3506 H   0  0  0  0  0  0  0  0  0  0  0  0
    1.8679    1.0729    1.9411 C   0  0  0  0  0  0  0  0  0  0  0  0
    1.8597    1.9910    1.3453 H   0  0  0  0  0  0  0  0  0  0  0  0
    2.2439    1.3195    2.9355 H   0  0  0  0  0  0  0  0  0  0  0  0
    2.5838    0.3656    1.5158 H   0  0  0  0  0  0  0  0  0  0  0  0
   -0.3994    1.2347    3.0220 C   0  0  0  0  0  0  0  0  0  0  0  0
   -0.4034    2.2980    2.7605 H   0  0  0  0  0  0  0  0  0  0  0  0
   -1.4343    0.8834    2.9752 H   0  0  0  0  0  0  0  0  0  0  0  0
    0.0576    1.0732    4.4774 C   0  0  0  0  0  0  0  0  0  0  0  0
    1.0011    1.5908    4.6657 H   0  0  0  0  0  0  0  0  0  0  0  0
   -0.6949    1.4976    5.1490 H   0  0  0  0  0  0  0  0  0  0  0  0
    0.1798    0.0136    4.7232 H   0  0  0  0  0  0  0  0  0  0  0  0
    0.4552   -0.0322   -0.6686 C   0  0  0  0  0  0  0  0  0  0  0  0
   -0.2101   -0.4429   -1.6154 O   0  0  0  0  0  0  0  0  0  0  0  0
    1.8074    0.1460   -0.9017 N   0  0  0  0  0  0  0  0  0  0  0  0
    2.3706    0.4840   -0.1300 H   0  0  0  0  0  0  0  0  0  0  0  0
    2.4809   -0.2847   -2.1221 C   0  0  0  0  0  0  0  0  0  0  0  0
    2.0515    0.2171   -2.9956 H   0  0  0  0  0  0  0  0  0  0  0  0
    3.5458   -0.0388   -2.0728 H   0  0  0  0  0  0  0  0  0  0  0  0
    2.3811   -1.3674   -2.2529 H   0  0  0  0  0  0  0  0  0  0  0  0
  1  2  1  0  0  0  0
  2  3  1  0  0  0  0
  2  4  1  0  0  0  0
  2  5  1  0  0  0  0
  5  6  2  0  0  0  0
  5  7  1  0  0  0  0
  7  8  1  0  0  0  0
  7  9  1  0  0  0  0
  9 10  1  0  0  0  0
  9 11  1  0  0  0  0
  9 24  1  0  0  0  0
 11 12  1  0  0  0  0
 11 13  1  0  0  0  0
 11 17  1  0  0  0  0
 13 14  1  0  0  0  0
 13 15  1  0  0  0  0
 13 16  1  0  0  0  0
 17 18  1  0  0  0  0
 17 19  1  0  0  0  0
 17 20  1  0  0  0  0
 20 21  1  0  0  0  0
 20 22  1  0  0  0  0
 20 23  1  0  0  0  0
 24 25  2  0  0  0  0
 24 26  1  0  0  0  0
 26 27  1  0  0  0  0
 26 28  1  0  0  0  0
 28 29  1  0  0  0  0
 28 30  1  0  0  0  0
 28 31  1  0  0  0  0
M  END
$$$$

  -OEChem-01062216083D

 31 30  0     1  0  0  0  0  0999 V2000
   -2.9646   -3.2554    0.8841 H   0  0  0  0  0  0  0  0  0  0  0  0
   -3.0584   -2.1837    0.6872 C   0  0  0  0  0  0  0  0  0  0  0  0
   -3.7486   -1.7515    1.4154 H   0  0  0  0  0  0  0  0  0  0  0  0
   -3.4639   -2.0447   -0.3179 H   0  0  0  0  0  0  0  0  0  0  0  0
   -1.7027   -1.5116    0.7947 C   0  0  0  0  0  0  0  0  0  0  0  0
   -0.7093   -2.1960    0.9816 O   0  0  0  0  0  0  0  0  0  0  0  0
   -1.6112   -0.1460    0.5992 N   0  0  0  0  0  0  0  0  0  0  0  0
   -2.4421    0.2964    0.2165 H   0  0  0  0  0  0  0  0  0  0  0  0
   -0.3520    0.6276    0.5308 C   0  0  1  0  0  0  0  0  0  0  0  0
   -0.6172    1.6871    0.4649 H   0  0  0  0  0  0  0  0  0  0  0  0
    0.5236    0.5027    1.8247 C   0  0  1  0  0  0  0  0  0  0  0  0
    0.7889   -0.5385    2.0226 H   0  0  0  0  0  0  0  0  0  0  0  0
    1.8153    1.3504    1.7299 C   0  0  0  0  0  0  0  0  0  0  0  0
    1.5718    2.3995    1.5340 H   0  0  0  0  0  0  0  0  0  0  0  0
    2.4831    1.0085    0.9440 H   0  0  0  0  0  0  0  0  0  0  0  0
    2.3881    1.2956    2.6584 H   0  0  0  0  0  0  0  0  0  0  0  0
   -0.2825    1.0928    3.0144 C   0  0  0  0  0  0  0  0  0  0  0  0
   -0.3998    2.1750    2.8947 H   0  0  0  0  0  0  0  0  0  0  0  0
   -1.2858    0.6570    3.0210 H   0  0  0  0  0  0  0  0  0  0  0  0
    0.3391    0.7963    4.3845 C   0  0  0  0  0  0  0  0  0  0  0  0
    1.2701    1.3495    4.5315 H   0  0  0  0  0  0  0  0  0  0  0  0
   -0.3544    1.0924    5.1774 H   0  0  0  0  0  0  0  0  0  0  0  0
    0.5433   -0.2740    4.4868 H   0  0  0  0  0  0  0  0  0  0  0  0
    0.2408    0.2934   -0.8728 C   0  0  0  0  0  0  0  0  0  0  0  0
   -0.4733    0.4862   -1.8483 O   0  0  0  0  0  0  0  0  0  0  0  0
    1.5578    0.2425   -1.2585 N   0  0  0  0  0  0  0  0  0  0  0  0
    1.6195    0.4117   -2.2594 H   0  0  0  0  0  0  0  0  0  0  0  0
    2.3581   -0.8887   -0.7991 C   0  0  0  0  0  0  0  0  0  0  0  0
    2.2532   -1.7281   -1.4942 H   0  0  0  0  0  0  0  0  0  0  0  0
    3.4144   -0.6068   -0.7486 H   0  0  0  0  0  0  0  0  0  0  0  0
    2.0459   -1.2326    0.1918 H   0  0  0  0  0  0  0  0  0  0  0  0
  1  2  1  0  0  0  0
  2  3  1  0  0  0  0
  2  4  1  0  0  0  0
  2  5  1  0  0  0  0
  5  6  2  0  0  0  0
  5  7  1  0  0  0  0
  7  8  1  0  0  0  0
  7  9  1  0  0  0  0
  9 10  1  0  0  0  0
  9 11  1  0  0  0  0
  9 24  1  0  0  0  0
 11 12  1  0  0  0  0
 11 13  1  0  0  0  0
 11 17  1  0  0  0  0
 13 14  1  0  0  0  0
 13 15  1  0  0  0  0
 13 16  1  0  0  0  0
 17 18  1  0  0  0  0
 17 19  1  0  0  0  0
 17 20  1  0  0  0  0
 20 21  1  0  0  0  0
 20 22  1  0  0  0  0
 20 23  1  0  0  0  0
 24 25  2  0  0  0  0
 24 26  1  0  0  0  0
 26 27  1  0  0  0  0
 26 28  1  0  0  0  0
 28 29  1  0  0  0  0
 28 30  1  0  0  0  0
 28 31  1  0  0  0  0
M  END
$$$$

  -OEChem-01062216083D

 31 30  0     1  0  0  0  0  0999 V2000
   -3.2232   -3.1258    1.1483 H   0  0  0  0  0  0  0  0  0  0  0  0
   -3.1979   -2.0862    0.8098 C   0  0  0  0  0  0  0  0  0  0  0  0
   -3.9266   -1.5108    1.3856 H   0  0  0  0  0  0  0  0  0  0  0  0
   -3.4702   -2.0539   -0.2481 H   0  0  0  0  0  0  0  0  0  0  0  0
   -1.8098   -1.5060    1.0037 C   0  0  0  0  0  0  0  0  0  0  0  0
   -0.9180   -2.2207    1.4317 O   0  0  0  0  0  0  0  0  0  0  0  0
   -1.5754   -0.1938    0.6365 N   0  0  0  0  0  0  0  0  0  0  0  0
   -2.3094    0.2339    0.0788 H   0  0  0  0  0  0  0  0  0  0  0  0
   -0.2550    0.4729    0.6141 C   0  0  1  0  0  0  0  0  0  0  0  0
   -0.4269    1.5288    0.3845 H   0  0  0  0  0  0  0  0  0  0  0  0
    0.4736    0.4596    2.0041 C   0  0  1  0  0  0  0  0  0  0  0  0
    0.6144   -0.5620    2.3660 H   0  0  0  0  0  0  0  0  0  0  0  0
    1.8575    1.1497    1.9361 C   0  0  0  0  0  0  0  0  0  0  0  0
    1.7947    2.0812    1.3646 H   0  0  0  0  0  0  0  0  0  0  0  0
    2.6071    0.5048    1.4770 H   0  0  0  0  0  0  0  0  0  0  0  0
    2.2383    1.3873    2.9309 H   0  0  0  0  0  0  0  0  0  0  0  0
   -0.3986    1.2611    3.0082 C   0  0  0  0  0  0  0  0  0  0  0  0
   -0.4045    2.3216    2.7356 H   0  0  0  0  0  0  0  0  0  0  0  0
   -1.4312    0.9045    2.9529 H   0  0  0  0  0  0  0  0  0  0  0  0
    0.0423    1.1152    4.4698 C   0  0  0  0  0  0  0  0  0  0  0  0
    0.9832    1.6363    4.6624 H   0  0  0  0  0  0  0  0  0  0  0  0
   -0.7180    1.5459    5.1283 H   0  0  0  0  0  0  0  0  0  0  0  0
    0.1633    0.0586    4.7286 H   0  0  0  0  0  0  0  0  0  0  0  0
    0.4871   -0.0763   -0.6369 C   0  0  0  0  0  0  0  0  0  0  0  0
   -0.0970   -0.0311   -1.7151 O   0  0  0  0  0  0  0  0  0  0  0  0
    1.8053   -0.4906   -0.6384 N   0  0  0  0  0  0  0  0  0  0  0  0
    2.2054   -0.6916    0.2730 H   0  0  0  0  0  0  0  0  0  0  0  0
    2.4676   -1.0355   -1.8173 C   0  0  0  0  0  0  0  0  0  0  0  0
    2.4564   -0.3068   -2.6347 H   0  0  0  0  0  0  0  0  0  0  0  0
    3.5098   -1.2767   -1.5868 H   0  0  0  0  0  0  0  0  0  0  0  0
    1.9647   -1.9491   -2.1515 H   0  0  0  0  0  0  0  0  0  0  0  0
  1  2  1  0  0  0  0
  2  3  1  0  0  0  0
  2  4  1  0  0  0  0
  2  5  1  0  0  0  0
  5  6  2  0  0  0  0
  5  7  1  0  0  0  0
  7  8  1  0  0  0  0
  7  9  1  0  0  0  0
  9 10  1  0  0  0  0
  9 11  1  0  0  0  0
  9 24  1  0  0  0  0
 11 12  1  0  0  0  0
 11 13  1  0  0  0  0
 11 17  1  0  0  0  0
 13 14  1  0  0  0  0
 13 15  1  0  0  0  0
 13 16  1  0  0  0  0
 17 18  1  0  0  0  0
 17 19  1  0  0  0  0
 17 20  1  0  0  0  0
 20 21  1  0  0  0  0
 20 22  1  0  0  0  0
 20 23  1  0  0  0  0
 24 25  2  0  0  0  0
 24 26  1  0  0  0  0
 26 27  1  0  0  0  0
 26 28  1  0  0  0  0
 28 29  1  0  0  0  0
 28 30  1  0  0  0  0
 28 31  1  0  0  0  0
M  END
$$$$

  -OEChem-01062216083D

 31 30  0     1  0  0  0  0  0999 V2000
   -3.2012   -3.1451    1.1623 H   0  0  0  0  0  0  0  0  0  0  0  0
   -3.1895   -2.1051    0.8243 C   0  0  0  0  0  0  0  0  0  0  0  0
   -3.9048   -1.5336    1.4206 H   0  0  0  0  0  0  0  0  0  0  0  0
   -3.4912   -2.0731   -0.2254 H   0  0  0  0  0  0  0  0  0  0  0  0
   -1.7989   -1.5194    0.9811 C   0  0  0  0  0  0  0  0  0  0  0  0
   -0.8902   -2.2306    1.3790 O   0  0  0  0  0  0  0  0  0  0  0  0
   -1.5767   -0.2057    0.6123 N   0  0  0  0  0  0  0  0  0  0  0  0
   -2.3317    0.2388    0.0975 H   0  0  0  0  0  0  0  0  0  0  0  0
   -0.2673    0.4804    0.6043 C   0  0  1  0  0  0  0  0  0  0  0  0
   -0.4491    1.5357    0.3773 H   0  0  0  0  0  0  0  0  0  0  0  0
    0.4699    0.4630    1.9854 C   0  0  1  0  0  0  0  0  0  0  0  0
    0.6390   -0.5613    2.3268 H   0  0  0  0  0  0  0  0  0  0  0  0
    1.8332    1.1918    1.9070 C   0  0  0  0  0  0  0  0  0  0  0  0
    1.7041    2.2025    1.5068 H   0  0  0  0  0  0  0  0  0  0  0  0
    2.2961    1.2688    2.8933 H   0  0  0  0  0  0  0  0  0  0  0  0
    2.5481    0.6630    1.2770 H   0  0  0  0  0  0  0  0  0  0  0  0
   -0.4004    1.2330    3.0130 C   0  0  0  0  0  0  0  0  0  0  0  0
   -0.4302    2.2981    2.7601 H   0  0  0  0  0  0  0  0  0  0  0  0
   -1.4273    0.8586    2.9673 H   0  0  0  0  0  0  0  0  0  0  0  0
    0.0716    1.0650    4.4620 C   0  0  0  0  0  0  0  0  0  0  0  0
    1.0234    1.5733    4.6364 H   0  0  0  0  0  0  0  0  0  0  0  0
   -0.6677    1.4959    5.1439 H   0  0  0  0  0  0  0  0  0  0  0  0
    0.1879    0.0040    4.7049 H   0  0  0  0  0  0  0  0  0  0  0  0
    0.4903   -0.0671   -0.6341 C   0  0  0  0  0  0  0  0  0  0  0  0
    0.0168    0.1519   -1.7438 O   0  0  0  0  0  0  0  0  0  0  0  0
    1.6975   -0.7353   -0.5540 N   0  0  0  0  0  0  0  0  0  0  0  0
    1.9498   -1.0748    0.3706 H   0  0  0  0  0  0  0  0  0  0  0  0
    2.3551   -1.3284   -1.7115 C   0  0  0  0  0  0  0  0  0  0  0  0
    2.5548   -0.5660   -2.4718 H   0  0  0  0  0  0  0  0  0  0  0  0
    3.3088   -1.7759   -1.4157 H   0  0  0  0  0  0  0  0  0  0  0  0
    1.7255   -2.1092   -2.1509 H   0  0  0  0  0  0  0  0  0  0  0  0
  1  2  1  0  0  0  0
  2  3  1  0  0  0  0
  2  4  1  0  0  0  0
  2  5  1  0  0  0  0
  5  6  2  0  0  0  0
  5  7  1  0  0  0  0
  7  8  1  0  0  0  0
  7  9  1  0  0  0  0
  9 10  1  0  0  0  0
  9 11  1  0  0  0  0
  9 24  1  0  0  0  0
 11 12  1  0  0  0  0
 11 13  1  0  0  0  0
 11 17  1  0  0  0  0
 13 14  1  0  0  0  0
 13 15  1  0  0  0  0
 13 16  1  0  0  0  0
 17 18  1  0  0  0  0
 17 19  1  0  0  0  0
 17 20  1  0  0  0  0
 20 21  1  0  0  0  0
 20 22  1  0  0  0  0
 20 23  1  0  0  0  0
 24 25  2  0  0  0  0
 24 26  1  0  0  0  0
 26 27  1  0  0  0  0
 26 28  1  0  0  0  0
 28 29  1  0  0  0  0
 28 30  1  0  0  0  0
 28 31  1  0  0  0  0
M  END
$$$$

  -OEChem-01062216083D

 31 30  0     1  0  0  0  0  0999 V2000
   -3.2170   -3.1360    1.2113 H   0  0  0  0  0  0  0  0  0  0  0  0
   -3.2113   -2.0968    0.8707 C   0  0  0  0  0  0  0  0  0  0  0  0
   -3.8942   -1.5177    1.4967 H   0  0  0  0  0  0  0  0  0  0  0  0
   -3.5591   -2.0643   -0.1647 H   0  0  0  0  0  0  0  0  0  0  0  0
   -1.8099   -1.5234    0.9646 C   0  0  0  0  0  0  0  0  0  0  0  0
   -0.8889   -2.2417    1.3208 O   0  0  0  0  0  0  0  0  0  0  0  0
   -1.5882   -0.2137    0.5813 N   0  0  0  0  0  0  0  0  0  0  0  0
   -2.3693    0.2630    0.1397 H   0  0  0  0  0  0  0  0  0  0  0  0
   -0.2810    0.4745    0.5780 C   0  0  1  0  0  0  0  0  0  0  0  0
   -0.4649    1.5286    0.3466 H   0  0  0  0  0  0  0  0  0  0  0  0
    0.4579    0.4606    1.9545 C   0  0  1  0  0  0  0  0  0  0  0  0
    0.6254   -0.5649    2.2931 H   0  0  0  0  0  0  0  0  0  0  0  0
    1.8259    1.1739    1.8545 C   0  0  0  0  0  0  0  0  0  0  0  0
    1.6947    2.2114    1.5308 H   0  0  0  0  0  0  0  0  0  0  0  0
    2.3372    1.1746    2.8202 H   0  0  0  0  0  0  0  0  0  0  0  0
    2.4939    0.6793    1.1474 H   0  0  0  0  0  0  0  0  0  0  0  0
   -0.4010    1.2263    2.9920 C   0  0  0  0  0  0  0  0  0  0  0  0
   -0.4300    2.2927    2.7445 H   0  0  0  0  0  0  0  0  0  0  0  0
   -1.4295    0.8550    2.9546 H   0  0  0  0  0  0  0  0  0  0  0  0
    0.0930    1.0487    4.4315 C   0  0  0  0  0  0  0  0  0  0  0  0
    1.0593    1.5360    4.5847 H   0  0  0  0  0  0  0  0  0  0  0  0
   -0.6237    1.4958    5.1269 H   0  0  0  0  0  0  0  0  0  0  0  0
    0.1913   -0.0143    4.6726 H   0  0  0  0  0  0  0  0  0  0  0  0
    0.5047   -0.0733   -0.6375 C   0  0  0  0  0  0  0  0  0  0  0  0
    0.2100    0.3255   -1.7579 O   0  0  0  0  0  0  0  0  0  0  0  0
    1.5407   -0.9767   -0.4920 N   0  0  0  0  0  0  0  0  0  0  0  0
    1.5710   -1.4546    0.4068 H   0  0  0  0  0  0  0  0  0  0  0  0
    2.2087   -1.5995   -1.6273 C   0  0  0  0  0  0  0  0  0  0  0  0
    2.6471   -0.8372   -2.2797 H   0  0  0  0  0  0  0  0  0  0  0  0
    3.0115   -2.2561   -1.2788 H   0  0  0  0  0  0  0  0  0  0  0  0
    1.4985   -2.1960   -2.2093 H   0  0  0  0  0  0  0  0  0  0  0  0
  1  2  1  0  0  0  0
  2  3  1  0  0  0  0
  2  4  1  0  0  0  0
  2  5  1  0  0  0  0
  5  6  2  0  0  0  0
  5  7  1  0  0  0  0
  7  8  1  0  0  0  0
  7  9  1  0  0  0  0
  9 10  1  0  0  0  0
  9 11  1  0  0  0  0
  9 24  1  0  0  0  0
 11 12  1  0  0  0  0
 11 13  1  0  0  0  0
 11 17  1  0  0  0  0
 13 14  1  0  0  0  0
 13 15  1  0  0  0  0
 13 16  1  0  0  0  0
 17 18  1  0  0  0  0
 17 19  1  0  0  0  0
 17 20  1  0  0  0  0
 20 21  1  0  0  0  0
 20 22  1  0  0  0  0
 20 23  1  0  0  0  0
 24 25  2  0  0  0  0
 24 26  1  0  0  0  0
 26 27  1  0  0  0  0
 26 28  1  0  0  0  0
 28 29  1  0  0  0  0
 28 30  1  0  0  0  0
 28 31  1  0  0  0  0
M  END
$$$$

  -OEChem-01062216083D

 31 30  0     1  0  0  0  0  0999 V2000
   -3.2536   -3.1049    1.3151 H   0  0  0  0  0  0  0  0  0  0  0  0
   -3.2454   -2.0732    0.9522 C   0  0  0  0  0  0  0  0  0  0  0  0
   -3.8740   -1.4654    1.6074 H   0  0  0  0  0  0  0  0  0  0  0  0
   -3.6572   -2.0527   -0.0599 H   0  0  0  0  0  0  0  0  0  0  0  0
   -1.8282   -1.5324    0.9463 C   0  0  0  0  0  0  0  0  0  0  0  0
   -0.8992   -2.2706    1.2378 O   0  0  0  0  0  0  0  0  0  0  0  0
   -1.6022   -0.2271    0.5505 N   0  0  0  0  0  0  0  0  0  0  0  0
   -2.4095    0.2933    0.2196 H   0  0  0  0  0  0  0  0  0  0  0  0
   -0.2940    0.4590    0.5455 C   0  0  1  0  0  0  0  0  0  0  0  0
   -0.4798    1.5127    0.3138 H   0  0  0  0  0  0  0  0  0  0  0  0
    0.4413    0.4439    1.9215 C   0  0  1  0  0  0  0  0  0  0  0  0
    0.5938   -0.5839    2.2612 H   0  0  0  0  0  0  0  0  0  0  0  0
    1.8229    1.1234    1.8065 C   0  0  0  0  0  0  0  0  0  0  0  0
    1.7143    2.1621    1.4783 H   0  0  0  0  0  0  0  0  0  0  0  0
    2.3429    1.1152    2.7676 H   0  0  0  0  0  0  0  0  0  0  0  0
    2.4662    0.6033    1.0923 H   0  0  0  0  0  0  0  0  0  0  0  0
   -0.4092    1.2119    2.9628 C   0  0  0  0  0  0  0  0  0  0  0  0
   -0.4285    2.2789    2.7176 H   0  0  0  0  0  0  0  0  0  0  0  0
   -1.4409    0.8494    2.9282 H   0  0  0  0  0  0  0  0  0  0  0  0
    0.0904    1.0281    4.3993 C   0  0  0  0  0  0  0  0  0  0  0  0
    1.0640    1.5034    4.5447 H   0  0  0  0  0  0  0  0  0  0  0  0
   -0.6161    1.4850    5.0989 H   0  0  0  0  0  0  0  0  0  0  0  0
    0.1771   -0.0357    4.6415 H   0  0  0  0  0  0  0  0  0  0  0  0
    0.5249   -0.0780   -0.6494 C   0  0  0  0  0  0  0  0  0  0  0  0
    0.4602    0.4958   -1.7294 O   0  0  0  0  0  0  0  0  0  0  0  0
    1.3460   -1.1797   -0.5031 N   0  0  0  0  0  0  0  0  0  0  0  0
    1.1407   -1.7546    0.3154 H   0  0  0  0  0  0  0  0  0  0  0  0
    2.0385   -1.7992   -1.6247 C   0  0  0  0  0  0  0  0  0  0  0  0
    2.6849   -1.0712   -2.1260 H   0  0  0  0  0  0  0  0  0  0  0  0
    2.6622   -2.6261   -1.2719 H   0  0  0  0  0  0  0  0  0  0  0  0
    1.3180   -2.1904   -2.3504 H   0  0  0  0  0  0  0  0  0  0  0  0
  1  2  1  0  0  0  0
  2  3  1  0  0  0  0
  2  4  1  0  0  0  0
  2  5  1  0  0  0  0
  5  6  2  0  0  0  0
  5  7  1  0  0  0  0
  7  8  1  0  0  0  0
  7  9  1  0  0  0  0
  9 10  1  0  0  0  0
  9 11  1  0  0  0  0
  9 24  1  0  0  0  0
 11 12  1  0  0  0  0
 11 13  1  0  0  0  0
 11 17  1  0  0  0  0
 13 14  1  0  0  0  0
 13 15  1  0  0  0  0
 13 16  1  0  0  0  0
 17 18  1  0  0  0  0
 17 19  1  0  0  0  0
 17 20  1  0  0  0  0
 20 21  1  0  0  0  0
 20 22  1  0  0  0  0
 20 23  1  0  0  0  0
 24 25  2  0  0  0  0
 24 26  1  0  0  0  0
 26 27  1  0  0  0  0
 26 28  1  0  0  0  0
 28 29  1  0  0  0  0
 28 30  1  0  0  0  0
 28 31  1  0  0  0  0
M  END
$$$$

  -OEChem-01062216083D

 31 30  0     1  0  0  0  0  0999 V2000
   -3.3127   -3.0739    1.3864 H   0  0  0  0  0  0  0  0  0  0  0  0
   -3.2922   -2.0485    1.0066 C   0  0  0  0  0  0  0  0  0  0  0  0
   -3.8937   -1.4182    1.6660 H   0  0  0  0  0  0  0  0  0  0  0  0
   -3.7265   -2.0358    0.0040 H   0  0  0  0  0  0  0  0  0  0  0  0
   -1.8649   -1.5370    0.9587 C   0  0  0  0  0  0  0  0  0  0  0  0
   -0.9456   -2.2940    1.2311 O   0  0  0  0  0  0  0  0  0  0  0  0
   -1.6238   -0.2397    0.5441 N   0  0  0  0  0  0  0  0  0  0  0  0
   -2.4381    0.3006    0.2656 H   0  0  0  0  0  0  0  0  0  0  0  0
   -0.3128    0.4457    0.5227 C   0  0  1  0  0  0  0  0  0  0  0  0
   -0.5016    1.4988    0.2900 H   0  0  0  0  0  0  0  0  0  0  0  0
    0.4271    0.4271    1.8950 C   0  0  1  0  0  0  0  0  0  0  0  0
    0.5678   -0.6029    2.2325 H   0  0  0  0  0  0  0  0  0  0  0  0
    1.8208    1.0773    1.7696 C   0  0  0  0  0  0  0  0  0  0  0  0
    1.7337    2.1112    1.4207 H   0  0  0  0  0  0  0  0  0  0  0  0
    2.3414    1.0775    2.7305 H   0  0  0  0  0  0  0  0  0  0  0  0
    2.4511    0.5265    1.0656 H   0  0  0  0  0  0  0  0  0  0  0  0
   -0.4121    1.1972    2.9429 C   0  0  0  0  0  0  0  0  0  0  0  0
   -0.4265    2.2646    2.6988 H   0  0  0  0  0  0  0  0  0  0  0  0
   -1.4458    0.8403    2.9146 H   0  0  0  0  0  0  0  0  0  0  0  0
    0.0963    1.0080    4.3753 C   0  0  0  0  0  0  0  0  0  0  0  0
    1.0738    1.4772    4.5144 H   0  0  0  0  0  0  0  0  0  0  0  0
   -0.6027    1.4681    5.0804 H   0  0  0  0  0  0  0  0  0  0  0  0
    0.1782   -0.0570    4.6146 H   0  0  0  0  0  0  0  0  0  0  0  0
    0.5329   -0.0843   -0.6561 C   0  0  0  0  0  0  0  0  0  0  0  0
    0.6871    0.6091   -1.6535 O   0  0  0  0  0  0  0  0  0  0  0  0
    1.1215   -1.3316   -0.5865 N   0  0  0  0  0  0  0  0  0  0  0  0
    0.7758   -1.9313    0.1669 H   0  0  0  0  0  0  0  0  0  0  0  0
    1.8283   -1.9438   -1.7025 C   0  0  0  0  0  0  0  0  0  0  0  0
    2.6443   -1.2967   -2.0414 H   0  0  0  0  0  0  0  0  0  0  0  0
    2.2556   -2.9034   -1.3960 H   0  0  0  0  0  0  0  0  0  0  0  0
    1.1444   -2.1171   -2.5398 H   0  0  0  0  0  0  0  0  0  0  0  0
  1  2  1  0  0  0  0
  2  3  1  0  0  0  0
  2  4  1  0  0  0  0
  2  5  1  0  0  0  0
  5  6  2  0  0  0  0
  5  7  1  0  0  0  0
  7  8  1  0  0  0  0
  7  9  1  0  0  0  0
  9 10  1  0  0  0  0
  9 11  1  0  0  0  0
  9 24  1  0  0  0  0
 11 12  1  0  0  0  0
 11 13  1  0  0  0  0
 11 17  1  0  0  0  0
 13 14  1  0  0  0  0
 13 15  1  0  0  0  0
 13 16  1  0  0  0  0
 17 18  1  0  0  0  0
 17 19  1  0  0  0  0
 17 20  1  0  0  0  0
 20 21  1  0  0  0  0
 20 22  1  0  0  0  0
 20 23  1  0  0  0  0
 24 25  2  0  0  0  0
 24 26  1  0  0  0  0
 26 27  1  0  0  0  0
 26 28  1  0  0  0  0
 28 29  1  0  0  0  0
 28 30  1  0  0  0  0
 28 31  1  0  0  0  0
M  END
$$$$

  -OEChem-01062216083D

 31 30  0     1  0  0  0  0  0999 V2000
   -3.3854   -3.0404    1.4481 H   0  0  0  0  0  0  0  0  0  0  0  0
   -3.3480   -2.0198    1.0566 C   0  0  0  0  0  0  0  0  0  0  0  0
   -3.9264   -1.3699    1.7177 H   0  0  0  0  0  0  0  0  0  0  0  0
   -3.7967   -2.0085    0.0603 H   0  0  0  0  0  0  0  0  0  0  0  0
   -1.9108   -1.5399    0.9823 C   0  0  0  0  0  0  0  0  0  0  0  0
   -1.0058   -2.3165    1.2445 O   0  0  0  0  0  0  0  0  0  0  0  0
   -1.6508   -0.2516    0.5511 N   0  0  0  0  0  0  0  0  0  0  0  0
   -2.4644    0.3010    0.2964 H   0  0  0  0  0  0  0  0  0  0  0  0
   -0.3353    0.4285    0.5065 C   0  0  1  0  0  0  0  0  0  0  0  0
   -0.5238    1.4816    0.2733 H   0  0  0  0  0  0  0  0  0  0  0  0
    0.4133    0.4073    1.8741 C   0  0  1  0  0  0  0  0  0  0  0  0
    0.5460   -0.6248    2.2099 H   0  0  0  0  0  0  0  0  0  0  0  0
    1.8140    1.0397    1.7404 C   0  0  0  0  0  0  0  0  0  0  0  0
    1.7385    2.0694    1.3770 H   0  0  0  0  0  0  0  0  0  0  0  0
    2.3354    1.0471    2.7007 H   0  0  0  0  0  0  0  0  0  0  0  0
    2.4367    0.4706    1.0438 H   0  0  0  0  0  0  0  0  0  0  0  0
   -0.4111    1.1851    2.9284 C   0  0  0  0  0  0  0  0  0  0  0  0
   -0.4174    2.2523    2.6825 H   0  0  0  0  0  0  0  0  0  0  0  0
   -1.4479    0.8375    2.9086 H   0  0  0  0  0  0  0  0  0  0  0  0
    0.1060    0.9947    4.3579 C   0  0  0  0  0  0  0  0  0  0  0  0
    1.0864    1.4597    4.4910 H   0  0  0  0  0  0  0  0  0  0  0  0
   -0.5863    1.4581    5.0672 H   0  0  0  0  0  0  0  0  0  0  0  0
    0.1846   -0.0702    4.5980 H   0  0  0  0  0  0  0  0  0  0  0  0
    0.5220   -0.0997   -0.6664 C   0  0  0  0  0  0  0  0  0  0  0  0
    0.8762    0.6683   -1.5518 O   0  0  0  0  0  0  0  0  0  0  0  0
    0.8710   -1.4332   -0.7427 N   0  0  0  0  0  0  0  0  0  0  0  0
    0.4687   -2.0444   -0.0269 H   0  0  0  0  0  0  0  0  0  0  0  0
    1.6084   -2.0194   -1.8526 C   0  0  0  0  0  0  0  0  0  0  0  0
    2.5628   -1.5016   -1.9943 H   0  0  0  0  0  0  0  0  0  0  0  0
    1.8156   -3.0748   -1.6512 H   0  0  0  0  0  0  0  0  0  0  0  0
    1.0271   -1.9486   -2.7777 H   0  0  0  0  0  0  0  0  0  0  0  0
  1  2  1  0  0  0  0
  2  3  1  0  0  0  0
  2  4  1  0  0  0  0
  2  5  1  0  0  0  0
  5  6  2  0  0  0  0
  5  7  1  0  0  0  0
  7  8  1  0  0  0  0
  7  9  1  0  0  0  0
  9 10  1  0  0  0  0
  9 11  1  0  0  0  0
  9 24  1  0  0  0  0
 11 12  1  0  0  0  0
 11 13  1  0  0  0  0
 11 17  1  0  0  0  0
 13 14  1  0  0  0  0
 13 15  1  0  0  0  0
 13 16  1  0  0  0  0
 17 18  1  0  0  0  0
 17 19  1  0  0  0  0
 17 20  1  0  0  0  0
 20 21  1  0  0  0  0
 20 22  1  0  0  0  0
 20 23  1  0  0  0  0
 24 25  2  0  0  0  0
 24 26  1  0  0  0  0
 26 27  1  0  0  0  0
 26 28  1  0  0  0  0
 28 29  1  0  0  0  0
 28 30  1  0  0  0  0
 28 31  1  0  0  0  0
M  END
$$$$

  -OEChem-01062216083D

 31 30  0     1  0  0  0  0  0999 V2000
   -3.4308   -3.0035    1.5469 H   0  0  0  0  0  0  0  0  0  0  0  0
   -3.3910   -1.9858    1.1484 C   0  0  0  0  0  0  0  0  0  0  0  0
   -3.9159   -1.3196    1.8373 H   0  0  0  0  0  0  0  0  0  0  0  0
   -3.8942   -1.9672    0.1786 H   0  0  0  0  0  0  0  0  0  0  0  0
   -1.9491   -1.5406    0.9925 C   0  0  0  0  0  0  0  0  0  0  0  0
   -1.0494   -2.3391    1.2008 O   0  0  0  0  0  0  0  0  0  0  0  0
   -1.6831   -0.2567    0.5520 N   0  0  0  0  0  0  0  0  0  0  0  0
   -2.4991    0.3160    0.3569 H   0  0  0  0  0  0  0  0  0  0  0  0
   -0.3626    0.4151    0.4803 C   0  0  1  0  0  0  0  0  0  0  0  0
   -0.5501    1.4689    0.2498 H   0  0  0  0  0  0  0  0  0  0  0  0
    0.3928    0.3858    1.8452 C   0  0  1  0  0  0  0  0  0  0  0  0
    0.5109   -0.6487    2.1792 H   0  0  0  0  0  0  0  0  0  0  0  0
    1.8040    0.9956    1.7132 C   0  0  0  0  0  0  0  0  0  0  0  0
    1.7454    2.0265    1.3497 H   0  0  0  0  0  0  0  0  0  0  0  0
    2.3249    0.9940    2.6736 H   0  0  0  0  0  0  0  0  0  0  0  0
    2.4185    0.4164    1.0176 H   0  0  0  0  0  0  0  0  0  0  0  0
   -0.4190    1.1728    2.9039 C   0  0  0  0  0  0  0  0  0  0  0  0
   -0.4127    2.2399    2.6579 H   0  0  0  0  0  0  0  0  0  0  0  0
   -1.4606    0.8395    2.8901 H   0  0  0  0  0  0  0  0  0  0  0  0
    0.1013    0.9779    4.3314 C   0  0  0  0  0  0  0  0  0  0  0  0
    1.0878    1.4311    4.4601 H   0  0  0  0  0  0  0  0  0  0  0  0
   -0.5824    1.4513    5.0426 H   0  0  0  0  0  0  0  0  0  0  0  0
    0.1677   -0.0878    4.5726 H   0  0  0  0  0  0  0  0  0  0  0  0
    0.4918   -0.1068   -0.7006 C   0  0  0  0  0  0  0  0  0  0  0  0
    1.0371    0.6948   -1.4489 O   0  0  0  0  0  0  0  0  0  0  0  0
    0.6009   -1.4569   -0.9676 N   0  0  0  0  0  0  0  0  0  0  0  0
    0.1764   -2.0860   -0.2813 H   0  0  0  0  0  0  0  0  0  0  0  0
    1.4094   -2.0118   -2.0440 C   0  0  0  0  0  0  0  0  0  0  0  0
    2.4574   -1.7171   -1.9270 H   0  0  0  0  0  0  0  0  0  0  0  0
    1.3533   -3.1044   -2.0323 H   0  0  0  0  0  0  0  0  0  0  0  0
    1.0488   -1.6571   -3.0151 H   0  0  0  0  0  0  0  0  0  0  0  0
  1  2  1  0  0  0  0
  2  3  1  0  0  0  0
  2  4  1  0  0  0  0
  2  5  1  0  0  0  0
  5  6  2  0  0  0  0
  5  7  1  0  0  0  0
  7  8  1  0  0  0  0
  7  9  1  0  0  0  0
  9 10  1  0  0  0  0
  9 11  1  0  0  0  0
  9 24  1  0  0  0  0
 11 12  1  0  0  0  0
 11 13  1  0  0  0  0
 11 17  1  0  0  0  0
 13 14  1  0  0  0  0
 13 15  1  0  0  0  0
 13 16  1  0  0  0  0
 17 18  1  0  0  0  0
 17 19  1  0  0  0  0
 17 20  1  0  0  0  0
 20 21  1  0  0  0  0
 20 22  1  0  0  0  0
 20 23  1  0  0  0  0
 24 25  2  0  0  0  0
 24 26  1  0  0  0  0
 26 27  1  0  0  0  0
 26 28  1  0  0  0  0
 28 29  1  0  0  0  0
 28 30  1  0  0  0  0
 28 31  1  0  0  0  0
M  END
$$$$

  -OEChem-01062216083D

 31 30  0     1  0  0  0  0  0999 V2000
   -3.4265   -2.9728    1.6322 H   0  0  0  0  0  0  0  0  0  0  0  0
   -3.3942   -1.9581    1.2250 C   0  0  0  0  0  0  0  0  0  0  0  0
   -3.8693   -1.2799    1.9379 H   0  0  0  0  0  0  0  0  0  0  0  0
   -3.9511   -1.9374    0.2850 H   0  0  0  0  0  0  0  0  0  0  0  0
   -1.9570   -1.5356    0.9859 C   0  0  0  0  0  0  0  0  0  0  0  0
   -1.0602   -2.3524    1.1195 O   0  0  0  0  0  0  0  0  0  0  0  0
   -1.6932   -0.2535    0.5400 N   0  0  0  0  0  0  0  0  0  0  0  0
   -2.5094    0.3378    0.4138 H   0  0  0  0  0  0  0  0  0  0  0  0
   -0.3702    0.4143    0.4563 C   0  0  1  0  0  0  0  0  0  0  0  0
   -0.5534    1.4689    0.2265 H   0  0  0  0  0  0  0  0  0  0  0  0
    0.3786    0.3754    1.8268 C   0  0  1  0  0  0  0  0  0  0  0  0
    0.4838   -0.6618    2.1572 H   0  0  0  0  0  0  0  0  0  0  0  0
    1.7976    0.9696    1.7139 C   0  0  0  0  0  0  0  0  0  0  0  0
    1.7557    1.9995    1.3453 H   0  0  0  0  0  0  0  0  0  0  0  0
    2.3059    0.9665    2.6809 H   0  0  0  0  0  0  0  0  0  0  0  0
    2.4151    0.3794    1.0306 H   0  0  0  0  0  0  0  0  0  0  0  0
   -0.4326    1.1648    2.8852 C   0  0  0  0  0  0  0  0  0  0  0  0
   -0.4176    2.2326    2.6428 H   0  0  0  0  0  0  0  0  0  0  0  0
   -1.4764    0.8390    2.8664 H   0  0  0  0  0  0  0  0  0  0  0  0
    0.0795    0.9613    4.3148 C   0  0  0  0  0  0  0  0  0  0  0  0
    1.0653    1.4132    4.4517 H   0  0  0  0  0  0  0  0  0  0  0  0
   -0.6074    1.4309    5.0252 H   0  0  0  0  0  0  0  0  0  0  0  0
    0.1438   -0.1056    4.5500 H   0  0  0  0  0  0  0  0  0  0  0  0
    0.4852   -0.1052   -0.7282 C   0  0  0  0  0  0  0  0  0  0  0  0
    1.1824    0.6831   -1.3554 O   0  0  0  0  0  0  0  0  0  0  0  0
    0.3674   -1.4012   -1.1916 N   0  0  0  0  0  0  0  0  0  0  0  0
   -0.1008   -2.0496   -0.5543 H   0  0  0  0  0  0  0  0  0  0  0  0
    1.1757   -1.9420   -2.2759 C   0  0  0  0  0  0  0  0  0  0  0  0
    2.2397   -1.8924   -2.0227 H   0  0  0  0  0  0  0  0  0  0  0  0
    0.9100   -2.9876   -2.4581 H   0  0  0  0  0  0  0  0  0  0  0  0
    1.0061   -1.3773   -3.1986 H   0  0  0  0  0  0  0  0  0  0  0  0
  1  2  1  0  0  0  0
  2  3  1  0  0  0  0
  2  4  1  0  0  0  0
  2  5  1  0  0  0  0
  5  6  2  0  0  0  0
  5  7  1  0  0  0  0
  7  8  1  0  0  0  0
  7  9  1  0  0  0  0
  9 10  1  0  0  0  0
  9 11  1  0  0  0  0
  9 24  1  0  0  0  0
 11 12  1  0  0  0  0
 11 13  1  0  0  0  0
 11 17  1  0  0  0  0
 13 14  1  0  0  0  0
 13 15  1  0  0  0  0
 13 16  1  0  0  0  0
 17 18  1  0  0  0  0
 17 19  1  0  0  0  0
 17 20  1  0  0  0  0
 20 21  1  0  0  0  0
 20 22  1  0  0  0  0
 20 23  1  0  0  0  0
 24 25  2  0  0  0  0
 24 26  1  0  0  0  0
 26 27  1  0  0  0  0
 26 28  1  0  0  0  0
 28 29  1  0  0  0  0
 28 30  1  0  0  0  0
 28 31  1  0  0  0  0
M  END
$$$$

  -OEChem-01062216083D

 31 30  0     1  0  0  0  0  0999 V2000
   -3.3836   -2.9643    1.6740 H   0  0  0  0  0  0  0  0  0  0  0  0
   -3.3648   -1.9396    1.2919 C   0  0  0  0  0  0  0  0  0  0  0  0
   -3.7834   -1.2750    2.0515 H   0  0  0  0  0  0  0  0  0  0  0  0
   -3.9815   -1.8875    0.3914 H   0  0  0  0  0  0  0  0  0  0  0  0
   -1.9408   -1.5285    0.9695 C   0  0  0  0  0  0  0  0  0  0  0  0
   -1.0477   -2.3582    1.0134 O   0  0  0  0  0  0  0  0  0  0  0  0
   -1.6871   -0.2459    0.5212 N   0  0  0  0  0  0  0  0  0  0  0  0
   -2.5003    0.3606    0.4704 H   0  0  0  0  0  0  0  0  0  0  0  0
   -0.3617    0.4193    0.4348 C   0  0  1  0  0  0  0  0  0  0  0  0
   -0.5385    1.4748    0.2044 H   0  0  0  0  0  0  0  0  0  0  0  0
    0.3711    0.3702    1.8166 C   0  0  1  0  0  0  0  0  0  0  0  0
    0.4627   -0.6695    2.1435 H   0  0  0  0  0  0  0  0  0  0  0  0
    1.7973    0.9512    1.7325 C   0  0  0  0  0  0  0  0  0  0  0  0
    1.7748    1.9736    1.3420 H   0  0  0  0  0  0  0  0  0  0  0  0
    2.2803    0.9637    2.7120 H   0  0  0  0  0  0  0  0  0  0  0  0
    2.4272    0.3405    1.0793 H   0  0  0  0  0  0  0  0  0  0  0  0
   -0.4494    1.1610    2.8682 C   0  0  0  0  0  0  0  0  0  0  0  0
   -0.4246    2.2295    2.6294 H   0  0  0  0  0  0  0  0  0  0  0  0
   -1.4949    0.8426    2.8357 H   0  0  0  0  0  0  0  0  0  0  0  0
    0.0411    0.9506    4.3047 C   0  0  0  0  0  0  0  0  0  0  0  0
    1.0229    1.4048    4.4614 H   0  0  0  0  0  0  0  0  0  0  0  0
   -0.6589    1.4134    5.0068 H   0  0  0  0  0  0  0  0  0  0  0  0
    0.1050   -0.1176    4.5344 H   0  0  0  0  0  0  0  0  0  0  0  0
    0.4924   -0.1032   -0.7524 C   0  0  0  0  0  0  0  0  0  0  0  0
    1.3263    0.6340   -1.2646 O   0  0  0  0  0  0  0  0  0  0  0  0
    0.1681   -1.2760   -1.4081 N   0  0  0  0  0  0  0  0  0  0  0  0
   -0.3746   -1.9338   -0.8462 H   0  0  0  0  0  0  0  0  0  0  0  0
    0.9411   -1.7986   -2.5270 C   0  0  0  0  0  0  0  0  0  0  0  0
    1.9744   -1.9929   -2.2213 H   0  0  0  0  0  0  0  0  0  0  0  0
    0.5017   -2.7350   -2.8835 H   0  0  0  0  0  0  0  0  0  0  0  0
    0.9469   -1.0836   -3.3564 H   0  0  0  0  0  0  0  0  0  0  0  0
  1  2  1  0  0  0  0
  2  3  1  0  0  0  0
  2  4  1  0  0  0  0
  2  5  1  0  0  0  0
  5  6  2  0  0  0  0
  5  7  1  0  0  0  0
  7  8  1  0  0  0  0
  7  9  1  0  0  0  0
  9 10  1  0  0  0  0
  9 11  1  0  0  0  0
  9 24  1  0  0  0  0
 11 12  1  0  0  0  0
 11 13  1  0  0  0  0
 11 17  1  0  0  0  0
 13 14  1  0  0  0  0
 13 15  1  0  0  0  0
 13 16  1  0  0  0  0
 17 18  1  0  0  0  0
 17 19  1  0  0  0  0
 17 20  1  0  0  0  0
 20 21  1  0  0  0  0
 20 22  1  0  0  0  0
 20 23  1  0  0  0  0
 24 25  2  0  0  0  0
 24 26  1  0  0  0  0
 26 27  1  0  0  0  0
 26 28  1  0  0  0  0
 28 29  1  0  0  0  0
 28 30  1  0  0  0  0
 28 31  1  0  0  0  0
M  END
$$$$

  -OEChem-01062216083D

 31 30  0     1  0  0  0  0  0999 V2000
   -3.3218   -2.9690    1.6980 H   0  0  0  0  0  0  0  0  0  0  0  0
   -3.3171   -1.9364    1.3374 C   0  0  0  0  0  0  0  0  0  0  0  0
   -3.6875   -1.2861    2.1336 H   0  0  0  0  0  0  0  0  0  0  0  0
   -3.9828   -1.8614    0.4741 H   0  0  0  0  0  0  0  0  0  0  0  0
   -1.9104   -1.5263    0.9462 C   0  0  0  0  0  0  0  0  0  0  0  0
   -1.0215   -2.3599    0.9182 O   0  0  0  0  0  0  0  0  0  0  0  0
   -1.6704   -0.2398    0.5031 N   0  0  0  0  0  0  0  0  0  0  0  0
   -2.4788    0.3752    0.5154 H   0  0  0  0  0  0  0  0  0  0  0  0
   -0.3427    0.4215    0.4199 C   0  0  1  0  0  0  0  0  0  0  0  0
   -0.5120    1.4777    0.1886 H   0  0  0  0  0  0  0  0  0  0  0  0
    0.3710    0.3665    1.8150 C   0  0  1  0  0  0  0  0  0  0  0  0
    0.4468   -0.6742    2.1431 H   0  0  0  0  0  0  0  0  0  0  0  0
    1.8048    0.9325    1.7662 C   0  0  0  0  0  0  0  0  0  0  0  0
    1.8065    1.9444    1.3487 H   0  0  0  0  0  0  0  0  0  0  0  0
    2.2559    0.9664    2.7601 H   0  0  0  0  0  0  0  0  0  0  0  0
    2.4498    0.2973    1.1526 H   0  0  0  0  0  0  0  0  0  0  0  0
   -0.4627    1.1623    2.8539 C   0  0  0  0  0  0  0  0  0  0  0  0
   -0.4271    2.2303    2.6150 H   0  0  0  0  0  0  0  0  0  0  0  0
   -1.5094    0.8508    2.8049 H   0  0  0  0  0  0  0  0  0  0  0  0
    0.0002    0.9516    4.2998 C   0  0  0  0  0  0  0  0  0  0  0  0
    0.9745    1.4138    4.4785 H   0  0  0  0  0  0  0  0  0  0  0  0
   -0.7181    1.4065    4.9886 H   0  0  0  0  0  0  0  0  0  0  0  0
    0.0688   -0.1167    4.5282 H   0  0  0  0  0  0  0  0  0  0  0  0
    0.5020   -0.1046   -0.7754 C   0  0  0  0  0  0  0  0  0  0  0  0
    1.4668    0.5383   -1.1716 O   0  0  0  0  0  0  0  0  0  0  0  0
    0.0014   -1.0837   -1.6143 N   0  0  0  0  0  0  0  0  0  0  0  0
   -0.6567   -1.7156   -1.1607 H   0  0  0  0  0  0  0  0  0  0  0  0
    0.7325   -1.5784   -2.7743 C   0  0  0  0  0  0  0  0  0  0  0  0
    1.6951   -2.0011   -2.4678 H   0  0  0  0  0  0  0  0  0  0  0  0
    0.1547   -2.3583   -3.2794 H   0  0  0  0  0  0  0  0  0  0  0  0
    0.9142   -0.7685   -3.4887 H   0  0  0  0  0  0  0  0  0  0  0  0
  1  2  1  0  0  0  0
  2  3  1  0  0  0  0
  2  4  1  0  0  0  0
  2  5  1  0  0  0  0
  5  6  2  0  0  0  0
  5  7  1  0  0  0  0
  7  8  1  0  0  0  0
  7  9  1  0  0  0  0
  9 10  1  0  0  0  0
  9 11  1  0  0  0  0
  9 24  1  0  0  0  0
 11 12  1  0  0  0  0
 11 13  1  0  0  0  0
 11 17  1  0  0  0  0
 13 14  1  0  0  0  0
 13 15  1  0  0  0  0
 13 16  1  0  0  0  0
 17 18  1  0  0  0  0
 17 19  1  0  0  0  0
 17 20  1  0  0  0  0
 20 21  1  0  0  0  0
 20 22  1  0  0  0  0
 20 23  1  0  0  0  0
 24 25  2  0  0  0  0
 24 26  1  0  0  0  0
 26 27  1  0  0  0  0
 26 28  1  0  0  0  0
 28 29  1  0  0  0  0
 28 30  1  0  0  0  0
 28 31  1  0  0  0  0
M  END
$$$$

  -OEChem-01062216083D

 31 30  0     1  0  0  0  0  0999 V2000
   -3.2655   -2.9988    1.6614 H   0  0  0  0  0  0  0  0  0  0  0  0
   -3.2694   -1.9568    1.3284 C   0  0  0  0  0  0  0  0  0  0  0  0
   -3.6261   -1.3290    2.1486 H   0  0  0  0  0  0  0  0  0  0  0  0
   -3.9516   -1.8604    0.4803 H   0  0  0  0  0  0  0  0  0  0  0  0
   -1.8705   -1.5335    0.9223 C   0  0  0  0  0  0  0  0  0  0  0  0
   -0.9756   -2.3589    0.8839 O   0  0  0  0  0  0  0  0  0  0  0  0
   -1.6446   -0.2383    0.4953 N   0  0  0  0  0  0  0  0  0  0  0  0
   -2.4513    0.3768    0.5509 H   0  0  0  0  0  0  0  0  0  0  0  0
   -0.3164    0.4235    0.4171 C   0  0  1  0  0  0  0  0  0  0  0  0
   -0.4827    1.4806    0.1891 H   0  0  0  0  0  0  0  0  0  0  0  0
    0.3849    0.3665    1.8218 C   0  0  1  0  0  0  0  0  0  0  0  0
    0.4568   -0.6741    2.1516 H   0  0  0  0  0  0  0  0  0  0  0  0
    1.8187    0.9352    1.8006 C   0  0  0  0  0  0  0  0  0  0  0  0
    1.8343    1.9258    1.3353 H   0  0  0  0  0  0  0  0  0  0  0  0
    2.2355    1.0188    2.8061 H   0  0  0  0  0  0  0  0  0  0  0  0
    2.4867    0.2718    1.2447 H   0  0  0  0  0  0  0  0  0  0  0  0
   -0.4634    1.1641    2.8495 C   0  0  0  0  0  0  0  0  0  0  0  0
   -0.4259    2.2316    2.6087 H   0  0  0  0  0  0  0  0  0  0  0  0
   -1.5091    0.8521    2.7874 H   0  0  0  0  0  0  0  0  0  0  0  0
   -0.0233    0.9577    4.3035 C   0  0  0  0  0  0  0  0  0  0  0  0
    0.9429    1.4290    4.5005 H   0  0  0  0  0  0  0  0  0  0  0  0
   -0.7575    1.4059    4.9796 H   0  0  0  0  0  0  0  0  0  0  0  0
    0.0510   -0.1098    4.5329 H   0  0  0  0  0  0  0  0  0  0  0  0
    0.5058   -0.1012   -0.7975 C   0  0  0  0  0  0  0  0  0  0  0  0
    1.6061    0.3626   -1.0685 O   0  0  0  0  0  0  0  0  0  0  0  0
   -0.1286   -0.8206   -1.7951 N   0  0  0  0  0  0  0  0  0  0  0  0
   -0.9629   -1.3135   -1.4902 H   0  0  0  0  0  0  0  0  0  0  0  0
    0.5649   -1.3127   -2.9795 C   0  0  0  0  0  0  0  0  0  0  0  0
    1.3915   -1.9714   -2.6932 H   0  0  0  0  0  0  0  0  0  0  0  0
   -0.1258   -1.8767   -3.6134 H   0  0  0  0  0  0  0  0  0  0  0  0
    0.9659   -0.4786   -3.5648 H   0  0  0  0  0  0  0  0  0  0  0  0
  1  2  1  0  0  0  0
  2  3  1  0  0  0  0
  2  4  1  0  0  0  0
  2  5  1  0  0  0  0
  5  6  2  0  0  0  0
  5  7  1  0  0  0  0
  7  8  1  0  0  0  0
  7  9  1  0  0  0  0
  9 10  1  0  0  0  0
  9 11  1  0  0  0  0
  9 24  1  0  0  0  0
 11 12  1  0  0  0  0
 11 13  1  0  0  0  0
 11 17  1  0  0  0  0
 13 14  1  0  0  0  0
 13 15  1  0  0  0  0
 13 16  1  0  0  0  0
 17 18  1  0  0  0  0
 17 19  1  0  0  0  0
 17 20  1  0  0  0  0
 20 21  1  0  0  0  0
 20 22  1  0  0  0  0
 20 23  1  0  0  0  0
 24 25  2  0  0  0  0
 24 26  1  0  0  0  0
 26 27  1  0  0  0  0
 26 28  1  0  0  0  0
 28 29  1  0  0  0  0
 28 30  1  0  0  0  0
 28 31  1  0  0  0  0
M  END
$$$$

  -OEChem-01062216083D

 31 30  0     1  0  0  0  0  0999 V2000
   -3.2257   -3.0398    1.5596 H   0  0  0  0  0  0  0  0  0  0  0  0
   -3.2303   -1.9846    1.2711 C   0  0  0  0  0  0  0  0  0  0  0  0
   -3.5944   -1.3928    2.1145 H   0  0  0  0  0  0  0  0  0  0  0  0
   -3.9067   -1.8550    0.4228 H   0  0  0  0  0  0  0  0  0  0  0  0
   -1.8296   -1.5417    0.8925 C   0  0  0  0  0  0  0  0  0  0  0  0
   -0.9240   -2.3555    0.8790 O   0  0  0  0  0  0  0  0  0  0  0  0
   -1.6130   -0.2368    0.4884 N   0  0  0  0  0  0  0  0  0  0  0  0
   -2.4212    0.3737    0.5649 H   0  0  0  0  0  0  0  0  0  0  0  0
   -0.2853    0.4259    0.4251 C   0  0  1  0  0  0  0  0  0  0  0  0
   -0.4480    1.4845    0.2023 H   0  0  0  0  0  0  0  0  0  0  0  0
    0.4073    0.3688    1.8352 C   0  0  1  0  0  0  0  0  0  0  0  0
    0.4853   -0.6707    2.1664 H   0  0  0  0  0  0  0  0  0  0  0  0
    1.8340    0.9588    1.8291 C   0  0  0  0  0  0  0  0  0  0  0  0
    1.8516    1.9218    1.3093 H   0  0  0  0  0  0  0  0  0  0  0  0
    2.2182    1.1062    2.8398 H   0  0  0  0  0  0  0  0  0  0  0  0
    2.5311    0.2760    1.3369 H   0  0  0  0  0  0  0  0  0  0  0  0
   -0.4562    1.1655    2.8526 C   0  0  0  0  0  0  0  0  0  0  0  0
   -0.4220    2.2328    2.6103 H   0  0  0  0  0  0  0  0  0  0  0  0
   -1.4995    0.8478    2.7796 H   0  0  0  0  0  0  0  0  0  0  0  0
   -0.0351    0.9658    4.3137 C   0  0  0  0  0  0  0  0  0  0  0  0
    0.9189    1.4544    4.5272 H   0  0  0  0  0  0  0  0  0  0  0  0
   -0.7881    1.4002    4.9781 H   0  0  0  0  0  0  0  0  0  0  0  0
    0.0541   -0.1005    4.5440 H   0  0  0  0  0  0  0  0  0  0  0  0
    0.5094   -0.1005   -0.8084 C   0  0  0  0  0  0  0  0  0  0  0  0
    1.7119    0.0727   -0.9502 O   0  0  0  0  0  0  0  0  0  0  0  0
   -0.1954   -0.5129   -1.9267 N   0  0  0  0  0  0  0  0  0  0  0  0
   -1.1627   -0.7669   -1.7558 H   0  0  0  0  0  0  0  0  0  0  0  0
    0.4514   -1.0210   -3.1309 C   0  0  0  0  0  0  0  0  0  0  0  0
    1.0632   -1.8980   -2.8946 H   0  0  0  0  0  0  0  0  0  0  0  0
   -0.3008   -1.3110   -3.8704 H   0  0  0  0  0  0  0  0  0  0  0  0
    1.0927   -0.2529   -3.5759 H   0  0  0  0  0  0  0  0  0  0  0  0
  1  2  1  0  0  0  0
  2  3  1  0  0  0  0
  2  4  1  0  0  0  0
  2  5  1  0  0  0  0
  5  6  2  0  0  0  0
  5  7  1  0  0  0  0
  7  8  1  0  0  0  0
  7  9  1  0  0  0  0
  9 10  1  0  0  0  0
  9 11  1  0  0  0  0
  9 24  1  0  0  0  0
 11 12  1  0  0  0  0
 11 13  1  0  0  0  0
 11 17  1  0  0  0  0
 13 14  1  0  0  0  0
 13 15  1  0  0  0  0
 13 16  1  0  0  0  0
 17 18  1  0  0  0  0
 17 19  1  0  0  0  0
 17 20  1  0  0  0  0
 20 21  1  0  0  0  0
 20 22  1  0  0  0  0
 20 23  1  0  0  0  0
 24 25  2  0  0  0  0
 24 26  1  0  0  0  0
 26 27  1  0  0  0  0
 26 28  1  0  0  0  0
 28 29  1  0  0  0  0
 28 30  1  0  0  0  0
 28 31  1  0  0  0  0
M  END
$$$$

  -OEChem-01062216083D

 31 30  0     1  0  0  0  0  0999 V2000
   -3.2206   -3.0423    1.5341 H   0  0  0  0  0  0  0  0  0  0  0  0
   -3.2286   -2.0031    1.1926 C   0  0  0  0  0  0  0  0  0  0  0  0
   -3.6559   -1.3793    1.9813 H   0  0  0  0  0  0  0  0  0  0  0  0
   -3.8532   -1.9314    0.2991 H   0  0  0  0  0  0  0  0  0  0  0  0
   -1.8163   -1.5478    0.8764 C   0  0  0  0  0  0  0  0  0  0  0  0
   -0.9051   -2.3539    0.9152 O   0  0  0  0  0  0  0  0  0  0  0  0
   -1.5972   -0.2375    0.4897 N   0  0  0  0  0  0  0  0  0  0  0  0
   -2.4111    0.3669    0.5488 H   0  0  0  0  0  0  0  0  0  0  0  0
   -0.2713    0.4271    0.4418 C   0  0  1  0  0  0  0  0  0  0  0  0
   -0.4341    1.4866    0.2251 H   0  0  0  0  0  0  0  0  0  0  0  0
    0.4271    0.3714    1.8475 C   0  0  1  0  0  0  0  0  0  0  0  0
    0.5228   -0.6674    2.1772 H   0  0  0  0  0  0  0  0  0  0  0  0
    1.8406    0.9974    1.8309 C   0  0  0  0  0  0  0  0  0  0  0  0
    1.8326    1.9535    1.2986 H   0  0  0  0  0  0  0  0  0  0  0  0
    2.2212    1.1685    2.8390 H   0  0  0  0  0  0  0  0  0  0  0  0
    2.5586    0.3303    1.3493 H   0  0  0  0  0  0  0  0  0  0  0  0
   -0.4403    1.1619    2.8662 C   0  0  0  0  0  0  0  0  0  0  0  0
   -0.4154    2.2295    2.6242 H   0  0  0  0  0  0  0  0  0  0  0  0
   -1.4811    0.8351    2.7940 H   0  0  0  0  0  0  0  0  0  0  0  0
   -0.0153    0.9640    4.3264 C   0  0  0  0  0  0  0  0  0  0  0  0
    0.9341    1.4607    4.5411 H   0  0  0  0  0  0  0  0  0  0  0  0
   -0.7721    1.3895    4.9921 H   0  0  0  0  0  0  0  0  0  0  0  0
    0.0841   -0.1019    4.5537 H   0  0  0  0  0  0  0  0  0  0  0  0
    0.5082   -0.0993   -0.8003 C   0  0  0  0  0  0  0  0  0  0  0  0
    1.7163   -0.2842   -0.8255 O   0  0  0  0  0  0  0  0  0  0  0  0
   -0.1693   -0.1949   -2.0044 N   0  0  0  0  0  0  0  0  0  0  0  0
   -1.1814   -0.1720   -1.9441 H   0  0  0  0  0  0  0  0  0  0  0  0
    0.4439   -0.7119   -3.2227 C   0  0  0  0  0  0  0  0  0  0  0  0
    0.7712   -1.7467   -3.0766 H   0  0  0  0  0  0  0  0  0  0  0  0
   -0.2741   -0.6872   -4.0478 H   0  0  0  0  0  0  0  0  0  0  0  0
    1.3109   -0.1048   -3.5038 H   0  0  0  0  0  0  0  0  0  0  0  0
  1  2  1  0  0  0  0
  2  3  1  0  0  0  0
  2  4  1  0  0  0  0
  2  5  1  0  0  0  0
  5  6  2  0  0  0  0
  5  7  1  0  0  0  0
  7  8  1  0  0  0  0
  7  9  1  0  0  0  0
  9 10  1  0  0  0  0
  9 11  1  0  0  0  0
  9 24  1  0  0  0  0
 11 12  1  0  0  0  0
 11 13  1  0  0  0  0
 11 17  1  0  0  0  0
 13 14  1  0  0  0  0
 13 15  1  0  0  0  0
 13 16  1  0  0  0  0
 17 18  1  0  0  0  0
 17 19  1  0  0  0  0
 17 20  1  0  0  0  0
 20 21  1  0  0  0  0
 20 22  1  0  0  0  0
 20 23  1  0  0  0  0
 24 25  2  0  0  0  0
 24 26  1  0  0  0  0
 26 27  1  0  0  0  0
 26 28  1  0  0  0  0
 28 29  1  0  0  0  0
 28 30  1  0  0  0  0
 28 31  1  0  0  0  0
M  END
$$$$

  -OEChem-01062216083D

 31 30  0     1  0  0  0  0  0999 V2000
   -3.2675   -3.0475    1.4553 H   0  0  0  0  0  0  0  0  0  0  0  0
   -3.2588   -2.0123    1.1019 C   0  0  0  0  0  0  0  0  0  0  0  0
   -3.7481   -1.3833    1.8494 H   0  0  0  0  0  0  0  0  0  0  0  0
   -3.8165   -1.9569    0.1641 H   0  0  0  0  0  0  0  0  0  0  0  0
   -1.8308   -1.5477    0.8845 C   0  0  0  0  0  0  0  0  0  0  0  0
   -0.9211   -2.3447    1.0167 O   0  0  0  0  0  0  0  0  0  0  0  0
   -1.6009   -0.2382    0.5005 N   0  0  0  0  0  0  0  0  0  0  0  0
   -2.4245    0.3549    0.4863 H   0  0  0  0  0  0  0  0  0  0  0  0
   -0.2810    0.4358    0.4631 C   0  0  1  0  0  0  0  0  0  0  0  0
   -0.4499    1.4952    0.2508 H   0  0  0  0  0  0  0  0  0  0  0  0
    0.4384    0.3832    1.8542 C   0  0  1  0  0  0  0  0  0  0  0  0
    0.5666   -0.6552    2.1739 H   0  0  0  0  0  0  0  0  0  0  0  0
    1.8315    1.0544    1.8061 C   0  0  0  0  0  0  0  0  0  0  0  0
    1.7613    2.0568    1.3730 H   0  0  0  0  0  0  0  0  0  0  0  0
    2.2672    1.1392    2.8035 H   0  0  0  0  0  0  0  0  0  0  0  0
    2.5401    0.4699    1.2172 H   0  0  0  0  0  0  0  0  0  0  0  0
   -0.4203    1.1560    2.8918 C   0  0  0  0  0  0  0  0  0  0  0  0
   -0.4177    2.2255    2.6572 H   0  0  0  0  0  0  0  0  0  0  0  0
   -1.4566    0.8115    2.8356 H   0  0  0  0  0  0  0  0  0  0  0  0
    0.0373    0.9522    4.3411 C   0  0  0  0  0  0  0  0  0  0  0  0
    0.9948    1.4424    4.5338 H   0  0  0  0  0  0  0  0  0  0  0  0
   -0.7007    1.3805    5.0258 H   0  0  0  0  0  0  0  0  0  0  0  0
    0.1362   -0.1150    4.5629 H   0  0  0  0  0  0  0  0  0  0  0  0
    0.5023   -0.0927   -0.7730 C   0  0  0  0  0  0  0  0  0  0  0  0
    1.6036   -0.6207   -0.7154 O   0  0  0  0  0  0  0  0  0  0  0  0
   -0.0511    0.0965   -2.0285 N   0  0  0  0  0  0  0  0  0  0  0  0
   -1.0164    0.4052   -2.0571 H   0  0  0  0  0  0  0  0  0  0  0  0
    0.5512   -0.4275   -3.2493 C   0  0  0  0  0  0  0  0  0  0  0  0
    0.6074   -1.5205   -3.2102 H   0  0  0  0  0  0  0  0  0  0  0  0
   -0.0466   -0.1410   -4.1197 H   0  0  0  0  0  0  0  0  0  0  0  0
    1.5625   -0.0280   -3.3805 H   0  0  0  0  0  0  0  0  0  0  0  0
  1  2  1  0  0  0  0
  2  3  1  0  0  0  0
  2  4  1  0  0  0  0
  2  5  1  0  0  0  0
  5  6  2  0  0  0  0
  5  7  1  0  0  0  0
  7  8  1  0  0  0  0
  7  9  1  0  0  0  0
  9 10  1  0  0  0  0
  9 11  1  0  0  0  0
  9 24  1  0  0  0  0
 11 12  1  0  0  0  0
 11 13  1  0  0  0  0
 11 17  1  0  0  0  0
 13 14  1  0  0  0  0
 13 15  1  0  0  0  0
 13 16  1  0  0  0  0
 17 18  1  0  0  0  0
 17 19  1  0  0  0  0
 17 20  1  0  0  0  0
 20 21  1  0  0  0  0
 20 22  1  0  0  0  0
 20 23  1  0  0  0  0
 24 25  2  0  0  0  0
 24 26  1  0  0  0  0
 26 27  1  0  0  0  0
 26 28  1  0  0  0  0
 28 29  1  0  0  0  0
 28 30  1  0  0  0  0
 28 31  1  0  0  0  0
M  END
$$$$

  -OEChem-01062216083D

 31 30  0     1  0  0  0  0  0999 V2000
   -3.3339   -3.0673    1.3835 H   0  0  0  0  0  0  0  0  0  0  0  0
   -3.3052   -2.0332    1.0279 C   0  0  0  0  0  0  0  0  0  0  0  0
   -3.8624   -1.4065    1.7281 H   0  0  0  0  0  0  0  0  0  0  0  0
   -3.7814   -1.9868    0.0457 H   0  0  0  0  0  0  0  0  0  0  0  0
   -1.8684   -1.5547    0.9310 C   0  0  0  0  0  0  0  0  0  0  0  0
   -0.9705   -2.3334    1.1896 O   0  0  0  0  0  0  0  0  0  0  0  0
   -1.6255   -0.2507    0.5346 N   0  0  0  0  0  0  0  0  0  0  0  0
   -2.4533    0.3170    0.3868 H   0  0  0  0  0  0  0  0  0  0  0  0
   -0.3110    0.4315    0.4871 C   0  0  1  0  0  0  0  0  0  0  0  0
   -0.4922    1.4889    0.2760 H   0  0  0  0  0  0  0  0  0  0  0  0
    0.4371    0.3934    1.8589 C   0  0  1  0  0  0  0  0  0  0  0  0
    0.5850   -0.6424    2.1780 H   0  0  0  0  0  0  0  0  0  0  0  0
    1.8220    1.0736    1.7612 C   0  0  0  0  0  0  0  0  0  0  0  0
    1.7217    2.1047    1.4088 H   0  0  0  0  0  0  0  0  0  0  0  0
    2.3221    1.0855    2.7322 H   0  0  0  0  0  0  0  0  0  0  0  0
    2.4859    0.5394    1.0786 H   0  0  0  0  0  0  0  0  0  0  0  0
   -0.4000    1.1603    2.9156 C   0  0  0  0  0  0  0  0  0  0  0  0
   -0.4135    2.2295    2.6807 H   0  0  0  0  0  0  0  0  0  0  0  0
   -1.4342    0.8058    2.8866 H   0  0  0  0  0  0  0  0  0  0  0  0
    0.1031    0.9603    4.3492 C   0  0  0  0  0  0  0  0  0  0  0  0
    1.0697    1.4466    4.5036 H   0  0  0  0  0  0  0  0  0  0  0  0
   -0.6093    1.3956    5.0562 H   0  0  0  0  0  0  0  0  0  0  0  0
    0.2044   -0.1063    4.5733 H   0  0  0  0  0  0  0  0  0  0  0  0
    0.4842   -0.0954   -0.7388 C   0  0  0  0  0  0  0  0  0  0  0  0
    1.4346   -0.8604   -0.6524 O   0  0  0  0  0  0  0  0  0  0  0  0
    0.1178    0.3391   -2.0018 N   0  0  0  0  0  0  0  0  0  0  0  0
   -0.7168    0.9102   -2.0753 H   0  0  0  0  0  0  0  0  0  0  0  0
    0.7566   -0.1339   -3.2244 C   0  0  0  0  0  0  0  0  0  0  0  0
    0.6271   -1.2163   -3.3296 H   0  0  0  0  0  0  0  0  0  0  0  0
    0.3137    0.3550   -4.0973 H   0  0  0  0  0  0  0  0  0  0  0  0
    1.8281    0.0923   -3.2093 H   0  0  0  0  0  0  0  0  0  0  0  0
  1  2  1  0  0  0  0
  2  3  1  0  0  0  0
  2  4  1  0  0  0  0
  2  5  1  0  0  0  0
  5  6  2  0  0  0  0
  5  7  1  0  0  0  0
  7  8  1  0  0  0  0
  7  9  1  0  0  0  0
  9 10  1  0  0  0  0
  9 11  1  0  0  0  0
  9 24  1  0  0  0  0
 11 12  1  0  0  0  0
 11 13  1  0  0  0  0
 11 17  1  0  0  0  0
 13 14  1  0  0  0  0
 13 15  1  0  0  0  0
 13 16  1  0  0  0  0
 17 18  1  0  0  0  0
 17 19  1  0  0  0  0
 17 20  1  0  0  0  0
 20 21  1  0  0  0  0
 20 22  1  0  0  0  0
 20 23  1  0  0  0  0
 24 25  2  0  0  0  0
 24 26  1  0  0  0  0
 26 27  1  0  0  0  0
 26 28  1  0  0  0  0
 28 29  1  0  0  0  0
 28 30  1  0  0  0  0
 28 31  1  0  0  0  0
M  END
$$$$

  -OEChem-01062216083D

 31 30  0     1  0  0  0  0  0999 V2000
   -3.3926   -3.0894    1.3319 H   0  0  0  0  0  0  0  0  0  0  0  0
   -3.3505   -2.0590    0.9672 C   0  0  0  0  0  0  0  0  0  0  0  0
   -3.9779   -1.4348    1.6077 H   0  0  0  0  0  0  0  0  0  0  0  0
   -3.7390   -2.0328   -0.0535 H   0  0  0  0  0  0  0  0  0  0  0  0
   -1.9193   -1.5549    0.9905 C   0  0  0  0  0  0  0  0  0  0  0  0
   -1.0443   -2.3028    1.3832 O   0  0  0  0  0  0  0  0  0  0  0  0
   -1.6675   -0.2571    0.5771 N   0  0  0  0  0  0  0  0  0  0  0  0
   -2.4830    0.2635    0.2718 H   0  0  0  0  0  0  0  0  0  0  0  0
   -0.3547    0.4269    0.5076 C   0  0  1  0  0  0  0  0  0  0  0  0
   -0.5483    1.4824    0.2987 H   0  0  0  0  0  0  0  0  0  0  0  0
    0.4297    0.4002    1.8570 C   0  0  1  0  0  0  0  0  0  0  0  0
    0.5880   -0.6330    2.1780 H   0  0  0  0  0  0  0  0  0  0  0  0
    1.8149    1.0666    1.7058 C   0  0  0  0  0  0  0  0  0  0  0  0
    1.7105    2.1069    1.3827 H   0  0  0  0  0  0  0  0  0  0  0  0
    2.3611    1.0490    2.6519 H   0  0  0  0  0  0  0  0  0  0  0  0
    2.4341    0.5379    0.9766 H   0  0  0  0  0  0  0  0  0  0  0  0
   -0.3758    1.1683    2.9343 C   0  0  0  0  0  0  0  0  0  0  0  0
   -0.3995    2.2365    2.6959 H   0  0  0  0  0  0  0  0  0  0  0  0
   -1.4089    0.8092    2.9377 H   0  0  0  0  0  0  0  0  0  0  0  0
    0.1747    0.9738    4.3507 C   0  0  0  0  0  0  0  0  0  0  0  0
    1.1507    1.4523    4.4674 H   0  0  0  0  0  0  0  0  0  0  0  0
   -0.5090    1.4199    5.0793 H   0  0  0  0  0  0  0  0  0  0  0  0
    0.2745   -0.0922    4.5784 H   0  0  0  0  0  0  0  0  0  0  0  0
    0.4465   -0.0983   -0.7133 C   0  0  0  0  0  0  0  0  0  0  0  0
    1.2268   -1.0374   -0.6452 O   0  0  0  0  0  0  0  0  0  0  0  0
    0.3053    0.5403   -1.9343 N   0  0  0  0  0  0  0  0  0  0  0  0
   -0.3458    1.3158   -1.9907 H   0  0  0  0  0  0  0  0  0  0  0  0
    1.0302    0.1386   -3.1344 C   0  0  0  0  0  0  0  0  0  0  0  0
    0.8058   -0.9033   -3.3867 H   0  0  0  0  0  0  0  0  0  0  0  0
    0.7413    0.7688   -3.9807 H   0  0  0  0  0  0  0  0  0  0  0  0
    2.1099    0.2392   -2.9809 H   0  0  0  0  0  0  0  0  0  0  0  0
  1  2  1  0  0  0  0
  2  3  1  0  0  0  0
  2  4  1  0  0  0  0
  2  5  1  0  0  0  0
  5  6  2  0  0  0  0
  5  7  1  0  0  0  0
  7  8  1  0  0  0  0
  7  9  1  0  0  0  0
  9 10  1  0  0  0  0
  9 11  1  0  0  0  0
  9 24  1  0  0  0  0
 11 12  1  0  0  0  0
 11 13  1  0  0  0  0
 11 17  1  0  0  0  0
 13 14  1  0  0  0  0
 13 15  1  0  0  0  0
 13 16  1  0  0  0  0
 17 18  1  0  0  0  0
 17 19  1  0  0  0  0
 17 20  1  0  0  0  0
 20 21  1  0  0  0  0
 20 22  1  0  0  0  0
 20 23  1  0  0  0  0
 24 25  2  0  0  0  0
 24 26  1  0  0  0  0
 26 27  1  0  0  0  0
 26 28  1  0  0  0  0
 28 29  1  0  0  0  0
 28 30  1  0  0  0  0
 28 31  1  0  0  0  0
M  END
$$$$

  -OEChem-01062216083D

 31 30  0     1  0  0  0  0  0999 V2000
   -3.3978   -3.1269    1.2119 H   0  0  0  0  0  0  0  0  0  0  0  0
   -3.3511   -2.0963    0.8481 C   0  0  0  0  0  0  0  0  0  0  0  0
   -4.0779   -1.4958    1.4000 H   0  0  0  0  0  0  0  0  0  0  0  0
   -3.6085   -2.0882   -0.2137 H   0  0  0  0  0  0  0  0  0  0  0  0
   -1.9552   -1.5350    1.0474 C   0  0  0  0  0  0  0  0  0  0  0  0
   -1.1259   -2.2284    1.6059 O   0  0  0  0  0  0  0  0  0  0  0  0
   -1.7023   -0.2396    0.6249 N   0  0  0  0  0  0  0  0  0  0  0  0
   -2.4804    0.2056    0.1500 H   0  0  0  0  0  0  0  0  0  0  0  0
   -0.3885    0.4420    0.5420 C   0  0  1  0  0  0  0  0  0  0  0  0
   -0.5918    1.4966    0.3390 H   0  0  0  0  0  0  0  0  0  0  0  0
    0.4308    0.4176    1.8687 C   0  0  1  0  0  0  0  0  0  0  0  0
    0.5996   -0.6136    2.1888 H   0  0  0  0  0  0  0  0  0  0  0  0
    1.8140    1.0725    1.6673 C   0  0  0  0  0  0  0  0  0  0  0  0
    1.7066    2.1053    1.3216 H   0  0  0  0  0  0  0  0  0  0  0  0
    2.3849    1.0749    2.5990 H   0  0  0  0  0  0  0  0  0  0  0  0
    2.4075    0.5184    0.9342 H   0  0  0  0  0  0  0  0  0  0  0  0
   -0.3446    1.1844    2.9673 C   0  0  0  0  0  0  0  0  0  0  0  0
   -0.3740    2.2526    2.7298 H   0  0  0  0  0  0  0  0  0  0  0  0
   -1.3775    0.8250    2.9978 H   0  0  0  0  0  0  0  0  0  0  0  0
    0.2465    0.9893    4.3672 C   0  0  0  0  0  0  0  0  0  0  0  0
    1.2292    1.4600    4.4537 H   0  0  0  0  0  0  0  0  0  0  0  0
   -0.4119    1.4417    5.1150 H   0  0  0  0  0  0  0  0  0  0  0  0
    0.3447   -0.0771    4.5939 H   0  0  0  0  0  0  0  0  0  0  0  0
    0.4116   -0.0818   -0.6783 C   0  0  0  0  0  0  0  0  0  0  0  0
    0.9437   -1.1820   -0.6935 O   0  0  0  0  0  0  0  0  0  0  0  0
    0.5249    0.7122   -1.8073 N   0  0  0  0  0  0  0  0  0  0  0  0
    0.1130    1.6388   -1.7789 H   0  0  0  0  0  0  0  0  0  0  0  0
    1.2751    0.3112   -2.9921 C   0  0  0  0  0  0  0  0  0  0  0  0
    0.8744   -0.6223   -3.4017 H   0  0  0  0  0  0  0  0  0  0  0  0
    1.2065    1.0839   -3.7638 H   0  0  0  0  0  0  0  0  0  0  0  0
    2.3313    0.1617   -2.7440 H   0  0  0  0  0  0  0  0  0  0  0  0
  1  2  1  0  0  0  0
  2  3  1  0  0  0  0
  2  4  1  0  0  0  0
  2  5  1  0  0  0  0
  5  6  2  0  0  0  0
  5  7  1  0  0  0  0
  7  8  1  0  0  0  0
  7  9  1  0  0  0  0
  9 10  1  0  0  0  0
  9 11  1  0  0  0  0
  9 24  1  0  0  0  0
 11 12  1  0  0  0  0
 11 13  1  0  0  0  0
 11 17  1  0  0  0  0
 13 14  1  0  0  0  0
 13 15  1  0  0  0  0
 13 16  1  0  0  0  0
 17 18  1  0  0  0  0
 17 19  1  0  0  0  0
 17 20  1  0  0  0  0
 20 21  1  0  0  0  0
 20 22  1  0  0  0  0
 20 23  1  0  0  0  0
 24 25  2  0  0  0  0
 24 26  1  0  0  0  0
 26 27  1  0  0  0  0
 26 28  1  0  0  0  0
 28 29  1  0  0  0  0
 28 30  1  0  0  0  0
 28 31  1  0  0  0  0
M  END
$$$$

  -OEChem-01062216083D

 31 30  0     1  0  0  0  0  0999 V2000
   -3.3679   -3.1527    1.1327 H   0  0  0  0  0  0  0  0  0  0  0  0
   -3.3207   -2.1264    0.7574 C   0  0  0  0  0  0  0  0  0  0  0  0
   -4.1179   -1.5435    1.2244 H   0  0  0  0  0  0  0  0  0  0  0  0
   -3.4722   -2.1432   -0.3245 H   0  0  0  0  0  0  0  0  0  0  0  0
   -1.9711   -1.5130    1.0814 C   0  0  0  0  0  0  0  0  0  0  0  0
   -1.1863   -2.1589    1.7522 O   0  0  0  0  0  0  0  0  0  0  0  0
   -1.7212   -0.2173    0.6563 N   0  0  0  0  0  0  0  0  0  0  0  0
   -2.4594    0.1705    0.0785 H   0  0  0  0  0  0  0  0  0  0  0  0
   -0.4021    0.4550    0.5696 C   0  0  1  0  0  0  0  0  0  0  0  0
   -0.6068    1.5095    0.3659 H   0  0  0  0  0  0  0  0  0  0  0  0
    0.4353    0.4295    1.8849 C   0  0  1  0  0  0  0  0  0  0  0  0
    0.6052   -0.6016    2.2040 H   0  0  0  0  0  0  0  0  0  0  0  0
    1.8204    1.0742    1.6673 C   0  0  0  0  0  0  0  0  0  0  0  0
    1.7168    2.1061    1.3180 H   0  0  0  0  0  0  0  0  0  0  0  0
    2.3994    1.0780    2.5940 H   0  0  0  0  0  0  0  0  0  0  0  0
    2.4036    0.5117    0.9320 H   0  0  0  0  0  0  0  0  0  0  0  0
   -0.3238    1.2021    2.9904 C   0  0  0  0  0  0  0  0  0  0  0  0
   -0.3543    2.2697    2.7503 H   0  0  0  0  0  0  0  0  0  0  0  0
   -1.3568    0.8442    3.0339 H   0  0  0  0  0  0  0  0  0  0  0  0
    0.2826    1.0097    4.3839 C   0  0  0  0  0  0  0  0  0  0  0  0
    1.2648    1.4837    4.4595 H   0  0  0  0  0  0  0  0  0  0  0  0
   -0.3694    1.4615    5.1376 H   0  0  0  0  0  0  0  0  0  0  0  0
    0.3861   -0.0561    4.6112 H   0  0  0  0  0  0  0  0  0  0  0  0
    0.3942   -0.0708   -0.6525 C   0  0  0  0  0  0  0  0  0  0  0  0
    0.6017   -1.2618   -0.8333 O   0  0  0  0  0  0  0  0  0  0  0  0
    0.7821    0.8147   -1.6443 N   0  0  0  0  0  0  0  0  0  0  0  0
    0.6351    1.8048   -1.4776 H   0  0  0  0  0  0  0  0  0  0  0  0
    1.5158    0.4049   -2.8365 C   0  0  0  0  0  0  0  0  0  0  0  0
    0.9433   -0.3366   -3.4041 H   0  0  0  0  0  0  0  0  0  0  0  0
    1.6981    1.2678   -3.4840 H   0  0  0  0  0  0  0  0  0  0  0  0
    2.4813   -0.0320   -2.5601 H   0  0  0  0  0  0  0  0  0  0  0  0
  1  2  1  0  0  0  0
  2  3  1  0  0  0  0
  2  4  1  0  0  0  0
  2  5  1  0  0  0  0
  5  6  2  0  0  0  0
  5  7  1  0  0  0  0
  7  8  1  0  0  0  0
  7  9  1  0  0  0  0
  9 10  1  0  0  0  0
  9 11  1  0  0  0  0
  9 24  1  0  0  0  0
 11 12  1  0  0  0  0
 11 13  1  0  0  0  0
 11 17  1  0  0  0  0
 13 14  1  0  0  0  0
 13 15  1  0  0  0  0
 13 16  1  0  0  0  0
 17 18  1  0  0  0  0
 17 19  1  0  0  0  0
 17 20  1  0  0  0  0
 20 21  1  0  0  0  0
 20 22  1  0  0  0  0
 20 23  1  0  0  0  0
 24 25  2  0  0  0  0
 24 26  1  0  0  0  0
 26 27  1  0  0  0  0
 26 28  1  0  0  0  0
 28 29  1  0  0  0  0
 28 30  1  0  0  0  0
 28 31  1  0  0  0  0
M  END
$$$$

  -OEChem-01062216083D

 31 30  0     1  0  0  0  0  0999 V2000
   -3.3349   -3.1704    1.1040 H   0  0  0  0  0  0  0  0  0  0  0  0
   -3.2978   -2.1406    0.7376 C   0  0  0  0  0  0  0  0  0  0  0  0
   -4.1149   -1.5751    1.1914 H   0  0  0  0  0  0  0  0  0  0  0  0
   -3.4255   -2.1517   -0.3475 H   0  0  0  0  0  0  0  0  0  0  0  0
   -1.9659   -1.5067    1.0939 C   0  0  0  0  0  0  0  0  0  0  0  0
   -1.1847   -2.1424    1.7798 O   0  0  0  0  0  0  0  0  0  0  0  0
   -1.7207   -0.2096    0.6700 N   0  0  0  0  0  0  0  0  0  0  0  0
   -2.4410    0.1534    0.0543 H   0  0  0  0  0  0  0  0  0  0  0  0
   -0.3974    0.4551    0.5790 C   0  0  1  0  0  0  0  0  0  0  0  0
   -0.6011    1.5089    0.3707 H   0  0  0  0  0  0  0  0  0  0  0  0
    0.4375    0.4318    1.8984 C   0  0  1  0  0  0  0  0  0  0  0  0
    0.5985   -0.5975    2.2266 H   0  0  0  0  0  0  0  0  0  0  0  0
    1.8308    1.0608    1.6904 C   0  0  0  0  0  0  0  0  0  0  0  0
    1.7412    2.0896    1.3287 H   0  0  0  0  0  0  0  0  0  0  0  0
    2.3998    1.0699    2.6232 H   0  0  0  0  0  0  0  0  0  0  0  0
    2.4164    0.4828    0.9696 H   0  0  0  0  0  0  0  0  0  0  0  0
   -0.3226    1.2165    2.9951 C   0  0  0  0  0  0  0  0  0  0  0  0
   -0.3455    2.2824    2.7470 H   0  0  0  0  0  0  0  0  0  0  0  0
   -1.3584    0.8657    3.0352 H   0  0  0  0  0  0  0  0  0  0  0  0
    0.2742    1.0316    4.3939 C   0  0  0  0  0  0  0  0  0  0  0  0
    1.2573    1.5028    4.4731 H   0  0  0  0  0  0  0  0  0  0  0  0
   -0.3813    1.4904    5.1402 H   0  0  0  0  0  0  0  0  0  0  0  0
    0.3723   -0.0330    4.6288 H   0  0  0  0  0  0  0  0  0  0  0  0
    0.3962   -0.0682   -0.6484 C   0  0  0  0  0  0  0  0  0  0  0  0
    0.3074   -1.2258   -1.0352 O   0  0  0  0  0  0  0  0  0  0  0  0
    1.0530    0.8339   -1.4692 N   0  0  0  0  0  0  0  0  0  0  0  0
    1.1435    1.7892   -1.1386 H   0  0  0  0  0  0  0  0  0  0  0  0
    1.7762    0.4368   -2.6721 C   0  0  0  0  0  0  0  0  0  0  0  0
    1.1003   -0.0500   -3.3830 H   0  0  0  0  0  0  0  0  0  0  0  0
    2.2137    1.3135   -3.1587 H   0  0  0  0  0  0  0  0  0  0  0  0
    2.5834   -0.2593   -2.4209 H   0  0  0  0  0  0  0  0  0  0  0  0
  1  2  1  0  0  0  0
  2  3  1  0  0  0  0
  2  4  1  0  0  0  0
  2  5  1  0  0  0  0
  5  6  2  0  0  0  0
  5  7  1  0  0  0  0
  7  8  1  0  0  0  0
  7  9  1  0  0  0  0
  9 10  1  0  0  0  0
  9 11  1  0  0  0  0
  9 24  1  0  0  0  0
 11 12  1  0  0  0  0
 11 13  1  0  0  0  0
 11 17  1  0  0  0  0
 13 14  1  0  0  0  0
 13 15  1  0  0  0  0
 13 16  1  0  0  0  0
 17 18  1  0  0  0  0
 17 19  1  0  0  0  0
 17 20  1  0  0  0  0
 20 21  1  0  0  0  0
 20 22  1  0  0  0  0
 20 23  1  0  0  0  0
 24 25  2  0  0  0  0
 24 26  1  0  0  0  0
 26 27  1  0  0  0  0
 26 28  1  0  0  0  0
 28 29  1  0  0  0  0
 28 30  1  0  0  0  0
 28 31  1  0  0  0  0
M  END
$$$$

  -OEChem-01062216083D

 31 30  0     1  0  0  0  0  0999 V2000
   -3.3303   -3.1589    1.1462 H   0  0  0  0  0  0  0  0  0  0  0  0
   -3.2866   -2.1335    0.7681 C   0  0  0  0  0  0  0  0  0  0  0  0
   -4.0845   -1.5516    1.2351 H   0  0  0  0  0  0  0  0  0  0  0  0
   -3.4402   -2.1524   -0.3136 H   0  0  0  0  0  0  0  0  0  0  0  0
   -1.9367   -1.5167    1.0851 C   0  0  0  0  0  0  0  0  0  0  0  0
   -1.1274   -2.1772    1.7135 O   0  0  0  0  0  0  0  0  0  0  0  0
   -1.6948   -0.2162    0.6707 N   0  0  0  0  0  0  0  0  0  0  0  0
   -2.4197    0.1528    0.0640 H   0  0  0  0  0  0  0  0  0  0  0  0
   -0.3726    0.4511    0.5759 C   0  0  1  0  0  0  0  0  0  0  0  0
   -0.5757    1.5048    0.3654 H   0  0  0  0  0  0  0  0  0  0  0  0
    0.4424    0.4292    1.9120 C   0  0  1  0  0  0  0  0  0  0  0  0
    0.5901   -0.5988    2.2491 H   0  0  0  0  0  0  0  0  0  0  0  0
    1.8458    1.0459    1.7441 C   0  0  0  0  0  0  0  0  0  0  0  0
    1.7772    2.0671    1.3565 H   0  0  0  0  0  0  0  0  0  0  0  0
    2.3797    1.0737    2.6970 H   0  0  0  0  0  0  0  0  0  0  0  0
    2.4543    0.4446    1.0625 H   0  0  0  0  0  0  0  0  0  0  0  0
   -0.3382    1.2201    2.9911 C   0  0  0  0  0  0  0  0  0  0  0  0
   -0.3538    2.2847    2.7370 H   0  0  0  0  0  0  0  0  0  0  0  0
   -1.3755    0.8725    3.0129 H   0  0  0  0  0  0  0  0  0  0  0  0
    0.2287    1.0422    4.4036 C   0  0  0  0  0  0  0  0  0  0  0  0
    1.2061    1.5209    4.5050 H   0  0  0  0  0  0  0  0  0  0  0  0
   -0.4466    1.4977    5.1341 H   0  0  0  0  0  0  0  0  0  0  0  0
    0.3289   -0.0214    4.6427 H   0  0  0  0  0  0  0  0  0  0  0  0
    0.4130   -0.0643   -0.6637 C   0  0  0  0  0  0  0  0  0  0  0  0
    0.1013   -1.0997   -1.2397 O   0  0  0  0  0  0  0  0  0  0  0  0
    1.3116    0.7712   -1.3071 N   0  0  0  0  0  0  0  0  0  0  0  0
    1.5783    1.6254   -0.8282 H   0  0  0  0  0  0  0  0  0  0  0  0
    2.0308    0.3935   -2.5187 C   0  0  0  0  0  0  0  0  0  0  0  0
    1.3285    0.1858   -3.3331 H   0  0  0  0  0  0  0  0  0  0  0  0
    2.6936    1.2049   -2.8344 H   0  0  0  0  0  0  0  0  0  0  0  0
    2.6379   -0.5003   -2.3401 H   0  0  0  0  0  0  0  0  0  0  0  0
  1  2  1  0  0  0  0
  2  3  1  0  0  0  0
  2  4  1  0  0  0  0
  2  5  1  0  0  0  0
  5  6  2  0  0  0  0
  5  7  1  0  0  0  0
  7  8  1  0  0  0  0
  7  9  1  0  0  0  0
  9 10  1  0  0  0  0
  9 11  1  0  0  0  0
  9 24  1  0  0  0  0
 11 12  1  0  0  0  0
 11 13  1  0  0  0  0
 11 17  1  0  0  0  0
 13 14  1  0  0  0  0
 13 15  1  0  0  0  0
 13 16  1  0  0  0  0
 17 18  1  0  0  0  0
 17 19  1  0  0  0  0
 17 20  1  0  0  0  0
 20 21  1  0  0  0  0
 20 22  1  0  0  0  0
 20 23  1  0  0  0  0
 24 25  2  0  0  0  0
 24 26  1  0  0  0  0
 26 27  1  0  0  0  0
 26 28  1  0  0  0  0
 28 29  1  0  0  0  0
 28 30  1  0  0  0  0
 28 31  1  0  0  0  0
M  END
$$$$

  -OEChem-01062216083D

 31 30  0     1  0  0  0  0  0999 V2000
   -3.2963   -3.1602    1.1440 H   0  0  0  0  0  0  0  0  0  0  0  0
   -3.2593   -2.1278    0.7850 C   0  0  0  0  0  0  0  0  0  0  0  0
   -4.0387   -1.5513    1.2886 H   0  0  0  0  0  0  0  0  0  0  0  0
   -3.4477   -2.1245   -0.2915 H   0  0  0  0  0  0  0  0  0  0  0  0
   -1.8974   -1.5223    1.0703 C   0  0  0  0  0  0  0  0  0  0  0  0
   -1.0601   -2.2057    1.6349 O   0  0  0  0  0  0  0  0  0  0  0  0
   -1.6632   -0.2151    0.6745 N   0  0  0  0  0  0  0  0  0  0  0  0
   -2.3932    0.1616    0.0783 H   0  0  0  0  0  0  0  0  0  0  0  0
   -0.3429    0.4567    0.5817 C   0  0  1  0  0  0  0  0  0  0  0  0
   -0.5431    1.5116    0.3731 H   0  0  0  0  0  0  0  0  0  0  0  0
    0.4489    0.4319    1.9370 C   0  0  1  0  0  0  0  0  0  0  0  0
    0.5820   -0.5956    2.2802 H   0  0  0  0  0  0  0  0  0  0  0  0
    1.8607    1.0388    1.8166 C   0  0  0  0  0  0  0  0  0  0  0  0
    1.8164    2.0422    1.3823 H   0  0  0  0  0  0  0  0  0  0  0  0
    2.3474    1.1075    2.7920 H   0  0  0  0  0  0  0  0  0  0  0  0
    2.5001    0.4035    1.1978 H   0  0  0  0  0  0  0  0  0  0  0  0
   -0.3581    1.2246    2.9978 C   0  0  0  0  0  0  0  0  0  0  0  0
   -0.3688    2.2885    2.7401 H   0  0  0  0  0  0  0  0  0  0  0  0
   -1.3954    0.8767    2.9967 H   0  0  0  0  0  0  0  0  0  0  0  0
    0.1699    1.0533    4.4265 C   0  0  0  0  0  0  0  0  0  0  0  0
    1.1363    1.5464    4.5581 H   0  0  0  0  0  0  0  0  0  0  0  0
   -0.5335    1.4989    5.1363 H   0  0  0  0  0  0  0  0  0  0  0  0
    0.2779   -0.0086    4.6690 H   0  0  0  0  0  0  0  0  0  0  0  0
    0.4249   -0.0503   -0.6767 C   0  0  0  0  0  0  0  0  0  0  0  0
   -0.0593   -0.9065   -1.4090 O   0  0  0  0  0  0  0  0  0  0  0  0
    1.5305    0.6287   -1.1618 N   0  0  0  0  0  0  0  0  0  0  0  0
    1.9364    1.3412   -0.5638 H   0  0  0  0  0  0  0  0  0  0  0  0
    2.2401    0.2474   -2.3781 C   0  0  0  0  0  0  0  0  0  0  0  0
    1.5749    0.3086   -3.2459 H   0  0  0  0  0  0  0  0  0  0  0  0
    3.0886    0.9172   -2.5467 H   0  0  0  0  0  0  0  0  0  0  0  0
    2.6188   -0.7769   -2.2959 H   0  0  0  0  0  0  0  0  0  0  0  0
  1  2  1  0  0  0  0
  2  3  1  0  0  0  0
  2  4  1  0  0  0  0
  2  5  1  0  0  0  0
  5  6  2  0  0  0  0
  5  7  1  0  0  0  0
  7  8  1  0  0  0  0
  7  9  1  0  0  0  0
  9 10  1  0  0  0  0
  9 11  1  0  0  0  0
  9 24  1  0  0  0  0
 11 12  1  0  0  0  0
 11 13  1  0  0  0  0
 11 17  1  0  0  0  0
 13 14  1  0  0  0  0
 13 15  1  0  0  0  0
 13 16  1  0  0  0  0
 17 18  1  0  0  0  0
 17 19  1  0  0  0  0
 17 20  1  0  0  0  0
 20 21  1  0  0  0  0
 20 22  1  0  0  0  0
 20 23  1  0  0  0  0
 24 25  2  0  0  0  0
 24 26  1  0  0  0  0
 26 27  1  0  0  0  0
 26 28  1  0  0  0  0
 28 29  1  0  0  0  0
 28 30  1  0  0  0  0
 28 31  1  0  0  0  0
M  END
$$$$

  -OEChem-01062216083D

 31 30  0     1  0  0  0  0  0999 V2000
   -3.3837   -3.1157    1.0265 H   0  0  0  0  0  0  0  0  0  0  0  0
   -3.2962   -2.0733    0.7073 C   0  0  0  0  0  0  0  0  0  0  0  0
   -4.0532   -1.4812    1.2270 H   0  0  0  0  0  0  0  0  0  0  0  0
   -3.4752   -2.0201   -0.3695 H   0  0  0  0  0  0  0  0  0  0  0  0
   -1.9115   -1.5407    1.0259 C   0  0  0  0  0  0  0  0  0  0  0  0
   -1.1141   -2.2879    1.5652 O   0  0  0  0  0  0  0  0  0  0  0  0
   -1.6214   -0.2334    0.6712 N   0  0  0  0  0  0  0  0  0  0  0  0
   -2.3264    0.1675    0.0585 H   0  0  0  0  0  0  0  0  0  0  0  0
   -0.2969    0.4397    0.6043 C   0  0  1  0  0  0  0  0  0  0  0  0
   -0.4870    1.5146    0.6741 H   0  0  0  0  0  0  0  0  0  0  0  0
    0.6568    0.1055    1.8093 C   0  0  1  0  0  0  0  0  0  0  0  0
    0.8279   -0.9700    1.8789 H   0  0  0  0  0  0  0  0  0  0  0  0
    2.0490    0.7575    1.6800 C   0  0  0  0  0  0  0  0  0  0  0  0
    1.9592    1.8144    1.4096 H   0  0  0  0  0  0  0  0  0  0  0  0
    2.6130    0.6911    2.6124 H   0  0  0  0  0  0  0  0  0  0  0  0
    2.6473    0.2359    0.9289 H   0  0  0  0  0  0  0  0  0  0  0  0
   -0.0103    0.6243    3.1118 C   0  0  0  0  0  0  0  0  0  0  0  0
   -0.0337    1.7189    3.1088 H   0  0  0  0  0  0  0  0  0  0  0  0
   -1.0467    0.2762    3.1503 H   0  0  0  0  0  0  0  0  0  0  0  0
    0.6714    0.1368    4.3956 C   0  0  0  0  0  0  0  0  0  0  0  0
    1.6460    0.6090    4.5402 H   0  0  0  0  0  0  0  0  0  0  0  0
    0.0489    0.3847    5.2605 H   0  0  0  0  0  0  0  0  0  0  0  0
    0.8038   -0.9493    4.3670 H   0  0  0  0  0  0  0  0  0  0  0  0
    0.2658    0.2346   -0.8378 C   0  0  0  0  0  0  0  0  0  0  0  0
   -0.4573   -0.2277   -1.7159 O   0  0  0  0  0  0  0  0  0  0  0  0
    1.4886    0.7358   -1.2494 N   0  0  0  0  0  0  0  0  0  0  0  0
    2.0929    1.1307   -0.5364 H   0  0  0  0  0  0  0  0  0  0  0  0
    2.0050    0.5982   -2.6068 C   0  0  0  0  0  0  0  0  0  0  0  0
    1.3450    1.1006   -3.3218 H   0  0  0  0  0  0  0  0  0  0  0  0
    2.9993    1.0488   -2.6803 H   0  0  0  0  0  0  0  0  0  0  0  0
    2.0834   -0.4590   -2.8815 H   0  0  0  0  0  0  0  0  0  0  0  0
  1  2  1  0  0  0  0
  2  3  1  0  0  0  0
  2  4  1  0  0  0  0
  2  5  1  0  0  0  0
  5  6  2  0  0  0  0
  5  7  1  0  0  0  0
  7  8  1  0  0  0  0
  7  9  1  0  0  0  0
  9 10  1  0  0  0  0
  9 11  1  0  0  0  0
  9 24  1  0  0  0  0
 11 12  1  0  0  0  0
 11 13  1  0  0  0  0
 11 17  1  0  0  0  0
 13 14  1  0  0  0  0
 13 15  1  0  0  0  0
 13 16  1  0  0  0  0
 17 18  1  0  0  0  0
 17 19  1  0  0  0  0
 17 20  1  0  0  0  0
 20 21  1  0  0  0  0
 20 22  1  0  0  0  0
 20 23  1  0  0  0  0
 24 25  2  0  0  0  0
 24 26  1  0  0  0  0
 26 27  1  0  0  0  0
 26 28  1  0  0  0  0
 28 29  1  0  0  0  0
 28 30  1  0  0  0  0
 28 31  1  0  0  0  0
M  END
$$$$

  -OEChem-01062216083D

 31 30  0     1  0  0  0  0  0999 V2000
   -3.3649   -3.1184    1.0231 H   0  0  0  0  0  0  0  0  0  0  0  0
   -3.2802   -2.0704    0.7218 C   0  0  0  0  0  0  0  0  0  0  0  0
   -4.0094   -1.4825    1.2844 H   0  0  0  0  0  0  0  0  0  0  0  0
   -3.5029   -1.9923   -0.3454 H   0  0  0  0  0  0  0  0  0  0  0  0
   -1.8785   -1.5574    0.9951 C   0  0  0  0  0  0  0  0  0  0  0  0
   -1.0592   -2.3263    1.4673 O   0  0  0  0  0  0  0  0  0  0  0  0
   -1.5874   -0.2465    0.6593 N   0  0  0  0  0  0  0  0  0  0  0  0
   -2.2976    0.1780    0.0683 H   0  0  0  0  0  0  0  0  0  0  0  0
   -0.2631    0.4255    0.6118 C   0  0  1  0  0  0  0  0  0  0  0  0
   -0.4527    1.5010    0.6777 H   0  0  0  0  0  0  0  0  0  0  0  0
    0.6673    0.0979    1.8383 C   0  0  1  0  0  0  0  0  0  0  0  0
    0.8385   -0.9765    1.9243 H   0  0  0  0  0  0  0  0  0  0  0  0
    2.0575    0.7619    1.7330 C   0  0  0  0  0  0  0  0  0  0  0  0
    1.9722    1.7841    1.3508 H   0  0  0  0  0  0  0  0  0  0  0  0
    2.5635    0.8050    2.6988 H   0  0  0  0  0  0  0  0  0  0  0  0
    2.7102    0.1785    1.0796 H   0  0  0  0  0  0  0  0  0  0  0  0
   -0.0293    0.6271    3.1220 C   0  0  0  0  0  0  0  0  0  0  0  0
   -0.0537    1.7217    3.1088 H   0  0  0  0  0  0  0  0  0  0  0  0
   -1.0656    0.2778    3.1390 H   0  0  0  0  0  0  0  0  0  0  0  0
    0.6188    0.1522    4.4287 C   0  0  0  0  0  0  0  0  0  0  0  0
    1.5868    0.6293    4.5992 H   0  0  0  0  0  0  0  0  0  0  0  0
   -0.0299    0.4040    5.2732 H   0  0  0  0  0  0  0  0  0  0  0  0
    0.7562   -0.9335    4.4130 H   0  0  0  0  0  0  0  0  0  0  0  0
    0.2940    0.2266   -0.8336 C   0  0  0  0  0  0  0  0  0  0  0  0
   -0.4968    0.0200   -1.7503 O   0  0  0  0  0  0  0  0  0  0  0  0
    1.6114    0.4401   -1.1985 N   0  0  0  0  0  0  0  0  0  0  0  0
    2.2764    0.6240   -0.4561 H   0  0  0  0  0  0  0  0  0  0  0  0
    2.1082    0.2970   -2.5628 C   0  0  0  0  0  0  0  0  0  0  0  0
    1.5894    0.9882   -3.2355 H   0  0  0  0  0  0  0  0  0  0  0  0
    3.1789    0.5191   -2.6008 H   0  0  0  0  0  0  0  0  0  0  0  0
    1.9538   -0.7264   -2.9208 H   0  0  0  0  0  0  0  0  0  0  0  0
  1  2  1  0  0  0  0
  2  3  1  0  0  0  0
  2  4  1  0  0  0  0
  2  5  1  0  0  0  0
  5  6  2  0  0  0  0
  5  7  1  0  0  0  0
  7  8  1  0  0  0  0
  7  9  1  0  0  0  0
  9 10  1  0  0  0  0
  9 11  1  0  0  0  0
  9 24  1  0  0  0  0
 11 12  1  0  0  0  0
 11 13  1  0  0  0  0
 11 17  1  0  0  0  0
 13 14  1  0  0  0  0
 13 15  1  0  0  0  0
 13 16  1  0  0  0  0
 17 18  1  0  0  0  0
 17 19  1  0  0  0  0
 17 20  1  0  0  0  0
 20 21  1  0  0  0  0
 20 22  1  0  0  0  0
 20 23  1  0  0  0  0
 24 25  2  0  0  0  0
 24 26  1  0  0  0  0
 26 27  1  0  0  0  0
 26 28  1  0  0  0  0
 28 29  1  0  0  0  0
 28 30  1  0  0  0  0
 28 31  1  0  0  0  0
M  END
$$$$

  -OEChem-01062216083D

 31 30  0     1  0  0  0  0  0999 V2000
   -3.1480   -3.1884    0.7780 H   0  0  0  0  0  0  0  0  0  0  0  0
   -3.1736   -2.1059    0.6244 C   0  0  0  0  0  0  0  0  0  0  0  0
   -3.8231   -1.6593    1.3809 H   0  0  0  0  0  0  0  0  0  0  0  0
   -3.5844   -1.9008   -0.3673 H   0  0  0  0  0  0  0  0  0  0  0  0
   -1.7749   -1.5283    0.7342 C   0  0  0  0  0  0  0  0  0  0  0  0
   -0.8317   -2.2879    0.8768 O   0  0  0  0  0  0  0  0  0  0  0  0
   -1.6048   -0.1647    0.5816 N   0  0  0  0  0  0  0  0  0  0  0  0
   -2.4216    0.3326    0.2356 H   0  0  0  0  0  0  0  0  0  0  0  0
   -0.3311    0.5917    0.5613 C   0  0  1  0  0  0  0  0  0  0  0  0
   -0.5746    1.6363    0.7773 H   0  0  0  0  0  0  0  0  0  0  0  0
    0.7048    0.1902    1.6678 C   0  0  1  0  0  0  0  0  0  0  0  0
    0.9878   -0.8615    1.5901 H   0  0  0  0  0  0  0  0  0  0  0  0
    1.9837    1.0605    1.6012 C   0  0  0  0  0  0  0  0  0  0  0  0
    1.7315    2.1218    1.6923 H   0  0  0  0  0  0  0  0  0  0  0  0
    2.5346    0.9266    0.6747 H   0  0  0  0  0  0  0  0  0  0  0  0
    2.6756    0.7987    2.4049 H   0  0  0  0  0  0  0  0  0  0  0  0
    0.0685    0.4927    3.0523 C   0  0  0  0  0  0  0  0  0  0  0  0
   -0.0457    1.5727    3.1920 H   0  0  0  0  0  0  0  0  0  0  0  0
   -0.9331    0.0546    3.0896 H   0  0  0  0  0  0  0  0  0  0  0  0
    0.8546   -0.0938    4.2308 C   0  0  0  0  0  0  0  0  0  0  0  0
    1.8072    0.4221    4.3754 H   0  0  0  0  0  0  0  0  0  0  0  0
    0.2735    0.0121    5.1519 H   0  0  0  0  0  0  0  0  0  0  0  0
    1.0497   -1.1583    4.0665 H   0  0  0  0  0  0  0  0  0  0  0  0
    0.0739    0.5992   -0.9445 C   0  0  0  0  0  0  0  0  0  0  0  0
   -0.7523    1.0034   -1.7525 O   0  0  0  0  0  0  0  0  0  0  0  0
    1.3291    0.6279   -1.5019 N   0  0  0  0  0  0  0  0  0  0  0  0
    1.2705    1.0087   -2.4432 H   0  0  0  0  0  0  0  0  0  0  0  0
    2.1666   -0.5628   -1.3918 C   0  0  0  0  0  0  0  0  0  0  0  0
    2.0133   -1.2085   -2.2625 H   0  0  0  0  0  0  0  0  0  0  0  0
    3.2228   -0.2788   -1.3500 H   0  0  0  0  0  0  0  0  0  0  0  0
    1.9306   -1.1452   -0.4960 H   0  0  0  0  0  0  0  0  0  0  0  0
  1  2  1  0  0  0  0
  2  3  1  0  0  0  0
  2  4  1  0  0  0  0
  2  5  1  0  0  0  0
  5  6  2  0  0  0  0
  5  7  1  0  0  0  0
  7  8  1  0  0  0  0
  7  9  1  0  0  0  0
  9 10  1  0  0  0  0
  9 11  1  0  0  0  0
  9 24  1  0  0  0  0
 11 12  1  0  0  0  0
 11 13  1  0  0  0  0
 11 17  1  0  0  0  0
 13 14  1  0  0  0  0
 13 15  1  0  0  0  0
 13 16  1  0  0  0  0
 17 18  1  0  0  0  0
 17 19  1  0  0  0  0
 17 20  1  0  0  0  0
 20 21  1  0  0  0  0
 20 22  1  0  0  0  0
 20 23  1  0  0  0  0
 24 25  2  0  0  0  0
 24 26  1  0  0  0  0
 26 27  1  0  0  0  0
 26 28  1  0  0  0  0
 28 29  1  0  0  0  0
 28 30  1  0  0  0  0
 28 31  1  0  0  0  0
M  END
$$$$

  -OEChem-01062216083D

 31 30  0     1  0  0  0  0  0999 V2000
   -3.3795   -3.0737    1.0905 H   0  0  0  0  0  0  0  0  0  0  0  0
   -3.2927   -2.0311    0.7720 C   0  0  0  0  0  0  0  0  0  0  0  0
   -3.9754   -1.4230    1.3702 H   0  0  0  0  0  0  0  0  0  0  0  0
   -3.5774   -1.9599   -0.2806 H   0  0  0  0  0  0  0  0  0  0  0  0
   -1.8676   -1.5439    0.9563 C   0  0  0  0  0  0  0  0  0  0  0  0
   -1.0229   -2.3293    1.3511 O   0  0  0  0  0  0  0  0  0  0  0  0
   -1.5636   -0.2392    0.6127 N   0  0  0  0  0  0  0  0  0  0  0  0
   -2.2912    0.2388    0.0868 H   0  0  0  0  0  0  0  0  0  0  0  0
   -0.2339    0.4151    0.6029 C   0  0  1  0  0  0  0  0  0  0  0  0
   -0.4114    1.4942    0.6426 H   0  0  0  0  0  0  0  0  0  0  0  0
    0.6787    0.1065    1.8420 C   0  0  1  0  0  0  0  0  0  0  0  0
    0.8682   -0.9644    1.9423 H   0  0  0  0  0  0  0  0  0  0  0  0
    2.0445    0.8301    1.7423 C   0  0  0  0  0  0  0  0  0  0  0  0
    1.9091    1.8636    1.4077 H   0  0  0  0  0  0  0  0  0  0  0  0
    2.7206    0.3231    1.0537 H   0  0  0  0  0  0  0  0  0  0  0  0
    2.5606    0.8505    2.7037 H   0  0  0  0  0  0  0  0  0  0  0  0
   -0.0378    0.6531    3.1063 C   0  0  0  0  0  0  0  0  0  0  0  0
   -0.0678    1.7474    3.0782 H   0  0  0  0  0  0  0  0  0  0  0  0
   -1.0730    0.2992    3.1126 H   0  0  0  0  0  0  0  0  0  0  0  0
    0.5961    0.1956    4.4259 C   0  0  0  0  0  0  0  0  0  0  0  0
    1.5632    0.6741    4.5985 H   0  0  0  0  0  0  0  0  0  0  0  0
   -0.0603    0.4595    5.2607 H   0  0  0  0  0  0  0  0  0  0  0  0
    0.7331   -0.8904    4.4256 H   0  0  0  0  0  0  0  0  0  0  0  0
    0.3338    0.1718   -0.8233 C   0  0  0  0  0  0  0  0  0  0  0  0
   -0.3822    0.4472   -1.7811 O   0  0  0  0  0  0  0  0  0  0  0  0
    1.6274   -0.2366   -1.0873 N   0  0  0  0  0  0  0  0  0  0  0  0
    2.1478   -0.6114   -0.2998 H   0  0  0  0  0  0  0  0  0  0  0  0
    2.1308   -0.4851   -2.4331 C   0  0  0  0  0  0  0  0  0  0  0  0
    2.0394    0.4156   -3.0494 H   0  0  0  0  0  0  0  0  0  0  0  0
    3.1870   -0.7683   -2.3948 H   0  0  0  0  0  0  0  0  0  0  0  0
    1.5698   -1.2964   -2.9086 H   0  0  0  0  0  0  0  0  0  0  0  0
  1  2  1  0  0  0  0
  2  3  1  0  0  0  0
  2  4  1  0  0  0  0
  2  5  1  0  0  0  0
  5  6  2  0  0  0  0
  5  7  1  0  0  0  0
  7  8  1  0  0  0  0
  7  9  1  0  0  0  0
  9 10  1  0  0  0  0
  9 11  1  0  0  0  0
  9 24  1  0  0  0  0
 11 12  1  0  0  0  0
 11 13  1  0  0  0  0
 11 17  1  0  0  0  0
 13 14  1  0  0  0  0
 13 15  1  0  0  0  0
 13 16  1  0  0  0  0
 17 18  1  0  0  0  0
 17 19  1  0  0  0  0
 17 20  1  0  0  0  0
 20 21  1  0  0  0  0
 20 22  1  0  0  0  0
 20 23  1  0  0  0  0
 24 25  2  0  0  0  0
 24 26  1  0  0  0  0
 26 27  1  0  0  0  0
 26 28  1  0  0  0  0
 28 29  1  0  0  0  0
 28 30  1  0  0  0  0
 28 31  1  0  0  0  0
M  END
$$$$

  -OEChem-01062216083D

 31 30  0     1  0  0  0  0  0999 V2000
   -3.3567   -3.0951    1.0975 H   0  0  0  0  0  0  0  0  0  0  0  0
   -3.2839   -2.0511    0.7799 C   0  0  0  0  0  0  0  0  0  0  0  0
   -3.9547   -1.4489    1.3974 H   0  0  0  0  0  0  0  0  0  0  0  0
   -3.5965   -1.9783   -0.2647 H   0  0  0  0  0  0  0  0  0  0  0  0
   -1.8572   -1.5560    0.9286 C   0  0  0  0  0  0  0  0  0  0  0  0
   -0.9934   -2.3389    1.2859 O   0  0  0  0  0  0  0  0  0  0  0  0
   -1.5677   -0.2478    0.5869 N   0  0  0  0  0  0  0  0  0  0  0  0
   -2.3157    0.2468    0.1074 H   0  0  0  0  0  0  0  0  0  0  0  0
   -0.2482    0.4233    0.5963 C   0  0  1  0  0  0  0  0  0  0  0  0
   -0.4368    1.5007    0.6408 H   0  0  0  0  0  0  0  0  0  0  0  0
    0.6724    0.1154    1.8250 C   0  0  1  0  0  0  0  0  0  0  0  0
    0.8863   -0.9531    1.9023 H   0  0  0  0  0  0  0  0  0  0  0  0
    2.0171    0.8762    1.7248 C   0  0  0  0  0  0  0  0  0  0  0  0
    1.8418    1.9482    1.5884 H   0  0  0  0  0  0  0  0  0  0  0  0
    2.6155    0.7376    2.6280 H   0  0  0  0  0  0  0  0  0  0  0  0
    2.6313    0.5226    0.8969 H   0  0  0  0  0  0  0  0  0  0  0  0
   -0.0391    0.6259    3.1052 C   0  0  0  0  0  0  0  0  0  0  0  0
   -0.0900    1.7198    3.0992 H   0  0  0  0  0  0  0  0  0  0  0  0
   -1.0675    0.2532    3.1169 H   0  0  0  0  0  0  0  0  0  0  0  0
    0.6246    0.1524    4.4038 C   0  0  0  0  0  0  0  0  0  0  0  0
    1.5992    0.6241    4.5527 H   0  0  0  0  0  0  0  0  0  0  0  0
   -0.0074    0.4125    5.2583 H   0  0  0  0  0  0  0  0  0  0  0  0
    0.7559   -0.9341    4.3899 H   0  0  0  0  0  0  0  0  0  0  0  0
    0.3357    0.1811   -0.8186 C   0  0  0  0  0  0  0  0  0  0  0  0
   -0.2746    0.6319   -1.7818 O   0  0  0  0  0  0  0  0  0  0  0  0
    1.5217   -0.4913   -1.0464 N   0  0  0  0  0  0  0  0  0  0  0  0
    1.9084   -0.9952   -0.2525 H   0  0  0  0  0  0  0  0  0  0  0  0
    2.0221   -0.7998   -2.3801 C   0  0  0  0  0  0  0  0  0  0  0  0
    2.1537    0.1182   -2.9623 H   0  0  0  0  0  0  0  0  0  0  0  0
    2.9900   -1.3054   -2.3125 H   0  0  0  0  0  0  0  0  0  0  0  0
    1.3229   -1.4558   -2.9090 H   0  0  0  0  0  0  0  0  0  0  0  0
  1  2  1  0  0  0  0
  2  3  1  0  0  0  0
  2  4  1  0  0  0  0
  2  5  1  0  0  0  0
  5  6  2  0  0  0  0
  5  7  1  0  0  0  0
  7  8  1  0  0  0  0
  7  9  1  0  0  0  0
  9 10  1  0  0  0  0
  9 11  1  0  0  0  0
  9 24  1  0  0  0  0
 11 12  1  0  0  0  0
 11 13  1  0  0  0  0
 11 17  1  0  0  0  0
 13 14  1  0  0  0  0
 13 15  1  0  0  0  0
 13 16  1  0  0  0  0
 17 18  1  0  0  0  0
 17 19  1  0  0  0  0
 17 20  1  0  0  0  0
 20 21  1  0  0  0  0
 20 22  1  0  0  0  0
 20 23  1  0  0  0  0
 24 25  2  0  0  0  0
 24 26  1  0  0  0  0
 26 27  1  0  0  0  0
 26 28  1  0  0  0  0
 28 29  1  0  0  0  0
 28 30  1  0  0  0  0
 28 31  1  0  0  0  0
M  END
$$$$

  -OEChem-01062216083D

 31 30  0     1  0  0  0  0  0999 V2000
   -3.3590   -3.0885    1.1680 H   0  0  0  0  0  0  0  0  0  0  0  0
   -3.2985   -2.0448    0.8468 C   0  0  0  0  0  0  0  0  0  0  0  0
   -3.9227   -1.4376    1.5069 H   0  0  0  0  0  0  0  0  0  0  0  0
   -3.6780   -1.9685   -0.1751 H   0  0  0  0  0  0  0  0  0  0  0  0
   -1.8613   -1.5623    0.9036 C   0  0  0  0  0  0  0  0  0  0  0  0
   -0.9786   -2.3545    1.1876 O   0  0  0  0  0  0  0  0  0  0  0  0
   -1.5791   -0.2560    0.5506 N   0  0  0  0  0  0  0  0  0  0  0  0
   -2.3564    0.2723    0.1632 H   0  0  0  0  0  0  0  0  0  0  0  0
   -0.2632    0.4191    0.5673 C   0  0  1  0  0  0  0  0  0  0  0  0
   -0.4577    1.4956    0.6083 H   0  0  0  0  0  0  0  0  0  0  0  0
    0.6551    0.1174    1.7958 C   0  0  1  0  0  0  0  0  0  0  0  0
    0.8670   -0.9515    1.8731 H   0  0  0  0  0  0  0  0  0  0  0  0
    2.0020    0.8670    1.6733 C   0  0  0  0  0  0  0  0  0  0  0  0
    1.8367    1.9473    1.6106 H   0  0  0  0  0  0  0  0  0  0  0  0
    2.6405    0.6645    2.5367 H   0  0  0  0  0  0  0  0  0  0  0  0
    2.5626    0.5571    0.7898 H   0  0  0  0  0  0  0  0  0  0  0  0
   -0.0498    0.6217    3.0800 C   0  0  0  0  0  0  0  0  0  0  0  0
   -0.1014    1.7155    3.0783 H   0  0  0  0  0  0  0  0  0  0  0  0
   -1.0776    0.2472    3.0973 H   0  0  0  0  0  0  0  0  0  0  0  0
    0.6288    0.1439    4.3681 C   0  0  0  0  0  0  0  0  0  0  0  0
    1.6140    0.6003    4.4934 H   0  0  0  0  0  0  0  0  0  0  0  0
    0.0176    0.4192    5.2328 H   0  0  0  0  0  0  0  0  0  0  0  0
    0.7422   -0.9447    4.3581 H   0  0  0  0  0  0  0  0  0  0  0  0
    0.3548    0.1768   -0.8283 C   0  0  0  0  0  0  0  0  0  0  0  0
   -0.0814    0.8055   -1.7851 O   0  0  0  0  0  0  0  0  0  0  0  0
    1.3742   -0.7356   -1.0271 N   0  0  0  0  0  0  0  0  0  0  0  0
    1.5583   -1.3689   -0.2521 H   0  0  0  0  0  0  0  0  0  0  0  0
    1.8836   -1.0817   -2.3475 C   0  0  0  0  0  0  0  0  0  0  0  0
    2.2616   -0.1899   -2.8585 H   0  0  0  0  0  0  0  0  0  0  0  0
    2.7038   -1.8006   -2.2596 H   0  0  0  0  0  0  0  0  0  0  0  0
    1.0923   -1.5293   -2.9579 H   0  0  0  0  0  0  0  0  0  0  0  0
  1  2  1  0  0  0  0
  2  3  1  0  0  0  0
  2  4  1  0  0  0  0
  2  5  1  0  0  0  0
  5  6  2  0  0  0  0
  5  7  1  0  0  0  0
  7  8  1  0  0  0  0
  7  9  1  0  0  0  0
  9 10  1  0  0  0  0
  9 11  1  0  0  0  0
  9 24  1  0  0  0  0
 11 12  1  0  0  0  0
 11 13  1  0  0  0  0
 11 17  1  0  0  0  0
 13 14  1  0  0  0  0
 13 15  1  0  0  0  0
 13 16  1  0  0  0  0
 17 18  1  0  0  0  0
 17 19  1  0  0  0  0
 17 20  1  0  0  0  0
 20 21  1  0  0  0  0
 20 22  1  0  0  0  0
 20 23  1  0  0  0  0
 24 25  2  0  0  0  0
 24 26  1  0  0  0  0
 26 27  1  0  0  0  0
 26 28  1  0  0  0  0
 28 29  1  0  0  0  0
 28 30  1  0  0  0  0
 28 31  1  0  0  0  0
M  END
$$$$

  -OEChem-01062216083D

 31 30  0     1  0  0  0  0  0999 V2000
   -3.3585   -3.0585    1.3193 H   0  0  0  0  0  0  0  0  0  0  0  0
   -3.3120   -2.0288    0.9536 C   0  0  0  0  0  0  0  0  0  0  0  0
   -3.8711   -1.3878    1.6392 H   0  0  0  0  0  0  0  0  0  0  0  0
   -3.7742   -1.9846   -0.0355 H   0  0  0  0  0  0  0  0  0  0  0  0
   -1.8693   -1.5674    0.8718 C   0  0  0  0  0  0  0  0  0  0  0  0
   -0.9702   -2.3758    1.0375 O   0  0  0  0  0  0  0  0  0  0  0  0
   -1.5983   -0.2619    0.5086 N   0  0  0  0  0  0  0  0  0  0  0  0
   -2.4040    0.3084    0.2669 H   0  0  0  0  0  0  0  0  0  0  0  0
   -0.2819    0.4115    0.5295 C   0  0  1  0  0  0  0  0  0  0  0  0
   -0.4782    1.4879    0.5711 H   0  0  0  0  0  0  0  0  0  0  0  0
    0.6301    0.1071    1.7596 C   0  0  1  0  0  0  0  0  0  0  0  0
    0.8295   -0.9638    1.8392 H   0  0  0  0  0  0  0  0  0  0  0  0
    1.9872    0.8293    1.6166 C   0  0  0  0  0  0  0  0  0  0  0  0
    1.8412    1.9114    1.5401 H   0  0  0  0  0  0  0  0  0  0  0  0
    2.6305    0.6258    2.4762 H   0  0  0  0  0  0  0  0  0  0  0  0
    2.5273    0.4918    0.7284 H   0  0  0  0  0  0  0  0  0  0  0  0
   -0.0687    0.6096    3.0459 C   0  0  0  0  0  0  0  0  0  0  0  0
   -0.1105    1.7038    3.0469 H   0  0  0  0  0  0  0  0  0  0  0  0
   -1.0992    0.2427    3.0648 H   0  0  0  0  0  0  0  0  0  0  0  0
    0.6129    0.1241    4.3292 C   0  0  0  0  0  0  0  0  0  0  0  0
    1.6015    0.5748    4.4499 H   0  0  0  0  0  0  0  0  0  0  0  0
    0.0075    0.4005    5.1977 H   0  0  0  0  0  0  0  0  0  0  0  0
    0.7204   -0.9650    4.3161 H   0  0  0  0  0  0  0  0  0  0  0  0
    0.3711    0.1758   -0.8476 C   0  0  0  0  0  0  0  0  0  0  0  0
    0.1766    0.9734   -1.7561 O   0  0  0  0  0  0  0  0  0  0  0  0
    1.1684   -0.9328   -1.0603 N   0  0  0  0  0  0  0  0  0  0  0  0
    1.1115   -1.6565   -0.3443 H   0  0  0  0  0  0  0  0  0  0  0  0
    1.7142   -1.2800   -2.3654 C   0  0  0  0  0  0  0  0  0  0  0  0
    2.3079   -0.4512   -2.7650 H   0  0  0  0  0  0  0  0  0  0  0  0
    2.3622   -2.1578   -2.2818 H   0  0  0  0  0  0  0  0  0  0  0  0
    0.9078   -1.5077   -3.0700 H   0  0  0  0  0  0  0  0  0  0  0  0
  1  2  1  0  0  0  0
  2  3  1  0  0  0  0
  2  4  1  0  0  0  0
  2  5  1  0  0  0  0
  5  6  2  0  0  0  0
  5  7  1  0  0  0  0
  7  8  1  0  0  0  0
  7  9  1  0  0  0  0
  9 10  1  0  0  0  0
  9 11  1  0  0  0  0
  9 24  1  0  0  0  0
 11 12  1  0  0  0  0
 11 13  1  0  0  0  0
 11 17  1  0  0  0  0
 13 14  1  0  0  0  0
 13 15  1  0  0  0  0
 13 16  1  0  0  0  0
 17 18  1  0  0  0  0
 17 19  1  0  0  0  0
 17 20  1  0  0  0  0
 20 21  1  0  0  0  0
 20 22  1  0  0  0  0
 20 23  1  0  0  0  0
 24 25  2  0  0  0  0
 24 26  1  0  0  0  0
 26 27  1  0  0  0  0
 26 28  1  0  0  0  0
 28 29  1  0  0  0  0
 28 30  1  0  0  0  0
 28 31  1  0  0  0  0
M  END
$$$$

  -OEChem-01062216083D

 31 30  0     1  0  0  0  0  0999 V2000
   -3.3415   -3.0507    1.3877 H   0  0  0  0  0  0  0  0  0  0  0  0
   -3.3116   -2.0184    1.0273 C   0  0  0  0  0  0  0  0  0  0  0  0
   -3.8192   -1.3789    1.7536 H   0  0  0  0  0  0  0  0  0  0  0  0
   -3.8384   -1.9634    0.0713 H   0  0  0  0  0  0  0  0  0  0  0  0
   -1.8736   -1.5675    0.8528 C   0  0  0  0  0  0  0  0  0  0  0  0
   -0.9717   -2.3869    0.9305 O   0  0  0  0  0  0  0  0  0  0  0  0
   -1.6111   -0.2634    0.4787 N   0  0  0  0  0  0  0  0  0  0  0  0
   -2.4259    0.3275    0.3392 H   0  0  0  0  0  0  0  0  0  0  0  0
   -0.2941    0.4106    0.5020 C   0  0  1  0  0  0  0  0  0  0  0  0
   -0.4902    1.4873    0.5417 H   0  0  0  0  0  0  0  0  0  0  0  0
    0.6111    0.1024    1.7348 C   0  0  1  0  0  0  0  0  0  0  0  0
    0.7981   -0.9710    1.8140 H   0  0  0  0  0  0  0  0  0  0  0  0
    1.9788    0.8007    1.5863 C   0  0  0  0  0  0  0  0  0  0  0  0
    1.8512    1.8844    1.4981 H   0  0  0  0  0  0  0  0  0  0  0  0
    2.6193    0.5952    2.4477 H   0  0  0  0  0  0  0  0  0  0  0  0
    2.5101    0.4412    0.7002 H   0  0  0  0  0  0  0  0  0  0  0  0
   -0.0866    0.6026    3.0219 C   0  0  0  0  0  0  0  0  0  0  0  0
   -0.1240    1.6970    3.0263 H   0  0  0  0  0  0  0  0  0  0  0  0
   -1.1184    0.2399    3.0395 H   0  0  0  0  0  0  0  0  0  0  0  0
    0.5943    0.1101    4.3028 C   0  0  0  0  0  0  0  0  0  0  0  0
    1.5863    0.5541    4.4212 H   0  0  0  0  0  0  0  0  0  0  0  0
   -0.0068    0.3891    5.1736 H   0  0  0  0  0  0  0  0  0  0  0  0
    0.6948   -0.9798    4.2873 H   0  0  0  0  0  0  0  0  0  0  0  0
    0.3846    0.1755   -0.8609 C   0  0  0  0  0  0  0  0  0  0  0  0
    0.4355    1.0749   -1.6902 O   0  0  0  0  0  0  0  0  0  0  0  0
    0.9230   -1.0649   -1.1422 N   0  0  0  0  0  0  0  0  0  0  0  0
    0.6775   -1.8086   -0.4855 H   0  0  0  0  0  0  0  0  0  0  0  0
    1.4667   -1.4233   -2.4444 C   0  0  0  0  0  0  0  0  0  0  0  0
    2.2665   -0.7317   -2.7292 H   0  0  0  0  0  0  0  0  0  0  0  0
    1.8816   -2.4353   -2.4138 H   0  0  0  0  0  0  0  0  0  0  0  0
    0.6830   -1.3907   -3.2082 H   0  0  0  0  0  0  0  0  0  0  0  0
  1  2  1  0  0  0  0
  2  3  1  0  0  0  0
  2  4  1  0  0  0  0
  2  5  1  0  0  0  0
  5  6  2  0  0  0  0
  5  7  1  0  0  0  0
  7  8  1  0  0  0  0
  7  9  1  0  0  0  0
  9 10  1  0  0  0  0
  9 11  1  0  0  0  0
  9 24  1  0  0  0  0
 11 12  1  0  0  0  0
 11 13  1  0  0  0  0
 11 17  1  0  0  0  0
 13 14  1  0  0  0  0
 13 15  1  0  0  0  0
 13 16  1  0  0  0  0
 17 18  1  0  0  0  0
 17 19  1  0  0  0  0
 17 20  1  0  0  0  0
 20 21  1  0  0  0  0
 20 22  1  0  0  0  0
 20 23  1  0  0  0  0
 24 25  2  0  0  0  0
 24 26  1  0  0  0  0
 26 27  1  0  0  0  0
 26 28  1  0  0  0  0
 28 29  1  0  0  0  0
 28 30  1  0  0  0  0
 28 31  1  0  0  0  0
M  END
$$$$

  -OEChem-01062216083D

 31 30  0     1  0  0  0  0  0999 V2000
   -3.3606   -3.0400    1.4489 H   0  0  0  0  0  0  0  0  0  0  0  0
   -3.3324   -1.9980    1.1175 C   0  0  0  0  0  0  0  0  0  0  0  0
   -3.7770   -1.3714    1.8944 H   0  0  0  0  0  0  0  0  0  0  0  0
   -3.9201   -1.9040    0.2011 H   0  0  0  0  0  0  0  0  0  0  0  0
   -1.8998   -1.5704    0.8608 C   0  0  0  0  0  0  0  0  0  0  0  0
   -1.0091   -2.4051    0.8806 O   0  0  0  0  0  0  0  0  0  0  0  0
   -1.6362   -0.2710    0.4707 N   0  0  0  0  0  0  0  0  0  0  0  0
   -2.4505    0.3313    0.3920 H   0  0  0  0  0  0  0  0  0  0  0  0
   -0.3162    0.4017    0.4767 C   0  0  1  0  0  0  0  0  0  0  0  0
   -0.5101    1.4787    0.5150 H   0  0  0  0  0  0  0  0  0  0  0  0
    0.5888    0.0879    1.7074 C   0  0  1  0  0  0  0  0  0  0  0  0
    0.7638   -0.9880    1.7854 H   0  0  0  0  0  0  0  0  0  0  0  0
    1.9642    0.7691    1.5530 C   0  0  0  0  0  0  0  0  0  0  0  0
    1.8481    1.8521    1.4441 H   0  0  0  0  0  0  0  0  0  0  0  0
    2.5998    0.5729    2.4200 H   0  0  0  0  0  0  0  0  0  0  0  0
    2.4937    0.3873    0.6752 H   0  0  0  0  0  0  0  0  0  0  0  0
   -0.1010    0.5938    2.9971 C   0  0  0  0  0  0  0  0  0  0  0  0
   -0.1268    1.6884    3.0010 H   0  0  0  0  0  0  0  0  0  0  0  0
   -1.1362    0.2417    3.0190 H   0  0  0  0  0  0  0  0  0  0  0  0
    0.5795    0.0965    4.2763 C   0  0  0  0  0  0  0  0  0  0  0  0
    1.5761    0.5308    4.3914 H   0  0  0  0  0  0  0  0  0  0  0  0
   -0.0160    0.3817    5.1488 H   0  0  0  0  0  0  0  0  0  0  0  0
    0.6694   -0.9941    4.2613 H   0  0  0  0  0  0  0  0  0  0  0  0
    0.3744    0.1649   -0.8809 C   0  0  0  0  0  0  0  0  0  0  0  0
    0.6615    1.1105   -1.6036 O   0  0  0  0  0  0  0  0  0  0  0  0
    0.6436   -1.1268   -1.2876 N   0  0  0  0  0  0  0  0  0  0  0  0
    0.3108   -1.8713   -0.6700 H   0  0  0  0  0  0  0  0  0  0  0  0
    1.2287   -1.4684   -2.5758 C   0  0  0  0  0  0  0  0  0  0  0  0
    2.1997   -0.9774   -2.6973 H   0  0  0  0  0  0  0  0  0  0  0  0
    1.3775   -2.5500   -2.6471 H   0  0  0  0  0  0  0  0  0  0  0  0
    0.5691   -1.1534   -3.3908 H   0  0  0  0  0  0  0  0  0  0  0  0
  1  2  1  0  0  0  0
  2  3  1  0  0  0  0
  2  4  1  0  0  0  0
  2  5  1  0  0  0  0
  5  6  2  0  0  0  0
  5  7  1  0  0  0  0
  7  8  1  0  0  0  0
  7  9  1  0  0  0  0
  9 10  1  0  0  0  0
  9 11  1  0  0  0  0
  9 24  1  0  0  0  0
 11 12  1  0  0  0  0
 11 13  1  0  0  0  0
 11 17  1  0  0  0  0
 13 14  1  0  0  0  0
 13 15  1  0  0  0  0
 13 16  1  0  0  0  0
 17 18  1  0  0  0  0
 17 19  1  0  0  0  0
 17 20  1  0  0  0  0
 20 21  1  0  0  0  0
 20 22  1  0  0  0  0
 20 23  1  0  0  0  0
 24 25  2  0  0  0  0
 24 26  1  0  0  0  0
 26 27  1  0  0  0  0
 26 28  1  0  0  0  0
 28 29  1  0  0  0  0
 28 30  1  0  0  0  0
 28 31  1  0  0  0  0
M  END
$$$$

  -OEChem-01062216083D

 31 30  0     1  0  0  0  0  0999 V2000
   -3.3758   -3.0249    1.5329 H   0  0  0  0  0  0  0  0  0  0  0  0
   -3.3510   -1.9801    1.2106 C   0  0  0  0  0  0  0  0  0  0  0  0
   -3.7372   -1.3548    2.0191 H   0  0  0  0  0  0  0  0  0  0  0  0
   -3.9914   -1.8669    0.3325 H   0  0  0  0  0  0  0  0  0  0  0  0
   -1.9297   -1.5716    0.8733 C   0  0  0  0  0  0  0  0  0  0  0  0
   -1.0514   -2.4180    0.8326 O   0  0  0  0  0  0  0  0  0  0  0  0
   -1.6699   -0.2747    0.4732 N   0  0  0  0  0  0  0  0  0  0  0  0
   -2.4815    0.3359    0.4506 H   0  0  0  0  0  0  0  0  0  0  0  0
   -0.3472    0.3965    0.4537 C   0  0  1  0  0  0  0  0  0  0  0  0
   -0.5377    1.4741    0.4939 H   0  0  0  0  0  0  0  0  0  0  0  0
    0.5648    0.0744    1.6787 C   0  0  1  0  0  0  0  0  0  0  0  0
    0.7282   -1.0035    1.7540 H   0  0  0  0  0  0  0  0  0  0  0  0
    1.9484    0.7384    1.5208 C   0  0  0  0  0  0  0  0  0  0  0  0
    1.8452    1.8220    1.4047 H   0  0  0  0  0  0  0  0  0  0  0  0
    2.5824    0.5407    2.3885 H   0  0  0  0  0  0  0  0  0  0  0  0
    2.4738    0.3437    0.6461 H   0  0  0  0  0  0  0  0  0  0  0  0
   -0.1122    0.5855    2.9740 C   0  0  0  0  0  0  0  0  0  0  0  0
   -0.1286    1.6804    2.9782 H   0  0  0  0  0  0  0  0  0  0  0  0
   -1.1503    0.2427    3.0037 H   0  0  0  0  0  0  0  0  0  0  0  0
    0.5720    0.0830    4.2492 C   0  0  0  0  0  0  0  0  0  0  0  0
    1.5701    0.5146    4.3608 H   0  0  0  0  0  0  0  0  0  0  0  0
   -0.0190    0.3690    5.1245 H   0  0  0  0  0  0  0  0  0  0  0  0
    0.6587   -1.0079    4.2325 H   0  0  0  0  0  0  0  0  0  0  0  0
    0.3382    0.1638   -0.9102 C   0  0  0  0  0  0  0  0  0  0  0  0
    0.8326    1.1033   -1.5203 O   0  0  0  0  0  0  0  0  0  0  0  0
    0.3395   -1.0974   -1.4731 N   0  0  0  0  0  0  0  0  0  0  0  0
   -0.0284   -1.8496   -0.8857 H   0  0  0  0  0  0  0  0  0  0  0  0
    0.9996   -1.4250   -2.7286 C   0  0  0  0  0  0  0  0  0  0  0  0
    2.0743   -1.2279   -2.6585 H   0  0  0  0  0  0  0  0  0  0  0  0
    0.8554   -2.4836   -2.9653 H   0  0  0  0  0  0  0  0  0  0  0  0
    0.5838   -0.8280   -3.5468 H   0  0  0  0  0  0  0  0  0  0  0  0
  1  2  1  0  0  0  0
  2  3  1  0  0  0  0
  2  4  1  0  0  0  0
  2  5  1  0  0  0  0
  5  6  2  0  0  0  0
  5  7  1  0  0  0  0
  7  8  1  0  0  0  0
  7  9  1  0  0  0  0
  9 10  1  0  0  0  0
  9 11  1  0  0  0  0
  9 24  1  0  0  0  0
 11 12  1  0  0  0  0
 11 13  1  0  0  0  0
 11 17  1  0  0  0  0
 13 14  1  0  0  0  0
 13 15  1  0  0  0  0
 13 16  1  0  0  0  0
 17 18  1  0  0  0  0
 17 19  1  0  0  0  0
 17 20  1  0  0  0  0
 20 21  1  0  0  0  0
 20 22  1  0  0  0  0
 20 23  1  0  0  0  0
 24 25  2  0  0  0  0
 24 26  1  0  0  0  0
 26 27  1  0  0  0  0
 26 28  1  0  0  0  0
 28 29  1  0  0  0  0
 28 30  1  0  0  0  0
 28 31  1  0  0  0  0
M  END
$$$$

  -OEChem-01062216083D

 31 30  0     1  0  0  0  0  0999 V2000
   -3.3625   -3.0207    1.5761 H   0  0  0  0  0  0  0  0  0  0  0  0
   -3.3404   -1.9696    1.2745 C   0  0  0  0  0  0  0  0  0  0  0  0
   -3.6805   -1.3572    2.1131 H   0  0  0  0  0  0  0  0  0  0  0  0
   -4.0199   -1.8306    0.4301 H   0  0  0  0  0  0  0  0  0  0  0  0
   -1.9320   -1.5701    0.8779 C   0  0  0  0  0  0  0  0  0  0  0  0
   -1.0661   -2.4234    0.7754 O   0  0  0  0  0  0  0  0  0  0  0  0
   -1.6787   -0.2747    0.4707 N   0  0  0  0  0  0  0  0  0  0  0  0
   -2.4872    0.3402    0.4926 H   0  0  0  0  0  0  0  0  0  0  0  0
   -0.3554    0.3978    0.4363 C   0  0  1  0  0  0  0  0  0  0  0  0
   -0.5438    1.4756    0.4756 H   0  0  0  0  0  0  0  0  0  0  0  0
    0.5512    0.0689    1.6658 C   0  0  1  0  0  0  0  0  0  0  0  0
    0.7029   -1.0108    1.7412 H   0  0  0  0  0  0  0  0  0  0  0  0
    1.9440    0.7160    1.5199 C   0  0  0  0  0  0  0  0  0  0  0  0
    1.8547    1.7996    1.3922 H   0  0  0  0  0  0  0  0  0  0  0  0
    2.5658    0.5200    2.3966 H   0  0  0  0  0  0  0  0  0  0  0  0
    2.4758    0.3058    0.6564 H   0  0  0  0  0  0  0  0  0  0  0  0
   -0.1261    0.5844    2.9601 C   0  0  0  0  0  0  0  0  0  0  0  0
   -0.1347    1.6794    2.9643 H   0  0  0  0  0  0  0  0  0  0  0  0
   -1.1667    0.2494    2.9878 H   0  0  0  0  0  0  0  0  0  0  0  0
    0.5508    0.0767    4.2376 C   0  0  0  0  0  0  0  0  0  0  0  0
    1.5496    0.5047    4.3565 H   0  0  0  0  0  0  0  0  0  0  0  0
   -0.0437    0.3622    5.1107 H   0  0  0  0  0  0  0  0  0  0  0  0
    0.6342   -1.0145    4.2181 H   0  0  0  0  0  0  0  0  0  0  0  0
    0.3291    0.1669   -0.9316 C   0  0  0  0  0  0  0  0  0  0  0  0
    0.9839    1.0626   -1.4504 O   0  0  0  0  0  0  0  0  0  0  0  0
    0.0825   -0.9911   -1.6441 N   0  0  0  0  0  0  0  0  0  0  0  0
   -0.3451   -1.7471   -1.1056 H   0  0  0  0  0  0  0  0  0  0  0  0
    0.7313   -1.3070   -2.9091 C   0  0  0  0  0  0  0  0  0  0  0  0
    1.8151   -1.3845   -2.7743 H   0  0  0  0  0  0  0  0  0  0  0  0
    0.3593   -2.2609   -3.2951 H   0  0  0  0  0  0  0  0  0  0  0  0
    0.5224   -0.5302   -3.6520 H   0  0  0  0  0  0  0  0  0  0  0  0
  1  2  1  0  0  0  0
  2  3  1  0  0  0  0
  2  4  1  0  0  0  0
  2  5  1  0  0  0  0
  5  6  2  0  0  0  0
  5  7  1  0  0  0  0
  7  8  1  0  0  0  0
  7  9  1  0  0  0  0
  9 10  1  0  0  0  0
  9 11  1  0  0  0  0
  9 24  1  0  0  0  0
 11 12  1  0  0  0  0
 11 13  1  0  0  0  0
 11 17  1  0  0  0  0
 13 14  1  0  0  0  0
 13 15  1  0  0  0  0
 13 16  1  0  0  0  0
 17 18  1  0  0  0  0
 17 19  1  0  0  0  0
 17 20  1  0  0  0  0
 20 21  1  0  0  0  0
 20 22  1  0  0  0  0
 20 23  1  0  0  0  0
 24 25  2  0  0  0  0
 24 26  1  0  0  0  0
 26 27  1  0  0  0  0
 26 28  1  0  0  0  0
 28 29  1  0  0  0  0
 28 30  1  0  0  0  0
 28 31  1  0  0  0  0
M  END
$$$$

  -OEChem-01062216083D

 31 30  0     1  0  0  0  0  0999 V2000
   -3.3279   -3.0164    1.6377 H   0  0  0  0  0  0  0  0  0  0  0  0
   -3.3167   -1.9682    1.3253 C   0  0  0  0  0  0  0  0  0  0  0  0
   -3.6281   -1.3482    2.1695 H   0  0  0  0  0  0  0  0  0  0  0  0
   -4.0253   -1.8371    0.5040 H   0  0  0  0  0  0  0  0  0  0  0  0
   -1.9224   -1.5730    0.8769 C   0  0  0  0  0  0  0  0  0  0  0  0
   -1.0692   -2.4304    0.7243 O   0  0  0  0  0  0  0  0  0  0  0  0
   -1.6741   -0.2775    0.4674 N   0  0  0  0  0  0  0  0  0  0  0  0
   -2.4765    0.3423    0.5302 H   0  0  0  0  0  0  0  0  0  0  0  0
   -0.3478    0.3920    0.4226 C   0  0  1  0  0  0  0  0  0  0  0  0
   -0.5312    1.4705    0.4595 H   0  0  0  0  0  0  0  0  0  0  0  0
    0.5475    0.0593    1.6631 C   0  0  1  0  0  0  0  0  0  0  0  0
    0.6834   -1.0222    1.7451 H   0  0  0  0  0  0  0  0  0  0  0  0
    1.9526    0.6829    1.5370 C   0  0  0  0  0  0  0  0  0  0  0  0
    1.8823    1.7641    1.3812 H   0  0  0  0  0  0  0  0  0  0  0  0
    2.5516    0.4993    2.4317 H   0  0  0  0  0  0  0  0  0  0  0  0
    2.4981    0.2424    0.6974 H   0  0  0  0  0  0  0  0  0  0  0  0
   -0.1382    0.5885    2.9484 C   0  0  0  0  0  0  0  0  0  0  0  0
   -0.1352    1.6834    2.9458 H   0  0  0  0  0  0  0  0  0  0  0  0
   -1.1823    0.2651    2.9683 H   0  0  0  0  0  0  0  0  0  0  0  0
    0.5185    0.0835    4.2373 C   0  0  0  0  0  0  0  0  0  0  0  0
    1.5143    0.5140    4.3721 H   0  0  0  0  0  0  0  0  0  0  0  0
   -0.0905    0.3692    5.1002 H   0  0  0  0  0  0  0  0  0  0  0  0
    0.6045   -1.0076    4.2210 H   0  0  0  0  0  0  0  0  0  0  0  0
    0.3339    0.1644   -0.9506 C   0  0  0  0  0  0  0  0  0  0  0  0
    1.1338    0.9848   -1.3836 O   0  0  0  0  0  0  0  0  0  0  0  0
   -0.1317   -0.8178   -1.8047 N   0  0  0  0  0  0  0  0  0  0  0  0
   -0.6605   -1.5594   -1.3460 H   0  0  0  0  0  0  0  0  0  0  0  0
    0.4710   -1.0936   -3.1022 C   0  0  0  0  0  0  0  0  0  0  0  0
    1.5194   -1.3863   -2.9831 H   0  0  0  0  0  0  0  0  0  0  0  0
   -0.0634   -1.9083   -3.5999 H   0  0  0  0  0  0  0  0  0  0  0  0
    0.4231   -0.2075   -3.7439 H   0  0  0  0  0  0  0  0  0  0  0  0
  1  2  1  0  0  0  0
  2  3  1  0  0  0  0
  2  4  1  0  0  0  0
  2  5  1  0  0  0  0
  5  6  2  0  0  0  0
  5  7  1  0  0  0  0
  7  8  1  0  0  0  0
  7  9  1  0  0  0  0
  9 10  1  0  0  0  0
  9 11  1  0  0  0  0
  9 24  1  0  0  0  0
 11 12  1  0  0  0  0
 11 13  1  0  0  0  0
 11 17  1  0  0  0  0
 13 14  1  0  0  0  0
 13 15  1  0  0  0  0
 13 16  1  0  0  0  0
 17 18  1  0  0  0  0
 17 19  1  0  0  0  0
 17 20  1  0  0  0  0
 20 21  1  0  0  0  0
 20 22  1  0  0  0  0
 20 23  1  0  0  0  0
 24 25  2  0  0  0  0
 24 26  1  0  0  0  0
 26 27  1  0  0  0  0
 26 28  1  0  0  0  0
 28 29  1  0  0  0  0
 28 30  1  0  0  0  0
 28 31  1  0  0  0  0
M  END
$$$$

  -OEChem-01062216083D

 31 30  0     1  0  0  0  0  0999 V2000
   -3.2985   -3.0259    1.6525 H   0  0  0  0  0  0  0  0  0  0  0  0
   -3.2904   -1.9783    1.3379 C   0  0  0  0  0  0  0  0  0  0  0  0
   -3.5923   -1.3567    2.1844 H   0  0  0  0  0  0  0  0  0  0  0  0
   -4.0079   -1.8490    0.5239 H   0  0  0  0  0  0  0  0  0  0  0  0
   -1.9012   -1.5839    0.8740 C   0  0  0  0  0  0  0  0  0  0  0  0
   -1.0497   -2.4414    0.7205 O   0  0  0  0  0  0  0  0  0  0  0  0
   -1.6586   -0.2857    0.4686 N   0  0  0  0  0  0  0  0  0  0  0  0
   -2.4588    0.3342    0.5553 H   0  0  0  0  0  0  0  0  0  0  0  0
   -0.3320    0.3842    0.4143 C   0  0  1  0  0  0  0  0  0  0  0  0
   -0.5145    1.4626    0.4506 H   0  0  0  0  0  0  0  0  0  0  0  0
    0.5543    0.0518    1.6658 C   0  0  1  0  0  0  0  0  0  0  0  0
    0.6810   -1.0299    1.7569 H   0  0  0  0  0  0  0  0  0  0  0  0
    1.9679    0.6590    1.5601 C   0  0  0  0  0  0  0  0  0  0  0  0
    1.9130    1.7342    1.3633 H   0  0  0  0  0  0  0  0  0  0  0  0
    2.5407    0.5029    2.4765 H   0  0  0  0  0  0  0  0  0  0  0  0
    2.5327    0.1816    0.7545 H   0  0  0  0  0  0  0  0  0  0  0  0
   -0.1417    0.5932    2.9420 C   0  0  0  0  0  0  0  0  0  0  0  0
   -0.1326    1.6882    2.9309 H   0  0  0  0  0  0  0  0  0  0  0  0
   -1.1877    0.2755    2.9545 H   0  0  0  0  0  0  0  0  0  0  0  0
    0.4961    0.0950    4.2437 C   0  0  0  0  0  0  0  0  0  0  0  0
    1.4902    0.5242    4.3928 H   0  0  0  0  0  0  0  0  0  0  0  0
   -0.1256    0.3862    5.0956 H   0  0  0  0  0  0  0  0  0  0  0  0
    0.5802   -0.9963    4.2344 H   0  0  0  0  0  0  0  0  0  0  0  0
    0.3356    0.1625   -0.9709 C   0  0  0  0  0  0  0  0  0  0  0  0
    1.2775    0.8592   -1.3277 O   0  0  0  0  0  0  0  0  0  0  0  0
   -0.3115   -0.5816   -1.9410 N   0  0  0  0  0  0  0  0  0  0  0  0
   -0.9884   -1.2488   -1.5788 H   0  0  0  0  0  0  0  0  0  0  0  0
    0.2446   -0.8115   -3.2687 C   0  0  0  0  0  0  0  0  0  0  0  0
    1.2130   -1.3175   -3.1958 H   0  0  0  0  0  0  0  0  0  0  0  0
   -0.4318   -1.4385   -3.8571 H   0  0  0  0  0  0  0  0  0  0  0  0
    0.3813    0.1376   -3.7975 H   0  0  0  0  0  0  0  0  0  0  0  0
  1  2  1  0  0  0  0
  2  3  1  0  0  0  0
  2  4  1  0  0  0  0
  2  5  1  0  0  0  0
  5  6  2  0  0  0  0
  5  7  1  0  0  0  0
  7  8  1  0  0  0  0
  7  9  1  0  0  0  0
  9 10  1  0  0  0  0
  9 11  1  0  0  0  0
  9 24  1  0  0  0  0
 11 12  1  0  0  0  0
 11 13  1  0  0  0  0
 11 17  1  0  0  0  0
 13 14  1  0  0  0  0
 13 15  1  0  0  0  0
 13 16  1  0  0  0  0
 17 18  1  0  0  0  0
 17 19  1  0  0  0  0
 17 20  1  0  0  0  0
 20 21  1  0  0  0  0
 20 22  1  0  0  0  0
 20 23  1  0  0  0  0
 24 25  2  0  0  0  0
 24 26  1  0  0  0  0
 26 27  1  0  0  0  0
 26 28  1  0  0  0  0
 28 29  1  0  0  0  0
 28 30  1  0  0  0  0
 28 31  1  0  0  0  0
M  END
$$$$

  -OEChem-01062216083D

 31 30  0     1  0  0  0  0  0999 V2000
   -3.2680   -3.0509    1.6215 H   0  0  0  0  0  0  0  0  0  0  0  0
   -3.2612   -1.9996    1.3193 C   0  0  0  0  0  0  0  0  0  0  0  0
   -3.5617   -1.3885    2.1740 H   0  0  0  0  0  0  0  0  0  0  0  0
   -3.9808   -1.8615    0.5087 H   0  0  0  0  0  0  0  0  0  0  0  0
   -1.8728   -1.5992    0.8569 C   0  0  0  0  0  0  0  0  0  0  0  0
   -1.0156   -2.4531    0.7202 O   0  0  0  0  0  0  0  0  0  0  0  0
   -1.6351   -0.2948    0.4651 N   0  0  0  0  0  0  0  0  0  0  0  0
   -2.4324    0.3245    0.5780 H   0  0  0  0  0  0  0  0  0  0  0  0
   -0.3069    0.3731    0.4087 C   0  0  1  0  0  0  0  0  0  0  0  0
   -0.4874    1.4516    0.4460 H   0  0  0  0  0  0  0  0  0  0  0  0
    0.5703    0.0445    1.6715 C   0  0  1  0  0  0  0  0  0  0  0  0
    0.6916   -1.0366    1.7721 H   0  0  0  0  0  0  0  0  0  0  0  0
    1.9889    0.6451    1.5893 C   0  0  0  0  0  0  0  0  0  0  0  0
    1.9447    1.7103    1.3416 H   0  0  0  0  0  0  0  0  0  0  0  0
    2.5302    0.5309    2.5302 H   0  0  0  0  0  0  0  0  0  0  0  0
    2.5815    0.1284    0.8297 H   0  0  0  0  0  0  0  0  0  0  0  0
   -0.1401    0.5997    2.9353 C   0  0  0  0  0  0  0  0  0  0  0  0
   -0.1279    1.6945    2.9143 H   0  0  0  0  0  0  0  0  0  0  0  0
   -1.1870    0.2849    2.9380 H   0  0  0  0  0  0  0  0  0  0  0  0
    0.4772    0.1132    4.2514 C   0  0  0  0  0  0  0  0  0  0  0  0
    1.4613    0.5576    4.4212 H   0  0  0  0  0  0  0  0  0  0  0  0
   -0.1665    0.3972    5.0892 H   0  0  0  0  0  0  0  0  0  0  0  0
    0.5774   -0.9767    4.2469 H   0  0  0  0  0  0  0  0  0  0  0  0
    0.3372    0.1594   -0.9920 C   0  0  0  0  0  0  0  0  0  0  0  0
    1.4198    0.6490   -1.2850 O   0  0  0  0  0  0  0  0  0  0  0  0
   -0.4458   -0.2919   -2.0403 N   0  0  0  0  0  0  0  0  0  0  0  0
   -1.2836   -0.7944   -1.7633 H   0  0  0  0  0  0  0  0  0  0  0  0
    0.0655   -0.4849   -3.3922 C   0  0  0  0  0  0  0  0  0  0  0  0
    0.8892   -1.2066   -3.3906 H   0  0  0  0  0  0  0  0  0  0  0  0
   -0.7266   -0.8633   -4.0450 H   0  0  0  0  0  0  0  0  0  0  0  0
    0.4278    0.4627   -3.8049 H   0  0  0  0  0  0  0  0  0  0  0  0
  1  2  1  0  0  0  0
  2  3  1  0  0  0  0
  2  4  1  0  0  0  0
  2  5  1  0  0  0  0
  5  6  2  0  0  0  0
  5  7  1  0  0  0  0
  7  8  1  0  0  0  0
  7  9  1  0  0  0  0
  9 10  1  0  0  0  0
  9 11  1  0  0  0  0
  9 24  1  0  0  0  0
 11 12  1  0  0  0  0
 11 13  1  0  0  0  0
 11 17  1  0  0  0  0
 13 14  1  0  0  0  0
 13 15  1  0  0  0  0
 13 16  1  0  0  0  0
 17 18  1  0  0  0  0
 17 19  1  0  0  0  0
 17 20  1  0  0  0  0
 20 21  1  0  0  0  0
 20 22  1  0  0  0  0
 20 23  1  0  0  0  0
 24 25  2  0  0  0  0
 24 26  1  0  0  0  0
 26 27  1  0  0  0  0
 26 28  1  0  0  0  0
 28 29  1  0  0  0  0
 28 30  1  0  0  0  0
 28 31  1  0  0  0  0
M  END
$$$$

  -OEChem-01062216083D

 31 30  0     1  0  0  0  0  0999 V2000
   -3.2532   -3.0727    1.5453 H   0  0  0  0  0  0  0  0  0  0  0  0
   -3.2422   -2.0157    1.2635 C   0  0  0  0  0  0  0  0  0  0  0  0
   -3.5541   -1.4207    2.1253 H   0  0  0  0  0  0  0  0  0  0  0  0
   -3.9504   -1.8630    0.4456 H   0  0  0  0  0  0  0  0  0  0  0  0
   -1.8476   -1.6066    0.8282 C   0  0  0  0  0  0  0  0  0  0  0  0
   -0.9824   -2.4558    0.7184 O   0  0  0  0  0  0  0  0  0  0  0  0
   -1.6112   -0.2947    0.4580 N   0  0  0  0  0  0  0  0  0  0  0  0
   -2.4079    0.3211    0.5912 H   0  0  0  0  0  0  0  0  0  0  0  0
   -0.2818    0.3706    0.4110 C   0  0  1  0  0  0  0  0  0  0  0  0
   -0.4604    1.4489    0.4543 H   0  0  0  0  0  0  0  0  0  0  0  0
    0.5917    0.0408    1.6779 C   0  0  1  0  0  0  0  0  0  0  0  0
    0.7207   -1.0394    1.7803 H   0  0  0  0  0  0  0  0  0  0  0  0
    2.0040    0.6609    1.6089 C   0  0  0  0  0  0  0  0  0  0  0  0
    1.9521    1.7084    1.2963 H   0  0  0  0  0  0  0  0  0  0  0  0
    2.5162    0.6140    2.5711 H   0  0  0  0  0  0  0  0  0  0  0  0
    2.6319    0.1102    0.9041 H   0  0  0  0  0  0  0  0  0  0  0  0
   -0.1309    0.5978    2.9355 C   0  0  0  0  0  0  0  0  0  0  0  0
   -0.1228    1.6925    2.9124 H   0  0  0  0  0  0  0  0  0  0  0  0
   -1.1765    0.2791    2.9289 H   0  0  0  0  0  0  0  0  0  0  0  0
    0.4714    0.1169    4.2613 C   0  0  0  0  0  0  0  0  0  0  0  0
    1.4495    0.5679    4.4462 H   0  0  0  0  0  0  0  0  0  0  0  0
   -0.1863    0.3970    5.0897 H   0  0  0  0  0  0  0  0  0  0  0  0
    0.5787   -0.9724    4.2591 H   0  0  0  0  0  0  0  0  0  0  0  0
    0.3366    0.1649   -1.0040 C   0  0  0  0  0  0  0  0  0  0  0  0
    1.5212    0.3387   -1.2515 O   0  0  0  0  0  0  0  0  0  0  0  0
   -0.5133    0.0413   -2.0904 N   0  0  0  0  0  0  0  0  0  0  0  0
   -1.4662   -0.2257   -1.8667 H   0  0  0  0  0  0  0  0  0  0  0  0
   -0.0392   -0.1519   -3.4563 C   0  0  0  0  0  0  0  0  0  0  0  0
    0.5564   -1.0681   -3.5285 H   0  0  0  0  0  0  0  0  0  0  0  0
   -0.8872   -0.2335   -4.1430 H   0  0  0  0  0  0  0  0  0  0  0  0
    0.5786    0.6954   -3.7725 H   0  0  0  0  0  0  0  0  0  0  0  0
  1  2  1  0  0  0  0
  2  3  1  0  0  0  0
  2  4  1  0  0  0  0
  2  5  1  0  0  0  0
  5  6  2  0  0  0  0
  5  7  1  0  0  0  0
  7  8  1  0  0  0  0
  7  9  1  0  0  0  0
  9 10  1  0  0  0  0
  9 11  1  0  0  0  0
  9 24  1  0  0  0  0
 11 12  1  0  0  0  0
 11 13  1  0  0  0  0
 11 17  1  0  0  0  0
 13 14  1  0  0  0  0
 13 15  1  0  0  0  0
 13 16  1  0  0  0  0
 17 18  1  0  0  0  0
 17 19  1  0  0  0  0
 17 20  1  0  0  0  0
 20 21  1  0  0  0  0
 20 22  1  0  0  0  0
 20 23  1  0  0  0  0
 24 25  2  0  0  0  0
 24 26  1  0  0  0  0
 26 27  1  0  0  0  0
 26 28  1  0  0  0  0
 28 29  1  0  0  0  0
 28 30  1  0  0  0  0
 28 31  1  0  0  0  0
M  END
$$$$

  -OEChem-01062216083D

 31 30  0     1  0  0  0  0  0999 V2000
   -3.2774   -3.0677    1.4846 H   0  0  0  0  0  0  0  0  0  0  0  0
   -3.2606   -2.0203    1.1693 C   0  0  0  0  0  0  0  0  0  0  0  0
   -3.6391   -1.4029    1.9874 H   0  0  0  0  0  0  0  0  0  0  0  0
   -3.9120   -1.9047    0.2997 H   0  0  0  0  0  0  0  0  0  0  0  0
   -1.8447   -1.6050    0.8157 C   0  0  0  0  0  0  0  0  0  0  0  0
   -0.9716   -2.4517    0.7731 O   0  0  0  0  0  0  0  0  0  0  0  0
   -1.5987   -0.2899    0.4620 N   0  0  0  0  0  0  0  0  0  0  0  0
   -2.4015    0.3225    0.5677 H   0  0  0  0  0  0  0  0  0  0  0  0
   -0.2699    0.3741    0.4290 C   0  0  1  0  0  0  0  0  0  0  0  0
   -0.4471    1.4522    0.4805 H   0  0  0  0  0  0  0  0  0  0  0  0
    0.6130    0.0445    1.6862 C   0  0  1  0  0  0  0  0  0  0  0  0
    0.7628   -1.0337    1.7804 H   0  0  0  0  0  0  0  0  0  0  0  0
    2.0080    0.7071    1.6111 C   0  0  0  0  0  0  0  0  0  0  0  0
    1.9229    1.7538    1.3037 H   0  0  0  0  0  0  0  0  0  0  0  0
    2.5248    0.6726    2.5714 H   0  0  0  0  0  0  0  0  0  0  0  0
    2.6541    0.1829    0.9038 H   0  0  0  0  0  0  0  0  0  0  0  0
   -0.1083    0.5905    2.9490 C   0  0  0  0  0  0  0  0  0  0  0  0
   -0.1121    1.6854    2.9315 H   0  0  0  0  0  0  0  0  0  0  0  0
   -1.1505    0.2602    2.9446 H   0  0  0  0  0  0  0  0  0  0  0  0
    0.5044    0.1081    4.2694 C   0  0  0  0  0  0  0  0  0  0  0  0
    1.4783    0.5681    4.4538 H   0  0  0  0  0  0  0  0  0  0  0  0
   -0.1537    0.3756    5.1017 H   0  0  0  0  0  0  0  0  0  0  0  0
    0.6232   -0.9798    4.2596 H   0  0  0  0  0  0  0  0  0  0  0  0
    0.3343    0.1710   -0.9917 C   0  0  0  0  0  0  0  0  0  0  0  0
    1.5161   -0.0507   -1.2109 O   0  0  0  0  0  0  0  0  0  0  0  0
   -0.4847    0.3734   -2.0904 N   0  0  0  0  0  0  0  0  0  0  0  0
   -1.4804    0.4051   -1.9021 H   0  0  0  0  0  0  0  0  0  0  0  0
   -0.0425    0.1607   -3.4641 C   0  0  0  0  0  0  0  0  0  0  0  0
    0.2389   -0.8865   -3.6176 H   0  0  0  0  0  0  0  0  0  0  0  0
   -0.8460    0.4115   -4.1630 H   0  0  0  0  0  0  0  0  0  0  0  0
    0.8210    0.7944   -3.6927 H   0  0  0  0  0  0  0  0  0  0  0  0
  1  2  1  0  0  0  0
  2  3  1  0  0  0  0
  2  4  1  0  0  0  0
  2  5  1  0  0  0  0
  5  6  2  0  0  0  0
  5  7  1  0  0  0  0
  7  8  1  0  0  0  0
  7  9  1  0  0  0  0
  9 10  1  0  0  0  0
  9 11  1  0  0  0  0
  9 24  1  0  0  0  0
 11 12  1  0  0  0  0
 11 13  1  0  0  0  0
 11 17  1  0  0  0  0
 13 14  1  0  0  0  0
 13 15  1  0  0  0  0
 13 16  1  0  0  0  0
 17 18  1  0  0  0  0
 17 19  1  0  0  0  0
 17 20  1  0  0  0  0
 20 21  1  0  0  0  0
 20 22  1  0  0  0  0
 20 23  1  0  0  0  0
 24 25  2  0  0  0  0
 24 26  1  0  0  0  0
 26 27  1  0  0  0  0
 26 28  1  0  0  0  0
 28 29  1  0  0  0  0
 28 30  1  0  0  0  0
 28 31  1  0  0  0  0
M  END
$$$$

  -OEChem-01062216083D

 31 30  0     1  0  0  0  0  0999 V2000
   -3.3670   -3.0649    1.3471 H   0  0  0  0  0  0  0  0  0  0  0  0
   -3.3191   -2.0186    1.0313 C   0  0  0  0  0  0  0  0  0  0  0  0
   -3.7963   -1.4002    1.7951 H   0  0  0  0  0  0  0  0  0  0  0  0
   -3.8626   -1.9111    0.0896 H   0  0  0  0  0  0  0  0  0  0  0  0
   -1.8736   -1.5954    0.8470 C   0  0  0  0  0  0  0  0  0  0  0  0
   -0.9985   -2.4309    0.9725 O   0  0  0  0  0  0  0  0  0  0  0  0
   -1.6054   -0.2845    0.4903 N   0  0  0  0  0  0  0  0  0  0  0  0
   -2.4241    0.3133    0.4471 H   0  0  0  0  0  0  0  0  0  0  0  0
   -0.2825    0.3895    0.4665 C   0  0  1  0  0  0  0  0  0  0  0  0
   -0.4667    1.4660    0.5239 H   0  0  0  0  0  0  0  0  0  0  0  0
    0.6296    0.0660    1.6984 C   0  0  1  0  0  0  0  0  0  0  0  0
    0.8156   -1.0085    1.7700 H   0  0  0  0  0  0  0  0  0  0  0  0
    1.9975    0.7814    1.5956 C   0  0  0  0  0  0  0  0  0  0  0  0
    1.8607    1.8564    1.4442 H   0  0  0  0  0  0  0  0  0  0  0  0
    2.5898    0.6318    2.5007 H   0  0  0  0  0  0  0  0  0  0  0  0
    2.5973    0.3897    0.7725 H   0  0  0  0  0  0  0  0  0  0  0  0
   -0.0701    0.5823    2.9833 C   0  0  0  0  0  0  0  0  0  0  0  0
   -0.0990    1.6769    2.9822 H   0  0  0  0  0  0  0  0  0  0  0  0
   -1.1044    0.2277    2.9988 H   0  0  0  0  0  0  0  0  0  0  0  0
    0.5900    0.0923    4.2769 C   0  0  0  0  0  0  0  0  0  0  0  0
    1.5672    0.5575    4.4291 H   0  0  0  0  0  0  0  0  0  0  0  0
   -0.0398    0.3475    5.1344 H   0  0  0  0  0  0  0  0  0  0  0  0
    0.7157   -0.9948    4.2521 H   0  0  0  0  0  0  0  0  0  0  0  0
    0.3269    0.1755   -0.9472 C   0  0  0  0  0  0  0  0  0  0  0  0
    1.3749   -0.4192   -1.1543 O   0  0  0  0  0  0  0  0  0  0  0  0
   -0.3642    0.6566   -2.0473 N   0  0  0  0  0  0  0  0  0  0  0  0
   -1.2876    1.0399   -1.8806 H   0  0  0  0  0  0  0  0  0  0  0  0
    0.0585    0.4185   -3.4230 C   0  0  0  0  0  0  0  0  0  0  0  0
    0.0575   -0.6542   -3.6434 H   0  0  0  0  0  0  0  0  0  0  0  0
   -0.6219    0.9169   -4.1198 H   0  0  0  0  0  0  0  0  0  0  0  0
    1.0677    0.8108   -3.5875 H   0  0  0  0  0  0  0  0  0  0  0  0
  1  2  1  0  0  0  0
  2  3  1  0  0  0  0
  2  4  1  0  0  0  0
  2  5  1  0  0  0  0
  5  6  2  0  0  0  0
  5  7  1  0  0  0  0
  7  8  1  0  0  0  0
  7  9  1  0  0  0  0
  9 10  1  0  0  0  0
  9 11  1  0  0  0  0
  9 24  1  0  0  0  0
 11 12  1  0  0  0  0
 11 13  1  0  0  0  0
 11 17  1  0  0  0  0
 13 14  1  0  0  0  0
 13 15  1  0  0  0  0
 13 16  1  0  0  0  0
 17 18  1  0  0  0  0
 17 19  1  0  0  0  0
 17 20  1  0  0  0  0
 20 21  1  0  0  0  0
 20 22  1  0  0  0  0
 20 23  1  0  0  0  0
 24 25  2  0  0  0  0
 24 26  1  0  0  0  0
 26 27  1  0  0  0  0
 26 28  1  0  0  0  0
 28 29  1  0  0  0  0
 28 30  1  0  0  0  0
 28 31  1  0  0  0  0
M  END
$$$$

  -OEChem-01062216083D

 31 30  0     1  0  0  0  0  0999 V2000
   -3.4597   -3.0769    1.2380 H   0  0  0  0  0  0  0  0  0  0  0  0
   -3.3824   -2.0369    0.9074 C   0  0  0  0  0  0  0  0  0  0  0  0
   -3.9783   -1.4114    1.5763 H   0  0  0  0  0  0  0  0  0  0  0  0
   -3.7812   -1.9615   -0.1071 H   0  0  0  0  0  0  0  0  0  0  0  0
   -1.9327   -1.5879    0.9288 C   0  0  0  0  0  0  0  0  0  0  0  0
   -1.0817   -2.3897    1.2642 O   0  0  0  0  0  0  0  0  0  0  0  0
   -1.6426   -0.2872    0.5506 N   0  0  0  0  0  0  0  0  0  0  0  0
   -2.4507    0.2620    0.2777 H   0  0  0  0  0  0  0  0  0  0  0  0
   -0.3217    0.3889    0.5098 C   0  0  1  0  0  0  0  0  0  0  0  0
   -0.5115    1.4642    0.5672 H   0  0  0  0  0  0  0  0  0  0  0  0
    0.6301    0.0804    1.7105 C   0  0  1  0  0  0  0  0  0  0  0  0
    0.8310   -0.9919    1.7755 H   0  0  0  0  0  0  0  0  0  0  0  0
    1.9858    0.8042    1.5418 C   0  0  0  0  0  0  0  0  0  0  0  0
    1.8387    1.8849    1.4530 H   0  0  0  0  0  0  0  0  0  0  0  0
    2.6404    0.6118    2.3951 H   0  0  0  0  0  0  0  0  0  0  0  0
    2.5197    0.4545    0.6553 H   0  0  0  0  0  0  0  0  0  0  0  0
   -0.0266    0.5892    3.0185 C   0  0  0  0  0  0  0  0  0  0  0  0
   -0.0674    1.6833    3.0195 H   0  0  0  0  0  0  0  0  0  0  0  0
   -1.0559    0.2228    3.0707 H   0  0  0  0  0  0  0  0  0  0  0  0
    0.6907    0.1038    4.2822 C   0  0  0  0  0  0  0  0  0  0  0  0
    1.6781    0.5621    4.3809 H   0  0  0  0  0  0  0  0  0  0  0  0
    0.1049    0.3708    5.1668 H   0  0  0  0  0  0  0  0  0  0  0  0
    0.8068   -0.9844    4.2596 H   0  0  0  0  0  0  0  0  0  0  0  0
    0.2896    0.1562   -0.8965 C   0  0  0  0  0  0  0  0  0  0  0  0
    1.1631   -0.6712   -1.1161 O   0  0  0  0  0  0  0  0  0  0  0  0
   -0.2121    0.8701   -1.9721 N   0  0  0  0  0  0  0  0  0  0  0  0
   -0.9538    1.5375   -1.7920 H   0  0  0  0  0  0  0  0  0  0  0  0
    0.2635    0.6955   -3.3399 C   0  0  0  0  0  0  0  0  0  0  0  0
    0.0984   -0.3343   -3.6744 H   0  0  0  0  0  0  0  0  0  0  0  0
   -0.2717    1.3690   -4.0160 H   0  0  0  0  0  0  0  0  0  0  0  0
    1.3337    0.9195   -3.4045 H   0  0  0  0  0  0  0  0  0  0  0  0
  1  2  1  0  0  0  0
  2  3  1  0  0  0  0
  2  4  1  0  0  0  0
  2  5  1  0  0  0  0
  5  6  2  0  0  0  0
  5  7  1  0  0  0  0
  7  8  1  0  0  0  0
  7  9  1  0  0  0  0
  9 10  1  0  0  0  0
  9 11  1  0  0  0  0
  9 24  1  0  0  0  0
 11 12  1  0  0  0  0
 11 13  1  0  0  0  0
 11 17  1  0  0  0  0
 13 14  1  0  0  0  0
 13 15  1  0  0  0  0
 13 16  1  0  0  0  0
 17 18  1  0  0  0  0
 17 19  1  0  0  0  0
 17 20  1  0  0  0  0
 20 21  1  0  0  0  0
 20 22  1  0  0  0  0
 20 23  1  0  0  0  0
 24 25  2  0  0  0  0
 24 26  1  0  0  0  0
 26 27  1  0  0  0  0
 26 28  1  0  0  0  0
 28 29  1  0  0  0  0
 28 30  1  0  0  0  0
 28 31  1  0  0  0  0
M  END
$$$$

  -OEChem-01062216083D

 31 30  0     1  0  0  0  0  0999 V2000
   -3.4846   -3.0953    1.1418 H   0  0  0  0  0  0  0  0  0  0  0  0
   -3.4016   -2.0560    0.8108 C   0  0  0  0  0  0  0  0  0  0  0  0
   -4.0904   -1.4444    1.3981 H   0  0  0  0  0  0  0  0  0  0  0  0
   -3.6815   -2.0021   -0.2438 H   0  0  0  0  0  0  0  0  0  0  0  0
   -1.9793   -1.5599    0.9964 C   0  0  0  0  0  0  0  0  0  0  0  0
   -1.1684   -2.3117    1.5042 O   0  0  0  0  0  0  0  0  0  0  0  0
   -1.6832   -0.2647    0.6010 N   0  0  0  0  0  0  0  0  0  0  0  0
   -2.4563    0.2174    0.1544 H   0  0  0  0  0  0  0  0  0  0  0  0
   -0.3610    0.4075    0.5447 C   0  0  1  0  0  0  0  0  0  0  0  0
   -0.5517    1.4821    0.6076 H   0  0  0  0  0  0  0  0  0  0  0  0
    0.6218    0.0976    1.7169 C   0  0  1  0  0  0  0  0  0  0  0  0
    0.8232   -0.9752    1.7714 H   0  0  0  0  0  0  0  0  0  0  0  0
    1.9739    0.8109    1.4962 C   0  0  0  0  0  0  0  0  0  0  0  0
    1.8328    1.8935    1.4201 H   0  0  0  0  0  0  0  0  0  0  0  0
    2.6616    0.6074    2.3206 H   0  0  0  0  0  0  0  0  0  0  0  0
    2.4631    0.4591    0.5838 H   0  0  0  0  0  0  0  0  0  0  0  0
    0.0060    0.5970    3.0467 C   0  0  0  0  0  0  0  0  0  0  0  0
   -0.0343    1.6908    3.0552 H   0  0  0  0  0  0  0  0  0  0  0  0
   -1.0214    0.2305    3.1278 H   0  0  0  0  0  0  0  0  0  0  0  0
    0.7645    0.1046    4.2831 C   0  0  0  0  0  0  0  0  0  0  0  0
    1.7594    0.5532    4.3453 H   0  0  0  0  0  0  0  0  0  0  0  0
    0.2141    0.3762    5.1889 H   0  0  0  0  0  0  0  0  0  0  0  0
    0.8690   -0.9847    4.2560 H   0  0  0  0  0  0  0  0  0  0  0  0
    0.2505    0.1639   -0.8572 C   0  0  0  0  0  0  0  0  0  0  0  0
    0.9117   -0.8309   -1.1186 O   0  0  0  0  0  0  0  0  0  0  0  0
   -0.0096    1.0642   -1.8768 N   0  0  0  0  0  0  0  0  0  0  0  0
   -0.5380    1.8995   -1.6485 H   0  0  0  0  0  0  0  0  0  0  0  0
    0.5158    0.9103   -3.2288 C   0  0  0  0  0  0  0  0  0  0  0  0
    0.1711   -0.0314   -3.6690 H   0  0  0  0  0  0  0  0  0  0  0  0
    0.1749    1.7332   -3.8642 H   0  0  0  0  0  0  0  0  0  0  0  0
    1.6110    0.9127   -3.2167 H   0  0  0  0  0  0  0  0  0  0  0  0
  1  2  1  0  0  0  0
  2  3  1  0  0  0  0
  2  4  1  0  0  0  0
  2  5  1  0  0  0  0
  5  6  2  0  0  0  0
  5  7  1  0  0  0  0
  7  8  1  0  0  0  0
  7  9  1  0  0  0  0
  9 10  1  0  0  0  0
  9 11  1  0  0  0  0
  9 24  1  0  0  0  0
 11 12  1  0  0  0  0
 11 13  1  0  0  0  0
 11 17  1  0  0  0  0
 13 14  1  0  0  0  0
 13 15  1  0  0  0  0
 13 16  1  0  0  0  0
 17 18  1  0  0  0  0
 17 19  1  0  0  0  0
 17 20  1  0  0  0  0
 20 21  1  0  0  0  0
 20 22  1  0  0  0  0
 20 23  1  0  0  0  0
 24 25  2  0  0  0  0
 24 26  1  0  0  0  0
 26 27  1  0  0  0  0
 26 28  1  0  0  0  0
 28 29  1  0  0  0  0
 28 30  1  0  0  0  0
 28 31  1  0  0  0  0
M  END
$$$$

  -OEChem-01062216083D

 31 30  0     1  0  0  0  0  0999 V2000
   -3.4706   -3.1080    1.0882 H   0  0  0  0  0  0  0  0  0  0  0  0
   -3.3915   -2.0723    0.7452 C   0  0  0  0  0  0  0  0  0  0  0  0
   -4.1470   -1.4732    1.2590 H   0  0  0  0  0  0  0  0  0  0  0  0
   -3.5800   -2.0456   -0.3307 H   0  0  0  0  0  0  0  0  0  0  0  0
   -2.0060   -1.5283    1.0411 C   0  0  0  0  0  0  0  0  0  0  0  0
   -1.2304   -2.2365    1.6568 O   0  0  0  0  0  0  0  0  0  0  0  0
   -1.7124   -0.2350    0.6361 N   0  0  0  0  0  0  0  0  0  0  0  0
   -2.4541    0.1972    0.0948 H   0  0  0  0  0  0  0  0  0  0  0  0
   -0.3868    0.4303    0.5697 C   0  0  1  0  0  0  0  0  0  0  0  0
   -0.5758    1.5048    0.6379 H   0  0  0  0  0  0  0  0  0  0  0  0
    0.6153    0.1113    1.7212 C   0  0  1  0  0  0  0  0  0  0  0  0
    0.8111   -0.9632    1.7648 H   0  0  0  0  0  0  0  0  0  0  0  0
    1.9696    0.8101    1.4737 C   0  0  0  0  0  0  0  0  0  0  0  0
    1.8383    1.8937    1.3950 H   0  0  0  0  0  0  0  0  0  0  0  0
    2.6698    0.6034    2.2870 H   0  0  0  0  0  0  0  0  0  0  0  0
    2.4371    0.4470    0.5536 H   0  0  0  0  0  0  0  0  0  0  0  0
    0.0256    0.6037    3.0649 C   0  0  0  0  0  0  0  0  0  0  0  0
   -0.0100    1.6977    3.0806 H   0  0  0  0  0  0  0  0  0  0  0  0
   -1.0017    0.2403    3.1625 H   0  0  0  0  0  0  0  0  0  0  0  0
    0.8055    0.1016    4.2839 C   0  0  0  0  0  0  0  0  0  0  0  0
    1.8033    0.5458    4.3302 H   0  0  0  0  0  0  0  0  0  0  0  0
    0.2728    0.3698    5.2013 H   0  0  0  0  0  0  0  0  0  0  0  0
    0.9047   -0.9881    4.2486 H   0  0  0  0  0  0  0  0  0  0  0  0
    0.2234    0.1824   -0.8311 C   0  0  0  0  0  0  0  0  0  0  0  0
    0.6200   -0.9221   -1.1744 O   0  0  0  0  0  0  0  0  0  0  0  0
    0.2413    1.2063   -1.7631 N   0  0  0  0  0  0  0  0  0  0  0  0
   -0.0569    2.1278   -1.4601 H   0  0  0  0  0  0  0  0  0  0  0  0
    0.7947    1.0524   -3.1040 C   0  0  0  0  0  0  0  0  0  0  0  0
    0.2724    0.2566   -3.6455 H   0  0  0  0  0  0  0  0  0  0  0  0
    0.6843    1.9830   -3.6688 H   0  0  0  0  0  0  0  0  0  0  0  0
    1.8597    0.8025   -3.0526 H   0  0  0  0  0  0  0  0  0  0  0  0
  1  2  1  0  0  0  0
  2  3  1  0  0  0  0
  2  4  1  0  0  0  0
  2  5  1  0  0  0  0
  5  6  2  0  0  0  0
  5  7  1  0  0  0  0
  7  8  1  0  0  0  0
  7  9  1  0  0  0  0
  9 10  1  0  0  0  0
  9 11  1  0  0  0  0
  9 24  1  0  0  0  0
 11 12  1  0  0  0  0
 11 13  1  0  0  0  0
 11 17  1  0  0  0  0
 13 14  1  0  0  0  0
 13 15  1  0  0  0  0
 13 16  1  0  0  0  0
 17 18  1  0  0  0  0
 17 19  1  0  0  0  0
 17 20  1  0  0  0  0
 20 21  1  0  0  0  0
 20 22  1  0  0  0  0
 20 23  1  0  0  0  0
 24 25  2  0  0  0  0
 24 26  1  0  0  0  0
 26 27  1  0  0  0  0
 26 28  1  0  0  0  0
 28 29  1  0  0  0  0
 28 30  1  0  0  0  0
 28 31  1  0  0  0  0
M  END
$$$$

  -OEChem-01062216083D

 31 30  0     1  0  0  0  0  0999 V2000
   -3.4570   -3.1110    1.0593 H   0  0  0  0  0  0  0  0  0  0  0  0
   -3.3737   -2.0802    0.7031 C   0  0  0  0  0  0  0  0  0  0  0  0
   -4.1622   -1.4830    1.1669 H   0  0  0  0  0  0  0  0  0  0  0  0
   -3.5068   -2.0735   -0.3815 H   0  0  0  0  0  0  0  0  0  0  0  0
   -2.0124   -1.5119    1.0598 C   0  0  0  0  0  0  0  0  0  0  0  0
   -1.2595   -2.1968    1.7289 O   0  0  0  0  0  0  0  0  0  0  0  0
   -1.7203   -0.2189    0.6531 N   0  0  0  0  0  0  0  0  0  0  0  0
   -2.4384    0.1811    0.0579 H   0  0  0  0  0  0  0  0  0  0  0  0
   -0.3919    0.4407    0.5844 C   0  0  1  0  0  0  0  0  0  0  0  0
   -0.5820    1.5154    0.6530 H   0  0  0  0  0  0  0  0  0  0  0  0
    0.6160    0.1178    1.7297 C   0  0  1  0  0  0  0  0  0  0  0  0
    0.8057   -0.9579    1.7704 H   0  0  0  0  0  0  0  0  0  0  0  0
    1.9741    0.8071    1.4781 C   0  0  0  0  0  0  0  0  0  0  0  0
    1.8495    1.8912    1.3980 H   0  0  0  0  0  0  0  0  0  0  0  0
    2.6746    0.5976    2.2903 H   0  0  0  0  0  0  0  0  0  0  0  0
    2.4374    0.4386    0.5581 H   0  0  0  0  0  0  0  0  0  0  0  0
    0.0348    0.6106    3.0771 C   0  0  0  0  0  0  0  0  0  0  0  0
    0.0023    1.7046    3.0938 H   0  0  0  0  0  0  0  0  0  0  0  0
   -0.9932    0.2502    3.1800 H   0  0  0  0  0  0  0  0  0  0  0  0
    0.8194    0.1059    4.2921 C   0  0  0  0  0  0  0  0  0  0  0  0
    1.8160    0.5524    4.3371 H   0  0  0  0  0  0  0  0  0  0  0  0
    0.2887    0.3701    5.2118 H   0  0  0  0  0  0  0  0  0  0  0  0
    0.9211   -0.9834    4.2531 H   0  0  0  0  0  0  0  0  0  0  0  0
    0.2193    0.1931   -0.8162 C   0  0  0  0  0  0  0  0  0  0  0  0
    0.3194   -0.9342   -1.2805 O   0  0  0  0  0  0  0  0  0  0  0  0
    0.5294    1.2686   -1.6312 N   0  0  0  0  0  0  0  0  0  0  0  0
    0.4661    2.1990   -1.2304 H   0  0  0  0  0  0  0  0  0  0  0  0
    1.0780    1.1181   -2.9741 C   0  0  0  0  0  0  0  0  0  0  0  0
    0.3952    0.5391   -3.6050 H   0  0  0  0  0  0  0  0  0  0  0  0
    1.2247    2.0992   -3.4358 H   0  0  0  0  0  0  0  0  0  0  0  0
    2.0443    0.6041   -2.9368 H   0  0  0  0  0  0  0  0  0  0  0  0
  1  2  1  0  0  0  0
  2  3  1  0  0  0  0
  2  4  1  0  0  0  0
  2  5  1  0  0  0  0
  5  6  2  0  0  0  0
  5  7  1  0  0  0  0
  7  8  1  0  0  0  0
  7  9  1  0  0  0  0
  9 10  1  0  0  0  0
  9 11  1  0  0  0  0
  9 24  1  0  0  0  0
 11 12  1  0  0  0  0
 11 13  1  0  0  0  0
 11 17  1  0  0  0  0
 13 14  1  0  0  0  0
 13 15  1  0  0  0  0
 13 16  1  0  0  0  0
 17 18  1  0  0  0  0
 17 19  1  0  0  0  0
 17 20  1  0  0  0  0
 20 21  1  0  0  0  0
 20 22  1  0  0  0  0
 20 23  1  0  0  0  0
 24 25  2  0  0  0  0
 24 26  1  0  0  0  0
 26 27  1  0  0  0  0
 26 28  1  0  0  0  0
 28 29  1  0  0  0  0
 28 30  1  0  0  0  0
 28 31  1  0  0  0  0
M  END
$$$$

  -OEChem-01062216083D

 31 30  0     1  0  0  0  0  0999 V2000
   -3.4446   -3.1157    1.0497 H   0  0  0  0  0  0  0  0  0  0  0  0
   -3.3590   -2.0864    0.6901 C   0  0  0  0  0  0  0  0  0  0  0  0
   -4.1586   -1.4897    1.1350 H   0  0  0  0  0  0  0  0  0  0  0  0
   -3.4710   -2.0858   -0.3969 H   0  0  0  0  0  0  0  0  0  0  0  0
   -2.0076   -1.5096    1.0694 C   0  0  0  0  0  0  0  0  0  0  0  0
   -1.2589   -2.1906    1.7480 O   0  0  0  0  0  0  0  0  0  0  0  0
   -1.7168   -0.2160    0.6649 N   0  0  0  0  0  0  0  0  0  0  0  0
   -2.4204    0.1651    0.0402 H   0  0  0  0  0  0  0  0  0  0  0  0
   -0.3862    0.4397    0.5896 C   0  0  1  0  0  0  0  0  0  0  0  0
   -0.5769    1.5145    0.6548 H   0  0  0  0  0  0  0  0  0  0  0  0
    0.6189    0.1165    1.7395 C   0  0  1  0  0  0  0  0  0  0  0  0
    0.8013   -0.9599    1.7871 H   0  0  0  0  0  0  0  0  0  0  0  0
    1.9855    0.7907    1.4954 C   0  0  0  0  0  0  0  0  0  0  0  0
    1.8698    1.8739    1.3912 H   0  0  0  0  0  0  0  0  0  0  0  0
    2.6731    0.5941    2.3217 H   0  0  0  0  0  0  0  0  0  0  0  0
    2.4596    0.3969    0.5916 H   0  0  0  0  0  0  0  0  0  0  0  0
    0.0354    0.6198    3.0826 C   0  0  0  0  0  0  0  0  0  0  0  0
    0.0074    1.7140    3.0937 H   0  0  0  0  0  0  0  0  0  0  0  0
   -0.9946    0.2651    3.1836 H   0  0  0  0  0  0  0  0  0  0  0  0
    0.8121    0.1187    4.3042 C   0  0  0  0  0  0  0  0  0  0  0  0
    1.8065    0.5694    4.3564 H   0  0  0  0  0  0  0  0  0  0  0  0
    0.2733    0.3823    5.2192 H   0  0  0  0  0  0  0  0  0  0  0  0
    0.9182   -0.9703    4.2682 H   0  0  0  0  0  0  0  0  0  0  0  0
    0.2215    0.1982   -0.8162 C   0  0  0  0  0  0  0  0  0  0  0  0
    0.0380   -0.8507   -1.4206 O   0  0  0  0  0  0  0  0  0  0  0  0
    0.8161    1.2465   -1.4985 N   0  0  0  0  0  0  0  0  0  0  0  0
    0.9805    2.1072   -0.9859 H   0  0  0  0  0  0  0  0  0  0  0  0
    1.3659    1.1145   -2.8429 C   0  0  0  0  0  0  0  0  0  0  0  0
    0.5866    0.8056   -3.5477 H   0  0  0  0  0  0  0  0  0  0  0  0
    1.7750    2.0716   -3.1803 H   0  0  0  0  0  0  0  0  0  0  0  0
    2.1688    0.3698   -2.8568 H   0  0  0  0  0  0  0  0  0  0  0  0
  1  2  1  0  0  0  0
  2  3  1  0  0  0  0
  2  4  1  0  0  0  0
  2  5  1  0  0  0  0
  5  6  2  0  0  0  0
  5  7  1  0  0  0  0
  7  8  1  0  0  0  0
  7  9  1  0  0  0  0
  9 10  1  0  0  0  0
  9 11  1  0  0  0  0
  9 24  1  0  0  0  0
 11 12  1  0  0  0  0
 11 13  1  0  0  0  0
 11 17  1  0  0  0  0
 13 14  1  0  0  0  0
 13 15  1  0  0  0  0
 13 16  1  0  0  0  0
 17 18  1  0  0  0  0
 17 19  1  0  0  0  0
 17 20  1  0  0  0  0
 20 21  1  0  0  0  0
 20 22  1  0  0  0  0
 20 23  1  0  0  0  0
 24 25  2  0  0  0  0
 24 26  1  0  0  0  0
 26 27  1  0  0  0  0
 26 28  1  0  0  0  0
 28 29  1  0  0  0  0
 28 30  1  0  0  0  0
 28 31  1  0  0  0  0
M  END
$$$$

  -OEChem-01062216083D

 31 30  0     1  0  0  0  0  0999 V2000
   -3.4268   -3.1156    1.0463 H   0  0  0  0  0  0  0  0  0  0  0  0
   -3.3410   -2.0838    0.6937 C   0  0  0  0  0  0  0  0  0  0  0  0
   -4.1370   -1.4889    1.1479 H   0  0  0  0  0  0  0  0  0  0  0  0
   -3.4593   -2.0744   -0.3927 H   0  0  0  0  0  0  0  0  0  0  0  0
   -1.9857   -1.5132    1.0683 C   0  0  0  0  0  0  0  0  0  0  0  0
   -1.2275   -2.2089    1.7214 O   0  0  0  0  0  0  0  0  0  0  0  0
   -1.6954   -0.2169    0.6723 N   0  0  0  0  0  0  0  0  0  0  0  0
   -2.3957    0.1594    0.0406 H   0  0  0  0  0  0  0  0  0  0  0  0
   -0.3666    0.4443    0.5911 C   0  0  1  0  0  0  0  0  0  0  0  0
   -0.5572    1.5191    0.6565 H   0  0  0  0  0  0  0  0  0  0  0  0
    0.6278    0.1149    1.7538 C   0  0  1  0  0  0  0  0  0  0  0  0
    0.8037   -0.9618    1.8062 H   0  0  0  0  0  0  0  0  0  0  0  0
    2.0062    0.7738    1.5402 C   0  0  0  0  0  0  0  0  0  0  0  0
    1.9029    1.8547    1.4041 H   0  0  0  0  0  0  0  0  0  0  0  0
    2.6649    0.5952    2.3933 H   0  0  0  0  0  0  0  0  0  0  0  0
    2.5076    0.3491    0.6661 H   0  0  0  0  0  0  0  0  0  0  0  0
    0.0261    0.6224    3.0883 C   0  0  0  0  0  0  0  0  0  0  0  0
    0.0022    1.7167    3.0950 H   0  0  0  0  0  0  0  0  0  0  0  0
   -1.0069    0.2723    3.1751 H   0  0  0  0  0  0  0  0  0  0  0  0
    0.7794    0.1225    4.3259 C   0  0  0  0  0  0  0  0  0  0  0  0
    1.7736    0.5707    4.3992 H   0  0  0  0  0  0  0  0  0  0  0  0
    0.2229    0.3882    5.2297 H   0  0  0  0  0  0  0  0  0  0  0  0
    0.8835   -0.9668    4.2932 H   0  0  0  0  0  0  0  0  0  0  0  0
    0.2291    0.2124   -0.8255 C   0  0  0  0  0  0  0  0  0  0  0  0
   -0.1794   -0.6900   -1.5473 O   0  0  0  0  0  0  0  0  0  0  0  0
    1.0783    1.1492   -1.3912 N   0  0  0  0  0  0  0  0  0  0  0  0
    1.4256    1.8889   -0.7888 H   0  0  0  0  0  0  0  0  0  0  0  0
    1.6287    1.0236   -2.7361 C   0  0  0  0  0  0  0  0  0  0  0  0
    0.8243    0.9964   -3.4788 H   0  0  0  0  0  0  0  0  0  0  0  0
    2.2765    1.8761   -2.9614 H   0  0  0  0  0  0  0  0  0  0  0  0
    2.2204    0.1062   -2.8239 H   0  0  0  0  0  0  0  0  0  0  0  0
  1  2  1  0  0  0  0
  2  3  1  0  0  0  0
  2  4  1  0  0  0  0
  2  5  1  0  0  0  0
  5  6  2  0  0  0  0
  5  7  1  0  0  0  0
  7  8  1  0  0  0  0
  7  9  1  0  0  0  0
  9 10  1  0  0  0  0
  9 11  1  0  0  0  0
  9 24  1  0  0  0  0
 11 12  1  0  0  0  0
 11 13  1  0  0  0  0
 11 17  1  0  0  0  0
 13 14  1  0  0  0  0
 13 15  1  0  0  0  0
 13 16  1  0  0  0  0
 17 18  1  0  0  0  0
 17 19  1  0  0  0  0
 17 20  1  0  0  0  0
 20 21  1  0  0  0  0
 20 22  1  0  0  0  0
 20 23  1  0  0  0  0
 24 25  2  0  0  0  0
 24 26  1  0  0  0  0
 26 27  1  0  0  0  0
 26 28  1  0  0  0  0
 28 29  1  0  0  0  0
 28 30  1  0  0  0  0
 28 31  1  0  0  0  0
M  END
$$$$

  -OEChem-01062216083D

 31 30  0     1  0  0  0  0  0999 V2000
   -3.4053   -3.1184    1.0279 H   0  0  0  0  0  0  0  0  0  0  0  0
   -3.3220   -2.0773    0.7032 C   0  0  0  0  0  0  0  0  0  0  0  0
   -4.0975   -1.4904    1.2009 H   0  0  0  0  0  0  0  0  0  0  0  0
   -3.4766   -2.0343   -0.3779 H   0  0  0  0  0  0  0  0  0  0  0  0
   -1.9504   -1.5275    1.0493 C   0  0  0  0  0  0  0  0  0  0  0  0
   -1.1728   -2.2511    1.6468 O   0  0  0  0  0  0  0  0  0  0  0  0
   -1.6596   -0.2258    0.6732 N   0  0  0  0  0  0  0  0  0  0  0  0
   -2.3630    0.1605    0.0503 H   0  0  0  0  0  0  0  0  0  0  0  0
   -0.3334    0.4426    0.5939 C   0  0  1  0  0  0  0  0  0  0  0  0
   -0.5239    1.5174    0.6614 H   0  0  0  0  0  0  0  0  0  0  0  0
    0.6421    0.1100    1.7779 C   0  0  1  0  0  0  0  0  0  0  0  0
    0.8124   -0.9665    1.8392 H   0  0  0  0  0  0  0  0  0  0  0  0
    2.0320    0.7557    1.6081 C   0  0  0  0  0  0  0  0  0  0  0  0
    1.9404    1.8293    1.4169 H   0  0  0  0  0  0  0  0  0  0  0  0
    2.6473    0.6169    2.4999 H   0  0  0  0  0  0  0  0  0  0  0  0
    2.5763    0.2849    0.7853 H   0  0  0  0  0  0  0  0  0  0  0  0
    0.0093    0.6244    3.0972 C   0  0  0  0  0  0  0  0  0  0  0  0
   -0.0128    1.7189    3.0984 H   0  0  0  0  0  0  0  0  0  0  0  0
   -1.0258    0.2766    3.1606 H   0  0  0  0  0  0  0  0  0  0  0  0
    0.7266    0.1315    4.3590 C   0  0  0  0  0  0  0  0  0  0  0  0
    1.7126    0.5907    4.4663 H   0  0  0  0  0  0  0  0  0  0  0  0
    0.1375    0.3913    5.2437 H   0  0  0  0  0  0  0  0  0  0  0  0
    0.8432   -0.9566    4.3304 H   0  0  0  0  0  0  0  0  0  0  0  0
    0.2448    0.2268   -0.8370 C   0  0  0  0  0  0  0  0  0  0  0  0
   -0.3466   -0.4733   -1.6527 O   0  0  0  0  0  0  0  0  0  0  0  0
    1.3079    0.9776   -1.3100 N   0  0  0  0  0  0  0  0  0  0  0  0
    1.8051    1.5536   -0.6381 H   0  0  0  0  0  0  0  0  0  0  0  0
    1.8466    0.8517   -2.6596 C   0  0  0  0  0  0  0  0  0  0  0  0
    1.0782    1.0874   -3.4035 H   0  0  0  0  0  0  0  0  0  0  0  0
    2.6837    1.5424   -2.7991 H   0  0  0  0  0  0  0  0  0  0  0  0
    2.2057   -0.1680   -2.8342 H   0  0  0  0  0  0  0  0  0  0  0  0
  1  2  1  0  0  0  0
  2  3  1  0  0  0  0
  2  4  1  0  0  0  0
  2  5  1  0  0  0  0
  5  6  2  0  0  0  0
  5  7  1  0  0  0  0
  7  8  1  0  0  0  0
  7  9  1  0  0  0  0
  9 10  1  0  0  0  0
  9 11  1  0  0  0  0
  9 24  1  0  0  0  0
 11 12  1  0  0  0  0
 11 13  1  0  0  0  0
 11 17  1  0  0  0  0
 13 14  1  0  0  0  0
 13 15  1  0  0  0  0
 13 16  1  0  0  0  0
 17 18  1  0  0  0  0
 17 19  1  0  0  0  0
 17 20  1  0  0  0  0
 20 21  1  0  0  0  0
 20 22  1  0  0  0  0
 20 23  1  0  0  0  0
 24 25  2  0  0  0  0
 24 26  1  0  0  0  0
 26 27  1  0  0  0  0
 26 28  1  0  0  0  0
 28 29  1  0  0  0  0
 28 30  1  0  0  0  0
 28 31  1  0  0  0  0
M  END
$$$$

  -OEChem-01062216083D

 31 30  0     1  0  0  0  0  0999 V2000
   -3.5045   -3.0515    0.9760 H   0  0  0  0  0  0  0  0  0  0  0  0
   -3.3699   -2.0076    0.6794 C   0  0  0  0  0  0  0  0  0  0  0  0
   -4.0938   -1.3923    1.2187 H   0  0  0  0  0  0  0  0  0  0  0  0
   -3.5550   -1.9213   -0.3942 H   0  0  0  0  0  0  0  0  0  0  0  0
   -1.9592   -1.5478    0.9978 C   0  0  0  0  0  0  0  0  0  0  0  0
   -1.1976   -2.3453    1.5176 O   0  0  0  0  0  0  0  0  0  0  0  0
   -1.6130   -0.2500    0.6571 N   0  0  0  0  0  0  0  0  0  0  0  0
   -2.3055    0.1839    0.0502 H   0  0  0  0  0  0  0  0  0  0  0  0
   -0.2770    0.4026    0.5889 C   0  0  1  0  0  0  0  0  0  0  0  0
   -0.4212    1.4336    0.9242 H   0  0  0  0  0  0  0  0  0  0  0  0
    0.8127   -0.1895    1.5550 C   0  0  1  0  0  0  0  0  0  0  0  0
    0.9430   -1.2562    1.3561 H   0  0  0  0  0  0  0  0  0  0  0  0
    2.2011    0.4617    1.3845 C   0  0  0  0  0  0  0  0  0  0  0  0
    2.1185    1.5530    1.3686 H   0  0  0  0  0  0  0  0  0  0  0  0
    2.8789    0.1835    2.1935 H   0  0  0  0  0  0  0  0  0  0  0  0
    2.6761    0.1157    0.4634 H   0  0  0  0  0  0  0  0  0  0  0  0
    0.3428    0.0267    3.0214 C   0  0  0  0  0  0  0  0  0  0  0  0
    0.3640    1.0948    3.2606 H   0  0  0  0  0  0  0  0  0  0  0  0
   -0.6930   -0.3039    3.1316 H   0  0  0  0  0  0  0  0  0  0  0  0
    1.1734   -0.7351    4.0612 C   0  0  0  0  0  0  0  0  0  0  0  0
    2.1747   -0.3113    4.1696 H   0  0  0  0  0  0  0  0  0  0  0  0
    0.6805   -0.6811    5.0366 H   0  0  0  0  0  0  0  0  0  0  0  0
    1.2619   -1.7888    3.7786 H   0  0  0  0  0  0  0  0  0  0  0  0
    0.0908    0.5347   -0.9223 C   0  0  0  0  0  0  0  0  0  0  0  0
   -0.7526    0.2782   -1.7775 O   0  0  0  0  0  0  0  0  0  0  0  0
    1.2713    1.1008   -1.3705 N   0  0  0  0  0  0  0  0  0  0  0  0
    1.9700    1.3343   -0.6725 H   0  0  0  0  0  0  0  0  0  0  0  0
    1.6018    1.2808   -2.7799 C   0  0  0  0  0  0  0  0  0  0  0  0
    0.8527    1.9091   -3.2734 H   0  0  0  0  0  0  0  0  0  0  0  0
    2.5775    1.7658   -2.8806 H   0  0  0  0  0  0  0  0  0  0  0  0
    1.6417    0.3125   -3.2898 H   0  0  0  0  0  0  0  0  0  0  0  0
  1  2  1  0  0  0  0
  2  3  1  0  0  0  0
  2  4  1  0  0  0  0
  2  5  1  0  0  0  0
  5  6  2  0  0  0  0
  5  7  1  0  0  0  0
  7  8  1  0  0  0  0
  7  9  1  0  0  0  0
  9 10  1  0  0  0  0
  9 11  1  0  0  0  0
  9 24  1  0  0  0  0
 11 12  1  0  0  0  0
 11 13  1  0  0  0  0
 11 17  1  0  0  0  0
 13 14  1  0  0  0  0
 13 15  1  0  0  0  0
 13 16  1  0  0  0  0
 17 18  1  0  0  0  0
 17 19  1  0  0  0  0
 17 20  1  0  0  0  0
 20 21  1  0  0  0  0
 20 22  1  0  0  0  0
 20 23  1  0  0  0  0
 24 25  2  0  0  0  0
 24 26  1  0  0  0  0
 26 27  1  0  0  0  0
 26 28  1  0  0  0  0
 28 29  1  0  0  0  0
 28 30  1  0  0  0  0
 28 31  1  0  0  0  0
M  END
$$$$

  -OEChem-01062216083D

 31 30  0     1  0  0  0  0  0999 V2000
   -3.4917   -3.0504    0.9625 H   0  0  0  0  0  0  0  0  0  0  0  0
   -3.3536   -2.0046    0.6733 C   0  0  0  0  0  0  0  0  0  0  0  0
   -4.0638   -1.3889    1.2304 H   0  0  0  0  0  0  0  0  0  0  0  0
   -3.5563   -1.9065   -0.3962 H   0  0  0  0  0  0  0  0  0  0  0  0
   -1.9340   -1.5591    0.9728 C   0  0  0  0  0  0  0  0  0  0  0  0
   -1.1656   -2.3701    1.4604 O   0  0  0  0  0  0  0  0  0  0  0  0
   -1.5821   -0.2598    0.6460 N   0  0  0  0  0  0  0  0  0  0  0  0
   -2.2768    0.1959    0.0570 H   0  0  0  0  0  0  0  0  0  0  0  0
   -0.2454    0.3916    0.5958 C   0  0  1  0  0  0  0  0  0  0  0  0
   -0.3905    1.4239    0.9277 H   0  0  0  0  0  0  0  0  0  0  0  0
    0.8293   -0.1994    1.5803 C   0  0  1  0  0  0  0  0  0  0  0  0
    0.9704   -1.2661    1.3895 H   0  0  0  0  0  0  0  0  0  0  0  0
    2.2147    0.4685    1.4377 C   0  0  0  0  0  0  0  0  0  0  0  0
    2.1127    1.5503    1.3060 H   0  0  0  0  0  0  0  0  0  0  0  0
    2.8449    0.2945    2.3112 H   0  0  0  0  0  0  0  0  0  0  0  0
    2.7575    0.0444    0.5899 H   0  0  0  0  0  0  0  0  0  0  0  0
    0.3297    0.0233    3.0364 C   0  0  0  0  0  0  0  0  0  0  0  0
    0.3442    1.0926    3.2713 H   0  0  0  0  0  0  0  0  0  0  0  0
   -0.7073   -0.3101    3.1252 H   0  0  0  0  0  0  0  0  0  0  0  0
    1.1364   -0.7336    4.0992 C   0  0  0  0  0  0  0  0  0  0  0  0
    2.1333   -0.3078    4.2343 H   0  0  0  0  0  0  0  0  0  0  0  0
    0.6182   -0.6792    5.0614 H   0  0  0  0  0  0  0  0  0  0  0  0
    1.2350   -1.7878    3.8212 H   0  0  0  0  0  0  0  0  0  0  0  0
    0.1167    0.5250   -0.9177 C   0  0  0  0  0  0  0  0  0  0  0  0
   -0.7910    0.5140   -1.7456 O   0  0  0  0  0  0  0  0  0  0  0  0
    1.3830    0.8022   -1.4009 N   0  0  0  0  0  0  0  0  0  0  0  0
    2.1414    0.8383   -0.7291 H   0  0  0  0  0  0  0  0  0  0  0  0
    1.6945    0.9666   -2.8168 C   0  0  0  0  0  0  0  0  0  0  0  0
    1.1104    1.7873   -3.2468 H   0  0  0  0  0  0  0  0  0  0  0  0
    2.7566    1.1958   -2.9461 H   0  0  0  0  0  0  0  0  0  0  0  0
    1.4692    0.0470   -3.3671 H   0  0  0  0  0  0  0  0  0  0  0  0
  1  2  1  0  0  0  0
  2  3  1  0  0  0  0
  2  4  1  0  0  0  0
  2  5  1  0  0  0  0
  5  6  2  0  0  0  0
  5  7  1  0  0  0  0
  7  8  1  0  0  0  0
  7  9  1  0  0  0  0
  9 10  1  0  0  0  0
  9 11  1  0  0  0  0
  9 24  1  0  0  0  0
 11 12  1  0  0  0  0
 11 13  1  0  0  0  0
 11 17  1  0  0  0  0
 13 14  1  0  0  0  0
 13 15  1  0  0  0  0
 13 16  1  0  0  0  0
 17 18  1  0  0  0  0
 17 19  1  0  0  0  0
 17 20  1  0  0  0  0
 20 21  1  0  0  0  0
 20 22  1  0  0  0  0
 20 23  1  0  0  0  0
 24 25  2  0  0  0  0
 24 26  1  0  0  0  0
 26 27  1  0  0  0  0
 26 28  1  0  0  0  0
 28 29  1  0  0  0  0
 28 30  1  0  0  0  0
 28 31  1  0  0  0  0
M  END
$$$$

  -OEChem-01062216083D

 31 30  0     1  0  0  0  0  0999 V2000
   -3.3291   -3.0977    0.7082 H   0  0  0  0  0  0  0  0  0  0  0  0
   -3.2833   -2.0139    0.5685 C   0  0  0  0  0  0  0  0  0  0  0  0
   -3.9164   -1.5359    1.3199 H   0  0  0  0  0  0  0  0  0  0  0  0
   -3.6635   -1.7714   -0.4269 H   0  0  0  0  0  0  0  0  0  0  0  0
   -1.8533   -1.5263    0.7092 C   0  0  0  0  0  0  0  0  0  0  0  0
   -0.9682   -2.3487    0.8705 O   0  0  0  0  0  0  0  0  0  0  0  0
   -1.6058   -0.1712    0.5812 N   0  0  0  0  0  0  0  0  0  0  0  0
   -2.4009    0.3722    0.2509 H   0  0  0  0  0  0  0  0  0  0  0  0
   -0.3133    0.5571    0.5870 C   0  0  1  0  0  0  0  0  0  0  0  0
   -0.4995    1.5231    1.0663 H   0  0  0  0  0  0  0  0  0  0  0  0
    0.8507   -0.0725    1.4268 C   0  0  1  0  0  0  0  0  0  0  0  0
    1.0966   -1.0753    1.0701 H   0  0  0  0  0  0  0  0  0  0  0  0
    2.1277    0.8029    1.3901 C   0  0  0  0  0  0  0  0  0  0  0  0
    1.9097    1.8147    1.7462 H   0  0  0  0  0  0  0  0  0  0  0  0
    2.5535    0.8838    0.3944 H   0  0  0  0  0  0  0  0  0  0  0  0
    2.9116    0.3761    2.0196 H   0  0  0  0  0  0  0  0  0  0  0  0
    0.4129   -0.0982    2.9181 C   0  0  0  0  0  0  0  0  0  0  0  0
    0.3441    0.9215    3.3112 H   0  0  0  0  0  0  0  0  0  0  0  0
   -0.5847   -0.5386    2.9953 H   0  0  0  0  0  0  0  0  0  0  0  0
    1.3374   -0.9277    3.8171 C   0  0  0  0  0  0  0  0  0  0  0  0
    2.3128   -0.4508    3.9418 H   0  0  0  0  0  0  0  0  0  0  0  0
    0.8881   -1.0349    4.8090 H   0  0  0  0  0  0  0  0  0  0  0  0
    1.4826   -1.9269    3.3945 H   0  0  0  0  0  0  0  0  0  0  0  0
   -0.0977    0.9127   -0.9160 C   0  0  0  0  0  0  0  0  0  0  0  0
   -1.0135    1.4743   -1.5038 O   0  0  0  0  0  0  0  0  0  0  0  0
    1.0759    1.0616   -1.6154 N   0  0  0  0  0  0  0  0  0  0  0  0
    0.9107    1.6439   -2.4331 H   0  0  0  0  0  0  0  0  0  0  0  0
    1.8940   -0.1186   -1.8788 C   0  0  0  0  0  0  0  0  0  0  0  0
    1.6315   -0.5443   -2.8526 H   0  0  0  0  0  0  0  0  0  0  0  0
    2.9544    0.1524   -1.8914 H   0  0  0  0  0  0  0  0  0  0  0  0
    1.7451   -0.8949   -1.1224 H   0  0  0  0  0  0  0  0  0  0  0  0
  1  2  1  0  0  0  0
  2  3  1  0  0  0  0
  2  4  1  0  0  0  0
  2  5  1  0  0  0  0
  5  6  2  0  0  0  0
  5  7  1  0  0  0  0
  7  8  1  0  0  0  0
  7  9  1  0  0  0  0
  9 10  1  0  0  0  0
  9 11  1  0  0  0  0
  9 24  1  0  0  0  0
 11 12  1  0  0  0  0
 11 13  1  0  0  0  0
 11 17  1  0  0  0  0
 13 14  1  0  0  0  0
 13 15  1  0  0  0  0
 13 16  1  0  0  0  0
 17 18  1  0  0  0  0
 17 19  1  0  0  0  0
 17 20  1  0  0  0  0
 20 21  1  0  0  0  0
 20 22  1  0  0  0  0
 20 23  1  0  0  0  0
 24 25  2  0  0  0  0
 24 26  1  0  0  0  0
 26 27  1  0  0  0  0
 26 28  1  0  0  0  0
 28 29  1  0  0  0  0
 28 30  1  0  0  0  0
 28 31  1  0  0  0  0
M  END
$$$$

  -OEChem-01062216083D

 31 30  0     1  0  0  0  0  0999 V2000
   -3.5139   -3.0058    1.0291 H   0  0  0  0  0  0  0  0  0  0  0  0
   -3.3704   -1.9660    0.7220 C   0  0  0  0  0  0  0  0  0  0  0  0
   -4.0325   -1.3300    1.3144 H   0  0  0  0  0  0  0  0  0  0  0  0
   -3.6337   -1.8717   -0.3345 H   0  0  0  0  0  0  0  0  0  0  0  0
   -1.9268   -1.5501    0.9346 C   0  0  0  0  0  0  0  0  0  0  0  0
   -1.1356   -2.3787    1.3507 O   0  0  0  0  0  0  0  0  0  0  0  0
   -1.5613   -0.2585    0.5985 N   0  0  0  0  0  0  0  0  0  0  0  0
   -2.2739    0.2522    0.0803 H   0  0  0  0  0  0  0  0  0  0  0  0
   -0.2192    0.3742    0.5831 C   0  0  1  0  0  0  0  0  0  0  0  0
   -0.3630    1.4147    0.8899 H   0  0  0  0  0  0  0  0  0  0  0  0
    0.8469   -0.1933    1.5849 C   0  0  1  0  0  0  0  0  0  0  0  0
    1.0220   -1.2577    1.4069 H   0  0  0  0  0  0  0  0  0  0  0  0
    2.2014    0.5492    1.4634 C   0  0  0  0  0  0  0  0  0  0  0  0
    2.0418    1.6291    1.3822 H   0  0  0  0  0  0  0  0  0  0  0  0
    2.7722    0.2116    0.5984 H   0  0  0  0  0  0  0  0  0  0  0  0
    2.8410    0.3668    2.3284 H   0  0  0  0  0  0  0  0  0  0  0  0
    0.3256    0.0448    3.0295 C   0  0  0  0  0  0  0  0  0  0  0  0
    0.3204    1.1167    3.2530 H   0  0  0  0  0  0  0  0  0  0  0  0
   -0.7076   -0.3042    3.1060 H   0  0  0  0  0  0  0  0  0  0  0  0
    1.1284   -0.6921    4.1087 C   0  0  0  0  0  0  0  0  0  0  0  0
    2.1198   -0.2548    4.2482 H   0  0  0  0  0  0  0  0  0  0  0  0
    0.6004   -0.6322    5.0651 H   0  0  0  0  0  0  0  0  0  0  0  0
    1.2409   -1.7480    3.8433 H   0  0  0  0  0  0  0  0  0  0  0  0
    0.1553    0.4614   -0.9227 C   0  0  0  0  0  0  0  0  0  0  0  0
   -0.6799    0.9202   -1.6963 O   0  0  0  0  0  0  0  0  0  0  0  0
    1.3886    0.1178   -1.4431 N   0  0  0  0  0  0  0  0  0  0  0  0
    2.0146   -0.3897   -0.8254 H   0  0  0  0  0  0  0  0  0  0  0  0
    1.7057    0.1726   -2.8653 C   0  0  0  0  0  0  0  0  0  0  0  0
    1.5689    1.1888   -3.2498 H   0  0  0  0  0  0  0  0  0  0  0  0
    2.7469   -0.1201   -3.0312 H   0  0  0  0  0  0  0  0  0  0  0  0
    1.0593   -0.5081   -3.4291 H   0  0  0  0  0  0  0  0  0  0  0  0
  1  2  1  0  0  0  0
  2  3  1  0  0  0  0
  2  4  1  0  0  0  0
  2  5  1  0  0  0  0
  5  6  2  0  0  0  0
  5  7  1  0  0  0  0
  7  8  1  0  0  0  0
  7  9  1  0  0  0  0
  9 10  1  0  0  0  0
  9 11  1  0  0  0  0
  9 24  1  0  0  0  0
 11 12  1  0  0  0  0
 11 13  1  0  0  0  0
 11 17  1  0  0  0  0
 13 14  1  0  0  0  0
 13 15  1  0  0  0  0
 13 16  1  0  0  0  0
 17 18  1  0  0  0  0
 17 19  1  0  0  0  0
 17 20  1  0  0  0  0
 20 21  1  0  0  0  0
 20 22  1  0  0  0  0
 20 23  1  0  0  0  0
 24 25  2  0  0  0  0
 24 26  1  0  0  0  0
 26 27  1  0  0  0  0
 26 28  1  0  0  0  0
 28 29  1  0  0  0  0
 28 30  1  0  0  0  0
 28 31  1  0  0  0  0
M  END
$$$$

  -OEChem-01062216083D

 31 30  0     1  0  0  0  0  0999 V2000
   -3.5017   -3.0222    1.0535 H   0  0  0  0  0  0  0  0  0  0  0  0
   -3.3713   -1.9824    0.7406 C   0  0  0  0  0  0  0  0  0  0  0  0
   -4.0143   -1.3475    1.3548 H   0  0  0  0  0  0  0  0  0  0  0  0
   -3.6711   -1.8899   -0.3061 H   0  0  0  0  0  0  0  0  0  0  0  0
   -1.9218   -1.5635    0.9031 C   0  0  0  0  0  0  0  0  0  0  0  0
   -1.1099   -2.3938    1.2737 O   0  0  0  0  0  0  0  0  0  0  0  0
   -1.5689   -0.2683    0.5675 N   0  0  0  0  0  0  0  0  0  0  0  0
   -2.3031    0.2628    0.1037 H   0  0  0  0  0  0  0  0  0  0  0  0
   -0.2357    0.3799    0.5745 C   0  0  1  0  0  0  0  0  0  0  0  0
   -0.3922    1.4179    0.8836 H   0  0  0  0  0  0  0  0  0  0  0  0
    0.8372   -0.1824    1.5662 C   0  0  1  0  0  0  0  0  0  0  0  0
    1.0371   -1.2379    1.3624 H   0  0  0  0  0  0  0  0  0  0  0  0
    2.1699    0.6008    1.4601 C   0  0  0  0  0  0  0  0  0  0  0  0
    1.9988    1.6704    1.6185 H   0  0  0  0  0  0  0  0  0  0  0  0
    2.8891    0.2535    2.2053 H   0  0  0  0  0  0  0  0  0  0  0  0
    2.6519    0.4738    0.4912 H   0  0  0  0  0  0  0  0  0  0  0  0
    0.3209    0.0161    3.0169 C   0  0  0  0  0  0  0  0  0  0  0  0
    0.2954    1.0822    3.2648 H   0  0  0  0  0  0  0  0  0  0  0  0
   -0.7045   -0.3555    3.0936 H   0  0  0  0  0  0  0  0  0  0  0  0
    1.1509   -0.7295    4.0681 C   0  0  0  0  0  0  0  0  0  0  0  0
    2.1463   -0.2928    4.1798 H   0  0  0  0  0  0  0  0  0  0  0  0
    0.6502   -0.6759    5.0395 H   0  0  0  0  0  0  0  0  0  0  0  0
    1.2555   -1.7836    3.7922 H   0  0  0  0  0  0  0  0  0  0  0  0
    0.1587    0.4613   -0.9219 C   0  0  0  0  0  0  0  0  0  0  0  0
   -0.5708    1.0922   -1.6791 O   0  0  0  0  0  0  0  0  0  0  0  0
    1.2837   -0.1457   -1.4483 N   0  0  0  0  0  0  0  0  0  0  0  0
    1.7884   -0.7770   -0.8319 H   0  0  0  0  0  0  0  0  0  0  0  0
    1.6098   -0.1406   -2.8690 C   0  0  0  0  0  0  0  0  0  0  0  0
    1.6921    0.8866   -3.2397 H   0  0  0  0  0  0  0  0  0  0  0  0
    2.5660   -0.6446   -3.0389 H   0  0  0  0  0  0  0  0  0  0  0  0
    0.8357   -0.6615   -3.4420 H   0  0  0  0  0  0  0  0  0  0  0  0
  1  2  1  0  0  0  0
  2  3  1  0  0  0  0
  2  4  1  0  0  0  0
  2  5  1  0  0  0  0
  5  6  2  0  0  0  0
  5  7  1  0  0  0  0
  7  8  1  0  0  0  0
  7  9  1  0  0  0  0
  9 10  1  0  0  0  0
  9 11  1  0  0  0  0
  9 24  1  0  0  0  0
 11 12  1  0  0  0  0
 11 13  1  0  0  0  0
 11 17  1  0  0  0  0
 13 14  1  0  0  0  0
 13 15  1  0  0  0  0
 13 16  1  0  0  0  0
 17 18  1  0  0  0  0
 17 19  1  0  0  0  0
 17 20  1  0  0  0  0
 20 21  1  0  0  0  0
 20 22  1  0  0  0  0
 20 23  1  0  0  0  0
 24 25  2  0  0  0  0
 24 26  1  0  0  0  0
 26 27  1  0  0  0  0
 26 28  1  0  0  0  0
 28 29  1  0  0  0  0
 28 30  1  0  0  0  0
 28 31  1  0  0  0  0
M  END
$$$$

  -OEChem-01062216083D

 31 30  0     1  0  0  0  0  0999 V2000
   -3.5075   -3.0245    1.1046 H   0  0  0  0  0  0  0  0  0  0  0  0
   -3.3875   -1.9836    0.7908 C   0  0  0  0  0  0  0  0  0  0  0  0
   -3.9971   -1.3491    1.4385 H   0  0  0  0  0  0  0  0  0  0  0  0
   -3.7372   -1.8843   -0.2397 H   0  0  0  0  0  0  0  0  0  0  0  0
   -1.9300   -1.5724    0.8855 C   0  0  0  0  0  0  0  0  0  0  0  0
   -1.1022   -2.4093    1.2023 O   0  0  0  0  0  0  0  0  0  0  0  0
   -1.5849   -0.2781    0.5404 N   0  0  0  0  0  0  0  0  0  0  0  0
   -2.3423    0.2763    0.1481 H   0  0  0  0  0  0  0  0  0  0  0  0
   -0.2562    0.3766    0.5538 C   0  0  1  0  0  0  0  0  0  0  0  0
   -0.4218    1.4141    0.8616 H   0  0  0  0  0  0  0  0  0  0  0  0
    0.8197   -0.1743    1.5440 C   0  0  1  0  0  0  0  0  0  0  0  0
    1.0226   -1.2292    1.3414 H   0  0  0  0  0  0  0  0  0  0  0  0
    2.1477    0.6075    1.4078 C   0  0  0  0  0  0  0  0  0  0  0  0
    1.9920    1.6691    1.6244 H   0  0  0  0  0  0  0  0  0  0  0  0
    2.9003    0.2205    2.0994 H   0  0  0  0  0  0  0  0  0  0  0  0
    2.5718    0.5247    0.4056 H   0  0  0  0  0  0  0  0  0  0  0  0
    0.3133    0.0156    2.9970 C   0  0  0  0  0  0  0  0  0  0  0  0
    0.2815    1.0807    3.2482 H   0  0  0  0  0  0  0  0  0  0  0  0
   -0.7079   -0.3660    3.0805 H   0  0  0  0  0  0  0  0  0  0  0  0
    1.1626   -0.7270    4.0335 C   0  0  0  0  0  0  0  0  0  0  0  0
    2.1620   -0.2925    4.1166 H   0  0  0  0  0  0  0  0  0  0  0  0
    0.6856   -0.6654    5.0162 H   0  0  0  0  0  0  0  0  0  0  0  0
    1.2570   -1.7830    3.7614 H   0  0  0  0  0  0  0  0  0  0  0  0
    0.1731    0.4568   -0.9283 C   0  0  0  0  0  0  0  0  0  0  0  0
   -0.3947    1.2553   -1.6636 O   0  0  0  0  0  0  0  0  0  0  0  0
    1.1317   -0.3852   -1.4618 N   0  0  0  0  0  0  0  0  0  0  0  0
    1.4569   -1.1382   -0.8604 H   0  0  0  0  0  0  0  0  0  0  0  0
    1.4630   -0.4233   -2.8803 C   0  0  0  0  0  0  0  0  0  0  0  0
    1.8001    0.5611   -3.2217 H   0  0  0  0  0  0  0  0  0  0  0  0
    2.2667   -1.1433   -3.0616 H   0  0  0  0  0  0  0  0  0  0  0  0
    0.5897   -0.7215   -3.4698 H   0  0  0  0  0  0  0  0  0  0  0  0
  1  2  1  0  0  0  0
  2  3  1  0  0  0  0
  2  4  1  0  0  0  0
  2  5  1  0  0  0  0
  5  6  2  0  0  0  0
  5  7  1  0  0  0  0
  7  8  1  0  0  0  0
  7  9  1  0  0  0  0
  9 10  1  0  0  0  0
  9 11  1  0  0  0  0
  9 24  1  0  0  0  0
 11 12  1  0  0  0  0
 11 13  1  0  0  0  0
 11 17  1  0  0  0  0
 13 14  1  0  0  0  0
 13 15  1  0  0  0  0
 13 16  1  0  0  0  0
 17 18  1  0  0  0  0
 17 19  1  0  0  0  0
 17 20  1  0  0  0  0
 20 21  1  0  0  0  0
 20 22  1  0  0  0  0
 20 23  1  0  0  0  0
 24 25  2  0  0  0  0
 24 26  1  0  0  0  0
 26 27  1  0  0  0  0
 26 28  1  0  0  0  0
 28 29  1  0  0  0  0
 28 30  1  0  0  0  0
 28 31  1  0  0  0  0
M  END
$$$$

  -OEChem-01062216083D

 31 30  0     1  0  0  0  0  0999 V2000
   -3.5081   -3.0196    1.2128 H   0  0  0  0  0  0  0  0  0  0  0  0
   -3.4024   -1.9831    0.8798 C   0  0  0  0  0  0  0  0  0  0  0  0
   -3.9562   -1.3368    1.5650 H   0  0  0  0  0  0  0  0  0  0  0  0
   -3.8273   -1.8903   -0.1227 H   0  0  0  0  0  0  0  0  0  0  0  0
   -1.9380   -1.5857    0.8611 C   0  0  0  0  0  0  0  0  0  0  0  0
   -1.0928   -2.4360    1.0815 O   0  0  0  0  0  0  0  0  0  0  0  0
   -1.6041   -0.2912    0.5067 N   0  0  0  0  0  0  0  0  0  0  0  0
   -2.3863    0.2914    0.2193 H   0  0  0  0  0  0  0  0  0  0  0  0
   -0.2782    0.3695    0.5234 C   0  0  1  0  0  0  0  0  0  0  0  0
   -0.4513    1.4058    0.8318 H   0  0  0  0  0  0  0  0  0  0  0  0
    0.7973   -0.1756    1.5155 C   0  0  1  0  0  0  0  0  0  0  0  0
    0.9989   -1.2316    1.3178 H   0  0  0  0  0  0  0  0  0  0  0  0
    2.1266    0.5944    1.3508 C   0  0  0  0  0  0  0  0  0  0  0  0
    1.9806    1.6614    1.5470 H   0  0  0  0  0  0  0  0  0  0  0  0
    2.8853    0.2158    2.0405 H   0  0  0  0  0  0  0  0  0  0  0  0
    2.5318    0.4830    0.3419 H   0  0  0  0  0  0  0  0  0  0  0  0
    0.2959    0.0100    2.9694 C   0  0  0  0  0  0  0  0  0  0  0  0
    0.2630    1.0751    3.2212 H   0  0  0  0  0  0  0  0  0  0  0  0
   -0.7237   -0.3752    3.0556 H   0  0  0  0  0  0  0  0  0  0  0  0
    1.1529   -0.7307    4.0006 C   0  0  0  0  0  0  0  0  0  0  0  0
    2.1523   -0.2942    4.0751 H   0  0  0  0  0  0  0  0  0  0  0  0
    0.6827   -0.6685    4.9866 H   0  0  0  0  0  0  0  0  0  0  0  0
    1.2473   -1.7870    3.7294 H   0  0  0  0  0  0  0  0  0  0  0  0
    0.1874    0.4545   -0.9437 C   0  0  0  0  0  0  0  0  0  0  0  0
   -0.1558    1.4074   -1.6314 O   0  0  0  0  0  0  0  0  0  0  0  0
    0.9256   -0.5686   -1.5089 N   0  0  0  0  0  0  0  0  0  0  0  0
    1.0400   -1.4071   -0.9430 H   0  0  0  0  0  0  0  0  0  0  0  0
    1.2759   -0.6155   -2.9222 C   0  0  0  0  0  0  0  0  0  0  0  0
    1.8485    0.2742   -3.2045 H   0  0  0  0  0  0  0  0  0  0  0  0
    1.8873   -1.4986   -3.1307 H   0  0  0  0  0  0  0  0  0  0  0  0
    0.3728   -0.6642   -3.5394 H   0  0  0  0  0  0  0  0  0  0  0  0
  1  2  1  0  0  0  0
  2  3  1  0  0  0  0
  2  4  1  0  0  0  0
  2  5  1  0  0  0  0
  5  6  2  0  0  0  0
  5  7  1  0  0  0  0
  7  8  1  0  0  0  0
  7  9  1  0  0  0  0
  9 10  1  0  0  0  0
  9 11  1  0  0  0  0
  9 24  1  0  0  0  0
 11 12  1  0  0  0  0
 11 13  1  0  0  0  0
 11 17  1  0  0  0  0
 13 14  1  0  0  0  0
 13 15  1  0  0  0  0
 13 16  1  0  0  0  0
 17 18  1  0  0  0  0
 17 19  1  0  0  0  0
 17 20  1  0  0  0  0
 20 21  1  0  0  0  0
 20 22  1  0  0  0  0
 20 23  1  0  0  0  0
 24 25  2  0  0  0  0
 24 26  1  0  0  0  0
 26 27  1  0  0  0  0
 26 28  1  0  0  0  0
 28 29  1  0  0  0  0
 28 30  1  0  0  0  0
 28 31  1  0  0  0  0
M  END
$$$$

  -OEChem-01062216083D

 31 30  0     1  0  0  0  0  0999 V2000
   -3.4976   -3.0048    1.3273 H   0  0  0  0  0  0  0  0  0  0  0  0
   -3.4084   -1.9759    0.9672 C   0  0  0  0  0  0  0  0  0  0  0  0
   -3.9113   -1.3126    1.6749 H   0  0  0  0  0  0  0  0  0  0  0  0
   -3.8983   -1.8994   -0.0066 H   0  0  0  0  0  0  0  0  0  0  0  0
   -1.9465   -1.5901    0.8427 C   0  0  0  0  0  0  0  0  0  0  0  0
   -1.0932   -2.4521    0.9641 O   0  0  0  0  0  0  0  0  0  0  0  0
   -1.6246   -0.2959    0.4783 N   0  0  0  0  0  0  0  0  0  0  0  0
   -2.4216    0.3068    0.2915 H   0  0  0  0  0  0  0  0  0  0  0  0
   -0.3005    0.3698    0.4970 C   0  0  1  0  0  0  0  0  0  0  0  0
   -0.4779    1.4054    0.8055 H   0  0  0  0  0  0  0  0  0  0  0  0
    0.7744   -0.1773    1.4872 C   0  0  1  0  0  0  0  0  0  0  0  0
    0.9737   -1.2329    1.2866 H   0  0  0  0  0  0  0  0  0  0  0  0
    2.1058    0.5835    1.3092 C   0  0  0  0  0  0  0  0  0  0  0  0
    1.9639    1.6550    1.4829 H   0  0  0  0  0  0  0  0  0  0  0  0
    2.8634    0.2162    2.0059 H   0  0  0  0  0  0  0  0  0  0  0  0
    2.5074    0.4465    0.3010 H   0  0  0  0  0  0  0  0  0  0  0  0
    0.2772   -0.0006    2.9427 C   0  0  0  0  0  0  0  0  0  0  0  0
    0.2464    1.0630    3.2003 H   0  0  0  0  0  0  0  0  0  0  0  0
   -0.7420   -0.3863    3.0306 H   0  0  0  0  0  0  0  0  0  0  0  0
    1.1394   -0.7463    3.9659 C   0  0  0  0  0  0  0  0  0  0  0  0
    2.1368   -0.3053    4.0421 H   0  0  0  0  0  0  0  0  0  0  0  0
    0.6704   -0.6944    4.9531 H   0  0  0  0  0  0  0  0  0  0  0  0
    1.2391   -1.8000    3.6864 H   0  0  0  0  0  0  0  0  0  0  0  0
    0.1890    0.4530   -0.9603 C   0  0  0  0  0  0  0  0  0  0  0  0
    0.1079    1.5059   -1.5790 O   0  0  0  0  0  0  0  0  0  0  0  0
    0.6614   -0.6849   -1.5852 N   0  0  0  0  0  0  0  0  0  0  0  0
    0.5865   -1.5538   -1.0578 H   0  0  0  0  0  0  0  0  0  0  0  0
    1.0384   -0.7339   -2.9910 C   0  0  0  0  0  0  0  0  0  0  0  0
    1.8205    0.0025   -3.2039 H   0  0  0  0  0  0  0  0  0  0  0  0
    1.4224   -1.7267   -3.2442 H   0  0  0  0  0  0  0  0  0  0  0  0
    0.1725   -0.5230   -3.6270 H   0  0  0  0  0  0  0  0  0  0  0  0
  1  2  1  0  0  0  0
  2  3  1  0  0  0  0
  2  4  1  0  0  0  0
  2  5  1  0  0  0  0
  5  6  2  0  0  0  0
  5  7  1  0  0  0  0
  7  8  1  0  0  0  0
  7  9  1  0  0  0  0
  9 10  1  0  0  0  0
  9 11  1  0  0  0  0
  9 24  1  0  0  0  0
 11 12  1  0  0  0  0
 11 13  1  0  0  0  0
 11 17  1  0  0  0  0
 13 14  1  0  0  0  0
 13 15  1  0  0  0  0
 13 16  1  0  0  0  0
 17 18  1  0  0  0  0
 17 19  1  0  0  0  0
 17 20  1  0  0  0  0
 20 21  1  0  0  0  0
 20 22  1  0  0  0  0
 20 23  1  0  0  0  0
 24 25  2  0  0  0  0
 24 26  1  0  0  0  0
 26 27  1  0  0  0  0
 26 28  1  0  0  0  0
 28 29  1  0  0  0  0
 28 30  1  0  0  0  0
 28 31  1  0  0  0  0
M  END
$$$$

  -OEChem-01062216083D

 31 30  0     1  0  0  0  0  0999 V2000
   -3.4814   -3.0105    1.3905 H   0  0  0  0  0  0  0  0  0  0  0  0
   -3.4095   -1.9718    1.0555 C   0  0  0  0  0  0  0  0  0  0  0  0
   -3.8516   -1.3263    1.8183 H   0  0  0  0  0  0  0  0  0  0  0  0
   -3.9704   -1.8626    0.1240 H   0  0  0  0  0  0  0  0  0  0  0  0
   -1.9574   -1.5937    0.8332 C   0  0  0  0  0  0  0  0  0  0  0  0
   -1.1050   -2.4648    0.8536 O   0  0  0  0  0  0  0  0  0  0  0  0
   -1.6475   -0.2995    0.4604 N   0  0  0  0  0  0  0  0  0  0  0  0
   -2.4505    0.3157    0.3617 H   0  0  0  0  0  0  0  0  0  0  0  0
   -0.3224    0.3679    0.4737 C   0  0  1  0  0  0  0  0  0  0  0  0
   -0.4986    1.4041    0.7810 H   0  0  0  0  0  0  0  0  0  0  0  0
    0.7518   -0.1824    1.4628 C   0  0  1  0  0  0  0  0  0  0  0  0
    0.9454   -1.2389    1.2616 H   0  0  0  0  0  0  0  0  0  0  0  0
    2.0870    0.5696    1.2783 C   0  0  0  0  0  0  0  0  0  0  0  0
    1.9489    1.6446    1.4330 H   0  0  0  0  0  0  0  0  0  0  0  0
    2.8412    0.2116    1.9832 H   0  0  0  0  0  0  0  0  0  0  0  0
    2.4902    0.4127    0.2734 H   0  0  0  0  0  0  0  0  0  0  0  0
    0.2585   -0.0060    2.9199 C   0  0  0  0  0  0  0  0  0  0  0  0
    0.2325    1.0578    3.1780 H   0  0  0  0  0  0  0  0  0  0  0  0
   -0.7618   -0.3877    3.0102 H   0  0  0  0  0  0  0  0  0  0  0  0
    1.1212   -0.7552    3.9403 C   0  0  0  0  0  0  0  0  0  0  0  0
    2.1233   -0.3238    4.0073 H   0  0  0  0  0  0  0  0  0  0  0  0
    0.6609   -0.6945    4.9310 H   0  0  0  0  0  0  0  0  0  0  0  0
    1.2087   -1.8107    3.6641 H   0  0  0  0  0  0  0  0  0  0  0  0
    0.1757    0.4498   -0.9805 C   0  0  0  0  0  0  0  0  0  0  0  0
    0.3611    1.5347   -1.5159 O   0  0  0  0  0  0  0  0  0  0  0  0
    0.3561   -0.7189   -1.6942 N   0  0  0  0  0  0  0  0  0  0  0  0
    0.1422   -1.5881   -1.2048 H   0  0  0  0  0  0  0  0  0  0  0  0
    0.7768   -0.7616   -3.0872 C   0  0  0  0  0  0  0  0  0  0  0  0
    1.7420   -0.2593   -3.2109 H   0  0  0  0  0  0  0  0  0  0  0  0
    0.8827   -1.7991   -3.4179 H   0  0  0  0  0  0  0  0  0  0  0  0
    0.0367   -0.2680   -3.7253 H   0  0  0  0  0  0  0  0  0  0  0  0
  1  2  1  0  0  0  0
  2  3  1  0  0  0  0
  2  4  1  0  0  0  0
  2  5  1  0  0  0  0
  5  6  2  0  0  0  0
  5  7  1  0  0  0  0
  7  8  1  0  0  0  0
  7  9  1  0  0  0  0
  9 10  1  0  0  0  0
  9 11  1  0  0  0  0
  9 24  1  0  0  0  0
 11 12  1  0  0  0  0
 11 13  1  0  0  0  0
 11 17  1  0  0  0  0
 13 14  1  0  0  0  0
 13 15  1  0  0  0  0
 13 16  1  0  0  0  0
 17 18  1  0  0  0  0
 17 19  1  0  0  0  0
 17 20  1  0  0  0  0
 20 21  1  0  0  0  0
 20 22  1  0  0  0  0
 20 23  1  0  0  0  0
 24 25  2  0  0  0  0
 24 26  1  0  0  0  0
 26 27  1  0  0  0  0
 26 28  1  0  0  0  0
 28 29  1  0  0  0  0
 28 30  1  0  0  0  0
 28 31  1  0  0  0  0
M  END
$$$$

  -OEChem-01062216083D

 31 30  0     1  0  0  0  0  0999 V2000
   -3.4673   -3.0084    1.4844 H   0  0  0  0  0  0  0  0  0  0  0  0
   -3.4070   -1.9695    1.1476 C   0  0  0  0  0  0  0  0  0  0  0  0
   -3.7963   -1.3224    1.9374 H   0  0  0  0  0  0  0  0  0  0  0  0
   -4.0226   -1.8527    0.2524 H   0  0  0  0  0  0  0  0  0  0  0  0
   -1.9678   -1.6028    0.8388 C   0  0  0  0  0  0  0  0  0  0  0  0
   -1.1242   -2.4808    0.7908 O   0  0  0  0  0  0  0  0  0  0  0  0
   -1.6683   -0.3091    0.4569 N   0  0  0  0  0  0  0  0  0  0  0  0
   -2.4729    0.3102    0.4147 H   0  0  0  0  0  0  0  0  0  0  0  0
   -0.3437    0.3632    0.4522 C   0  0  1  0  0  0  0  0  0  0  0  0
   -0.5186    1.3998    0.7590 H   0  0  0  0  0  0  0  0  0  0  0  0
    0.7296   -0.1911    1.4414 C   0  0  1  0  0  0  0  0  0  0  0  0
    0.9138   -1.2496    1.2424 H   0  0  0  0  0  0  0  0  0  0  0  0
    2.0733    0.5447    1.2562 C   0  0  0  0  0  0  0  0  0  0  0  0
    1.9469    1.6220    1.4036 H   0  0  0  0  0  0  0  0  0  0  0  0
    2.8222    0.1828    1.9648 H   0  0  0  0  0  0  0  0  0  0  0  0
    2.4771    0.3767    0.2533 H   0  0  0  0  0  0  0  0  0  0  0  0
    0.2397   -0.0070    2.8992 C   0  0  0  0  0  0  0  0  0  0  0  0
    0.2226    1.0582    3.1526 H   0  0  0  0  0  0  0  0  0  0  0  0
   -0.7831   -0.3805    2.9940 H   0  0  0  0  0  0  0  0  0  0  0  0
    1.0980   -0.7577    3.9226 C   0  0  0  0  0  0  0  0  0  0  0  0
    2.1022   -0.3313    3.9902 H   0  0  0  0  0  0  0  0  0  0  0  0
    0.6369   -0.6925    4.9127 H   0  0  0  0  0  0  0  0  0  0  0  0
    1.1805   -1.8144    3.6492 H   0  0  0  0  0  0  0  0  0  0  0  0
    0.1554    0.4500   -1.0040 C   0  0  0  0  0  0  0  0  0  0  0  0
    0.5616    1.5113   -1.4593 O   0  0  0  0  0  0  0  0  0  0  0  0
    0.0524   -0.6571   -1.8241 N   0  0  0  0  0  0  0  0  0  0  0  0
   -0.2384   -1.5248   -1.3737 H   0  0  0  0  0  0  0  0  0  0  0  0
    0.5091   -0.6841   -3.2066 C   0  0  0  0  0  0  0  0  0  0  0  0
    1.5833   -0.4784   -3.2589 H   0  0  0  0  0  0  0  0  0  0  0  0
    0.3222   -1.6683   -3.6466 H   0  0  0  0  0  0  0  0  0  0  0  0
   -0.0234    0.0664   -3.8001 H   0  0  0  0  0  0  0  0  0  0  0  0
  1  2  1  0  0  0  0
  2  3  1  0  0  0  0
  2  4  1  0  0  0  0
  2  5  1  0  0  0  0
  5  6  2  0  0  0  0
  5  7  1  0  0  0  0
  7  8  1  0  0  0  0
  7  9  1  0  0  0  0
  9 10  1  0  0  0  0
  9 11  1  0  0  0  0
  9 24  1  0  0  0  0
 11 12  1  0  0  0  0
 11 13  1  0  0  0  0
 11 17  1  0  0  0  0
 13 14  1  0  0  0  0
 13 15  1  0  0  0  0
 13 16  1  0  0  0  0
 17 18  1  0  0  0  0
 17 19  1  0  0  0  0
 17 20  1  0  0  0  0
 20 21  1  0  0  0  0
 20 22  1  0  0  0  0
 20 23  1  0  0  0  0
 24 25  2  0  0  0  0
 24 26  1  0  0  0  0
 26 27  1  0  0  0  0
 26 28  1  0  0  0  0
 28 29  1  0  0  0  0
 28 30  1  0  0  0  0
 28 31  1  0  0  0  0
M  END
$$$$

  -OEChem-01062216083D

 31 30  0     1  0  0  0  0  0999 V2000
   -3.4470   -3.0103    1.5566 H   0  0  0  0  0  0  0  0  0  0  0  0
   -3.3955   -1.9741    1.2100 C   0  0  0  0  0  0  0  0  0  0  0  0
   -3.7537   -1.3203    2.0088 H   0  0  0  0  0  0  0  0  0  0  0  0
   -4.0430   -1.8614    0.3370 H   0  0  0  0  0  0  0  0  0  0  0  0
   -1.9667   -1.6154    0.8470 C   0  0  0  0  0  0  0  0  0  0  0  0
   -1.1332   -2.4995    0.7622 O   0  0  0  0  0  0  0  0  0  0  0  0
   -1.6727   -0.3218    0.4591 N   0  0  0  0  0  0  0  0  0  0  0  0
   -2.4768    0.2996    0.4510 H   0  0  0  0  0  0  0  0  0  0  0  0
   -0.3484    0.3550    0.4357 C   0  0  1  0  0  0  0  0  0  0  0  0
   -0.5228    1.3917    0.7408 H   0  0  0  0  0  0  0  0  0  0  0  0
    0.7202   -0.2015    1.4324 C   0  0  1  0  0  0  0  0  0  0  0  0
    0.8927   -1.2636    1.2431 H   0  0  0  0  0  0  0  0  0  0  0  0
    2.0768    0.5118    1.2525 C   0  0  0  0  0  0  0  0  0  0  0  0
    1.9654    1.5928    1.3821 H   0  0  0  0  0  0  0  0  0  0  0  0
    2.8128    0.1496    1.9740 H   0  0  0  0  0  0  0  0  0  0  0  0
    2.4894    0.3207    0.2578 H   0  0  0  0  0  0  0  0  0  0  0  0
    0.2256   -0.0011    2.8874 C   0  0  0  0  0  0  0  0  0  0  0  0
    0.2168    1.0663    3.1311 H   0  0  0  0  0  0  0  0  0  0  0  0
   -0.8007   -0.3648    2.9824 H   0  0  0  0  0  0  0  0  0  0  0  0
    1.0717   -0.7491    3.9225 C   0  0  0  0  0  0  0  0  0  0  0  0
    2.0776   -0.3278    3.9958 H   0  0  0  0  0  0  0  0  0  0  0  0
    0.6026   -0.6740    4.9082 H   0  0  0  0  0  0  0  0  0  0  0  0
    1.1500   -1.8081    3.6571 H   0  0  0  0  0  0  0  0  0  0  0  0
    0.1490    0.4498   -1.0246 C   0  0  0  0  0  0  0  0  0  0  0  0
    0.7332    1.4528   -1.4142 O   0  0  0  0  0  0  0  0  0  0  0  0
   -0.2152   -0.5177   -1.9423 N   0  0  0  0  0  0  0  0  0  0  0  0
   -0.6084   -1.3717   -1.5497 H   0  0  0  0  0  0  0  0  0  0  0  0
    0.2216   -0.5105   -3.3321 C   0  0  0  0  0  0  0  0  0  0  0  0
    1.3132   -0.5735   -3.3906 H   0  0  0  0  0  0  0  0  0  0  0  0
   -0.2053   -1.3645   -3.8666 H   0  0  0  0  0  0  0  0  0  0  0  0
   -0.1057    0.4072   -3.8320 H   0  0  0  0  0  0  0  0  0  0  0  0
  1  2  1  0  0  0  0
  2  3  1  0  0  0  0
  2  4  1  0  0  0  0
  2  5  1  0  0  0  0
  5  6  2  0  0  0  0
  5  7  1  0  0  0  0
  7  8  1  0  0  0  0
  7  9  1  0  0  0  0
  9 10  1  0  0  0  0
  9 11  1  0  0  0  0
  9 24  1  0  0  0  0
 11 12  1  0  0  0  0
 11 13  1  0  0  0  0
 11 17  1  0  0  0  0
 13 14  1  0  0  0  0
 13 15  1  0  0  0  0
 13 16  1  0  0  0  0
 17 18  1  0  0  0  0
 17 19  1  0  0  0  0
 17 20  1  0  0  0  0
 20 21  1  0  0  0  0
 20 22  1  0  0  0  0
 20 23  1  0  0  0  0
 24 25  2  0  0  0  0
 24 26  1  0  0  0  0
 26 27  1  0  0  0  0
 26 28  1  0  0  0  0
 28 29  1  0  0  0  0
 28 30  1  0  0  0  0
 28 31  1  0  0  0  0
M  END
$$$$

  -OEChem-01062216083D

 31 30  0     1  0  0  0  0  0999 V2000
   -3.4454   -3.0253    1.5504 H   0  0  0  0  0  0  0  0  0  0  0  0
   -3.3879   -1.9822    1.2259 C   0  0  0  0  0  0  0  0  0  0  0  0
   -3.7334   -1.3428    2.0419 H   0  0  0  0  0  0  0  0  0  0  0  0
   -4.0428   -1.8458    0.3619 H   0  0  0  0  0  0  0  0  0  0  0  0
   -1.9593   -1.6278    0.8576 C   0  0  0  0  0  0  0  0  0  0  0  0
   -1.1297   -2.5151    0.7793 O   0  0  0  0  0  0  0  0  0  0  0  0
   -1.6665   -0.3342    0.4661 N   0  0  0  0  0  0  0  0  0  0  0  0
   -2.4700    0.2880    0.4747 H   0  0  0  0  0  0  0  0  0  0  0  0
   -0.3423    0.3466    0.4253 C   0  0  1  0  0  0  0  0  0  0  0  0
   -0.5156    1.3844    0.7269 H   0  0  0  0  0  0  0  0  0  0  0  0
    0.7220   -0.2100    1.4313 C   0  0  1  0  0  0  0  0  0  0  0  0
    0.8855   -1.2750    1.2523 H   0  0  0  0  0  0  0  0  0  0  0  0
    2.0893    0.4830    1.2575 C   0  0  0  0  0  0  0  0  0  0  0  0
    1.9869    1.5692    1.3467 H   0  0  0  0  0  0  0  0  0  0  0  0
    2.8076    0.1399    2.0052 H   0  0  0  0  0  0  0  0  0  0  0  0
    2.5199    0.2505    0.2795 H   0  0  0  0  0  0  0  0  0  0  0  0
    0.2236    0.0070    2.8836 C   0  0  0  0  0  0  0  0  0  0  0  0
    0.2214    1.0766    3.1176 H   0  0  0  0  0  0  0  0  0  0  0  0
   -0.8056   -0.3479    2.9786 H   0  0  0  0  0  0  0  0  0  0  0  0
    1.0594   -0.7370    3.9305 C   0  0  0  0  0  0  0  0  0  0  0  0
    2.0625   -0.3118    4.0171 H   0  0  0  0  0  0  0  0  0  0  0  0
    0.5775   -0.6630    4.9099 H   0  0  0  0  0  0  0  0  0  0  0  0
    1.1454   -1.7959    3.6672 H   0  0  0  0  0  0  0  0  0  0  0  0
    0.1477    0.4480   -1.0414 C   0  0  0  0  0  0  0  0  0  0  0  0
    0.8928    1.3572   -1.3846 O   0  0  0  0  0  0  0  0  0  0  0  0
   -0.4476   -0.3175   -2.0274 N   0  0  0  0  0  0  0  0  0  0  0  0
   -0.9758   -1.1209   -1.6953 H   0  0  0  0  0  0  0  0  0  0  0  0
   -0.0557   -0.2630   -3.4299 C   0  0  0  0  0  0  0  0  0  0  0  0
    0.9966   -0.5434   -3.5442 H   0  0  0  0  0  0  0  0  0  0  0  0
   -0.6656   -0.9540   -4.0198 H   0  0  0  0  0  0  0  0  0  0  0  0
   -0.1972    0.7471   -3.8286 H   0  0  0  0  0  0  0  0  0  0  0  0
  1  2  1  0  0  0  0
  2  3  1  0  0  0  0
  2  4  1  0  0  0  0
  2  5  1  0  0  0  0
  5  6  2  0  0  0  0
  5  7  1  0  0  0  0
  7  8  1  0  0  0  0
  7  9  1  0  0  0  0
  9 10  1  0  0  0  0
  9 11  1  0  0  0  0
  9 24  1  0  0  0  0
 11 12  1  0  0  0  0
 11 13  1  0  0  0  0
 11 17  1  0  0  0  0
 13 14  1  0  0  0  0
 13 15  1  0  0  0  0
 13 16  1  0  0  0  0
 17 18  1  0  0  0  0
 17 19  1  0  0  0  0
 17 20  1  0  0  0  0
 20 21  1  0  0  0  0
 20 22  1  0  0  0  0
 20 23  1  0  0  0  0
 24 25  2  0  0  0  0
 24 26  1  0  0  0  0
 26 27  1  0  0  0  0
 26 28  1  0  0  0  0
 28 29  1  0  0  0  0
 28 30  1  0  0  0  0
 28 31  1  0  0  0  0
M  END
$$$$

  -OEChem-01062216083D

 31 30  0     1  0  0  0  0  0999 V2000
   -3.4240   -3.0402    1.5454 H   0  0  0  0  0  0  0  0  0  0  0  0
   -3.3656   -1.9936    1.2324 C   0  0  0  0  0  0  0  0  0  0  0  0
   -3.6966   -1.3624    2.0607 H   0  0  0  0  0  0  0  0  0  0  0  0
   -4.0310   -1.8439    0.3787 H   0  0  0  0  0  0  0  0  0  0  0  0
   -1.9401   -1.6420    0.8491 C   0  0  0  0  0  0  0  0  0  0  0  0
   -1.1134   -2.5314    0.7697 O   0  0  0  0  0  0  0  0  0  0  0  0
   -1.6510   -0.3450    0.4629 N   0  0  0  0  0  0  0  0  0  0  0  0
   -2.4531    0.2781    0.4971 H   0  0  0  0  0  0  0  0  0  0  0  0
   -0.3268    0.3381    0.4118 C   0  0  1  0  0  0  0  0  0  0  0  0
   -0.4988    1.3760    0.7134 H   0  0  0  0  0  0  0  0  0  0  0  0
    0.7312   -0.2195    1.4292 C   0  0  1  0  0  0  0  0  0  0  0  0
    0.8875   -1.2871    1.2611 H   0  0  0  0  0  0  0  0  0  0  0  0
    2.1102    0.4540    1.2716 C   0  0  0  0  0  0  0  0  0  0  0  0
    2.0164    1.5437    1.3164 H   0  0  0  0  0  0  0  0  0  0  0  0
    2.8042    0.1336    2.0512 H   0  0  0  0  0  0  0  0  0  0  0  0
    2.5675    0.1772    0.3176 H   0  0  0  0  0  0  0  0  0  0  0  0
    0.2191    0.0142    2.8753 C   0  0  0  0  0  0  0  0  0  0  0  0
    0.2200    1.0861    3.0984 H   0  0  0  0  0  0  0  0  0  0  0  0
   -0.8126   -0.3348    2.9631 H   0  0  0  0  0  0  0  0  0  0  0  0
    1.0368   -0.7236    3.9412 C   0  0  0  0  0  0  0  0  0  0  0  0
    2.0363   -0.2944    4.0483 H   0  0  0  0  0  0  0  0  0  0  0  0
    0.5344   -0.6488    4.9104 H   0  0  0  0  0  0  0  0  0  0  0  0
    1.1323   -1.7830    3.6831 H   0  0  0  0  0  0  0  0  0  0  0  0
    0.1464    0.4493   -1.0639 C   0  0  0  0  0  0  0  0  0  0  0  0
    1.0429    1.2199   -1.3816 O   0  0  0  0  0  0  0  0  0  0  0  0
   -0.6406   -0.0586   -2.0828 N   0  0  0  0  0  0  0  0  0  0  0  0
   -1.3144   -0.7642   -1.7993 H   0  0  0  0  0  0  0  0  0  0  0  0
   -0.2911    0.0487   -3.4942 C   0  0  0  0  0  0  0  0  0  0  0  0
    0.6728   -0.4336   -3.6875 H   0  0  0  0  0  0  0  0  0  0  0  0
   -1.0532   -0.4382   -4.1101 H   0  0  0  0  0  0  0  0  0  0  0  0
   -0.2257    1.0996   -3.7949 H   0  0  0  0  0  0  0  0  0  0  0  0
  1  2  1  0  0  0  0
  2  3  1  0  0  0  0
  2  4  1  0  0  0  0
  2  5  1  0  0  0  0
  5  6  2  0  0  0  0
  5  7  1  0  0  0  0
  7  8  1  0  0  0  0
  7  9  1  0  0  0  0
  9 10  1  0  0  0  0
  9 11  1  0  0  0  0
  9 24  1  0  0  0  0
 11 12  1  0  0  0  0
 11 13  1  0  0  0  0
 11 17  1  0  0  0  0
 13 14  1  0  0  0  0
 13 15  1  0  0  0  0
 13 16  1  0  0  0  0
 17 18  1  0  0  0  0
 17 19  1  0  0  0  0
 17 20  1  0  0  0  0
 20 21  1  0  0  0  0
 20 22  1  0  0  0  0
 20 23  1  0  0  0  0
 24 25  2  0  0  0  0
 24 26  1  0  0  0  0
 26 27  1  0  0  0  0
 26 28  1  0  0  0  0
 28 29  1  0  0  0  0
 28 30  1  0  0  0  0
 28 31  1  0  0  0  0
M  END
$$$$

  -OEChem-01062216083D

 31 30  0     1  0  0  0  0  0999 V2000
   -3.3888   -3.0543    1.5325 H   0  0  0  0  0  0  0  0  0  0  0  0
   -3.3362   -2.0085    1.2158 C   0  0  0  0  0  0  0  0  0  0  0  0
   -3.6645   -1.3758    2.0440 H   0  0  0  0  0  0  0  0  0  0  0  0
   -4.0075   -1.8649    0.3658 H   0  0  0  0  0  0  0  0  0  0  0  0
   -1.9145   -1.6530    0.8221 C   0  0  0  0  0  0  0  0  0  0  0  0
   -1.0888   -2.5421    0.7320 O   0  0  0  0  0  0  0  0  0  0  0  0
   -1.6302   -0.3498    0.4508 N   0  0  0  0  0  0  0  0  0  0  0  0
   -2.4280    0.2745    0.5293 H   0  0  0  0  0  0  0  0  0  0  0  0
   -0.3039    0.3304    0.3976 C   0  0  1  0  0  0  0  0  0  0  0  0
   -0.4724    1.3680    0.7012 H   0  0  0  0  0  0  0  0  0  0  0  0
    0.7453   -0.2288    1.4277 C   0  0  1  0  0  0  0  0  0  0  0  0
    0.8970   -1.2987    1.2696 H   0  0  0  0  0  0  0  0  0  0  0  0
    2.1325    0.4338    1.2912 C   0  0  0  0  0  0  0  0  0  0  0  0
    2.0409    1.5243    1.2745 H   0  0  0  0  0  0  0  0  0  0  0  0
    2.7958    0.1557    2.1122 H   0  0  0  0  0  0  0  0  0  0  0  0
    2.6274    0.1046    0.3736 H   0  0  0  0  0  0  0  0  0  0  0  0
    0.2164    0.0209    2.8667 C   0  0  0  0  0  0  0  0  0  0  0  0
    0.2199    1.0948    3.0802 H   0  0  0  0  0  0  0  0  0  0  0  0
   -0.8185   -0.3212    2.9435 H   0  0  0  0  0  0  0  0  0  0  0  0
    1.0124   -0.7110    3.9535 C   0  0  0  0  0  0  0  0  0  0  0  0
    2.0074   -0.2780    4.0841 H   0  0  0  0  0  0  0  0  0  0  0  0
    0.4870   -0.6357    4.9102 H   0  0  0  0  0  0  0  0  0  0  0  0
    1.1178   -1.7705    3.7002 H   0  0  0  0  0  0  0  0  0  0  0  0
    0.1446    0.4545   -1.0881 C   0  0  0  0  0  0  0  0  0  0  0  0
    1.1886    1.0048   -1.4097 O   0  0  0  0  0  0  0  0  0  0  0  0
   -0.7818    0.2503   -2.0970 N   0  0  0  0  0  0  0  0  0  0  0  0
   -1.5954   -0.2970   -1.8343 H   0  0  0  0  0  0  0  0  0  0  0  0
   -0.4678    0.3962   -3.5138 C   0  0  0  0  0  0  0  0  0  0  0  0
    0.3394   -0.2867   -3.7991 H   0  0  0  0  0  0  0  0  0  0  0  0
   -1.3482    0.1673   -4.1217 H   0  0  0  0  0  0  0  0  0  0  0  0
   -0.1555    1.4225   -3.7340 H   0  0  0  0  0  0  0  0  0  0  0  0
  1  2  1  0  0  0  0
  2  3  1  0  0  0  0
  2  4  1  0  0  0  0
  2  5  1  0  0  0  0
  5  6  2  0  0  0  0
  5  7  1  0  0  0  0
  7  8  1  0  0  0  0
  7  9  1  0  0  0  0
  9 10  1  0  0  0  0
  9 11  1  0  0  0  0
  9 24  1  0  0  0  0
 11 12  1  0  0  0  0
 11 13  1  0  0  0  0
 11 17  1  0  0  0  0
 13 14  1  0  0  0  0
 13 15  1  0  0  0  0
 13 16  1  0  0  0  0
 17 18  1  0  0  0  0
 17 19  1  0  0  0  0
 17 20  1  0  0  0  0
 20 21  1  0  0  0  0
 20 22  1  0  0  0  0
 20 23  1  0  0  0  0
 24 25  2  0  0  0  0
 24 26  1  0  0  0  0
 26 27  1  0  0  0  0
 26 28  1  0  0  0  0
 28 29  1  0  0  0  0
 28 30  1  0  0  0  0
 28 31  1  0  0  0  0
M  END
$$$$

  -OEChem-01062216083D

 31 30  0     1  0  0  0  0  0999 V2000
   -3.3636   -3.0675    1.4770 H   0  0  0  0  0  0  0  0  0  0  0  0
   -3.3166   -2.0186    1.1698 C   0  0  0  0  0  0  0  0  0  0  0  0
   -3.6520   -1.3958    2.0025 H   0  0  0  0  0  0  0  0  0  0  0  0
   -3.9856   -1.8715    0.3185 H   0  0  0  0  0  0  0  0  0  0  0  0
   -1.8953   -1.6524    0.7843 C   0  0  0  0  0  0  0  0  0  0  0  0
   -1.0656   -2.5377    0.6961 O   0  0  0  0  0  0  0  0  0  0  0  0
   -1.6135   -0.3414    0.4378 N   0  0  0  0  0  0  0  0  0  0  0  0
   -2.4069    0.2821    0.5538 H   0  0  0  0  0  0  0  0  0  0  0  0
   -0.2828    0.3298    0.3937 C   0  0  1  0  0  0  0  0  0  0  0  0
   -0.4464    1.3654    0.7054 H   0  0  0  0  0  0  0  0  0  0  0  0
    0.7622   -0.2339    1.4277 C   0  0  1  0  0  0  0  0  0  0  0  0
    0.9189   -1.3033    1.2705 H   0  0  0  0  0  0  0  0  0  0  0  0
    2.1464    0.4421    1.3105 C   0  0  0  0  0  0  0  0  0  0  0  0
    2.0413    1.5287    1.2353 H   0  0  0  0  0  0  0  0  0  0  0  0
    2.7832    0.2170    2.1674 H   0  0  0  0  0  0  0  0  0  0  0  0
    2.6832    0.0749    0.4324 H   0  0  0  0  0  0  0  0  0  0  0  0
    0.2209    0.0202    2.8622 C   0  0  0  0  0  0  0  0  0  0  0  0
    0.2245    1.0945    3.0736 H   0  0  0  0  0  0  0  0  0  0  0  0
   -0.8152   -0.3200    2.9293 H   0  0  0  0  0  0  0  0  0  0  0  0
    1.0026   -0.7108    3.9603 C   0  0  0  0  0  0  0  0  0  0  0  0
    1.9933   -0.2746    4.1093 H   0  0  0  0  0  0  0  0  0  0  0  0
    0.4611   -0.6397    4.9083 H   0  0  0  0  0  0  0  0  0  0  0  0
    1.1164   -1.7694    3.7067 H   0  0  0  0  0  0  0  0  0  0  0  0
    0.1399    0.4709   -1.0997 C   0  0  0  0  0  0  0  0  0  0  0  0
    1.2893    0.6712   -1.4637 O   0  0  0  0  0  0  0  0  0  0  0  0
   -0.8464    0.6024   -2.0639 N   0  0  0  0  0  0  0  0  0  0  0  0
   -1.7738    0.3016   -1.7847 H   0  0  0  0  0  0  0  0  0  0  0  0
   -0.5593    0.7361   -3.4882 C   0  0  0  0  0  0  0  0  0  0  0  0
   -0.0069   -0.1373   -3.8508 H   0  0  0  0  0  0  0  0  0  0  0  0
   -1.4912    0.8183   -4.0557 H   0  0  0  0  0  0  0  0  0  0  0  0
    0.0384    1.6341   -3.6773 H   0  0  0  0  0  0  0  0  0  0  0  0
  1  2  1  0  0  0  0
  2  3  1  0  0  0  0
  2  4  1  0  0  0  0
  2  5  1  0  0  0  0
  5  6  2  0  0  0  0
  5  7  1  0  0  0  0
  7  8  1  0  0  0  0
  7  9  1  0  0  0  0
  9 10  1  0  0  0  0
  9 11  1  0  0  0  0
  9 24  1  0  0  0  0
 11 12  1  0  0  0  0
 11 13  1  0  0  0  0
 11 17  1  0  0  0  0
 13 14  1  0  0  0  0
 13 15  1  0  0  0  0
 13 16  1  0  0  0  0
 17 18  1  0  0  0  0
 17 19  1  0  0  0  0
 17 20  1  0  0  0  0
 20 21  1  0  0  0  0
 20 22  1  0  0  0  0
 20 23  1  0  0  0  0
 24 25  2  0  0  0  0
 24 26  1  0  0  0  0
 26 27  1  0  0  0  0
 26 28  1  0  0  0  0
 28 29  1  0  0  0  0
 28 30  1  0  0  0  0
 28 31  1  0  0  0  0
M  END
$$$$

  -OEChem-01062216083D

 31 30  0     1  0  0  0  0  0999 V2000
   -3.4375   -3.0551    1.3442 H   0  0  0  0  0  0  0  0  0  0  0  0
   -3.3613   -2.0068    1.0409 C   0  0  0  0  0  0  0  0  0  0  0  0
   -3.7771   -1.3823    1.8351 H   0  0  0  0  0  0  0  0  0  0  0  0
   -3.9439   -1.8628    0.1279 H   0  0  0  0  0  0  0  0  0  0  0  0
   -1.9098   -1.6386    0.7940 C   0  0  0  0  0  0  0  0  0  0  0  0
   -1.0705   -2.5178    0.8400 O   0  0  0  0  0  0  0  0  0  0  0  0
   -1.6082   -0.3284    0.4590 N   0  0  0  0  0  0  0  0  0  0  0  0
   -2.4118    0.2904    0.4892 H   0  0  0  0  0  0  0  0  0  0  0  0
   -0.2762    0.3372    0.4257 C   0  0  1  0  0  0  0  0  0  0  0  0
   -0.4374    1.3698    0.7481 H   0  0  0  0  0  0  0  0  0  0  0  0
    0.7864   -0.2252    1.4373 C   0  0  1  0  0  0  0  0  0  0  0  0
    0.9676   -1.2881    1.2600 H   0  0  0  0  0  0  0  0  0  0  0  0
    2.1452    0.5063    1.3168 C   0  0  0  0  0  0  0  0  0  0  0  0
    1.9982    1.5899    1.2746 H   0  0  0  0  0  0  0  0  0  0  0  0
    2.8010    0.2824    2.1598 H   0  0  0  0  0  0  0  0  0  0  0  0
    2.6883    0.1895    0.4242 H   0  0  0  0  0  0  0  0  0  0  0  0
    0.2602    0.0072    2.8804 C   0  0  0  0  0  0  0  0  0  0  0  0
    0.2501    1.0787    3.1056 H   0  0  0  0  0  0  0  0  0  0  0  0
   -0.7701   -0.3496    2.9546 H   0  0  0  0  0  0  0  0  0  0  0  0
    1.0648   -0.7278    3.9593 C   0  0  0  0  0  0  0  0  0  0  0  0
    2.0548   -0.2862    4.0968 H   0  0  0  0  0  0  0  0  0  0  0  0
    0.5378   -0.6698    4.9164 H   0  0  0  0  0  0  0  0  0  0  0  0
    1.1820   -1.7832    3.6939 H   0  0  0  0  0  0  0  0  0  0  0  0
    0.1340    0.4773   -1.0701 C   0  0  0  0  0  0  0  0  0  0  0  0
    1.2502    0.2322   -1.5028 O   0  0  0  0  0  0  0  0  0  0  0  0
   -0.8073    0.9266   -1.9829 N   0  0  0  0  0  0  0  0  0  0  0  0
   -1.7634    0.9953   -1.6551 H   0  0  0  0  0  0  0  0  0  0  0  0
   -0.5529    1.0172   -3.4166 C   0  0  0  0  0  0  0  0  0  0  0  0
   -0.3552    0.0241   -3.8336 H   0  0  0  0  0  0  0  0  0  0  0  0
   -1.4206    1.4432   -3.9289 H   0  0  0  0  0  0  0  0  0  0  0  0
    0.3115    1.6600   -3.6137 H   0  0  0  0  0  0  0  0  0  0  0  0
  1  2  1  0  0  0  0
  2  3  1  0  0  0  0
  2  4  1  0  0  0  0
  2  5  1  0  0  0  0
  5  6  2  0  0  0  0
  5  7  1  0  0  0  0
  7  8  1  0  0  0  0
  7  9  1  0  0  0  0
  9 10  1  0  0  0  0
  9 11  1  0  0  0  0
  9 24  1  0  0  0  0
 11 12  1  0  0  0  0
 11 13  1  0  0  0  0
 11 17  1  0  0  0  0
 13 14  1  0  0  0  0
 13 15  1  0  0  0  0
 13 16  1  0  0  0  0
 17 18  1  0  0  0  0
 17 19  1  0  0  0  0
 17 20  1  0  0  0  0
 20 21  1  0  0  0  0
 20 22  1  0  0  0  0
 20 23  1  0  0  0  0
 24 25  2  0  0  0  0
 24 26  1  0  0  0  0
 26 27  1  0  0  0  0
 26 28  1  0  0  0  0
 28 29  1  0  0  0  0
 28 30  1  0  0  0  0
 28 31  1  0  0  0  0
M  END
$$$$

  -OEChem-01062216083D

 31 30  0     1  0  0  0  0  0999 V2000
   -3.5496   -3.0399    1.1472 H   0  0  0  0  0  0  0  0  0  0  0  0
   -3.4309   -1.9990    0.8322 C   0  0  0  0  0  0  0  0  0  0  0  0
   -4.0246   -1.3633    1.4933 H   0  0  0  0  0  0  0  0  0  0  0  0
   -3.8007   -1.8989   -0.1912 H   0  0  0  0  0  0  0  0  0  0  0  0
   -1.9692   -1.5956    0.8978 C   0  0  0  0  0  0  0  0  0  0  0  0
   -1.1570   -2.4285    1.2542 O   0  0  0  0  0  0  0  0  0  0  0  0
   -1.6336   -0.3001    0.5364 N   0  0  0  0  0  0  0  0  0  0  0  0
   -2.4229    0.2590    0.2318 H   0  0  0  0  0  0  0  0  0  0  0  0
   -0.2982    0.3544    0.4943 C   0  0  1  0  0  0  0  0  0  0  0  0
   -0.4480    1.3894    0.8140 H   0  0  0  0  0  0  0  0  0  0  0  0
    0.7972   -0.2014    1.4641 C   0  0  1  0  0  0  0  0  0  0  0  0
    0.9815   -1.2601    1.2619 H   0  0  0  0  0  0  0  0  0  0  0  0
    2.1364    0.5553    1.2945 C   0  0  0  0  0  0  0  0  0  0  0  0
    1.9933    1.6302    1.4404 H   0  0  0  0  0  0  0  0  0  0  0  0
    2.8789    0.2037    2.0143 H   0  0  0  0  0  0  0  0  0  0  0  0
    2.5700    0.3963    0.3055 H   0  0  0  0  0  0  0  0  0  0  0  0
    0.3279    0.0098    2.9284 C   0  0  0  0  0  0  0  0  0  0  0  0
    0.3160    1.0780    3.1680 H   0  0  0  0  0  0  0  0  0  0  0  0
   -0.6954   -0.3580    3.0403 H   0  0  0  0  0  0  0  0  0  0  0  0
    1.1891   -0.7311    3.9571 C   0  0  0  0  0  0  0  0  0  0  0  0
    2.1891   -0.2965    4.0312 H   0  0  0  0  0  0  0  0  0  0  0  0
    0.7219   -0.6688    4.9444 H   0  0  0  0  0  0  0  0  0  0  0  0
    1.2818   -1.7873    3.6849 H   0  0  0  0  0  0  0  0  0  0  0  0
    0.1048    0.4503   -1.0021 C   0  0  0  0  0  0  0  0  0  0  0  0
    1.0247   -0.1893   -1.4921 O   0  0  0  0  0  0  0  0  0  0  0  0
   -0.7050    1.1678   -1.8684 N   0  0  0  0  0  0  0  0  0  0  0  0
   -1.4668    1.7033   -1.4680 H   0  0  0  0  0  0  0  0  0  0  0  0
   -0.4640    1.2529   -3.3047 C   0  0  0  0  0  0  0  0  0  0  0  0
   -0.4991    0.2570   -3.7589 H   0  0  0  0  0  0  0  0  0  0  0  0
   -1.2267    1.8764   -3.7807 H   0  0  0  0  0  0  0  0  0  0  0  0
    0.5179    1.6954   -3.5030 H   0  0  0  0  0  0  0  0  0  0  0  0
  1  2  1  0  0  0  0
  2  3  1  0  0  0  0
  2  4  1  0  0  0  0
  2  5  1  0  0  0  0
  5  6  2  0  0  0  0
  5  7  1  0  0  0  0
  7  8  1  0  0  0  0
  7  9  1  0  0  0  0
  9 10  1  0  0  0  0
  9 11  1  0  0  0  0
  9 24  1  0  0  0  0
 11 12  1  0  0  0  0
 11 13  1  0  0  0  0
 11 17  1  0  0  0  0
 13 14  1  0  0  0  0
 13 15  1  0  0  0  0
 13 16  1  0  0  0  0
 17 18  1  0  0  0  0
 17 19  1  0  0  0  0
 17 20  1  0  0  0  0
 20 21  1  0  0  0  0
 20 22  1  0  0  0  0
 20 23  1  0  0  0  0
 24 25  2  0  0  0  0
 24 26  1  0  0  0  0
 26 27  1  0  0  0  0
 26 28  1  0  0  0  0
 28 29  1  0  0  0  0
 28 30  1  0  0  0  0
 28 31  1  0  0  0  0
M  END
$$$$

  -OEChem-01062216083D

 31 30  0     1  0  0  0  0  0999 V2000
   -3.5758   -3.0429    1.1223 H   0  0  0  0  0  0  0  0  0  0  0  0
   -3.4533   -2.0064    0.7948 C   0  0  0  0  0  0  0  0  0  0  0  0
   -4.0998   -1.3683    1.4017 H   0  0  0  0  0  0  0  0  0  0  0  0
   -3.7553   -1.9328   -0.2527 H   0  0  0  0  0  0  0  0  0  0  0  0
   -2.0059   -1.5761    0.9492 C   0  0  0  0  0  0  0  0  0  0  0  0
   -1.2128   -2.3813    1.4011 O   0  0  0  0  0  0  0  0  0  0  0  0
   -1.6668   -0.2859    0.5709 N   0  0  0  0  0  0  0  0  0  0  0  0
   -2.4329    0.2310    0.1521 H   0  0  0  0  0  0  0  0  0  0  0  0
   -0.3305    0.3631    0.5192 C   0  0  1  0  0  0  0  0  0  0  0  0
   -0.4766    1.3983    0.8396 H   0  0  0  0  0  0  0  0  0  0  0  0
    0.7795   -0.1889    1.4695 C   0  0  1  0  0  0  0  0  0  0  0  0
    0.9522   -1.2491    1.2632 H   0  0  0  0  0  0  0  0  0  0  0  0
    2.1167    0.5557    1.2520 C   0  0  0  0  0  0  0  0  0  0  0  0
    1.9971    1.6277    1.4358 H   0  0  0  0  0  0  0  0  0  0  0  0
    2.8898    0.1722    1.9221 H   0  0  0  0  0  0  0  0  0  0  0  0
    2.4908    0.4193    0.2346 H   0  0  0  0  0  0  0  0  0  0  0  0
    0.3448    0.0161    2.9441 C   0  0  0  0  0  0  0  0  0  0  0  0
    0.3407    1.0833    3.1880 H   0  0  0  0  0  0  0  0  0  0  0  0
   -0.6761   -0.3501    3.0807 H   0  0  0  0  0  0  0  0  0  0  0  0
    1.2354   -0.7283    3.9439 C   0  0  0  0  0  0  0  0  0  0  0  0
    2.2410   -0.3015    3.9775 H   0  0  0  0  0  0  0  0  0  0  0  0
    0.8053   -0.6578    4.9474 H   0  0  0  0  0  0  0  0  0  0  0  0
    1.3089   -1.7864    3.6734 H   0  0  0  0  0  0  0  0  0  0  0  0
    0.0798    0.4446   -0.9722 C   0  0  0  0  0  0  0  0  0  0  0  0
    0.8222   -0.3739   -1.4965 O   0  0  0  0  0  0  0  0  0  0  0  0
   -0.5225    1.3914   -1.7840 N   0  0  0  0  0  0  0  0  0  0  0  0
   -1.1123    2.0870   -1.3398 H   0  0  0  0  0  0  0  0  0  0  0  0
   -0.2312    1.5222   -3.2074 C   0  0  0  0  0  0  0  0  0  0  0  0
   -0.4556    0.5877   -3.7328 H   0  0  0  0  0  0  0  0  0  0  0  0
   -0.8394    2.3187   -3.6467 H   0  0  0  0  0  0  0  0  0  0  0  0
    0.8251    1.7672   -3.3616 H   0  0  0  0  0  0  0  0  0  0  0  0
  1  2  1  0  0  0  0
  2  3  1  0  0  0  0
  2  4  1  0  0  0  0
  2  5  1  0  0  0  0
  5  6  2  0  0  0  0
  5  7  1  0  0  0  0
  7  8  1  0  0  0  0
  7  9  1  0  0  0  0
  9 10  1  0  0  0  0
  9 11  1  0  0  0  0
  9 24  1  0  0  0  0
 11 12  1  0  0  0  0
 11 13  1  0  0  0  0
 11 17  1  0  0  0  0
 13 14  1  0  0  0  0
 13 15  1  0  0  0  0
 13 16  1  0  0  0  0
 17 18  1  0  0  0  0
 17 19  1  0  0  0  0
 17 20  1  0  0  0  0
 20 21  1  0  0  0  0
 20 22  1  0  0  0  0
 20 23  1  0  0  0  0
 24 25  2  0  0  0  0
 24 26  1  0  0  0  0
 26 27  1  0  0  0  0
 26 28  1  0  0  0  0
 28 29  1  0  0  0  0
 28 30  1  0  0  0  0
 28 31  1  0  0  0  0
M  END
$$$$

  -OEChem-01062216083D

 31 30  0     1  0  0  0  0  0999 V2000
   -3.5842   -3.0494    1.1162 H   0  0  0  0  0  0  0  0  0  0  0  0
   -3.4627   -2.0156    0.7800 C   0  0  0  0  0  0  0  0  0  0  0  0
   -4.1388   -1.3779    1.3542 H   0  0  0  0  0  0  0  0  0  0  0  0
   -3.7265   -1.9591   -0.2788 H   0  0  0  0  0  0  0  0  0  0  0  0
   -2.0271   -1.5656    0.9804 C   0  0  0  0  0  0  0  0  0  0  0  0
   -1.2421   -2.3550    1.4734 O   0  0  0  0  0  0  0  0  0  0  0  0
   -1.6912   -0.2762    0.5964 N   0  0  0  0  0  0  0  0  0  0  0  0
   -2.4479    0.2199    0.1364 H   0  0  0  0  0  0  0  0  0  0  0  0
   -0.3557    0.3720    0.5359 C   0  0  1  0  0  0  0  0  0  0  0  0
   -0.5037    1.4046    0.8636 H   0  0  0  0  0  0  0  0  0  0  0  0
    0.7657   -0.1795    1.4701 C   0  0  1  0  0  0  0  0  0  0  0  0
    0.9299   -1.2407    1.2611 H   0  0  0  0  0  0  0  0  0  0  0  0
    2.1009    0.5550    1.2179 C   0  0  0  0  0  0  0  0  0  0  0  0
    1.9909    1.6289    1.3966 H   0  0  0  0  0  0  0  0  0  0  0  0
    2.8871    0.1721    1.8731 H   0  0  0  0  0  0  0  0  0  0  0  0
    2.4469    0.4062    0.1912 H   0  0  0  0  0  0  0  0  0  0  0  0
    0.3543    0.0188    2.9516 C   0  0  0  0  0  0  0  0  0  0  0  0
    0.3558    1.0851    3.1982 H   0  0  0  0  0  0  0  0  0  0  0  0
   -0.6648   -0.3453    3.1043 H   0  0  0  0  0  0  0  0  0  0  0  0
    1.2619   -0.7280    3.9337 C   0  0  0  0  0  0  0  0  0  0  0  0
    2.2700   -0.3060    3.9449 H   0  0  0  0  0  0  0  0  0  0  0  0
    0.8529   -0.6541    4.9460 H   0  0  0  0  0  0  0  0  0  0  0  0
    1.3242   -1.7869    3.6632 H   0  0  0  0  0  0  0  0  0  0  0  0
    0.0616    0.4569   -0.9516 C   0  0  0  0  0  0  0  0  0  0  0  0
    0.6076   -0.4757   -1.5244 O   0  0  0  0  0  0  0  0  0  0  0  0
   -0.2814    1.5749   -1.6932 N   0  0  0  0  0  0  0  0  0  0  0  0
   -0.7009    2.3579   -1.2025 H   0  0  0  0  0  0  0  0  0  0  0  0
    0.0591    1.7295   -3.1032 C   0  0  0  0  0  0  0  0  0  0  0  0
   -0.3746    0.9157   -3.6943 H   0  0  0  0  0  0  0  0  0  0  0  0
   -0.3300    2.6779   -3.4856 H   0  0  0  0  0  0  0  0  0  0  0  0
    1.1460    1.7211   -3.2375 H   0  0  0  0  0  0  0  0  0  0  0  0
  1  2  1  0  0  0  0
  2  3  1  0  0  0  0
  2  4  1  0  0  0  0
  2  5  1  0  0  0  0
  5  6  2  0  0  0  0
  5  7  1  0  0  0  0
  7  8  1  0  0  0  0
  7  9  1  0  0  0  0
  9 10  1  0  0  0  0
  9 11  1  0  0  0  0
  9 24  1  0  0  0  0
 11 12  1  0  0  0  0
 11 13  1  0  0  0  0
 11 17  1  0  0  0  0
 13 14  1  0  0  0  0
 13 15  1  0  0  0  0
 13 16  1  0  0  0  0
 17 18  1  0  0  0  0
 17 19  1  0  0  0  0
 17 20  1  0  0  0  0
 20 21  1  0  0  0  0
 20 22  1  0  0  0  0
 20 23  1  0  0  0  0
 24 25  2  0  0  0  0
 24 26  1  0  0  0  0
 26 27  1  0  0  0  0
 26 28  1  0  0  0  0
 28 29  1  0  0  0  0
 28 30  1  0  0  0  0
 28 31  1  0  0  0  0
M  END
$$$$

  -OEChem-01062216083D

 31 30  0     1  0  0  0  0  0999 V2000
   -3.5862   -3.0560    1.1062 H   0  0  0  0  0  0  0  0  0  0  0  0
   -3.4658   -2.0236    0.7653 C   0  0  0  0  0  0  0  0  0  0  0  0
   -4.1641   -1.3884    1.3151 H   0  0  0  0  0  0  0  0  0  0  0  0
   -3.7007   -1.9784   -0.3009 H   0  0  0  0  0  0  0  0  0  0  0  0
   -2.0409   -1.5567    1.0012 C   0  0  0  0  0  0  0  0  0  0  0  0
   -1.2624   -2.3331    1.5253 O   0  0  0  0  0  0  0  0  0  0  0  0
   -1.7087   -0.2668    0.6152 N   0  0  0  0  0  0  0  0  0  0  0  0
   -2.4564    0.2116    0.1226 H   0  0  0  0  0  0  0  0  0  0  0  0
   -0.3735    0.3805    0.5487 C   0  0  1  0  0  0  0  0  0  0  0  0
   -0.5257    1.4104    0.8825 H   0  0  0  0  0  0  0  0  0  0  0  0
    0.7562   -0.1710    1.4708 C   0  0  1  0  0  0  0  0  0  0  0  0
    0.9137   -1.2330    1.2588 H   0  0  0  0  0  0  0  0  0  0  0  0
    2.0910    0.5550    1.1970 C   0  0  0  0  0  0  0  0  0  0  0  0
    1.9876    1.6312    1.3656 H   0  0  0  0  0  0  0  0  0  0  0  0
    2.8829    0.1758    1.8475 H   0  0  0  0  0  0  0  0  0  0  0  0
    2.4233    0.3928    0.1673 H   0  0  0  0  0  0  0  0  0  0  0  0
    0.3613    0.0220    2.9574 C   0  0  0  0  0  0  0  0  0  0  0  0
    0.3671    1.0877    3.2069 H   0  0  0  0  0  0  0  0  0  0  0  0
   -0.6565   -0.3412    3.1209 H   0  0  0  0  0  0  0  0  0  0  0  0
    1.2814   -0.7273    3.9260 C   0  0  0  0  0  0  0  0  0  0  0  0
    2.2894   -0.3045    3.9275 H   0  0  0  0  0  0  0  0  0  0  0  0
    0.8840   -0.6581    4.9429 H   0  0  0  0  0  0  0  0  0  0  0  0
    1.3417   -1.7850    3.6506 H   0  0  0  0  0  0  0  0  0  0  0  0
    0.0501    0.4721   -0.9353 C   0  0  0  0  0  0  0  0  0  0  0  0
    0.3448   -0.5260   -1.5775 O   0  0  0  0  0  0  0  0  0  0  0  0
   -0.0016    1.6896   -1.5921 N   0  0  0  0  0  0  0  0  0  0  0  0
   -0.2110    2.5157   -1.0407 H   0  0  0  0  0  0  0  0  0  0  0  0
    0.3796    1.8555   -2.9901 C   0  0  0  0  0  0  0  0  0  0  0  0
   -0.2322    1.2142   -3.6334 H   0  0  0  0  0  0  0  0  0  0  0  0
    0.2348    2.8943   -3.3021 H   0  0  0  0  0  0  0  0  0  0  0  0
    1.4334    1.5937   -3.1329 H   0  0  0  0  0  0  0  0  0  0  0  0
  1  2  1  0  0  0  0
  2  3  1  0  0  0  0
  2  4  1  0  0  0  0
  2  5  1  0  0  0  0
  5  6  2  0  0  0  0
  5  7  1  0  0  0  0
  7  8  1  0  0  0  0
  7  9  1  0  0  0  0
  9 10  1  0  0  0  0
  9 11  1  0  0  0  0
  9 24  1  0  0  0  0
 11 12  1  0  0  0  0
 11 13  1  0  0  0  0
 11 17  1  0  0  0  0
 13 14  1  0  0  0  0
 13 15  1  0  0  0  0
 13 16  1  0  0  0  0
 17 18  1  0  0  0  0
 17 19  1  0  0  0  0
 17 20  1  0  0  0  0
 20 21  1  0  0  0  0
 20 22  1  0  0  0  0
 20 23  1  0  0  0  0
 24 25  2  0  0  0  0
 24 26  1  0  0  0  0
 26 27  1  0  0  0  0
 26 28  1  0  0  0  0
 28 29  1  0  0  0  0
 28 30  1  0  0  0  0
 28 31  1  0  0  0  0
M  END
$$$$

  -OEChem-01062216083D

 31 30  0     1  0  0  0  0  0999 V2000
   -3.5803   -3.0588    1.0867 H   0  0  0  0  0  0  0  0  0  0  0  0
   -3.4581   -2.0278    0.7427 C   0  0  0  0  0  0  0  0  0  0  0  0
   -4.1761   -1.3944    1.2687 H   0  0  0  0  0  0  0  0  0  0  0  0
   -3.6630   -1.9904   -0.3300 H   0  0  0  0  0  0  0  0  0  0  0  0
   -2.0439   -1.5484    1.0144 C   0  0  0  0  0  0  0  0  0  0  0  0
   -1.2727   -2.3159    1.5629 O   0  0  0  0  0  0  0  0  0  0  0  0
   -1.7131   -0.2578    0.6301 N   0  0  0  0  0  0  0  0  0  0  0  0
   -2.4457    0.1988    0.0960 H   0  0  0  0  0  0  0  0  0  0  0  0
   -0.3762    0.3858    0.5589 C   0  0  1  0  0  0  0  0  0  0  0  0
   -0.5312    1.4150    0.8945 H   0  0  0  0  0  0  0  0  0  0  0  0
    0.7559   -0.1678    1.4768 C   0  0  1  0  0  0  0  0  0  0  0  0
    0.9060   -1.2308    1.2656 H   0  0  0  0  0  0  0  0  0  0  0  0
    2.0953    0.5475    1.1980 C   0  0  0  0  0  0  0  0  0  0  0  0
    1.9993    1.6260    1.3573 H   0  0  0  0  0  0  0  0  0  0  0  0
    2.8843    0.1692    1.8527 H   0  0  0  0  0  0  0  0  0  0  0  0
    2.4273    0.3723    0.1704 H   0  0  0  0  0  0  0  0  0  0  0  0
    0.3675    0.0272    2.9648 C   0  0  0  0  0  0  0  0  0  0  0  0
    0.3773    1.0933    3.2127 H   0  0  0  0  0  0  0  0  0  0  0  0
   -0.6508   -0.3320    3.1335 H   0  0  0  0  0  0  0  0  0  0  0  0
    1.2889   -0.7231    3.9315 C   0  0  0  0  0  0  0  0  0  0  0  0
    2.2963   -0.2993    3.9337 H   0  0  0  0  0  0  0  0  0  0  0  0
    0.8914   -0.6561    4.9487 H   0  0  0  0  0  0  0  0  0  0  0  0
    1.3497   -1.7803    3.6539 H   0  0  0  0  0  0  0  0  0  0  0  0
    0.0500    0.4852   -0.9249 C   0  0  0  0  0  0  0  0  0  0  0  0
    0.0430   -0.4975   -1.6536 O   0  0  0  0  0  0  0  0  0  0  0  0
    0.3041    1.7231   -1.4903 N   0  0  0  0  0  0  0  0  0  0  0  0
    0.3347    2.5271   -0.8715 H   0  0  0  0  0  0  0  0  0  0  0  0
    0.6904    1.8965   -2.8859 C   0  0  0  0  0  0  0  0  0  0  0  0
   -0.0788    1.4891   -3.5508 H   0  0  0  0  0  0  0  0  0  0  0  0
    0.8154    2.9592   -3.1149 H   0  0  0  0  0  0  0  0  0  0  0  0
    1.6374    1.3845   -3.0872 H   0  0  0  0  0  0  0  0  0  0  0  0
  1  2  1  0  0  0  0
  2  3  1  0  0  0  0
  2  4  1  0  0  0  0
  2  5  1  0  0  0  0
  5  6  2  0  0  0  0
  5  7  1  0  0  0  0
  7  8  1  0  0  0  0
  7  9  1  0  0  0  0
  9 10  1  0  0  0  0
  9 11  1  0  0  0  0
  9 24  1  0  0  0  0
 11 12  1  0  0  0  0
 11 13  1  0  0  0  0
 11 17  1  0  0  0  0
 13 14  1  0  0  0  0
 13 15  1  0  0  0  0
 13 16  1  0  0  0  0
 17 18  1  0  0  0  0
 17 19  1  0  0  0  0
 17 20  1  0  0  0  0
 20 21  1  0  0  0  0
 20 22  1  0  0  0  0
 20 23  1  0  0  0  0
 24 25  2  0  0  0  0
 24 26  1  0  0  0  0
 26 27  1  0  0  0  0
 26 28  1  0  0  0  0
 28 29  1  0  0  0  0
 28 30  1  0  0  0  0
 28 31  1  0  0  0  0
M  END
$$$$

  -OEChem-01062216083D

 31 30  0     1  0  0  0  0  0999 V2000
   -3.5642   -3.0620    1.0631 H   0  0  0  0  0  0  0  0  0  0  0  0
   -3.4415   -2.0296    0.7236 C   0  0  0  0  0  0  0  0  0  0  0  0
   -4.1750   -1.4017    1.2347 H   0  0  0  0  0  0  0  0  0  0  0  0
   -3.6233   -1.9915   -0.3532 H   0  0  0  0  0  0  0  0  0  0  0  0
   -2.0369   -1.5409    1.0262 C   0  0  0  0  0  0  0  0  0  0  0  0
   -1.2727   -2.3039    1.5913 O   0  0  0  0  0  0  0  0  0  0  0  0
   -1.7054   -0.2502    0.6435 N   0  0  0  0  0  0  0  0  0  0  0  0
   -2.4217    0.1834    0.0687 H   0  0  0  0  0  0  0  0  0  0  0  0
   -0.3671    0.3913    0.5652 C   0  0  1  0  0  0  0  0  0  0  0  0
   -0.5206    1.4215    0.8983 H   0  0  0  0  0  0  0  0  0  0  0  0
    0.7616   -0.1685    1.4866 C   0  0  1  0  0  0  0  0  0  0  0  0
    0.9022   -1.2332    1.2785 H   0  0  0  0  0  0  0  0  0  0  0  0
    2.1125    0.5269    1.2154 C   0  0  0  0  0  0  0  0  0  0  0  0
    2.0299    1.6072    1.3679 H   0  0  0  0  0  0  0  0  0  0  0  0
    2.8908    0.1426    1.8791 H   0  0  0  0  0  0  0  0  0  0  0  0
    2.4509    0.3393    0.1923 H   0  0  0  0  0  0  0  0  0  0  0  0
    0.3687    0.0342    2.9732 C   0  0  0  0  0  0  0  0  0  0  0  0
    0.3847    1.1011    3.2170 H   0  0  0  0  0  0  0  0  0  0  0  0
   -0.6528   -0.3170    3.1396 H   0  0  0  0  0  0  0  0  0  0  0  0
    1.2800   -0.7182    3.9478 C   0  0  0  0  0  0  0  0  0  0  0  0
    2.2899   -0.3003    3.9559 H   0  0  0  0  0  0  0  0  0  0  0  0
    0.8770   -0.6458    4.9625 H   0  0  0  0  0  0  0  0  0  0  0  0
    1.3363   -1.7766    3.6738 H   0  0  0  0  0  0  0  0  0  0  0  0
    0.0529    0.4955   -0.9224 C   0  0  0  0  0  0  0  0  0  0  0  0
   -0.2419   -0.3796   -1.7267 O   0  0  0  0  0  0  0  0  0  0  0  0
    0.6024    1.6706   -1.4072 N   0  0  0  0  0  0  0  0  0  0  0  0
    0.8618    2.3814   -0.7302 H   0  0  0  0  0  0  0  0  0  0  0  0
    0.9844    1.8579   -2.8023 C   0  0  0  0  0  0  0  0  0  0  0  0
    0.1192    1.7213   -3.4597 H   0  0  0  0  0  0  0  0  0  0  0  0
    1.3758    2.8682   -2.9548 H   0  0  0  0  0  0  0  0  0  0  0  0
    1.7597    1.1387   -3.0868 H   0  0  0  0  0  0  0  0  0  0  0  0
  1  2  1  0  0  0  0
  2  3  1  0  0  0  0
  2  4  1  0  0  0  0
  2  5  1  0  0  0  0
  5  6  2  0  0  0  0
  5  7  1  0  0  0  0
  7  8  1  0  0  0  0
  7  9  1  0  0  0  0
  9 10  1  0  0  0  0
  9 11  1  0  0  0  0
  9 24  1  0  0  0  0
 11 12  1  0  0  0  0
 11 13  1  0  0  0  0
 11 17  1  0  0  0  0
 13 14  1  0  0  0  0
 13 15  1  0  0  0  0
 13 16  1  0  0  0  0
 17 18  1  0  0  0  0
 17 19  1  0  0  0  0
 17 20  1  0  0  0  0
 20 21  1  0  0  0  0
 20 22  1  0  0  0  0
 20 23  1  0  0  0  0
 24 25  2  0  0  0  0
 24 26  1  0  0  0  0
 26 27  1  0  0  0  0
 26 28  1  0  0  0  0
 28 29  1  0  0  0  0
 28 30  1  0  0  0  0
 28 31  1  0  0  0  0
M  END
$$$$

  -OEChem-01062216083D

 31 30  0     1  0  0  0  0  0999 V2000
   -3.5485   -3.0590    1.0550 H   0  0  0  0  0  0  0  0  0  0  0  0
   -3.4213   -2.0263    0.7182 C   0  0  0  0  0  0  0  0  0  0  0  0
   -4.1530   -1.3968    1.2298 H   0  0  0  0  0  0  0  0  0  0  0  0
   -3.6016   -1.9846   -0.3589 H   0  0  0  0  0  0  0  0  0  0  0  0
   -2.0155   -1.5429    1.0242 C   0  0  0  0  0  0  0  0  0  0  0  0
   -1.2518   -2.3136    1.5798 O   0  0  0  0  0  0  0  0  0  0  0  0
   -1.6822   -0.2500    0.6503 N   0  0  0  0  0  0  0  0  0  0  0  0
   -2.3897    0.1738    0.0565 H   0  0  0  0  0  0  0  0  0  0  0  0
   -0.3456    0.3974    0.5679 C   0  0  1  0  0  0  0  0  0  0  0  0
   -0.4975    1.4278    0.9012 H   0  0  0  0  0  0  0  0  0  0  0  0
    0.7736   -0.1727    1.5007 C   0  0  1  0  0  0  0  0  0  0  0  0
    0.9065   -1.2388    1.2966 H   0  0  0  0  0  0  0  0  0  0  0  0
    2.1400    0.4990    1.2531 C   0  0  0  0  0  0  0  0  0  0  0  0
    2.0652    1.5847    1.3677 H   0  0  0  0  0  0  0  0  0  0  0  0
    2.8935    0.1295    1.9522 H   0  0  0  0  0  0  0  0  0  0  0  0
    2.5086    0.2690    0.2495 H   0  0  0  0  0  0  0  0  0  0  0  0
    0.3621    0.0352    2.9828 C   0  0  0  0  0  0  0  0  0  0  0  0
    0.3834    1.1027    3.2240 H   0  0  0  0  0  0  0  0  0  0  0  0
   -0.6644   -0.3068    3.1365 H   0  0  0  0  0  0  0  0  0  0  0  0
    1.2519   -0.7209    3.9750 C   0  0  0  0  0  0  0  0  0  0  0  0
    2.2626   -0.3061    4.0059 H   0  0  0  0  0  0  0  0  0  0  0  0
    0.8275   -0.6491    4.9809 H   0  0  0  0  0  0  0  0  0  0  0  0
    1.3106   -1.7791    3.7011 H   0  0  0  0  0  0  0  0  0  0  0  0
    0.0607    0.5123   -0.9267 C   0  0  0  0  0  0  0  0  0  0  0  0
   -0.4705   -0.1891   -1.7802 O   0  0  0  0  0  0  0  0  0  0  0  0
    0.8721    1.5478   -1.3595 N   0  0  0  0  0  0  0  0  0  0  0  0
    1.3182    2.1196   -0.6489 H   0  0  0  0  0  0  0  0  0  0  0  0
    1.2484    1.7435   -2.7550 C   0  0  0  0  0  0  0  0  0  0  0  0
    0.3580    1.8874   -3.3763 H   0  0  0  0  0  0  0  0  0  0  0  0
    1.8840    2.6285   -2.8545 H   0  0  0  0  0  0  0  0  0  0  0  0
    1.8021    0.8753   -3.1279 H   0  0  0  0  0  0  0  0  0  0  0  0
  1  2  1  0  0  0  0
  2  3  1  0  0  0  0
  2  4  1  0  0  0  0
  2  5  1  0  0  0  0
  5  6  2  0  0  0  0
  5  7  1  0  0  0  0
  7  8  1  0  0  0  0
  7  9  1  0  0  0  0
  9 10  1  0  0  0  0
  9 11  1  0  0  0  0
  9 24  1  0  0  0  0
 11 12  1  0  0  0  0
 11 13  1  0  0  0  0
 11 17  1  0  0  0  0
 13 14  1  0  0  0  0
 13 15  1  0  0  0  0
 13 16  1  0  0  0  0
 17 18  1  0  0  0  0
 17 19  1  0  0  0  0
 17 20  1  0  0  0  0
 20 21  1  0  0  0  0
 20 22  1  0  0  0  0
 20 23  1  0  0  0  0
 24 25  2  0  0  0  0
 24 26  1  0  0  0  0
 26 27  1  0  0  0  0
 26 28  1  0  0  0  0
 28 29  1  0  0  0  0
 28 30  1  0  0  0  0
 28 31  1  0  0  0  0
M  END
$$$$

  -OEChem-01062216083D

 31 30  0     1  0  0  0  0  0999 V2000
   -3.5262   -3.0549    1.0205 H   0  0  0  0  0  0  0  0  0  0  0  0
   -3.3939   -2.0181    0.6984 C   0  0  0  0  0  0  0  0  0  0  0  0
   -4.1251   -1.3929    1.2160 H   0  0  0  0  0  0  0  0  0  0  0  0
   -3.5704   -1.9606   -0.3787 H   0  0  0  0  0  0  0  0  0  0  0  0
   -1.9879   -1.5435    1.0164 C   0  0  0  0  0  0  0  0  0  0  0  0
   -1.2274   -2.3254    1.5608 O   0  0  0  0  0  0  0  0  0  0  0  0
   -1.6500   -0.2479    0.6575 N   0  0  0  0  0  0  0  0  0  0  0  0
   -2.3483    0.1733    0.0496 H   0  0  0  0  0  0  0  0  0  0  0  0
   -0.3150    0.4056    0.5777 C   0  0  1  0  0  0  0  0  0  0  0  0
   -0.4629    1.4366    0.9115 H   0  0  0  0  0  0  0  0  0  0  0  0
    0.7909   -0.1775    1.5257 C   0  0  1  0  0  0  0  0  0  0  0  0
    0.9183   -1.2441    1.3227 H   0  0  0  0  0  0  0  0  0  0  0  0
    2.1730    0.4741    1.3164 C   0  0  0  0  0  0  0  0  0  0  0  0
    2.1024    1.5643    1.3803 H   0  0  0  0  0  0  0  0  0  0  0  0
    2.8915    0.1326    2.0645 H   0  0  0  0  0  0  0  0  0  0  0  0
    2.5873    0.1925    0.3450 H   0  0  0  0  0  0  0  0  0  0  0  0
    0.3532    0.0323    3.0012 C   0  0  0  0  0  0  0  0  0  0  0  0
    0.3758    1.0996    3.2430 H   0  0  0  0  0  0  0  0  0  0  0  0
   -0.6781   -0.3036    3.1348 H   0  0  0  0  0  0  0  0  0  0  0  0
    1.2157   -0.7289    4.0141 C   0  0  0  0  0  0  0  0  0  0  0  0
    2.2223   -0.3092    4.0818 H   0  0  0  0  0  0  0  0  0  0  0  0
    0.7601   -0.6681    5.0069 H   0  0  0  0  0  0  0  0  0  0  0  0
    1.2887   -1.7842    3.7327 H   0  0  0  0  0  0  0  0  0  0  0  0
    0.0704    0.5305   -0.9260 C   0  0  0  0  0  0  0  0  0  0  0  0
   -0.6431    0.0367   -1.7936 O   0  0  0  0  0  0  0  0  0  0  0  0
    1.0959    1.3580   -1.3504 N   0  0  0  0  0  0  0  0  0  0  0  0
    1.6883    1.7690   -0.6356 H   0  0  0  0  0  0  0  0  0  0  0  0
    1.4549    1.5453   -2.7517 C   0  0  0  0  0  0  0  0  0  0  0  0
    0.6113    1.9609   -3.3128 H   0  0  0  0  0  0  0  0  0  0  0  0
    2.2987    2.2368   -2.8364 H   0  0  0  0  0  0  0  0  0  0  0  0
    1.7428    0.5905   -3.2042 H   0  0  0  0  0  0  0  0  0  0  0  0
  1  2  1  0  0  0  0
  2  3  1  0  0  0  0
  2  4  1  0  0  0  0
  2  5  1  0  0  0  0
  5  6  2  0  0  0  0
  5  7  1  0  0  0  0
  7  8  1  0  0  0  0
  7  9  1  0  0  0  0
  9 10  1  0  0  0  0
  9 11  1  0  0  0  0
  9 24  1  0  0  0  0
 11 12  1  0  0  0  0
 11 13  1  0  0  0  0
 11 17  1  0  0  0  0
 13 14  1  0  0  0  0
 13 15  1  0  0  0  0
 13 16  1  0  0  0  0
 17 18  1  0  0  0  0
 17 19  1  0  0  0  0
 17 20  1  0  0  0  0
 20 21  1  0  0  0  0
 20 22  1  0  0  0  0
 20 23  1  0  0  0  0
 24 25  2  0  0  0  0
 24 26  1  0  0  0  0
 26 27  1  0  0  0  0
 26 28  1  0  0  0  0
 28 29  1  0  0  0  0
 28 30  1  0  0  0  0
 28 31  1  0  0  0  0
M  END
$$$$

  -OEChem-01062216083D

 31 30  0     1  0  0  0  0  0999 V2000
   -3.6286   -2.9870    1.0359 H   0  0  0  0  0  0  0  0  0  0  0  0
   -3.4556   -1.9470    0.7452 C   0  0  0  0  0  0  0  0  0  0  0  0
   -4.0706   -1.2995    1.3746 H   0  0  0  0  0  0  0  0  0  0  0  0
   -3.7527   -1.8195   -0.2986 H   0  0  0  0  0  0  0  0  0  0  0  0
   -1.9894   -1.5918    0.9111 C   0  0  0  0  0  0  0  0  0  0  0  0
   -1.2199   -2.4756    1.2480 O   0  0  0  0  0  0  0  0  0  0  0  0
   -1.6003   -0.2998    0.5947 N   0  0  0  0  0  0  0  0  0  0  0  0
   -2.3198    0.2142    0.0887 H   0  0  0  0  0  0  0  0  0  0  0  0
   -0.2573    0.3389    0.5212 C   0  0  1  0  0  0  0  0  0  0  0  0
   -0.3429    1.2644    1.0980 H   0  0  0  0  0  0  0  0  0  0  0  0
    0.9215   -0.4328    1.2182 C   0  0  1  0  0  0  0  0  0  0  0  0
    0.9778   -1.4413    0.7980 H   0  0  0  0  0  0  0  0  0  0  0  0
    2.3034    0.2165    1.0010 C   0  0  0  0  0  0  0  0  0  0  0  0
    2.2695    1.2862    1.2303 H   0  0  0  0  0  0  0  0  0  0  0  0
    3.0677   -0.2433    1.6301 H   0  0  0  0  0  0  0  0  0  0  0  0
    2.6362    0.0712   -0.0296 H   0  0  0  0  0  0  0  0  0  0  0  0
    0.6429   -0.5234    2.7481 C   0  0  0  0  0  0  0  0  0  0  0  0
    0.7363    0.4737    3.1899 H   0  0  0  0  0  0  0  0  0  0  0  0
   -0.3809   -0.8497    2.9373 H   0  0  0  0  0  0  0  0  0  0  0  0
    1.5786   -1.4801    3.4965 C   0  0  0  0  0  0  0  0  0  0  0  0
    2.5967   -1.0877    3.5547 H   0  0  0  0  0  0  0  0  0  0  0  0
    1.2170   -1.6228    4.5193 H   0  0  0  0  0  0  0  0  0  0  0  0
    1.6008   -2.4557    3.0005 H   0  0  0  0  0  0  0  0  0  0  0  0
   -0.0669    0.8438   -0.9431 C   0  0  0  0  0  0  0  0  0  0  0  0
   -1.0164    0.8101   -1.7214 O   0  0  0  0  0  0  0  0  0  0  0  0
    1.0714    1.4952   -1.3849 N   0  0  0  0  0  0  0  0  0  0  0  0
    1.8565    1.5475   -0.7439 H   0  0  0  0  0  0  0  0  0  0  0  0
    1.2317    2.0255   -2.7345 C   0  0  0  0  0  0  0  0  0  0  0  0
    0.4691    2.7836   -2.9425 H   0  0  0  0  0  0  0  0  0  0  0  0
    2.2169    2.4890   -2.8438 H   0  0  0  0  0  0  0  0  0  0  0  0
    1.1429    1.2231   -3.4745 H   0  0  0  0  0  0  0  0  0  0  0  0
  1  2  1  0  0  0  0
  2  3  1  0  0  0  0
  2  4  1  0  0  0  0
  2  5  1  0  0  0  0
  5  6  2  0  0  0  0
  5  7  1  0  0  0  0
  7  8  1  0  0  0  0
  7  9  1  0  0  0  0
  9 10  1  0  0  0  0
  9 11  1  0  0  0  0
  9 24  1  0  0  0  0
 11 12  1  0  0  0  0
 11 13  1  0  0  0  0
 11 17  1  0  0  0  0
 13 14  1  0  0  0  0
 13 15  1  0  0  0  0
 13 16  1  0  0  0  0
 17 18  1  0  0  0  0
 17 19  1  0  0  0  0
 17 20  1  0  0  0  0
 20 21  1  0  0  0  0
 20 22  1  0  0  0  0
 20 23  1  0  0  0  0
 24 25  2  0  0  0  0
 24 26  1  0  0  0  0
 26 27  1  0  0  0  0
 26 28  1  0  0  0  0
 28 29  1  0  0  0  0
 28 30  1  0  0  0  0
 28 31  1  0  0  0  0
M  END
$$$$

  -OEChem-01062216083D

 31 30  0     1  0  0  0  0  0999 V2000
   -3.6200   -2.9791    1.0180 H   0  0  0  0  0  0  0  0  0  0  0  0
   -3.4404   -1.9388    0.7324 C   0  0  0  0  0  0  0  0  0  0  0  0
   -4.0415   -1.2898    1.3736 H   0  0  0  0  0  0  0  0  0  0  0  0
   -3.7491   -1.8010   -0.3068 H   0  0  0  0  0  0  0  0  0  0  0  0
   -1.9692   -1.5984    0.8840 C   0  0  0  0  0  0  0  0  0  0  0  0
   -1.2007   -2.4915    1.1981 O   0  0  0  0  0  0  0  0  0  0  0  0
   -1.5709   -0.3065    0.5811 N   0  0  0  0  0  0  0  0  0  0  0  0
   -2.2906    0.2308    0.0990 H   0  0  0  0  0  0  0  0  0  0  0  0
   -0.2251    0.3263    0.5250 C   0  0  1  0  0  0  0  0  0  0  0  0
   -0.3107    1.2531    1.0998 H   0  0  0  0  0  0  0  0  0  0  0  0
    0.9424   -0.4489    1.2387 C   0  0  1  0  0  0  0  0  0  0  0  0
    1.0112   -1.4582    0.8222 H   0  0  0  0  0  0  0  0  0  0  0  0
    2.3242    0.2143    1.0535 C   0  0  0  0  0  0  0  0  0  0  0  0
    2.2532    1.2998    1.1761 H   0  0  0  0  0  0  0  0  0  0  0  0
    3.0560   -0.1585    1.7716 H   0  0  0  0  0  0  0  0  0  0  0  0
    2.7299   -0.0196    0.0667 H   0  0  0  0  0  0  0  0  0  0  0  0
    0.6335   -0.5332    2.7637 C   0  0  0  0  0  0  0  0  0  0  0  0
    0.7164    0.4656    3.2039 H   0  0  0  0  0  0  0  0  0  0  0  0
   -0.3940   -0.8606    2.9299 H   0  0  0  0  0  0  0  0  0  0  0  0
    1.5483   -1.4901    3.5389 C   0  0  0  0  0  0  0  0  0  0  0  0
    2.5663   -1.1027    3.6229 H   0  0  0  0  0  0  0  0  0  0  0  0
    1.1603   -1.6281    4.5526 H   0  0  0  0  0  0  0  0  0  0  0  0
    1.5789   -2.4674    3.0471 H   0  0  0  0  0  0  0  0  0  0  0  0
   -0.0409    0.8330   -0.9403 C   0  0  0  0  0  0  0  0  0  0  0  0
   -1.0421    1.0255   -1.6259 O   0  0  0  0  0  0  0  0  0  0  0  0
    1.1667    1.2132   -1.4977 N   0  0  0  0  0  0  0  0  0  0  0  0
    2.0006    1.0926   -0.9339 H   0  0  0  0  0  0  0  0  0  0  0  0
    1.3085    1.7235   -2.8572 C   0  0  0  0  0  0  0  0  0  0  0  0
    0.7269    2.6425   -2.9853 H   0  0  0  0  0  0  0  0  0  0  0  0
    2.3582    1.9474   -3.0693 H   0  0  0  0  0  0  0  0  0  0  0  0
    0.9598    0.9815   -3.5832 H   0  0  0  0  0  0  0  0  0  0  0  0
  1  2  1  0  0  0  0
  2  3  1  0  0  0  0
  2  4  1  0  0  0  0
  2  5  1  0  0  0  0
  5  6  2  0  0  0  0
  5  7  1  0  0  0  0
  7  8  1  0  0  0  0
  7  9  1  0  0  0  0
  9 10  1  0  0  0  0
  9 11  1  0  0  0  0
  9 24  1  0  0  0  0
 11 12  1  0  0  0  0
 11 13  1  0  0  0  0
 11 17  1  0  0  0  0
 13 14  1  0  0  0  0
 13 15  1  0  0  0  0
 13 16  1  0  0  0  0
 17 18  1  0  0  0  0
 17 19  1  0  0  0  0
 17 20  1  0  0  0  0
 20 21  1  0  0  0  0
 20 22  1  0  0  0  0
 20 23  1  0  0  0  0
 24 25  2  0  0  0  0
 24 26  1  0  0  0  0
 26 27  1  0  0  0  0
 26 28  1  0  0  0  0
 28 29  1  0  0  0  0
 28 30  1  0  0  0  0
 28 31  1  0  0  0  0
M  END
$$$$

  -OEChem-01062216083D

 31 30  0     1  0  0  0  0  0999 V2000
   -3.4771   -3.0102    0.7324 H   0  0  0  0  0  0  0  0  0  0  0  0
   -3.3799   -1.9270    0.6160 C   0  0  0  0  0  0  0  0  0  0  0  0
   -3.9144   -1.4371    1.4334 H   0  0  0  0  0  0  0  0  0  0  0  0
   -3.8322   -1.6327   -0.3343 H   0  0  0  0  0  0  0  0  0  0  0  0
   -1.9166   -1.5259    0.6395 C   0  0  0  0  0  0  0  0  0  0  0  0
   -1.0710   -2.4039    0.6641 O   0  0  0  0  0  0  0  0  0  0  0  0
   -1.6025   -0.1816    0.5432 N   0  0  0  0  0  0  0  0  0  0  0  0
   -2.3951    0.4247    0.3384 H   0  0  0  0  0  0  0  0  0  0  0  0
   -0.2890    0.5100    0.5682 C   0  0  1  0  0  0  0  0  0  0  0  0
   -0.3953    1.3356    1.2788 H   0  0  0  0  0  0  0  0  0  0  0  0
    0.9479   -0.2843    1.1134 C   0  0  1  0  0  0  0  0  0  0  0  0
    1.1109   -1.1891    0.5209 H   0  0  0  0  0  0  0  0  0  0  0  0
    2.2382    0.5734    1.1055 C   0  0  0  0  0  0  0  0  0  0  0  0
    2.0886    1.4957    1.6758 H   0  0  0  0  0  0  0  0  0  0  0  0
    2.5557    0.8463    0.1034 H   0  0  0  0  0  0  0  0  0  0  0  0
    3.0750    0.0274    1.5463 H   0  0  0  0  0  0  0  0  0  0  0  0
    0.6952   -0.6373    2.6091 C   0  0  0  0  0  0  0  0  0  0  0  0
    0.7112    0.2741    3.2157 H   0  0  0  0  0  0  0  0  0  0  0  0
   -0.2975   -1.0746    2.7298 H   0  0  0  0  0  0  0  0  0  0  0  0
    1.7024   -1.6400    3.1846 C   0  0  0  0  0  0  0  0  0  0  0  0
    2.6956   -1.1976    3.2950 H   0  0  0  0  0  0  0  0  0  0  0  0
    1.3704   -1.9688    4.1740 H   0  0  0  0  0  0  0  0  0  0  0  0
    1.7756   -2.5194    2.5369 H   0  0  0  0  0  0  0  0  0  0  0  0
   -0.2361    1.2247   -0.8164 C   0  0  0  0  0  0  0  0  0  0  0  0
   -1.1984    1.9091   -1.1406 O   0  0  0  0  0  0  0  0  0  0  0  0
    0.8524    1.5307   -1.5974 N   0  0  0  0  0  0  0  0  0  0  0  0
    0.6146    2.2953   -2.2249 H   0  0  0  0  0  0  0  0  0  0  0  0
    1.5868    0.4420   -2.2349 C   0  0  0  0  0  0  0  0  0  0  0  0
    1.1551    0.2247   -3.2171 H   0  0  0  0  0  0  0  0  0  0  0  0
    2.6358    0.7240   -2.3695 H   0  0  0  0  0  0  0  0  0  0  0  0
    1.5507   -0.4762   -1.6410 H   0  0  0  0  0  0  0  0  0  0  0  0
  1  2  1  0  0  0  0
  2  3  1  0  0  0  0
  2  4  1  0  0  0  0
  2  5  1  0  0  0  0
  5  6  2  0  0  0  0
  5  7  1  0  0  0  0
  7  8  1  0  0  0  0
  7  9  1  0  0  0  0
  9 10  1  0  0  0  0
  9 11  1  0  0  0  0
  9 24  1  0  0  0  0
 11 12  1  0  0  0  0
 11 13  1  0  0  0  0
 11 17  1  0  0  0  0
 13 14  1  0  0  0  0
 13 15  1  0  0  0  0
 13 16  1  0  0  0  0
 17 18  1  0  0  0  0
 17 19  1  0  0  0  0
 17 20  1  0  0  0  0
 20 21  1  0  0  0  0
 20 22  1  0  0  0  0
 20 23  1  0  0  0  0
 24 25  2  0  0  0  0
 24 26  1  0  0  0  0
 26 27  1  0  0  0  0
 26 28  1  0  0  0  0
 28 29  1  0  0  0  0
 28 30  1  0  0  0  0
 28 31  1  0  0  0  0
M  END
$$$$

  -OEChem-01062216083D

 31 30  0     1  0  0  0  0  0999 V2000
   -3.6294   -2.9297    1.0987 H   0  0  0  0  0  0  0  0  0  0  0  0
   -3.4469   -1.8991    0.7816 C   0  0  0  0  0  0  0  0  0  0  0  0
   -4.0074   -1.2265    1.4351 H   0  0  0  0  0  0  0  0  0  0  0  0
   -3.8016   -1.7783   -0.2449 H   0  0  0  0  0  0  0  0  0  0  0  0
   -1.9653   -1.5804    0.8580 C   0  0  0  0  0  0  0  0  0  0  0  0
   -1.1874   -2.4826    1.1182 O   0  0  0  0  0  0  0  0  0  0  0  0
   -1.5556   -0.2970    0.5406 N   0  0  0  0  0  0  0  0  0  0  0  0
   -2.2889    0.2930    0.1500 H   0  0  0  0  0  0  0  0  0  0  0  0
   -0.2028    0.3133    0.5134 C   0  0  1  0  0  0  0  0  0  0  0  0
   -0.2900    1.2531    1.0676 H   0  0  0  0  0  0  0  0  0  0  0  0
    0.9601   -0.4446    1.2449 C   0  0  1  0  0  0  0  0  0  0  0  0
    1.0692   -1.4520    0.8320 H   0  0  0  0  0  0  0  0  0  0  0  0
    2.3132    0.2956    1.0999 C   0  0  0  0  0  0  0  0  0  0  0  0
    2.1787    1.3729    1.2399 H   0  0  0  0  0  0  0  0  0  0  0  0
    2.7655    0.1193    0.1237 H   0  0  0  0  0  0  0  0  0  0  0  0
    3.0452   -0.0504    1.8312 H   0  0  0  0  0  0  0  0  0  0  0  0
    0.6318   -0.5187    2.7652 C   0  0  0  0  0  0  0  0  0  0  0  0
    0.6956    0.4834    3.2016 H   0  0  0  0  0  0  0  0  0  0  0  0
   -0.3936   -0.8606    2.9163 H   0  0  0  0  0  0  0  0  0  0  0  0
    1.5475   -1.4627    3.5550 C   0  0  0  0  0  0  0  0  0  0  0  0
    2.5618   -1.0674    3.6455 H   0  0  0  0  0  0  0  0  0  0  0  0
    1.1518   -1.5978    4.5662 H   0  0  0  0  0  0  0  0  0  0  0  0
    1.5905   -2.4426    3.0692 H   0  0  0  0  0  0  0  0  0  0  0  0
   -0.0046    0.7729   -0.9572 C   0  0  0  0  0  0  0  0  0  0  0  0
   -0.9170    1.3972   -1.4905 O   0  0  0  0  0  0  0  0  0  0  0  0
    1.1456    0.5647   -1.6945 N   0  0  0  0  0  0  0  0  0  0  0  0
    1.8303   -0.0709   -1.2970 H   0  0  0  0  0  0  0  0  0  0  0  0
    1.2849    0.9539   -3.0929 C   0  0  0  0  0  0  0  0  0  0  0  0
    1.1282    2.0316   -3.2086 H   0  0  0  0  0  0  0  0  0  0  0  0
    2.2891    0.7121   -3.4539 H   0  0  0  0  0  0  0  0  0  0  0  0
    0.5552    0.4226   -3.7128 H   0  0  0  0  0  0  0  0  0  0  0  0
  1  2  1  0  0  0  0
  2  3  1  0  0  0  0
  2  4  1  0  0  0  0
  2  5  1  0  0  0  0
  5  6  2  0  0  0  0
  5  7  1  0  0  0  0
  7  8  1  0  0  0  0
  7  9  1  0  0  0  0
  9 10  1  0  0  0  0
  9 11  1  0  0  0  0
  9 24  1  0  0  0  0
 11 12  1  0  0  0  0
 11 13  1  0  0  0  0
 11 17  1  0  0  0  0
 13 14  1  0  0  0  0
 13 15  1  0  0  0  0
 13 16  1  0  0  0  0
 17 18  1  0  0  0  0
 17 19  1  0  0  0  0
 17 20  1  0  0  0  0
 20 21  1  0  0  0  0
 20 22  1  0  0  0  0
 20 23  1  0  0  0  0
 24 25  2  0  0  0  0
 24 26  1  0  0  0  0
 26 27  1  0  0  0  0
 26 28  1  0  0  0  0
 28 29  1  0  0  0  0
 28 30  1  0  0  0  0
 28 31  1  0  0  0  0
M  END
$$$$

  -OEChem-01062216083D

 31 30  0     1  0  0  0  0  0999 V2000
   -3.6155   -2.9447    1.1189 H   0  0  0  0  0  0  0  0  0  0  0  0
   -3.4475   -1.9143    0.7926 C   0  0  0  0  0  0  0  0  0  0  0  0
   -3.9917   -1.2421    1.4602 H   0  0  0  0  0  0  0  0  0  0  0  0
   -3.8323   -1.7990   -0.2237 H   0  0  0  0  0  0  0  0  0  0  0  0
   -1.9657   -1.5893    0.8253 C   0  0  0  0  0  0  0  0  0  0  0  0
   -1.1746   -2.4909    1.0446 O   0  0  0  0  0  0  0  0  0  0  0  0
   -1.5667   -0.3020    0.5110 N   0  0  0  0  0  0  0  0  0  0  0  0
   -2.3141    0.3047    0.1786 H   0  0  0  0  0  0  0  0  0  0  0  0
   -0.2194    0.3180    0.5099 C   0  0  1  0  0  0  0  0  0  0  0  0
   -0.3185    1.2542    1.0687 H   0  0  0  0  0  0  0  0  0  0  0  0
    0.9507   -0.4326    1.2304 C   0  0  1  0  0  0  0  0  0  0  0  0
    1.0826   -1.4258    0.7904 H   0  0  0  0  0  0  0  0  0  0  0  0
    2.2846    0.3457    1.1139 C   0  0  0  0  0  0  0  0  0  0  0  0
    2.1645    1.3681    1.4862 H   0  0  0  0  0  0  0  0  0  0  0  0
    3.0747   -0.1401    1.6902 H   0  0  0  0  0  0  0  0  0  0  0  0
    2.6479    0.3960    0.0882 H   0  0  0  0  0  0  0  0  0  0  0  0
    0.6262   -0.5468    2.7477 C   0  0  0  0  0  0  0  0  0  0  0  0
    0.6698    0.4450    3.2095 H   0  0  0  0  0  0  0  0  0  0  0  0
   -0.3914   -0.9142    2.8920 H   0  0  0  0  0  0  0  0  0  0  0  0
    1.5645   -1.4919    3.5070 C   0  0  0  0  0  0  0  0  0  0  0  0
    2.5751   -1.0831    3.5820 H   0  0  0  0  0  0  0  0  0  0  0  0
    1.1894   -1.6457    4.5233 H   0  0  0  0  0  0  0  0  0  0  0  0
    1.6112   -2.4642    3.0063 H   0  0  0  0  0  0  0  0  0  0  0  0
   -0.0022    0.7702   -0.9555 C   0  0  0  0  0  0  0  0  0  0  0  0
   -0.8042    1.5597   -1.4424 O   0  0  0  0  0  0  0  0  0  0  0  0
    1.0304    0.3087   -1.7503 N   0  0  0  0  0  0  0  0  0  0  0  0
    1.5938   -0.4467   -1.3696 H   0  0  0  0  0  0  0  0  0  0  0  0
    1.1778    0.6545   -3.1586 C   0  0  0  0  0  0  0  0  0  0  0  0
    1.2393    1.7408   -3.2826 H   0  0  0  0  0  0  0  0  0  0  0  0
    2.0927    0.2108   -3.5625 H   0  0  0  0  0  0  0  0  0  0  0  0
    0.3259    0.2807   -3.7360 H   0  0  0  0  0  0  0  0  0  0  0  0
  1  2  1  0  0  0  0
  2  3  1  0  0  0  0
  2  4  1  0  0  0  0
  2  5  1  0  0  0  0
  5  6  2  0  0  0  0
  5  7  1  0  0  0  0
  7  8  1  0  0  0  0
  7  9  1  0  0  0  0
  9 10  1  0  0  0  0
  9 11  1  0  0  0  0
  9 24  1  0  0  0  0
 11 12  1  0  0  0  0
 11 13  1  0  0  0  0
 11 17  1  0  0  0  0
 13 14  1  0  0  0  0
 13 15  1  0  0  0  0
 13 16  1  0  0  0  0
 17 18  1  0  0  0  0
 17 19  1  0  0  0  0
 17 20  1  0  0  0  0
 20 21  1  0  0  0  0
 20 22  1  0  0  0  0
 20 23  1  0  0  0  0
 24 25  2  0  0  0  0
 24 26  1  0  0  0  0
 26 27  1  0  0  0  0
 26 28  1  0  0  0  0
 28 29  1  0  0  0  0
 28 30  1  0  0  0  0
 28 31  1  0  0  0  0
M  END
$$$$

  -OEChem-01062216083D

 31 30  0     1  0  0  0  0  0999 V2000
   -3.6157   -2.9553    1.1591 H   0  0  0  0  0  0  0  0  0  0  0  0
   -3.4615   -1.9208    0.8391 C   0  0  0  0  0  0  0  0  0  0  0  0
   -3.9815   -1.2576    1.5346 H   0  0  0  0  0  0  0  0  0  0  0  0
   -3.8840   -1.7947   -0.1607 H   0  0  0  0  0  0  0  0  0  0  0  0
   -1.9799   -1.5940    0.8199 C   0  0  0  0  0  0  0  0  0  0  0  0
   -1.1792   -2.4941    1.0082 O   0  0  0  0  0  0  0  0  0  0  0  0
   -1.5911   -0.3077    0.4898 N   0  0  0  0  0  0  0  0  0  0  0  0
   -2.3528    0.3089    0.2148 H   0  0  0  0  0  0  0  0  0  0  0  0
   -0.2479    0.3199    0.4952 C   0  0  1  0  0  0  0  0  0  0  0  0
   -0.3563    1.2569    1.0511 H   0  0  0  0  0  0  0  0  0  0  0  0
    0.9287   -0.4175    1.2128 C   0  0  1  0  0  0  0  0  0  0  0  0
    1.0656   -1.4090    0.7701 H   0  0  0  0  0  0  0  0  0  0  0  0
    2.2520    0.3710    1.0686 C   0  0  0  0  0  0  0  0  0  0  0  0
    2.1538    1.3687    1.5082 H   0  0  0  0  0  0  0  0  0  0  0  0
    3.0721   -0.1488    1.5698 H   0  0  0  0  0  0  0  0  0  0  0  0
    2.5496    0.4871    0.0254 H   0  0  0  0  0  0  0  0  0  0  0  0
    0.6196   -0.5445    2.7301 C   0  0  0  0  0  0  0  0  0  0  0  0
    0.6548    0.4446    3.1982 H   0  0  0  0  0  0  0  0  0  0  0  0
   -0.3916   -0.9273    2.8810 H   0  0  0  0  0  0  0  0  0  0  0  0
    1.5810   -1.4827    3.4668 C   0  0  0  0  0  0  0  0  0  0  0  0
    2.5910   -1.0675    3.5107 H   0  0  0  0  0  0  0  0  0  0  0  0
    1.2346   -1.6348    4.4934 H   0  0  0  0  0  0  0  0  0  0  0  0
    1.6188   -2.4562    2.9680 H   0  0  0  0  0  0  0  0  0  0  0  0
    0.0047    0.7589   -0.9640 C   0  0  0  0  0  0  0  0  0  0  0  0
   -0.6366    1.7002   -1.4149 O   0  0  0  0  0  0  0  0  0  0  0  0
    0.8647    0.0697   -1.7994 N   0  0  0  0  0  0  0  0  0  0  0  0
    1.2673   -0.7886   -1.4319 H   0  0  0  0  0  0  0  0  0  0  0  0
    1.0269    0.3768   -3.2147 C   0  0  0  0  0  0  0  0  0  0  0  0
    1.3477    1.4154   -3.3476 H   0  0  0  0  0  0  0  0  0  0  0  0
    1.7842   -0.2763   -3.6588 H   0  0  0  0  0  0  0  0  0  0  0  0
    0.0828    0.2280   -3.7489 H   0  0  0  0  0  0  0  0  0  0  0  0
  1  2  1  0  0  0  0
  2  3  1  0  0  0  0
  2  4  1  0  0  0  0
  2  5  1  0  0  0  0
  5  6  2  0  0  0  0
  5  7  1  0  0  0  0
  7  8  1  0  0  0  0
  7  9  1  0  0  0  0
  9 10  1  0  0  0  0
  9 11  1  0  0  0  0
  9 24  1  0  0  0  0
 11 12  1  0  0  0  0
 11 13  1  0  0  0  0
 11 17  1  0  0  0  0
 13 14  1  0  0  0  0
 13 15  1  0  0  0  0
 13 16  1  0  0  0  0
 17 18  1  0  0  0  0
 17 19  1  0  0  0  0
 17 20  1  0  0  0  0
 20 21  1  0  0  0  0
 20 22  1  0  0  0  0
 20 23  1  0  0  0  0
 24 25  2  0  0  0  0
 24 26  1  0  0  0  0
 26 27  1  0  0  0  0
 26 28  1  0  0  0  0
 28 29  1  0  0  0  0
 28 30  1  0  0  0  0
 28 31  1  0  0  0  0
M  END
$$$$

  -OEChem-01062216083D

 31 30  0     1  0  0  0  0  0999 V2000
   -3.6128   -2.9615    1.2318 H   0  0  0  0  0  0  0  0  0  0  0  0
   -3.4719   -1.9284    0.9012 C   0  0  0  0  0  0  0  0  0  0  0  0
   -3.9587   -1.2624    1.6176 H   0  0  0  0  0  0  0  0  0  0  0  0
   -3.9406   -1.8051   -0.0781 H   0  0  0  0  0  0  0  0  0  0  0  0
   -1.9922   -1.6036    0.8121 C   0  0  0  0  0  0  0  0  0  0  0  0
   -1.1834   -2.5050    0.9523 O   0  0  0  0  0  0  0  0  0  0  0  0
   -1.6151   -0.3173    0.4692 N   0  0  0  0  0  0  0  0  0  0  0  0
   -2.3899    0.3088    0.2630 H   0  0  0  0  0  0  0  0  0  0  0  0
   -0.2761    0.3194    0.4773 C   0  0  1  0  0  0  0  0  0  0  0  0
   -0.3940    1.2554    1.0332 H   0  0  0  0  0  0  0  0  0  0  0  0
    0.9055   -0.4095    1.1917 C   0  0  1  0  0  0  0  0  0  0  0  0
    1.0435   -1.4007    0.7493 H   0  0  0  0  0  0  0  0  0  0  0  0
    2.2223    0.3798    1.0154 C   0  0  0  0  0  0  0  0  0  0  0  0
    2.1274    1.3849    1.4384 H   0  0  0  0  0  0  0  0  0  0  0  0
    3.0529   -0.1280    1.5118 H   0  0  0  0  0  0  0  0  0  0  0  0
    2.4956    0.4745   -0.0383 H   0  0  0  0  0  0  0  0  0  0  0  0
    0.6080   -0.5464    2.7089 C   0  0  0  0  0  0  0  0  0  0  0  0
    0.6386    0.4411    3.1807 H   0  0  0  0  0  0  0  0  0  0  0  0
   -0.3985   -0.9400    2.8637 H   0  0  0  0  0  0  0  0  0  0  0  0
    1.5844   -1.4797    3.4316 C   0  0  0  0  0  0  0  0  0  0  0  0
    2.5918   -1.0569    3.4635 H   0  0  0  0  0  0  0  0  0  0  0  0
    1.2519   -1.6373    4.4620 H   0  0  0  0  0  0  0  0  0  0  0  0
    1.6236   -2.4515    2.9295 H   0  0  0  0  0  0  0  0  0  0  0  0
    0.0124    0.7544   -0.9729 C   0  0  0  0  0  0  0  0  0  0  0  0
   -0.4095    1.8313   -1.3737 O   0  0  0  0  0  0  0  0  0  0  0  0
    0.6459   -0.1019   -1.8542 N   0  0  0  0  0  0  0  0  0  0  0  0
    0.8489   -1.0385   -1.5126 H   0  0  0  0  0  0  0  0  0  0  0  0
    0.8200    0.1899   -3.2711 C   0  0  0  0  0  0  0  0  0  0  0  0
    1.3832    1.1195   -3.4043 H   0  0  0  0  0  0  0  0  0  0  0  0
    1.3712   -0.6198   -3.7589 H   0  0  0  0  0  0  0  0  0  0  0  0
   -0.1529    0.2933   -3.7629 H   0  0  0  0  0  0  0  0  0  0  0  0
  1  2  1  0  0  0  0
  2  3  1  0  0  0  0
  2  4  1  0  0  0  0
  2  5  1  0  0  0  0
  5  6  2  0  0  0  0
  5  7  1  0  0  0  0
  7  8  1  0  0  0  0
  7  9  1  0  0  0  0
  9 10  1  0  0  0  0
  9 11  1  0  0  0  0
  9 24  1  0  0  0  0
 11 12  1  0  0  0  0
 11 13  1  0  0  0  0
 11 17  1  0  0  0  0
 13 14  1  0  0  0  0
 13 15  1  0  0  0  0
 13 16  1  0  0  0  0
 17 18  1  0  0  0  0
 17 19  1  0  0  0  0
 17 20  1  0  0  0  0
 20 21  1  0  0  0  0
 20 22  1  0  0  0  0
 20 23  1  0  0  0  0
 24 25  2  0  0  0  0
 24 26  1  0  0  0  0
 26 27  1  0  0  0  0
 26 28  1  0  0  0  0
 28 29  1  0  0  0  0
 28 30  1  0  0  0  0
 28 31  1  0  0  0  0
M  END
$$$$

  -OEChem-01062216083D

 31 30  0     1  0  0  0  0  0999 V2000
   -3.6041   -2.9600    1.3272 H   0  0  0  0  0  0  0  0  0  0  0  0
   -3.4798   -1.9338    0.9698 C   0  0  0  0  0  0  0  0  0  0  0  0
   -3.9384   -1.2538    1.6918 H   0  0  0  0  0  0  0  0  0  0  0  0
   -3.9883   -1.8314    0.0081 H   0  0  0  0  0  0  0  0  0  0  0  0
   -2.0058   -1.6094    0.8142 C   0  0  0  0  0  0  0  0  0  0  0  0
   -1.1918   -2.5122    0.9034 O   0  0  0  0  0  0  0  0  0  0  0  0
   -1.6418   -0.3234    0.4570 N   0  0  0  0  0  0  0  0  0  0  0  0
   -2.4257    0.3070    0.3075 H   0  0  0  0  0  0  0  0  0  0  0  0
   -0.3055    0.3216    0.4617 C   0  0  1  0  0  0  0  0  0  0  0  0
   -0.4263    1.2574    1.0174 H   0  0  0  0  0  0  0  0  0  0  0  0
    0.8818   -0.4045    1.1681 C   0  0  1  0  0  0  0  0  0  0  0  0
    1.0180   -1.3940    0.7217 H   0  0  0  0  0  0  0  0  0  0  0  0
    2.1958    0.3822    0.9723 C   0  0  0  0  0  0  0  0  0  0  0  0
    2.1067    1.3905    1.3890 H   0  0  0  0  0  0  0  0  0  0  0  0
    3.0316   -0.1232    1.4621 H   0  0  0  0  0  0  0  0  0  0  0  0
    2.4532    0.4667   -0.0872 H   0  0  0  0  0  0  0  0  0  0  0  0
    0.5963   -0.5511    2.6859 C   0  0  0  0  0  0  0  0  0  0  0  0
    0.6267    0.4342    3.1621 H   0  0  0  0  0  0  0  0  0  0  0  0
   -0.4070   -0.9502    2.8462 H   0  0  0  0  0  0  0  0  0  0  0  0
    1.5826   -1.4832    3.3961 C   0  0  0  0  0  0  0  0  0  0  0  0
    2.5877   -1.0545    3.4224 H   0  0  0  0  0  0  0  0  0  0  0  0
    1.2586   -1.6483    4.4281 H   0  0  0  0  0  0  0  0  0  0  0  0
    1.6236   -2.4519    2.8883 H   0  0  0  0  0  0  0  0  0  0  0  0
    0.0002    0.7483   -0.9855 C   0  0  0  0  0  0  0  0  0  0  0  0
   -0.1520    1.9133   -1.3276 O   0  0  0  0  0  0  0  0  0  0  0  0
    0.3589   -0.2041   -1.9201 N   0  0  0  0  0  0  0  0  0  0  0  0
    0.3767   -1.1713   -1.6033 H   0  0  0  0  0  0  0  0  0  0  0  0
    0.5728    0.0904   -3.3305 C   0  0  0  0  0  0  0  0  0  0  0  0
    1.3489    0.8538   -3.4484 H   0  0  0  0  0  0  0  0  0  0  0  0
    0.8934   -0.8118   -3.8602 H   0  0  0  0  0  0  0  0  0  0  0  0
   -0.3521    0.4532   -3.7908 H   0  0  0  0  0  0  0  0  0  0  0  0
  1  2  1  0  0  0  0
  2  3  1  0  0  0  0
  2  4  1  0  0  0  0
  2  5  1  0  0  0  0
  5  6  2  0  0  0  0
  5  7  1  0  0  0  0
  7  8  1  0  0  0  0
  7  9  1  0  0  0  0
  9 10  1  0  0  0  0
  9 11  1  0  0  0  0
  9 24  1  0  0  0  0
 11 12  1  0  0  0  0
 11 13  1  0  0  0  0
 11 17  1  0  0  0  0
 13 14  1  0  0  0  0
 13 15  1  0  0  0  0
 13 16  1  0  0  0  0
 17 18  1  0  0  0  0
 17 19  1  0  0  0  0
 17 20  1  0  0  0  0
 20 21  1  0  0  0  0
 20 22  1  0  0  0  0
 20 23  1  0  0  0  0
 24 25  2  0  0  0  0
 24 26  1  0  0  0  0
 26 27  1  0  0  0  0
 26 28  1  0  0  0  0
 28 29  1  0  0  0  0
 28 30  1  0  0  0  0
 28 31  1  0  0  0  0
M  END
$$$$

  -OEChem-01062216083D

 31 30  0     1  0  0  0  0  0999 V2000
   -3.6011   -2.9826    1.3456 H   0  0  0  0  0  0  0  0  0  0  0  0
   -3.4843   -1.9406    1.0342 C   0  0  0  0  0  0  0  0  0  0  0  0
   -3.8995   -1.2947    1.8117 H   0  0  0  0  0  0  0  0  0  0  0  0
   -4.0396   -1.7864    0.1057 H   0  0  0  0  0  0  0  0  0  0  0  0
   -2.0168   -1.6189    0.8211 C   0  0  0  0  0  0  0  0  0  0  0  0
   -1.2017   -2.5233    0.8696 O   0  0  0  0  0  0  0  0  0  0  0  0
   -1.6635   -0.3334    0.4520 N   0  0  0  0  0  0  0  0  0  0  0  0
   -2.4534    0.2973    0.3430 H   0  0  0  0  0  0  0  0  0  0  0  0
   -0.3303    0.3220    0.4481 C   0  0  1  0  0  0  0  0  0  0  0  0
   -0.4529    1.2590    1.0015 H   0  0  0  0  0  0  0  0  0  0  0  0
    0.8619   -0.4022    1.1484 C   0  0  1  0  0  0  0  0  0  0  0  0
    0.9974   -1.3905    0.6992 H   0  0  0  0  0  0  0  0  0  0  0  0
    2.1749    0.3836    0.9431 C   0  0  0  0  0  0  0  0  0  0  0  0
    2.0855    1.3957    1.3506 H   0  0  0  0  0  0  0  0  0  0  0  0
    3.0129   -0.1162    1.4348 H   0  0  0  0  0  0  0  0  0  0  0  0
    2.4289    0.4580   -0.1182 H   0  0  0  0  0  0  0  0  0  0  0  0
    0.5845   -0.5525    2.6674 C   0  0  0  0  0  0  0  0  0  0  0  0
    0.6159    0.4324    3.1444 H   0  0  0  0  0  0  0  0  0  0  0  0
   -0.4167   -0.9545    2.8328 H   0  0  0  0  0  0  0  0  0  0  0  0
    1.5761   -1.4834    3.3724 C   0  0  0  0  0  0  0  0  0  0  0  0
    2.5819   -1.0561    3.3894 H   0  0  0  0  0  0  0  0  0  0  0  0
    1.2607   -1.6450    4.4078 H   0  0  0  0  0  0  0  0  0  0  0  0
    1.6120   -2.4539    2.8676 H   0  0  0  0  0  0  0  0  0  0  0  0
   -0.0195    0.7432   -1.0000 C   0  0  0  0  0  0  0  0  0  0  0  0
    0.0910    1.9268   -1.2903 O   0  0  0  0  0  0  0  0  0  0  0  0
    0.0436   -0.2183   -1.9900 N   0  0  0  0  0  0  0  0  0  0  0  0
   -0.0760   -1.1858   -1.6965 H   0  0  0  0  0  0  0  0  0  0  0  0
    0.2925    0.0814   -3.3934 C   0  0  0  0  0  0  0  0  0  0  0  0
    1.2594    0.5815   -3.5121 H   0  0  0  0  0  0  0  0  0  0  0  0
    0.3061   -0.8420   -3.9803 H   0  0  0  0  0  0  0  0  0  0  0  0
   -0.4929    0.7327   -3.7910 H   0  0  0  0  0  0  0  0  0  0  0  0
  1  2  1  0  0  0  0
  2  3  1  0  0  0  0
  2  4  1  0  0  0  0
  2  5  1  0  0  0  0
  5  6  2  0  0  0  0
  5  7  1  0  0  0  0
  7  8  1  0  0  0  0
  7  9  1  0  0  0  0
  9 10  1  0  0  0  0
  9 11  1  0  0  0  0
  9 24  1  0  0  0  0
 11 12  1  0  0  0  0
 11 13  1  0  0  0  0
 11 17  1  0  0  0  0
 13 14  1  0  0  0  0
 13 15  1  0  0  0  0
 13 16  1  0  0  0  0
 17 18  1  0  0  0  0
 17 19  1  0  0  0  0
 17 20  1  0  0  0  0
 20 21  1  0  0  0  0
 20 22  1  0  0  0  0
 20 23  1  0  0  0  0
 24 25  2  0  0  0  0
 24 26  1  0  0  0  0
 26 27  1  0  0  0  0
 26 28  1  0  0  0  0
 28 29  1  0  0  0  0
 28 30  1  0  0  0  0
 28 31  1  0  0  0  0
M  END
$$$$

  -OEChem-01062216083D

 31 30  0     1  0  0  0  0  0999 V2000
   -3.5897   -2.9813    1.4294 H   0  0  0  0  0  0  0  0  0  0  0  0
   -3.4839   -1.9479    1.0866 C   0  0  0  0  0  0  0  0  0  0  0  0
   -3.8821   -1.2823    1.8563 H   0  0  0  0  0  0  0  0  0  0  0  0
   -4.0620   -1.8202    0.1682 H   0  0  0  0  0  0  0  0  0  0  0  0
   -2.0228   -1.6289    0.8293 C   0  0  0  0  0  0  0  0  0  0  0  0
   -1.2098   -2.5359    0.8472 O   0  0  0  0  0  0  0  0  0  0  0  0
   -1.6773   -0.3432    0.4532 N   0  0  0  0  0  0  0  0  0  0  0  0
   -2.4706    0.2879    0.3780 H   0  0  0  0  0  0  0  0  0  0  0  0
   -0.3458    0.3198    0.4367 C   0  0  1  0  0  0  0  0  0  0  0  0
   -0.4689    1.2574    0.9888 H   0  0  0  0  0  0  0  0  0  0  0  0
    0.8476   -0.4056    1.1355 C   0  0  1  0  0  0  0  0  0  0  0  0
    0.9778   -1.3954    0.6882 H   0  0  0  0  0  0  0  0  0  0  0  0
    2.1661    0.3692    0.9262 C   0  0  0  0  0  0  0  0  0  0  0  0
    2.0813    1.3870    1.3201 H   0  0  0  0  0  0  0  0  0  0  0  0
    2.9996   -0.1291    1.4269 H   0  0  0  0  0  0  0  0  0  0  0  0
    2.4244    0.4272   -0.1351 H   0  0  0  0  0  0  0  0  0  0  0  0
    0.5750   -0.5513    2.6560 C   0  0  0  0  0  0  0  0  0  0  0  0
    0.6092    0.4348    3.1303 H   0  0  0  0  0  0  0  0  0  0  0  0
   -0.4262   -0.9516    2.8257 H   0  0  0  0  0  0  0  0  0  0  0  0
    1.5672   -1.4826    3.3599 C   0  0  0  0  0  0  0  0  0  0  0  0
    2.5714   -1.0514    3.3831 H   0  0  0  0  0  0  0  0  0  0  0  0
    1.2491   -1.6505    4.3932 H   0  0  0  0  0  0  0  0  0  0  0  0
    1.6085   -2.4502    2.8501 H   0  0  0  0  0  0  0  0  0  0  0  0
   -0.0341    0.7439   -1.0128 C   0  0  0  0  0  0  0  0  0  0  0  0
    0.3172    1.8898   -1.2602 O   0  0  0  0  0  0  0  0  0  0  0  0
   -0.2652   -0.1388   -2.0506 N   0  0  0  0  0  0  0  0  0  0  0  0
   -0.5198   -1.0891   -1.7892 H   0  0  0  0  0  0  0  0  0  0  0  0
   -0.0105    0.1761   -3.4499 C   0  0  0  0  0  0  0  0  0  0  0  0
    1.0467    0.4179   -3.6016 H   0  0  0  0  0  0  0  0  0  0  0  0
   -0.2647   -0.6797   -4.0823 H   0  0  0  0  0  0  0  0  0  0  0  0
   -0.6168    1.0314   -3.7660 H   0  0  0  0  0  0  0  0  0  0  0  0
  1  2  1  0  0  0  0
  2  3  1  0  0  0  0
  2  4  1  0  0  0  0
  2  5  1  0  0  0  0
  5  6  2  0  0  0  0
  5  7  1  0  0  0  0
  7  8  1  0  0  0  0
  7  9  1  0  0  0  0
  9 10  1  0  0  0  0
  9 11  1  0  0  0  0
  9 24  1  0  0  0  0
 11 12  1  0  0  0  0
 11 13  1  0  0  0  0
 11 17  1  0  0  0  0
 13 14  1  0  0  0  0
 13 15  1  0  0  0  0
 13 16  1  0  0  0  0
 17 18  1  0  0  0  0
 17 19  1  0  0  0  0
 17 20  1  0  0  0  0
 20 21  1  0  0  0  0
 20 22  1  0  0  0  0
 20 23  1  0  0  0  0
 24 25  2  0  0  0  0
 24 26  1  0  0  0  0
 26 27  1  0  0  0  0
 26 28  1  0  0  0  0
 28 29  1  0  0  0  0
 28 30  1  0  0  0  0
 28 31  1  0  0  0  0
M  END
$$$$

  -OEChem-01062216083D

 31 30  0     1  0  0  0  0  0999 V2000
   -3.5831   -2.9850    1.4697 H   0  0  0  0  0  0  0  0  0  0  0  0
   -3.4796   -1.9570    1.1103 C   0  0  0  0  0  0  0  0  0  0  0  0
   -3.8758   -1.2801    1.8712 H   0  0  0  0  0  0  0  0  0  0  0  0
   -4.0613   -1.8442    0.1923 H   0  0  0  0  0  0  0  0  0  0  0  0
   -2.0200   -1.6409    0.8420 C   0  0  0  0  0  0  0  0  0  0  0  0
   -1.2098   -2.5498    0.8580 O   0  0  0  0  0  0  0  0  0  0  0  0
   -1.6782   -0.3551    0.4608 N   0  0  0  0  0  0  0  0  0  0  0  0
   -2.4741    0.2741    0.3969 H   0  0  0  0  0  0  0  0  0  0  0  0
   -0.3485    0.3161    0.4275 C   0  0  1  0  0  0  0  0  0  0  0  0
   -0.4691    1.2548    0.9780 H   0  0  0  0  0  0  0  0  0  0  0  0
    0.8442   -0.4123    1.1297 C   0  0  1  0  0  0  0  0  0  0  0  0
    0.9657   -1.4063    0.6898 H   0  0  0  0  0  0  0  0  0  0  0  0
    2.1735    0.3429    0.9160 C   0  0  0  0  0  0  0  0  0  0  0  0
    2.0981    1.3702    1.2865 H   0  0  0  0  0  0  0  0  0  0  0  0
    2.9984   -0.1528    1.4329 H   0  0  0  0  0  0  0  0  0  0  0  0
    2.4404    0.3728   -0.1443 H   0  0  0  0  0  0  0  0  0  0  0  0
    0.5712   -0.5454    2.6519 C   0  0  0  0  0  0  0  0  0  0  0  0
    0.6126    0.4443    3.1183 H   0  0  0  0  0  0  0  0  0  0  0  0
   -0.4324   -0.9373    2.8255 H   0  0  0  0  0  0  0  0  0  0  0  0
    1.5566   -1.4768    3.3653 C   0  0  0  0  0  0  0  0  0  0  0  0
    2.5634   -1.0519    3.3883 H   0  0  0  0  0  0  0  0  0  0  0  0
    1.2347   -1.6351    4.3989 H   0  0  0  0  0  0  0  0  0  0  0  0
    1.5935   -2.4483    2.8626 H   0  0  0  0  0  0  0  0  0  0  0  0
   -0.0430    0.7459   -1.0258 C   0  0  0  0  0  0  0  0  0  0  0  0
    0.4919    1.8236   -1.2518 O   0  0  0  0  0  0  0  0  0  0  0  0
   -0.5462    0.0146   -2.0860 N   0  0  0  0  0  0  0  0  0  0  0  0
   -0.9219   -0.9027   -1.8576 H   0  0  0  0  0  0  0  0  0  0  0  0
   -0.3207    0.3637   -3.4829 C   0  0  0  0  0  0  0  0  0  0  0  0
    0.7510    0.3720   -3.7079 H   0  0  0  0  0  0  0  0  0  0  0  0
   -0.8070   -0.3654   -4.1379 H   0  0  0  0  0  0  0  0  0  0  0  0
   -0.7344    1.3537   -3.7019 H   0  0  0  0  0  0  0  0  0  0  0  0
  1  2  1  0  0  0  0
  2  3  1  0  0  0  0
  2  4  1  0  0  0  0
  2  5  1  0  0  0  0
  5  6  2  0  0  0  0
  5  7  1  0  0  0  0
  7  8  1  0  0  0  0
  7  9  1  0  0  0  0
  9 10  1  0  0  0  0
  9 11  1  0  0  0  0
  9 24  1  0  0  0  0
 11 12  1  0  0  0  0
 11 13  1  0  0  0  0
 11 17  1  0  0  0  0
 13 14  1  0  0  0  0
 13 15  1  0  0  0  0
 13 16  1  0  0  0  0
 17 18  1  0  0  0  0
 17 19  1  0  0  0  0
 17 20  1  0  0  0  0
 20 21  1  0  0  0  0
 20 22  1  0  0  0  0
 20 23  1  0  0  0  0
 24 25  2  0  0  0  0
 24 26  1  0  0  0  0
 26 27  1  0  0  0  0
 26 28  1  0  0  0  0
 28 29  1  0  0  0  0
 28 30  1  0  0  0  0
 28 31  1  0  0  0  0
M  END
$$$$

  -OEChem-01062216083D

 31 30  0     1  0  0  0  0  0999 V2000
   -3.5714   -3.0051    1.4570 H   0  0  0  0  0  0  0  0  0  0  0  0
   -3.4670   -1.9679    1.1256 C   0  0  0  0  0  0  0  0  0  0  0  0
   -3.8472   -1.3110    1.9116 H   0  0  0  0  0  0  0  0  0  0  0  0
   -4.0627   -1.8269    0.2205 H   0  0  0  0  0  0  0  0  0  0  0  0
   -2.0094   -1.6523    0.8444 C   0  0  0  0  0  0  0  0  0  0  0  0
   -1.2010   -2.5622    0.8597 O   0  0  0  0  0  0  0  0  0  0  0  0
   -1.6724   -0.3650    0.4607 N   0  0  0  0  0  0  0  0  0  0  0  0
   -2.4700    0.2638    0.4174 H   0  0  0  0  0  0  0  0  0  0  0  0
   -0.3441    0.3130    0.4135 C   0  0  1  0  0  0  0  0  0  0  0  0
   -0.4629    1.2531    0.9614 H   0  0  0  0  0  0  0  0  0  0  0  0
    0.8460   -0.4195    1.1234 C   0  0  1  0  0  0  0  0  0  0  0  0
    0.9617   -1.4177    0.6919 H   0  0  0  0  0  0  0  0  0  0  0  0
    2.1863    0.3163    0.9127 C   0  0  0  0  0  0  0  0  0  0  0  0
    2.1112    1.3571    1.2433 H   0  0  0  0  0  0  0  0  0  0  0  0
    2.9971   -0.1648    1.4637 H   0  0  0  0  0  0  0  0  0  0  0  0
    2.4755    0.3024   -0.1418 H   0  0  0  0  0  0  0  0  0  0  0  0
    0.5662   -0.5375    2.6469 C   0  0  0  0  0  0  0  0  0  0  0  0
    0.6127    0.4563    3.1042 H   0  0  0  0  0  0  0  0  0  0  0  0
   -0.4408   -0.9201    2.8207 H   0  0  0  0  0  0  0  0  0  0  0  0
    1.5405   -1.4690    3.3757 C   0  0  0  0  0  0  0  0  0  0  0  0
    2.5485   -1.0481    3.4090 H   0  0  0  0  0  0  0  0  0  0  0  0
    1.2060   -1.6213    4.4062 H   0  0  0  0  0  0  0  0  0  0  0  0
    1.5795   -2.4432    2.8782 H   0  0  0  0  0  0  0  0  0  0  0  0
   -0.0480    0.7488   -1.0444 C   0  0  0  0  0  0  0  0  0  0  0  0
    0.6551    1.7252   -1.2703 O   0  0  0  0  0  0  0  0  0  0  0  0
   -0.7863    0.2261   -2.0915 N   0  0  0  0  0  0  0  0  0  0  0  0
   -1.2996   -0.6271   -1.8874 H   0  0  0  0  0  0  0  0  0  0  0  0
   -0.5973    0.6217   -3.4818 C   0  0  0  0  0  0  0  0  0  0  0  0
    0.4269    0.4070   -3.8044 H   0  0  0  0  0  0  0  0  0  0  0  0
   -1.2880    0.0726   -4.1289 H   0  0  0  0  0  0  0  0  0  0  0  0
   -0.7884    1.6930   -3.6051 H   0  0  0  0  0  0  0  0  0  0  0  0
  1  2  1  0  0  0  0
  2  3  1  0  0  0  0
  2  4  1  0  0  0  0
  2  5  1  0  0  0  0
  5  6  2  0  0  0  0
  5  7  1  0  0  0  0
  7  8  1  0  0  0  0
  7  9  1  0  0  0  0
  9 10  1  0  0  0  0
  9 11  1  0  0  0  0
  9 24  1  0  0  0  0
 11 12  1  0  0  0  0
 11 13  1  0  0  0  0
 11 17  1  0  0  0  0
 13 14  1  0  0  0  0
 13 15  1  0  0  0  0
 13 16  1  0  0  0  0
 17 18  1  0  0  0  0
 17 19  1  0  0  0  0
 17 20  1  0  0  0  0
 20 21  1  0  0  0  0
 20 22  1  0  0  0  0
 20 23  1  0  0  0  0
 24 25  2  0  0  0  0
 24 26  1  0  0  0  0
 26 27  1  0  0  0  0
 26 28  1  0  0  0  0
 28 29  1  0  0  0  0
 28 30  1  0  0  0  0
 28 31  1  0  0  0  0
M  END
$$$$

  -OEChem-01062216083D

 31 30  0     1  0  0  0  0  0999 V2000
   -3.5348   -3.0119    1.4884 H   0  0  0  0  0  0  0  0  0  0  0  0
   -3.4394   -1.9810    1.1347 C   0  0  0  0  0  0  0  0  0  0  0  0
   -3.8105   -1.3098    1.9129 H   0  0  0  0  0  0  0  0  0  0  0  0
   -4.0485   -1.8597    0.2358 H   0  0  0  0  0  0  0  0  0  0  0  0
   -1.9874   -1.6669    0.8255 C   0  0  0  0  0  0  0  0  0  0  0  0
   -1.1813   -2.5787    0.8297 O   0  0  0  0  0  0  0  0  0  0  0  0
   -1.6564   -0.3758    0.4462 N   0  0  0  0  0  0  0  0  0  0  0  0
   -2.4535    0.2548    0.4410 H   0  0  0  0  0  0  0  0  0  0  0  0
   -0.3290    0.3066    0.3903 C   0  0  1  0  0  0  0  0  0  0  0  0
   -0.4471    1.2477    0.9362 H   0  0  0  0  0  0  0  0  0  0  0  0
    0.8535   -0.4301    1.1161 C   0  0  1  0  0  0  0  0  0  0  0  0
    0.9642   -1.4335    0.6962 H   0  0  0  0  0  0  0  0  0  0  0  0
    2.2085    0.2810    0.9171 C   0  0  0  0  0  0  0  0  0  0  0  0
    2.1383    1.3349    1.2045 H   0  0  0  0  0  0  0  0  0  0  0  0
    2.9985   -0.1869    1.5078 H   0  0  0  0  0  0  0  0  0  0  0  0
    2.5268    0.2193   -0.1271 H   0  0  0  0  0  0  0  0  0  0  0  0
    0.5558   -0.5279    2.6389 C   0  0  0  0  0  0  0  0  0  0  0  0
    0.6053    0.4712    3.0838 H   0  0  0  0  0  0  0  0  0  0  0  0
   -0.4561   -0.8998    2.8059 H   0  0  0  0  0  0  0  0  0  0  0  0
    1.5104   -1.4581    3.3957 C   0  0  0  0  0  0  0  0  0  0  0  0
    2.5203   -1.0436    3.4463 H   0  0  0  0  0  0  0  0  0  0  0  0
    1.1545   -1.5976    4.4210 H   0  0  0  0  0  0  0  0  0  0  0  0
    1.5527   -2.4378    2.9093 H   0  0  0  0  0  0  0  0  0  0  0  0
   -0.0482    0.7528   -1.0721 C   0  0  0  0  0  0  0  0  0  0  0  0
    0.8077    1.5906   -1.3239 O   0  0  0  0  0  0  0  0  0  0  0  0
   -0.9739    0.4856   -2.0669 N   0  0  0  0  0  0  0  0  0  0  0  0
   -1.6210   -0.2724   -1.8709 H   0  0  0  0  0  0  0  0  0  0  0  0
   -0.8300    0.9476   -3.4430 C   0  0  0  0  0  0  0  0  0  0  0  0
    0.0897    0.5517   -3.8864 H   0  0  0  0  0  0  0  0  0  0  0  0
   -1.6790    0.6112   -4.0455 H   0  0  0  0  0  0  0  0  0  0  0  0
   -0.7955    2.0417   -3.4790 H   0  0  0  0  0  0  0  0  0  0  0  0
  1  2  1  0  0  0  0
  2  3  1  0  0  0  0
  2  4  1  0  0  0  0
  2  5  1  0  0  0  0
  5  6  2  0  0  0  0
  5  7  1  0  0  0  0
  7  8  1  0  0  0  0
  7  9  1  0  0  0  0
  9 10  1  0  0  0  0
  9 11  1  0  0  0  0
  9 24  1  0  0  0  0
 11 12  1  0  0  0  0
 11 13  1  0  0  0  0
 11 17  1  0  0  0  0
 13 14  1  0  0  0  0
 13 15  1  0  0  0  0
 13 16  1  0  0  0  0
 17 18  1  0  0  0  0
 17 19  1  0  0  0  0
 17 20  1  0  0  0  0
 20 21  1  0  0  0  0
 20 22  1  0  0  0  0
 20 23  1  0  0  0  0
 24 25  2  0  0  0  0
 24 26  1  0  0  0  0
 26 27  1  0  0  0  0
 26 28  1  0  0  0  0
 28 29  1  0  0  0  0
 28 30  1  0  0  0  0
 28 31  1  0  0  0  0
M  END
$$$$

  -OEChem-01062216083D

 31 30  0     1  0  0  0  0  0999 V2000
   -3.5136   -3.0349    1.4255 H   0  0  0  0  0  0  0  0  0  0  0  0
   -3.4147   -1.9869    1.1276 C   0  0  0  0  0  0  0  0  0  0  0  0
   -3.7533   -1.3561    1.9530 H   0  0  0  0  0  0  0  0  0  0  0  0
   -4.0489   -1.8085    0.2560 H   0  0  0  0  0  0  0  0  0  0  0  0
   -1.9680   -1.6727    0.7927 C   0  0  0  0  0  0  0  0  0  0  0  0
   -1.1642   -2.5860    0.7731 O   0  0  0  0  0  0  0  0  0  0  0  0
   -1.6419   -0.3756    0.4285 N   0  0  0  0  0  0  0  0  0  0  0  0
   -2.4352    0.2575    0.4778 H   0  0  0  0  0  0  0  0  0  0  0  0
   -0.3130    0.3059    0.3717 C   0  0  1  0  0  0  0  0  0  0  0  0
   -0.4285    1.2457    0.9198 H   0  0  0  0  0  0  0  0  0  0  0  0
    0.8642   -0.4362    1.1074 C   0  0  1  0  0  0  0  0  0  0  0  0
    0.9773   -1.4413    0.6926 H   0  0  0  0  0  0  0  0  0  0  0  0
    2.2273    0.2677    0.9324 C   0  0  0  0  0  0  0  0  0  0  0  0
    2.1433    1.3347    1.1609 H   0  0  0  0  0  0  0  0  0  0  0  0
    2.9935   -0.1635    1.5790 H   0  0  0  0  0  0  0  0  0  0  0  0
    2.5928    0.1503   -0.0912 H   0  0  0  0  0  0  0  0  0  0  0  0
    0.5486   -0.5224    2.6284 C   0  0  0  0  0  0  0  0  0  0  0  0
    0.5979    0.4792    3.0679 H   0  0  0  0  0  0  0  0  0  0  0  0
   -0.4672   -0.8888    2.7854 H   0  0  0  0  0  0  0  0  0  0  0  0
    1.4874   -1.4534    3.4046 C   0  0  0  0  0  0  0  0  0  0  0  0
    2.4946   -1.0371    3.4836 H   0  0  0  0  0  0  0  0  0  0  0  0
    1.1067   -1.5992    4.4199 H   0  0  0  0  0  0  0  0  0  0  0  0
    1.5445   -2.4303    2.9144 H   0  0  0  0  0  0  0  0  0  0  0  0
   -0.0573    0.7669   -1.0949 C   0  0  0  0  0  0  0  0  0  0  0  0
    0.9443    1.3885   -1.4201 O   0  0  0  0  0  0  0  0  0  0  0  0
   -1.1103    0.7918   -1.9954 N   0  0  0  0  0  0  0  0  0  0  0  0
   -1.8900    0.1827   -1.7705 H   0  0  0  0  0  0  0  0  0  0  0  0
   -0.9815    1.2784   -3.3651 C   0  0  0  0  0  0  0  0  0  0  0  0
   -0.2296    0.6972   -3.9093 H   0  0  0  0  0  0  0  0  0  0  0  0
   -1.9371    1.1882   -3.8901 H   0  0  0  0  0  0  0  0  0  0  0  0
   -0.6839    2.3323   -3.3715 H   0  0  0  0  0  0  0  0  0  0  0  0
  1  2  1  0  0  0  0
  2  3  1  0  0  0  0
  2  4  1  0  0  0  0
  2  5  1  0  0  0  0
  5  6  2  0  0  0  0
  5  7  1  0  0  0  0
  7  8  1  0  0  0  0
  7  9  1  0  0  0  0
  9 10  1  0  0  0  0
  9 11  1  0  0  0  0
  9 24  1  0  0  0  0
 11 12  1  0  0  0  0
 11 13  1  0  0  0  0
 11 17  1  0  0  0  0
 13 14  1  0  0  0  0
 13 15  1  0  0  0  0
 13 16  1  0  0  0  0
 17 18  1  0  0  0  0
 17 19  1  0  0  0  0
 17 20  1  0  0  0  0
 20 21  1  0  0  0  0
 20 22  1  0  0  0  0
 20 23  1  0  0  0  0
 24 25  2  0  0  0  0
 24 26  1  0  0  0  0
 26 27  1  0  0  0  0
 26 28  1  0  0  0  0
 28 29  1  0  0  0  0
 28 30  1  0  0  0  0
 28 31  1  0  0  0  0
M  END
$$$$

  -OEChem-01062216083D

 31 30  0     1  0  0  0  0  0999 V2000
   -3.4921   -3.0326    1.4089 H   0  0  0  0  0  0  0  0  0  0  0  0
   -3.4014   -1.9918    1.0839 C   0  0  0  0  0  0  0  0  0  0  0  0
   -3.7595   -1.3432    1.8869 H   0  0  0  0  0  0  0  0  0  0  0  0
   -4.0239   -1.8451    0.1980 H   0  0  0  0  0  0  0  0  0  0  0  0
   -1.9541   -1.6700    0.7601 C   0  0  0  0  0  0  0  0  0  0  0  0
   -1.1492   -2.5823    0.7400 O   0  0  0  0  0  0  0  0  0  0  0  0
   -1.6296   -0.3656    0.4191 N   0  0  0  0  0  0  0  0  0  0  0  0
   -2.4188    0.2672    0.5069 H   0  0  0  0  0  0  0  0  0  0  0  0
   -0.2959    0.3055    0.3653 C   0  0  1  0  0  0  0  0  0  0  0  0
   -0.4050    1.2402    0.9230 H   0  0  0  0  0  0  0  0  0  0  0  0
    0.8789   -0.4416    1.1022 C   0  0  1  0  0  0  0  0  0  0  0  0
    0.9976   -1.4461    0.6877 H   0  0  0  0  0  0  0  0  0  0  0  0
    2.2413    0.2727    0.9472 C   0  0  0  0  0  0  0  0  0  0  0  0
    2.1351    1.3493    1.1119 H   0  0  0  0  0  0  0  0  0  0  0  0
    2.9851   -0.1090    1.6479 H   0  0  0  0  0  0  0  0  0  0  0  0
    2.6554    0.1035   -0.0497 H   0  0  0  0  0  0  0  0  0  0  0  0
    0.5528   -0.5224    2.6223 C   0  0  0  0  0  0  0  0  0  0  0  0
    0.6004    0.4802    3.0597 H   0  0  0  0  0  0  0  0  0  0  0  0
   -0.4654   -0.8857    2.7707 H   0  0  0  0  0  0  0  0  0  0  0  0
    1.4801   -1.4552    3.4111 C   0  0  0  0  0  0  0  0  0  0  0  0
    2.4856   -1.0398    3.5101 H   0  0  0  0  0  0  0  0  0  0  0  0
    1.0816   -1.6051    4.4189 H   0  0  0  0  0  0  0  0  0  0  0  0
    1.5458   -2.4303    2.9181 H   0  0  0  0  0  0  0  0  0  0  0  0
   -0.0670    0.7883   -1.1009 C   0  0  0  0  0  0  0  0  0  0  0  0
    1.0299    1.0602   -1.5651 O   0  0  0  0  0  0  0  0  0  0  0  0
   -1.1625    1.1332   -1.8780 N   0  0  0  0  0  0  0  0  0  0  0  0
   -2.0564    0.7697   -1.5689 H   0  0  0  0  0  0  0  0  0  0  0  0
   -1.0492    1.6096   -3.2531 C   0  0  0  0  0  0  0  0  0  0  0  0
   -0.5720    0.8513   -3.8829 H   0  0  0  0  0  0  0  0  0  0  0  0
   -2.0409    1.8267   -3.6613 H   0  0  0  0  0  0  0  0  0  0  0  0
   -0.4530    2.5274   -3.2949 H   0  0  0  0  0  0  0  0  0  0  0  0
  1  2  1  0  0  0  0
  2  3  1  0  0  0  0
  2  4  1  0  0  0  0
  2  5  1  0  0  0  0
  5  6  2  0  0  0  0
  5  7  1  0  0  0  0
  7  8  1  0  0  0  0
  7  9  1  0  0  0  0
  9 10  1  0  0  0  0
  9 11  1  0  0  0  0
  9 24  1  0  0  0  0
 11 12  1  0  0  0  0
 11 13  1  0  0  0  0
 11 17  1  0  0  0  0
 13 14  1  0  0  0  0
 13 15  1  0  0  0  0
 13 16  1  0  0  0  0
 17 18  1  0  0  0  0
 17 19  1  0  0  0  0
 17 20  1  0  0  0  0
 20 21  1  0  0  0  0
 20 22  1  0  0  0  0
 20 23  1  0  0  0  0
 24 25  2  0  0  0  0
 24 26  1  0  0  0  0
 26 27  1  0  0  0  0
 26 28  1  0  0  0  0
 28 29  1  0  0  0  0
 28 30  1  0  0  0  0
 28 31  1  0  0  0  0
M  END
$$$$

  -OEChem-01062216083D

 31 30  0     1  0  0  0  0  0999 V2000
   -3.5737   -3.0226    1.2463 H   0  0  0  0  0  0  0  0  0  0  0  0
   -3.4505   -1.9796    0.9403 C   0  0  0  0  0  0  0  0  0  0  0  0
   -3.9047   -1.3373    1.6984 H   0  0  0  0  0  0  0  0  0  0  0  0
   -3.9641   -1.8316   -0.0127 H   0  0  0  0  0  0  0  0  0  0  0  0
   -1.9768   -1.6488    0.7918 C   0  0  0  0  0  0  0  0  0  0  0  0
   -1.1687   -2.5496    0.9212 O   0  0  0  0  0  0  0  0  0  0  0  0
   -1.6290   -0.3483    0.4587 N   0  0  0  0  0  0  0  0  0  0  0  0
   -2.4277    0.2712    0.3821 H   0  0  0  0  0  0  0  0  0  0  0  0
   -0.2876    0.3021    0.4023 C   0  0  1  0  0  0  0  0  0  0  0  0
   -0.3852    1.2327    0.9683 H   0  0  0  0  0  0  0  0  0  0  0  0
    0.8990   -0.4397    1.1163 C   0  0  1  0  0  0  0  0  0  0  0  0
    1.0225   -1.4405    0.6920 H   0  0  0  0  0  0  0  0  0  0  0  0
    2.2410    0.3148    0.9520 C   0  0  0  0  0  0  0  0  0  0  0  0
    2.1149    1.3787    1.1742 H   0  0  0  0  0  0  0  0  0  0  0  0
    3.0115   -0.0841    1.6134 H   0  0  0  0  0  0  0  0  0  0  0  0
    2.6360    0.2108   -0.0600 H   0  0  0  0  0  0  0  0  0  0  0  0
    0.5989   -0.5260    2.6413 C   0  0  0  0  0  0  0  0  0  0  0  0
    0.6521    0.4749    3.0820 H   0  0  0  0  0  0  0  0  0  0  0  0
   -0.4163   -0.8912    2.8067 H   0  0  0  0  0  0  0  0  0  0  0  0
    1.5448   -1.4575    3.4088 C   0  0  0  0  0  0  0  0  0  0  0  0
    2.5542   -1.0452    3.4771 H   0  0  0  0  0  0  0  0  0  0  0  0
    1.1735   -1.6012    4.4279 H   0  0  0  0  0  0  0  0  0  0  0  0
    1.5937   -2.4352    2.9190 H   0  0  0  0  0  0  0  0  0  0  0  0
   -0.0728    0.7866   -1.0627 C   0  0  0  0  0  0  0  0  0  0  0  0
    0.9327    0.5562   -1.7174 O   0  0  0  0  0  0  0  0  0  0  0  0
   -1.1034    1.4438   -1.7185 N   0  0  0  0  0  0  0  0  0  0  0  0
   -1.9600    1.6077   -1.2046 H   0  0  0  0  0  0  0  0  0  0  0  0
   -1.0319    1.8634   -3.1143 C   0  0  0  0  0  0  0  0  0  0  0  0
   -0.8985    0.9956   -3.7689 H   0  0  0  0  0  0  0  0  0  0  0  0
   -1.9541    2.3760   -3.4035 H   0  0  0  0  0  0  0  0  0  0  0  0
   -0.1931    2.5509   -3.2655 H   0  0  0  0  0  0  0  0  0  0  0  0
  1  2  1  0  0  0  0
  2  3  1  0  0  0  0
  2  4  1  0  0  0  0
  2  5  1  0  0  0  0
  5  6  2  0  0  0  0
  5  7  1  0  0  0  0
  7  8  1  0  0  0  0
  7  9  1  0  0  0  0
  9 10  1  0  0  0  0
  9 11  1  0  0  0  0
  9 24  1  0  0  0  0
 11 12  1  0  0  0  0
 11 13  1  0  0  0  0
 11 17  1  0  0  0  0
 13 14  1  0  0  0  0
 13 15  1  0  0  0  0
 13 16  1  0  0  0  0
 17 18  1  0  0  0  0
 17 19  1  0  0  0  0
 17 20  1  0  0  0  0
 20 21  1  0  0  0  0
 20 22  1  0  0  0  0
 20 23  1  0  0  0  0
 24 25  2  0  0  0  0
 24 26  1  0  0  0  0
 26 27  1  0  0  0  0
 26 28  1  0  0  0  0
 28 29  1  0  0  0  0
 28 30  1  0  0  0  0
 28 31  1  0  0  0  0
M  END
$$$$

  -OEChem-01062216083D

 31 30  0     1  0  0  0  0  0999 V2000
   -3.6495   -2.9959    1.1623 H   0  0  0  0  0  0  0  0  0  0  0  0
   -3.4994   -1.9612    0.8403 C   0  0  0  0  0  0  0  0  0  0  0  0
   -4.0437   -1.3009    1.5195 H   0  0  0  0  0  0  0  0  0  0  0  0
   -3.8999   -1.8473   -0.1699 H   0  0  0  0  0  0  0  0  0  0  0  0
   -2.0208   -1.6179    0.8536 C   0  0  0  0  0  0  0  0  0  0  0  0
   -1.2280   -2.5015    1.1239 O   0  0  0  0  0  0  0  0  0  0  0  0
   -1.6498   -0.3288    0.5025 N   0  0  0  0  0  0  0  0  0  0  0  0
   -2.4273    0.2469    0.1970 H   0  0  0  0  0  0  0  0  0  0  0  0
   -0.3024    0.3021    0.4418 C   0  0  1  0  0  0  0  0  0  0  0  0
   -0.3891    1.2369    1.0023 H   0  0  0  0  0  0  0  0  0  0  0  0
    0.8946   -0.4285    1.1374 C   0  0  1  0  0  0  0  0  0  0  0  0
    1.0056   -1.4302    0.7101 H   0  0  0  0  0  0  0  0  0  0  0  0
    2.2243    0.3347    0.9286 C   0  0  0  0  0  0  0  0  0  0  0  0
    2.1386    1.3639    1.2898 H   0  0  0  0  0  0  0  0  0  0  0  0
    3.0450   -0.1518    1.4602 H   0  0  0  0  0  0  0  0  0  0  0  0
    2.5150    0.3606   -0.1231 H   0  0  0  0  0  0  0  0  0  0  0  0
    0.6368   -0.5188    2.6687 C   0  0  0  0  0  0  0  0  0  0  0  0
    0.6989    0.4807    3.1107 H   0  0  0  0  0  0  0  0  0  0  0  0
   -0.3720   -0.8858    2.8651 H   0  0  0  0  0  0  0  0  0  0  0  0
    1.6145   -1.4469    3.3979 C   0  0  0  0  0  0  0  0  0  0  0  0
    2.6265   -1.0348    3.4116 H   0  0  0  0  0  0  0  0  0  0  0  0
    1.2926   -1.5820    4.4347 H   0  0  0  0  0  0  0  0  0  0  0  0
    1.6381   -2.4281    2.9136 H   0  0  0  0  0  0  0  0  0  0  0  0
   -0.0853    0.7563   -1.0253 C   0  0  0  0  0  0  0  0  0  0  0  0
    0.7156    0.2199   -1.7776 O   0  0  0  0  0  0  0  0  0  0  0  0
   -0.9665    1.6737   -1.5765 N   0  0  0  0  0  0  0  0  0  0  0  0
   -1.5978    2.1551   -0.9457 H   0  0  0  0  0  0  0  0  0  0  0  0
   -0.8973    2.1123   -2.9663 C   0  0  0  0  0  0  0  0  0  0  0  0
   -1.0055    1.2588   -3.6440 H   0  0  0  0  0  0  0  0  0  0  0  0
   -1.7007    2.8240   -3.1795 H   0  0  0  0  0  0  0  0  0  0  0  0
    0.0617    2.6017   -3.1666 H   0  0  0  0  0  0  0  0  0  0  0  0
  1  2  1  0  0  0  0
  2  3  1  0  0  0  0
  2  4  1  0  0  0  0
  2  5  1  0  0  0  0
  5  6  2  0  0  0  0
  5  7  1  0  0  0  0
  7  8  1  0  0  0  0
  7  9  1  0  0  0  0
  9 10  1  0  0  0  0
  9 11  1  0  0  0  0
  9 24  1  0  0  0  0
 11 12  1  0  0  0  0
 11 13  1  0  0  0  0
 11 17  1  0  0  0  0
 13 14  1  0  0  0  0
 13 15  1  0  0  0  0
 13 16  1  0  0  0  0
 17 18  1  0  0  0  0
 17 19  1  0  0  0  0
 17 20  1  0  0  0  0
 20 21  1  0  0  0  0
 20 22  1  0  0  0  0
 20 23  1  0  0  0  0
 24 25  2  0  0  0  0
 24 26  1  0  0  0  0
 26 27  1  0  0  0  0
 26 28  1  0  0  0  0
 28 29  1  0  0  0  0
 28 30  1  0  0  0  0
 28 31  1  0  0  0  0
M  END
$$$$

  -OEChem-01062216083D

 31 30  0     1  0  0  0  0  0999 V2000
   -3.6691   -2.9959    1.1818 H   0  0  0  0  0  0  0  0  0  0  0  0
   -3.5197   -1.9652    0.8471 C   0  0  0  0  0  0  0  0  0  0  0  0
   -4.0802   -1.2985    1.5066 H   0  0  0  0  0  0  0  0  0  0  0  0
   -3.9023   -1.8688   -0.1719 H   0  0  0  0  0  0  0  0  0  0  0  0
   -2.0437   -1.6129    0.8815 C   0  0  0  0  0  0  0  0  0  0  0  0
   -1.2515   -2.4899    1.1750 O   0  0  0  0  0  0  0  0  0  0  0  0
   -1.6742   -0.3259    0.5211 N   0  0  0  0  0  0  0  0  0  0  0  0
   -2.4488    0.2419    0.1929 H   0  0  0  0  0  0  0  0  0  0  0  0
   -0.3294    0.3064    0.4570 C   0  0  1  0  0  0  0  0  0  0  0  0
   -0.4182    1.2391    1.0206 H   0  0  0  0  0  0  0  0  0  0  0  0
    0.8759   -0.4169    1.1397 C   0  0  1  0  0  0  0  0  0  0  0  0
    0.9799   -1.4184    0.7098 H   0  0  0  0  0  0  0  0  0  0  0  0
    2.1983    0.3457    0.8967 C   0  0  0  0  0  0  0  0  0  0  0  0
    2.1364    1.3625    1.2961 H   0  0  0  0  0  0  0  0  0  0  0  0
    3.0376   -0.1651    1.3747 H   0  0  0  0  0  0  0  0  0  0  0  0
    2.4370    0.4054   -0.1677 H   0  0  0  0  0  0  0  0  0  0  0  0
    0.6419   -0.5174    2.6729 C   0  0  0  0  0  0  0  0  0  0  0  0
    0.7074    0.4803    3.1186 H   0  0  0  0  0  0  0  0  0  0  0  0
   -0.3618   -0.8893    2.8850 H   0  0  0  0  0  0  0  0  0  0  0  0
    1.6394   -1.4429    3.3769 C   0  0  0  0  0  0  0  0  0  0  0  0
    2.6505   -1.0284    3.3611 H   0  0  0  0  0  0  0  0  0  0  0  0
    1.3461   -1.5761    4.4224 H   0  0  0  0  0  0  0  0  0  0  0  0
    1.6510   -2.4252    2.8942 H   0  0  0  0  0  0  0  0  0  0  0  0
   -0.0984    0.7544   -1.0065 C   0  0  0  0  0  0  0  0  0  0  0  0
    0.5365    0.0794   -1.8047 O   0  0  0  0  0  0  0  0  0  0  0  0
   -0.7557    1.8787   -1.4784 N   0  0  0  0  0  0  0  0  0  0  0  0
   -1.2493    2.4540   -0.8040 H   0  0  0  0  0  0  0  0  0  0  0  0
   -0.6302    2.3577   -2.8507 C   0  0  0  0  0  0  0  0  0  0  0  0
   -0.9401    1.5814   -3.5585 H   0  0  0  0  0  0  0  0  0  0  0  0
   -1.2641    3.2361   -3.0047 H   0  0  0  0  0  0  0  0  0  0  0  0
    0.4069    2.6362   -3.0658 H   0  0  0  0  0  0  0  0  0  0  0  0
  1  2  1  0  0  0  0
  2  3  1  0  0  0  0
  2  4  1  0  0  0  0
  2  5  1  0  0  0  0
  5  6  2  0  0  0  0
  5  7  1  0  0  0  0
  7  8  1  0  0  0  0
  7  9  1  0  0  0  0
  9 10  1  0  0  0  0
  9 11  1  0  0  0  0
  9 24  1  0  0  0  0
 11 12  1  0  0  0  0
 11 13  1  0  0  0  0
 11 17  1  0  0  0  0
 13 14  1  0  0  0  0
 13 15  1  0  0  0  0
 13 16  1  0  0  0  0
 17 18  1  0  0  0  0
 17 19  1  0  0  0  0
 17 20  1  0  0  0  0
 20 21  1  0  0  0  0
 20 22  1  0  0  0  0
 20 23  1  0  0  0  0
 24 25  2  0  0  0  0
 24 26  1  0  0  0  0
 26 27  1  0  0  0  0
 26 28  1  0  0  0  0
 28 29  1  0  0  0  0
 28 30  1  0  0  0  0
 28 31  1  0  0  0  0
M  END
$$$$

  -OEChem-01062216083D

 31 30  0     1  0  0  0  0  0999 V2000
   -3.6825   -3.0024    1.2030 H   0  0  0  0  0  0  0  0  0  0  0  0
   -3.5350   -1.9742    0.8599 C   0  0  0  0  0  0  0  0  0  0  0  0
   -4.1028   -1.3037    1.5091 H   0  0  0  0  0  0  0  0  0  0  0  0
   -3.9110   -1.8891   -0.1625 H   0  0  0  0  0  0  0  0  0  0  0  0
   -2.0608   -1.6146    0.9015 C   0  0  0  0  0  0  0  0  0  0  0  0
   -1.2669   -2.4852    1.2096 O   0  0  0  0  0  0  0  0  0  0  0  0
   -1.6964   -0.3271    0.5375 N   0  0  0  0  0  0  0  0  0  0  0  0
   -2.4710    0.2314    0.1929 H   0  0  0  0  0  0  0  0  0  0  0  0
   -0.3552    0.3104    0.4689 C   0  0  1  0  0  0  0  0  0  0  0  0
   -0.4493    1.2383    1.0393 H   0  0  0  0  0  0  0  0  0  0  0  0
    0.8589   -0.4063    1.1386 C   0  0  1  0  0  0  0  0  0  0  0  0
    0.9588   -1.4071    0.7059 H   0  0  0  0  0  0  0  0  0  0  0  0
    2.1740    0.3573    0.8670 C   0  0  0  0  0  0  0  0  0  0  0  0
    2.1196    1.3746    1.2662 H   0  0  0  0  0  0  0  0  0  0  0  0
    3.0242   -0.1515    1.3277 H   0  0  0  0  0  0  0  0  0  0  0  0
    2.3858    0.4138   -0.2042 H   0  0  0  0  0  0  0  0  0  0  0  0
    0.6448   -0.5168    2.6734 C   0  0  0  0  0  0  0  0  0  0  0  0
    0.7116    0.4789    3.1235 H   0  0  0  0  0  0  0  0  0  0  0  0
   -0.3541   -0.8944    2.8979 H   0  0  0  0  0  0  0  0  0  0  0  0
    1.6588   -1.4394    3.3569 C   0  0  0  0  0  0  0  0  0  0  0  0
    2.6676   -1.0202    3.3225 H   0  0  0  0  0  0  0  0  0  0  0  0
    1.3860   -1.5763    4.4075 H   0  0  0  0  0  0  0  0  0  0  0  0
    1.6659   -2.4204    2.8715 H   0  0  0  0  0  0  0  0  0  0  0  0
   -0.1121    0.7627   -0.9898 C   0  0  0  0  0  0  0  0  0  0  0  0
    0.3308   -0.0023   -1.8350 O   0  0  0  0  0  0  0  0  0  0  0  0
   -0.4988    2.0321   -1.3853 N   0  0  0  0  0  0  0  0  0  0  0  0
   -0.8281    2.6703   -0.6682 H   0  0  0  0  0  0  0  0  0  0  0  0
   -0.3035    2.5377   -2.7394 C   0  0  0  0  0  0  0  0  0  0  0  0
   -0.7999    1.8874   -3.4676 H   0  0  0  0  0  0  0  0  0  0  0  0
   -0.7249    3.5432   -2.8329 H   0  0  0  0  0  0  0  0  0  0  0  0
    0.7639    2.5849   -2.9796 H   0  0  0  0  0  0  0  0  0  0  0  0
  1  2  1  0  0  0  0
  2  3  1  0  0  0  0
  2  4  1  0  0  0  0
  2  5  1  0  0  0  0
  5  6  2  0  0  0  0
  5  7  1  0  0  0  0
  7  8  1  0  0  0  0
  7  9  1  0  0  0  0
  9 10  1  0  0  0  0
  9 11  1  0  0  0  0
  9 24  1  0  0  0  0
 11 12  1  0  0  0  0
 11 13  1  0  0  0  0
 11 17  1  0  0  0  0
 13 14  1  0  0  0  0
 13 15  1  0  0  0  0
 13 16  1  0  0  0  0
 17 18  1  0  0  0  0
 17 19  1  0  0  0  0
 17 20  1  0  0  0  0
 20 21  1  0  0  0  0
 20 22  1  0  0  0  0
 20 23  1  0  0  0  0
 24 25  2  0  0  0  0
 24 26  1  0  0  0  0
 26 27  1  0  0  0  0
 26 28  1  0  0  0  0
 28 29  1  0  0  0  0
 28 30  1  0  0  0  0
 28 31  1  0  0  0  0
M  END
$$$$

  -OEChem-01062216083D

 31 30  0     1  0  0  0  0  0999 V2000
   -3.6867   -3.0125    1.1858 H   0  0  0  0  0  0  0  0  0  0  0  0
   -3.5411   -1.9822    0.8484 C   0  0  0  0  0  0  0  0  0  0  0  0
   -4.1265   -1.3179    1.4883 H   0  0  0  0  0  0  0  0  0  0  0  0
   -3.8978   -1.8974   -0.1809 H   0  0  0  0  0  0  0  0  0  0  0  0
   -2.0710   -1.6107    0.9188 C   0  0  0  0  0  0  0  0  0  0  0  0
   -1.2772   -2.4745    1.2469 O   0  0  0  0  0  0  0  0  0  0  0  0
   -1.7100   -0.3219    0.5561 N   0  0  0  0  0  0  0  0  0  0  0  0
   -2.4801    0.2241    0.1821 H   0  0  0  0  0  0  0  0  0  0  0  0
   -0.3698    0.3164    0.4822 C   0  0  1  0  0  0  0  0  0  0  0  0
   -0.4692    1.2394    1.0595 H   0  0  0  0  0  0  0  0  0  0  0  0
    0.8502   -0.3976    1.1415 C   0  0  1  0  0  0  0  0  0  0  0  0
    0.9434   -1.3988    0.7082 H   0  0  0  0  0  0  0  0  0  0  0  0
    2.1626    0.3611    0.8472 C   0  0  0  0  0  0  0  0  0  0  0  0
    2.1154    1.3820    1.2381 H   0  0  0  0  0  0  0  0  0  0  0  0
    3.0179   -0.1452    1.3009 H   0  0  0  0  0  0  0  0  0  0  0  0
    2.3582    0.4063   -0.2282 H   0  0  0  0  0  0  0  0  0  0  0  0
    0.6510   -0.5130    2.6776 C   0  0  0  0  0  0  0  0  0  0  0  0
    0.7231    0.4821    3.1280 H   0  0  0  0  0  0  0  0  0  0  0  0
   -0.3457   -0.8899    2.9123 H   0  0  0  0  0  0  0  0  0  0  0  0
    1.6737   -1.4344    3.3494 C   0  0  0  0  0  0  0  0  0  0  0  0
    2.6819   -1.0155    3.3012 H   0  0  0  0  0  0  0  0  0  0  0  0
    1.4137   -1.5691    4.4035 H   0  0  0  0  0  0  0  0  0  0  0  0
    1.6745   -2.4167    2.8664 H   0  0  0  0  0  0  0  0  0  0  0  0
   -0.1188    0.7784   -0.9712 C   0  0  0  0  0  0  0  0  0  0  0  0
    0.0674   -0.0293   -1.8702 O   0  0  0  0  0  0  0  0  0  0  0  0
   -0.2022    2.1219   -1.2944 N   0  0  0  0  0  0  0  0  0  0  0  0
   -0.3155    2.7847   -0.5340 H   0  0  0  0  0  0  0  0  0  0  0  0
    0.0328    2.6320   -2.6404 C   0  0  0  0  0  0  0  0  0  0  0  0
   -0.6563    2.1667   -3.3533 H   0  0  0  0  0  0  0  0  0  0  0  0
   -0.1234    3.7146   -2.6675 H   0  0  0  0  0  0  0  0  0  0  0  0
    1.0603    2.4217   -2.9557 H   0  0  0  0  0  0  0  0  0  0  0  0
  1  2  1  0  0  0  0
  2  3  1  0  0  0  0
  2  4  1  0  0  0  0
  2  5  1  0  0  0  0
  5  6  2  0  0  0  0
  5  7  1  0  0  0  0
  7  8  1  0  0  0  0
  7  9  1  0  0  0  0
  9 10  1  0  0  0  0
  9 11  1  0  0  0  0
  9 24  1  0  0  0  0
 11 12  1  0  0  0  0
 11 13  1  0  0  0  0
 11 17  1  0  0  0  0
 13 14  1  0  0  0  0
 13 15  1  0  0  0  0
 13 16  1  0  0  0  0
 17 18  1  0  0  0  0
 17 19  1  0  0  0  0
 17 20  1  0  0  0  0
 20 21  1  0  0  0  0
 20 22  1  0  0  0  0
 20 23  1  0  0  0  0
 24 25  2  0  0  0  0
 24 26  1  0  0  0  0
 26 27  1  0  0  0  0
 26 28  1  0  0  0  0
 28 29  1  0  0  0  0
 28 30  1  0  0  0  0
 28 31  1  0  0  0  0
M  END
$$$$

  -OEChem-01062216083D

 31 30  0     1  0  0  0  0  0999 V2000
   -3.6860   -3.0141    1.1507 H   0  0  0  0  0  0  0  0  0  0  0  0
   -3.5367   -1.9817    0.8215 C   0  0  0  0  0  0  0  0  0  0  0  0
   -4.1427   -1.3229    1.4478 H   0  0  0  0  0  0  0  0  0  0  0  0
   -3.8658   -1.8939   -0.2169 H   0  0  0  0  0  0  0  0  0  0  0  0
   -2.0711   -1.6025    0.9317 C   0  0  0  0  0  0  0  0  0  0  0  0
   -1.2821   -2.4620    1.2838 O   0  0  0  0  0  0  0  0  0  0  0  0
   -1.7077   -0.3138    0.5723 N   0  0  0  0  0  0  0  0  0  0  0  0
   -2.4650    0.2143    0.1495 H   0  0  0  0  0  0  0  0  0  0  0  0
   -0.3659    0.3200    0.4921 C   0  0  1  0  0  0  0  0  0  0  0  0
   -0.4667    1.2421    1.0709 H   0  0  0  0  0  0  0  0  0  0  0  0
    0.8538   -0.3969    1.1486 C   0  0  1  0  0  0  0  0  0  0  0  0
    0.9388   -1.4000    0.7182 H   0  0  0  0  0  0  0  0  0  0  0  0
    2.1710    0.3498    0.8472 C   0  0  0  0  0  0  0  0  0  0  0  0
    2.1318    1.3738    1.2314 H   0  0  0  0  0  0  0  0  0  0  0  0
    3.0231   -0.1595    1.3038 H   0  0  0  0  0  0  0  0  0  0  0  0
    2.3653    0.3849   -0.2288 H   0  0  0  0  0  0  0  0  0  0  0  0
    0.6584   -0.5072    2.6857 C   0  0  0  0  0  0  0  0  0  0  0  0
    0.7357    0.4892    3.1320 H   0  0  0  0  0  0  0  0  0  0  0  0
   -0.3392   -0.8781    2.9256 H   0  0  0  0  0  0  0  0  0  0  0  0
    1.6787   -1.4304    3.3587 C   0  0  0  0  0  0  0  0  0  0  0  0
    2.6889   -1.0169    3.3067 H   0  0  0  0  0  0  0  0  0  0  0  0
    1.4213   -1.5598    4.4141 H   0  0  0  0  0  0  0  0  0  0  0  0
    1.6729   -2.4144    2.8794 H   0  0  0  0  0  0  0  0  0  0  0  0
   -0.1132    0.7912   -0.9592 C   0  0  0  0  0  0  0  0  0  0  0  0
   -0.2472    0.0244   -1.9028 O   0  0  0  0  0  0  0  0  0  0  0  0
    0.1196    2.1301   -1.2247 N   0  0  0  0  0  0  0  0  0  0  0  0
    0.2590    2.7501   -0.4329 H   0  0  0  0  0  0  0  0  0  0  0  0
    0.3465    2.6472   -2.5695 C   0  0  0  0  0  0  0  0  0  0  0  0
   -0.5113    2.4297   -3.2148 H   0  0  0  0  0  0  0  0  0  0  0  0
    0.4878    3.7318   -2.5393 H   0  0  0  0  0  0  0  0  0  0  0  0
    1.2411    2.1929   -3.0082 H   0  0  0  0  0  0  0  0  0  0  0  0
  1  2  1  0  0  0  0
  2  3  1  0  0  0  0
  2  4  1  0  0  0  0
  2  5  1  0  0  0  0
  5  6  2  0  0  0  0
  5  7  1  0  0  0  0
  7  8  1  0  0  0  0
  7  9  1  0  0  0  0
  9 10  1  0  0  0  0
  9 11  1  0  0  0  0
  9 24  1  0  0  0  0
 11 12  1  0  0  0  0
 11 13  1  0  0  0  0
 11 17  1  0  0  0  0
 13 14  1  0  0  0  0
 13 15  1  0  0  0  0
 13 16  1  0  0  0  0
 17 18  1  0  0  0  0
 17 19  1  0  0  0  0
 17 20  1  0  0  0  0
 20 21  1  0  0  0  0
 20 22  1  0  0  0  0
 20 23  1  0  0  0  0
 24 25  2  0  0  0  0
 24 26  1  0  0  0  0
 26 27  1  0  0  0  0
 26 28  1  0  0  0  0
 28 29  1  0  0  0  0
 28 30  1  0  0  0  0
 28 31  1  0  0  0  0
M  END
$$$$

  -OEChem-01062216083D

 31 30  0     1  0  0  0  0  0999 V2000
   -3.6800   -3.0088    1.1255 H   0  0  0  0  0  0  0  0  0  0  0  0
   -3.5249   -1.9762    0.7999 C   0  0  0  0  0  0  0  0  0  0  0  0
   -4.1421   -1.3174    1.4152 H   0  0  0  0  0  0  0  0  0  0  0  0
   -3.8350   -1.8874   -0.2443 H   0  0  0  0  0  0  0  0  0  0  0  0
   -2.0619   -1.5961    0.9375 C   0  0  0  0  0  0  0  0  0  0  0  0
   -1.2780   -2.4556    1.3016 O   0  0  0  0  0  0  0  0  0  0  0  0
   -1.6938   -0.3079    0.5821 N   0  0  0  0  0  0  0  0  0  0  0  0
   -2.4367    0.2019    0.1124 H   0  0  0  0  0  0  0  0  0  0  0  0
   -0.3509    0.3239    0.4972 C   0  0  1  0  0  0  0  0  0  0  0  0
   -0.4506    1.2480    1.0729 H   0  0  0  0  0  0  0  0  0  0  0  0
    0.8638   -0.4009    1.1590 C   0  0  1  0  0  0  0  0  0  0  0  0
    0.9386   -1.4072    0.7344 H   0  0  0  0  0  0  0  0  0  0  0  0
    2.1939    0.3225    0.8605 C   0  0  0  0  0  0  0  0  0  0  0  0
    2.1682    1.3506    1.2342 H   0  0  0  0  0  0  0  0  0  0  0  0
    3.0352   -0.1943    1.3284 H   0  0  0  0  0  0  0  0  0  0  0  0
    2.3957    0.3411   -0.2144 H   0  0  0  0  0  0  0  0  0  0  0  0
    0.6618   -0.5032    2.6966 C   0  0  0  0  0  0  0  0  0  0  0  0
    0.7456    0.4946    3.1387 H   0  0  0  0  0  0  0  0  0  0  0  0
   -0.3400   -0.8642    2.9346 H   0  0  0  0  0  0  0  0  0  0  0  0
    1.6712   -1.4310    3.3805 C   0  0  0  0  0  0  0  0  0  0  0  0
    2.6847   -1.0243    3.3354 H   0  0  0  0  0  0  0  0  0  0  0  0
    1.4045   -1.5544    4.4343 H   0  0  0  0  0  0  0  0  0  0  0  0
    1.6627   -2.4171    2.9053 H   0  0  0  0  0  0  0  0  0  0  0  0
   -0.1050    0.8013   -0.9554 C   0  0  0  0  0  0  0  0  0  0  0  0
   -0.5362    0.1652   -1.9085 O   0  0  0  0  0  0  0  0  0  0  0  0
    0.4285    2.0565   -1.1958 N   0  0  0  0  0  0  0  0  0  0  0  0
    0.8001    2.5685   -0.4017 H   0  0  0  0  0  0  0  0  0  0  0  0
    0.6382    2.5920   -2.5361 C   0  0  0  0  0  0  0  0  0  0  0  0
   -0.3097    2.6437   -3.0821 H   0  0  0  0  0  0  0  0  0  0  0  0
    1.0576    3.6010   -2.4790 H   0  0  0  0  0  0  0  0  0  0  0  0
    1.3335    1.9584   -3.0970 H   0  0  0  0  0  0  0  0  0  0  0  0
  1  2  1  0  0  0  0
  2  3  1  0  0  0  0
  2  4  1  0  0  0  0
  2  5  1  0  0  0  0
  5  6  2  0  0  0  0
  5  7  1  0  0  0  0
  7  8  1  0  0  0  0
  7  9  1  0  0  0  0
  9 10  1  0  0  0  0
  9 11  1  0  0  0  0
  9 24  1  0  0  0  0
 11 12  1  0  0  0  0
 11 13  1  0  0  0  0
 11 17  1  0  0  0  0
 13 14  1  0  0  0  0
 13 15  1  0  0  0  0
 13 16  1  0  0  0  0
 17 18  1  0  0  0  0
 17 19  1  0  0  0  0
 17 20  1  0  0  0  0
 20 21  1  0  0  0  0
 20 22  1  0  0  0  0
 20 23  1  0  0  0  0
 24 25  2  0  0  0  0
 24 26  1  0  0  0  0
 26 27  1  0  0  0  0
 26 28  1  0  0  0  0
 28 29  1  0  0  0  0
 28 30  1  0  0  0  0
 28 31  1  0  0  0  0
M  END
$$$$

  -OEChem-01062216083D

 31 30  0     1  0  0  0  0  0999 V2000
   -3.6639   -3.0048    1.1025 H   0  0  0  0  0  0  0  0  0  0  0  0
   -3.5037   -1.9704    0.7852 C   0  0  0  0  0  0  0  0  0  0  0  0
   -4.1253   -1.3143    1.3990 H   0  0  0  0  0  0  0  0  0  0  0  0
   -3.8035   -1.8736   -0.2614 H   0  0  0  0  0  0  0  0  0  0  0  0
   -2.0416   -1.5937    0.9391 C   0  0  0  0  0  0  0  0  0  0  0  0
   -1.2622   -2.4579    1.3023 O   0  0  0  0  0  0  0  0  0  0  0  0
   -1.6703   -0.3042    0.5916 N   0  0  0  0  0  0  0  0  0  0  0  0
   -2.4028    0.1931    0.0911 H   0  0  0  0  0  0  0  0  0  0  0  0
   -0.3288    0.3326    0.5028 C   0  0  1  0  0  0  0  0  0  0  0  0
   -0.4245    1.2582    1.0773 H   0  0  0  0  0  0  0  0  0  0  0  0
    0.8769   -0.4062    1.1734 C   0  0  1  0  0  0  0  0  0  0  0  0
    0.9387   -1.4147    0.7524 H   0  0  0  0  0  0  0  0  0  0  0  0
    2.2275    0.2807    0.8879 C   0  0  0  0  0  0  0  0  0  0  0  0
    2.2155    1.3183    1.2351 H   0  0  0  0  0  0  0  0  0  0  0  0
    3.0481   -0.2407    1.3862 H   0  0  0  0  0  0  0  0  0  0  0  0
    2.4529    0.2623   -0.1821 H   0  0  0  0  0  0  0  0  0  0  0  0
    0.6583   -0.5029    2.7099 C   0  0  0  0  0  0  0  0  0  0  0  0
    0.7490    0.4954    3.1495 H   0  0  0  0  0  0  0  0  0  0  0  0
   -0.3500   -0.8509    2.9389 H   0  0  0  0  0  0  0  0  0  0  0  0
    1.6486   -1.4394    3.4100 C   0  0  0  0  0  0  0  0  0  0  0  0
    2.6647   -1.0376    3.3885 H   0  0  0  0  0  0  0  0  0  0  0  0
    1.3594   -1.5662    4.4577 H   0  0  0  0  0  0  0  0  0  0  0  0
    1.6451   -2.4232    2.9300 H   0  0  0  0  0  0  0  0  0  0  0  0
   -0.0990    0.8192   -0.9532 C   0  0  0  0  0  0  0  0  0  0  0  0
   -0.7611    0.3620   -1.8778 O   0  0  0  0  0  0  0  0  0  0  0  0
    0.6952    1.9233   -1.2148 N   0  0  0  0  0  0  0  0  0  0  0  0
    1.2461    2.2948   -0.4470 H   0  0  0  0  0  0  0  0  0  0  0  0
    0.8971    2.4688   -2.5524 C   0  0  0  0  0  0  0  0  0  0  0  0
   -0.0574    2.7858   -2.9858 H   0  0  0  0  0  0  0  0  0  0  0  0
    1.5613    3.3374   -2.5105 H   0  0  0  0  0  0  0  0  0  0  0  0
    1.3499    1.7175   -3.2080 H   0  0  0  0  0  0  0  0  0  0  0  0
  1  2  1  0  0  0  0
  2  3  1  0  0  0  0
  2  4  1  0  0  0  0
  2  5  1  0  0  0  0
  5  6  2  0  0  0  0
  5  7  1  0  0  0  0
  7  8  1  0  0  0  0
  7  9  1  0  0  0  0
  9 10  1  0  0  0  0
  9 11  1  0  0  0  0
  9 24  1  0  0  0  0
 11 12  1  0  0  0  0
 11 13  1  0  0  0  0
 11 17  1  0  0  0  0
 13 14  1  0  0  0  0
 13 15  1  0  0  0  0
 13 16  1  0  0  0  0
 17 18  1  0  0  0  0
 17 19  1  0  0  0  0
 17 20  1  0  0  0  0
 20 21  1  0  0  0  0
 20 22  1  0  0  0  0
 20 23  1  0  0  0  0
 24 25  2  0  0  0  0
 24 26  1  0  0  0  0
 26 27  1  0  0  0  0
 26 28  1  0  0  0  0
 28 29  1  0  0  0  0
 28 30  1  0  0  0  0
 28 31  1  0  0  0  0
M  END
$$$$

  -OEChem-01062216083D

 31 30  0     1  0  0  0  0  0999 V2000
   -3.6476   -2.9949    1.0588 H   0  0  0  0  0  0  0  0  0  0  0  0
   -3.4791   -1.9569    0.7586 C   0  0  0  0  0  0  0  0  0  0  0  0
   -4.1030   -1.3070    1.3766 H   0  0  0  0  0  0  0  0  0  0  0  0
   -3.7698   -1.8426   -0.2888 H   0  0  0  0  0  0  0  0  0  0  0  0
   -2.0166   -1.5896    0.9313 C   0  0  0  0  0  0  0  0  0  0  0  0
   -1.2436   -2.4636    1.2851 O   0  0  0  0  0  0  0  0  0  0  0  0
   -1.6361   -0.2987    0.6002 N   0  0  0  0  0  0  0  0  0  0  0  0
   -2.3591    0.2008    0.0864 H   0  0  0  0  0  0  0  0  0  0  0  0
   -0.2945    0.3400    0.5152 C   0  0  1  0  0  0  0  0  0  0  0  0
   -0.3826    1.2654    1.0915 H   0  0  0  0  0  0  0  0  0  0  0  0
    0.8989   -0.4170    1.1962 C   0  0  1  0  0  0  0  0  0  0  0  0
    0.9521   -1.4259    0.7761 H   0  0  0  0  0  0  0  0  0  0  0  0
    2.2701    0.2399    0.9395 C   0  0  0  0  0  0  0  0  0  0  0  0
    2.2593    1.2918    1.2414 H   0  0  0  0  0  0  0  0  0  0  0  0
    3.0641   -0.2678    1.4914 H   0  0  0  0  0  0  0  0  0  0  0  0
    2.5390    0.1668   -0.1175 H   0  0  0  0  0  0  0  0  0  0  0  0
    0.6534   -0.5111    2.7304 C   0  0  0  0  0  0  0  0  0  0  0  0
    0.7472    0.4864    3.1713 H   0  0  0  0  0  0  0  0  0  0  0  0
   -0.3628   -0.8474    2.9418 H   0  0  0  0  0  0  0  0  0  0  0  0
    1.6172   -1.4590    3.4527 C   0  0  0  0  0  0  0  0  0  0  0  0
    2.6353   -1.0624    3.4677 H   0  0  0  0  0  0  0  0  0  0  0  0
    1.2951   -1.5932    4.4897 H   0  0  0  0  0  0  0  0  0  0  0  0
    1.6238   -2.4387    2.9645 H   0  0  0  0  0  0  0  0  0  0  0  0
   -0.0890    0.8384   -0.9452 C   0  0  0  0  0  0  0  0  0  0  0  0
   -0.9277    0.5885   -1.8054 O   0  0  0  0  0  0  0  0  0  0  0  0
    0.9100    1.7356   -1.2823 N   0  0  0  0  0  0  0  0  0  0  0  0
    1.6044    1.9477   -0.5726 H   0  0  0  0  0  0  0  0  0  0  0  0
    1.0916    2.2750   -2.6254 C   0  0  0  0  0  0  0  0  0  0  0  0
    0.1982    2.8220   -2.9446 H   0  0  0  0  0  0  0  0  0  0  0  0
    1.9417    2.9637   -2.6441 H   0  0  0  0  0  0  0  0  0  0  0  0
    1.2837    1.4673   -3.3395 H   0  0  0  0  0  0  0  0  0  0  0  0
  1  2  1  0  0  0  0
  2  3  1  0  0  0  0
  2  4  1  0  0  0  0
  2  5  1  0  0  0  0
  5  6  2  0  0  0  0
  5  7  1  0  0  0  0
  7  8  1  0  0  0  0
  7  9  1  0  0  0  0
  9 10  1  0  0  0  0
  9 11  1  0  0  0  0
  9 24  1  0  0  0  0
 11 12  1  0  0  0  0
 11 13  1  0  0  0  0
 11 17  1  0  0  0  0
 13 14  1  0  0  0  0
 13 15  1  0  0  0  0
 13 16  1  0  0  0  0
 17 18  1  0  0  0  0
 17 19  1  0  0  0  0
 17 20  1  0  0  0  0
 20 21  1  0  0  0  0
 20 22  1  0  0  0  0
 20 23  1  0  0  0  0
 24 25  2  0  0  0  0
 24 26  1  0  0  0  0
 26 27  1  0  0  0  0
 26 28  1  0  0  0  0
 28 29  1  0  0  0  0
 28 30  1  0  0  0  0
 28 31  1  0  0  0  0
M  END
$$$$

  -OEChem-01062216083D

 31 30  0     1  0  0  0  0  0999 V2000
   -3.7216   -2.9207    1.1234 H   0  0  0  0  0  0  0  0  0  0  0  0
   -3.5242   -1.8811    0.8475 C   0  0  0  0  0  0  0  0  0  0  0  0
   -3.9960   -1.2268    1.5843 H   0  0  0  0  0  0  0  0  0  0  0  0
   -3.9618   -1.6883   -0.1352 H   0  0  0  0  0  0  0  0  0  0  0  0
   -2.0294   -1.6229    0.8068 C   0  0  0  0  0  0  0  0  0  0  0  0
   -1.2780   -2.5778    0.9083 O   0  0  0  0  0  0  0  0  0  0  0  0
   -1.6042   -0.3385    0.5115 N   0  0  0  0  0  0  0  0  0  0  0  0
   -2.3503    0.2614    0.1608 H   0  0  0  0  0  0  0  0  0  0  0  0
   -0.2562    0.2868    0.4234 C   0  0  1  0  0  0  0  0  0  0  0  0
   -0.2589    1.0538    1.2034 H   0  0  0  0  0  0  0  0  0  0  0  0
    0.9807   -0.6011    0.8183 C   0  0  1  0  0  0  0  0  0  0  0  0
    0.9447   -1.5114    0.2110 H   0  0  0  0  0  0  0  0  0  0  0  0
    2.3438    0.0657    0.5457 C   0  0  0  0  0  0  0  0  0  0  0  0
    2.3824    1.0641    0.9923 H   0  0  0  0  0  0  0  0  0  0  0  0
    3.1687   -0.5221    0.9525 H   0  0  0  0  0  0  0  0  0  0  0  0
    2.5264    0.1350   -0.5296 H   0  0  0  0  0  0  0  0  0  0  0  0
    0.8984   -1.0018    2.3241 C   0  0  0  0  0  0  0  0  0  0  0  0
    1.0826   -0.1103    2.9322 H   0  0  0  0  0  0  0  0  0  0  0  0
   -0.0969   -1.3478    2.5979 H   0  0  0  0  0  0  0  0  0  0  0  0
    1.9039   -2.0820    2.7418 C   0  0  0  0  0  0  0  0  0  0  0  0
    2.9306   -1.7088    2.7293 H   0  0  0  0  0  0  0  0  0  0  0  0
    1.6833   -2.4145    3.7605 H   0  0  0  0  0  0  0  0  0  0  0  0
    1.8314   -2.9470    2.0750 H   0  0  0  0  0  0  0  0  0  0  0  0
   -0.2238    1.1453   -0.8788 C   0  0  0  0  0  0  0  0  0  0  0  0
   -1.2636    1.3178   -1.5094 O   0  0  0  0  0  0  0  0  0  0  0  0
    0.8766    1.8770   -1.2891 N   0  0  0  0  0  0  0  0  0  0  0  0
    1.7351    1.7655   -0.7594 H   0  0  0  0  0  0  0  0  0  0  0  0
    0.8864    2.7356   -2.4682 C   0  0  0  0  0  0  0  0  0  0  0  0
    0.1510    3.5401   -2.3631 H   0  0  0  0  0  0  0  0  0  0  0  0
    1.8746    3.1865   -2.5994 H   0  0  0  0  0  0  0  0  0  0  0  0
    0.6492    2.1555   -3.3663 H   0  0  0  0  0  0  0  0  0  0  0  0
  1  2  1  0  0  0  0
  2  3  1  0  0  0  0
  2  4  1  0  0  0  0
  2  5  1  0  0  0  0
  5  6  2  0  0  0  0
  5  7  1  0  0  0  0
  7  8  1  0  0  0  0
  7  9  1  0  0  0  0
  9 10  1  0  0  0  0
  9 11  1  0  0  0  0
  9 24  1  0  0  0  0
 11 12  1  0  0  0  0
 11 13  1  0  0  0  0
 11 17  1  0  0  0  0
 13 14  1  0  0  0  0
 13 15  1  0  0  0  0
 13 16  1  0  0  0  0
 17 18  1  0  0  0  0
 17 19  1  0  0  0  0
 17 20  1  0  0  0  0
 20 21  1  0  0  0  0
 20 22  1  0  0  0  0
 20 23  1  0  0  0  0
 24 25  2  0  0  0  0
 24 26  1  0  0  0  0
 26 27  1  0  0  0  0
 26 28  1  0  0  0  0
 28 29  1  0  0  0  0
 28 30  1  0  0  0  0
 28 31  1  0  0  0  0
M  END
$$$$

  -OEChem-01062216083D

 31 30  0     1  0  0  0  0  0999 V2000
   -3.7124   -2.9110    1.1100 H   0  0  0  0  0  0  0  0  0  0  0  0
   -3.5088   -1.8706    0.8409 C   0  0  0  0  0  0  0  0  0  0  0  0
   -3.9621   -1.2188    1.5916 H   0  0  0  0  0  0  0  0  0  0  0  0
   -3.9599   -1.6630   -0.1326 H   0  0  0  0  0  0  0  0  0  0  0  0
   -2.0122   -1.6270    0.7789 C   0  0  0  0  0  0  0  0  0  0  0  0
   -1.2662   -2.5883    0.8608 O   0  0  0  0  0  0  0  0  0  0  0  0
   -1.5767   -0.3443    0.4936 N   0  0  0  0  0  0  0  0  0  0  0  0
   -2.3212    0.2782    0.1801 H   0  0  0  0  0  0  0  0  0  0  0  0
   -0.2250    0.2732    0.4202 C   0  0  1  0  0  0  0  0  0  0  0  0
   -0.2282    1.0420    1.1984 H   0  0  0  0  0  0  0  0  0  0  0  0
    1.0018   -0.6225    0.8310 C   0  0  1  0  0  0  0  0  0  0  0  0
    0.9782   -1.5338    0.2248 H   0  0  0  0  0  0  0  0  0  0  0  0
    2.3700    0.0504    0.5934 C   0  0  0  0  0  0  0  0  0  0  0  0
    2.3602    1.0846    0.9518 H   0  0  0  0  0  0  0  0  0  0  0  0
    3.1780   -0.4761    1.1033 H   0  0  0  0  0  0  0  0  0  0  0  0
    2.6250    0.0293   -0.4687 H   0  0  0  0  0  0  0  0  0  0  0  0
    0.8891   -1.0167    2.3369 C   0  0  0  0  0  0  0  0  0  0  0  0
    1.0651   -0.1247    2.9462 H   0  0  0  0  0  0  0  0  0  0  0  0
   -0.1137   -1.3576    2.5896 H   0  0  0  0  0  0  0  0  0  0  0  0
    1.8770   -2.1033    2.7805 C   0  0  0  0  0  0  0  0  0  0  0  0
    2.9058   -1.7366    2.8011 H   0  0  0  0  0  0  0  0  0  0  0  0
    1.6239   -2.4380    3.7911 H   0  0  0  0  0  0  0  0  0  0  0  0
    1.8197   -2.9653    2.1085 H   0  0  0  0  0  0  0  0  0  0  0  0
   -0.1983    1.1319   -0.8829 C   0  0  0  0  0  0  0  0  0  0  0  0
   -1.2678    1.4927   -1.3682 O   0  0  0  0  0  0  0  0  0  0  0  0
    0.9461    1.6308   -1.4783 N   0  0  0  0  0  0  0  0  0  0  0  0
    1.8367    1.3764   -1.0660 H   0  0  0  0  0  0  0  0  0  0  0  0
    0.9412    2.4759   -2.6676 C   0  0  0  0  0  0  0  0  0  0  0  0
    0.4080    3.4120   -2.4710 H   0  0  0  0  0  0  0  0  0  0  0  0
    1.9665    2.7181   -2.9637 H   0  0  0  0  0  0  0  0  0  0  0  0
    0.4538    1.9610   -3.5023 H   0  0  0  0  0  0  0  0  0  0  0  0
  1  2  1  0  0  0  0
  2  3  1  0  0  0  0
  2  4  1  0  0  0  0
  2  5  1  0  0  0  0
  5  6  2  0  0  0  0
  5  7  1  0  0  0  0
  7  8  1  0  0  0  0
  7  9  1  0  0  0  0
  9 10  1  0  0  0  0
  9 11  1  0  0  0  0
  9 24  1  0  0  0  0
 11 12  1  0  0  0  0
 11 13  1  0  0  0  0
 11 17  1  0  0  0  0
 13 14  1  0  0  0  0
 13 15  1  0  0  0  0
 13 16  1  0  0  0  0
 17 18  1  0  0  0  0
 17 19  1  0  0  0  0
 17 20  1  0  0  0  0
 20 21  1  0  0  0  0
 20 22  1  0  0  0  0
 20 23  1  0  0  0  0
 24 25  2  0  0  0  0
 24 26  1  0  0  0  0
 26 27  1  0  0  0  0
 26 28  1  0  0  0  0
 28 29  1  0  0  0  0
 28 30  1  0  0  0  0
 28 31  1  0  0  0  0
M  END
$$$$

  -OEChem-01062216083D

 31 30  0     1  0  0  0  0  0999 V2000
   -3.5945   -2.9355    0.7841 H   0  0  0  0  0  0  0  0  0  0  0  0
   -3.4565   -1.8534    0.7065 C   0  0  0  0  0  0  0  0  0  0  0  0
   -3.8484   -1.3844    1.6122 H   0  0  0  0  0  0  0  0  0  0  0  0
   -4.0166   -1.4876   -0.1576 H   0  0  0  0  0  0  0  0  0  0  0  0
   -1.9842   -1.5228    0.5474 C   0  0  0  0  0  0  0  0  0  0  0  0
   -1.1972   -2.4344    0.3551 O   0  0  0  0  0  0  0  0  0  0  0  0
   -1.6112   -0.1924    0.4839 N   0  0  0  0  0  0  0  0  0  0  0  0
   -2.3911    0.4633    0.4610 H   0  0  0  0  0  0  0  0  0  0  0  0
   -0.2760    0.4570    0.5160 C   0  0  1  0  0  0  0  0  0  0  0  0
   -0.2885    1.0878    1.4101 H   0  0  0  0  0  0  0  0  0  0  0  0
    0.9982   -0.4290    0.7510 C   0  0  1  0  0  0  0  0  0  0  0  0
    1.0607   -1.1968   -0.0266 H   0  0  0  0  0  0  0  0  0  0  0  0
    2.2991    0.4124    0.7531 C   0  0  0  0  0  0  0  0  0  0  0  0
    2.2183    1.2395    1.4655 H   0  0  0  0  0  0  0  0  0  0  0  0
    2.5291    0.8259   -0.2245 H   0  0  0  0  0  0  0  0  0  0  0  0
    3.1645   -0.1937    1.0271 H   0  0  0  0  0  0  0  0  0  0  0  0
    0.9203   -1.0913    2.1621 C   0  0  0  0  0  0  0  0  0  0  0  0
    1.0406   -0.3223    2.9320 H   0  0  0  0  0  0  0  0  0  0  0  0
   -0.0580   -1.5384    2.3334 H   0  0  0  0  0  0  0  0  0  0  0  0
    1.9708   -2.1848    2.3934 C   0  0  0  0  0  0  0  0  0  0  0  0
    2.9783   -1.7702    2.4765 H   0  0  0  0  0  0  0  0  0  0  0  0
    1.7513   -2.7149    3.3251 H   0  0  0  0  0  0  0  0  0  0  0  0
    1.9509   -2.9089    1.5728 H   0  0  0  0  0  0  0  0  0  0  0  0
   -0.3500    1.5032   -0.6360 C   0  0  0  0  0  0  0  0  0  0  0  0
   -1.3172    2.2535   -0.6638 O   0  0  0  0  0  0  0  0  0  0  0  0
    0.6559    1.9835   -1.4387 N   0  0  0  0  0  0  0  0  0  0  0  0
    0.3834    2.8873   -1.8182 H   0  0  0  0  0  0  0  0  0  0  0  0
    1.2475    1.0795   -2.4204 C   0  0  0  0  0  0  0  0  0  0  0  0
    0.6682    1.1046   -3.3490 H   0  0  0  0  0  0  0  0  0  0  0  0
    2.2750    1.3847   -2.6418 H   0  0  0  0  0  0  0  0  0  0  0  0
    1.2652    0.0458   -2.0609 H   0  0  0  0  0  0  0  0  0  0  0  0
  1  2  1  0  0  0  0
  2  3  1  0  0  0  0
  2  4  1  0  0  0  0
  2  5  1  0  0  0  0
  5  6  2  0  0  0  0
  5  7  1  0  0  0  0
  7  8  1  0  0  0  0
  7  9  1  0  0  0  0
  9 10  1  0  0  0  0
  9 11  1  0  0  0  0
  9 24  1  0  0  0  0
 11 12  1  0  0  0  0
 11 13  1  0  0  0  0
 11 17  1  0  0  0  0
 13 14  1  0  0  0  0
 13 15  1  0  0  0  0
 13 16  1  0  0  0  0
 17 18  1  0  0  0  0
 17 19  1  0  0  0  0
 17 20  1  0  0  0  0
 20 21  1  0  0  0  0
 20 22  1  0  0  0  0
 20 23  1  0  0  0  0
 24 25  2  0  0  0  0
 24 26  1  0  0  0  0
 26 27  1  0  0  0  0
 26 28  1  0  0  0  0
 28 29  1  0  0  0  0
 28 30  1  0  0  0  0
 28 31  1  0  0  0  0
M  END
$$$$

  -OEChem-01062216083D

 31 30  0     1  0  0  0  0  0999 V2000
   -3.7019   -2.8453    1.2584 H   0  0  0  0  0  0  0  0  0  0  0  0
   -3.5061   -1.8234    0.9215 C   0  0  0  0  0  0  0  0  0  0  0  0
   -3.9166   -1.1273    1.6568 H   0  0  0  0  0  0  0  0  0  0  0  0
   -4.0051   -1.6661   -0.0379 H   0  0  0  0  0  0  0  0  0  0  0  0
   -2.0133   -1.5984    0.7706 C   0  0  0  0  0  0  0  0  0  0  0  0
   -1.2715   -2.5661    0.7979 O   0  0  0  0  0  0  0  0  0  0  0  0
   -1.5691   -0.3245    0.4650 N   0  0  0  0  0  0  0  0  0  0  0  0
   -2.3133    0.3426    0.2650 H   0  0  0  0  0  0  0  0  0  0  0  0
   -0.2058    0.2609    0.4100 C   0  0  1  0  0  0  0  0  0  0  0  0
   -0.2069    1.0447    1.1742 H   0  0  0  0  0  0  0  0  0  0  0  0
    1.0193   -0.6254    0.8329 C   0  0  1  0  0  0  0  0  0  0  0  0
    1.0345   -1.5336    0.2217 H   0  0  0  0  0  0  0  0  0  0  0  0
    2.3652    0.1178    0.6489 C   0  0  0  0  0  0  0  0  0  0  0  0
    2.2819    1.1543    0.9914 H   0  0  0  0  0  0  0  0  0  0  0  0
    2.6837    0.1119   -0.3940 H   0  0  0  0  0  0  0  0  0  0  0  0
    3.1733   -0.3566    1.2073 H   0  0  0  0  0  0  0  0  0  0  0  0
    0.8925   -1.0129    2.3385 C   0  0  0  0  0  0  0  0  0  0  0  0
    1.0504   -0.1192    2.9508 H   0  0  0  0  0  0  0  0  0  0  0  0
   -0.1100   -1.3673    2.5745 H   0  0  0  0  0  0  0  0  0  0  0  0
    1.8830   -2.0935    2.7912 C   0  0  0  0  0  0  0  0  0  0  0  0
    2.9094   -1.7212    2.8212 H   0  0  0  0  0  0  0  0  0  0  0  0
    1.6229   -2.4312    3.7991 H   0  0  0  0  0  0  0  0  0  0  0  0
    1.8374   -2.9553    2.1179 H   0  0  0  0  0  0  0  0  0  0  0  0
   -0.1663    1.0771   -0.9107 C   0  0  0  0  0  0  0  0  0  0  0  0
   -1.1120    1.8210   -1.1526 O   0  0  0  0  0  0  0  0  0  0  0  0
    0.8763    1.0498   -1.8175 N   0  0  0  0  0  0  0  0  0  0  0  0
    1.5798    0.3310   -1.6794 H   0  0  0  0  0  0  0  0  0  0  0  0
    0.8631    1.7797   -3.0799 C   0  0  0  0  0  0  0  0  0  0  0  0
    0.7419    2.8534   -2.9016 H   0  0  0  0  0  0  0  0  0  0  0  0
    1.8045    1.6252   -3.6157 H   0  0  0  0  0  0  0  0  0  0  0  0
    0.0410    1.4322   -3.7144 H   0  0  0  0  0  0  0  0  0  0  0  0
  1  2  1  0  0  0  0
  2  3  1  0  0  0  0
  2  4  1  0  0  0  0
  2  5  1  0  0  0  0
  5  6  2  0  0  0  0
  5  7  1  0  0  0  0
  7  8  1  0  0  0  0
  7  9  1  0  0  0  0
  9 10  1  0  0  0  0
  9 11  1  0  0  0  0
  9 24  1  0  0  0  0
 11 12  1  0  0  0  0
 11 13  1  0  0  0  0
 11 17  1  0  0  0  0
 13 14  1  0  0  0  0
 13 15  1  0  0  0  0
 13 16  1  0  0  0  0
 17 18  1  0  0  0  0
 17 19  1  0  0  0  0
 17 20  1  0  0  0  0
 20 21  1  0  0  0  0
 20 22  1  0  0  0  0
 20 23  1  0  0  0  0
 24 25  2  0  0  0  0
 24 26  1  0  0  0  0
 26 27  1  0  0  0  0
 26 28  1  0  0  0  0
 28 29  1  0  0  0  0
 28 30  1  0  0  0  0
 28 31  1  0  0  0  0
M  END
$$$$

  -OEChem-01062216083D

 31 30  0     1  0  0  0  0  0999 V2000
   -3.6979   -2.8781    1.1984 H   0  0  0  0  0  0  0  0  0  0  0  0
   -3.5096   -1.8452    0.8922 C   0  0  0  0  0  0  0  0  0  0  0  0
   -3.9174   -1.1743    1.6520 H   0  0  0  0  0  0  0  0  0  0  0  0
   -4.0173   -1.6609   -0.0578 H   0  0  0  0  0  0  0  0  0  0  0  0
   -2.0188   -1.6086    0.7361 C   0  0  0  0  0  0  0  0  0  0  0  0
   -1.2695   -2.5708    0.7410 O   0  0  0  0  0  0  0  0  0  0  0  0
   -1.5824   -0.3311    0.4360 N   0  0  0  0  0  0  0  0  0  0  0  0
   -2.3313    0.3415    0.2788 H   0  0  0  0  0  0  0  0  0  0  0  0
   -0.2225    0.2619    0.4139 C   0  0  1  0  0  0  0  0  0  0  0  0
   -0.2412    1.0415    1.1822 H   0  0  0  0  0  0  0  0  0  0  0  0
    1.0111   -0.6098    0.8329 C   0  0  1  0  0  0  0  0  0  0  0  0
    1.0520   -1.5000    0.1967 H   0  0  0  0  0  0  0  0  0  0  0  0
    2.3405    0.1719    0.6898 C   0  0  0  0  0  0  0  0  0  0  0  0
    2.2851    1.1226    1.2298 H   0  0  0  0  0  0  0  0  0  0  0  0
    3.1818   -0.3992    1.0869 H   0  0  0  0  0  0  0  0  0  0  0  0
    2.5863    0.3801   -0.3510 H   0  0  0  0  0  0  0  0  0  0  0  0
    0.8843   -1.0348    2.3274 C   0  0  0  0  0  0  0  0  0  0  0  0
    1.0192   -0.1540    2.9637 H   0  0  0  0  0  0  0  0  0  0  0  0
   -0.1112   -1.4174    2.5486 H   0  0  0  0  0  0  0  0  0  0  0  0
    1.8965   -2.1052    2.7531 C   0  0  0  0  0  0  0  0  0  0  0  0
    2.9160   -1.7132    2.7747 H   0  0  0  0  0  0  0  0  0  0  0  0
    1.6551   -2.4616    3.7591 H   0  0  0  0  0  0  0  0  0  0  0  0
    1.8577   -2.9576    2.0677 H   0  0  0  0  0  0  0  0  0  0  0  0
   -0.1625    1.0687   -0.9067 C   0  0  0  0  0  0  0  0  0  0  0  0
   -0.9980    1.9485   -1.0839 O   0  0  0  0  0  0  0  0  0  0  0  0
    0.7493    0.8162   -1.9145 N   0  0  0  0  0  0  0  0  0  0  0  0
    1.3434   -0.0002   -1.7993 H   0  0  0  0  0  0  0  0  0  0  0  0
    0.7370    1.5028   -3.2004 C   0  0  0  0  0  0  0  0  0  0  0  0
    0.8300    2.5847   -3.0586 H   0  0  0  0  0  0  0  0  0  0  0  0
    1.5744    1.1641   -3.8180 H   0  0  0  0  0  0  0  0  0  0  0  0
   -0.1956    1.2958   -3.7357 H   0  0  0  0  0  0  0  0  0  0  0  0
  1  2  1  0  0  0  0
  2  3  1  0  0  0  0
  2  4  1  0  0  0  0
  2  5  1  0  0  0  0
  5  6  2  0  0  0  0
  5  7  1  0  0  0  0
  7  8  1  0  0  0  0
  7  9  1  0  0  0  0
  9 10  1  0  0  0  0
  9 11  1  0  0  0  0
  9 24  1  0  0  0  0
 11 12  1  0  0  0  0
 11 13  1  0  0  0  0
 11 17  1  0  0  0  0
 13 14  1  0  0  0  0
 13 15  1  0  0  0  0
 13 16  1  0  0  0  0
 17 18  1  0  0  0  0
 17 19  1  0  0  0  0
 17 20  1  0  0  0  0
 20 21  1  0  0  0  0
 20 22  1  0  0  0  0
 20 23  1  0  0  0  0
 24 25  2  0  0  0  0
 24 26  1  0  0  0  0
 26 27  1  0  0  0  0
 26 28  1  0  0  0  0
 28 29  1  0  0  0  0
 28 30  1  0  0  0  0
 28 31  1  0  0  0  0
M  END
$$$$

  -OEChem-01062216083D

 31 30  0     1  0  0  0  0  0999 V2000
   -3.6846   -2.8893    1.2495 H   0  0  0  0  0  0  0  0  0  0  0  0
   -3.5137   -1.8561    0.9343 C   0  0  0  0  0  0  0  0  0  0  0  0
   -3.9023   -1.1859    1.7047 H   0  0  0  0  0  0  0  0  0  0  0  0
   -4.0526   -1.6784    0.0004 H   0  0  0  0  0  0  0  0  0  0  0  0
   -2.0304   -1.6100    0.7306 C   0  0  0  0  0  0  0  0  0  0  0  0
   -1.2745   -2.5666    0.7083 O   0  0  0  0  0  0  0  0  0  0  0  0
   -1.6086   -0.3314    0.4158 N   0  0  0  0  0  0  0  0  0  0  0  0
   -2.3648    0.3418    0.3080 H   0  0  0  0  0  0  0  0  0  0  0  0
   -0.2520    0.2683    0.4061 C   0  0  1  0  0  0  0  0  0  0  0  0
   -0.2816    1.0495    1.1726 H   0  0  0  0  0  0  0  0  0  0  0  0
    0.9882   -0.5894    0.8240 C   0  0  1  0  0  0  0  0  0  0  0  0
    1.0373   -1.4739    0.1809 H   0  0  0  0  0  0  0  0  0  0  0  0
    2.3027    0.2117    0.6692 C   0  0  0  0  0  0  0  0  0  0  0  0
    2.2788    1.1095    1.2950 H   0  0  0  0  0  0  0  0  0  0  0  0
    3.1656   -0.3910    0.9617 H   0  0  0  0  0  0  0  0  0  0  0  0
    2.4770    0.5192   -0.3628 H   0  0  0  0  0  0  0  0  0  0  0  0
    0.8760   -1.0317    2.3124 C   0  0  0  0  0  0  0  0  0  0  0  0
    1.0011   -0.1570    2.9586 H   0  0  0  0  0  0  0  0  0  0  0  0
   -0.1117   -1.4340    2.5339 H   0  0  0  0  0  0  0  0  0  0  0  0
    1.9100   -2.0900    2.7123 C   0  0  0  0  0  0  0  0  0  0  0  0
    2.9243   -1.6832    2.7089 H   0  0  0  0  0  0  0  0  0  0  0  0
    1.6967   -2.4511    3.7229 H   0  0  0  0  0  0  0  0  0  0  0  0
    1.8671   -2.9419    2.0262 H   0  0  0  0  0  0  0  0  0  0  0  0
   -0.1575    1.0585   -0.9175 C   0  0  0  0  0  0  0  0  0  0  0  0
   -0.8261    2.0773   -1.0432 O   0  0  0  0  0  0  0  0  0  0  0  0
    0.5714    0.5957   -1.9976 N   0  0  0  0  0  0  0  0  0  0  0  0
    0.9987   -0.3218   -1.9011 H   0  0  0  0  0  0  0  0  0  0  0  0
    0.5655    1.2390   -3.3055 C   0  0  0  0  0  0  0  0  0  0  0  0
    0.9032    2.2775   -3.2238 H   0  0  0  0  0  0  0  0  0  0  0  0
    1.2378    0.7115   -3.9888 H   0  0  0  0  0  0  0  0  0  0  0  0
   -0.4424    1.2284   -3.7333 H   0  0  0  0  0  0  0  0  0  0  0  0
  1  2  1  0  0  0  0
  2  3  1  0  0  0  0
  2  4  1  0  0  0  0
  2  5  1  0  0  0  0
  5  6  2  0  0  0  0
  5  7  1  0  0  0  0
  7  8  1  0  0  0  0
  7  9  1  0  0  0  0
  9 10  1  0  0  0  0
  9 11  1  0  0  0  0
  9 24  1  0  0  0  0
 11 12  1  0  0  0  0
 11 13  1  0  0  0  0
 11 17  1  0  0  0  0
 13 14  1  0  0  0  0
 13 15  1  0  0  0  0
 13 16  1  0  0  0  0
 17 18  1  0  0  0  0
 17 19  1  0  0  0  0
 17 20  1  0  0  0  0
 20 21  1  0  0  0  0
 20 22  1  0  0  0  0
 20 23  1  0  0  0  0
 24 25  2  0  0  0  0
 24 26  1  0  0  0  0
 26 27  1  0  0  0  0
 26 28  1  0  0  0  0
 28 29  1  0  0  0  0
 28 30  1  0  0  0  0
 28 31  1  0  0  0  0
M  END
$$$$

  -OEChem-01062216083D

 31 30  0     1  0  0  0  0  0999 V2000
   -3.6750   -2.9082    1.2942 H   0  0  0  0  0  0  0  0  0  0  0  0
   -3.5177   -1.8704    0.9866 C   0  0  0  0  0  0  0  0  0  0  0  0
   -3.8795   -1.2113    1.7795 H   0  0  0  0  0  0  0  0  0  0  0  0
   -4.0904   -1.6826    0.0751 H   0  0  0  0  0  0  0  0  0  0  0  0
   -2.0433   -1.6176    0.7331 C   0  0  0  0  0  0  0  0  0  0  0  0
   -1.2836   -2.5698    0.6805 O   0  0  0  0  0  0  0  0  0  0  0  0
   -1.6365   -0.3383    0.4029 N   0  0  0  0  0  0  0  0  0  0  0  0
   -2.3994    0.3320    0.3378 H   0  0  0  0  0  0  0  0  0  0  0  0
   -0.2842    0.2715    0.3974 C   0  0  1  0  0  0  0  0  0  0  0  0
   -0.3228    1.0527    1.1638 H   0  0  0  0  0  0  0  0  0  0  0  0
    0.9628   -0.5752    0.8112 C   0  0  1  0  0  0  0  0  0  0  0  0
    1.0123   -1.4589    0.1668 H   0  0  0  0  0  0  0  0  0  0  0  0
    2.2657    0.2350    0.6247 C   0  0  0  0  0  0  0  0  0  0  0  0
    2.2492    1.1357    1.2466 H   0  0  0  0  0  0  0  0  0  0  0  0
    3.1404   -0.3596    0.8990 H   0  0  0  0  0  0  0  0  0  0  0  0
    2.4061    0.5374   -0.4158 H   0  0  0  0  0  0  0  0  0  0  0  0
    0.8662   -1.0292    2.2956 C   0  0  0  0  0  0  0  0  0  0  0  0
    0.9865   -0.1576    2.9471 H   0  0  0  0  0  0  0  0  0  0  0  0
   -0.1149   -1.4455    2.5205 H   0  0  0  0  0  0  0  0  0  0  0  0
    1.9167   -2.0778    2.6763 C   0  0  0  0  0  0  0  0  0  0  0  0
    2.9262   -1.6595    2.6579 H   0  0  0  0  0  0  0  0  0  0  0  0
    1.7230   -2.4440    3.6889 H   0  0  0  0  0  0  0  0  0  0  0  0
    1.8725   -2.9278    1.9881 H   0  0  0  0  0  0  0  0  0  0  0  0
   -0.1561    1.0509   -0.9259 C   0  0  0  0  0  0  0  0  0  0  0  0
   -0.6022    2.1883   -1.0002 O   0  0  0  0  0  0  0  0  0  0  0  0
    0.3369    0.4361   -2.0617 N   0  0  0  0  0  0  0  0  0  0  0  0
    0.5691   -0.5509   -1.9829 H   0  0  0  0  0  0  0  0  0  0  0  0
    0.3441    1.0647   -3.3762 C   0  0  0  0  0  0  0  0  0  0  0  0
    0.9202    1.9958   -3.3531 H   0  0  0  0  0  0  0  0  0  0  0  0
    0.8003    0.3959   -4.1124 H   0  0  0  0  0  0  0  0  0  0  0  0
   -0.6778    1.2900   -3.6987 H   0  0  0  0  0  0  0  0  0  0  0  0
  1  2  1  0  0  0  0
  2  3  1  0  0  0  0
  2  4  1  0  0  0  0
  2  5  1  0  0  0  0
  5  6  2  0  0  0  0
  5  7  1  0  0  0  0
  7  8  1  0  0  0  0
  7  9  1  0  0  0  0
  9 10  1  0  0  0  0
  9 11  1  0  0  0  0
  9 24  1  0  0  0  0
 11 12  1  0  0  0  0
 11 13  1  0  0  0  0
 11 17  1  0  0  0  0
 13 14  1  0  0  0  0
 13 15  1  0  0  0  0
 13 16  1  0  0  0  0
 17 18  1  0  0  0  0
 17 19  1  0  0  0  0
 17 20  1  0  0  0  0
 20 21  1  0  0  0  0
 20 22  1  0  0  0  0
 20 23  1  0  0  0  0
 24 25  2  0  0  0  0
 24 26  1  0  0  0  0
 26 27  1  0  0  0  0
 26 28  1  0  0  0  0
 28 29  1  0  0  0  0
 28 30  1  0  0  0  0
 28 31  1  0  0  0  0
M  END
$$$$

  -OEChem-01062216083D

 31 30  0     1  0  0  0  0  0999 V2000
   -3.6626   -2.9350    1.3298 H   0  0  0  0  0  0  0  0  0  0  0  0
   -3.5170   -1.8895    1.0437 C   0  0  0  0  0  0  0  0  0  0  0  0
   -3.8483   -1.2521    1.8670 H   0  0  0  0  0  0  0  0  0  0  0  0
   -4.1242   -1.6781    0.1601 H   0  0  0  0  0  0  0  0  0  0  0  0
   -2.0532   -1.6288    0.7408 C   0  0  0  0  0  0  0  0  0  0  0  0
   -1.2908   -2.5764    0.6559 O   0  0  0  0  0  0  0  0  0  0  0  0
   -1.6629   -0.3485    0.3951 N   0  0  0  0  0  0  0  0  0  0  0  0
   -2.4318    0.3170    0.3691 H   0  0  0  0  0  0  0  0  0  0  0  0
   -0.3153    0.2740    0.3876 C   0  0  1  0  0  0  0  0  0  0  0  0
   -0.3602    1.0563    1.1528 H   0  0  0  0  0  0  0  0  0  0  0  0
    0.9375   -0.5645    0.7961 C   0  0  1  0  0  0  0  0  0  0  0  0
    0.9861   -1.4475    0.1506 H   0  0  0  0  0  0  0  0  0  0  0  0
    2.2338    0.2490    0.5870 C   0  0  0  0  0  0  0  0  0  0  0  0
    2.2189    1.1588    1.1957 H   0  0  0  0  0  0  0  0  0  0  0  0
    3.1148   -0.3366    0.8604 H   0  0  0  0  0  0  0  0  0  0  0  0
    2.3586    0.5349   -0.4612 H   0  0  0  0  0  0  0  0  0  0  0  0
    0.8539   -1.0257    2.2784 C   0  0  0  0  0  0  0  0  0  0  0  0
    0.9729   -0.1553    2.9318 H   0  0  0  0  0  0  0  0  0  0  0  0
   -0.1224   -1.4507    2.5084 H   0  0  0  0  0  0  0  0  0  0  0  0
    1.9154   -2.0673    2.6470 C   0  0  0  0  0  0  0  0  0  0  0  0
    2.9211   -1.6400    2.6213 H   0  0  0  0  0  0  0  0  0  0  0  0
    1.7331   -2.4383    3.6600 H   0  0  0  0  0  0  0  0  0  0  0  0
    1.8726   -2.9153    1.9563 H   0  0  0  0  0  0  0  0  0  0  0  0
   -0.1687    1.0430   -0.9381 C   0  0  0  0  0  0  0  0  0  0  0  0
   -0.3452    2.2535   -0.9686 O   0  0  0  0  0  0  0  0  0  0  0  0
    0.0457    0.3496   -2.1136 N   0  0  0  0  0  0  0  0  0  0  0  0
    0.0913   -0.6645   -2.0455 H   0  0  0  0  0  0  0  0  0  0  0  0
    0.0814    0.9798   -3.4265 C   0  0  0  0  0  0  0  0  0  0  0  0
    0.8762    1.7318   -3.4687 H   0  0  0  0  0  0  0  0  0  0  0  0
    0.2738    0.2303   -4.2001 H   0  0  0  0  0  0  0  0  0  0  0  0
   -0.8755    1.4653   -3.6443 H   0  0  0  0  0  0  0  0  0  0  0  0
  1  2  1  0  0  0  0
  2  3  1  0  0  0  0
  2  4  1  0  0  0  0
  2  5  1  0  0  0  0
  5  6  2  0  0  0  0
  5  7  1  0  0  0  0
  7  8  1  0  0  0  0
  7  9  1  0  0  0  0
  9 10  1  0  0  0  0
  9 11  1  0  0  0  0
  9 24  1  0  0  0  0
 11 12  1  0  0  0  0
 11 13  1  0  0  0  0
 11 17  1  0  0  0  0
 13 14  1  0  0  0  0
 13 15  1  0  0  0  0
 13 16  1  0  0  0  0
 17 18  1  0  0  0  0
 17 19  1  0  0  0  0
 17 20  1  0  0  0  0
 20 21  1  0  0  0  0
 20 22  1  0  0  0  0
 20 23  1  0  0  0  0
 24 25  2  0  0  0  0
 24 26  1  0  0  0  0
 26 27  1  0  0  0  0
 26 28  1  0  0  0  0
 28 29  1  0  0  0  0
 28 30  1  0  0  0  0
 28 31  1  0  0  0  0
M  END
$$$$

  -OEChem-01062216083D

 31 30  0     1  0  0  0  0  0999 V2000
   -3.6497   -2.9619    1.3624 H   0  0  0  0  0  0  0  0  0  0  0  0
   -3.5124   -1.9083    1.1030 C   0  0  0  0  0  0  0  0  0  0  0  0
   -3.8081   -1.2961    1.9584 H   0  0  0  0  0  0  0  0  0  0  0  0
   -4.1541   -1.6688    0.2516 H   0  0  0  0  0  0  0  0  0  0  0  0
   -2.0609   -1.6415    0.7506 C   0  0  0  0  0  0  0  0  0  0  0  0
   -1.2980   -2.5852    0.6371 O   0  0  0  0  0  0  0  0  0  0  0  0
   -1.6859   -0.3596    0.3934 N   0  0  0  0  0  0  0  0  0  0  0  0
   -2.4595    0.3004    0.3976 H   0  0  0  0  0  0  0  0  0  0  0  0
   -0.3421    0.2751    0.3787 C   0  0  1  0  0  0  0  0  0  0  0  0
   -0.3892    1.0590    1.1423 H   0  0  0  0  0  0  0  0  0  0  0  0
    0.9157   -0.5588    0.7808 C   0  0  1  0  0  0  0  0  0  0  0  0
    0.9630   -1.4409    0.1340 H   0  0  0  0  0  0  0  0  0  0  0  0
    2.2086    0.2562    0.5603 C   0  0  0  0  0  0  0  0  0  0  0  0
    2.1918    1.1725    1.1591 H   0  0  0  0  0  0  0  0  0  0  0  0
    3.0926   -0.3232    0.8368 H   0  0  0  0  0  0  0  0  0  0  0  0
    2.3281    0.5303   -0.4919 H   0  0  0  0  0  0  0  0  0  0  0  0
    0.8418   -1.0227    2.2627 C   0  0  0  0  0  0  0  0  0  0  0  0
    0.9598   -0.1528    2.9167 H   0  0  0  0  0  0  0  0  0  0  0  0
   -0.1308   -1.4536    2.4971 H   0  0  0  0  0  0  0  0  0  0  0  0
    1.9099   -2.0601    2.6238 C   0  0  0  0  0  0  0  0  0  0  0  0
    2.9129   -1.6264    2.5999 H   0  0  0  0  0  0  0  0  0  0  0  0
    1.7310   -2.4387    3.6346 H   0  0  0  0  0  0  0  0  0  0  0  0
    1.8715   -2.9039    1.9279 H   0  0  0  0  0  0  0  0  0  0  0  0
   -0.1937    1.0385   -0.9506 C   0  0  0  0  0  0  0  0  0  0  0  0
   -0.0875    2.2574   -0.9564 O   0  0  0  0  0  0  0  0  0  0  0  0
   -0.2821    0.3504   -2.1451 N   0  0  0  0  0  0  0  0  0  0  0  0
   -0.3962   -0.6589   -2.0850 H   0  0  0  0  0  0  0  0  0  0  0  0
   -0.2060    0.9872   -3.4531 C   0  0  0  0  0  0  0  0  0  0  0  0
    0.7617    1.4834   -3.5815 H   0  0  0  0  0  0  0  0  0  0  0  0
   -0.3198    0.2399   -4.2442 H   0  0  0  0  0  0  0  0  0  0  0  0
   -1.0015    1.7314   -3.5641 H   0  0  0  0  0  0  0  0  0  0  0  0
  1  2  1  0  0  0  0
  2  3  1  0  0  0  0
  2  4  1  0  0  0  0
  2  5  1  0  0  0  0
  5  6  2  0  0  0  0
  5  7  1  0  0  0  0
  7  8  1  0  0  0  0
  7  9  1  0  0  0  0
  9 10  1  0  0  0  0
  9 11  1  0  0  0  0
  9 24  1  0  0  0  0
 11 12  1  0  0  0  0
 11 13  1  0  0  0  0
 11 17  1  0  0  0  0
 13 14  1  0  0  0  0
 13 15  1  0  0  0  0
 13 16  1  0  0  0  0
 17 18  1  0  0  0  0
 17 19  1  0  0  0  0
 17 20  1  0  0  0  0
 20 21  1  0  0  0  0
 20 22  1  0  0  0  0
 20 23  1  0  0  0  0
 24 25  2  0  0  0  0
 24 26  1  0  0  0  0
 26 27  1  0  0  0  0
 26 28  1  0  0  0  0
 28 29  1  0  0  0  0
 28 30  1  0  0  0  0
 28 31  1  0  0  0  0
M  END
$$$$

  -OEChem-01062216083D

 31 30  0     1  0  0  0  0  0999 V2000
   -3.6261   -2.9759    1.4320 H   0  0  0  0  0  0  0  0  0  0  0  0
   -3.5036   -1.9269    1.1472 C   0  0  0  0  0  0  0  0  0  0  0  0
   -3.7862   -1.2995    1.9960 H   0  0  0  0  0  0  0  0  0  0  0  0
   -4.1655   -1.7109    0.3051 H   0  0  0  0  0  0  0  0  0  0  0  0
   -2.0621   -1.6556    0.7586 C   0  0  0  0  0  0  0  0  0  0  0  0
   -1.3001   -2.5971    0.6245 O   0  0  0  0  0  0  0  0  0  0  0  0
   -1.6995   -0.3713    0.3961 N   0  0  0  0  0  0  0  0  0  0  0  0
   -2.4769    0.2834    0.4231 H   0  0  0  0  0  0  0  0  0  0  0  0
   -0.3594    0.2754    0.3698 C   0  0  1  0  0  0  0  0  0  0  0  0
   -0.4062    1.0603    1.1320 H   0  0  0  0  0  0  0  0  0  0  0  0
    0.9011   -0.5586    0.7683 C   0  0  1  0  0  0  0  0  0  0  0  0
    0.9431   -1.4422    0.1233 H   0  0  0  0  0  0  0  0  0  0  0  0
    2.1983    0.2465    0.5398 C   0  0  0  0  0  0  0  0  0  0  0  0
    2.1893    1.1661    1.1334 H   0  0  0  0  0  0  0  0  0  0  0  0
    3.0794   -0.3371    0.8161 H   0  0  0  0  0  0  0  0  0  0  0  0
    2.3160    0.5131   -0.5145 H   0  0  0  0  0  0  0  0  0  0  0  0
    0.8321   -1.0182    2.2523 C   0  0  0  0  0  0  0  0  0  0  0  0
    0.9528   -0.1456    2.9024 H   0  0  0  0  0  0  0  0  0  0  0  0
   -0.1399   -1.4477    2.4916 H   0  0  0  0  0  0  0  0  0  0  0  0
    1.8997   -2.0553    2.6153 C   0  0  0  0  0  0  0  0  0  0  0  0
    2.9030   -1.6225    2.5886 H   0  0  0  0  0  0  0  0  0  0  0  0
    1.7219   -2.4299    3.6278 H   0  0  0  0  0  0  0  0  0  0  0  0
    1.8596   -2.9016    1.9226 H   0  0  0  0  0  0  0  0  0  0  0  0
   -0.2151    1.0426   -0.9604 C   0  0  0  0  0  0  0  0  0  0  0  0
    0.1333    2.2157   -0.9652 O   0  0  0  0  0  0  0  0  0  0  0  0
   -0.6008    0.4421   -2.1437 N   0  0  0  0  0  0  0  0  0  0  0  0
   -0.8540   -0.5419   -2.0919 H   0  0  0  0  0  0  0  0  0  0  0  0
   -0.5111    1.0910   -3.4452 C   0  0  0  0  0  0  0  0  0  0  0  0
    0.5297    1.3383   -3.6786 H   0  0  0  0  0  0  0  0  0  0  0  0
   -0.8937    0.4265   -4.2258 H   0  0  0  0  0  0  0  0  0  0  0  0
   -1.1031    2.0122   -3.4558 H   0  0  0  0  0  0  0  0  0  0  0  0
  1  2  1  0  0  0  0
  2  3  1  0  0  0  0
  2  4  1  0  0  0  0
  2  5  1  0  0  0  0
  5  6  2  0  0  0  0
  5  7  1  0  0  0  0
  7  8  1  0  0  0  0
  7  9  1  0  0  0  0
  9 10  1  0  0  0  0
  9 11  1  0  0  0  0
  9 24  1  0  0  0  0
 11 12  1  0  0  0  0
 11 13  1  0  0  0  0
 11 17  1  0  0  0  0
 13 14  1  0  0  0  0
 13 15  1  0  0  0  0
 13 16  1  0  0  0  0
 17 18  1  0  0  0  0
 17 19  1  0  0  0  0
 17 20  1  0  0  0  0
 20 21  1  0  0  0  0
 20 22  1  0  0  0  0
 20 23  1  0  0  0  0
 24 25  2  0  0  0  0
 24 26  1  0  0  0  0
 26 27  1  0  0  0  0
 26 28  1  0  0  0  0
 28 29  1  0  0  0  0
 28 30  1  0  0  0  0
 28 31  1  0  0  0  0
M  END
$$$$

  -OEChem-01062216083D

 31 30  0     1  0  0  0  0  0999 V2000
   -3.6140   -2.9952    1.4400 H   0  0  0  0  0  0  0  0  0  0  0  0
   -3.4942   -1.9431    1.1659 C   0  0  0  0  0  0  0  0  0  0  0  0
   -3.7689   -1.3251    2.0242 H   0  0  0  0  0  0  0  0  0  0  0  0
   -4.1644   -1.7182    0.3327 H   0  0  0  0  0  0  0  0  0  0  0  0
   -2.0566   -1.6672    0.7663 C   0  0  0  0  0  0  0  0  0  0  0  0
   -1.2942   -2.6073    0.6283 O   0  0  0  0  0  0  0  0  0  0  0  0
   -1.7014   -0.3810    0.4008 N   0  0  0  0  0  0  0  0  0  0  0  0
   -2.4815    0.2697    0.4411 H   0  0  0  0  0  0  0  0  0  0  0  0
   -0.3642    0.2768    0.3614 C   0  0  1  0  0  0  0  0  0  0  0  0
   -0.4088    1.0635    1.1218 H   0  0  0  0  0  0  0  0  0  0  0  0
    0.8963   -0.5612    0.7611 C   0  0  1  0  0  0  0  0  0  0  0  0
    0.9308   -1.4500    0.1230 H   0  0  0  0  0  0  0  0  0  0  0  0
    2.2026    0.2264    0.5226 C   0  0  0  0  0  0  0  0  0  0  0  0
    2.1976    1.1615    1.0917 H   0  0  0  0  0  0  0  0  0  0  0  0
    3.0783   -0.3557    0.8184 H   0  0  0  0  0  0  0  0  0  0  0  0
    2.3284    0.4633   -0.5377 H   0  0  0  0  0  0  0  0  0  0  0  0
    0.8270   -1.0109    2.2489 C   0  0  0  0  0  0  0  0  0  0  0  0
    0.9542   -0.1342    2.8921 H   0  0  0  0  0  0  0  0  0  0  0  0
   -0.1468   -1.4327    2.4933 H   0  0  0  0  0  0  0  0  0  0  0  0
    1.8891   -2.0509    2.6204 C   0  0  0  0  0  0  0  0  0  0  0  0
    2.8955   -1.6262    2.5883 H   0  0  0  0  0  0  0  0  0  0  0  0
    1.7102   -2.4148    3.6366 H   0  0  0  0  0  0  0  0  0  0  0  0
    1.8415   -2.9032    1.9356 H   0  0  0  0  0  0  0  0  0  0  0  0
   -0.2271    1.0498   -0.9704 C   0  0  0  0  0  0  0  0  0  0  0  0
    0.3132    2.1478   -0.9986 O   0  0  0  0  0  0  0  0  0  0  0  0
   -0.8826    0.5998   -2.1017 N   0  0  0  0  0  0  0  0  0  0  0  0
   -1.2679   -0.3401   -2.0523 H   0  0  0  0  0  0  0  0  0  0  0  0
   -0.8152    1.2741   -3.3921 C   0  0  0  0  0  0  0  0  0  0  0  0
    0.2173    1.3022   -3.7555 H   0  0  0  0  0  0  0  0  0  0  0  0
   -1.4280    0.7446   -4.1278 H   0  0  0  0  0  0  0  0  0  0  0  0
   -1.1879    2.3005   -3.3089 H   0  0  0  0  0  0  0  0  0  0  0  0
  1  2  1  0  0  0  0
  2  3  1  0  0  0  0
  2  4  1  0  0  0  0
  2  5  1  0  0  0  0
  5  6  2  0  0  0  0
  5  7  1  0  0  0  0
  7  8  1  0  0  0  0
  7  9  1  0  0  0  0
  9 10  1  0  0  0  0
  9 11  1  0  0  0  0
  9 24  1  0  0  0  0
 11 12  1  0  0  0  0
 11 13  1  0  0  0  0
 11 17  1  0  0  0  0
 13 14  1  0  0  0  0
 13 15  1  0  0  0  0
 13 16  1  0  0  0  0
 17 18  1  0  0  0  0
 17 19  1  0  0  0  0
 17 20  1  0  0  0  0
 20 21  1  0  0  0  0
 20 22  1  0  0  0  0
 20 23  1  0  0  0  0
 24 25  2  0  0  0  0
 24 26  1  0  0  0  0
 26 27  1  0  0  0  0
 26 28  1  0  0  0  0
 28 29  1  0  0  0  0
 28 30  1  0  0  0  0
 28 31  1  0  0  0  0
M  END
$$$$

  -OEChem-01062216083D

 31 30  0     1  0  0  0  0  0999 V2000
   -3.5900   -3.0024    1.4644 H   0  0  0  0  0  0  0  0  0  0  0  0
   -3.4787   -1.9552    1.1687 C   0  0  0  0  0  0  0  0  0  0  0  0
   -3.7576   -1.3222    2.0145 H   0  0  0  0  0  0  0  0  0  0  0  0
   -4.1514   -1.7528    0.3320 H   0  0  0  0  0  0  0  0  0  0  0  0
   -2.0436   -1.6770    0.7618 C   0  0  0  0  0  0  0  0  0  0  0  0
   -1.2821   -2.6172    0.6222 O   0  0  0  0  0  0  0  0  0  0  0  0
   -1.6939   -0.3886    0.3964 N   0  0  0  0  0  0  0  0  0  0  0  0
   -2.4747    0.2599    0.4556 H   0  0  0  0  0  0  0  0  0  0  0  0
   -0.3591    0.2779    0.3462 C   0  0  1  0  0  0  0  0  0  0  0  0
   -0.4019    1.0667    1.1037 H   0  0  0  0  0  0  0  0  0  0  0  0
    0.8983   -0.5667    0.7544 C   0  0  1  0  0  0  0  0  0  0  0  0
    0.9245   -1.4621    0.1253 H   0  0  0  0  0  0  0  0  0  0  0  0
    2.2180    0.1956    0.5111 C   0  0  0  0  0  0  0  0  0  0  0  0
    2.2167    1.1492    1.0484 H   0  0  0  0  0  0  0  0  0  0  0  0
    3.0824   -0.3859    0.8382 H   0  0  0  0  0  0  0  0  0  0  0  0
    2.3612    0.3923   -0.5551 H   0  0  0  0  0  0  0  0  0  0  0  0
    0.8216   -1.0017    2.2471 C   0  0  0  0  0  0  0  0  0  0  0  0
    0.9542   -0.1190    2.8811 H   0  0  0  0  0  0  0  0  0  0  0  0
   -0.1562   -1.4131    2.4934 H   0  0  0  0  0  0  0  0  0  0  0  0
    1.8738   -2.0462    2.6357 C   0  0  0  0  0  0  0  0  0  0  0  0
    2.8831   -1.6278    2.6163 H   0  0  0  0  0  0  0  0  0  0  0  0
    1.6796   -2.4055    3.6507 H   0  0  0  0  0  0  0  0  0  0  0  0
    1.8306   -2.9013    1.9536 H   0  0  0  0  0  0  0  0  0  0  0  0
   -0.2326    1.0582   -0.9873 C   0  0  0  0  0  0  0  0  0  0  0  0
    0.4660    2.0606   -1.0615 O   0  0  0  0  0  0  0  0  0  0  0  0
   -1.1150    0.8066   -2.0232 N   0  0  0  0  0  0  0  0  0  0  0  0
   -1.6267   -0.0699   -1.9653 H   0  0  0  0  0  0  0  0  0  0  0  0
   -1.0902    1.5272   -3.2903 C   0  0  0  0  0  0  0  0  0  0  0  0
   -0.1236    1.3933   -3.7874 H   0  0  0  0  0  0  0  0  0  0  0  0
   -1.8766    1.1538   -3.9531 H   0  0  0  0  0  0  0  0  0  0  0  0
   -1.2574    2.5971   -3.1266 H   0  0  0  0  0  0  0  0  0  0  0  0
  1  2  1  0  0  0  0
  2  3  1  0  0  0  0
  2  4  1  0  0  0  0
  2  5  1  0  0  0  0
  5  6  2  0  0  0  0
  5  7  1  0  0  0  0
  7  8  1  0  0  0  0
  7  9  1  0  0  0  0
  9 10  1  0  0  0  0
  9 11  1  0  0  0  0
  9 24  1  0  0  0  0
 11 12  1  0  0  0  0
 11 13  1  0  0  0  0
 11 17  1  0  0  0  0
 13 14  1  0  0  0  0
 13 15  1  0  0  0  0
 13 16  1  0  0  0  0
 17 18  1  0  0  0  0
 17 19  1  0  0  0  0
 17 20  1  0  0  0  0
 20 21  1  0  0  0  0
 20 22  1  0  0  0  0
 20 23  1  0  0  0  0
 24 25  2  0  0  0  0
 24 26  1  0  0  0  0
 26 27  1  0  0  0  0
 26 28  1  0  0  0  0
 28 29  1  0  0  0  0
 28 30  1  0  0  0  0
 28 31  1  0  0  0  0
M  END
$$$$

  -OEChem-01062216083D

 31 30  0     1  0  0  0  0  0999 V2000
   -3.5740   -3.0104    1.4523 H   0  0  0  0  0  0  0  0  0  0  0  0
   -3.4614   -1.9604    1.1667 C   0  0  0  0  0  0  0  0  0  0  0  0
   -3.7284   -1.3356    2.0225 H   0  0  0  0  0  0  0  0  0  0  0  0
   -4.1424   -1.7465    0.3394 H   0  0  0  0  0  0  0  0  0  0  0  0
   -2.0296   -1.6835    0.7472 C   0  0  0  0  0  0  0  0  0  0  0  0
   -1.2696   -2.6246    0.6076 O   0  0  0  0  0  0  0  0  0  0  0  0
   -1.6834   -0.3925    0.3846 N   0  0  0  0  0  0  0  0  0  0  0  0
   -2.4622    0.2549    0.4731 H   0  0  0  0  0  0  0  0  0  0  0  0
   -0.3498    0.2795    0.3265 C   0  0  1  0  0  0  0  0  0  0  0  0
   -0.3903    1.0707    1.0818 H   0  0  0  0  0  0  0  0  0  0  0  0
    0.9037   -0.5723    0.7447 C   0  0  1  0  0  0  0  0  0  0  0  0
    0.9245   -1.4731    0.1236 H   0  0  0  0  0  0  0  0  0  0  0  0
    2.2376    0.1660    0.5055 C   0  0  0  0  0  0  0  0  0  0  0  0
    2.2339    1.1411    1.0029 H   0  0  0  0  0  0  0  0  0  0  0  0
    3.0889   -0.4081    0.8762 H   0  0  0  0  0  0  0  0  0  0  0  0
    2.4094    0.3141   -0.5642 H   0  0  0  0  0  0  0  0  0  0  0  0
    0.8153   -0.9929    2.2419 C   0  0  0  0  0  0  0  0  0  0  0  0
    0.9505   -0.1054    2.8681 H   0  0  0  0  0  0  0  0  0  0  0  0
   -0.1668   -1.3939    2.4869 H   0  0  0  0  0  0  0  0  0  0  0  0
    1.8556   -2.0422    2.6501 C   0  0  0  0  0  0  0  0  0  0  0  0
    2.8667   -1.6276    2.6506 H   0  0  0  0  0  0  0  0  0  0  0  0
    1.6409   -2.4008    3.6613 H   0  0  0  0  0  0  0  0  0  0  0  0
    1.8217   -2.8965    1.9667 H   0  0  0  0  0  0  0  0  0  0  0  0
   -0.2390    1.0666   -1.0096 C   0  0  0  0  0  0  0  0  0  0  0  0
    0.6000    1.9442   -1.1615 O   0  0  0  0  0  0  0  0  0  0  0  0
   -1.2922    1.0481   -1.9092 N   0  0  0  0  0  0  0  0  0  0  0  0
   -1.9196    0.2533   -1.8296 H   0  0  0  0  0  0  0  0  0  0  0  0
   -1.3018    1.8229   -3.1451 C   0  0  0  0  0  0  0  0  0  0  0  0
   -0.4548    1.5421   -3.7798 H   0  0  0  0  0  0  0  0  0  0  0  0
   -2.2271    1.6395   -3.6995 H   0  0  0  0  0  0  0  0  0  0  0  0
   -1.2385    2.8942   -2.9270 H   0  0  0  0  0  0  0  0  0  0  0  0
  1  2  1  0  0  0  0
  2  3  1  0  0  0  0
  2  4  1  0  0  0  0
  2  5  1  0  0  0  0
  5  6  2  0  0  0  0
  5  7  1  0  0  0  0
  7  8  1  0  0  0  0
  7  9  1  0  0  0  0
  9 10  1  0  0  0  0
  9 11  1  0  0  0  0
  9 24  1  0  0  0  0
 11 12  1  0  0  0  0
 11 13  1  0  0  0  0
 11 17  1  0  0  0  0
 13 14  1  0  0  0  0
 13 15  1  0  0  0  0
 13 16  1  0  0  0  0
 17 18  1  0  0  0  0
 17 19  1  0  0  0  0
 17 20  1  0  0  0  0
 20 21  1  0  0  0  0
 20 22  1  0  0  0  0
 20 23  1  0  0  0  0
 24 25  2  0  0  0  0
 24 26  1  0  0  0  0
 26 27  1  0  0  0  0
 26 28  1  0  0  0  0
 28 29  1  0  0  0  0
 28 30  1  0  0  0  0
 28 31  1  0  0  0  0
M  END
$$$$

  -OEChem-01062216083D

 31 30  0     1  0  0  0  0  0999 V2000
   -3.5453   -3.0227    1.4231 H   0  0  0  0  0  0  0  0  0  0  0  0
   -3.4359   -1.9680    1.1539 C   0  0  0  0  0  0  0  0  0  0  0  0
   -3.6868   -1.3576    2.0248 H   0  0  0  0  0  0  0  0  0  0  0  0
   -4.1305   -1.7391    0.3421 H   0  0  0  0  0  0  0  0  0  0  0  0
   -2.0108   -1.6868    0.7146 C   0  0  0  0  0  0  0  0  0  0  0  0
   -1.2517   -2.6269    0.5642 O   0  0  0  0  0  0  0  0  0  0  0  0
   -1.6702   -0.3902    0.3641 N   0  0  0  0  0  0  0  0  0  0  0  0
   -2.4431    0.2550    0.5013 H   0  0  0  0  0  0  0  0  0  0  0  0
   -0.3356    0.2812    0.3008 C   0  0  1  0  0  0  0  0  0  0  0  0
   -0.3722    1.0714    1.0569 H   0  0  0  0  0  0  0  0  0  0  0  0
    0.9130   -0.5784    0.7308 C   0  0  1  0  0  0  0  0  0  0  0  0
    0.9337   -1.4839    0.1169 H   0  0  0  0  0  0  0  0  0  0  0  0
    2.2611    0.1405    0.5090 C   0  0  0  0  0  0  0  0  0  0  0  0
    2.2476    1.1361    0.9634 H   0  0  0  0  0  0  0  0  0  0  0  0
    3.0950   -0.4208    0.9336 H   0  0  0  0  0  0  0  0  0  0  0  0
    2.4742    0.2377   -0.5586 H   0  0  0  0  0  0  0  0  0  0  0  0
    0.8055   -0.9814    2.2331 C   0  0  0  0  0  0  0  0  0  0  0  0
    0.9405   -0.0879    2.8509 H   0  0  0  0  0  0  0  0  0  0  0  0
   -0.1825   -1.3724    2.4703 H   0  0  0  0  0  0  0  0  0  0  0  0
    1.8296   -2.0360    2.6695 C   0  0  0  0  0  0  0  0  0  0  0  0
    2.8430   -1.6282    2.6966 H   0  0  0  0  0  0  0  0  0  0  0  0
    1.5872   -2.3919    3.6754 H   0  0  0  0  0  0  0  0  0  0  0  0
    1.8085   -2.8916    1.9871 H   0  0  0  0  0  0  0  0  0  0  0  0
   -0.2501    1.0828   -1.0334 C   0  0  0  0  0  0  0  0  0  0  0  0
    0.7191    1.7689   -1.3246 O   0  0  0  0  0  0  0  0  0  0  0  0
   -1.4074    1.3267   -1.7570 N   0  0  0  0  0  0  0  0  0  0  0  0
   -2.1599    0.6623   -1.6096 H   0  0  0  0  0  0  0  0  0  0  0  0
   -1.4345    2.1402   -2.9683 C   0  0  0  0  0  0  0  0  0  0  0  0
   -0.7714    1.7163   -3.7298 H   0  0  0  0  0  0  0  0  0  0  0  0
   -2.4495    2.1802   -3.3747 H   0  0  0  0  0  0  0  0  0  0  0  0
   -1.1114    3.1638   -2.7507 H   0  0  0  0  0  0  0  0  0  0  0  0
  1  2  1  0  0  0  0
  2  3  1  0  0  0  0
  2  4  1  0  0  0  0
  2  5  1  0  0  0  0
  5  6  2  0  0  0  0
  5  7  1  0  0  0  0
  7  8  1  0  0  0  0
  7  9  1  0  0  0  0
  9 10  1  0  0  0  0
  9 11  1  0  0  0  0
  9 24  1  0  0  0  0
 11 12  1  0  0  0  0
 11 13  1  0  0  0  0
 11 17  1  0  0  0  0
 13 14  1  0  0  0  0
 13 15  1  0  0  0  0
 13 16  1  0  0  0  0
 17 18  1  0  0  0  0
 17 19  1  0  0  0  0
 17 20  1  0  0  0  0
 20 21  1  0  0  0  0
 20 22  1  0  0  0  0
 20 23  1  0  0  0  0
 24 25  2  0  0  0  0
 24 26  1  0  0  0  0
 26 27  1  0  0  0  0
 26 28  1  0  0  0  0
 28 29  1  0  0  0  0
 28 30  1  0  0  0  0
 28 31  1  0  0  0  0
M  END
$$$$

  -OEChem-01062216083D

 31 30  0     1  0  0  0  0  0999 V2000
   -3.5397   -3.0259    1.3714 H   0  0  0  0  0  0  0  0  0  0  0  0
   -3.4286   -1.9679    1.1163 C   0  0  0  0  0  0  0  0  0  0  0  0
   -3.6812   -1.3690    1.9946 H   0  0  0  0  0  0  0  0  0  0  0  0
   -4.1214   -1.7279    0.3061 H   0  0  0  0  0  0  0  0  0  0  0  0
   -2.0024   -1.6821    0.6829 C   0  0  0  0  0  0  0  0  0  0  0  0
   -1.2416   -2.6207    0.5326 O   0  0  0  0  0  0  0  0  0  0  0  0
   -1.6618   -0.3792    0.3551 N   0  0  0  0  0  0  0  0  0  0  0  0
   -2.4297    0.2615    0.5271 H   0  0  0  0  0  0  0  0  0  0  0  0
   -0.3220    0.2812    0.2915 C   0  0  1  0  0  0  0  0  0  0  0  0
   -0.3505    1.0635    1.0555 H   0  0  0  0  0  0  0  0  0  0  0  0
    0.9249   -0.5830    0.7205 C   0  0  1  0  0  0  0  0  0  0  0  0
    0.9552   -1.4871    0.1047 H   0  0  0  0  0  0  0  0  0  0  0  0
    2.2710    0.1513    0.5243 C   0  0  0  0  0  0  0  0  0  0  0  0
    2.2102    1.1765    0.9025 H   0  0  0  0  0  0  0  0  0  0  0  0
    3.0928   -0.3521    1.0344 H   0  0  0  0  0  0  0  0  0  0  0  0
    2.5461    0.1755   -0.5329 H   0  0  0  0  0  0  0  0  0  0  0  0
    0.8072   -0.9811    2.2243 C   0  0  0  0  0  0  0  0  0  0  0  0
    0.9397   -0.0866    2.8415 H   0  0  0  0  0  0  0  0  0  0  0  0
   -0.1839   -1.3692    2.4543 H   0  0  0  0  0  0  0  0  0  0  0  0
    1.8228   -2.0402    2.6717 C   0  0  0  0  0  0  0  0  0  0  0  0
    2.8376   -1.6381    2.7164 H   0  0  0  0  0  0  0  0  0  0  0  0
    1.5641   -2.3994    3.6723 H   0  0  0  0  0  0  0  0  0  0  0  0
    1.8084   -2.8929    1.9857 H   0  0  0  0  0  0  0  0  0  0  0  0
   -0.2604    1.1060   -1.0328 C   0  0  0  0  0  0  0  0  0  0  0  0
    0.7785    1.4707   -1.5618 O   0  0  0  0  0  0  0  0  0  0  0  0
   -1.4299    1.6350   -1.5589 N   0  0  0  0  0  0  0  0  0  0  0  0
   -2.2926    1.2085   -1.2435 H   0  0  0  0  0  0  0  0  0  0  0  0
   -1.4656    2.4334   -2.7807 C   0  0  0  0  0  0  0  0  0  0  0  0
   -1.0920    1.8518   -3.6302 H   0  0  0  0  0  0  0  0  0  0  0  0
   -2.4911    2.7465   -2.9982 H   0  0  0  0  0  0  0  0  0  0  0  0
   -0.8491    3.3320   -2.6710 H   0  0  0  0  0  0  0  0  0  0  0  0
  1  2  1  0  0  0  0
  2  3  1  0  0  0  0
  2  4  1  0  0  0  0
  2  5  1  0  0  0  0
  5  6  2  0  0  0  0
  5  7  1  0  0  0  0
  7  8  1  0  0  0  0
  7  9  1  0  0  0  0
  9 10  1  0  0  0  0
  9 11  1  0  0  0  0
  9 24  1  0  0  0  0
 11 12  1  0  0  0  0
 11 13  1  0  0  0  0
 11 17  1  0  0  0  0
 13 14  1  0  0  0  0
 13 15  1  0  0  0  0
 13 16  1  0  0  0  0
 17 18  1  0  0  0  0
 17 19  1  0  0  0  0
 17 20  1  0  0  0  0
 20 21  1  0  0  0  0
 20 22  1  0  0  0  0
 20 23  1  0  0  0  0
 24 25  2  0  0  0  0
 24 26  1  0  0  0  0
 26 27  1  0  0  0  0
 26 28  1  0  0  0  0
 28 29  1  0  0  0  0
 28 30  1  0  0  0  0
 28 31  1  0  0  0  0
M  END
$$$$

  -OEChem-01062216083D

 31 30  0     1  0  0  0  0  0999 V2000
   -3.6549   -2.9911    1.2623 H   0  0  0  0  0  0  0  0  0  0  0  0
   -3.5112   -1.9503    0.9575 C   0  0  0  0  0  0  0  0  0  0  0  0
   -3.9014   -1.2995    1.7435 H   0  0  0  0  0  0  0  0  0  0  0  0
   -4.0693   -1.7747    0.0346 H   0  0  0  0  0  0  0  0  0  0  0  0
   -2.0364   -1.6699    0.7330 C   0  0  0  0  0  0  0  0  0  0  0  0
   -1.2636   -2.6108    0.7433 O   0  0  0  0  0  0  0  0  0  0  0  0
   -1.6596   -0.3758    0.4084 N   0  0  0  0  0  0  0  0  0  0  0  0
   -2.4480    0.2539    0.3139 H   0  0  0  0  0  0  0  0  0  0  0  0
   -0.3101    0.2547    0.3203 C   0  0  1  0  0  0  0  0  0  0  0  0
   -0.3204    1.0342    1.0874 H   0  0  0  0  0  0  0  0  0  0  0  0
    0.9457   -0.5943    0.7325 C   0  0  1  0  0  0  0  0  0  0  0  0
    0.9723   -1.5049    0.1253 H   0  0  0  0  0  0  0  0  0  0  0  0
    2.2706    0.1733    0.5072 C   0  0  0  0  0  0  0  0  0  0  0  0
    2.2088    1.1811    0.9285 H   0  0  0  0  0  0  0  0  0  0  0  0
    3.1178   -0.3384    0.9661 H   0  0  0  0  0  0  0  0  0  0  0  0
    2.5096    0.2487   -0.5553 H   0  0  0  0  0  0  0  0  0  0  0  0
    0.8637   -0.9719    2.2437 C   0  0  0  0  0  0  0  0  0  0  0  0
    1.0114   -0.0693    2.8453 H   0  0  0  0  0  0  0  0  0  0  0  0
   -0.1226   -1.3531    2.5047 H   0  0  0  0  0  0  0  0  0  0  0  0
    1.8952   -2.0196    2.6796 C   0  0  0  0  0  0  0  0  0  0  0  0
    2.9111   -1.6182    2.6710 H   0  0  0  0  0  0  0  0  0  0  0  0
    1.6766   -2.3502    3.6993 H   0  0  0  0  0  0  0  0  0  0  0  0
    1.8519   -2.8908    2.0187 H   0  0  0  0  0  0  0  0  0  0  0  0
   -0.2645    1.0845   -0.9954 C   0  0  0  0  0  0  0  0  0  0  0  0
    0.6029    0.9579   -1.8464 O   0  0  0  0  0  0  0  0  0  0  0  0
   -1.3409    1.8983   -1.3191 N   0  0  0  0  0  0  0  0  0  0  0  0
   -2.0309    2.0730   -0.5983 H   0  0  0  0  0  0  0  0  0  0  0  0
   -1.4229    2.6616   -2.5605 C   0  0  0  0  0  0  0  0  0  0  0  0
   -1.3900    1.9907   -3.4257 H   0  0  0  0  0  0  0  0  0  0  0  0
   -2.3599    3.2252   -2.5979 H   0  0  0  0  0  0  0  0  0  0  0  0
   -0.5904    3.3694   -2.6318 H   0  0  0  0  0  0  0  0  0  0  0  0
  1  2  1  0  0  0  0
  2  3  1  0  0  0  0
  2  4  1  0  0  0  0
  2  5  1  0  0  0  0
  5  6  2  0  0  0  0
  5  7  1  0  0  0  0
  7  8  1  0  0  0  0
  7  9  1  0  0  0  0
  9 10  1  0  0  0  0
  9 11  1  0  0  0  0
  9 24  1  0  0  0  0
 11 12  1  0  0  0  0
 11 13  1  0  0  0  0
 11 17  1  0  0  0  0
 13 14  1  0  0  0  0
 13 15  1  0  0  0  0
 13 16  1  0  0  0  0
 17 18  1  0  0  0  0
 17 19  1  0  0  0  0
 17 20  1  0  0  0  0
 20 21  1  0  0  0  0
 20 22  1  0  0  0  0
 20 23  1  0  0  0  0
 24 25  2  0  0  0  0
 24 26  1  0  0  0  0
 26 27  1  0  0  0  0
 26 28  1  0  0  0  0
 28 29  1  0  0  0  0
 28 30  1  0  0  0  0
 28 31  1  0  0  0  0
M  END
$$$$

  -OEChem-01062216083D

 31 30  0     1  0  0  0  0  0999 V2000
   -3.7165   -2.9527    1.2229 H   0  0  0  0  0  0  0  0  0  0  0  0
   -3.5524   -1.9155    0.9161 C   0  0  0  0  0  0  0  0  0  0  0  0
   -3.9815   -1.2550    1.6733 H   0  0  0  0  0  0  0  0  0  0  0  0
   -4.0594   -1.7474   -0.0371 H   0  0  0  0  0  0  0  0  0  0  0  0
   -2.0668   -1.6426    0.7672 C   0  0  0  0  0  0  0  0  0  0  0  0
   -1.2999   -2.5859    0.8377 O   0  0  0  0  0  0  0  0  0  0  0  0
   -1.6712   -0.3572    0.4327 N   0  0  0  0  0  0  0  0  0  0  0  0
   -2.4496    0.2641    0.2387 H   0  0  0  0  0  0  0  0  0  0  0  0
   -0.3182    0.2595    0.3509 C   0  0  1  0  0  0  0  0  0  0  0  0
   -0.3248    1.0388    1.1178 H   0  0  0  0  0  0  0  0  0  0  0  0
    0.9422   -0.5806    0.7484 C   0  0  1  0  0  0  0  0  0  0  0  0
    0.9659   -1.4846    0.1306 H   0  0  0  0  0  0  0  0  0  0  0  0
    2.2518    0.2071    0.5087 C   0  0  0  0  0  0  0  0  0  0  0  0
    2.2384    1.1527    1.0590 H   0  0  0  0  0  0  0  0  0  0  0  0
    3.1230   -0.3680    0.8295 H   0  0  0  0  0  0  0  0  0  0  0  0
    2.4036    0.4234   -0.5504 H   0  0  0  0  0  0  0  0  0  0  0  0
    0.8868   -0.9763    2.2545 C   0  0  0  0  0  0  0  0  0  0  0  0
    1.0387   -0.0800    2.8642 H   0  0  0  0  0  0  0  0  0  0  0  0
   -0.0913   -1.3663    2.5310 H   0  0  0  0  0  0  0  0  0  0  0  0
    1.9378   -2.0183    2.6530 C   0  0  0  0  0  0  0  0  0  0  0  0
    2.9502   -1.6103    2.6026 H   0  0  0  0  0  0  0  0  0  0  0  0
    1.7600   -2.3480    3.6810 H   0  0  0  0  0  0  0  0  0  0  0  0
    1.8737   -2.8911    1.9955 H   0  0  0  0  0  0  0  0  0  0  0  0
   -0.2625    1.0685   -0.9700 C   0  0  0  0  0  0  0  0  0  0  0  0
    0.4042    0.7179   -1.9331 O   0  0  0  0  0  0  0  0  0  0  0  0
   -1.1647    2.1045   -1.1567 N   0  0  0  0  0  0  0  0  0  0  0  0
   -1.6750    2.4340   -0.3443 H   0  0  0  0  0  0  0  0  0  0  0  0
   -1.2523    2.8712   -2.3953 C   0  0  0  0  0  0  0  0  0  0  0  0
   -1.4947    2.2135   -3.2369 H   0  0  0  0  0  0  0  0  0  0  0  0
   -2.0356    3.6312   -2.3166 H   0  0  0  0  0  0  0  0  0  0  0  0
   -0.3015    3.3732   -2.6035 H   0  0  0  0  0  0  0  0  0  0  0  0
  1  2  1  0  0  0  0
  2  3  1  0  0  0  0
  2  4  1  0  0  0  0
  2  5  1  0  0  0  0
  5  6  2  0  0  0  0
  5  7  1  0  0  0  0
  7  8  1  0  0  0  0
  7  9  1  0  0  0  0
  9 10  1  0  0  0  0
  9 11  1  0  0  0  0
  9 24  1  0  0  0  0
 11 12  1  0  0  0  0
 11 13  1  0  0  0  0
 11 17  1  0  0  0  0
 13 14  1  0  0  0  0
 13 15  1  0  0  0  0
 13 16  1  0  0  0  0
 17 18  1  0  0  0  0
 17 19  1  0  0  0  0
 17 20  1  0  0  0  0
 20 21  1  0  0  0  0
 20 22  1  0  0  0  0
 20 23  1  0  0  0  0
 24 25  2  0  0  0  0
 24 26  1  0  0  0  0
 26 27  1  0  0  0  0
 26 28  1  0  0  0  0
 28 29  1  0  0  0  0
 28 30  1  0  0  0  0
 28 31  1  0  0  0  0
M  END
$$$$

  -OEChem-01062216083D

 31 30  0     1  0  0  0  0  0999 V2000
   -3.7329   -2.9491    1.2590 H   0  0  0  0  0  0  0  0  0  0  0  0
   -3.5710   -1.9162    0.9369 C   0  0  0  0  0  0  0  0  0  0  0  0
   -4.0047   -1.2452    1.6821 H   0  0  0  0  0  0  0  0  0  0  0  0
   -4.0747   -1.7641   -0.0208 H   0  0  0  0  0  0  0  0  0  0  0  0
   -2.0858   -1.6409    0.7892 C   0  0  0  0  0  0  0  0  0  0  0  0
   -1.3170   -2.5821    0.8666 O   0  0  0  0  0  0  0  0  0  0  0  0
   -1.6927   -0.3570    0.4472 N   0  0  0  0  0  0  0  0  0  0  0  0
   -2.4724    0.2642    0.2561 H   0  0  0  0  0  0  0  0  0  0  0  0
   -0.3431    0.2644    0.3693 C   0  0  1  0  0  0  0  0  0  0  0  0
   -0.3547    1.0396    1.1406 H   0  0  0  0  0  0  0  0  0  0  0  0
    0.9242   -0.5666    0.7543 C   0  0  1  0  0  0  0  0  0  0  0  0
    0.9454   -1.4658    0.1292 H   0  0  0  0  0  0  0  0  0  0  0  0
    2.2205    0.2336    0.4920 C   0  0  0  0  0  0  0  0  0  0  0  0
    2.2236    1.1629    1.0696 H   0  0  0  0  0  0  0  0  0  0  0  0
    3.1034   -0.3483    0.7654 H   0  0  0  0  0  0  0  0  0  0  0  0
    2.3299    0.4817   -0.5663 H   0  0  0  0  0  0  0  0  0  0  0  0
    0.8904   -0.9812    2.2548 C   0  0  0  0  0  0  0  0  0  0  0  0
    1.0428   -0.0909    2.8730 H   0  0  0  0  0  0  0  0  0  0  0  0
   -0.0801   -1.3833    2.5403 H   0  0  0  0  0  0  0  0  0  0  0  0
    1.9583   -2.0163    2.6241 C   0  0  0  0  0  0  0  0  0  0  0  0
    2.9654   -1.5983    2.5522 H   0  0  0  0  0  0  0  0  0  0  0  0
    1.8068   -2.3529    3.6542 H   0  0  0  0  0  0  0  0  0  0  0  0
    1.8873   -2.8863    1.9636 H   0  0  0  0  0  0  0  0  0  0  0  0
   -0.2697    1.0653   -0.9525 C   0  0  0  0  0  0  0  0  0  0  0  0
    0.2304    0.6000   -1.9669 O   0  0  0  0  0  0  0  0  0  0  0  0
   -0.9332    2.2777   -1.0470 N   0  0  0  0  0  0  0  0  0  0  0  0
   -1.3152    2.6747   -0.1948 H   0  0  0  0  0  0  0  0  0  0  0  0
   -0.9622    3.0757   -2.2678 C   0  0  0  0  0  0  0  0  0  0  0  0
   -1.4080    2.5046   -3.0893 H   0  0  0  0  0  0  0  0  0  0  0  0
   -1.5582    3.9805   -2.1154 H   0  0  0  0  0  0  0  0  0  0  0  0
    0.0519    3.3725   -2.5555 H   0  0  0  0  0  0  0  0  0  0  0  0
  1  2  1  0  0  0  0
  2  3  1  0  0  0  0
  2  4  1  0  0  0  0
  2  5  1  0  0  0  0
  5  6  2  0  0  0  0
  5  7  1  0  0  0  0
  7  8  1  0  0  0  0
  7  9  1  0  0  0  0
  9 10  1  0  0  0  0
  9 11  1  0  0  0  0
  9 24  1  0  0  0  0
 11 12  1  0  0  0  0
 11 13  1  0  0  0  0
 11 17  1  0  0  0  0
 13 14  1  0  0  0  0
 13 15  1  0  0  0  0
 13 16  1  0  0  0  0
 17 18  1  0  0  0  0
 17 19  1  0  0  0  0
 17 20  1  0  0  0  0
 20 21  1  0  0  0  0
 20 22  1  0  0  0  0
 20 23  1  0  0  0  0
 24 25  2  0  0  0  0
 24 26  1  0  0  0  0
 26 27  1  0  0  0  0
 26 28  1  0  0  0  0
 28 29  1  0  0  0  0
 28 30  1  0  0  0  0
 28 31  1  0  0  0  0
M  END
$$$$

  -OEChem-01062216083D

 31 30  0     1  0  0  0  0  0999 V2000
   -3.7467   -2.9587    1.2683 H   0  0  0  0  0  0  0  0  0  0  0  0
   -3.5865   -1.9250    0.9486 C   0  0  0  0  0  0  0  0  0  0  0  0
   -4.0247   -1.2564    1.6933 H   0  0  0  0  0  0  0  0  0  0  0  0
   -4.0876   -1.7725   -0.0105 H   0  0  0  0  0  0  0  0  0  0  0  0
   -2.1014   -1.6455    0.8064 C   0  0  0  0  0  0  0  0  0  0  0  0
   -1.3292   -2.5834    0.8929 O   0  0  0  0  0  0  0  0  0  0  0  0
   -1.7122   -0.3612    0.4627 N   0  0  0  0  0  0  0  0  0  0  0  0
   -2.4932    0.2560    0.2626 H   0  0  0  0  0  0  0  0  0  0  0  0
   -0.3658    0.2643    0.3819 C   0  0  1  0  0  0  0  0  0  0  0  0
   -0.3829    1.0329    1.1591 H   0  0  0  0  0  0  0  0  0  0  0  0
    0.9090   -0.5572    0.7563 C   0  0  1  0  0  0  0  0  0  0  0  0
    0.9280   -1.4564    0.1308 H   0  0  0  0  0  0  0  0  0  0  0  0
    2.1937    0.2505    0.4680 C   0  0  0  0  0  0  0  0  0  0  0  0
    2.2019    1.1806    1.0444 H   0  0  0  0  0  0  0  0  0  0  0  0
    3.0861   -0.3249    0.7243 H   0  0  0  0  0  0  0  0  0  0  0  0
    2.2758    0.4968   -0.5943 H   0  0  0  0  0  0  0  0  0  0  0  0
    0.8938   -0.9790    2.2541 C   0  0  0  0  0  0  0  0  0  0  0  0
    1.0454   -0.0897    2.8738 H   0  0  0  0  0  0  0  0  0  0  0  0
   -0.0708   -1.3895    2.5478 H   0  0  0  0  0  0  0  0  0  0  0  0
    1.9753   -2.0062    2.6057 C   0  0  0  0  0  0  0  0  0  0  0  0
    2.9780   -1.5803    2.5183 H   0  0  0  0  0  0  0  0  0  0  0  0
    1.8423   -2.3449    3.6376 H   0  0  0  0  0  0  0  0  0  0  0  0
    1.9012   -2.8761    1.9454 H   0  0  0  0  0  0  0  0  0  0  0  0
   -0.2787    1.0690   -0.9349 C   0  0  0  0  0  0  0  0  0  0  0  0
    0.0214    0.5331   -1.9923 O   0  0  0  0  0  0  0  0  0  0  0  0
   -0.6570    2.4009   -0.9524 N   0  0  0  0  0  0  0  0  0  0  0  0
   -0.8674    2.8448   -0.0641 H   0  0  0  0  0  0  0  0  0  0  0  0
   -0.6212    3.2215   -2.1576 C   0  0  0  0  0  0  0  0  0  0  0  0
   -1.2600    2.7889   -2.9350 H   0  0  0  0  0  0  0  0  0  0  0  0
   -0.9804    4.2318   -1.9396 H   0  0  0  0  0  0  0  0  0  0  0  0
    0.4017    3.2924   -2.5420 H   0  0  0  0  0  0  0  0  0  0  0  0
  1  2  1  0  0  0  0
  2  3  1  0  0  0  0
  2  4  1  0  0  0  0
  2  5  1  0  0  0  0
  5  6  2  0  0  0  0
  5  7  1  0  0  0  0
  7  8  1  0  0  0  0
  7  9  1  0  0  0  0
  9 10  1  0  0  0  0
  9 11  1  0  0  0  0
  9 24  1  0  0  0  0
 11 12  1  0  0  0  0
 11 13  1  0  0  0  0
 11 17  1  0  0  0  0
 13 14  1  0  0  0  0
 13 15  1  0  0  0  0
 13 16  1  0  0  0  0
 17 18  1  0  0  0  0
 17 19  1  0  0  0  0
 17 20  1  0  0  0  0
 20 21  1  0  0  0  0
 20 22  1  0  0  0  0
 20 23  1  0  0  0  0
 24 25  2  0  0  0  0
 24 26  1  0  0  0  0
 26 27  1  0  0  0  0
 26 28  1  0  0  0  0
 28 29  1  0  0  0  0
 28 30  1  0  0  0  0
 28 31  1  0  0  0  0
M  END
$$$$

  -OEChem-01062216083D

 31 30  0     1  0  0  0  0  0999 V2000
   -3.7564   -2.9680    1.2504 H   0  0  0  0  0  0  0  0  0  0  0  0
   -3.5950   -1.9310    0.9421 C   0  0  0  0  0  0  0  0  0  0  0  0
   -4.0472   -1.2706    1.6855 H   0  0  0  0  0  0  0  0  0  0  0  0
   -4.0818   -1.7724   -0.0231 H   0  0  0  0  0  0  0  0  0  0  0  0
   -2.1094   -1.6436    0.8244 C   0  0  0  0  0  0  0  0  0  0  0  0
   -1.3349   -2.5780    0.9272 O   0  0  0  0  0  0  0  0  0  0  0  0
   -1.7216   -0.3584    0.4822 N   0  0  0  0  0  0  0  0  0  0  0  0
   -2.5013    0.2498    0.2514 H   0  0  0  0  0  0  0  0  0  0  0  0
   -0.3767    0.2684    0.3944 C   0  0  1  0  0  0  0  0  0  0  0  0
   -0.3976    1.0319    1.1765 H   0  0  0  0  0  0  0  0  0  0  0  0
    0.9018   -0.5497    0.7598 C   0  0  1  0  0  0  0  0  0  0  0  0
    0.9113   -1.4503    0.1363 H   0  0  0  0  0  0  0  0  0  0  0  0
    2.1841    0.2524    0.4490 C   0  0  0  0  0  0  0  0  0  0  0  0
    2.2060    1.1833    1.0237 H   0  0  0  0  0  0  0  0  0  0  0  0
    3.0783   -0.3265    0.6914 H   0  0  0  0  0  0  0  0  0  0  0  0
    2.2474    0.4954   -0.6158 H   0  0  0  0  0  0  0  0  0  0  0  0
    0.9002   -0.9734    2.2569 C   0  0  0  0  0  0  0  0  0  0  0  0
    1.0567   -0.0839    2.8752 H   0  0  0  0  0  0  0  0  0  0  0  0
   -0.0610   -1.3852    2.5600 H   0  0  0  0  0  0  0  0  0  0  0  0
    1.9870   -1.9978    2.5987 C   0  0  0  0  0  0  0  0  0  0  0  0
    2.9878   -1.5704    2.4993 H   0  0  0  0  0  0  0  0  0  0  0  0
    1.8653   -2.3337    3.6328 H   0  0  0  0  0  0  0  0  0  0  0  0
    1.9065   -2.8694    1.9415 H   0  0  0  0  0  0  0  0  0  0  0  0
   -0.2826    1.0814   -0.9165 C   0  0  0  0  0  0  0  0  0  0  0  0
   -0.2471    0.5227   -2.0036 O   0  0  0  0  0  0  0  0  0  0  0  0
   -0.3482    2.4640   -0.8835 N   0  0  0  0  0  0  0  0  0  0  0  0
   -0.3394    2.9166    0.0250 H   0  0  0  0  0  0  0  0  0  0  0  0
   -0.2739    3.2923   -2.0814 C   0  0  0  0  0  0  0  0  0  0  0  0
   -1.0886    3.0447   -2.7700 H   0  0  0  0  0  0  0  0  0  0  0  0
   -0.3567    4.3507   -1.8164 H   0  0  0  0  0  0  0  0  0  0  0  0
    0.6807    3.1377   -2.5954 H   0  0  0  0  0  0  0  0  0  0  0  0
  1  2  1  0  0  0  0
  2  3  1  0  0  0  0
  2  4  1  0  0  0  0
  2  5  1  0  0  0  0
  5  6  2  0  0  0  0
  5  7  1  0  0  0  0
  7  8  1  0  0  0  0
  7  9  1  0  0  0  0
  9 10  1  0  0  0  0
  9 11  1  0  0  0  0
  9 24  1  0  0  0  0
 11 12  1  0  0  0  0
 11 13  1  0  0  0  0
 11 17  1  0  0  0  0
 13 14  1  0  0  0  0
 13 15  1  0  0  0  0
 13 16  1  0  0  0  0
 17 18  1  0  0  0  0
 17 19  1  0  0  0  0
 17 20  1  0  0  0  0
 20 21  1  0  0  0  0
 20 22  1  0  0  0  0
 20 23  1  0  0  0  0
 24 25  2  0  0  0  0
 24 26  1  0  0  0  0
 26 27  1  0  0  0  0
 26 28  1  0  0  0  0
 28 29  1  0  0  0  0
 28 30  1  0  0  0  0
 28 31  1  0  0  0  0
M  END
$$$$

  -OEChem-01062216083D

 31 30  0     1  0  0  0  0  0999 V2000
   -3.7653   -2.9606    1.2296 H   0  0  0  0  0  0  0  0  0  0  0  0
   -3.5977   -1.9254    0.9187 C   0  0  0  0  0  0  0  0  0  0  0  0
   -4.0687   -1.2603    1.6462 H   0  0  0  0  0  0  0  0  0  0  0  0
   -4.0603   -1.7732   -0.0596 H   0  0  0  0  0  0  0  0  0  0  0  0
   -2.1101   -1.6367    0.8369 C   0  0  0  0  0  0  0  0  0  0  0  0
   -1.3366   -2.5696    0.9632 O   0  0  0  0  0  0  0  0  0  0  0  0
   -1.7176   -0.3527    0.4973 N   0  0  0  0  0  0  0  0  0  0  0  0
   -2.4897    0.2408    0.2080 H   0  0  0  0  0  0  0  0  0  0  0  0
   -0.3719    0.2713    0.4037 C   0  0  1  0  0  0  0  0  0  0  0  0
   -0.3951    1.0336    1.1872 H   0  0  0  0  0  0  0  0  0  0  0  0
    0.9057   -0.5489    0.7676 C   0  0  1  0  0  0  0  0  0  0  0  0
    0.9064   -1.4525    0.1487 H   0  0  0  0  0  0  0  0  0  0  0  0
    2.1925    0.2404    0.4435 C   0  0  0  0  0  0  0  0  0  0  0  0
    2.2265    1.1742    1.0129 H   0  0  0  0  0  0  0  0  0  0  0  0
    3.0836   -0.3446    0.6829 H   0  0  0  0  0  0  0  0  0  0  0  0
    2.2495    0.4759   -0.6234 H   0  0  0  0  0  0  0  0  0  0  0  0
    0.9090   -0.9688    2.2660 C   0  0  0  0  0  0  0  0  0  0  0  0
    1.0720   -0.0783    2.8810 H   0  0  0  0  0  0  0  0  0  0  0  0
   -0.0520   -1.3752    2.5762 H   0  0  0  0  0  0  0  0  0  0  0  0
    1.9946   -1.9950    2.6061 C   0  0  0  0  0  0  0  0  0  0  0  0
    2.9958   -1.5687    2.5046 H   0  0  0  0  0  0  0  0  0  0  0  0
    1.8746   -2.3309    3.6406 H   0  0  0  0  0  0  0  0  0  0  0  0
    1.9116   -2.8668    1.9493 H   0  0  0  0  0  0  0  0  0  0  0  0
   -0.2755    1.0911   -0.9037 C   0  0  0  0  0  0  0  0  0  0  0  0
   -0.5606    0.5886   -1.9818 O   0  0  0  0  0  0  0  0  0  0  0  0
   -0.0220    2.4514   -0.8559 N   0  0  0  0  0  0  0  0  0  0  0  0
    0.2365    2.8515    0.0407 H   0  0  0  0  0  0  0  0  0  0  0  0
    0.0500    3.2906   -2.0465 C   0  0  0  0  0  0  0  0  0  0  0  0
   -0.8962    3.2585   -2.5971 H   0  0  0  0  0  0  0  0  0  0  0  0
    0.2496    4.3292   -1.7660 H   0  0  0  0  0  0  0  0  0  0  0  0
    0.8537    2.9490   -2.7072 H   0  0  0  0  0  0  0  0  0  0  0  0
  1  2  1  0  0  0  0
  2  3  1  0  0  0  0
  2  4  1  0  0  0  0
  2  5  1  0  0  0  0
  5  6  2  0  0  0  0
  5  7  1  0  0  0  0
  7  8  1  0  0  0  0
  7  9  1  0  0  0  0
  9 10  1  0  0  0  0
  9 11  1  0  0  0  0
  9 24  1  0  0  0  0
 11 12  1  0  0  0  0
 11 13  1  0  0  0  0
 11 17  1  0  0  0  0
 13 14  1  0  0  0  0
 13 15  1  0  0  0  0
 13 16  1  0  0  0  0
 17 18  1  0  0  0  0
 17 19  1  0  0  0  0
 17 20  1  0  0  0  0
 20 21  1  0  0  0  0
 20 22  1  0  0  0  0
 20 23  1  0  0  0  0
 24 25  2  0  0  0  0
 24 26  1  0  0  0  0
 26 27  1  0  0  0  0
 26 28  1  0  0  0  0
 28 29  1  0  0  0  0
 28 30  1  0  0  0  0
 28 31  1  0  0  0  0
M  END
$$$$

  -OEChem-01062216083D

 31 30  0     1  0  0  0  0  0999 V2000
   -3.7686   -2.9506    1.1994 H   0  0  0  0  0  0  0  0  0  0  0  0
   -3.5908   -1.9156    0.8936 C   0  0  0  0  0  0  0  0  0  0  0  0
   -4.0785   -1.2499    1.6094 H   0  0  0  0  0  0  0  0  0  0  0  0
   -4.0285   -1.7611   -0.0957 H   0  0  0  0  0  0  0  0  0  0  0  0
   -2.1011   -1.6294    0.8484 C   0  0  0  0  0  0  0  0  0  0  0  0
   -1.3324   -2.5641    0.9928 O   0  0  0  0  0  0  0  0  0  0  0  0
   -1.7009   -0.3471    0.5121 N   0  0  0  0  0  0  0  0  0  0  0  0
   -2.4618    0.2304    0.1642 H   0  0  0  0  0  0  0  0  0  0  0  0
   -0.3549    0.2758    0.4103 C   0  0  1  0  0  0  0  0  0  0  0  0
   -0.3742    1.0418    1.1905 H   0  0  0  0  0  0  0  0  0  0  0  0
    0.9175   -0.5546    0.7770 C   0  0  1  0  0  0  0  0  0  0  0  0
    0.9037   -1.4631    0.1652 H   0  0  0  0  0  0  0  0  0  0  0  0
    2.2189    0.2050    0.4456 C   0  0  0  0  0  0  0  0  0  0  0  0
    2.2762    1.1389    1.0131 H   0  0  0  0  0  0  0  0  0  0  0  0
    3.0979   -0.3991    0.6830 H   0  0  0  0  0  0  0  0  0  0  0  0
    2.2760    0.4344   -0.6226 H   0  0  0  0  0  0  0  0  0  0  0  0
    0.9161   -0.9654    2.2781 C   0  0  0  0  0  0  0  0  0  0  0  0
    1.0875   -0.0721    2.8865 H   0  0  0  0  0  0  0  0  0  0  0  0
   -0.0489   -1.3592    2.5918 H   0  0  0  0  0  0  0  0  0  0  0  0
    1.9914   -1.9994    2.6272 C   0  0  0  0  0  0  0  0  0  0  0  0
    2.9967   -1.5827    2.5268 H   0  0  0  0  0  0  0  0  0  0  0  0
    1.8653   -2.3277    3.6632 H   0  0  0  0  0  0  0  0  0  0  0  0
    1.9029   -2.8744    1.9756 H   0  0  0  0  0  0  0  0  0  0  0  0
   -0.2680    1.1020   -0.8965 C   0  0  0  0  0  0  0  0  0  0  0  0
   -0.8455    0.7316   -1.9105 O   0  0  0  0  0  0  0  0  0  0  0  0
    0.2831    2.3724   -0.8859 N   0  0  0  0  0  0  0  0  0  0  0  0
    0.7665    2.6672   -0.0431 H   0  0  0  0  0  0  0  0  0  0  0  0
    0.3386    3.2301   -2.0642 C   0  0  0  0  0  0  0  0  0  0  0  0
   -0.6699    3.4331   -2.4396 H   0  0  0  0  0  0  0  0  0  0  0  0
    0.8118    4.1847   -1.8154 H   0  0  0  0  0  0  0  0  0  0  0  0
    0.9204    2.7512   -2.8587 H   0  0  0  0  0  0  0  0  0  0  0  0
  1  2  1  0  0  0  0
  2  3  1  0  0  0  0
  2  4  1  0  0  0  0
  2  5  1  0  0  0  0
  5  6  2  0  0  0  0
  5  7  1  0  0  0  0
  7  8  1  0  0  0  0
  7  9  1  0  0  0  0
  9 10  1  0  0  0  0
  9 11  1  0  0  0  0
  9 24  1  0  0  0  0
 11 12  1  0  0  0  0
 11 13  1  0  0  0  0
 11 17  1  0  0  0  0
 13 14  1  0  0  0  0
 13 15  1  0  0  0  0
 13 16  1  0  0  0  0
 17 18  1  0  0  0  0
 17 19  1  0  0  0  0
 17 20  1  0  0  0  0
 20 21  1  0  0  0  0
 20 22  1  0  0  0  0
 20 23  1  0  0  0  0
 24 25  2  0  0  0  0
 24 26  1  0  0  0  0
 26 27  1  0  0  0  0
 26 28  1  0  0  0  0
 28 29  1  0  0  0  0
 28 30  1  0  0  0  0
 28 31  1  0  0  0  0
M  END
$$$$

  -OEChem-01062216083D

 31 30  0     1  0  0  0  0  0999 V2000
   -3.7529   -2.9445    1.1797 H   0  0  0  0  0  0  0  0  0  0  0  0
   -3.5707   -1.9083    0.8808 C   0  0  0  0  0  0  0  0  0  0  0  0
   -4.0597   -1.2455    1.5987 H   0  0  0  0  0  0  0  0  0  0  0  0
   -4.0035   -1.7466   -0.1095 H   0  0  0  0  0  0  0  0  0  0  0  0
   -2.0798   -1.6256    0.8446 C   0  0  0  0  0  0  0  0  0  0  0  0
   -1.3149   -2.5645    0.9832 O   0  0  0  0  0  0  0  0  0  0  0  0
   -1.6744   -0.3421    0.5189 N   0  0  0  0  0  0  0  0  0  0  0  0
   -2.4280    0.2297    0.1436 H   0  0  0  0  0  0  0  0  0  0  0  0
   -0.3295    0.2851    0.4152 C   0  0  1  0  0  0  0  0  0  0  0  0
   -0.3428    1.0525    1.1943 H   0  0  0  0  0  0  0  0  0  0  0  0
    0.9331   -0.5634    0.7876 C   0  0  1  0  0  0  0  0  0  0  0  0
    0.9042   -1.4740    0.1797 H   0  0  0  0  0  0  0  0  0  0  0  0
    2.2574    0.1551    0.4601 C   0  0  0  0  0  0  0  0  0  0  0  0
    2.3304    1.1002    1.0066 H   0  0  0  0  0  0  0  0  0  0  0  0
    3.1180   -0.4637    0.7242 H   0  0  0  0  0  0  0  0  0  0  0  0
    2.3353    0.3523   -0.6128 H   0  0  0  0  0  0  0  0  0  0  0  0
    0.9132   -0.9703    2.2908 C   0  0  0  0  0  0  0  0  0  0  0  0
    1.0935   -0.0767    2.8964 H   0  0  0  0  0  0  0  0  0  0  0  0
   -0.0604   -1.3466    2.5995 H   0  0  0  0  0  0  0  0  0  0  0  0
    1.9689   -2.0187    2.6569 C   0  0  0  0  0  0  0  0  0  0  0  0
    2.9811   -1.6142    2.5783 H   0  0  0  0  0  0  0  0  0  0  0  0
    1.8187   -2.3480    3.6894 H   0  0  0  0  0  0  0  0  0  0  0  0
    1.8824   -2.8908    2.0011 H   0  0  0  0  0  0  0  0  0  0  0  0
   -0.2608    1.1227   -0.8897 C   0  0  0  0  0  0  0  0  0  0  0  0
   -1.0574    0.9222   -1.7995 O   0  0  0  0  0  0  0  0  0  0  0  0
    0.5392    2.2500   -0.9725 N   0  0  0  0  0  0  0  0  0  0  0  0
    1.1955    2.4142   -0.2153 H   0  0  0  0  0  0  0  0  0  0  0  0
    0.5866    3.1172   -2.1442 C   0  0  0  0  0  0  0  0  0  0  0  0
   -0.4001    3.5486   -2.3430 H   0  0  0  0  0  0  0  0  0  0  0  0
    1.2937    3.9360   -1.9805 H   0  0  0  0  0  0  0  0  0  0  0  0
    0.9086    2.5525   -3.0254 H   0  0  0  0  0  0  0  0  0  0  0  0
  1  2  1  0  0  0  0
  2  3  1  0  0  0  0
  2  4  1  0  0  0  0
  2  5  1  0  0  0  0
  5  6  2  0  0  0  0
  5  7  1  0  0  0  0
  7  8  1  0  0  0  0
  7  9  1  0  0  0  0
  9 10  1  0  0  0  0
  9 11  1  0  0  0  0
  9 24  1  0  0  0  0
 11 12  1  0  0  0  0
 11 13  1  0  0  0  0
 11 17  1  0  0  0  0
 13 14  1  0  0  0  0
 13 15  1  0  0  0  0
 13 16  1  0  0  0  0
 17 18  1  0  0  0  0
 17 19  1  0  0  0  0
 17 20  1  0  0  0  0
 20 21  1  0  0  0  0
 20 22  1  0  0  0  0
 20 23  1  0  0  0  0
 24 25  2  0  0  0  0
 24 26  1  0  0  0  0
 26 27  1  0  0  0  0
 26 28  1  0  0  0  0
 28 29  1  0  0  0  0
 28 30  1  0  0  0  0
 28 31  1  0  0  0  0
M  END
$$$$

  -OEChem-01062216083D

 31 30  0     1  0  0  0  0  0999 V2000
   -3.7372   -2.9302    1.1567 H   0  0  0  0  0  0  0  0  0  0  0  0
   -3.5465   -1.8936    0.8645 C   0  0  0  0  0  0  0  0  0  0  0  0
   -4.0295   -1.2311    1.5866 H   0  0  0  0  0  0  0  0  0  0  0  0
   -3.9784   -1.7213   -0.1245 H   0  0  0  0  0  0  0  0  0  0  0  0
   -2.0535   -1.6234    0.8294 C   0  0  0  0  0  0  0  0  0  0  0  0
   -1.2958   -2.5710    0.9491 O   0  0  0  0  0  0  0  0  0  0  0  0
   -1.6390   -0.3385    0.5206 N   0  0  0  0  0  0  0  0  0  0  0  0
   -2.3882    0.2422    0.1474 H   0  0  0  0  0  0  0  0  0  0  0  0
   -0.2944    0.2918    0.4228 C   0  0  1  0  0  0  0  0  0  0  0  0
   -0.3020    1.0577    1.2036 H   0  0  0  0  0  0  0  0  0  0  0  0
    0.9557   -0.5781    0.8032 C   0  0  1  0  0  0  0  0  0  0  0  0
    0.9174   -1.4881    0.1955 H   0  0  0  0  0  0  0  0  0  0  0  0
    2.3040    0.1032    0.4985 C   0  0  0  0  0  0  0  0  0  0  0  0
    2.3776    1.0650    1.0151 H   0  0  0  0  0  0  0  0  0  0  0  0
    3.1437   -0.5208    0.8122 H   0  0  0  0  0  0  0  0  0  0  0  0
    2.4235    0.2560   -0.5773 H   0  0  0  0  0  0  0  0  0  0  0  0
    0.9065   -0.9848    2.3070 C   0  0  0  0  0  0  0  0  0  0  0  0
    1.0898   -0.0935    2.9155 H   0  0  0  0  0  0  0  0  0  0  0  0
   -0.0779   -1.3461    2.5990 H   0  0  0  0  0  0  0  0  0  0  0  0
    1.9378   -2.0504    2.6949 C   0  0  0  0  0  0  0  0  0  0  0  0
    2.9571   -1.6584    2.6543 H   0  0  0  0  0  0  0  0  0  0  0  0
    1.7502   -2.3890    3.7184 H   0  0  0  0  0  0  0  0  0  0  0  0
    1.8616   -2.9144    2.0271 H   0  0  0  0  0  0  0  0  0  0  0  0
   -0.2475    1.1429   -0.8797 C   0  0  0  0  0  0  0  0  0  0  0  0
   -1.1960    1.1236   -1.6580 O   0  0  0  0  0  0  0  0  0  0  0  0
    0.7368    2.0889   -1.1106 N   0  0  0  0  0  0  0  0  0  0  0  0
    1.5186    2.1159   -0.4634 H   0  0  0  0  0  0  0  0  0  0  0  0
    0.7694    2.9501   -2.2876 C   0  0  0  0  0  0  0  0  0  0  0  0
   -0.1285    3.5757   -2.3311 H   0  0  0  0  0  0  0  0  0  0  0  0
    1.6446    3.6059   -2.2526 H   0  0  0  0  0  0  0  0  0  0  0  0
    0.8244    2.3483   -3.2010 H   0  0  0  0  0  0  0  0  0  0  0  0
  1  2  1  0  0  0  0
  2  3  1  0  0  0  0
  2  4  1  0  0  0  0
  2  5  1  0  0  0  0
  5  6  2  0  0  0  0
  5  7  1  0  0  0  0
  7  8  1  0  0  0  0
  7  9  1  0  0  0  0
  9 10  1  0  0  0  0
  9 11  1  0  0  0  0
  9 24  1  0  0  0  0
 11 12  1  0  0  0  0
 11 13  1  0  0  0  0
 11 17  1  0  0  0  0
 13 14  1  0  0  0  0
 13 15  1  0  0  0  0
 13 16  1  0  0  0  0
 17 18  1  0  0  0  0
 17 19  1  0  0  0  0
 17 20  1  0  0  0  0
 20 21  1  0  0  0  0
 20 22  1  0  0  0  0
 20 23  1  0  0  0  0
 24 25  2  0  0  0  0
 24 26  1  0  0  0  0
 26 27  1  0  0  0  0
 26 28  1  0  0  0  0
 28 29  1  0  0  0  0
 28 30  1  0  0  0  0
 28 31  1  0  0  0  0
M  END
$$$$

  -OEChem-01062216083D

 31 30  0     1  0  0  0  0  0999 V2000
   -3.7489   -2.8871    1.2672 H   0  0  0  0  0  0  0  0  0  0  0  0
   -3.5378   -1.8337    1.0622 C   0  0  0  0  0  0  0  0  0  0  0  0
   -3.8269   -1.2420    1.9338 H   0  0  0  0  0  0  0  0  0  0  0  0
   -4.1317   -1.5167    0.2013 H   0  0  0  0  0  0  0  0  0  0  0  0
   -2.0608   -1.6405    0.7716 C   0  0  0  0  0  0  0  0  0  0  0  0
   -1.3628   -2.6328    0.6504 O   0  0  0  0  0  0  0  0  0  0  0  0
   -1.6243   -0.3677    0.4507 N   0  0  0  0  0  0  0  0  0  0  0  0
   -2.3875    0.2840    0.2682 H   0  0  0  0  0  0  0  0  0  0  0  0
   -0.2835    0.2659    0.3175 C   0  0  1  0  0  0  0  0  0  0  0  0
   -0.1823    0.8561    1.2328 H   0  0  0  0  0  0  0  0  0  0  0  0
    0.9901   -0.6569    0.3918 C   0  0  1  0  0  0  0  0  0  0  0  0
    0.8503   -1.4489   -0.3519 H   0  0  0  0  0  0  0  0  0  0  0  0
    2.3120    0.0566    0.0441 C   0  0  0  0  0  0  0  0  0  0  0  0
    2.4433    0.9509    0.6612 H   0  0  0  0  0  0  0  0  0  0  0  0
    3.1740   -0.5949    0.1989 H   0  0  0  0  0  0  0  0  0  0  0  0
    2.3313    0.3310   -1.0137 H   0  0  0  0  0  0  0  0  0  0  0  0
    1.1203   -1.3342    1.7926 C   0  0  0  0  0  0  0  0  0  0  0  0
    0.1793   -1.7356    2.1559 H   0  0  0  0  0  0  0  0  0  0  0  0
    1.4039   -0.5639    2.5166 H   0  0  0  0  0  0  0  0  0  0  0  0
    2.1722   -2.4482    1.8569 C   0  0  0  0  0  0  0  0  0  0  0  0
    3.1879   -2.0536    1.7758 H   0  0  0  0  0  0  0  0  0  0  0  0
    2.0946   -2.9722    2.8143 H   0  0  0  0  0  0  0  0  0  0  0  0
    2.0060   -3.1735    1.0541 H   0  0  0  0  0  0  0  0  0  0  0  0
   -0.4007    1.3905   -0.7574 C   0  0  0  0  0  0  0  0  0  0  0  0
   -1.5105    1.6880   -1.1914 O   0  0  0  0  0  0  0  0  0  0  0  0
    0.6524    2.1993   -1.1464 N   0  0  0  0  0  0  0  0  0  0  0  0
    1.5708    1.9810   -0.7736 H   0  0  0  0  0  0  0  0  0  0  0  0
    0.5275    3.2870   -2.1105 C   0  0  0  0  0  0  0  0  0  0  0  0
   -0.1699    4.0473   -1.7432 H   0  0  0  0  0  0  0  0  0  0  0  0
    1.5001    3.7609   -2.2738 H   0  0  0  0  0  0  0  0  0  0  0  0
    0.1625    2.9078   -3.0709 H   0  0  0  0  0  0  0  0  0  0  0  0
  1  2  1  0  0  0  0
  2  3  1  0  0  0  0
  2  4  1  0  0  0  0
  2  5  1  0  0  0  0
  5  6  2  0  0  0  0
  5  7  1  0  0  0  0
  7  8  1  0  0  0  0
  7  9  1  0  0  0  0
  9 10  1  0  0  0  0
  9 11  1  0  0  0  0
  9 24  1  0  0  0  0
 11 12  1  0  0  0  0
 11 13  1  0  0  0  0
 11 17  1  0  0  0  0
 13 14  1  0  0  0  0
 13 15  1  0  0  0  0
 13 16  1  0  0  0  0
 17 18  1  0  0  0  0
 17 19  1  0  0  0  0
 17 20  1  0  0  0  0
 20 21  1  0  0  0  0
 20 22  1  0  0  0  0
 20 23  1  0  0  0  0
 24 25  2  0  0  0  0
 24 26  1  0  0  0  0
 26 27  1  0  0  0  0
 26 28  1  0  0  0  0
 28 29  1  0  0  0  0
 28 30  1  0  0  0  0
 28 31  1  0  0  0  0
M  END
$$$$

  -OEChem-01062216083D

 31 30  0     1  0  0  0  0  0999 V2000
   -3.7157   -2.8899    1.2853 H   0  0  0  0  0  0  0  0  0  0  0  0
   -3.5106   -1.8407    1.0550 C   0  0  0  0  0  0  0  0  0  0  0  0
   -3.7923   -1.2307    1.9165 H   0  0  0  0  0  0  0  0  0  0  0  0
   -4.1142   -1.5444    0.1936 H   0  0  0  0  0  0  0  0  0  0  0  0
   -2.0377   -1.6498    0.7443 C   0  0  0  0  0  0  0  0  0  0  0  0
   -1.3427   -2.6416    0.6015 O   0  0  0  0  0  0  0  0  0  0  0  0
   -1.6000   -0.3766    0.4286 N   0  0  0  0  0  0  0  0  0  0  0  0
   -2.3596    0.2912    0.2940 H   0  0  0  0  0  0  0  0  0  0  0  0
   -0.2563    0.2511    0.3055 C   0  0  1  0  0  0  0  0  0  0  0  0
   -0.1580    0.8463    1.2182 H   0  0  0  0  0  0  0  0  0  0  0  0
    1.0133   -0.6767    0.3974 C   0  0  1  0  0  0  0  0  0  0  0  0
    0.8900   -1.4717   -0.3457 H   0  0  0  0  0  0  0  0  0  0  0  0
    2.3397    0.0452    0.0821 C   0  0  0  0  0  0  0  0  0  0  0  0
    2.4000    0.9970    0.6191 H   0  0  0  0  0  0  0  0  0  0  0  0
    3.2080   -0.5542    0.3591 H   0  0  0  0  0  0  0  0  0  0  0  0
    2.4299    0.2193   -0.9926 H   0  0  0  0  0  0  0  0  0  0  0  0
    1.1183   -1.3451    1.8059 C   0  0  0  0  0  0  0  0  0  0  0  0
    0.1687   -1.7414    2.1535 H   0  0  0  0  0  0  0  0  0  0  0  0
    1.3919   -0.5720    2.5310 H   0  0  0  0  0  0  0  0  0  0  0  0
    2.1621   -2.4659    1.8968 C   0  0  0  0  0  0  0  0  0  0  0  0
    3.1826   -2.0795    1.8449 H   0  0  0  0  0  0  0  0  0  0  0  0
    2.0548   -2.9909    2.8508 H   0  0  0  0  0  0  0  0  0  0  0  0
    2.0132   -3.1888    1.0886 H   0  0  0  0  0  0  0  0  0  0  0  0
   -0.3838    1.3744   -0.7709 C   0  0  0  0  0  0  0  0  0  0  0  0
   -1.5016    1.8209   -1.0174 O   0  0  0  0  0  0  0  0  0  0  0  0
    0.6793    2.0003   -1.3966 N   0  0  0  0  0  0  0  0  0  0  0  0
    1.6117    1.6648   -1.1823 H   0  0  0  0  0  0  0  0  0  0  0  0
    0.5298    3.0776   -2.3689 C   0  0  0  0  0  0  0  0  0  0  0  0
    0.0316    3.9395   -1.9126 H   0  0  0  0  0  0  0  0  0  0  0  0
    1.5110    3.3984   -2.7321 H   0  0  0  0  0  0  0  0  0  0  0  0
   -0.0624    2.7404   -3.2262 H   0  0  0  0  0  0  0  0  0  0  0  0
  1  2  1  0  0  0  0
  2  3  1  0  0  0  0
  2  4  1  0  0  0  0
  2  5  1  0  0  0  0
  5  6  2  0  0  0  0
  5  7  1  0  0  0  0
  7  8  1  0  0  0  0
  7  9  1  0  0  0  0
  9 10  1  0  0  0  0
  9 11  1  0  0  0  0
  9 24  1  0  0  0  0
 11 12  1  0  0  0  0
 11 13  1  0  0  0  0
 11 17  1  0  0  0  0
 13 14  1  0  0  0  0
 13 15  1  0  0  0  0
 13 16  1  0  0  0  0
 17 18  1  0  0  0  0
 17 19  1  0  0  0  0
 17 20  1  0  0  0  0
 20 21  1  0  0  0  0
 20 22  1  0  0  0  0
 20 23  1  0  0  0  0
 24 25  2  0  0  0  0
 24 26  1  0  0  0  0
 26 27  1  0  0  0  0
 26 28  1  0  0  0  0
 28 29  1  0  0  0  0
 28 30  1  0  0  0  0
 28 31  1  0  0  0  0
M  END
$$$$

  -OEChem-01062216083D

 31 30  0     1  0  0  0  0  0999 V2000
   -3.7284   -2.8706    1.2363 H   0  0  0  0  0  0  0  0  0  0  0  0
   -3.5065   -1.8124    1.0714 C   0  0  0  0  0  0  0  0  0  0  0  0
   -3.7375   -1.2585    1.9843 H   0  0  0  0  0  0  0  0  0  0  0  0
   -4.1373   -1.4427    0.2591 H   0  0  0  0  0  0  0  0  0  0  0  0
   -2.0426   -1.6327    0.7144 C   0  0  0  0  0  0  0  0  0  0  0  0
   -1.3604   -2.6274    0.5344 O   0  0  0  0  0  0  0  0  0  0  0  0
   -1.5936   -0.3624    0.4054 N   0  0  0  0  0  0  0  0  0  0  0  0
   -2.3399    0.3302    0.3400 H   0  0  0  0  0  0  0  0  0  0  0  0
   -0.2386    0.2406    0.2999 C   0  0  1  0  0  0  0  0  0  0  0  0
   -0.1400    0.8327    1.2149 H   0  0  0  0  0  0  0  0  0  0  0  0
    1.0254   -0.6926    0.3948 C   0  0  1  0  0  0  0  0  0  0  0  0
    0.9273   -1.4772   -0.3630 H   0  0  0  0  0  0  0  0  0  0  0  0
    2.3493    0.0634    0.1368 C   0  0  0  0  0  0  0  0  0  0  0  0
    2.3239    1.0564    0.5969 H   0  0  0  0  0  0  0  0  0  0  0  0
    3.2145   -0.4652    0.5380 H   0  0  0  0  0  0  0  0  0  0  0  0
    2.5310    0.1614   -0.9353 H   0  0  0  0  0  0  0  0  0  0  0  0
    1.1087   -1.3711    1.7995 C   0  0  0  0  0  0  0  0  0  0  0  0
    0.1523   -1.7691    2.1263 H   0  0  0  0  0  0  0  0  0  0  0  0
    1.3728   -0.6049    2.5355 H   0  0  0  0  0  0  0  0  0  0  0  0
    2.1453   -2.4990    1.8957 C   0  0  0  0  0  0  0  0  0  0  0  0
    3.1699   -2.1234    1.8531 H   0  0  0  0  0  0  0  0  0  0  0  0
    2.0254   -3.0259    2.8472 H   0  0  0  0  0  0  0  0  0  0  0  0
    1.9972   -3.2185    1.0844 H   0  0  0  0  0  0  0  0  0  0  0  0
   -0.3567    1.3609   -0.7765 C   0  0  0  0  0  0  0  0  0  0  0  0
   -1.4156    1.9797   -0.8439 O   0  0  0  0  0  0  0  0  0  0  0  0
    0.6627    1.7760   -1.6135 N   0  0  0  0  0  0  0  0  0  0  0  0
    1.5090    1.2187   -1.6222 H   0  0  0  0  0  0  0  0  0  0  0  0
    0.5064    2.8199   -2.6204 C   0  0  0  0  0  0  0  0  0  0  0  0
    0.1842    3.7576   -2.1553 H   0  0  0  0  0  0  0  0  0  0  0  0
    1.4581    2.9989   -3.1296 H   0  0  0  0  0  0  0  0  0  0  0  0
   -0.2370    2.5233   -3.3678 H   0  0  0  0  0  0  0  0  0  0  0  0
  1  2  1  0  0  0  0
  2  3  1  0  0  0  0
  2  4  1  0  0  0  0
  2  5  1  0  0  0  0
  5  6  2  0  0  0  0
  5  7  1  0  0  0  0
  7  8  1  0  0  0  0
  7  9  1  0  0  0  0
  9 10  1  0  0  0  0
  9 11  1  0  0  0  0
  9 24  1  0  0  0  0
 11 12  1  0  0  0  0
 11 13  1  0  0  0  0
 11 17  1  0  0  0  0
 13 14  1  0  0  0  0
 13 15  1  0  0  0  0
 13 16  1  0  0  0  0
 17 18  1  0  0  0  0
 17 19  1  0  0  0  0
 17 20  1  0  0  0  0
 20 21  1  0  0  0  0
 20 22  1  0  0  0  0
 20 23  1  0  0  0  0
 24 25  2  0  0  0  0
 24 26  1  0  0  0  0
 26 27  1  0  0  0  0
 26 28  1  0  0  0  0
 28 29  1  0  0  0  0
 28 30  1  0  0  0  0
 28 31  1  0  0  0  0
M  END
$$$$

  -OEChem-01062216083D

 31 30  0     1  0  0  0  0  0999 V2000
   -3.7164   -2.8671    1.2872 H   0  0  0  0  0  0  0  0  0  0  0  0
   -3.5011   -1.8108    1.1030 C   0  0  0  0  0  0  0  0  0  0  0  0
   -3.7124   -1.2455    2.0138 H   0  0  0  0  0  0  0  0  0  0  0  0
   -4.1515   -1.4533    0.3009 H   0  0  0  0  0  0  0  0  0  0  0  0
   -2.0464   -1.6325    0.7095 C   0  0  0  0  0  0  0  0  0  0  0  0
   -1.3652   -2.6253    0.5156 O   0  0  0  0  0  0  0  0  0  0  0  0
   -1.6038   -0.3648    0.3837 N   0  0  0  0  0  0  0  0  0  0  0  0
   -2.3468    0.3332    0.3604 H   0  0  0  0  0  0  0  0  0  0  0  0
   -0.2469    0.2318    0.2912 C   0  0  1  0  0  0  0  0  0  0  0  0
   -0.1589    0.8345    1.2006 H   0  0  0  0  0  0  0  0  0  0  0  0
    1.0267   -0.6837    0.3954 C   0  0  1  0  0  0  0  0  0  0  0  0
    0.9570   -1.4632   -0.3707 H   0  0  0  0  0  0  0  0  0  0  0  0
    2.3330    0.1178    0.1742 C   0  0  0  0  0  0  0  0  0  0  0  0
    2.2760    1.0913    0.6718 H   0  0  0  0  0  0  0  0  0  0  0  0
    3.2087   -0.4031    0.5627 H   0  0  0  0  0  0  0  0  0  0  0  0
    2.5251    0.2694   -0.8890 H   0  0  0  0  0  0  0  0  0  0  0  0
    1.1114   -1.3646    1.7980 C   0  0  0  0  0  0  0  0  0  0  0  0
    0.1592   -1.7831    2.1116 H   0  0  0  0  0  0  0  0  0  0  0  0
    1.3555   -0.5990    2.5416 H   0  0  0  0  0  0  0  0  0  0  0  0
    2.1647   -2.4770    1.8933 C   0  0  0  0  0  0  0  0  0  0  0  0
    3.1834   -2.0866    1.8418 H   0  0  0  0  0  0  0  0  0  0  0  0
    2.0589   -3.0007    2.8481 H   0  0  0  0  0  0  0  0  0  0  0  0
    2.0218   -3.2027    1.0866 H   0  0  0  0  0  0  0  0  0  0  0  0
   -0.3547    1.3269   -0.8048 C   0  0  0  0  0  0  0  0  0  0  0  0
   -1.3163    2.0882   -0.7583 O   0  0  0  0  0  0  0  0  0  0  0  0
    0.5666    1.5169   -1.8175 N   0  0  0  0  0  0  0  0  0  0  0  0
    1.2788    0.8018   -1.9263 H   0  0  0  0  0  0  0  0  0  0  0  0
    0.4118    2.5142   -2.8701 C   0  0  0  0  0  0  0  0  0  0  0  0
    0.3092    3.5154   -2.4383 H   0  0  0  0  0  0  0  0  0  0  0  0
    1.2885    2.5113   -3.5248 H   0  0  0  0  0  0  0  0  0  0  0  0
   -0.4749    2.2984   -3.4753 H   0  0  0  0  0  0  0  0  0  0  0  0
  1  2  1  0  0  0  0
  2  3  1  0  0  0  0
  2  4  1  0  0  0  0
  2  5  1  0  0  0  0
  5  6  2  0  0  0  0
  5  7  1  0  0  0  0
  7  8  1  0  0  0  0
  7  9  1  0  0  0  0
  9 10  1  0  0  0  0
  9 11  1  0  0  0  0
  9 24  1  0  0  0  0
 11 12  1  0  0  0  0
 11 13  1  0  0  0  0
 11 17  1  0  0  0  0
 13 14  1  0  0  0  0
 13 15  1  0  0  0  0
 13 16  1  0  0  0  0
 17 18  1  0  0  0  0
 17 19  1  0  0  0  0
 17 20  1  0  0  0  0
 20 21  1  0  0  0  0
 20 22  1  0  0  0  0
 20 23  1  0  0  0  0
 24 25  2  0  0  0  0
 24 26  1  0  0  0  0
 26 27  1  0  0  0  0
 26 28  1  0  0  0  0
 28 29  1  0  0  0  0
 28 30  1  0  0  0  0
 28 31  1  0  0  0  0
M  END
$$$$

  -OEChem-01062216083D

 31 30  0     1  0  0  0  0  0999 V2000
   -3.7151   -2.8690    1.2811 H   0  0  0  0  0  0  0  0  0  0  0  0
   -3.5008   -1.8091    1.1174 C   0  0  0  0  0  0  0  0  0  0  0  0
   -3.6885   -1.2654    2.0463 H   0  0  0  0  0  0  0  0  0  0  0  0
   -4.1687   -1.4311    0.3396 H   0  0  0  0  0  0  0  0  0  0  0  0
   -2.0554   -1.6259    0.6939 C   0  0  0  0  0  0  0  0  0  0  0  0
   -1.3763   -2.6152    0.4764 O   0  0  0  0  0  0  0  0  0  0  0  0
   -1.6197   -0.3586    0.3592 N   0  0  0  0  0  0  0  0  0  0  0  0
   -2.3599    0.3418    0.3738 H   0  0  0  0  0  0  0  0  0  0  0  0
   -0.2612    0.2349    0.2869 C   0  0  1  0  0  0  0  0  0  0  0  0
   -0.1839    0.8403    1.1958 H   0  0  0  0  0  0  0  0  0  0  0  0
    1.0173   -0.6695    0.3935 C   0  0  1  0  0  0  0  0  0  0  0  0
    0.9651   -1.4355   -0.3873 H   0  0  0  0  0  0  0  0  0  0  0  0
    2.3162    0.1528    0.2071 C   0  0  0  0  0  0  0  0  0  0  0  0
    2.3157    1.0241    0.8700 H   0  0  0  0  0  0  0  0  0  0  0  0
    3.2033   -0.4434    0.4279 H   0  0  0  0  0  0  0  0  0  0  0  0
    2.4373    0.4959   -0.8202 H   0  0  0  0  0  0  0  0  0  0  0  0
    1.0999   -1.3669    1.7871 C   0  0  0  0  0  0  0  0  0  0  0  0
    0.1512   -1.8029    2.0865 H   0  0  0  0  0  0  0  0  0  0  0  0
    1.3282   -0.6100    2.5446 H   0  0  0  0  0  0  0  0  0  0  0  0
    2.1651   -2.4672    1.8694 C   0  0  0  0  0  0  0  0  0  0  0  0
    3.1772   -2.0568    1.8417 H   0  0  0  0  0  0  0  0  0  0  0  0
    2.0541   -3.0157    2.8096 H   0  0  0  0  0  0  0  0  0  0  0  0
    2.0452   -3.1747    1.0430 H   0  0  0  0  0  0  0  0  0  0  0  0
   -0.3508    1.3117   -0.8223 C   0  0  0  0  0  0  0  0  0  0  0  0
   -1.1880    2.1990   -0.6979 O   0  0  0  0  0  0  0  0  0  0  0  0
    0.4188    1.2909   -1.9701 N   0  0  0  0  0  0  0  0  0  0  0  0
    1.0098    0.4763   -2.1099 H   0  0  0  0  0  0  0  0  0  0  0  0
    0.2634    2.2442   -3.0619 C   0  0  0  0  0  0  0  0  0  0  0  0
    0.4032    3.2682   -2.6995 H   0  0  0  0  0  0  0  0  0  0  0  0
    1.0073    2.0506   -3.8407 H   0  0  0  0  0  0  0  0  0  0  0  0
   -0.7342    2.1601   -3.5056 H   0  0  0  0  0  0  0  0  0  0  0  0
  1  2  1  0  0  0  0
  2  3  1  0  0  0  0
  2  4  1  0  0  0  0
  2  5  1  0  0  0  0
  5  6  2  0  0  0  0
  5  7  1  0  0  0  0
  7  8  1  0  0  0  0
  7  9  1  0  0  0  0
  9 10  1  0  0  0  0
  9 11  1  0  0  0  0
  9 24  1  0  0  0  0
 11 12  1  0  0  0  0
 11 13  1  0  0  0  0
 11 17  1  0  0  0  0
 13 14  1  0  0  0  0
 13 15  1  0  0  0  0
 13 16  1  0  0  0  0
 17 18  1  0  0  0  0
 17 19  1  0  0  0  0
 17 20  1  0  0  0  0
 20 21  1  0  0  0  0
 20 22  1  0  0  0  0
 20 23  1  0  0  0  0
 24 25  2  0  0  0  0
 24 26  1  0  0  0  0
 26 27  1  0  0  0  0
 26 28  1  0  0  0  0
 28 29  1  0  0  0  0
 28 30  1  0  0  0  0
 28 31  1  0  0  0  0
M  END
$$$$

  -OEChem-01062216083D

 31 30  0     1  0  0  0  0  0999 V2000
   -3.6980   -2.8810    1.3352 H   0  0  0  0  0  0  0  0  0  0  0  0
   -3.5008   -1.8204    1.1555 C   0  0  0  0  0  0  0  0  0  0  0  0
   -3.6670   -1.2704    2.0848 H   0  0  0  0  0  0  0  0  0  0  0  0
   -4.1961   -1.4574    0.3947 H   0  0  0  0  0  0  0  0  0  0  0  0
   -2.0705   -1.6255    0.6879 C   0  0  0  0  0  0  0  0  0  0  0  0
   -1.3915   -2.6081    0.4422 O   0  0  0  0  0  0  0  0  0  0  0  0
   -1.6507   -0.3567    0.3397 N   0  0  0  0  0  0  0  0  0  0  0  0
   -2.3931    0.3386    0.3929 H   0  0  0  0  0  0  0  0  0  0  0  0
   -0.2946    0.2434    0.2876 C   0  0  1  0  0  0  0  0  0  0  0  0
   -0.2314    0.8498    1.1971 H   0  0  0  0  0  0  0  0  0  0  0  0
    0.9924   -0.6441    0.3915 C   0  0  1  0  0  0  0  0  0  0  0  0
    0.9521   -1.3962   -0.4035 H   0  0  0  0  0  0  0  0  0  0  0  0
    2.2754    0.2037    0.2155 C   0  0  0  0  0  0  0  0  0  0  0  0
    2.3262    0.9834    0.9822 H   0  0  0  0  0  0  0  0  0  0  0  0
    3.1708   -0.4167    0.2937 H   0  0  0  0  0  0  0  0  0  0  0  0
    2.3205    0.6826   -0.7634 H   0  0  0  0  0  0  0  0  0  0  0  0
    1.0885   -1.3661    1.7696 C   0  0  0  0  0  0  0  0  0  0  0  0
    0.1491   -1.8283    2.0594 H   0  0  0  0  0  0  0  0  0  0  0  0
    1.3036   -0.6222    2.5435 H   0  0  0  0  0  0  0  0  0  0  0  0
    2.1752   -2.4460    1.8195 C   0  0  0  0  0  0  0  0  0  0  0  0
    3.1770   -2.0123    1.7729 H   0  0  0  0  0  0  0  0  0  0  0  0
    2.0960   -3.0054    2.7565 H   0  0  0  0  0  0  0  0  0  0  0  0
    2.0529   -3.1478    0.9886 H   0  0  0  0  0  0  0  0  0  0  0  0
   -0.3530    1.3021   -0.8351 C   0  0  0  0  0  0  0  0  0  0  0  0
   -1.0207    2.3134   -0.6559 O   0  0  0  0  0  0  0  0  0  0  0  0
    0.2258    1.0891   -2.0725 N   0  0  0  0  0  0  0  0  0  0  0  0
    0.6552    0.1809   -2.2272 H   0  0  0  0  0  0  0  0  0  0  0  0
    0.0803    2.0038   -3.1979 C   0  0  0  0  0  0  0  0  0  0  0  0
    0.4652    2.9955   -2.9381 H   0  0  0  0  0  0  0  0  0  0  0  0
    0.6409    1.6324   -4.0613 H   0  0  0  0  0  0  0  0  0  0  0  0
   -0.9729    2.0977   -3.4826 H   0  0  0  0  0  0  0  0  0  0  0  0
  1  2  1  0  0  0  0
  2  3  1  0  0  0  0
  2  4  1  0  0  0  0
  2  5  1  0  0  0  0
  5  6  2  0  0  0  0
  5  7  1  0  0  0  0
  7  8  1  0  0  0  0
  7  9  1  0  0  0  0
  9 10  1  0  0  0  0
  9 11  1  0  0  0  0
  9 24  1  0  0  0  0
 11 12  1  0  0  0  0
 11 13  1  0  0  0  0
 11 17  1  0  0  0  0
 13 14  1  0  0  0  0
 13 15  1  0  0  0  0
 13 16  1  0  0  0  0
 17 18  1  0  0  0  0
 17 19  1  0  0  0  0
 17 20  1  0  0  0  0
 20 21  1  0  0  0  0
 20 22  1  0  0  0  0
 20 23  1  0  0  0  0
 24 25  2  0  0  0  0
 24 26  1  0  0  0  0
 26 27  1  0  0  0  0
 26 28  1  0  0  0  0
 28 29  1  0  0  0  0
 28 30  1  0  0  0  0
 28 31  1  0  0  0  0
M  END
$$$$

  -OEChem-01062216083D

 31 30  0     1  0  0  0  0  0999 V2000
   -3.6796   -2.8965    1.4071 H   0  0  0  0  0  0  0  0  0  0  0  0
   -3.4999   -1.8377    1.2000 C   0  0  0  0  0  0  0  0  0  0  0  0
   -3.6597   -1.2689    2.1190 H   0  0  0  0  0  0  0  0  0  0  0  0
   -4.2119   -1.5015    0.4423 H   0  0  0  0  0  0  0  0  0  0  0  0
   -2.0799   -1.6343    0.7057 C   0  0  0  0  0  0  0  0  0  0  0  0
   -1.3976   -2.6119    0.4506 O   0  0  0  0  0  0  0  0  0  0  0  0
   -1.6779   -0.3657    0.3369 N   0  0  0  0  0  0  0  0  0  0  0  0
   -2.4257    0.3210    0.4097 H   0  0  0  0  0  0  0  0  0  0  0  0
   -0.3269    0.2464    0.2848 C   0  0  1  0  0  0  0  0  0  0  0  0
   -0.2718    0.8569    1.1924 H   0  0  0  0  0  0  0  0  0  0  0  0
    0.9684   -0.6257    0.3879 C   0  0  1  0  0  0  0  0  0  0  0  0
    0.9273   -1.3811   -0.4040 H   0  0  0  0  0  0  0  0  0  0  0  0
    2.2323    0.2393    0.1764 C   0  0  0  0  0  0  0  0  0  0  0  0
    2.2932    1.0205    0.9408 H   0  0  0  0  0  0  0  0  0  0  0  0
    3.1391   -0.3676    0.2284 H   0  0  0  0  0  0  0  0  0  0  0  0
    2.2338    0.7170   -0.8061 H   0  0  0  0  0  0  0  0  0  0  0  0
    1.0868   -1.3511    1.7609 C   0  0  0  0  0  0  0  0  0  0  0  0
    0.1568   -1.8276    2.0584 H   0  0  0  0  0  0  0  0  0  0  0  0
    1.3007   -0.6062    2.5343 H   0  0  0  0  0  0  0  0  0  0  0  0
    2.1907   -2.4140    1.7930 C   0  0  0  0  0  0  0  0  0  0  0  0
    3.1841   -1.9649    1.7168 H   0  0  0  0  0  0  0  0  0  0  0  0
    2.1440   -2.9663    2.7364 H   0  0  0  0  0  0  0  0  0  0  0  0
    2.0580   -3.1245    0.9710 H   0  0  0  0  0  0  0  0  0  0  0  0
   -0.3572    1.2896   -0.8491 C   0  0  0  0  0  0  0  0  0  0  0  0
   -0.7980    2.4093   -0.6247 O   0  0  0  0  0  0  0  0  0  0  0  0
   -0.0252    0.9352   -2.1434 N   0  0  0  0  0  0  0  0  0  0  0  0
    0.2082   -0.0410   -2.3062 H   0  0  0  0  0  0  0  0  0  0  0  0
   -0.1678    1.8317   -3.2833 C   0  0  0  0  0  0  0  0  0  0  0  0
    0.4224    2.7414   -3.1311 H   0  0  0  0  0  0  0  0  0  0  0  0
    0.1841    1.3418   -4.1962 H   0  0  0  0  0  0  0  0  0  0  0  0
   -1.2175    2.1112   -3.4216 H   0  0  0  0  0  0  0  0  0  0  0  0
  1  2  1  0  0  0  0
  2  3  1  0  0  0  0
  2  4  1  0  0  0  0
  2  5  1  0  0  0  0
  5  6  2  0  0  0  0
  5  7  1  0  0  0  0
  7  8  1  0  0  0  0
  7  9  1  0  0  0  0
  9 10  1  0  0  0  0
  9 11  1  0  0  0  0
  9 24  1  0  0  0  0
 11 12  1  0  0  0  0
 11 13  1  0  0  0  0
 11 17  1  0  0  0  0
 13 14  1  0  0  0  0
 13 15  1  0  0  0  0
 13 16  1  0  0  0  0
 17 18  1  0  0  0  0
 17 19  1  0  0  0  0
 17 20  1  0  0  0  0
 20 21  1  0  0  0  0
 20 22  1  0  0  0  0
 20 23  1  0  0  0  0
 24 25  2  0  0  0  0
 24 26  1  0  0  0  0
 26 27  1  0  0  0  0
 26 28  1  0  0  0  0
 28 29  1  0  0  0  0
 28 30  1  0  0  0  0
 28 31  1  0  0  0  0
M  END
$$$$

  -OEChem-01062216083D

 31 30  0     1  0  0  0  0  0999 V2000
   -3.6447   -2.9358    1.4664 H   0  0  0  0  0  0  0  0  0  0  0  0
   -3.4854   -1.8733    1.2605 C   0  0  0  0  0  0  0  0  0  0  0  0
   -3.6108   -1.3135    2.1905 H   0  0  0  0  0  0  0  0  0  0  0  0
   -4.2330   -1.5392    0.5369 H   0  0  0  0  0  0  0  0  0  0  0  0
   -2.0897   -1.6516    0.7079 C   0  0  0  0  0  0  0  0  0  0  0  0
   -1.4099   -2.6194    0.4121 O   0  0  0  0  0  0  0  0  0  0  0  0
   -1.7122   -0.3779    0.3308 N   0  0  0  0  0  0  0  0  0  0  0  0
   -2.4654    0.2973    0.4394 H   0  0  0  0  0  0  0  0  0  0  0  0
   -0.3670    0.2501    0.2819 C   0  0  1  0  0  0  0  0  0  0  0  0
   -0.3190    0.8569    1.1924 H   0  0  0  0  0  0  0  0  0  0  0  0
    0.9340   -0.6125    0.3753 C   0  0  1  0  0  0  0  0  0  0  0  0
    0.8897   -1.3638   -0.4202 H   0  0  0  0  0  0  0  0  0  0  0  0
    2.1885    0.2593    0.1432 C   0  0  0  0  0  0  0  0  0  0  0  0
    2.2533    1.0464    0.9012 H   0  0  0  0  0  0  0  0  0  0  0  0
    3.1003   -0.3405    0.1870 H   0  0  0  0  0  0  0  0  0  0  0  0
    2.1700    0.7284   -0.8444 H   0  0  0  0  0  0  0  0  0  0  0  0
    1.0665   -1.3508    1.7391 C   0  0  0  0  0  0  0  0  0  0  0  0
    0.1431   -1.8405    2.0360 H   0  0  0  0  0  0  0  0  0  0  0  0
    1.2781   -0.6117    2.5185 H   0  0  0  0  0  0  0  0  0  0  0  0
    2.1805   -2.4028    1.7519 C   0  0  0  0  0  0  0  0  0  0  0  0
    3.1689   -1.9423    1.6782 H   0  0  0  0  0  0  0  0  0  0  0  0
    2.1428   -2.9694    2.6872 H   0  0  0  0  0  0  0  0  0  0  0  0
    2.0518   -3.1023    0.9201 H   0  0  0  0  0  0  0  0  0  0  0  0
   -0.3789    1.2905   -0.8530 C   0  0  0  0  0  0  0  0  0  0  0  0
   -0.5322    2.4772   -0.5975 O   0  0  0  0  0  0  0  0  0  0  0  0
   -0.3283    0.8722   -2.1686 N   0  0  0  0  0  0  0  0  0  0  0  0
   -0.2904   -0.1313   -2.3305 H   0  0  0  0  0  0  0  0  0  0  0  0
   -0.4146    1.7773   -3.3066 C   0  0  0  0  0  0  0  0  0  0  0  0
    0.3846    2.5247   -3.2624 H   0  0  0  0  0  0  0  0  0  0  0  0
   -0.3130    1.2186   -4.2420 H   0  0  0  0  0  0  0  0  0  0  0  0
   -1.3803    2.2933   -3.3134 H   0  0  0  0  0  0  0  0  0  0  0  0
  1  2  1  0  0  0  0
  2  3  1  0  0  0  0
  2  4  1  0  0  0  0
  2  5  1  0  0  0  0
  5  6  2  0  0  0  0
  5  7  1  0  0  0  0
  7  8  1  0  0  0  0
  7  9  1  0  0  0  0
  9 10  1  0  0  0  0
  9 11  1  0  0  0  0
  9 24  1  0  0  0  0
 11 12  1  0  0  0  0
 11 13  1  0  0  0  0
 11 17  1  0  0  0  0
 13 14  1  0  0  0  0
 13 15  1  0  0  0  0
 13 16  1  0  0  0  0
 17 18  1  0  0  0  0
 17 19  1  0  0  0  0
 17 20  1  0  0  0  0
 20 21  1  0  0  0  0
 20 22  1  0  0  0  0
 20 23  1  0  0  0  0
 24 25  2  0  0  0  0
 24 26  1  0  0  0  0
 26 27  1  0  0  0  0
 26 28  1  0  0  0  0
 28 29  1  0  0  0  0
 28 30  1  0  0  0  0
 28 31  1  0  0  0  0
M  END
$$$$

  -OEChem-01062216083D

 31 30  0     1  0  0  0  0  0999 V2000
   -3.6322   -2.9340    1.5256 H   0  0  0  0  0  0  0  0  0  0  0  0
   -3.4784   -1.8724    1.3119 C   0  0  0  0  0  0  0  0  0  0  0  0
   -3.5859   -1.3093    2.2421 H   0  0  0  0  0  0  0  0  0  0  0  0
   -4.2410   -1.5419    0.6025 H   0  0  0  0  0  0  0  0  0  0  0  0
   -2.0947   -1.6516    0.7297 C   0  0  0  0  0  0  0  0  0  0  0  0
   -1.4220   -2.6192    0.4184 O   0  0  0  0  0  0  0  0  0  0  0  0
   -1.7265   -0.3796    0.3379 N   0  0  0  0  0  0  0  0  0  0  0  0
   -2.4802    0.2921    0.4610 H   0  0  0  0  0  0  0  0  0  0  0  0
   -0.3831    0.2548    0.2781 C   0  0  1  0  0  0  0  0  0  0  0  0
   -0.3310    0.8675    1.1845 H   0  0  0  0  0  0  0  0  0  0  0  0
    0.9182   -0.6081    0.3657 C   0  0  1  0  0  0  0  0  0  0  0  0
    0.8649   -1.3625   -0.4265 H   0  0  0  0  0  0  0  0  0  0  0  0
    2.1718    0.2589    0.1131 C   0  0  0  0  0  0  0  0  0  0  0  0
    2.2441    1.0557    0.8603 H   0  0  0  0  0  0  0  0  0  0  0  0
    3.0838   -0.3407    0.1559 H   0  0  0  0  0  0  0  0  0  0  0  0
    2.1437    0.7153   -0.8806 H   0  0  0  0  0  0  0  0  0  0  0  0
    1.0619   -1.3438    1.7300 C   0  0  0  0  0  0  0  0  0  0  0  0
    0.1415   -1.8338    2.0351 H   0  0  0  0  0  0  0  0  0  0  0  0
    1.2792   -0.6028    2.5061 H   0  0  0  0  0  0  0  0  0  0  0  0
    2.1762   -2.3958    1.7370 C   0  0  0  0  0  0  0  0  0  0  0  0
    3.1639   -1.9353    1.6532 H   0  0  0  0  0  0  0  0  0  0  0  0
    2.1471   -2.9591    2.6746 H   0  0  0  0  0  0  0  0  0  0  0  0
    2.0405   -3.0984    0.9090 H   0  0  0  0  0  0  0  0  0  0  0  0
   -0.3941    1.2861   -0.8661 C   0  0  0  0  0  0  0  0  0  0  0  0
   -0.2659    2.4791   -0.6270 O   0  0  0  0  0  0  0  0  0  0  0  0
   -0.6530    0.8691   -2.1573 N   0  0  0  0  0  0  0  0  0  0  0  0
   -0.7903   -0.1290   -2.2981 H   0  0  0  0  0  0  0  0  0  0  0  0
   -0.7314    1.7719   -3.2980 C   0  0  0  0  0  0  0  0  0  0  0  0
    0.2040    2.3304   -3.4096 H   0  0  0  0  0  0  0  0  0  0  0  0
   -0.9066    1.2051   -4.2175 H   0  0  0  0  0  0  0  0  0  0  0  0
   -1.5535    2.4833   -3.1675 H   0  0  0  0  0  0  0  0  0  0  0  0
  1  2  1  0  0  0  0
  2  3  1  0  0  0  0
  2  4  1  0  0  0  0
  2  5  1  0  0  0  0
  5  6  2  0  0  0  0
  5  7  1  0  0  0  0
  7  8  1  0  0  0  0
  7  9  1  0  0  0  0
  9 10  1  0  0  0  0
  9 11  1  0  0  0  0
  9 24  1  0  0  0  0
 11 12  1  0  0  0  0
 11 13  1  0  0  0  0
 11 17  1  0  0  0  0
 13 14  1  0  0  0  0
 13 15  1  0  0  0  0
 13 16  1  0  0  0  0
 17 18  1  0  0  0  0
 17 19  1  0  0  0  0
 17 20  1  0  0  0  0
 20 21  1  0  0  0  0
 20 22  1  0  0  0  0
 20 23  1  0  0  0  0
 24 25  2  0  0  0  0
 24 26  1  0  0  0  0
 26 27  1  0  0  0  0
 26 28  1  0  0  0  0
 28 29  1  0  0  0  0
 28 30  1  0  0  0  0
 28 31  1  0  0  0  0
M  END
$$$$

  -OEChem-01062216083D

 31 30  0     1  0  0  0  0  0999 V2000
   -3.6220   -2.9485    1.5408 H   0  0  0  0  0  0  0  0  0  0  0  0
   -3.4681   -1.8849    1.3376 C   0  0  0  0  0  0  0  0  0  0  0  0
   -3.5614   -1.3325    2.2757 H   0  0  0  0  0  0  0  0  0  0  0  0
   -4.2396   -1.5446    0.6428 H   0  0  0  0  0  0  0  0  0  0  0  0
   -2.0917   -1.6604    0.7396 C   0  0  0  0  0  0  0  0  0  0  0  0
   -1.4214   -2.6262    0.4187 O   0  0  0  0  0  0  0  0  0  0  0  0
   -1.7327   -0.3868    0.3439 N   0  0  0  0  0  0  0  0  0  0  0  0
   -2.4888    0.2799    0.4776 H   0  0  0  0  0  0  0  0  0  0  0  0
   -0.3929    0.2584    0.2753 C   0  0  1  0  0  0  0  0  0  0  0  0
   -0.3385    0.8737    1.1797 H   0  0  0  0  0  0  0  0  0  0  0  0
    0.9092   -0.6062    0.3579 C   0  0  1  0  0  0  0  0  0  0  0  0
    0.8480   -1.3628   -0.4316 H   0  0  0  0  0  0  0  0  0  0  0  0
    2.1667    0.2505    0.0920 C   0  0  0  0  0  0  0  0  0  0  0  0
    2.2472    1.0545    0.8306 H   0  0  0  0  0  0  0  0  0  0  0  0
    3.0757   -0.3535    0.1362 H   0  0  0  0  0  0  0  0  0  0  0  0
    2.1355    0.6962   -0.9065 H   0  0  0  0  0  0  0  0  0  0  0  0
    1.0588   -1.3397    1.7232 C   0  0  0  0  0  0  0  0  0  0  0  0
    0.1393   -1.8275    2.0344 H   0  0  0  0  0  0  0  0  0  0  0  0
    1.2809   -0.5975    2.4967 H   0  0  0  0  0  0  0  0  0  0  0  0
    2.1718   -2.3932    1.7280 C   0  0  0  0  0  0  0  0  0  0  0  0
    3.1599   -1.9332    1.6476 H   0  0  0  0  0  0  0  0  0  0  0  0
    2.1403   -2.9600    2.6635 H   0  0  0  0  0  0  0  0  0  0  0  0
    2.0371   -3.0926    0.8970 H   0  0  0  0  0  0  0  0  0  0  0  0
   -0.4113    1.2906   -0.8708 C   0  0  0  0  0  0  0  0  0  0  0  0
   -0.0504    2.4433   -0.6753 O   0  0  0  0  0  0  0  0  0  0  0  0
   -0.9655    0.9495   -2.0897 N   0  0  0  0  0  0  0  0  0  0  0  0
   -1.2407   -0.0227   -2.2086 H   0  0  0  0  0  0  0  0  0  0  0  0
   -1.0550    1.8631   -3.2211 C   0  0  0  0  0  0  0  0  0  0  0  0
   -0.0597    2.2223   -3.5033 H   0  0  0  0  0  0  0  0  0  0  0  0
   -1.4966    1.3544   -4.0834 H   0  0  0  0  0  0  0  0  0  0  0  0
   -1.6823    2.7244   -2.9686 H   0  0  0  0  0  0  0  0  0  0  0  0
  1  2  1  0  0  0  0
  2  3  1  0  0  0  0
  2  4  1  0  0  0  0
  2  5  1  0  0  0  0
  5  6  2  0  0  0  0
  5  7  1  0  0  0  0
  7  8  1  0  0  0  0
  7  9  1  0  0  0  0
  9 10  1  0  0  0  0
  9 11  1  0  0  0  0
  9 24  1  0  0  0  0
 11 12  1  0  0  0  0
 11 13  1  0  0  0  0
 11 17  1  0  0  0  0
 13 14  1  0  0  0  0
 13 15  1  0  0  0  0
 13 16  1  0  0  0  0
 17 18  1  0  0  0  0
 17 19  1  0  0  0  0
 17 20  1  0  0  0  0
 20 21  1  0  0  0  0
 20 22  1  0  0  0  0
 20 23  1  0  0  0  0
 24 25  2  0  0  0  0
 24 26  1  0  0  0  0
 26 27  1  0  0  0  0
 26 28  1  0  0  0  0
 28 29  1  0  0  0  0
 28 30  1  0  0  0  0
 28 31  1  0  0  0  0
M  END
$$$$

  -OEChem-01062216083D

 31 30  0     1  0  0  0  0  0999 V2000
   -3.6002   -2.9623    1.5606 H   0  0  0  0  0  0  0  0  0  0  0  0
   -3.4569   -1.8994    1.3447 C   0  0  0  0  0  0  0  0  0  0  0  0
   -3.5511   -1.3375    2.2771 H   0  0  0  0  0  0  0  0  0  0  0  0
   -4.2347   -1.5737    0.6496 H   0  0  0  0  0  0  0  0  0  0  0  0
   -2.0853   -1.6695    0.7373 C   0  0  0  0  0  0  0  0  0  0  0  0
   -1.4166   -2.6333    0.4077 O   0  0  0  0  0  0  0  0  0  0  0  0
   -1.7333   -0.3929    0.3434 N   0  0  0  0  0  0  0  0  0  0  0  0
   -2.4905    0.2693    0.4918 H   0  0  0  0  0  0  0  0  0  0  0  0
   -0.3961    0.2623    0.2669 C   0  0  1  0  0  0  0  0  0  0  0  0
   -0.3390    0.8785    1.1704 H   0  0  0  0  0  0  0  0  0  0  0  0
    0.9030   -0.6107    0.3511 C   0  0  1  0  0  0  0  0  0  0  0  0
    0.8317   -1.3726   -0.4323 H   0  0  0  0  0  0  0  0  0  0  0  0
    2.1713    0.2251    0.0736 C   0  0  0  0  0  0  0  0  0  0  0  0
    2.2599    1.0416    0.7973 H   0  0  0  0  0  0  0  0  0  0  0  0
    3.0733   -0.3879    0.1303 H   0  0  0  0  0  0  0  0  0  0  0  0
    2.1471    0.6509   -0.9335 H   0  0  0  0  0  0  0  0  0  0  0  0
    1.0495   -1.3373    1.7215 C   0  0  0  0  0  0  0  0  0  0  0  0
    0.1273   -1.8163    2.0381 H   0  0  0  0  0  0  0  0  0  0  0  0
    1.2785   -0.5908    2.4889 H   0  0  0  0  0  0  0  0  0  0  0  0
    2.1552   -2.3987    1.7341 C   0  0  0  0  0  0  0  0  0  0  0  0
    3.1471   -1.9465    1.6572 H   0  0  0  0  0  0  0  0  0  0  0  0
    2.1156   -2.9624    2.6710 H   0  0  0  0  0  0  0  0  0  0  0  0
    2.0188   -3.0991    0.9042 H   0  0  0  0  0  0  0  0  0  0  0  0
   -0.4197    1.3027   -0.8767 C   0  0  0  0  0  0  0  0  0  0  0  0
    0.1271    2.3893   -0.7418 O   0  0  0  0  0  0  0  0  0  0  0  0
   -1.2325    1.0979   -1.9765 N   0  0  0  0  0  0  0  0  0  0  0  0
   -1.6290    0.1664   -2.0753 H   0  0  0  0  0  0  0  0  0  0  0  0
   -1.3441    2.0406   -3.0825 C   0  0  0  0  0  0  0  0  0  0  0  0
   -0.3643    2.2125   -3.5403 H   0  0  0  0  0  0  0  0  0  0  0  0
   -2.0198    1.6470   -3.8478 H   0  0  0  0  0  0  0  0  0  0  0  0
   -1.7418    2.9984   -2.7309 H   0  0  0  0  0  0  0  0  0  0  0  0
  1  2  1  0  0  0  0
  2  3  1  0  0  0  0
  2  4  1  0  0  0  0
  2  5  1  0  0  0  0
  5  6  2  0  0  0  0
  5  7  1  0  0  0  0
  7  8  1  0  0  0  0
  7  9  1  0  0  0  0
  9 10  1  0  0  0  0
  9 11  1  0  0  0  0
  9 24  1  0  0  0  0
 11 12  1  0  0  0  0
 11 13  1  0  0  0  0
 11 17  1  0  0  0  0
 13 14  1  0  0  0  0
 13 15  1  0  0  0  0
 13 16  1  0  0  0  0
 17 18  1  0  0  0  0
 17 19  1  0  0  0  0
 17 20  1  0  0  0  0
 20 21  1  0  0  0  0
 20 22  1  0  0  0  0
 20 23  1  0  0  0  0
 24 25  2  0  0  0  0
 24 26  1  0  0  0  0
 26 27  1  0  0  0  0
 26 28  1  0  0  0  0
 28 29  1  0  0  0  0
 28 30  1  0  0  0  0
 28 31  1  0  0  0  0
M  END
$$$$

  -OEChem-01062216083D

 31 30  0     1  0  0  0  0  0999 V2000
   -3.5517   -2.9892    1.5903 H   0  0  0  0  0  0  0  0  0  0  0  0
   -3.4306   -1.9284    1.3521 C   0  0  0  0  0  0  0  0  0  0  0  0
   -3.5297   -1.3500    2.2738 H   0  0  0  0  0  0  0  0  0  0  0  0
   -4.2187   -1.6325    0.6556 H   0  0  0  0  0  0  0  0  0  0  0  0
   -2.0677   -1.6853    0.7307 C   0  0  0  0  0  0  0  0  0  0  0  0
   -1.3936   -2.6438    0.3970 O   0  0  0  0  0  0  0  0  0  0  0  0
   -1.7304   -0.4040    0.3369 N   0  0  0  0  0  0  0  0  0  0  0  0
   -2.4896    0.2505    0.5071 H   0  0  0  0  0  0  0  0  0  0  0  0
   -0.3995    0.2669    0.2496 C   0  0  1  0  0  0  0  0  0  0  0  0
   -0.3428    0.8867    1.1500 H   0  0  0  0  0  0  0  0  0  0  0  0
    0.9003   -0.6099    0.3421 C   0  0  1  0  0  0  0  0  0  0  0  0
    0.8224   -1.3824   -0.4302 H   0  0  0  0  0  0  0  0  0  0  0  0
    2.1796    0.2022    0.0484 C   0  0  0  0  0  0  0  0  0  0  0  0
    2.2730    1.0400    0.7467 H   0  0  0  0  0  0  0  0  0  0  0  0
    3.0749   -0.4175    0.1287 H   0  0  0  0  0  0  0  0  0  0  0  0
    2.1649    0.5943   -0.9724 H   0  0  0  0  0  0  0  0  0  0  0  0
    1.0421   -1.3195    1.7231 C   0  0  0  0  0  0  0  0  0  0  0  0
    0.1179   -1.7891    2.0472 H   0  0  0  0  0  0  0  0  0  0  0  0
    1.2734   -0.5627    2.4795 H   0  0  0  0  0  0  0  0  0  0  0  0
    2.1430   -2.3858    1.7555 C   0  0  0  0  0  0  0  0  0  0  0  0
    3.1377   -1.9397    1.6801 H   0  0  0  0  0  0  0  0  0  0  0  0
    2.0946   -2.9380    2.6989 H   0  0  0  0  0  0  0  0  0  0  0  0
    2.0086   -3.0960    0.9336 H   0  0  0  0  0  0  0  0  0  0  0  0
   -0.4363    1.3146   -0.8928 C   0  0  0  0  0  0  0  0  0  0  0  0
    0.2566    2.3221   -0.8405 O   0  0  0  0  0  0  0  0  0  0  0  0
   -1.4561    1.2810   -1.8280 N   0  0  0  0  0  0  0  0  0  0  0  0
   -1.9590    0.4005   -1.9022 H   0  0  0  0  0  0  0  0  0  0  0  0
   -1.5959    2.2636   -2.8964 C   0  0  0  0  0  0  0  0  0  0  0  0
   -0.6982    2.2783   -3.5234 H   0  0  0  0  0  0  0  0  0  0  0  0
   -2.4555    2.0167   -3.5267 H   0  0  0  0  0  0  0  0  0  0  0  0
   -1.7507    3.2643   -2.4794 H   0  0  0  0  0  0  0  0  0  0  0  0
  1  2  1  0  0  0  0
  2  3  1  0  0  0  0
  2  4  1  0  0  0  0
  2  5  1  0  0  0  0
  5  6  2  0  0  0  0
  5  7  1  0  0  0  0
  7  8  1  0  0  0  0
  7  9  1  0  0  0  0
  9 10  1  0  0  0  0
  9 11  1  0  0  0  0
  9 24  1  0  0  0  0
 11 12  1  0  0  0  0
 11 13  1  0  0  0  0
 11 17  1  0  0  0  0
 13 14  1  0  0  0  0
 13 15  1  0  0  0  0
 13 16  1  0  0  0  0
 17 18  1  0  0  0  0
 17 19  1  0  0  0  0
 17 20  1  0  0  0  0
 20 21  1  0  0  0  0
 20 22  1  0  0  0  0
 20 23  1  0  0  0  0
 24 25  2  0  0  0  0
 24 26  1  0  0  0  0
 26 27  1  0  0  0  0
 26 28  1  0  0  0  0
 28 29  1  0  0  0  0
 28 30  1  0  0  0  0
 28 31  1  0  0  0  0
M  END
$$$$

  -OEChem-01062216083D

 31 30  0     1  0  0  0  0  0999 V2000
   -3.5406   -2.9965    1.5606 H   0  0  0  0  0  0  0  0  0  0  0  0
   -3.4090   -1.9307    1.3522 C   0  0  0  0  0  0  0  0  0  0  0  0
   -3.4833   -1.3789    2.2924 H   0  0  0  0  0  0  0  0  0  0  0  0
   -4.2056   -1.6033    0.6798 H   0  0  0  0  0  0  0  0  0  0  0  0
   -2.0541   -1.6873    0.7135 C   0  0  0  0  0  0  0  0  0  0  0  0
   -1.3823   -2.6454    0.3744 O   0  0  0  0  0  0  0  0  0  0  0  0
   -1.7219   -0.4033    0.3227 N   0  0  0  0  0  0  0  0  0  0  0  0
   -2.4747    0.2487    0.5262 H   0  0  0  0  0  0  0  0  0  0  0  0
   -0.3922    0.2714    0.2248 C   0  0  1  0  0  0  0  0  0  0  0  0
   -0.3315    0.8954    1.1220 H   0  0  0  0  0  0  0  0  0  0  0  0
    0.9039   -0.6156    0.3297 C   0  0  1  0  0  0  0  0  0  0  0  0
    0.8192   -1.3996   -0.4301 H   0  0  0  0  0  0  0  0  0  0  0  0
    2.1991    0.1667    0.0277 C   0  0  0  0  0  0  0  0  0  0  0  0
    2.2889    1.0336    0.6898 H   0  0  0  0  0  0  0  0  0  0  0  0
    3.0858   -0.4576    0.1524 H   0  0  0  0  0  0  0  0  0  0  0  0
    2.2091    0.5099   -1.0104 H   0  0  0  0  0  0  0  0  0  0  0  0
    1.0330   -1.3045    1.7233 C   0  0  0  0  0  0  0  0  0  0  0  0
    0.1030   -1.7612    2.0491 H   0  0  0  0  0  0  0  0  0  0  0  0
    1.2667   -0.5378    2.4687 H   0  0  0  0  0  0  0  0  0  0  0  0
    2.1226   -2.3813    1.7827 C   0  0  0  0  0  0  0  0  0  0  0  0
    3.1232   -1.9460    1.7211 H   0  0  0  0  0  0  0  0  0  0  0  0
    2.0531   -2.9242    2.7301 H   0  0  0  0  0  0  0  0  0  0  0  0
    1.9949   -3.0977    0.9651 H   0  0  0  0  0  0  0  0  0  0  0  0
   -0.4462    1.3267   -0.9161 C   0  0  0  0  0  0  0  0  0  0  0  0
    0.3802    2.2259   -0.9905 O   0  0  0  0  0  0  0  0  0  0  0  0
   -1.6146    1.4930   -1.6422 N   0  0  0  0  0  0  0  0  0  0  0  0
   -2.2344    0.6883   -1.6600 H   0  0  0  0  0  0  0  0  0  0  0  0
   -1.7784    2.5174   -2.6681 C   0  0  0  0  0  0  0  0  0  0  0  0
   -1.0219    2.4000   -3.4511 H   0  0  0  0  0  0  0  0  0  0  0  0
   -2.7684    2.4380   -3.1274 H   0  0  0  0  0  0  0  0  0  0  0  0
   -1.6815    3.5171   -2.2316 H   0  0  0  0  0  0  0  0  0  0  0  0
  1  2  1  0  0  0  0
  2  3  1  0  0  0  0
  2  4  1  0  0  0  0
  2  5  1  0  0  0  0
  5  6  2  0  0  0  0
  5  7  1  0  0  0  0
  7  8  1  0  0  0  0
  7  9  1  0  0  0  0
  9 10  1  0  0  0  0
  9 11  1  0  0  0  0
  9 24  1  0  0  0  0
 11 12  1  0  0  0  0
 11 13  1  0  0  0  0
 11 17  1  0  0  0  0
 13 14  1  0  0  0  0
 13 15  1  0  0  0  0
 13 16  1  0  0  0  0
 17 18  1  0  0  0  0
 17 19  1  0  0  0  0
 17 20  1  0  0  0  0
 20 21  1  0  0  0  0
 20 22  1  0  0  0  0
 20 23  1  0  0  0  0
 24 25  2  0  0  0  0
 24 26  1  0  0  0  0
 26 27  1  0  0  0  0
 26 28  1  0  0  0  0
 28 29  1  0  0  0  0
 28 30  1  0  0  0  0
 28 31  1  0  0  0  0
M  END
$$$$

  -OEChem-01062216083D

 31 30  0     1  0  0  0  0  0999 V2000
   -3.4992   -2.9815    1.6026 H   0  0  0  0  0  0  0  0  0  0  0  0
   -3.3900   -1.9231    1.3492 C   0  0  0  0  0  0  0  0  0  0  0  0
   -3.4705   -1.3346    2.2663 H   0  0  0  0  0  0  0  0  0  0  0  0
   -4.1964   -1.6399    0.6684 H   0  0  0  0  0  0  0  0  0  0  0  0
   -2.0442   -1.6803    0.6916 C   0  0  0  0  0  0  0  0  0  0  0  0
   -1.3770   -2.6394    0.3468 O   0  0  0  0  0  0  0  0  0  0  0  0
   -1.7134   -0.3933    0.3072 N   0  0  0  0  0  0  0  0  0  0  0  0
   -2.4541    0.2573    0.5521 H   0  0  0  0  0  0  0  0  0  0  0  0
   -0.3807    0.2757    0.1958 C   0  0  1  0  0  0  0  0  0  0  0  0
   -0.3092    0.9013    1.0907 H   0  0  0  0  0  0  0  0  0  0  0  0
    0.9084   -0.6269    0.3094 C   0  0  1  0  0  0  0  0  0  0  0  0
    0.8161   -1.4200   -0.4400 H   0  0  0  0  0  0  0  0  0  0  0  0
    2.2209    0.1269    0.0069 C   0  0  0  0  0  0  0  0  0  0  0  0
    2.2997    1.0275    0.6239 H   0  0  0  0  0  0  0  0  0  0  0  0
    3.0989   -0.4944    0.1901 H   0  0  0  0  0  0  0  0  0  0  0  0
    2.2667    0.4103   -1.0478 H   0  0  0  0  0  0  0  0  0  0  0  0
    1.0235   -1.2955    1.7159 C   0  0  0  0  0  0  0  0  0  0  0  0
    0.0857   -1.7332    2.0458 H   0  0  0  0  0  0  0  0  0  0  0  0
    1.2646   -0.5188    2.4488 H   0  0  0  0  0  0  0  0  0  0  0  0
    2.0965   -2.3878    1.8032 C   0  0  0  0  0  0  0  0  0  0  0  0
    3.1046   -1.9702    1.7491 H   0  0  0  0  0  0  0  0  0  0  0  0
    2.0067   -2.9162    2.7570 H   0  0  0  0  0  0  0  0  0  0  0  0
    1.9678   -3.1133    0.9938 H   0  0  0  0  0  0  0  0  0  0  0  0
   -0.4564    1.3414   -0.9397 C   0  0  0  0  0  0  0  0  0  0  0  0
    0.4779    2.0841   -1.2048 O   0  0  0  0  0  0  0  0  0  0  0  0
   -1.6968    1.7315   -1.4224 N   0  0  0  0  0  0  0  0  0  0  0  0
   -2.4296    1.0341   -1.3450 H   0  0  0  0  0  0  0  0  0  0  0  0
   -1.8708    2.7994   -2.4021 C   0  0  0  0  0  0  0  0  0  0  0  0
   -1.3224    2.5700   -3.3219 H   0  0  0  0  0  0  0  0  0  0  0  0
   -2.9302    2.9165   -2.6495 H   0  0  0  0  0  0  0  0  0  0  0  0
   -1.5054    3.7511   -2.0018 H   0  0  0  0  0  0  0  0  0  0  0  0
  1  2  1  0  0  0  0
  2  3  1  0  0  0  0
  2  4  1  0  0  0  0
  2  5  1  0  0  0  0
  5  6  2  0  0  0  0
  5  7  1  0  0  0  0
  7  8  1  0  0  0  0
  7  9  1  0  0  0  0
  9 10  1  0  0  0  0
  9 11  1  0  0  0  0
  9 24  1  0  0  0  0
 11 12  1  0  0  0  0
 11 13  1  0  0  0  0
 11 17  1  0  0  0  0
 13 14  1  0  0  0  0
 13 15  1  0  0  0  0
 13 16  1  0  0  0  0
 17 18  1  0  0  0  0
 17 19  1  0  0  0  0
 17 20  1  0  0  0  0
 20 21  1  0  0  0  0
 20 22  1  0  0  0  0
 20 23  1  0  0  0  0
 24 25  2  0  0  0  0
 24 26  1  0  0  0  0
 26 27  1  0  0  0  0
 26 28  1  0  0  0  0
 28 29  1  0  0  0  0
 28 30  1  0  0  0  0
 28 31  1  0  0  0  0
M  END
$$$$

  -OEChem-01062216083D

 31 30  0     1  0  0  0  0  0999 V2000
   -3.5120   -2.9928    1.5350 H   0  0  0  0  0  0  0  0  0  0  0  0
   -3.3866   -1.9262    1.3268 C   0  0  0  0  0  0  0  0  0  0  0  0
   -3.4527   -1.3764    2.2686 H   0  0  0  0  0  0  0  0  0  0  0  0
   -4.1920   -1.6016    0.6636 H   0  0  0  0  0  0  0  0  0  0  0  0
   -2.0400   -1.6769    0.6729 C   0  0  0  0  0  0  0  0  0  0  0  0
   -1.3669   -2.6340    0.3346 O   0  0  0  0  0  0  0  0  0  0  0  0
   -1.7095   -0.3839    0.3069 N   0  0  0  0  0  0  0  0  0  0  0  0
   -2.4437    0.2595    0.5806 H   0  0  0  0  0  0  0  0  0  0  0  0
   -0.3725    0.2738    0.1795 C   0  0  1  0  0  0  0  0  0  0  0  0
   -0.2883    0.8916    1.0785 H   0  0  0  0  0  0  0  0  0  0  0  0
    0.9160   -0.6321    0.2916 C   0  0  1  0  0  0  0  0  0  0  0  0
    0.8297   -1.4293   -0.4540 H   0  0  0  0  0  0  0  0  0  0  0  0
    2.2311    0.1277    0.0049 C   0  0  0  0  0  0  0  0  0  0  0  0
    2.2588    1.0727    0.5560 H   0  0  0  0  0  0  0  0  0  0  0  0
    3.1118   -0.4535    0.2799 H   0  0  0  0  0  0  0  0  0  0  0  0
    2.3324    0.3322   -1.0637 H   0  0  0  0  0  0  0  0  0  0  0  0
    1.0266   -1.2832    1.7077 C   0  0  0  0  0  0  0  0  0  0  0  0
    0.0853   -1.7121    2.0393 H   0  0  0  0  0  0  0  0  0  0  0  0
    1.2700   -0.4993    2.4320 H   0  0  0  0  0  0  0  0  0  0  0  0
    2.0920   -2.3817    1.8137 C   0  0  0  0  0  0  0  0  0  0  0  0
    3.1043   -1.9733    1.7719 H   0  0  0  0  0  0  0  0  0  0  0  0
    1.9858   -2.9059    2.7680 H   0  0  0  0  0  0  0  0  0  0  0  0
    1.9682   -3.1097    1.0059 H   0  0  0  0  0  0  0  0  0  0  0  0
   -0.4736    1.3623   -0.9361 C   0  0  0  0  0  0  0  0  0  0  0  0
    0.4893    1.8285   -1.5254 O   0  0  0  0  0  0  0  0  0  0  0  0
   -1.6867    1.9974   -1.1605 N   0  0  0  0  0  0  0  0  0  0  0  0
   -2.5130    1.5142   -0.8316 H   0  0  0  0  0  0  0  0  0  0  0  0
   -1.8635    3.0463   -2.1602 C   0  0  0  0  0  0  0  0  0  0  0  0
   -1.6189    2.6697   -3.1591 H   0  0  0  0  0  0  0  0  0  0  0  0
   -2.9010    3.3934   -2.1644 H   0  0  0  0  0  0  0  0  0  0  0  0
   -1.2165    3.9015   -1.9378 H   0  0  0  0  0  0  0  0  0  0  0  0
  1  2  1  0  0  0  0
  2  3  1  0  0  0  0
  2  4  1  0  0  0  0
  2  5  1  0  0  0  0
  5  6  2  0  0  0  0
  5  7  1  0  0  0  0
  7  8  1  0  0  0  0
  7  9  1  0  0  0  0
  9 10  1  0  0  0  0
  9 11  1  0  0  0  0
  9 24  1  0  0  0  0
 11 12  1  0  0  0  0
 11 13  1  0  0  0  0
 11 17  1  0  0  0  0
 13 14  1  0  0  0  0
 13 15  1  0  0  0  0
 13 16  1  0  0  0  0
 17 18  1  0  0  0  0
 17 19  1  0  0  0  0
 17 20  1  0  0  0  0
 20 21  1  0  0  0  0
 20 22  1  0  0  0  0
 20 23  1  0  0  0  0
 24 25  2  0  0  0  0
 24 26  1  0  0  0  0
 26 27  1  0  0  0  0
 26 28  1  0  0  0  0
 28 29  1  0  0  0  0
 28 30  1  0  0  0  0
 28 31  1  0  0  0  0
M  END
$$$$

  -OEChem-01062216083D

 31 30  0     1  0  0  0  0  0999 V2000
   -3.7043   -2.9441    1.3525 H   0  0  0  0  0  0  0  0  0  0  0  0
   -3.5277   -1.8835    1.1511 C   0  0  0  0  0  0  0  0  0  0  0  0
   -3.7529   -1.3133    2.0555 H   0  0  0  0  0  0  0  0  0  0  0  0
   -4.1963   -1.5639    0.3480 H   0  0  0  0  0  0  0  0  0  0  0  0
   -2.0824   -1.6626    0.7438 C   0  0  0  0  0  0  0  0  0  0  0  0
   -1.3720   -2.6391    0.5882 O   0  0  0  0  0  0  0  0  0  0  0  0
   -1.6956   -0.3852    0.3760 N   0  0  0  0  0  0  0  0  0  0  0  0
   -2.4772    0.2592    0.3280 H   0  0  0  0  0  0  0  0  0  0  0  0
   -0.3509    0.2403    0.2146 C   0  0  1  0  0  0  0  0  0  0  0  0
   -0.2449    0.8548    1.1129 H   0  0  0  0  0  0  0  0  0  0  0  0
    0.9468   -0.6424    0.3050 C   0  0  1  0  0  0  0  0  0  0  0  0
    0.8629   -1.4453   -0.4351 H   0  0  0  0  0  0  0  0  0  0  0  0
    2.2281    0.1695   -0.0011 C   0  0  0  0  0  0  0  0  0  0  0  0
    2.2458    1.0947    0.5825 H   0  0  0  0  0  0  0  0  0  0  0  0
    3.1318   -0.3970    0.2277 H   0  0  0  0  0  0  0  0  0  0  0  0
    2.2943    0.4191   -1.0617 H   0  0  0  0  0  0  0  0  0  0  0  0
    1.1048   -1.2751    1.7239 C   0  0  0  0  0  0  0  0  0  0  0  0
    0.1776   -1.7047    2.0917 H   0  0  0  0  0  0  0  0  0  0  0  0
    1.3621   -0.4807    2.4317 H   0  0  0  0  0  0  0  0  0  0  0  0
    2.1897   -2.3562    1.8071 C   0  0  0  0  0  0  0  0  0  0  0  0
    3.1933   -1.9348    1.7143 H   0  0  0  0  0  0  0  0  0  0  0  0
    2.1306   -2.8633    2.7748 H   0  0  0  0  0  0  0  0  0  0  0  0
    2.0429   -3.1013    1.0190 H   0  0  0  0  0  0  0  0  0  0  0  0
   -0.4696    1.3287   -0.8893 C   0  0  0  0  0  0  0  0  0  0  0  0
    0.2299    1.3531   -1.8906 O   0  0  0  0  0  0  0  0  0  0  0  0
   -1.5523    2.1965   -0.8593 N   0  0  0  0  0  0  0  0  0  0  0  0
   -2.0673    2.2667    0.0109 H   0  0  0  0  0  0  0  0  0  0  0  0
   -1.7984    3.1995   -1.8909 C   0  0  0  0  0  0  0  0  0  0  0  0
   -1.9107    2.7236   -2.8710 H   0  0  0  0  0  0  0  0  0  0  0  0
   -2.7174    3.7511   -1.6707 H   0  0  0  0  0  0  0  0  0  0  0  0
   -0.9685    3.9123   -1.9394 H   0  0  0  0  0  0  0  0  0  0  0  0
  1  2  1  0  0  0  0
  2  3  1  0  0  0  0
  2  4  1  0  0  0  0
  2  5  1  0  0  0  0
  5  6  2  0  0  0  0
  5  7  1  0  0  0  0
  7  8  1  0  0  0  0
  7  9  1  0  0  0  0
  9 10  1  0  0  0  0
  9 11  1  0  0  0  0
  9 24  1  0  0  0  0
 11 12  1  0  0  0  0
 11 13  1  0  0  0  0
 11 17  1  0  0  0  0
 13 14  1  0  0  0  0
 13 15  1  0  0  0  0
 13 16  1  0  0  0  0
 17 18  1  0  0  0  0
 17 19  1  0  0  0  0
 17 20  1  0  0  0  0
 20 21  1  0  0  0  0
 20 22  1  0  0  0  0
 20 23  1  0  0  0  0
 24 25  2  0  0  0  0
 24 26  1  0  0  0  0
 26 27  1  0  0  0  0
 26 28  1  0  0  0  0
 28 29  1  0  0  0  0
 28 30  1  0  0  0  0
 28 31  1  0  0  0  0
M  END
$$$$

  -OEChem-01062216083D

 31 30  0     1  0  0  0  0  0999 V2000
   -3.7436   -2.8894    1.4123 H   0  0  0  0  0  0  0  0  0  0  0  0
   -3.5629   -1.8393    1.1648 C   0  0  0  0  0  0  0  0  0  0  0  0
   -3.8050   -1.2278    2.0370 H   0  0  0  0  0  0  0  0  0  0  0  0
   -4.2153   -1.5574    0.3347 H   0  0  0  0  0  0  0  0  0  0  0  0
   -2.1098   -1.6368    0.7762 C   0  0  0  0  0  0  0  0  0  0  0  0
   -1.4067   -2.6220    0.6454 O   0  0  0  0  0  0  0  0  0  0  0  0
   -1.7061   -0.3684    0.3966 N   0  0  0  0  0  0  0  0  0  0  0  0
   -2.4809    0.2836    0.3243 H   0  0  0  0  0  0  0  0  0  0  0  0
   -0.3568    0.2454    0.2483 C   0  0  1  0  0  0  0  0  0  0  0  0
   -0.2503    0.8578    1.1481 H   0  0  0  0  0  0  0  0  0  0  0  0
    0.9427   -0.6290    0.3217 C   0  0  1  0  0  0  0  0  0  0  0  0
    0.8607   -1.4146   -0.4371 H   0  0  0  0  0  0  0  0  0  0  0  0
    2.2094    0.2090    0.0262 C   0  0  0  0  0  0  0  0  0  0  0  0
    2.2827    1.0523    0.7195 H   0  0  0  0  0  0  0  0  0  0  0  0
    3.1149   -0.3939    0.1177 H   0  0  0  0  0  0  0  0  0  0  0  0
    2.2069    0.5964   -0.9943 H   0  0  0  0  0  0  0  0  0  0  0  0
    1.1189   -1.2918    1.7228 C   0  0  0  0  0  0  0  0  0  0  0  0
    0.2002   -1.7366    2.0927 H   0  0  0  0  0  0  0  0  0  0  0  0
    1.3781   -0.5117    2.4457 H   0  0  0  0  0  0  0  0  0  0  0  0
    2.2148   -2.3629    1.7647 C   0  0  0  0  0  0  0  0  0  0  0  0
    3.2096   -1.9305    1.6339 H   0  0  0  0  0  0  0  0  0  0  0  0
    2.1958   -2.8711    2.7334 H   0  0  0  0  0  0  0  0  0  0  0  0
    2.0459   -3.1086    0.9816 H   0  0  0  0  0  0  0  0  0  0  0  0
   -0.4605    1.3123   -0.8704 C   0  0  0  0  0  0  0  0  0  0  0  0
    0.0353    1.1560   -1.9768 O   0  0  0  0  0  0  0  0  0  0  0  0
   -1.3433    2.3685   -0.7055 N   0  0  0  0  0  0  0  0  0  0  0  0
   -1.7082    2.5328    0.2267 H   0  0  0  0  0  0  0  0  0  0  0  0
   -1.5879    3.3702   -1.7379 C   0  0  0  0  0  0  0  0  0  0  0  0
   -1.9861    2.8981   -2.6424 H   0  0  0  0  0  0  0  0  0  0  0  0
   -2.3154    4.1079   -1.3860 H   0  0  0  0  0  0  0  0  0  0  0  0
   -0.6600    3.8928   -1.9933 H   0  0  0  0  0  0  0  0  0  0  0  0
  1  2  1  0  0  0  0
  2  3  1  0  0  0  0
  2  4  1  0  0  0  0
  2  5  1  0  0  0  0
  5  6  2  0  0  0  0
  5  7  1  0  0  0  0
  7  8  1  0  0  0  0
  7  9  1  0  0  0  0
  9 10  1  0  0  0  0
  9 11  1  0  0  0  0
  9 24  1  0  0  0  0
 11 12  1  0  0  0  0
 11 13  1  0  0  0  0
 11 17  1  0  0  0  0
 13 14  1  0  0  0  0
 13 15  1  0  0  0  0
 13 16  1  0  0  0  0
 17 18  1  0  0  0  0
 17 19  1  0  0  0  0
 17 20  1  0  0  0  0
 20 21  1  0  0  0  0
 20 22  1  0  0  0  0
 20 23  1  0  0  0  0
 24 25  2  0  0  0  0
 24 26  1  0  0  0  0
 26 27  1  0  0  0  0
 26 28  1  0  0  0  0
 28 29  1  0  0  0  0
 28 30  1  0  0  0  0
 28 31  1  0  0  0  0
M  END
$$$$

  -OEChem-01062216083D

 31 30  0     1  0  0  0  0  0999 V2000
   -3.7835   -2.8943    1.3779 H   0  0  0  0  0  0  0  0  0  0  0  0
   -3.5911   -1.8398    1.1593 C   0  0  0  0  0  0  0  0  0  0  0  0
   -3.8381   -1.2479    2.0437 H   0  0  0  0  0  0  0  0  0  0  0  0
   -4.2324   -1.5319    0.3297 H   0  0  0  0  0  0  0  0  0  0  0  0
   -2.1322   -1.6389    0.7913 C   0  0  0  0  0  0  0  0  0  0  0  0
   -1.4276   -2.6246    0.6749 O   0  0  0  0  0  0  0  0  0  0  0  0
   -1.7245   -0.3713    0.4142 N   0  0  0  0  0  0  0  0  0  0  0  0
   -2.4984    0.2816    0.3369 H   0  0  0  0  0  0  0  0  0  0  0  0
   -0.3765    0.2451    0.2776 C   0  0  1  0  0  0  0  0  0  0  0  0
   -0.2756    0.8471    1.1848 H   0  0  0  0  0  0  0  0  0  0  0  0
    0.9283   -0.6184    0.3367 C   0  0  1  0  0  0  0  0  0  0  0  0
    0.8436   -1.3939   -0.4325 H   0  0  0  0  0  0  0  0  0  0  0  0
    2.1811    0.2343    0.0295 C   0  0  0  0  0  0  0  0  0  0  0  0
    2.2803    1.0484    0.7539 H   0  0  0  0  0  0  0  0  0  0  0  0
    3.0885   -0.3723    0.0628 H   0  0  0  0  0  0  0  0  0  0  0  0
    2.1360    0.6639   -0.9739 H   0  0  0  0  0  0  0  0  0  0  0  0
    1.1230   -1.3071    1.7212 C   0  0  0  0  0  0  0  0  0  0  0  0
    0.2132   -1.7701    2.0900 H   0  0  0  0  0  0  0  0  0  0  0  0
    1.3805   -0.5397    2.4581 H   0  0  0  0  0  0  0  0  0  0  0  0
    2.2325   -2.3647    1.7263 C   0  0  0  0  0  0  0  0  0  0  0  0
    3.2192   -1.9145    1.5919 H   0  0  0  0  0  0  0  0  0  0  0  0
    2.2327   -2.8946    2.6835 H   0  0  0  0  0  0  0  0  0  0  0  0
    2.0641   -3.0953    0.9288 H   0  0  0  0  0  0  0  0  0  0  0  0
   -0.4615    1.3109   -0.8399 C   0  0  0  0  0  0  0  0  0  0  0  0
   -0.1411    1.0638   -1.9939 O   0  0  0  0  0  0  0  0  0  0  0  0
   -1.0884    2.5181   -0.5783 N   0  0  0  0  0  0  0  0  0  0  0  0
   -1.3131    2.7332    0.3878 H   0  0  0  0  0  0  0  0  0  0  0  0
   -1.2753    3.5527   -1.5896 C   0  0  0  0  0  0  0  0  0  0  0  0
   -1.8541    3.1637   -2.4341 H   0  0  0  0  0  0  0  0  0  0  0  0
   -1.8162    4.4042   -1.1659 H   0  0  0  0  0  0  0  0  0  0  0  0
   -0.3070    3.9058   -1.9597 H   0  0  0  0  0  0  0  0  0  0  0  0
  1  2  1  0  0  0  0
  2  3  1  0  0  0  0
  2  4  1  0  0  0  0
  2  5  1  0  0  0  0
  5  6  2  0  0  0  0
  5  7  1  0  0  0  0
  7  8  1  0  0  0  0
  7  9  1  0  0  0  0
  9 10  1  0  0  0  0
  9 11  1  0  0  0  0
  9 24  1  0  0  0  0
 11 12  1  0  0  0  0
 11 13  1  0  0  0  0
 11 17  1  0  0  0  0
 13 14  1  0  0  0  0
 13 15  1  0  0  0  0
 13 16  1  0  0  0  0
 17 18  1  0  0  0  0
 17 19  1  0  0  0  0
 17 20  1  0  0  0  0
 20 21  1  0  0  0  0
 20 22  1  0  0  0  0
 20 23  1  0  0  0  0
 24 25  2  0  0  0  0
 24 26  1  0  0  0  0
 26 27  1  0  0  0  0
 26 28  1  0  0  0  0
 28 29  1  0  0  0  0
 28 30  1  0  0  0  0
 28 31  1  0  0  0  0
M  END
$$$$

  -OEChem-01062216083D

 31 30  0     1  0  0  0  0  0999 V2000
   -3.7828   -2.9143    1.4003 H   0  0  0  0  0  0  0  0  0  0  0  0
   -3.6001   -1.8623    1.1627 C   0  0  0  0  0  0  0  0  0  0  0  0
   -3.8618   -1.2559    2.0331 H   0  0  0  0  0  0  0  0  0  0  0  0
   -4.2364   -1.5774    0.3211 H   0  0  0  0  0  0  0  0  0  0  0  0
   -2.1406   -1.6522    0.8031 C   0  0  0  0  0  0  0  0  0  0  0  0
   -1.4284   -2.6337    0.6967 O   0  0  0  0  0  0  0  0  0  0  0  0
   -1.7398   -0.3822    0.4275 N   0  0  0  0  0  0  0  0  0  0  0  0
   -2.5180    0.2647    0.3428 H   0  0  0  0  0  0  0  0  0  0  0  0
   -0.3971    0.2440    0.2943 C   0  0  1  0  0  0  0  0  0  0  0  0
   -0.3051    0.8381    1.2075 H   0  0  0  0  0  0  0  0  0  0  0  0
    0.9142   -0.6072    0.3468 C   0  0  1  0  0  0  0  0  0  0  0  0
    0.8298   -1.3811   -0.4242 H   0  0  0  0  0  0  0  0  0  0  0  0
    2.1521    0.2597    0.0223 C   0  0  0  0  0  0  0  0  0  0  0  0
    2.2536    1.0736    0.7468 H   0  0  0  0  0  0  0  0  0  0  0  0
    3.0672   -0.3363    0.0399 H   0  0  0  0  0  0  0  0  0  0  0  0
    2.0818    0.6904   -0.9803 H   0  0  0  0  0  0  0  0  0  0  0  0
    1.1235   -1.3049    1.7240 C   0  0  0  0  0  0  0  0  0  0  0  0
    0.2210   -1.7795    2.0957 H   0  0  0  0  0  0  0  0  0  0  0  0
    1.3784   -0.5401    2.4645 H   0  0  0  0  0  0  0  0  0  0  0  0
    2.2440   -2.3503    1.7134 C   0  0  0  0  0  0  0  0  0  0  0  0
    3.2235   -1.8904    1.5618 H   0  0  0  0  0  0  0  0  0  0  0  0
    2.2651   -2.8782    2.6716 H   0  0  0  0  0  0  0  0  0  0  0  0
    2.0694   -3.0839    0.9202 H   0  0  0  0  0  0  0  0  0  0  0  0
   -0.4676    1.3132   -0.8196 C   0  0  0  0  0  0  0  0  0  0  0  0
   -0.3439    1.0120   -1.9982 O   0  0  0  0  0  0  0  0  0  0  0  0
   -0.8032    2.6184   -0.5017 N   0  0  0  0  0  0  0  0  0  0  0  0
   -0.8739    2.8627    0.4810 H   0  0  0  0  0  0  0  0  0  0  0  0
   -0.9181    3.6767   -1.4989 C   0  0  0  0  0  0  0  0  0  0  0  0
   -1.6781    3.4208   -2.2448 H   0  0  0  0  0  0  0  0  0  0  0  0
   -1.2081    4.6173   -1.0210 H   0  0  0  0  0  0  0  0  0  0  0  0
    0.0389    3.8282   -2.0095 H   0  0  0  0  0  0  0  0  0  0  0  0
  1  2  1  0  0  0  0
  2  3  1  0  0  0  0
  2  4  1  0  0  0  0
  2  5  1  0  0  0  0
  5  6  2  0  0  0  0
  5  7  1  0  0  0  0
  7  8  1  0  0  0  0
  7  9  1  0  0  0  0
  9 10  1  0  0  0  0
  9 11  1  0  0  0  0
  9 24  1  0  0  0  0
 11 12  1  0  0  0  0
 11 13  1  0  0  0  0
 11 17  1  0  0  0  0
 13 14  1  0  0  0  0
 13 15  1  0  0  0  0
 13 16  1  0  0  0  0
 17 18  1  0  0  0  0
 17 19  1  0  0  0  0
 17 20  1  0  0  0  0
 20 21  1  0  0  0  0
 20 22  1  0  0  0  0
 20 23  1  0  0  0  0
 24 25  2  0  0  0  0
 24 26  1  0  0  0  0
 26 27  1  0  0  0  0
 26 28  1  0  0  0  0
 28 29  1  0  0  0  0
 28 30  1  0  0  0  0
 28 31  1  0  0  0  0
M  END
$$$$

  -OEChem-01062216083D

 31 30  0     1  0  0  0  0  0999 V2000
   -3.8025   -2.9289    1.3581 H   0  0  0  0  0  0  0  0  0  0  0  0
   -3.6179   -1.8748    1.1315 C   0  0  0  0  0  0  0  0  0  0  0  0
   -3.9048   -1.2746    1.9981 H   0  0  0  0  0  0  0  0  0  0  0  0
   -4.2331   -1.5871    0.2753 H   0  0  0  0  0  0  0  0  0  0  0  0
   -2.1504   -1.6575    0.8117 C   0  0  0  0  0  0  0  0  0  0  0  0
   -1.4305   -2.6356    0.7293 O   0  0  0  0  0  0  0  0  0  0  0  0
   -1.7479   -0.3860    0.4438 N   0  0  0  0  0  0  0  0  0  0  0  0
   -2.5281    0.2531    0.3220 H   0  0  0  0  0  0  0  0  0  0  0  0
   -0.4073    0.2447    0.3126 C   0  0  1  0  0  0  0  0  0  0  0  0
   -0.3236    0.8295    1.2325 H   0  0  0  0  0  0  0  0  0  0  0  0
    0.9090   -0.5987    0.3587 C   0  0  1  0  0  0  0  0  0  0  0  0
    0.8214   -1.3720   -0.4123 H   0  0  0  0  0  0  0  0  0  0  0  0
    2.1398    0.2710    0.0185 C   0  0  0  0  0  0  0  0  0  0  0  0
    2.2479    1.0865    0.7402 H   0  0  0  0  0  0  0  0  0  0  0  0
    3.0567   -0.3225    0.0258 H   0  0  0  0  0  0  0  0  0  0  0  0
    2.0536    0.6986   -0.9847 H   0  0  0  0  0  0  0  0  0  0  0  0
    1.1298   -1.3036    1.7300 C   0  0  0  0  0  0  0  0  0  0  0  0
    0.2323   -1.7850    2.1047 H   0  0  0  0  0  0  0  0  0  0  0  0
    1.3842   -0.5408    2.4725 H   0  0  0  0  0  0  0  0  0  0  0  0
    2.2579   -2.3409    1.7076 C   0  0  0  0  0  0  0  0  0  0  0  0
    3.2333   -1.8723    1.5564 H   0  0  0  0  0  0  0  0  0  0  0  0
    2.2868   -2.8757    2.6617 H   0  0  0  0  0  0  0  0  0  0  0  0
    2.0866   -3.0698    0.9093 H   0  0  0  0  0  0  0  0  0  0  0  0
   -0.4668    1.3234   -0.7922 C   0  0  0  0  0  0  0  0  0  0  0  0
   -0.6037    1.0122   -1.9666 O   0  0  0  0  0  0  0  0  0  0  0  0
   -0.4880    2.6662   -0.4553 N   0  0  0  0  0  0  0  0  0  0  0  0
   -0.3396    2.9120    0.5185 H   0  0  0  0  0  0  0  0  0  0  0  0
   -0.5563    3.7341   -1.4463 C   0  0  0  0  0  0  0  0  0  0  0  0
   -1.4603    3.6346   -2.0566 H   0  0  0  0  0  0  0  0  0  0  0  0
   -0.5811    4.7098   -0.9515 H   0  0  0  0  0  0  0  0  0  0  0  0
    0.3180    3.7014   -2.1050 H   0  0  0  0  0  0  0  0  0  0  0  0
  1  2  1  0  0  0  0
  2  3  1  0  0  0  0
  2  4  1  0  0  0  0
  2  5  1  0  0  0  0
  5  6  2  0  0  0  0
  5  7  1  0  0  0  0
  7  8  1  0  0  0  0
  7  9  1  0  0  0  0
  9 10  1  0  0  0  0
  9 11  1  0  0  0  0
  9 24  1  0  0  0  0
 11 12  1  0  0  0  0
 11 13  1  0  0  0  0
 11 17  1  0  0  0  0
 13 14  1  0  0  0  0
 13 15  1  0  0  0  0
 13 16  1  0  0  0  0
 17 18  1  0  0  0  0
 17 19  1  0  0  0  0
 17 20  1  0  0  0  0
 20 21  1  0  0  0  0
 20 22  1  0  0  0  0
 20 23  1  0  0  0  0
 24 25  2  0  0  0  0
 24 26  1  0  0  0  0
 26 27  1  0  0  0  0
 26 28  1  0  0  0  0
 28 29  1  0  0  0  0
 28 30  1  0  0  0  0
 28 31  1  0  0  0  0
M  END
$$$$

  -OEChem-01062216083D

 31 30  0     1  0  0  0  0  0999 V2000
   -3.8132   -2.9304    1.3312 H   0  0  0  0  0  0  0  0  0  0  0  0
   -3.6246   -1.8792    1.0950 C   0  0  0  0  0  0  0  0  0  0  0  0
   -3.9413   -1.2672    1.9427 H   0  0  0  0  0  0  0  0  0  0  0  0
   -4.2131   -1.6062    0.2156 H   0  0  0  0  0  0  0  0  0  0  0  0
   -2.1482   -1.6601    0.8188 C   0  0  0  0  0  0  0  0  0  0  0  0
   -1.4238   -2.6372    0.7650 O   0  0  0  0  0  0  0  0  0  0  0  0
   -1.7400   -0.3890    0.4561 N   0  0  0  0  0  0  0  0  0  0  0  0
   -2.5189    0.2388    0.2771 H   0  0  0  0  0  0  0  0  0  0  0  0
   -0.4011    0.2439    0.3207 C   0  0  1  0  0  0  0  0  0  0  0  0
   -0.3225    0.8270    1.2421 H   0  0  0  0  0  0  0  0  0  0  0  0
    0.9166   -0.5972    0.3673 C   0  0  1  0  0  0  0  0  0  0  0  0
    0.8228   -1.3755   -0.3982 H   0  0  0  0  0  0  0  0  0  0  0  0
    2.1488    0.2637    0.0121 C   0  0  0  0  0  0  0  0  0  0  0  0
    2.2698    1.0799    0.7308 H   0  0  0  0  0  0  0  0  0  0  0  0
    3.0622   -0.3355    0.0113 H   0  0  0  0  0  0  0  0  0  0  0  0
    2.0543    0.6885   -0.9917 H   0  0  0  0  0  0  0  0  0  0  0  0
    1.1412   -1.2967    1.7404 C   0  0  0  0  0  0  0  0  0  0  0  0
    0.2456   -1.7780    2.1190 H   0  0  0  0  0  0  0  0  0  0  0  0
    1.3959   -0.5309    2.4798 H   0  0  0  0  0  0  0  0  0  0  0  0
    2.2708   -2.3317    1.7189 C   0  0  0  0  0  0  0  0  0  0  0  0
    3.2450   -1.8606    1.5666 H   0  0  0  0  0  0  0  0  0  0  0  0
    2.3019   -2.8648    2.6739 H   0  0  0  0  0  0  0  0  0  0  0  0
    2.1007   -3.0623    0.9218 H   0  0  0  0  0  0  0  0  0  0  0  0
   -0.4585    1.3309   -0.7773 C   0  0  0  0  0  0  0  0  0  0  0  0
   -0.9061    1.0761   -1.8867 O   0  0  0  0  0  0  0  0  0  0  0  0
   -0.1655    2.6489   -0.4702 N   0  0  0  0  0  0  0  0  0  0  0  0
    0.2199    2.8445    0.4486 H   0  0  0  0  0  0  0  0  0  0  0  0
   -0.2358    3.7298   -1.4467 C   0  0  0  0  0  0  0  0  0  0  0  0
   -1.2451    3.8049   -1.8649 H   0  0  0  0  0  0  0  0  0  0  0  0
    0.0119    4.6844   -0.9729 H   0  0  0  0  0  0  0  0  0  0  0  0
    0.4718    3.5540   -2.2638 H   0  0  0  0  0  0  0  0  0  0  0  0
  1  2  1  0  0  0  0
  2  3  1  0  0  0  0
  2  4  1  0  0  0  0
  2  5  1  0  0  0  0
  5  6  2  0  0  0  0
  5  7  1  0  0  0  0
  7  8  1  0  0  0  0
  7  9  1  0  0  0  0
  9 10  1  0  0  0  0
  9 11  1  0  0  0  0
  9 24  1  0  0  0  0
 11 12  1  0  0  0  0
 11 13  1  0  0  0  0
 11 17  1  0  0  0  0
 13 14  1  0  0  0  0
 13 15  1  0  0  0  0
 13 16  1  0  0  0  0
 17 18  1  0  0  0  0
 17 19  1  0  0  0  0
 17 20  1  0  0  0  0
 20 21  1  0  0  0  0
 20 22  1  0  0  0  0
 20 23  1  0  0  0  0
 24 25  2  0  0  0  0
 24 26  1  0  0  0  0
 26 27  1  0  0  0  0
 26 28  1  0  0  0  0
 28 29  1  0  0  0  0
 28 30  1  0  0  0  0
 28 31  1  0  0  0  0
M  END
$$$$

  -OEChem-01062216083D

 31 30  0     1  0  0  0  0  0999 V2000
   -3.8108   -2.9120    1.3247 H   0  0  0  0  0  0  0  0  0  0  0  0
   -3.6170   -1.8627    1.0848 C   0  0  0  0  0  0  0  0  0  0  0  0
   -3.9473   -1.2446    1.9228 H   0  0  0  0  0  0  0  0  0  0  0  0
   -4.1897   -1.5948    0.1935 H   0  0  0  0  0  0  0  0  0  0  0  0
   -2.1359   -1.6467    0.8324 C   0  0  0  0  0  0  0  0  0  0  0  0
   -1.4144   -2.6268    0.7868 O   0  0  0  0  0  0  0  0  0  0  0  0
   -1.7193   -0.3783    0.4699 N   0  0  0  0  0  0  0  0  0  0  0  0
   -2.4926    0.2407    0.2379 H   0  0  0  0  0  0  0  0  0  0  0  0
   -0.3799    0.2514    0.3220 C   0  0  1  0  0  0  0  0  0  0  0  0
   -0.2943    0.8410    1.2390 H   0  0  0  0  0  0  0  0  0  0  0  0
    0.9281   -0.6074    0.3724 C   0  0  1  0  0  0  0  0  0  0  0  0
    0.8153   -1.3950   -0.3808 H   0  0  0  0  0  0  0  0  0  0  0  0
    2.1787    0.2154   -0.0037 C   0  0  0  0  0  0  0  0  0  0  0  0
    2.3341    1.0302    0.7098 H   0  0  0  0  0  0  0  0  0  0  0  0
    3.0737   -0.4109   -0.0141 H   0  0  0  0  0  0  0  0  0  0  0  0
    2.0822    0.6363   -1.0088 H   0  0  0  0  0  0  0  0  0  0  0  0
    1.1440   -1.2935    1.7543 C   0  0  0  0  0  0  0  0  0  0  0  0
    0.2414   -1.7516    2.1451 H   0  0  0  0  0  0  0  0  0  0  0  0
    1.4141   -0.5209    2.4809 H   0  0  0  0  0  0  0  0  0  0  0  0
    2.2577   -2.3460    1.7480 C   0  0  0  0  0  0  0  0  0  0  0  0
    3.2390   -1.8932    1.5859 H   0  0  0  0  0  0  0  0  0  0  0  0
    2.2816   -2.8632    2.7119 H   0  0  0  0  0  0  0  0  0  0  0  0
    2.0743   -3.0874    0.9639 H   0  0  0  0  0  0  0  0  0  0  0  0
   -0.4459    1.3431   -0.7741 C   0  0  0  0  0  0  0  0  0  0  0  0
   -1.1778    1.2053   -1.7459 O   0  0  0  0  0  0  0  0  0  0  0  0
    0.1381    2.5818   -0.5678 N   0  0  0  0  0  0  0  0  0  0  0  0
    0.7413    2.6880    0.2421 H   0  0  0  0  0  0  0  0  0  0  0  0
    0.0474    3.6783   -1.5249 C   0  0  0  0  0  0  0  0  0  0  0  0
   -0.9982    3.9604   -1.6876 H   0  0  0  0  0  0  0  0  0  0  0  0
    0.5857    4.5538   -1.1495 H   0  0  0  0  0  0  0  0  0  0  0  0
    0.4871    3.3865   -2.4846 H   0  0  0  0  0  0  0  0  0  0  0  0
  1  2  1  0  0  0  0
  2  3  1  0  0  0  0
  2  4  1  0  0  0  0
  2  5  1  0  0  0  0
  5  6  2  0  0  0  0
  5  7  1  0  0  0  0
  7  8  1  0  0  0  0
  7  9  1  0  0  0  0
  9 10  1  0  0  0  0
  9 11  1  0  0  0  0
  9 24  1  0  0  0  0
 11 12  1  0  0  0  0
 11 13  1  0  0  0  0
 11 17  1  0  0  0  0
 13 14  1  0  0  0  0
 13 15  1  0  0  0  0
 13 16  1  0  0  0  0
 17 18  1  0  0  0  0
 17 19  1  0  0  0  0
 17 20  1  0  0  0  0
 20 21  1  0  0  0  0
 20 22  1  0  0  0  0
 20 23  1  0  0  0  0
 24 25  2  0  0  0  0
 24 26  1  0  0  0  0
 26 27  1  0  0  0  0
 26 28  1  0  0  0  0
 28 29  1  0  0  0  0
 28 30  1  0  0  0  0
 28 31  1  0  0  0  0
M  END
$$$$

  -OEChem-01062216083D

 31 30  0     1  0  0  0  0  0999 V2000
   -3.8017   -2.8983    1.3047 H   0  0  0  0  0  0  0  0  0  0  0  0
   -3.6005   -1.8499    1.0668 C   0  0  0  0  0  0  0  0  0  0  0  0
   -3.9362   -1.2301    1.9016 H   0  0  0  0  0  0  0  0  0  0  0  0
   -4.1632   -1.5787    0.1700 H   0  0  0  0  0  0  0  0  0  0  0  0
   -2.1162   -1.6409    0.8280 C   0  0  0  0  0  0  0  0  0  0  0  0
   -1.4011   -2.6257    0.7723 O   0  0  0  0  0  0  0  0  0  0  0  0
   -1.6917   -0.3720    0.4769 N   0  0  0  0  0  0  0  0  0  0  0  0
   -2.4606    0.2475    0.2275 H   0  0  0  0  0  0  0  0  0  0  0  0
   -0.3538    0.2616    0.3286 C   0  0  1  0  0  0  0  0  0  0  0  0
   -0.2618    0.8535    1.2439 H   0  0  0  0  0  0  0  0  0  0  0  0
    0.9437   -0.6177    0.3815 C   0  0  1  0  0  0  0  0  0  0  0  0
    0.8112   -1.4081   -0.3653 H   0  0  0  0  0  0  0  0  0  0  0  0
    2.2184    0.1595   -0.0055 C   0  0  0  0  0  0  0  0  0  0  0  0
    2.3972    0.9828    0.6926 H   0  0  0  0  0  0  0  0  0  0  0  0
    3.0947   -0.4928   -0.0016 H   0  0  0  0  0  0  0  0  0  0  0  0
    2.1365    0.5585   -1.0205 H   0  0  0  0  0  0  0  0  0  0  0  0
    1.1426   -1.3032    1.7671 C   0  0  0  0  0  0  0  0  0  0  0  0
    0.2310   -1.7441    2.1572 H   0  0  0  0  0  0  0  0  0  0  0  0
    1.4222   -0.5316    2.4912 H   0  0  0  0  0  0  0  0  0  0  0  0
    2.2389   -2.3742    1.7732 C   0  0  0  0  0  0  0  0  0  0  0  0
    3.2295   -1.9377    1.6238 H   0  0  0  0  0  0  0  0  0  0  0  0
    2.2431   -2.8921    2.7370 H   0  0  0  0  0  0  0  0  0  0  0  0
    2.0528   -3.1123    0.9868 H   0  0  0  0  0  0  0  0  0  0  0  0
   -0.4378    1.3638   -0.7609 C   0  0  0  0  0  0  0  0  0  0  0  0
   -1.3610    1.3665   -1.5673 O   0  0  0  0  0  0  0  0  0  0  0  0
    0.3751    2.4839   -0.7110 N   0  0  0  0  0  0  0  0  0  0  0  0
    1.1353    2.4802   -0.0378 H   0  0  0  0  0  0  0  0  0  0  0  0
    0.2810    3.5885   -1.6585 C   0  0  0  0  0  0  0  0  0  0  0  0
   -0.7032    4.0646   -1.5960 H   0  0  0  0  0  0  0  0  0  0  0  0
    1.0431    4.3419   -1.4379 H   0  0  0  0  0  0  0  0  0  0  0  0
    0.4350    3.2302   -2.6818 H   0  0  0  0  0  0  0  0  0  0  0  0
  1  2  1  0  0  0  0
  2  3  1  0  0  0  0
  2  4  1  0  0  0  0
  2  5  1  0  0  0  0
  5  6  2  0  0  0  0
  5  7  1  0  0  0  0
  7  8  1  0  0  0  0
  7  9  1  0  0  0  0
  9 10  1  0  0  0  0
  9 11  1  0  0  0  0
  9 24  1  0  0  0  0
 11 12  1  0  0  0  0
 11 13  1  0  0  0  0
 11 17  1  0  0  0  0
 13 14  1  0  0  0  0
 13 15  1  0  0  0  0
 13 16  1  0  0  0  0
 17 18  1  0  0  0  0
 17 19  1  0  0  0  0
 17 20  1  0  0  0  0
 20 21  1  0  0  0  0
 20 22  1  0  0  0  0
 20 23  1  0  0  0  0
 24 25  2  0  0  0  0
 24 26  1  0  0  0  0
 26 27  1  0  0  0  0
 26 28  1  0  0  0  0
 28 29  1  0  0  0  0
 28 30  1  0  0  0  0
 28 31  1  0  0  0  0
M  END
$$$$

  -OEChem-01062216083D

 31 30  0     1  0  0  0  0  0999 V2000
   -3.7715   -2.9022    1.2687 H   0  0  0  0  0  0  0  0  0  0  0  0
   -3.5649   -1.8490    1.0580 C   0  0  0  0  0  0  0  0  0  0  0  0
   -3.8792   -1.2512    1.9168 H   0  0  0  0  0  0  0  0  0  0  0  0
   -4.1417   -1.5462    0.1805 H   0  0  0  0  0  0  0  0  0  0  0  0
   -2.0835   -1.6453    0.7987 C   0  0  0  0  0  0  0  0  0  0  0  0
   -1.3752   -2.6332    0.7102 O   0  0  0  0  0  0  0  0  0  0  0  0
   -1.6558   -0.3728    0.4652 N   0  0  0  0  0  0  0  0  0  0  0  0
   -2.4238    0.2595    0.2431 H   0  0  0  0  0  0  0  0  0  0  0  0
   -0.3196    0.2681    0.3271 C   0  0  1  0  0  0  0  0  0  0  0  0
   -0.2255    0.8590    1.2427 H   0  0  0  0  0  0  0  0  0  0  0  0
    0.9677   -0.6319    0.3893 C   0  0  1  0  0  0  0  0  0  0  0  0
    0.8298   -1.4219   -0.3569 H   0  0  0  0  0  0  0  0  0  0  0  0
    2.2673    0.1099    0.0198 C   0  0  0  0  0  0  0  0  0  0  0  0
    2.4309    0.9611    0.6876 H   0  0  0  0  0  0  0  0  0  0  0  0
    3.1346   -0.5503    0.0859 H   0  0  0  0  0  0  0  0  0  0  0  0
    2.2295    0.4585   -1.0157 H   0  0  0  0  0  0  0  0  0  0  0  0
    1.1332   -1.3180    1.7807 C   0  0  0  0  0  0  0  0  0  0  0  0
    0.2072   -1.7409    2.1569 H   0  0  0  0  0  0  0  0  0  0  0  0
    1.4143   -0.5487    2.5067 H   0  0  0  0  0  0  0  0  0  0  0  0
    2.2093   -2.4097    1.8141 C   0  0  0  0  0  0  0  0  0  0  0  0
    3.2127   -1.9924    1.6988 H   0  0  0  0  0  0  0  0  0  0  0  0
    2.1738   -2.9323    2.7747 H   0  0  0  0  0  0  0  0  0  0  0  0
    2.0336   -3.1407    1.0186 H   0  0  0  0  0  0  0  0  0  0  0  0
   -0.4246    1.3829   -0.7547 C   0  0  0  0  0  0  0  0  0  0  0  0
   -1.4693    1.5260   -1.3824 O   0  0  0  0  0  0  0  0  0  0  0  0
    0.5411    2.3627   -0.9097 N   0  0  0  0  0  0  0  0  0  0  0  0
    1.4020    2.2568   -0.3819 H   0  0  0  0  0  0  0  0  0  0  0  0
    0.4337    3.4590   -1.8658 C   0  0  0  0  0  0  0  0  0  0  0  0
   -0.4391    4.0810   -1.6406 H   0  0  0  0  0  0  0  0  0  0  0  0
    1.3269    4.0892   -1.8206 H   0  0  0  0  0  0  0  0  0  0  0  0
    0.3360    3.0700   -2.8848 H   0  0  0  0  0  0  0  0  0  0  0  0
  1  2  1  0  0  0  0
  2  3  1  0  0  0  0
  2  4  1  0  0  0  0
  2  5  1  0  0  0  0
  5  6  2  0  0  0  0
  5  7  1  0  0  0  0
  7  8  1  0  0  0  0
  7  9  1  0  0  0  0
  9 10  1  0  0  0  0
  9 11  1  0  0  0  0
  9 24  1  0  0  0  0
 11 12  1  0  0  0  0
 11 13  1  0  0  0  0
 11 17  1  0  0  0  0
 13 14  1  0  0  0  0
 13 15  1  0  0  0  0
 13 16  1  0  0  0  0
 17 18  1  0  0  0  0
 17 19  1  0  0  0  0
 17 20  1  0  0  0  0
 20 21  1  0  0  0  0
 20 22  1  0  0  0  0
 20 23  1  0  0  0  0
 24 25  2  0  0  0  0
 24 26  1  0  0  0  0
 26 27  1  0  0  0  0
 26 28  1  0  0  0  0
 28 29  1  0  0  0  0
 28 30  1  0  0  0  0
 28 31  1  0  0  0  0
M  END
$$$$

  -OEChem-01062216083D

 31 30  0     1  0  0  0  0  0999 V2000
   -1.7408   -3.2319    1.1655 H   0  0  0  0  0  0  0  0  0  0  0  0
   -2.1838   -2.4617    0.5301 C   0  0  0  0  0  0  0  0  0  0  0  0
   -1.5813   -2.3461   -0.3716 H   0  0  0  0  0  0  0  0  0  0  0  0
   -3.1830   -2.7892    0.2308 H   0  0  0  0  0  0  0  0  0  0  0  0
   -2.2894   -1.1444    1.2887 C   0  0  0  0  0  0  0  0  0  0  0  0
   -3.2076   -1.0134    2.0769 O   0  0  0  0  0  0  0  0  0  0  0  0
   -1.7865    0.0442    0.8138 N   0  0  0  0  0  0  0  0  0  0  0  0
   -2.4327    0.8039    1.0324 H   0  0  0  0  0  0  0  0  0  0  0  0
   -0.4150    0.5341    0.4989 C   0  0  1  0  0  0  0  0  0  0  0  0
   -0.0215    0.9136    1.4469 H   0  0  0  0  0  0  0  0  0  0  0  0
    0.6478   -0.5420    0.0520 C   0  0  1  0  0  0  0  0  0  0  0  0
    0.2255   -1.0790   -0.8025 H   0  0  0  0  0  0  0  0  0  0  0  0
    1.9877    0.0642   -0.4174 C   0  0  0  0  0  0  0  0  0  0  0  0
    2.3694    0.7769    0.3205 H   0  0  0  0  0  0  0  0  0  0  0  0
    2.7491   -0.7012   -0.5749 H   0  0  0  0  0  0  0  0  0  0  0  0
    1.8657    0.5622   -1.3825 H   0  0  0  0  0  0  0  0  0  0  0  0
    0.9401   -1.5732    1.1847 C   0  0  0  0  0  0  0  0  0  0  0  0
    0.0365   -1.9375    1.6566 H   0  0  0  0  0  0  0  0  0  0  0  0
    1.5003   -1.0647    1.9766 H   0  0  0  0  0  0  0  0  0  0  0  0
    1.7518   -2.7951    0.7353 C   0  0  0  0  0  0  0  0  0  0  0  0
    2.7906   -2.5359    0.5175 H   0  0  0  0  0  0  0  0  0  0  0  0
    1.7590   -3.5441    1.5332 H   0  0  0  0  0  0  0  0  0  0  0  0
    1.3033   -3.2459   -0.1554 H   0  0  0  0  0  0  0  0  0  0  0  0
   -0.5745    1.8283   -0.3644 C   0  0  0  0  0  0  0  0  0  0  0  0
   -1.6902    2.3001   -0.5538 O   0  0  0  0  0  0  0  0  0  0  0  0
    0.4907    2.5698   -0.8461 N   0  0  0  0  0  0  0  0  0  0  0  0
    1.4262    2.2297   -0.6492 H   0  0  0  0  0  0  0  0  0  0  0  0
    0.3407    3.8277   -1.5707 C   0  0  0  0  0  0  0  0  0  0  0  0
   -0.1370    4.5812   -0.9356 H   0  0  0  0  0  0  0  0  0  0  0  0
    1.3198    4.2061   -1.8796 H   0  0  0  0  0  0  0  0  0  0  0  0
   -0.2717    3.6838   -2.4672 H   0  0  0  0  0  0  0  0  0  0  0  0
  1  2  1  0  0  0  0
  2  3  1  0  0  0  0
  2  4  1  0  0  0  0
  2  5  1  0  0  0  0
  5  6  2  0  0  0  0
  5  7  1  0  0  0  0
  7  8  1  0  0  0  0
  7  9  1  0  0  0  0
  9 10  1  0  0  0  0
  9 11  1  0  0  0  0
  9 24  1  0  0  0  0
 11 12  1  0  0  0  0
 11 13  1  0  0  0  0
 11 17  1  0  0  0  0
 13 14  1  0  0  0  0
 13 15  1  0  0  0  0
 13 16  1  0  0  0  0
 17 18  1  0  0  0  0
 17 19  1  0  0  0  0
 17 20  1  0  0  0  0
 20 21  1  0  0  0  0
 20 22  1  0  0  0  0
 20 23  1  0  0  0  0
 24 25  2  0  0  0  0
 24 26  1  0  0  0  0
 26 27  1  0  0  0  0
 26 28  1  0  0  0  0
 28 29  1  0  0  0  0
 28 30  1  0  0  0  0
 28 31  1  0  0  0  0
M  END
$$$$

  -OEChem-01062216083D

 31 30  0     1  0  0  0  0  0999 V2000
   -1.7551   -3.2253    1.1588 H   0  0  0  0  0  0  0  0  0  0  0  0
   -2.1791   -2.4482    0.5188 C   0  0  0  0  0  0  0  0  0  0  0  0
   -1.5641   -2.3407   -0.3752 H   0  0  0  0  0  0  0  0  0  0  0  0
   -3.1793   -2.7609    0.2072 H   0  0  0  0  0  0  0  0  0  0  0  0
   -2.2745   -1.1309    1.2787 C   0  0  0  0  0  0  0  0  0  0  0  0
   -3.1923   -0.9937    2.0661 O   0  0  0  0  0  0  0  0  0  0  0  0
   -1.7537    0.0539    0.8130 N   0  0  0  0  0  0  0  0  0  0  0  0
   -2.3729    0.8259    1.0672 H   0  0  0  0  0  0  0  0  0  0  0  0
   -0.3767    0.5198    0.4877 C   0  0  1  0  0  0  0  0  0  0  0  0
    0.0319    0.8901    1.4333 H   0  0  0  0  0  0  0  0  0  0  0  0
    0.6714   -0.5686    0.0343 C   0  0  1  0  0  0  0  0  0  0  0  0
    0.2493   -1.1009   -0.8231 H   0  0  0  0  0  0  0  0  0  0  0  0
    2.0216    0.0317   -0.4176 C   0  0  0  0  0  0  0  0  0  0  0  0
    2.3383    0.8272    0.2646 H   0  0  0  0  0  0  0  0  0  0  0  0
    2.8172   -0.7133   -0.4527 H   0  0  0  0  0  0  0  0  0  0  0  0
    1.9418    0.4256   -1.4338 H   0  0  0  0  0  0  0  0  0  0  0  0
    0.9535   -1.6006    1.1697 C   0  0  0  0  0  0  0  0  0  0  0  0
    0.0457   -1.9513    1.6441 H   0  0  0  0  0  0  0  0  0  0  0  0
    1.5212   -1.0976    1.9596 H   0  0  0  0  0  0  0  0  0  0  0  0
    1.7476   -2.8361    0.7231 C   0  0  0  0  0  0  0  0  0  0  0  0
    2.7932   -2.5982    0.5140 H   0  0  0  0  0  0  0  0  0  0  0  0
    1.7342   -3.5875    1.5186 H   0  0  0  0  0  0  0  0  0  0  0  0
    1.2980   -3.2760   -0.1723 H   0  0  0  0  0  0  0  0  0  0  0  0
   -0.5453    1.8275   -0.3560 C   0  0  0  0  0  0  0  0  0  0  0  0
   -1.6040    2.4435   -0.2899 O   0  0  0  0  0  0  0  0  0  0  0  0
    0.4540    2.4224   -1.1065 N   0  0  0  0  0  0  0  0  0  0  0  0
    1.3662    1.9806   -1.1060 H   0  0  0  0  0  0  0  0  0  0  0  0
    0.2918    3.6848   -1.8204 C   0  0  0  0  0  0  0  0  0  0  0  0
    0.0824    4.4986   -1.1182 H   0  0  0  0  0  0  0  0  0  0  0  0
    1.2060    3.9285   -2.3699 H   0  0  0  0  0  0  0  0  0  0  0  0
   -0.5330    3.6171   -2.5378 H   0  0  0  0  0  0  0  0  0  0  0  0
  1  2  1  0  0  0  0
  2  3  1  0  0  0  0
  2  4  1  0  0  0  0
  2  5  1  0  0  0  0
  5  6  2  0  0  0  0
  5  7  1  0  0  0  0
  7  8  1  0  0  0  0
  7  9  1  0  0  0  0
  9 10  1  0  0  0  0
  9 11  1  0  0  0  0
  9 24  1  0  0  0  0
 11 12  1  0  0  0  0
 11 13  1  0  0  0  0
 11 17  1  0  0  0  0
 13 14  1  0  0  0  0
 13 15  1  0  0  0  0
 13 16  1  0  0  0  0
 17 18  1  0  0  0  0
 17 19  1  0  0  0  0
 17 20  1  0  0  0  0
 20 21  1  0  0  0  0
 20 22  1  0  0  0  0
 20 23  1  0  0  0  0
 24 25  2  0  0  0  0
 24 26  1  0  0  0  0
 26 27  1  0  0  0  0
 26 28  1  0  0  0  0
 28 29  1  0  0  0  0
 28 30  1  0  0  0  0
 28 31  1  0  0  0  0
M  END
$$$$

  -OEChem-01062216083D

 31 30  0     1  0  0  0  0  0999 V2000
   -1.7845   -3.2035    1.1867 H   0  0  0  0  0  0  0  0  0  0  0  0
   -2.1764   -2.4304    0.5218 C   0  0  0  0  0  0  0  0  0  0  0  0
   -1.5314   -2.3467   -0.3533 H   0  0  0  0  0  0  0  0  0  0  0  0
   -3.1712   -2.7318    0.1833 H   0  0  0  0  0  0  0  0  0  0  0  0
   -2.2737   -1.1005    1.2585 C   0  0  0  0  0  0  0  0  0  0  0  0
   -3.1914   -0.9479    2.0429 O   0  0  0  0  0  0  0  0  0  0  0  0
   -1.7477    0.0726    0.7709 N   0  0  0  0  0  0  0  0  0  0  0  0
   -2.3444    0.8563    1.0439 H   0  0  0  0  0  0  0  0  0  0  0  0
   -0.3613    0.5105    0.4555 C   0  0  1  0  0  0  0  0  0  0  0  0
    0.0353    0.9044    1.3968 H   0  0  0  0  0  0  0  0  0  0  0  0
    0.6976   -0.5820    0.0456 C   0  0  1  0  0  0  0  0  0  0  0  0
    0.3118   -1.1317   -0.8183 H   0  0  0  0  0  0  0  0  0  0  0  0
    2.0580    0.0439   -0.3494 C   0  0  0  0  0  0  0  0  0  0  0  0
    2.2619    0.9377    0.2494 H   0  0  0  0  0  0  0  0  0  0  0  0
    2.8943   -0.6403   -0.2050 H   0  0  0  0  0  0  0  0  0  0  0  0
    2.0650    0.3051   -1.4099 H   0  0  0  0  0  0  0  0  0  0  0  0
    0.9590   -1.5878    1.2088 C   0  0  0  0  0  0  0  0  0  0  0  0
    0.0412   -1.9331    1.6685 H   0  0  0  0  0  0  0  0  0  0  0  0
    1.5072   -1.0670    2.0012 H   0  0  0  0  0  0  0  0  0  0  0  0
    1.7653   -2.8297    0.8013 C   0  0  0  0  0  0  0  0  0  0  0  0
    2.8075   -2.5929    0.5767 H   0  0  0  0  0  0  0  0  0  0  0  0
    1.7620   -3.5530    1.6225 H   0  0  0  0  0  0  0  0  0  0  0  0
    1.3148   -3.3041   -0.0759 H   0  0  0  0  0  0  0  0  0  0  0  0
   -0.5272    1.7943   -0.4193 C   0  0  0  0  0  0  0  0  0  0  0  0
   -1.4615    2.5480   -0.1686 O   0  0  0  0  0  0  0  0  0  0  0  0
    0.3517    2.2155   -1.4014 N   0  0  0  0  0  0  0  0  0  0  0  0
    1.1206    1.6005   -1.6379 H   0  0  0  0  0  0  0  0  0  0  0  0
    0.1770    3.4427   -2.1717 C   0  0  0  0  0  0  0  0  0  0  0  0
    0.2060    4.3167   -1.5123 H   0  0  0  0  0  0  0  0  0  0  0  0
    0.9766    3.5425   -2.9119 H   0  0  0  0  0  0  0  0  0  0  0  0
   -0.7824    3.4312   -2.6997 H   0  0  0  0  0  0  0  0  0  0  0  0
  1  2  1  0  0  0  0
  2  3  1  0  0  0  0
  2  4  1  0  0  0  0
  2  5  1  0  0  0  0
  5  6  2  0  0  0  0
  5  7  1  0  0  0  0
  7  8  1  0  0  0  0
  7  9  1  0  0  0  0
  9 10  1  0  0  0  0
  9 11  1  0  0  0  0
  9 24  1  0  0  0  0
 11 12  1  0  0  0  0
 11 13  1  0  0  0  0
 11 17  1  0  0  0  0
 13 14  1  0  0  0  0
 13 15  1  0  0  0  0
 13 16  1  0  0  0  0
 17 18  1  0  0  0  0
 17 19  1  0  0  0  0
 17 20  1  0  0  0  0
 20 21  1  0  0  0  0
 20 22  1  0  0  0  0
 20 23  1  0  0  0  0
 24 25  2  0  0  0  0
 24 26  1  0  0  0  0
 26 27  1  0  0  0  0
 26 28  1  0  0  0  0
 28 29  1  0  0  0  0
 28 30  1  0  0  0  0
 28 31  1  0  0  0  0
M  END
$$$$

  -OEChem-01062216083D

 31 30  0     1  0  0  0  0  0999 V2000
   -3.1586   -2.7130    0.2790 H   0  0  0  0  0  0  0  0  0  0  0  0
   -2.1578   -2.4173    0.6043 C   0  0  0  0  0  0  0  0  0  0  0  0
   -1.7684   -3.1842    1.2781 H   0  0  0  0  0  0  0  0  0  0  0  0
   -1.5183   -2.3533   -0.2769 H   0  0  0  0  0  0  0  0  0  0  0  0
   -2.2351   -1.0762    1.3223 C   0  0  0  0  0  0  0  0  0  0  0  0
   -3.1290   -0.9097    2.1307 O   0  0  0  0  0  0  0  0  0  0  0  0
   -1.7260    0.0882    0.7982 N   0  0  0  0  0  0  0  0  0  0  0  0
   -2.2961    0.8772    1.1097 H   0  0  0  0  0  0  0  0  0  0  0  0
   -0.3437    0.5057    0.4469 C   0  0  1  0  0  0  0  0  0  0  0  0
    0.0723    0.9160    1.3732 H   0  0  0  0  0  0  0  0  0  0  0  0
    0.7159   -0.5783    0.0249 C   0  0  1  0  0  0  0  0  0  0  0  0
    0.3308   -1.1336   -0.8358 H   0  0  0  0  0  0  0  0  0  0  0  0
    2.0655    0.0772   -0.3679 C   0  0  0  0  0  0  0  0  0  0  0  0
    2.2857    0.9263    0.2875 H   0  0  0  0  0  0  0  0  0  0  0  0
    2.9025   -0.6182   -0.2981 H   0  0  0  0  0  0  0  0  0  0  0  0
    2.0529    0.4200   -1.4035 H   0  0  0  0  0  0  0  0  0  0  0  0
    1.0075   -1.5728    1.1894 C   0  0  0  0  0  0  0  0  0  0  0  0
    0.0992   -1.9254    1.6626 H   0  0  0  0  0  0  0  0  0  0  0  0
    1.5623   -1.0427    1.9710 H   0  0  0  0  0  0  0  0  0  0  0  0
    1.8178   -2.8095    0.7748 C   0  0  0  0  0  0  0  0  0  0  0  0
    2.8519   -2.5621    0.5248 H   0  0  0  0  0  0  0  0  0  0  0  0
    1.8413   -3.5253    1.6023 H   0  0  0  0  0  0  0  0  0  0  0  0
    1.3534   -3.2973   -0.0877 H   0  0  0  0  0  0  0  0  0  0  0  0
   -0.5306    1.7654   -0.4485 C   0  0  0  0  0  0  0  0  0  0  0  0
   -1.2946    2.6397   -0.0564 O   0  0  0  0  0  0  0  0  0  0  0  0
    0.1439    2.0002   -1.6328 N   0  0  0  0  0  0  0  0  0  0  0  0
    0.6967    1.2374   -2.0086 H   0  0  0  0  0  0  0  0  0  0  0  0
   -0.0742    3.1801   -2.4625 C   0  0  0  0  0  0  0  0  0  0  0  0
    0.1211    4.0936   -1.8907 H   0  0  0  0  0  0  0  0  0  0  0  0
    0.5984    3.1652   -3.3253 H   0  0  0  0  0  0  0  0  0  0  0  0
   -1.1064    3.2066   -2.8271 H   0  0  0  0  0  0  0  0  0  0  0  0
  1  2  1  0  0  0  0
  2  3  1  0  0  0  0
  2  4  1  0  0  0  0
  2  5  1  0  0  0  0
  5  6  2  0  0  0  0
  5  7  1  0  0  0  0
  7  8  1  0  0  0  0
  7  9  1  0  0  0  0
  9 10  1  0  0  0  0
  9 11  1  0  0  0  0
  9 24  1  0  0  0  0
 11 12  1  0  0  0  0
 11 13  1  0  0  0  0
 11 17  1  0  0  0  0
 13 14  1  0  0  0  0
 13 15  1  0  0  0  0
 13 16  1  0  0  0  0
 17 18  1  0  0  0  0
 17 19  1  0  0  0  0
 17 20  1  0  0  0  0
 20 21  1  0  0  0  0
 20 22  1  0  0  0  0
 20 23  1  0  0  0  0
 24 25  2  0  0  0  0
 24 26  1  0  0  0  0
 26 27  1  0  0  0  0
 26 28  1  0  0  0  0
 28 29  1  0  0  0  0
 28 30  1  0  0  0  0
 28 31  1  0  0  0  0
M  END
$$$$

  -OEChem-01062216083D

 31 30  0     1  0  0  0  0  0999 V2000
   -3.1699   -2.6673    0.2378 H   0  0  0  0  0  0  0  0  0  0  0  0
   -2.1708   -2.4037    0.5944 C   0  0  0  0  0  0  0  0  0  0  0  0
   -1.8231   -3.1845    1.2751 H   0  0  0  0  0  0  0  0  0  0  0  0
   -1.5026   -2.3539   -0.2665 H   0  0  0  0  0  0  0  0  0  0  0  0
   -2.2279   -1.0653    1.3186 C   0  0  0  0  0  0  0  0  0  0  0  0
   -3.1039   -0.8959    2.1456 O   0  0  0  0  0  0  0  0  0  0  0  0
   -1.7349    0.0955    0.7740 N   0  0  0  0  0  0  0  0  0  0  0  0
   -2.3006    0.8812    1.1005 H   0  0  0  0  0  0  0  0  0  0  0  0
   -0.3479    0.5116    0.4473 C   0  0  1  0  0  0  0  0  0  0  0  0
    0.0557    0.9383    1.3718 H   0  0  0  0  0  0  0  0  0  0  0  0
    0.7256   -0.5557    0.0280 C   0  0  1  0  0  0  0  0  0  0  0  0
    0.3631   -1.0886   -0.8566 H   0  0  0  0  0  0  0  0  0  0  0  0
    2.0865    0.1123   -0.3014 C   0  0  0  0  0  0  0  0  0  0  0  0
    2.4491    0.6815    0.5608 H   0  0  0  0  0  0  0  0  0  0  0  0
    2.8403   -0.6333   -0.5625 H   0  0  0  0  0  0  0  0  0  0  0  0
    2.0315    0.7881   -1.1530 H   0  0  0  0  0  0  0  0  0  0  0  0
    1.0139   -1.5705    1.1750 C   0  0  0  0  0  0  0  0  0  0  0  0
    0.1027   -1.9505    1.6213 H   0  0  0  0  0  0  0  0  0  0  0  0
    1.5472   -1.0565    1.9820 H   0  0  0  0  0  0  0  0  0  0  0  0
    1.8438   -2.7827    0.7341 C   0  0  0  0  0  0  0  0  0  0  0  0
    2.8764   -2.5055    0.5079 H   0  0  0  0  0  0  0  0  0  0  0  0
    1.8679   -3.5241    1.5387 H   0  0  0  0  0  0  0  0  0  0  0  0
    1.4000   -3.2494   -0.1507 H   0  0  0  0  0  0  0  0  0  0  0  0
   -0.5438    1.7385   -0.4834 C   0  0  0  0  0  0  0  0  0  0  0  0
   -1.1505    2.7073   -0.0442 O   0  0  0  0  0  0  0  0  0  0  0  0
   -0.0809    1.7994   -1.7857 N   0  0  0  0  0  0  0  0  0  0  0  0
    0.3509    0.9622   -2.1643 H   0  0  0  0  0  0  0  0  0  0  0  0
   -0.3167    2.9330   -2.6724 C   0  0  0  0  0  0  0  0  0  0  0  0
    0.1160    3.8462   -2.2505 H   0  0  0  0  0  0  0  0  0  0  0  0
    0.1444    2.7522   -3.6480 H   0  0  0  0  0  0  0  0  0  0  0  0
   -1.3907    3.0875   -2.8205 H   0  0  0  0  0  0  0  0  0  0  0  0
  1  2  1  0  0  0  0
  2  3  1  0  0  0  0
  2  4  1  0  0  0  0
  2  5  1  0  0  0  0
  5  6  2  0  0  0  0
  5  7  1  0  0  0  0
  7  8  1  0  0  0  0
  7  9  1  0  0  0  0
  9 10  1  0  0  0  0
  9 11  1  0  0  0  0
  9 24  1  0  0  0  0
 11 12  1  0  0  0  0
 11 13  1  0  0  0  0
 11 17  1  0  0  0  0
 13 14  1  0  0  0  0
 13 15  1  0  0  0  0
 13 16  1  0  0  0  0
 17 18  1  0  0  0  0
 17 19  1  0  0  0  0
 17 20  1  0  0  0  0
 20 21  1  0  0  0  0
 20 22  1  0  0  0  0
 20 23  1  0  0  0  0
 24 25  2  0  0  0  0
 24 26  1  0  0  0  0
 26 27  1  0  0  0  0
 26 28  1  0  0  0  0
 28 29  1  0  0  0  0
 28 30  1  0  0  0  0
 28 31  1  0  0  0  0
M  END
$$$$

  -OEChem-01062216083D

 31 30  0     1  0  0  0  0  0999 V2000
   -3.1660   -2.6820    0.2407 H   0  0  0  0  0  0  0  0  0  0  0  0
   -2.1730   -2.4158    0.6121 C   0  0  0  0  0  0  0  0  0  0  0  0
   -1.8387   -3.1895    1.3076 H   0  0  0  0  0  0  0  0  0  0  0  0
   -1.4894   -2.3764   -0.2371 H   0  0  0  0  0  0  0  0  0  0  0  0
   -2.2400   -1.0700    1.3213 C   0  0  0  0  0  0  0  0  0  0  0  0
   -3.1142   -0.8989    2.1497 O   0  0  0  0  0  0  0  0  0  0  0  0
   -1.7646    0.0908    0.7614 N   0  0  0  0  0  0  0  0  0  0  0  0
   -2.3321    0.8695    1.0991 H   0  0  0  0  0  0  0  0  0  0  0  0
   -0.3786    0.5133    0.4437 C   0  0  1  0  0  0  0  0  0  0  0  0
    0.0125    0.9464    1.3710 H   0  0  0  0  0  0  0  0  0  0  0  0
    0.7075   -0.5389    0.0301 C   0  0  1  0  0  0  0  0  0  0  0  0
    0.3482   -1.0756   -0.8536 H   0  0  0  0  0  0  0  0  0  0  0  0
    2.0466    0.1598   -0.3171 C   0  0  0  0  0  0  0  0  0  0  0  0
    2.4338    0.6970    0.5547 H   0  0  0  0  0  0  0  0  0  0  0  0
    2.7975   -0.5661   -0.6370 H   0  0  0  0  0  0  0  0  0  0  0  0
    1.9450    0.8742   -1.1348 H   0  0  0  0  0  0  0  0  0  0  0  0
    1.0113   -1.5584    1.1660 C   0  0  0  0  0  0  0  0  0  0  0  0
    0.1065   -1.9560    1.6103 H   0  0  0  0  0  0  0  0  0  0  0  0
    1.5403   -1.0440    1.9756 H   0  0  0  0  0  0  0  0  0  0  0  0
    1.8595   -2.7498    0.7059 C   0  0  0  0  0  0  0  0  0  0  0  0
    2.8806   -2.4461    0.4614 H   0  0  0  0  0  0  0  0  0  0  0  0
    1.9156   -3.4940    1.5064 H   0  0  0  0  0  0  0  0  0  0  0  0
    1.4106   -3.2229   -0.1730 H   0  0  0  0  0  0  0  0  0  0  0  0
   -0.5440    1.7215   -0.5094 C   0  0  0  0  0  0  0  0  0  0  0  0
   -0.9378    2.7847   -0.0498 O   0  0  0  0  0  0  0  0  0  0  0  0
   -0.3162    1.6287   -1.8714 N   0  0  0  0  0  0  0  0  0  0  0  0
   -0.0687    0.7162   -2.2412 H   0  0  0  0  0  0  0  0  0  0  0  0
   -0.5327    2.7328   -2.7982 C   0  0  0  0  0  0  0  0  0  0  0  0
    0.0896    3.5911   -2.5236 H   0  0  0  0  0  0  0  0  0  0  0  0
   -0.2706    2.4290   -3.8161 H   0  0  0  0  0  0  0  0  0  0  0  0
   -1.5835    3.0410   -2.7878 H   0  0  0  0  0  0  0  0  0  0  0  0
  1  2  1  0  0  0  0
  2  3  1  0  0  0  0
  2  4  1  0  0  0  0
  2  5  1  0  0  0  0
  5  6  2  0  0  0  0
  5  7  1  0  0  0  0
  7  8  1  0  0  0  0
  7  9  1  0  0  0  0
  9 10  1  0  0  0  0
  9 11  1  0  0  0  0
  9 24  1  0  0  0  0
 11 12  1  0  0  0  0
 11 13  1  0  0  0  0
 11 17  1  0  0  0  0
 13 14  1  0  0  0  0
 13 15  1  0  0  0  0
 13 16  1  0  0  0  0
 17 18  1  0  0  0  0
 17 19  1  0  0  0  0
 17 20  1  0  0  0  0
 20 21  1  0  0  0  0
 20 22  1  0  0  0  0
 20 23  1  0  0  0  0
 24 25  2  0  0  0  0
 24 26  1  0  0  0  0
 26 27  1  0  0  0  0
 26 28  1  0  0  0  0
 28 29  1  0  0  0  0
 28 30  1  0  0  0  0
 28 31  1  0  0  0  0
M  END
$$$$

  -OEChem-01062216083D

 31 30  0     1  0  0  0  0  0999 V2000
   -3.1818   -2.6853    0.2512 H   0  0  0  0  0  0  0  0  0  0  0  0
   -2.1867   -2.4208    0.6184 C   0  0  0  0  0  0  0  0  0  0  0  0
   -1.8513   -3.1939    1.3139 H   0  0  0  0  0  0  0  0  0  0  0  0
   -1.5056   -2.3849   -0.2330 H   0  0  0  0  0  0  0  0  0  0  0  0
   -2.2488   -1.0742    1.3259 C   0  0  0  0  0  0  0  0  0  0  0  0
   -3.1196   -0.8991    2.1568 O   0  0  0  0  0  0  0  0  0  0  0  0
   -1.7848    0.0863    0.7567 N   0  0  0  0  0  0  0  0  0  0  0  0
   -2.3516    0.8585    1.1083 H   0  0  0  0  0  0  0  0  0  0  0  0
   -0.3994    0.5126    0.4410 C   0  0  1  0  0  0  0  0  0  0  0  0
   -0.0132    0.9448    1.3710 H   0  0  0  0  0  0  0  0  0  0  0  0
    0.6905   -0.5335    0.0280 C   0  0  1  0  0  0  0  0  0  0  0  0
    0.3239   -1.0757   -0.8492 H   0  0  0  0  0  0  0  0  0  0  0  0
    2.0094    0.1799   -0.3560 C   0  0  0  0  0  0  0  0  0  0  0  0
    2.3997    0.7461    0.4959 H   0  0  0  0  0  0  0  0  0  0  0  0
    2.7698   -0.5380   -0.6718 H   0  0  0  0  0  0  0  0  0  0  0  0
    1.8706    0.8703   -1.1913 H   0  0  0  0  0  0  0  0  0  0  0  0
    1.0059   -1.5559    1.1561 C   0  0  0  0  0  0  0  0  0  0  0  0
    0.1055   -1.9619    1.6020 H   0  0  0  0  0  0  0  0  0  0  0  0
    1.5360   -1.0404    1.9640 H   0  0  0  0  0  0  0  0  0  0  0  0
    1.8608   -2.7378    0.6846 C   0  0  0  0  0  0  0  0  0  0  0  0
    2.8747   -2.4220    0.4253 H   0  0  0  0  0  0  0  0  0  0  0  0
    1.9370   -3.4807    1.4846 H   0  0  0  0  0  0  0  0  0  0  0  0
    1.4050   -3.2164   -0.1877 H   0  0  0  0  0  0  0  0  0  0  0  0
   -0.5304    1.7114   -0.5238 C   0  0  0  0  0  0  0  0  0  0  0  0
   -0.6503    2.8396   -0.0682 O   0  0  0  0  0  0  0  0  0  0  0  0
   -0.5754    1.5265   -1.8943 N   0  0  0  0  0  0  0  0  0  0  0  0
   -0.5744    0.5697   -2.2339 H   0  0  0  0  0  0  0  0  0  0  0  0
   -0.7873    2.6141   -2.8416 C   0  0  0  0  0  0  0  0  0  0  0  0
   -0.0042    3.3724   -2.7361 H   0  0  0  0  0  0  0  0  0  0  0  0
   -0.7619    2.2336   -3.8672 H   0  0  0  0  0  0  0  0  0  0  0  0
   -1.7604    3.0862   -2.6705 H   0  0  0  0  0  0  0  0  0  0  0  0
  1  2  1  0  0  0  0
  2  3  1  0  0  0  0
  2  4  1  0  0  0  0
  2  5  1  0  0  0  0
  5  6  2  0  0  0  0
  5  7  1  0  0  0  0
  7  8  1  0  0  0  0
  7  9  1  0  0  0  0
  9 10  1  0  0  0  0
  9 11  1  0  0  0  0
  9 24  1  0  0  0  0
 11 12  1  0  0  0  0
 11 13  1  0  0  0  0
 11 17  1  0  0  0  0
 13 14  1  0  0  0  0
 13 15  1  0  0  0  0
 13 16  1  0  0  0  0
 17 18  1  0  0  0  0
 17 19  1  0  0  0  0
 17 20  1  0  0  0  0
 20 21  1  0  0  0  0
 20 22  1  0  0  0  0
 20 23  1  0  0  0  0
 24 25  2  0  0  0  0
 24 26  1  0  0  0  0
 26 27  1  0  0  0  0
 26 28  1  0  0  0  0
 28 29  1  0  0  0  0
 28 30  1  0  0  0  0
 28 31  1  0  0  0  0
M  END
$$$$

  -OEChem-01062216083D

 31 30  0     1  0  0  0  0  0999 V2000
   -3.1775   -2.7301    0.2847 H   0  0  0  0  0  0  0  0  0  0  0  0
   -2.1795   -2.4445    0.6272 C   0  0  0  0  0  0  0  0  0  0  0  0
   -1.8141   -3.2084    1.3178 H   0  0  0  0  0  0  0  0  0  0  0  0
   -1.5191   -2.4001   -0.2401 H   0  0  0  0  0  0  0  0  0  0  0  0
   -2.2501   -1.0952    1.3293 C   0  0  0  0  0  0  0  0  0  0  0  0
   -3.1200   -0.9223    2.1614 O   0  0  0  0  0  0  0  0  0  0  0  0
   -1.8050    0.0678    0.7504 N   0  0  0  0  0  0  0  0  0  0  0  0
   -2.3782    0.8310    1.1099 H   0  0  0  0  0  0  0  0  0  0  0  0
   -0.4243    0.5087    0.4312 C   0  0  1  0  0  0  0  0  0  0  0  0
   -0.0428    0.9460    1.3610 H   0  0  0  0  0  0  0  0  0  0  0  0
    0.6724   -0.5300    0.0214 C   0  0  1  0  0  0  0  0  0  0  0  0
    0.3011   -1.0824   -0.8472 H   0  0  0  0  0  0  0  0  0  0  0  0
    1.9745    0.1930   -0.3942 C   0  0  0  0  0  0  0  0  0  0  0  0
    2.3610    0.7928    0.4362 H   0  0  0  0  0  0  0  0  0  0  0  0
    2.7456   -0.5197   -0.6950 H   0  0  0  0  0  0  0  0  0  0  0  0
    1.8103    0.8533   -1.2503 H   0  0  0  0  0  0  0  0  0  0  0  0
    1.0022   -1.5455    1.1510 C   0  0  0  0  0  0  0  0  0  0  0  0
    0.1089   -1.9569    1.6060 H   0  0  0  0  0  0  0  0  0  0  0  0
    1.5339   -1.0209    1.9520 H   0  0  0  0  0  0  0  0  0  0  0  0
    1.8657   -2.7209    0.6800 C   0  0  0  0  0  0  0  0  0  0  0  0
    2.8748   -2.3957    0.4137 H   0  0  0  0  0  0  0  0  0  0  0  0
    1.9540   -3.4593    1.4828 H   0  0  0  0  0  0  0  0  0  0  0  0
    1.4099   -3.2079   -0.1875 H   0  0  0  0  0  0  0  0  0  0  0  0
   -0.5418    1.6988   -0.5436 C   0  0  0  0  0  0  0  0  0  0  0  0
   -0.3619    2.8389   -0.1403 O   0  0  0  0  0  0  0  0  0  0  0  0
   -0.8778    1.4881   -1.8681 N   0  0  0  0  0  0  0  0  0  0  0  0
   -1.1122    0.5382   -2.1401 H   0  0  0  0  0  0  0  0  0  0  0  0
   -1.0829    2.5705   -2.8224 C   0  0  0  0  0  0  0  0  0  0  0  0
   -0.1724    3.1708   -2.9217 H   0  0  0  0  0  0  0  0  0  0  0  0
   -1.3372    2.1647   -3.8063 H   0  0  0  0  0  0  0  0  0  0  0  0
   -1.9004    3.2213   -2.4943 H   0  0  0  0  0  0  0  0  0  0  0  0
  1  2  1  0  0  0  0
  2  3  1  0  0  0  0
  2  4  1  0  0  0  0
  2  5  1  0  0  0  0
  5  6  2  0  0  0  0
  5  7  1  0  0  0  0
  7  8  1  0  0  0  0
  7  9  1  0  0  0  0
  9 10  1  0  0  0  0
  9 11  1  0  0  0  0
  9 24  1  0  0  0  0
 11 12  1  0  0  0  0
 11 13  1  0  0  0  0
 11 17  1  0  0  0  0
 13 14  1  0  0  0  0
 13 15  1  0  0  0  0
 13 16  1  0  0  0  0
 17 18  1  0  0  0  0
 17 19  1  0  0  0  0
 17 20  1  0  0  0  0
 20 21  1  0  0  0  0
 20 22  1  0  0  0  0
 20 23  1  0  0  0  0
 24 25  2  0  0  0  0
 24 26  1  0  0  0  0
 26 27  1  0  0  0  0
 26 28  1  0  0  0  0
 28 29  1  0  0  0  0
 28 30  1  0  0  0  0
 28 31  1  0  0  0  0
M  END
$$$$

  -OEChem-01062216083D

 31 30  0     1  0  0  0  0  0999 V2000
   -1.8853   -3.2050    1.3021 H   0  0  0  0  0  0  0  0  0  0  0  0
   -2.2213   -2.4419    0.5958 C   0  0  0  0  0  0  0  0  0  0  0  0
   -1.5339   -2.4102   -0.2508 H   0  0  0  0  0  0  0  0  0  0  0  0
   -3.2116   -2.7188    0.2248 H   0  0  0  0  0  0  0  0  0  0  0  0
   -2.2975   -1.0880    1.2880 C   0  0  0  0  0  0  0  0  0  0  0  0
   -3.1861   -0.9023    2.0972 O   0  0  0  0  0  0  0  0  0  0  0  0
   -1.8384    0.0700    0.7101 N   0  0  0  0  0  0  0  0  0  0  0  0
   -2.4188    0.8338    1.0562 H   0  0  0  0  0  0  0  0  0  0  0  0
   -0.4488    0.5089    0.4215 C   0  0  1  0  0  0  0  0  0  0  0  0
   -0.0874    0.9495    1.3575 H   0  0  0  0  0  0  0  0  0  0  0  0
    0.6512   -0.5367    0.0365 C   0  0  1  0  0  0  0  0  0  0  0  0
    0.2922   -1.0885   -0.8379 H   0  0  0  0  0  0  0  0  0  0  0  0
    1.9640    0.1767   -0.3618 C   0  0  0  0  0  0  0  0  0  0  0  0
    2.3332    0.7899    0.4666 H   0  0  0  0  0  0  0  0  0  0  0  0
    2.7413   -0.5403   -0.6345 H   0  0  0  0  0  0  0  0  0  0  0  0
    1.8174    0.8224   -1.2324 H   0  0  0  0  0  0  0  0  0  0  0  0
    0.9528   -1.5538    1.1724 C   0  0  0  0  0  0  0  0  0  0  0  0
    0.0489   -1.9604    1.6099 H   0  0  0  0  0  0  0  0  0  0  0  0
    1.4710   -1.0304    1.9829 H   0  0  0  0  0  0  0  0  0  0  0  0
    1.8199   -2.7341    0.7203 C   0  0  0  0  0  0  0  0  0  0  0  0
    2.8341   -2.4140    0.4683 H   0  0  0  0  0  0  0  0  0  0  0  0
    1.8928   -3.4692    1.5278 H   0  0  0  0  0  0  0  0  0  0  0  0
    1.3758   -3.2233   -0.1521 H   0  0  0  0  0  0  0  0  0  0  0  0
   -0.5309    1.6910   -0.5664 C   0  0  0  0  0  0  0  0  0  0  0  0
   -0.0792    2.7846   -0.2581 O   0  0  0  0  0  0  0  0  0  0  0  0
   -1.1213    1.5190   -1.8041 N   0  0  0  0  0  0  0  0  0  0  0  0
   -1.5647    0.6226   -1.9821 H   0  0  0  0  0  0  0  0  0  0  0  0
   -1.2774    2.5949   -2.7747 C   0  0  0  0  0  0  0  0  0  0  0  0
   -0.3023    3.0195   -3.0358 H   0  0  0  0  0  0  0  0  0  0  0  0
   -1.7430    2.2147   -3.6890 H   0  0  0  0  0  0  0  0  0  0  0  0
   -1.9104    3.3901   -2.3672 H   0  0  0  0  0  0  0  0  0  0  0  0
  1  2  1  0  0  0  0
  2  3  1  0  0  0  0
  2  4  1  0  0  0  0
  2  5  1  0  0  0  0
  5  6  2  0  0  0  0
  5  7  1  0  0  0  0
  7  8  1  0  0  0  0
  7  9  1  0  0  0  0
  9 10  1  0  0  0  0
  9 11  1  0  0  0  0
  9 24  1  0  0  0  0
 11 12  1  0  0  0  0
 11 13  1  0  0  0  0
 11 17  1  0  0  0  0
 13 14  1  0  0  0  0
 13 15  1  0  0  0  0
 13 16  1  0  0  0  0
 17 18  1  0  0  0  0
 17 19  1  0  0  0  0
 17 20  1  0  0  0  0
 20 21  1  0  0  0  0
 20 22  1  0  0  0  0
 20 23  1  0  0  0  0
 24 25  2  0  0  0  0
 24 26  1  0  0  0  0
 26 27  1  0  0  0  0
 26 28  1  0  0  0  0
 28 29  1  0  0  0  0
 28 30  1  0  0  0  0
 28 31  1  0  0  0  0
M  END
$$$$

  -OEChem-01062216083D

 31 30  0     1  0  0  0  0  0999 V2000
   -1.8537   -3.2211    1.3141 H   0  0  0  0  0  0  0  0  0  0  0  0
   -2.2041   -2.4658    0.6064 C   0  0  0  0  0  0  0  0  0  0  0  0
   -1.5250   -2.4325   -0.2470 H   0  0  0  0  0  0  0  0  0  0  0  0
   -3.1946   -2.7555    0.2464 H   0  0  0  0  0  0  0  0  0  0  0  0
   -2.2887   -1.1080    1.2902 C   0  0  0  0  0  0  0  0  0  0  0  0
   -3.1785   -0.9221    2.0980 O   0  0  0  0  0  0  0  0  0  0  0  0
   -1.8430    0.0506    0.7031 N   0  0  0  0  0  0  0  0  0  0  0  0
   -2.4285    0.8089    1.0519 H   0  0  0  0  0  0  0  0  0  0  0  0
   -0.4586    0.5047    0.4043 C   0  0  1  0  0  0  0  0  0  0  0  0
   -0.0967    0.9573    1.3342 H   0  0  0  0  0  0  0  0  0  0  0  0
    0.6441   -0.5428    0.0276 C   0  0  1  0  0  0  0  0  0  0  0  0
    0.2786   -1.1076   -0.8359 H   0  0  0  0  0  0  0  0  0  0  0  0
    1.9536    0.1609   -0.3951 C   0  0  0  0  0  0  0  0  0  0  0  0
    2.3272    0.7945    0.4160 H   0  0  0  0  0  0  0  0  0  0  0  0
    2.7299   -0.5613   -0.6560 H   0  0  0  0  0  0  0  0  0  0  0  0
    1.7992    0.7843   -1.2805 H   0  0  0  0  0  0  0  0  0  0  0  0
    0.9553   -1.5442    1.1760 C   0  0  0  0  0  0  0  0  0  0  0  0
    0.0568   -1.9484    1.6263 H   0  0  0  0  0  0  0  0  0  0  0  0
    1.4768   -1.0076    1.9756 H   0  0  0  0  0  0  0  0  0  0  0  0
    1.8243   -2.7282    0.7373 C   0  0  0  0  0  0  0  0  0  0  0  0
    2.8380   -2.4098    0.4809 H   0  0  0  0  0  0  0  0  0  0  0  0
    1.8994   -3.4532    1.5536 H   0  0  0  0  0  0  0  0  0  0  0  0
    1.3804   -3.2286   -0.1288 H   0  0  0  0  0  0  0  0  0  0  0  0
   -0.5523    1.6814   -0.5922 C   0  0  0  0  0  0  0  0  0  0  0  0
    0.0820    2.7091   -0.3984 O   0  0  0  0  0  0  0  0  0  0  0  0
   -1.3980    1.6014   -1.6824 N   0  0  0  0  0  0  0  0  0  0  0  0
   -1.9741    0.7675   -1.7559 H   0  0  0  0  0  0  0  0  0  0  0  0
   -1.5985    2.6930   -2.6272 C   0  0  0  0  0  0  0  0  0  0  0  0
   -0.6531    2.9574   -3.1125 H   0  0  0  0  0  0  0  0  0  0  0  0
   -2.3127    2.3966   -3.4014 H   0  0  0  0  0  0  0  0  0  0  0  0
   -1.9906    3.5776   -2.1142 H   0  0  0  0  0  0  0  0  0  0  0  0
  1  2  1  0  0  0  0
  2  3  1  0  0  0  0
  2  4  1  0  0  0  0
  2  5  1  0  0  0  0
  5  6  2  0  0  0  0
  5  7  1  0  0  0  0
  7  8  1  0  0  0  0
  7  9  1  0  0  0  0
  9 10  1  0  0  0  0
  9 11  1  0  0  0  0
  9 24  1  0  0  0  0
 11 12  1  0  0  0  0
 11 13  1  0  0  0  0
 11 17  1  0  0  0  0
 13 14  1  0  0  0  0
 13 15  1  0  0  0  0
 13 16  1  0  0  0  0
 17 18  1  0  0  0  0
 17 19  1  0  0  0  0
 17 20  1  0  0  0  0
 20 21  1  0  0  0  0
 20 22  1  0  0  0  0
 20 23  1  0  0  0  0
 24 25  2  0  0  0  0
 24 26  1  0  0  0  0
 26 27  1  0  0  0  0
 26 28  1  0  0  0  0
 28 29  1  0  0  0  0
 28 30  1  0  0  0  0
 28 31  1  0  0  0  0
M  END
$$$$

  -OEChem-01062216083D

 31 30  0     1  0  0  0  0  0999 V2000
   -1.8258   -3.2326    1.3235 H   0  0  0  0  0  0  0  0  0  0  0  0
   -2.1947   -2.4843    0.6178 C   0  0  0  0  0  0  0  0  0  0  0  0
   -1.5304   -2.4501   -0.2470 H   0  0  0  0  0  0  0  0  0  0  0  0
   -3.1882   -2.7850    0.2750 H   0  0  0  0  0  0  0  0  0  0  0  0
   -2.2810   -1.1230    1.2951 C   0  0  0  0  0  0  0  0  0  0  0  0
   -3.1693   -0.9342    2.1039 O   0  0  0  0  0  0  0  0  0  0  0  0
   -1.8454    0.0353    0.6998 N   0  0  0  0  0  0  0  0  0  0  0  0
   -2.4310    0.7901    1.0561 H   0  0  0  0  0  0  0  0  0  0  0  0
   -0.4666    0.5014    0.3850 C   0  0  1  0  0  0  0  0  0  0  0  0
   -0.0999    0.9652    1.3073 H   0  0  0  0  0  0  0  0  0  0  0  0
    0.6350   -0.5542    0.0169 C   0  0  1  0  0  0  0  0  0  0  0  0
    0.2581   -1.1356   -0.8303 H   0  0  0  0  0  0  0  0  0  0  0  0
    1.9442    0.1265   -0.4400 C   0  0  0  0  0  0  0  0  0  0  0  0
    2.3262    0.7889    0.3435 H   0  0  0  0  0  0  0  0  0  0  0  0
    2.7159   -0.6076   -0.6796 H   0  0  0  0  0  0  0  0  0  0  0  0
    1.7847    0.7143   -1.3483 H   0  0  0  0  0  0  0  0  0  0  0  0
    0.9546   -1.5354    1.1816 C   0  0  0  0  0  0  0  0  0  0  0  0
    0.0599   -1.9298    1.6474 H   0  0  0  0  0  0  0  0  0  0  0  0
    1.4827   -0.9836    1.9665 H   0  0  0  0  0  0  0  0  0  0  0  0
    1.8202   -2.7291    0.7618 C   0  0  0  0  0  0  0  0  0  0  0  0
    2.8374   -2.4188    0.5096 H   0  0  0  0  0  0  0  0  0  0  0  0
    1.8860   -3.4453    1.5867 H   0  0  0  0  0  0  0  0  0  0  0  0
    1.3802   -3.2372   -0.1017 H   0  0  0  0  0  0  0  0  0  0  0  0
   -0.5748    1.6766   -0.6174 C   0  0  0  0  0  0  0  0  0  0  0  0
    0.1891    2.6293   -0.5439 O   0  0  0  0  0  0  0  0  0  0  0  0
   -1.6269    1.7342   -1.5135 N   0  0  0  0  0  0  0  0  0  0  0  0
   -2.2848    0.9594   -1.4999 H   0  0  0  0  0  0  0  0  0  0  0  0
   -1.8619    2.8557   -2.4146 C   0  0  0  0  0  0  0  0  0  0  0  0
   -1.0130    2.9849   -3.0941 H   0  0  0  0  0  0  0  0  0  0  0  0
   -2.7601    2.6777   -3.0136 H   0  0  0  0  0  0  0  0  0  0  0  0
   -2.0029    3.7813   -1.8466 H   0  0  0  0  0  0  0  0  0  0  0  0
  1  2  1  0  0  0  0
  2  3  1  0  0  0  0
  2  4  1  0  0  0  0
  2  5  1  0  0  0  0
  5  6  2  0  0  0  0
  5  7  1  0  0  0  0
  7  8  1  0  0  0  0
  7  9  1  0  0  0  0
  9 10  1  0  0  0  0
  9 11  1  0  0  0  0
  9 24  1  0  0  0  0
 11 12  1  0  0  0  0
 11 13  1  0  0  0  0
 11 17  1  0  0  0  0
 13 14  1  0  0  0  0
 13 15  1  0  0  0  0
 13 16  1  0  0  0  0
 17 18  1  0  0  0  0
 17 19  1  0  0  0  0
 17 20  1  0  0  0  0
 20 21  1  0  0  0  0
 20 22  1  0  0  0  0
 20 23  1  0  0  0  0
 24 25  2  0  0  0  0
 24 26  1  0  0  0  0
 26 27  1  0  0  0  0
 26 28  1  0  0  0  0
 28 29  1  0  0  0  0
 28 30  1  0  0  0  0
 28 31  1  0  0  0  0
M  END
$$$$

  -OEChem-01062216083D

 31 30  0     1  0  0  0  0  0999 V2000
   -1.7787   -3.2516    1.3068 H   0  0  0  0  0  0  0  0  0  0  0  0
   -2.1840   -2.5085    0.6158 C   0  0  0  0  0  0  0  0  0  0  0  0
   -1.5492   -2.4594   -0.2702 H   0  0  0  0  0  0  0  0  0  0  0  0
   -3.1823   -2.8273    0.3047 H   0  0  0  0  0  0  0  0  0  0  0  0
   -2.2736   -1.1502    1.2988 C   0  0  0  0  0  0  0  0  0  0  0  0
   -3.1548   -0.9692    2.1172 O   0  0  0  0  0  0  0  0  0  0  0  0
   -1.8525    0.0143    0.7053 N   0  0  0  0  0  0  0  0  0  0  0  0
   -2.4373    0.7597    1.0815 H   0  0  0  0  0  0  0  0  0  0  0  0
   -0.4814    0.5008    0.3782 C   0  0  1  0  0  0  0  0  0  0  0  0
   -0.1114    0.9695    1.2965 H   0  0  0  0  0  0  0  0  0  0  0  0
    0.6227   -0.5569    0.0094 C   0  0  1  0  0  0  0  0  0  0  0  0
    0.2368   -1.1486   -0.8261 H   0  0  0  0  0  0  0  0  0  0  0  0
    1.9307    0.1080   -0.4738 C   0  0  0  0  0  0  0  0  0  0  0  0
    2.3124    0.8007    0.2832 H   0  0  0  0  0  0  0  0  0  0  0  0
    2.7052   -0.6308   -0.6880 H   0  0  0  0  0  0  0  0  0  0  0  0
    1.7676    0.6581   -1.4047 H   0  0  0  0  0  0  0  0  0  0  0  0
    0.9530   -1.5264    1.1821 C   0  0  0  0  0  0  0  0  0  0  0  0
    0.0637   -1.9185    1.6592 H   0  0  0  0  0  0  0  0  0  0  0  0
    1.4851   -0.9644    1.9570 H   0  0  0  0  0  0  0  0  0  0  0  0
    1.8184   -2.7235    0.7709 C   0  0  0  0  0  0  0  0  0  0  0  0
    2.8371   -2.4168    0.5203 H   0  0  0  0  0  0  0  0  0  0  0  0
    1.8806   -3.4352    1.5997 H   0  0  0  0  0  0  0  0  0  0  0  0
    1.3795   -3.2353   -0.0909 H   0  0  0  0  0  0  0  0  0  0  0  0
   -0.6125    1.6823   -0.6206 C   0  0  0  0  0  0  0  0  0  0  0  0
    0.2459    2.5519   -0.6804 O   0  0  0  0  0  0  0  0  0  0  0  0
   -1.8051    1.9049   -1.2866 N   0  0  0  0  0  0  0  0  0  0  0  0
   -2.5156    1.1824   -1.2071 H   0  0  0  0  0  0  0  0  0  0  0  0
   -2.0477    3.0502   -2.1552 C   0  0  0  0  0  0  0  0  0  0  0  0
   -1.3308    3.0612   -2.9829 H   0  0  0  0  0  0  0  0  0  0  0  0
   -3.0579    3.0010   -2.5729 H   0  0  0  0  0  0  0  0  0  0  0  0
   -1.9518    3.9849   -1.5926 H   0  0  0  0  0  0  0  0  0  0  0  0
  1  2  1  0  0  0  0
  2  3  1  0  0  0  0
  2  4  1  0  0  0  0
  2  5  1  0  0  0  0
  5  6  2  0  0  0  0
  5  7  1  0  0  0  0
  7  8  1  0  0  0  0
  7  9  1  0  0  0  0
  9 10  1  0  0  0  0
  9 11  1  0  0  0  0
  9 24  1  0  0  0  0
 11 12  1  0  0  0  0
 11 13  1  0  0  0  0
 11 17  1  0  0  0  0
 13 14  1  0  0  0  0
 13 15  1  0  0  0  0
 13 16  1  0  0  0  0
 17 18  1  0  0  0  0
 17 19  1  0  0  0  0
 17 20  1  0  0  0  0
 20 21  1  0  0  0  0
 20 22  1  0  0  0  0
 20 23  1  0  0  0  0
 24 25  2  0  0  0  0
 24 26  1  0  0  0  0
 26 27  1  0  0  0  0
 26 28  1  0  0  0  0
 28 29  1  0  0  0  0
 28 30  1  0  0  0  0
 28 31  1  0  0  0  0
M  END
$$$$

  -OEChem-01062216083D

 31 30  0     1  0  0  0  0  0999 V2000
   -2.9435   -3.1918    0.9942 H   0  0  0  0  0  0  0  0  0  0  0  0
   -2.2213   -2.5049    0.5441 C   0  0  0  0  0  0  0  0  0  0  0  0
   -1.2470   -2.9931    0.5335 H   0  0  0  0  0  0  0  0  0  0  0  0
   -2.5234   -2.3088   -0.4875 H   0  0  0  0  0  0  0  0  0  0  0  0
   -2.1946   -1.1966    1.3273 C   0  0  0  0  0  0  0  0  0  0  0  0
   -2.9620   -1.0443    2.2586 O   0  0  0  0  0  0  0  0  0  0  0  0
   -1.8365   -0.0156    0.7290 N   0  0  0  0  0  0  0  0  0  0  0  0
   -2.3819    0.7101    1.1921 H   0  0  0  0  0  0  0  0  0  0  0  0
   -0.4884    0.4873    0.3400 C   0  0  1  0  0  0  0  0  0  0  0  0
   -0.0967    0.9712    1.2411 H   0  0  0  0  0  0  0  0  0  0  0  0
    0.6167   -0.5796   -0.0099 C   0  0  1  0  0  0  0  0  0  0  0  0
    0.1977   -1.2228   -0.7907 H   0  0  0  0  0  0  0  0  0  0  0  0
    1.9039    0.0495   -0.5847 C   0  0  0  0  0  0  0  0  0  0  0  0
    2.3065    0.7995    0.1037 H   0  0  0  0  0  0  0  0  0  0  0  0
    2.6757   -0.7000   -0.7686 H   0  0  0  0  0  0  0  0  0  0  0  0
    1.7046    0.5237   -1.5496 H   0  0  0  0  0  0  0  0  0  0  0  0
    0.9910   -1.4847    1.2043 C   0  0  0  0  0  0  0  0  0  0  0  0
    0.1251   -1.8525    1.7421 H   0  0  0  0  0  0  0  0  0  0  0  0
    1.5467   -0.8758    1.9252 H   0  0  0  0  0  0  0  0  0  0  0  0
    1.8556   -2.6967    0.8350 C   0  0  0  0  0  0  0  0  0  0  0  0
    2.8661   -2.3976    0.5454 H   0  0  0  0  0  0  0  0  0  0  0  0
    1.9424   -3.3639    1.6982 H   0  0  0  0  0  0  0  0  0  0  0  0
    1.4016   -3.2558    0.0111 H   0  0  0  0  0  0  0  0  0  0  0  0
   -0.6668    1.6829   -0.6407 C   0  0  0  0  0  0  0  0  0  0  0  0
    0.2576    2.4397   -0.9020 O   0  0  0  0  0  0  0  0  0  0  0  0
   -1.9375    2.0962   -1.0058 N   0  0  0  0  0  0  0  0  0  0  0  0
   -2.6982    1.4513   -0.8108 H   0  0  0  0  0  0  0  0  0  0  0  0
   -2.2039    3.2780   -1.8182 C   0  0  0  0  0  0  0  0  0  0  0  0
   -1.6878    3.2063   -2.7813 H   0  0  0  0  0  0  0  0  0  0  0  0
   -3.2775    3.3728   -2.0073 H   0  0  0  0  0  0  0  0  0  0  0  0
   -1.8637    4.1822   -1.3026 H   0  0  0  0  0  0  0  0  0  0  0  0
  1  2  1  0  0  0  0
  2  3  1  0  0  0  0
  2  4  1  0  0  0  0
  2  5  1  0  0  0  0
  5  6  2  0  0  0  0
  5  7  1  0  0  0  0
  7  8  1  0  0  0  0
  7  9  1  0  0  0  0
  9 10  1  0  0  0  0
  9 11  1  0  0  0  0
  9 24  1  0  0  0  0
 11 12  1  0  0  0  0
 11 13  1  0  0  0  0
 11 17  1  0  0  0  0
 13 14  1  0  0  0  0
 13 15  1  0  0  0  0
 13 16  1  0  0  0  0
 17 18  1  0  0  0  0
 17 19  1  0  0  0  0
 17 20  1  0  0  0  0
 20 21  1  0  0  0  0
 20 22  1  0  0  0  0
 20 23  1  0  0  0  0
 24 25  2  0  0  0  0
 24 26  1  0  0  0  0
 26 27  1  0  0  0  0
 26 28  1  0  0  0  0
 28 29  1  0  0  0  0
 28 30  1  0  0  0  0
 28 31  1  0  0  0  0
M  END
$$$$

  -OEChem-01062216083D

 31 30  0     1  0  0  0  0  0999 V2000
   -1.6917   -3.2692    1.2088 H   0  0  0  0  0  0  0  0  0  0  0  0
   -2.1730   -2.5267    0.5680 C   0  0  0  0  0  0  0  0  0  0  0  0
   -1.6111   -2.4390   -0.3631 H   0  0  0  0  0  0  0  0  0  0  0  0
   -3.1815   -2.8734    0.3275 H   0  0  0  0  0  0  0  0  0  0  0  0
   -2.2534   -1.1846    1.2836 C   0  0  0  0  0  0  0  0  0  0  0  0
   -3.0989   -1.0250    2.1431 O   0  0  0  0  0  0  0  0  0  0  0  0
   -1.8547   -0.0021    0.7120 N   0  0  0  0  0  0  0  0  0  0  0  0
   -2.4114    0.7202    1.1653 H   0  0  0  0  0  0  0  0  0  0  0  0
   -0.4960    0.5023    0.3545 C   0  0  1  0  0  0  0  0  0  0  0  0
   -0.1081    0.9671    1.2666 H   0  0  0  0  0  0  0  0  0  0  0  0
    0.6054   -0.5678   -0.0173 C   0  0  1  0  0  0  0  0  0  0  0  0
    0.2078   -1.1750   -0.8356 H   0  0  0  0  0  0  0  0  0  0  0  0
    1.9222    0.0644   -0.5226 C   0  0  0  0  0  0  0  0  0  0  0  0
    2.2633    0.8450    0.1649 H   0  0  0  0  0  0  0  0  0  0  0  0
    2.7204   -0.6715   -0.6268 H   0  0  0  0  0  0  0  0  0  0  0  0
    1.7853    0.4977   -1.5168 H   0  0  0  0  0  0  0  0  0  0  0  0
    0.9465   -1.5121    1.1772 C   0  0  0  0  0  0  0  0  0  0  0  0
    0.0635   -1.8880    1.6777 H   0  0  0  0  0  0  0  0  0  0  0  0
    1.4904   -0.9322    1.9305 H   0  0  0  0  0  0  0  0  0  0  0  0
    1.8018   -2.7275    0.7961 C   0  0  0  0  0  0  0  0  0  0  0  0
    2.8291   -2.4427    0.5560 H   0  0  0  0  0  0  0  0  0  0  0  0
    1.8418   -3.4266    1.6371 H   0  0  0  0  0  0  0  0  0  0  0  0
    1.3670   -3.2473   -0.0632 H   0  0  0  0  0  0  0  0  0  0  0  0
   -0.6886    1.7162   -0.6096 C   0  0  0  0  0  0  0  0  0  0  0  0
    0.2504    2.3357   -1.0869 O   0  0  0  0  0  0  0  0  0  0  0  0
   -1.9348    2.3134   -0.7277 N   0  0  0  0  0  0  0  0  0  0  0  0
   -2.7303    1.7537   -0.4365 H   0  0  0  0  0  0  0  0  0  0  0  0
   -2.1855    3.5003   -1.5389 C   0  0  0  0  0  0  0  0  0  0  0  0
   -1.9627    3.2989   -2.5919 H   0  0  0  0  0  0  0  0  0  0  0  0
   -3.2349    3.7993   -1.4564 H   0  0  0  0  0  0  0  0  0  0  0  0
   -1.5636    4.3359   -1.2005 H   0  0  0  0  0  0  0  0  0  0  0  0
  1  2  1  0  0  0  0
  2  3  1  0  0  0  0
  2  4  1  0  0  0  0
  2  5  1  0  0  0  0
  5  6  2  0  0  0  0
  5  7  1  0  0  0  0
  7  8  1  0  0  0  0
  7  9  1  0  0  0  0
  9 10  1  0  0  0  0
  9 11  1  0  0  0  0
  9 24  1  0  0  0  0
 11 12  1  0  0  0  0
 11 13  1  0  0  0  0
 11 17  1  0  0  0  0
 13 14  1  0  0  0  0
 13 15  1  0  0  0  0
 13 16  1  0  0  0  0
 17 18  1  0  0  0  0
 17 19  1  0  0  0  0
 17 20  1  0  0  0  0
 20 21  1  0  0  0  0
 20 22  1  0  0  0  0
 20 23  1  0  0  0  0
 24 25  2  0  0  0  0
 24 26  1  0  0  0  0
 26 27  1  0  0  0  0
 26 28  1  0  0  0  0
 28 29  1  0  0  0  0
 28 30  1  0  0  0  0
 28 31  1  0  0  0  0
M  END
$$$$

  -OEChem-01062216083D

 31 30  0     1  0  0  0  0  0999 V2000
   -1.6609   -3.2725    1.1216 H   0  0  0  0  0  0  0  0  0  0  0  0
   -2.1767   -2.5219    0.5185 C   0  0  0  0  0  0  0  0  0  0  0  0
   -1.6491   -2.3989   -0.4289 H   0  0  0  0  0  0  0  0  0  0  0  0
   -3.1868   -2.8802    0.3030 H   0  0  0  0  0  0  0  0  0  0  0  0
   -2.2559   -1.1995    1.2698 C   0  0  0  0  0  0  0  0  0  0  0  0
   -3.0877   -1.0619    2.1468 O   0  0  0  0  0  0  0  0  0  0  0  0
   -1.8601   -0.0023    0.7287 N   0  0  0  0  0  0  0  0  0  0  0  0
   -2.4123    0.7046    1.2059 H   0  0  0  0  0  0  0  0  0  0  0  0
   -0.5023    0.4947    0.3602 C   0  0  1  0  0  0  0  0  0  0  0  0
   -0.1023    0.9375    1.2779 H   0  0  0  0  0  0  0  0  0  0  0  0
    0.5995   -0.5693   -0.0301 C   0  0  1  0  0  0  0  0  0  0  0  0
    0.2129   -1.1683   -0.8597 H   0  0  0  0  0  0  0  0  0  0  0  0
    1.9204    0.0875   -0.5003 C   0  0  0  0  0  0  0  0  0  0  0  0
    2.1839    0.9288    0.1484 H   0  0  0  0  0  0  0  0  0  0  0  0
    2.7577   -0.6104   -0.5030 H   0  0  0  0  0  0  0  0  0  0  0  0
    1.8298    0.4439   -1.5293 H   0  0  0  0  0  0  0  0  0  0  0  0
    0.9469   -1.5193    1.1594 C   0  0  0  0  0  0  0  0  0  0  0  0
    0.0646   -1.8998    1.6581 H   0  0  0  0  0  0  0  0  0  0  0  0
    1.4904   -0.9436    1.9162 H   0  0  0  0  0  0  0  0  0  0  0  0
    1.8019   -2.7337    0.7706 C   0  0  0  0  0  0  0  0  0  0  0  0
    2.8300   -2.4526    0.5318 H   0  0  0  0  0  0  0  0  0  0  0  0
    1.8400   -3.4382    1.6070 H   0  0  0  0  0  0  0  0  0  0  0  0
    1.3658   -3.2470   -0.0917 H   0  0  0  0  0  0  0  0  0  0  0  0
   -0.7112    1.7416   -0.5606 C   0  0  0  0  0  0  0  0  0  0  0  0
    0.0904    2.1044   -1.4075 O   0  0  0  0  0  0  0  0  0  0  0  0
   -1.8350    2.5406   -0.4036 N   0  0  0  0  0  0  0  0  0  0  0  0
   -2.5752    2.1876    0.1916 H   0  0  0  0  0  0  0  0  0  0  0  0
   -2.1239    3.6962   -1.2473 C   0  0  0  0  0  0  0  0  0  0  0  0
   -2.2731    3.3842   -2.2863 H   0  0  0  0  0  0  0  0  0  0  0  0
   -3.0323    4.1992   -0.9019 H   0  0  0  0  0  0  0  0  0  0  0  0
   -1.2989    4.4157   -1.2103 H   0  0  0  0  0  0  0  0  0  0  0  0
  1  2  1  0  0  0  0
  2  3  1  0  0  0  0
  2  4  1  0  0  0  0
  2  5  1  0  0  0  0
  5  6  2  0  0  0  0
  5  7  1  0  0  0  0
  7  8  1  0  0  0  0
  7  9  1  0  0  0  0
  9 10  1  0  0  0  0
  9 11  1  0  0  0  0
  9 24  1  0  0  0  0
 11 12  1  0  0  0  0
 11 13  1  0  0  0  0
 11 17  1  0  0  0  0
 13 14  1  0  0  0  0
 13 15  1  0  0  0  0
 13 16  1  0  0  0  0
 17 18  1  0  0  0  0
 17 19  1  0  0  0  0
 17 20  1  0  0  0  0
 20 21  1  0  0  0  0
 20 22  1  0  0  0  0
 20 23  1  0  0  0  0
 24 25  2  0  0  0  0
 24 26  1  0  0  0  0
 26 27  1  0  0  0  0
 26 28  1  0  0  0  0
 28 29  1  0  0  0  0
 28 30  1  0  0  0  0
 28 31  1  0  0  0  0
M  END
$$$$

  -OEChem-01062216083D

 31 30  0     1  0  0  0  0  0999 V2000
   -1.7740   -3.2603    1.1988 H   0  0  0  0  0  0  0  0  0  0  0  0
   -2.2031   -2.4998    0.5421 C   0  0  0  0  0  0  0  0  0  0  0  0
   -1.5855   -2.4086   -0.3529 H   0  0  0  0  0  0  0  0  0  0  0  0
   -3.2017   -2.8227    0.2365 H   0  0  0  0  0  0  0  0  0  0  0  0
   -2.3017   -1.1669    1.2717 C   0  0  0  0  0  0  0  0  0  0  0  0
   -3.1784   -1.0130    2.1016 O   0  0  0  0  0  0  0  0  0  0  0  0
   -1.8640    0.0192    0.7374 N   0  0  0  0  0  0  0  0  0  0  0  0
   -2.4770    0.7550    1.0759 H   0  0  0  0  0  0  0  0  0  0  0  0
   -0.4950    0.4875    0.3838 C   0  0  1  0  0  0  0  0  0  0  0  0
   -0.0931    0.9112    1.3091 H   0  0  0  0  0  0  0  0  0  0  0  0
    0.6037   -0.5608   -0.0311 C   0  0  1  0  0  0  0  0  0  0  0  0
    0.2359   -1.1252   -0.8935 H   0  0  0  0  0  0  0  0  0  0  0  0
    1.9314    0.1335   -0.4297 C   0  0  0  0  0  0  0  0  0  0  0  0
    2.2335    0.8528    0.3376 H   0  0  0  0  0  0  0  0  0  0  0  0
    2.7413   -0.5851   -0.5621 H   0  0  0  0  0  0  0  0  0  0  0  0
    1.8447    0.6555   -1.3837 H   0  0  0  0  0  0  0  0  0  0  0  0
    0.9394   -1.5437    1.1319 C   0  0  0  0  0  0  0  0  0  0  0  0
    0.0482   -1.9367    1.6053 H   0  0  0  0  0  0  0  0  0  0  0  0
    1.4752   -0.9952    1.9137 H   0  0  0  0  0  0  0  0  0  0  0  0
    1.7957   -2.7445    0.7083 C   0  0  0  0  0  0  0  0  0  0  0  0
    2.8216   -2.4503    0.4743 H   0  0  0  0  0  0  0  0  0  0  0  0
    1.8387   -3.4720    1.5247 H   0  0  0  0  0  0  0  0  0  0  0  0
    1.3596   -3.2351   -0.1675 H   0  0  0  0  0  0  0  0  0  0  0  0
   -0.6889    1.7344   -0.5286 C   0  0  0  0  0  0  0  0  0  0  0  0
   -0.2269    1.8105   -1.6575 O   0  0  0  0  0  0  0  0  0  0  0  0
   -1.6135    2.7033   -0.1671 N   0  0  0  0  0  0  0  0  0  0  0  0
   -2.0071    2.6570    0.7666 H   0  0  0  0  0  0  0  0  0  0  0  0
   -1.9749    3.8301   -1.0210 C   0  0  0  0  0  0  0  0  0  0  0  0
   -2.4314    3.4747   -1.9509 H   0  0  0  0  0  0  0  0  0  0  0  0
   -2.6937    4.4772   -0.5093 H   0  0  0  0  0  0  0  0  0  0  0  0
   -1.0891    4.4249   -1.2679 H   0  0  0  0  0  0  0  0  0  0  0  0
  1  2  1  0  0  0  0
  2  3  1  0  0  0  0
  2  4  1  0  0  0  0
  2  5  1  0  0  0  0
  5  6  2  0  0  0  0
  5  7  1  0  0  0  0
  7  8  1  0  0  0  0
  7  9  1  0  0  0  0
  9 10  1  0  0  0  0
  9 11  1  0  0  0  0
  9 24  1  0  0  0  0
 11 12  1  0  0  0  0
 11 13  1  0  0  0  0
 11 17  1  0  0  0  0
 13 14  1  0  0  0  0
 13 15  1  0  0  0  0
 13 16  1  0  0  0  0
 17 18  1  0  0  0  0
 17 19  1  0  0  0  0
 17 20  1  0  0  0  0
 20 21  1  0  0  0  0
 20 22  1  0  0  0  0
 20 23  1  0  0  0  0
 24 25  2  0  0  0  0
 24 26  1  0  0  0  0
 26 27  1  0  0  0  0
 26 28  1  0  0  0  0
 28 29  1  0  0  0  0
 28 30  1  0  0  0  0
 28 31  1  0  0  0  0
M  END
$$$$

  -OEChem-01062216083D

 31 30  0     1  0  0  0  0  0999 V2000
   -1.8543   -3.2553    1.2458 H   0  0  0  0  0  0  0  0  0  0  0  0
   -2.2318   -2.4788    0.5762 C   0  0  0  0  0  0  0  0  0  0  0  0
   -1.5784   -2.4074   -0.2952 H   0  0  0  0  0  0  0  0  0  0  0  0
   -3.2295   -2.7643    0.2329 H   0  0  0  0  0  0  0  0  0  0  0  0
   -2.3084   -1.1458    1.3076 C   0  0  0  0  0  0  0  0  0  0  0  0
   -3.1750   -0.9849    2.1468 O   0  0  0  0  0  0  0  0  0  0  0  0
   -1.8697    0.0326    0.7584 N   0  0  0  0  0  0  0  0  0  0  0  0
   -2.4877    0.7766    1.0724 H   0  0  0  0  0  0  0  0  0  0  0  0
   -0.4951    0.4939    0.4285 C   0  0  1  0  0  0  0  0  0  0  0  0
   -0.0996    0.9185    1.3564 H   0  0  0  0  0  0  0  0  0  0  0  0
    0.6057   -0.5402    0.0001 C   0  0  1  0  0  0  0  0  0  0  0  0
    0.2434   -1.0781   -0.8820 H   0  0  0  0  0  0  0  0  0  0  0  0
    1.9291    0.1767   -0.3691 C   0  0  0  0  0  0  0  0  0  0  0  0
    2.3012    0.7567    0.4811 H   0  0  0  0  0  0  0  0  0  0  0  0
    2.6991   -0.5398   -0.6625 H   0  0  0  0  0  0  0  0  0  0  0  0
    1.8083    0.8516   -1.2179 H   0  0  0  0  0  0  0  0  0  0  0  0
    0.9400   -1.5579    1.1305 C   0  0  0  0  0  0  0  0  0  0  0  0
    0.0472   -1.9737    1.5818 H   0  0  0  0  0  0  0  0  0  0  0  0
    1.4679   -1.0357    1.9354 H   0  0  0  0  0  0  0  0  0  0  0  0
    1.8034   -2.7354    0.6625 C   0  0  0  0  0  0  0  0  0  0  0  0
    2.8180   -2.4165    0.4116 H   0  0  0  0  0  0  0  0  0  0  0  0
    1.8763   -3.4792    1.4618 H   0  0  0  0  0  0  0  0  0  0  0  0
    1.3557   -3.2138   -0.2140 H   0  0  0  0  0  0  0  0  0  0  0  0
   -0.6806    1.7153   -0.5095 C   0  0  0  0  0  0  0  0  0  0  0  0
   -0.4320    1.6606   -1.7062 O   0  0  0  0  0  0  0  0  0  0  0  0
   -1.3732    2.8217   -0.0452 N   0  0  0  0  0  0  0  0  0  0  0  0
   -1.6146    2.8505    0.9404 H   0  0  0  0  0  0  0  0  0  0  0  0
   -1.7430    3.9504   -0.8919 C   0  0  0  0  0  0  0  0  0  0  0  0
   -2.4266    3.6267   -1.6841 H   0  0  0  0  0  0  0  0  0  0  0  0
   -2.2430    4.7215   -0.2980 H   0  0  0  0  0  0  0  0  0  0  0  0
   -0.8535    4.3928   -1.3529 H   0  0  0  0  0  0  0  0  0  0  0  0
  1  2  1  0  0  0  0
  2  3  1  0  0  0  0
  2  4  1  0  0  0  0
  2  5  1  0  0  0  0
  5  6  2  0  0  0  0
  5  7  1  0  0  0  0
  7  8  1  0  0  0  0
  7  9  1  0  0  0  0
  9 10  1  0  0  0  0
  9 11  1  0  0  0  0
  9 24  1  0  0  0  0
 11 12  1  0  0  0  0
 11 13  1  0  0  0  0
 11 17  1  0  0  0  0
 13 14  1  0  0  0  0
 13 15  1  0  0  0  0
 13 16  1  0  0  0  0
 17 18  1  0  0  0  0
 17 19  1  0  0  0  0
 17 20  1  0  0  0  0
 20 21  1  0  0  0  0
 20 22  1  0  0  0  0
 20 23  1  0  0  0  0
 24 25  2  0  0  0  0
 24 26  1  0  0  0  0
 26 27  1  0  0  0  0
 26 28  1  0  0  0  0
 28 29  1  0  0  0  0
 28 30  1  0  0  0  0
 28 31  1  0  0  0  0
M  END
$$$$

  -OEChem-01062216083D

 31 30  0     1  0  0  0  0  0999 V2000
   -1.8647   -3.2655    1.2687 H   0  0  0  0  0  0  0  0  0  0  0  0
   -2.2434   -2.4835    0.6064 C   0  0  0  0  0  0  0  0  0  0  0  0
   -1.5951   -2.4094   -0.2687 H   0  0  0  0  0  0  0  0  0  0  0  0
   -3.2445   -2.7629    0.2680 H   0  0  0  0  0  0  0  0  0  0  0  0
   -2.3089   -1.1545    1.3463 C   0  0  0  0  0  0  0  0  0  0  0  0
   -3.1548   -1.0022    2.2082 O   0  0  0  0  0  0  0  0  0  0  0  0
   -1.8840    0.0266    0.7922 N   0  0  0  0  0  0  0  0  0  0  0  0
   -2.4989    0.7683    1.1190 H   0  0  0  0  0  0  0  0  0  0  0  0
   -0.5127    0.4936    0.4633 C   0  0  1  0  0  0  0  0  0  0  0  0
   -0.1158    0.9121    1.3930 H   0  0  0  0  0  0  0  0  0  0  0  0
    0.5879   -0.5298    0.0167 C   0  0  1  0  0  0  0  0  0  0  0  0
    0.2161   -1.0593   -0.8666 H   0  0  0  0  0  0  0  0  0  0  0  0
    1.8947    0.2053   -0.3705 C   0  0  0  0  0  0  0  0  0  0  0  0
    2.2854    0.7692    0.4823 H   0  0  0  0  0  0  0  0  0  0  0  0
    2.6615   -0.4987   -0.7006 H   0  0  0  0  0  0  0  0  0  0  0  0
    1.7401    0.8990   -1.1999 H   0  0  0  0  0  0  0  0  0  0  0  0
    0.9376   -1.5651    1.1245 C   0  0  0  0  0  0  0  0  0  0  0  0
    0.0517   -1.9935    1.5779 H   0  0  0  0  0  0  0  0  0  0  0  0
    1.4722   -1.0541    1.9320 H   0  0  0  0  0  0  0  0  0  0  0  0
    1.8031   -2.7269    0.6228 C   0  0  0  0  0  0  0  0  0  0  0  0
    2.8089   -2.3933    0.3554 H   0  0  0  0  0  0  0  0  0  0  0  0
    1.9001   -3.4819    1.4090 H   0  0  0  0  0  0  0  0  0  0  0  0
    1.3422   -3.1969   -0.2515 H   0  0  0  0  0  0  0  0  0  0  0  0
   -0.6904    1.7086   -0.4794 C   0  0  0  0  0  0  0  0  0  0  0  0
   -0.6190    1.5921   -1.6955 O   0  0  0  0  0  0  0  0  0  0  0  0
   -1.0981    2.9232    0.0450 N   0  0  0  0  0  0  0  0  0  0  0  0
   -1.2076    2.9936    1.0520 H   0  0  0  0  0  0  0  0  0  0  0  0
   -1.4064    4.0859   -0.7798 C   0  0  0  0  0  0  0  0  0  0  0  0
   -2.2591    3.8763   -1.4343 H   0  0  0  0  0  0  0  0  0  0  0  0
   -1.6580    4.9428   -0.1475 H   0  0  0  0  0  0  0  0  0  0  0  0
   -0.5449    4.3558   -1.3998 H   0  0  0  0  0  0  0  0  0  0  0  0
  1  2  1  0  0  0  0
  2  3  1  0  0  0  0
  2  4  1  0  0  0  0
  2  5  1  0  0  0  0
  5  6  2  0  0  0  0
  5  7  1  0  0  0  0
  7  8  1  0  0  0  0
  7  9  1  0  0  0  0
  9 10  1  0  0  0  0
  9 11  1  0  0  0  0
  9 24  1  0  0  0  0
 11 12  1  0  0  0  0
 11 13  1  0  0  0  0
 11 17  1  0  0  0  0
 13 14  1  0  0  0  0
 13 15  1  0  0  0  0
 13 16  1  0  0  0  0
 17 18  1  0  0  0  0
 17 19  1  0  0  0  0
 17 20  1  0  0  0  0
 20 21  1  0  0  0  0
 20 22  1  0  0  0  0
 20 23  1  0  0  0  0
 24 25  2  0  0  0  0
 24 26  1  0  0  0  0
 26 27  1  0  0  0  0
 26 28  1  0  0  0  0
 28 29  1  0  0  0  0
 28 30  1  0  0  0  0
 28 31  1  0  0  0  0
M  END
$$$$

  -OEChem-01062216083D

 31 30  0     1  0  0  0  0  0999 V2000
   -1.8566   -3.2793    1.2383 H   0  0  0  0  0  0  0  0  0  0  0  0
   -2.2559   -2.4875    0.6002 C   0  0  0  0  0  0  0  0  0  0  0  0
   -1.6291   -2.3920   -0.2885 H   0  0  0  0  0  0  0  0  0  0  0  0
   -3.2630   -2.7673    0.2806 H   0  0  0  0  0  0  0  0  0  0  0  0
   -2.3123   -1.1728    1.3653 C   0  0  0  0  0  0  0  0  0  0  0  0
   -3.1471   -1.0371    2.2406 O   0  0  0  0  0  0  0  0  0  0  0  0
   -1.8951    0.0172    0.8251 N   0  0  0  0  0  0  0  0  0  0  0  0
   -2.5080    0.7528    1.1696 H   0  0  0  0  0  0  0  0  0  0  0  0
   -0.5268    0.4934    0.4993 C   0  0  1  0  0  0  0  0  0  0  0  0
   -0.1270    0.8915    1.4366 H   0  0  0  0  0  0  0  0  0  0  0  0
    0.5717   -0.5174    0.0244 C   0  0  1  0  0  0  0  0  0  0  0  0
    0.1885   -1.0311   -0.8634 H   0  0  0  0  0  0  0  0  0  0  0  0
    1.8656    0.2312   -0.3743 C   0  0  0  0  0  0  0  0  0  0  0  0
    2.2689    0.7831    0.4804 H   0  0  0  0  0  0  0  0  0  0  0  0
    2.6300   -0.4629   -0.7306 H   0  0  0  0  0  0  0  0  0  0  0  0
    1.6866    0.9371   -1.1896 H   0  0  0  0  0  0  0  0  0  0  0  0
    0.9330   -1.5774    1.1035 C   0  0  0  0  0  0  0  0  0  0  0  0
    0.0518   -2.0193    1.5530 H   0  0  0  0  0  0  0  0  0  0  0  0
    1.4727   -1.0839    1.9185 H   0  0  0  0  0  0  0  0  0  0  0  0
    1.7977   -2.7235    0.5664 C   0  0  0  0  0  0  0  0  0  0  0  0
    2.8001   -2.3793    0.2993 H   0  0  0  0  0  0  0  0  0  0  0  0
    1.9035   -3.4971    1.3331 H   0  0  0  0  0  0  0  0  0  0  0  0
    1.3314   -3.1736   -0.3155 H   0  0  0  0  0  0  0  0  0  0  0  0
   -0.6923    1.7202   -0.4279 C   0  0  0  0  0  0  0  0  0  0  0  0
   -0.8055    1.5863   -1.6390 O   0  0  0  0  0  0  0  0  0  0  0  0
   -0.7884    2.9887    0.1169 N   0  0  0  0  0  0  0  0  0  0  0  0
   -0.7414    3.0766    1.1274 H   0  0  0  0  0  0  0  0  0  0  0  0
   -1.0290    4.1842   -0.6829 C   0  0  0  0  0  0  0  0  0  0  0  0
   -1.9897    4.1095   -1.2032 H   0  0  0  0  0  0  0  0  0  0  0  0
   -1.0508    5.0708   -0.0419 H   0  0  0  0  0  0  0  0  0  0  0  0
   -0.2351    4.3151   -1.4258 H   0  0  0  0  0  0  0  0  0  0  0  0
  1  2  1  0  0  0  0
  2  3  1  0  0  0  0
  2  4  1  0  0  0  0
  2  5  1  0  0  0  0
  5  6  2  0  0  0  0
  5  7  1  0  0  0  0
  7  8  1  0  0  0  0
  7  9  1  0  0  0  0
  9 10  1  0  0  0  0
  9 11  1  0  0  0  0
  9 24  1  0  0  0  0
 11 12  1  0  0  0  0
 11 13  1  0  0  0  0
 11 17  1  0  0  0  0
 13 14  1  0  0  0  0
 13 15  1  0  0  0  0
 13 16  1  0  0  0  0
 17 18  1  0  0  0  0
 17 19  1  0  0  0  0
 17 20  1  0  0  0  0
 20 21  1  0  0  0  0
 20 22  1  0  0  0  0
 20 23  1  0  0  0  0
 24 25  2  0  0  0  0
 24 26  1  0  0  0  0
 26 27  1  0  0  0  0
 26 28  1  0  0  0  0
 28 29  1  0  0  0  0
 28 30  1  0  0  0  0
 28 31  1  0  0  0  0
M  END
$$$$

  -OEChem-01062216083D

 31 30  0     1  0  0  0  0  0999 V2000
   -1.8570   -3.2868    1.2453 H   0  0  0  0  0  0  0  0  0  0  0  0
   -2.2607   -2.4909    0.6151 C   0  0  0  0  0  0  0  0  0  0  0  0
   -1.6393   -2.3888   -0.2765 H   0  0  0  0  0  0  0  0  0  0  0  0
   -3.2693   -2.7689    0.2991 H   0  0  0  0  0  0  0  0  0  0  0  0
   -2.3140   -1.1820    1.3903 C   0  0  0  0  0  0  0  0  0  0  0  0
   -3.1366   -1.0582    2.2789 O   0  0  0  0  0  0  0  0  0  0  0  0
   -1.9073    0.0124    0.8522 N   0  0  0  0  0  0  0  0  0  0  0  0
   -2.5244    0.7435    1.1992 H   0  0  0  0  0  0  0  0  0  0  0  0
   -0.5426    0.4988    0.5273 C   0  0  1  0  0  0  0  0  0  0  0  0
   -0.1473    0.8898    1.4695 H   0  0  0  0  0  0  0  0  0  0  0  0
    0.5577   -0.5039    0.0410 C   0  0  1  0  0  0  0  0  0  0  0  0
    0.1679   -1.0149   -0.8456 H   0  0  0  0  0  0  0  0  0  0  0  0
    1.8407    0.2528   -0.3743 C   0  0  0  0  0  0  0  0  0  0  0  0
    2.2453    0.8178    0.4712 H   0  0  0  0  0  0  0  0  0  0  0  0
    2.6095   -0.4365   -0.7302 H   0  0  0  0  0  0  0  0  0  0  0  0
    1.6444    0.9471   -1.1962 H   0  0  0  0  0  0  0  0  0  0  0  0
    0.9293   -1.5725    1.1073 C   0  0  0  0  0  0  0  0  0  0  0  0
    0.0527   -2.0228    1.5578 H   0  0  0  0  0  0  0  0  0  0  0  0
    1.4720   -1.0840    1.9231 H   0  0  0  0  0  0  0  0  0  0  0  0
    1.7965   -2.7086    0.5537 C   0  0  0  0  0  0  0  0  0  0  0  0
    2.7970   -2.3571    0.2887 H   0  0  0  0  0  0  0  0  0  0  0  0
    1.9068   -3.4915    1.3103 H   0  0  0  0  0  0  0  0  0  0  0  0
    1.3301   -3.1493   -0.3329 H   0  0  0  0  0  0  0  0  0  0  0  0
   -0.6955    1.7278   -0.3982 C   0  0  0  0  0  0  0  0  0  0  0  0
   -1.0099    1.5906   -1.5726 O   0  0  0  0  0  0  0  0  0  0  0  0
   -0.4833    3.0034    0.0947 N   0  0  0  0  0  0  0  0  0  0  0  0
   -0.2555    3.1013    1.0793 H   0  0  0  0  0  0  0  0  0  0  0  0
   -0.6387    4.2064   -0.7145 C   0  0  0  0  0  0  0  0  0  0  0  0
   -1.6716    4.3005   -1.0660 H   0  0  0  0  0  0  0  0  0  0  0  0
   -0.3915    5.0940   -0.1242 H   0  0  0  0  0  0  0  0  0  0  0  0
    0.0275    4.1735   -1.5831 H   0  0  0  0  0  0  0  0  0  0  0  0
  1  2  1  0  0  0  0
  2  3  1  0  0  0  0
  2  4  1  0  0  0  0
  2  5  1  0  0  0  0
  5  6  2  0  0  0  0
  5  7  1  0  0  0  0
  7  8  1  0  0  0  0
  7  9  1  0  0  0  0
  9 10  1  0  0  0  0
  9 11  1  0  0  0  0
  9 24  1  0  0  0  0
 11 12  1  0  0  0  0
 11 13  1  0  0  0  0
 11 17  1  0  0  0  0
 13 14  1  0  0  0  0
 13 15  1  0  0  0  0
 13 16  1  0  0  0  0
 17 18  1  0  0  0  0
 17 19  1  0  0  0  0
 17 20  1  0  0  0  0
 20 21  1  0  0  0  0
 20 22  1  0  0  0  0
 20 23  1  0  0  0  0
 24 25  2  0  0  0  0
 24 26  1  0  0  0  0
 26 27  1  0  0  0  0
 26 28  1  0  0  0  0
 28 29  1  0  0  0  0
 28 30  1  0  0  0  0
 28 31  1  0  0  0  0
M  END
$$$$

  -OEChem-01062216083D

 31 30  0     1  0  0  0  0  0999 V2000
   -1.8685   -3.2903    1.2365 H   0  0  0  0  0  0  0  0  0  0  0  0
   -2.2597   -2.4904    0.6037 C   0  0  0  0  0  0  0  0  0  0  0  0
   -1.6236   -2.3857   -0.2771 H   0  0  0  0  0  0  0  0  0  0  0  0
   -3.2641   -2.7634    0.2702 H   0  0  0  0  0  0  0  0  0  0  0  0
   -2.3220   -1.1853    1.3847 C   0  0  0  0  0  0  0  0  0  0  0  0
   -3.1521   -1.0699    2.2674 O   0  0  0  0  0  0  0  0  0  0  0  0
   -1.9119    0.0118    0.8546 N   0  0  0  0  0  0  0  0  0  0  0  0
   -2.5406    0.7418    1.1826 H   0  0  0  0  0  0  0  0  0  0  0  0
   -0.5470    0.5070    0.5421 C   0  0  1  0  0  0  0  0  0  0  0  0
   -0.1648    0.8940    1.4915 H   0  0  0  0  0  0  0  0  0  0  0  0
    0.5579   -0.4912    0.0582 C   0  0  1  0  0  0  0  0  0  0  0  0
    0.1704   -1.0005   -0.8303 H   0  0  0  0  0  0  0  0  0  0  0  0
    1.8409    0.2649   -0.3569 C   0  0  0  0  0  0  0  0  0  0  0  0
    2.2427    0.8334    0.4876 H   0  0  0  0  0  0  0  0  0  0  0  0
    2.6119   -0.4244   -0.7081 H   0  0  0  0  0  0  0  0  0  0  0  0
    1.6446    0.9550   -1.1826 H   0  0  0  0  0  0  0  0  0  0  0  0
    0.9236   -1.5635    1.1227 C   0  0  0  0  0  0  0  0  0  0  0  0
    0.0446   -2.0169    1.5656 H   0  0  0  0  0  0  0  0  0  0  0  0
    1.4597   -1.0770    1.9442 H   0  0  0  0  0  0  0  0  0  0  0  0
    1.7962   -2.6966    0.5715 C   0  0  0  0  0  0  0  0  0  0  0  0
    2.7977   -2.3432    0.3133 H   0  0  0  0  0  0  0  0  0  0  0  0
    1.9036   -3.4805    1.3272 H   0  0  0  0  0  0  0  0  0  0  0  0
    1.3351   -3.1363   -0.3183 H   0  0  0  0  0  0  0  0  0  0  0  0
   -0.6848    1.7408   -0.3804 C   0  0  0  0  0  0  0  0  0  0  0  0
   -1.2282    1.6455   -1.4722 O   0  0  0  0  0  0  0  0  0  0  0  0
   -0.1870    2.9706    0.0138 N   0  0  0  0  0  0  0  0  0  0  0  0
    0.2563    3.0349    0.9249 H   0  0  0  0  0  0  0  0  0  0  0  0
   -0.2858    4.1713   -0.8079 C   0  0  0  0  0  0  0  0  0  0  0  0
   -1.3354    4.4363   -0.9734 H   0  0  0  0  0  0  0  0  0  0  0  0
    0.2088    5.0117   -0.3116 H   0  0  0  0  0  0  0  0  0  0  0  0
    0.1949    4.0130   -1.7793 H   0  0  0  0  0  0  0  0  0  0  0  0
  1  2  1  0  0  0  0
  2  3  1  0  0  0  0
  2  4  1  0  0  0  0
  2  5  1  0  0  0  0
  5  6  2  0  0  0  0
  5  7  1  0  0  0  0
  7  8  1  0  0  0  0
  7  9  1  0  0  0  0
  9 10  1  0  0  0  0
  9 11  1  0  0  0  0
  9 24  1  0  0  0  0
 11 12  1  0  0  0  0
 11 13  1  0  0  0  0
 11 17  1  0  0  0  0
 13 14  1  0  0  0  0
 13 15  1  0  0  0  0
 13 16  1  0  0  0  0
 17 18  1  0  0  0  0
 17 19  1  0  0  0  0
 17 20  1  0  0  0  0
 20 21  1  0  0  0  0
 20 22  1  0  0  0  0
 20 23  1  0  0  0  0
 24 25  2  0  0  0  0
 24 26  1  0  0  0  0
 26 27  1  0  0  0  0
 26 28  1  0  0  0  0
 28 29  1  0  0  0  0
 28 30  1  0  0  0  0
 28 31  1  0  0  0  0
M  END
$$$$

  -OEChem-01062216083D

 31 30  0     1  0  0  0  0  0999 V2000
   -1.8337   -3.2755    1.2316 H   0  0  0  0  0  0  0  0  0  0  0  0
   -2.2440   -2.4855    0.5982 C   0  0  0  0  0  0  0  0  0  0  0  0
   -1.6181   -2.3740   -0.2889 H   0  0  0  0  0  0  0  0  0  0  0  0
   -3.2461   -2.7789    0.2743 H   0  0  0  0  0  0  0  0  0  0  0  0
   -2.3232   -1.1770    1.3727 C   0  0  0  0  0  0  0  0  0  0  0  0
   -3.1742   -1.0623    2.2354 O   0  0  0  0  0  0  0  0  0  0  0  0
   -1.8991    0.0195    0.8507 N   0  0  0  0  0  0  0  0  0  0  0  0
   -2.5417    0.7523    1.1449 H   0  0  0  0  0  0  0  0  0  0  0  0
   -0.5348    0.5211    0.5410 C   0  0  1  0  0  0  0  0  0  0  0  0
   -0.1587    0.9088    1.4924 H   0  0  0  0  0  0  0  0  0  0  0  0
    0.5659   -0.4885    0.0664 C   0  0  1  0  0  0  0  0  0  0  0  0
    0.1699   -1.0056   -0.8135 H   0  0  0  0  0  0  0  0  0  0  0  0
    1.8559    0.2423   -0.3696 C   0  0  0  0  0  0  0  0  0  0  0  0
    2.2680    0.8253    0.4598 H   0  0  0  0  0  0  0  0  0  0  0  0
    2.6177   -0.4638   -0.7075 H   0  0  0  0  0  0  0  0  0  0  0  0
    1.6633    0.9132   -1.2119 H   0  0  0  0  0  0  0  0  0  0  0  0
    0.9224   -1.5534    1.1425 C   0  0  0  0  0  0  0  0  0  0  0  0
    0.0407   -1.9938    1.5925 H   0  0  0  0  0  0  0  0  0  0  0  0
    1.4622   -1.0612    1.9580 H   0  0  0  0  0  0  0  0  0  0  0  0
    1.7887   -2.6995    0.6081 C   0  0  0  0  0  0  0  0  0  0  0  0
    2.7951   -2.3573    0.3537 H   0  0  0  0  0  0  0  0  0  0  0  0
    1.8841   -3.4772    1.3720 H   0  0  0  0  0  0  0  0  0  0  0  0
    1.3298   -3.1438   -0.2805 H   0  0  0  0  0  0  0  0  0  0  0  0
   -0.6637    1.7636   -0.3757 C   0  0  0  0  0  0  0  0  0  0  0  0
   -1.4400    1.7692   -1.3213 O   0  0  0  0  0  0  0  0  0  0  0  0
    0.0884    2.8999   -0.1298 N   0  0  0  0  0  0  0  0  0  0  0  0
    0.7279    2.8846    0.6585 H   0  0  0  0  0  0  0  0  0  0  0  0
    0.0036    4.1064   -0.9445 C   0  0  0  0  0  0  0  0  0  0  0  0
   -1.0023    4.5355   -0.8885 H   0  0  0  0  0  0  0  0  0  0  0  0
    0.7191    4.8541   -0.5893 H   0  0  0  0  0  0  0  0  0  0  0  0
    0.2325    3.8803   -1.9913 H   0  0  0  0  0  0  0  0  0  0  0  0
  1  2  1  0  0  0  0
  2  3  1  0  0  0  0
  2  4  1  0  0  0  0
  2  5  1  0  0  0  0
  5  6  2  0  0  0  0
  5  7  1  0  0  0  0
  7  8  1  0  0  0  0
  7  9  1  0  0  0  0
  9 10  1  0  0  0  0
  9 11  1  0  0  0  0
  9 24  1  0  0  0  0
 11 12  1  0  0  0  0
 11 13  1  0  0  0  0
 11 17  1  0  0  0  0
 13 14  1  0  0  0  0
 13 15  1  0  0  0  0
 13 16  1  0  0  0  0
 17 18  1  0  0  0  0
 17 19  1  0  0  0  0
 17 20  1  0  0  0  0
 20 21  1  0  0  0  0
 20 22  1  0  0  0  0
 20 23  1  0  0  0  0
 24 25  2  0  0  0  0
 24 26  1  0  0  0  0
 26 27  1  0  0  0  0
 26 28  1  0  0  0  0
 28 29  1  0  0  0  0
 28 30  1  0  0  0  0
 28 31  1  0  0  0  0
M  END
$$$$

  -OEChem-01062216083D

 31 30  0     1  0  0  0  0  0999 V2000
   -1.8055   -3.2612    1.2104 H   0  0  0  0  0  0  0  0  0  0  0  0
   -2.2284   -2.4741    0.5818 C   0  0  0  0  0  0  0  0  0  0  0  0
   -1.6138   -2.3573   -0.3122 H   0  0  0  0  0  0  0  0  0  0  0  0
   -3.2314   -2.7763    0.2690 H   0  0  0  0  0  0  0  0  0  0  0  0
   -2.3122   -1.1666    1.3582 C   0  0  0  0  0  0  0  0  0  0  0  0
   -3.1863   -1.0499    2.1974 O   0  0  0  0  0  0  0  0  0  0  0  0
   -1.8628    0.0295    0.8546 N   0  0  0  0  0  0  0  0  0  0  0  0
   -2.5148    0.7685    1.1123 H   0  0  0  0  0  0  0  0  0  0  0  0
   -0.4988    0.5338    0.5397 C   0  0  1  0  0  0  0  0  0  0  0  0
   -0.1142    0.9144    1.4908 H   0  0  0  0  0  0  0  0  0  0  0  0
    0.5855   -0.4970    0.0620 C   0  0  1  0  0  0  0  0  0  0  0  0
    0.1693   -1.0176   -0.8062 H   0  0  0  0  0  0  0  0  0  0  0  0
    1.8873    0.1887   -0.4056 C   0  0  0  0  0  0  0  0  0  0  0  0
    2.3143    0.7968    0.3977 H   0  0  0  0  0  0  0  0  0  0  0  0
    2.6349   -0.5436   -0.7176 H   0  0  0  0  0  0  0  0  0  0  0  0
    1.7008    0.8237   -1.2762 H   0  0  0  0  0  0  0  0  0  0  0  0
    0.9272   -1.5583    1.1481 C   0  0  0  0  0  0  0  0  0  0  0  0
    0.0409   -1.9759    1.6096 H   0  0  0  0  0  0  0  0  0  0  0  0
    1.4797   -1.0652    1.9548 H   0  0  0  0  0  0  0  0  0  0  0  0
    1.7716   -2.7276    0.6287 C   0  0  0  0  0  0  0  0  0  0  0  0
    2.7870   -2.4107    0.3782 H   0  0  0  0  0  0  0  0  0  0  0  0
    1.8449   -3.5002    1.4002 H   0  0  0  0  0  0  0  0  0  0  0  0
    1.3083   -3.1697   -0.2587 H   0  0  0  0  0  0  0  0  0  0  0  0
   -0.6342    1.7971   -0.3553 C   0  0  0  0  0  0  0  0  0  0  0  0
   -1.6105    1.9557   -1.0764 O   0  0  0  0  0  0  0  0  0  0  0  0
    0.3106    2.8093   -0.3126 N   0  0  0  0  0  0  0  0  0  0  0  0
    1.1117    2.6827    0.2981 H   0  0  0  0  0  0  0  0  0  0  0  0
    0.2109    4.0347   -1.0973 C   0  0  0  0  0  0  0  0  0  0  0  0
   -0.6875    4.5956   -0.8186 H   0  0  0  0  0  0  0  0  0  0  0  0
    1.0840    4.6699   -0.9199 H   0  0  0  0  0  0  0  0  0  0  0  0
    0.1642    3.8029   -2.1666 H   0  0  0  0  0  0  0  0  0  0  0  0
  1  2  1  0  0  0  0
  2  3  1  0  0  0  0
  2  4  1  0  0  0  0
  2  5  1  0  0  0  0
  5  6  2  0  0  0  0
  5  7  1  0  0  0  0
  7  8  1  0  0  0  0
  7  9  1  0  0  0  0
  9 10  1  0  0  0  0
  9 11  1  0  0  0  0
  9 24  1  0  0  0  0
 11 12  1  0  0  0  0
 11 13  1  0  0  0  0
 11 17  1  0  0  0  0
 13 14  1  0  0  0  0
 13 15  1  0  0  0  0
 13 16  1  0  0  0  0
 17 18  1  0  0  0  0
 17 19  1  0  0  0  0
 17 20  1  0  0  0  0
 20 21  1  0  0  0  0
 20 22  1  0  0  0  0
 20 23  1  0  0  0  0
 24 25  2  0  0  0  0
 24 26  1  0  0  0  0
 26 27  1  0  0  0  0
 26 28  1  0  0  0  0
 28 29  1  0  0  0  0
 28 30  1  0  0  0  0
 28 31  1  0  0  0  0
M  END
$$$$

  -OEChem-01062216083D

 31 30  0     1  0  0  0  0  0999 V2000
   -1.7858   -3.2551    1.1951 H   0  0  0  0  0  0  0  0  0  0  0  0
   -2.2019   -2.4719    0.5574 C   0  0  0  0  0  0  0  0  0  0  0  0
   -1.5774   -2.3591   -0.3296 H   0  0  0  0  0  0  0  0  0  0  0  0
   -3.2001   -2.7781    0.2335 H   0  0  0  0  0  0  0  0  0  0  0  0
   -2.2998   -1.1609    1.3273 C   0  0  0  0  0  0  0  0  0  0  0  0
   -3.2008   -1.0403    2.1368 O   0  0  0  0  0  0  0  0  0  0  0  0
   -1.8226    0.0340    0.8439 N   0  0  0  0  0  0  0  0  0  0  0  0
   -2.4805    0.7803    1.0681 H   0  0  0  0  0  0  0  0  0  0  0  0
   -0.4570    0.5392    0.5313 C   0  0  1  0  0  0  0  0  0  0  0  0
   -0.0668    0.9153    1.4819 H   0  0  0  0  0  0  0  0  0  0  0  0
    0.6160   -0.5119    0.0590 C   0  0  1  0  0  0  0  0  0  0  0  0
    0.1921   -1.0347   -0.8038 H   0  0  0  0  0  0  0  0  0  0  0  0
    1.9366    0.1317   -0.4143 C   0  0  0  0  0  0  0  0  0  0  0  0
    2.3540    0.7762    0.3655 H   0  0  0  0  0  0  0  0  0  0  0  0
    2.6837   -0.6217   -0.6707 H   0  0  0  0  0  0  0  0  0  0  0  0
    1.7771    0.7159   -1.3241 H   0  0  0  0  0  0  0  0  0  0  0  0
    0.9360   -1.5670    1.1598 C   0  0  0  0  0  0  0  0  0  0  0  0
    0.0423   -1.9616    1.6266 H   0  0  0  0  0  0  0  0  0  0  0  0
    1.4943   -1.0719    1.9613 H   0  0  0  0  0  0  0  0  0  0  0  0
    1.7634   -2.7596    0.6642 C   0  0  0  0  0  0  0  0  0  0  0  0
    2.7897   -2.4689    0.4267 H   0  0  0  0  0  0  0  0  0  0  0  0
    1.8082   -3.5258    1.4443 H   0  0  0  0  0  0  0  0  0  0  0  0
    1.3037   -3.2008   -0.2256 H   0  0  0  0  0  0  0  0  0  0  0  0
   -0.6087    1.8225   -0.3425 C   0  0  0  0  0  0  0  0  0  0  0  0
   -1.6998    2.1387   -0.8011 O   0  0  0  0  0  0  0  0  0  0  0  0
    0.4377    2.7058   -0.5488 N   0  0  0  0  0  0  0  0  0  0  0  0
    1.3407    2.4648   -0.1527 H   0  0  0  0  0  0  0  0  0  0  0  0
    0.3134    3.9428   -1.3126 C   0  0  0  0  0  0  0  0  0  0  0  0
   -0.4304    4.6037   -0.8549 H   0  0  0  0  0  0  0  0  0  0  0  0
    1.2725    4.4690   -1.3388 H   0  0  0  0  0  0  0  0  0  0  0  0
    0.0082    3.7289   -2.3425 H   0  0  0  0  0  0  0  0  0  0  0  0
  1  2  1  0  0  0  0
  2  3  1  0  0  0  0
  2  4  1  0  0  0  0
  2  5  1  0  0  0  0
  5  6  2  0  0  0  0
  5  7  1  0  0  0  0
  7  8  1  0  0  0  0
  7  9  1  0  0  0  0
  9 10  1  0  0  0  0
  9 11  1  0  0  0  0
  9 24  1  0  0  0  0
 11 12  1  0  0  0  0
 11 13  1  0  0  0  0
 11 17  1  0  0  0  0
 13 14  1  0  0  0  0
 13 15  1  0  0  0  0
 13 16  1  0  0  0  0
 17 18  1  0  0  0  0
 17 19  1  0  0  0  0
 17 20  1  0  0  0  0
 20 21  1  0  0  0  0
 20 22  1  0  0  0  0
 20 23  1  0  0  0  0
 24 25  2  0  0  0  0
 24 26  1  0  0  0  0
 26 27  1  0  0  0  0
 26 28  1  0  0  0  0
 28 29  1  0  0  0  0
 28 30  1  0  0  0  0
 28 31  1  0  0  0  0
M  END
$$$$
