default_name
  -OEChem-01062215323D

 30 30  0     1  0  0  0  0  0999 V2000
   -3.5507   -3.2183    1.8116 H   0  0  0  0  0  0  0  0  0  0  0  0
   -3.4597   -2.3913    1.1076 C   0  0  0  0  0  0  0  0  0  0  0  0
   -4.1577   -1.6043    1.3866 H   0  0  0  0  0  0  0  0  0  0  0  0
   -3.6807   -2.7523    0.1036 H   0  0  0  0  0  0  0  0  0  0  0  0
   -2.0477   -1.8543    1.1546 C   0  0  0  0  0  0  0  0  0  0  0  0
   -1.2227   -2.3443    1.9146 O   0  0  0  0  0  0  0  0  0  0  0  0
   -1.7517   -0.8483    0.3266 N   0  0  0  0  0  0  0  0  0  0  0  0
   -2.4847   -0.5123   -0.2804 H   0  0  0  0  0  0  0  0  0  0  0  0
   -0.4117   -0.2463    0.2186 C   0  0  1  0  0  0  0  0  0  0  0  0
   -0.1646    0.2092    1.1808 H   0  0  0  0  0  0  0  0  0  0  0  0
    0.6166   -1.3741   -0.0302 C   0  0  0  0  0  0  0  0  0  0  0  0
    0.3344   -1.9078   -0.9412 H   0  0  0  0  0  0  0  0  0  0  0  0
    1.5966   -0.9272   -0.2110 H   0  0  0  0  0  0  0  0  0  0  0  0
    0.7572   -2.3766    1.0956 C   0  0  0  0  0  0  0  0  0  0  0  0
    1.4104   -2.1481    2.2913 N   0  3  0  0  0  0  0  0  0  0  0  0
    1.8100   -1.2422    2.5527 H   0  0  0  0  0  0  0  0  0  0  0  0
    1.3301   -3.2656    3.0405 C   0  0  0  0  0  0  0  0  0  0  0  0
    1.7416   -3.3836    4.0409 H   0  0  0  0  0  0  0  0  0  0  0  0
    0.6411   -4.1988    2.3457 N   0  0  0  0  0  0  0  0  0  0  0  0
    0.4229   -5.1394    2.6637 H   0  0  0  0  0  0  0  0  0  0  0  0
    0.2739   -3.6569    1.1217 C   0  0  0  0  0  0  0  0  0  0  0  0
   -0.2886   -4.1455    0.3310 H   0  0  0  0  0  0  0  0  0  0  0  0
   -0.3889    0.8894   -0.8199 C   0  0  0  0  0  0  0  0  0  0  0  0
   -1.4068    1.1847   -1.4479 O   0  0  0  0  0  0  0  0  0  0  0  0
    0.7839    1.5092   -0.9999 N   0  0  0  0  0  0  0  0  0  0  0  0
    1.5614    1.2073   -0.4327 H   0  0  0  0  0  0  0  0  0  0  0  0
    1.0308    2.5905   -1.9587 C   0  0  0  0  0  0  0  0  0  0  0  0
    1.0323    3.5539   -1.4449 H   0  0  0  0  0  0  0  0  0  0  0  0
    2.0017    2.4500   -2.4367 H   0  0  0  0  0  0  0  0  0  0  0  0
    0.2613    2.6072   -2.7334 H   0  0  0  0  0  0  0  0  0  0  0  0
  5  6  2  0  0  0  0
  5  7  1  0  0  0  0
  2  3  1  0  0  0  0
  2  4  1  0  0  0  0
  2  5  1  0  0  0  0
  1  2  1  0  0  0  0
 23 24  2  0  0  0  0
 23 25  1  0  0  0  0
 21 22  1  0  0  0  0
 19 20  1  0  0  0  0
 19 21  1  0  0  0  0
 17 18  1  0  0  0  0
 17 19  1  0  0  0  0
 15 16  1  0  0  0  0
 15 17  2  0  0  0  0
 14 15  1  0  0  0  0
 14 21  2  0  0  0  0
 11 12  1  0  0  0  0
 11 13  1  0  0  0  0
 11 14  1  0  0  0  0
  9 10  1  0  0  0  0
  9 11  1  0  0  0  0
  9 23  1  0  0  0  0
  7  8  1  0  0  0  0
  7  9  1  0  0  0  0
 27 28  1  0  0  0  0
 27 29  1  0  0  0  0
 27 30  1  0  0  0  0
 25 26  1  0  0  0  0
 25 27  1  0  0  0  0
M  CHG  1  15   1
M  END
$$$$
default_name
  -OEChem-01062215323D

 30 30  0     1  0  0  0  0  0999 V2000
   -3.5507   -3.2183    1.8116 H   0  0  0  0  0  0  0  0  0  0  0  0
   -3.4597   -2.3913    1.1076 C   0  0  0  0  0  0  0  0  0  0  0  0
   -4.1577   -1.6043    1.3866 H   0  0  0  0  0  0  0  0  0  0  0  0
   -3.6807   -2.7523    0.1036 H   0  0  0  0  0  0  0  0  0  0  0  0
   -2.0477   -1.8543    1.1546 C   0  0  0  0  0  0  0  0  0  0  0  0
   -1.2227   -2.3443    1.9146 O   0  0  0  0  0  0  0  0  0  0  0  0
   -1.7517   -0.8483    0.3266 N   0  0  0  0  0  0  0  0  0  0  0  0
   -2.4847   -0.5123   -0.2804 H   0  0  0  0  0  0  0  0  0  0  0  0
   -0.4117   -0.2463    0.2186 C   0  0  1  0  0  0  0  0  0  0  0  0
   -0.1646    0.2092    1.1808 H   0  0  0  0  0  0  0  0  0  0  0  0
    0.6166   -1.3741   -0.0302 C   0  0  0  0  0  0  0  0  0  0  0  0
    0.3344   -1.9078   -0.9412 H   0  0  0  0  0  0  0  0  0  0  0  0
    1.5966   -0.9272   -0.2110 H   0  0  0  0  0  0  0  0  0  0  0  0
    0.7572   -2.3766    1.0956 C   0  0  0  0  0  0  0  0  0  0  0  0
    1.4104   -2.1481    2.2913 N   0  3  0  0  0  0  0  0  0  0  0  0
    1.8100   -1.2422    2.5527 H   0  0  0  0  0  0  0  0  0  0  0  0
    1.3301   -3.2656    3.0405 C   0  0  0  0  0  0  0  0  0  0  0  0
    1.7416   -3.3836    4.0409 H   0  0  0  0  0  0  0  0  0  0  0  0
    0.6411   -4.1988    2.3457 N   0  0  0  0  0  0  0  0  0  0  0  0
    0.4229   -5.1394    2.6637 H   0  0  0  0  0  0  0  0  0  0  0  0
    0.2739   -3.6569    1.1217 C   0  0  0  0  0  0  0  0  0  0  0  0
   -0.2886   -4.1455    0.3310 H   0  0  0  0  0  0  0  0  0  0  0  0
   -0.3889    0.8894   -0.8199 C   0  0  0  0  0  0  0  0  0  0  0  0
   -1.4402    1.3706   -1.2454 O   0  0  0  0  0  0  0  0  0  0  0  0
    0.8181    1.2989   -1.2291 N   0  0  0  0  0  0  0  0  0  0  0  0
    1.6244    0.8544   -0.8172 H   0  0  0  0  0  0  0  0  0  0  0  0
    1.0630    2.3404   -2.2315 C   0  0  0  0  0  0  0  0  0  0  0  0
    1.3310    3.2779   -1.7403 H   0  0  0  0  0  0  0  0  0  0  0  0
    1.8852    2.0427   -2.8846 H   0  0  0  0  0  0  0  0  0  0  0  0
    0.1750    2.5070   -2.8449 H   0  0  0  0  0  0  0  0  0  0  0  0
  5  6  2  0  0  0  0
  5  7  1  0  0  0  0
  2  3  1  0  0  0  0
  2  4  1  0  0  0  0
  2  5  1  0  0  0  0
  1  2  1  0  0  0  0
 23 24  2  0  0  0  0
 23 25  1  0  0  0  0
 21 22  1  0  0  0  0
 19 20  1  0  0  0  0
 19 21  1  0  0  0  0
 17 18  1  0  0  0  0
 17 19  1  0  0  0  0
 15 16  1  0  0  0  0
 15 17  2  0  0  0  0
 14 15  1  0  0  0  0
 14 21  2  0  0  0  0
 11 12  1  0  0  0  0
 11 13  1  0  0  0  0
 11 14  1  0  0  0  0
  9 10  1  0  0  0  0
  9 11  1  0  0  0  0
  9 23  1  0  0  0  0
  7  8  1  0  0  0  0
  7  9  1  0  0  0  0
 27 28  1  0  0  0  0
 27 29  1  0  0  0  0
 27 30  1  0  0  0  0
 25 26  1  0  0  0  0
 25 27  1  0  0  0  0
M  CHG  1  15   1
M  END
$$$$
default_name
  -OEChem-01062215323D

 30 30  0     1  0  0  0  0  0999 V2000
   -3.5507   -3.2183    1.8116 H   0  0  0  0  0  0  0  0  0  0  0  0
   -3.4597   -2.3913    1.1076 C   0  0  0  0  0  0  0  0  0  0  0  0
   -4.1577   -1.6043    1.3866 H   0  0  0  0  0  0  0  0  0  0  0  0
   -3.6807   -2.7523    0.1036 H   0  0  0  0  0  0  0  0  0  0  0  0
   -2.0477   -1.8543    1.1546 C   0  0  0  0  0  0  0  0  0  0  0  0
   -1.2227   -2.3443    1.9146 O   0  0  0  0  0  0  0  0  0  0  0  0
   -1.7517   -0.8483    0.3266 N   0  0  0  0  0  0  0  0  0  0  0  0
   -2.4847   -0.5123   -0.2804 H   0  0  0  0  0  0  0  0  0  0  0  0
   -0.4117   -0.2463    0.2186 C   0  0  1  0  0  0  0  0  0  0  0  0
   -0.1646    0.2092    1.1808 H   0  0  0  0  0  0  0  0  0  0  0  0
    0.6166   -1.3741   -0.0302 C   0  0  0  0  0  0  0  0  0  0  0  0
    0.3344   -1.9078   -0.9412 H   0  0  0  0  0  0  0  0  0  0  0  0
    1.5966   -0.9272   -0.2110 H   0  0  0  0  0  0  0  0  0  0  0  0
    0.7572   -2.3766    1.0956 C   0  0  0  0  0  0  0  0  0  0  0  0
    1.4104   -2.1481    2.2913 N   0  3  0  0  0  0  0  0  0  0  0  0
    1.8100   -1.2422    2.5527 H   0  0  0  0  0  0  0  0  0  0  0  0
    1.3301   -3.2656    3.0405 C   0  0  0  0  0  0  0  0  0  0  0  0
    1.7416   -3.3836    4.0409 H   0  0  0  0  0  0  0  0  0  0  0  0
    0.6411   -4.1988    2.3457 N   0  0  0  0  0  0  0  0  0  0  0  0
    0.4229   -5.1394    2.6637 H   0  0  0  0  0  0  0  0  0  0  0  0
    0.2739   -3.6569    1.1217 C   0  0  0  0  0  0  0  0  0  0  0  0
   -0.2886   -4.1455    0.3310 H   0  0  0  0  0  0  0  0  0  0  0  0
   -0.3889    0.8894   -0.8199 C   0  0  0  0  0  0  0  0  0  0  0  0
   -1.4013    1.5552   -1.0427 O   0  0  0  0  0  0  0  0  0  0  0  0
    0.7706    1.0907   -1.4579 N   0  0  0  0  0  0  0  0  0  0  0  0
    1.5502    0.5041   -1.2020 H   0  0  0  0  0  0  0  0  0  0  0  0
    0.9984    2.0942   -2.5022 C   0  0  0  0  0  0  0  0  0  0  0  0
    1.5150    2.9602   -2.0836 H   0  0  0  0  0  0  0  0  0  0  0  0
    1.6159    1.6715   -3.2966 H   0  0  0  0  0  0  0  0  0  0  0  0
    0.0528    2.4257   -2.9365 H   0  0  0  0  0  0  0  0  0  0  0  0
  5  6  2  0  0  0  0
  5  7  1  0  0  0  0
  2  3  1  0  0  0  0
  2  4  1  0  0  0  0
  2  5  1  0  0  0  0
  1  2  1  0  0  0  0
 23 24  2  0  0  0  0
 23 25  1  0  0  0  0
 21 22  1  0  0  0  0
 19 20  1  0  0  0  0
 19 21  1  0  0  0  0
 17 18  1  0  0  0  0
 17 19  1  0  0  0  0
 15 16  1  0  0  0  0
 15 17  2  0  0  0  0
 14 15  1  0  0  0  0
 14 21  2  0  0  0  0
 11 12  1  0  0  0  0
 11 13  1  0  0  0  0
 11 14  1  0  0  0  0
  9 10  1  0  0  0  0
  9 11  1  0  0  0  0
  9 23  1  0  0  0  0
  7  8  1  0  0  0  0
  7  9  1  0  0  0  0
 27 28  1  0  0  0  0
 27 29  1  0  0  0  0
 27 30  1  0  0  0  0
 25 26  1  0  0  0  0
 25 27  1  0  0  0  0
M  CHG  1  15   1
M  END
$$$$
default_name
  -OEChem-01062215323D

 30 30  0     1  0  0  0  0  0999 V2000
   -3.5507   -3.2183    1.8116 H   0  0  0  0  0  0  0  0  0  0  0  0
   -3.4597   -2.3913    1.1076 C   0  0  0  0  0  0  0  0  0  0  0  0
   -4.1577   -1.6043    1.3866 H   0  0  0  0  0  0  0  0  0  0  0  0
   -3.6807   -2.7523    0.1036 H   0  0  0  0  0  0  0  0  0  0  0  0
   -2.0477   -1.8543    1.1546 C   0  0  0  0  0  0  0  0  0  0  0  0
   -1.2227   -2.3443    1.9146 O   0  0  0  0  0  0  0  0  0  0  0  0
   -1.7517   -0.8483    0.3266 N   0  0  0  0  0  0  0  0  0  0  0  0
   -2.4847   -0.5123   -0.2804 H   0  0  0  0  0  0  0  0  0  0  0  0
   -0.4117   -0.2463    0.2186 C   0  0  1  0  0  0  0  0  0  0  0  0
   -0.1646    0.2092    1.1808 H   0  0  0  0  0  0  0  0  0  0  0  0
    0.6166   -1.3741   -0.0302 C   0  0  0  0  0  0  0  0  0  0  0  0
    0.3344   -1.9078   -0.9412 H   0  0  0  0  0  0  0  0  0  0  0  0
    1.5966   -0.9272   -0.2110 H   0  0  0  0  0  0  0  0  0  0  0  0
    0.7572   -2.3766    1.0956 C   0  0  0  0  0  0  0  0  0  0  0  0
    1.4104   -2.1481    2.2913 N   0  3  0  0  0  0  0  0  0  0  0  0
    1.8100   -1.2422    2.5527 H   0  0  0  0  0  0  0  0  0  0  0  0
    1.3301   -3.2656    3.0405 C   0  0  0  0  0  0  0  0  0  0  0  0
    1.7416   -3.3836    4.0409 H   0  0  0  0  0  0  0  0  0  0  0  0
    0.6411   -4.1988    2.3457 N   0  0  0  0  0  0  0  0  0  0  0  0
    0.4229   -5.1394    2.6637 H   0  0  0  0  0  0  0  0  0  0  0  0
    0.2739   -3.6569    1.1217 C   0  0  0  0  0  0  0  0  0  0  0  0
   -0.2886   -4.1455    0.3310 H   0  0  0  0  0  0  0  0  0  0  0  0
   -0.3889    0.8894   -0.8199 C   0  0  0  0  0  0  0  0  0  0  0  0
   -1.2928    1.7259   -0.8536 O   0  0  0  0  0  0  0  0  0  0  0  0
    0.6447    0.8988   -1.6705 N   0  0  0  0  0  0  0  0  0  0  0  0
    1.3438    0.1801   -1.5609 H   0  0  0  0  0  0  0  0  0  0  0  0
    0.8412    1.8687   -2.7522 C   0  0  0  0  0  0  0  0  0  0  0  0
    1.5716    2.6226   -2.4517 H   0  0  0  0  0  0  0  0  0  0  0  0
    1.2123    1.3614   -3.6444 H   0  0  0  0  0  0  0  0  0  0  0  0
   -0.0969    2.3689   -3.0019 H   0  0  0  0  0  0  0  0  0  0  0  0
  5  6  2  0  0  0  0
  5  7  1  0  0  0  0
  2  3  1  0  0  0  0
  2  4  1  0  0  0  0
  2  5  1  0  0  0  0
  1  2  1  0  0  0  0
 23 24  2  0  0  0  0
 23 25  1  0  0  0  0
 21 22  1  0  0  0  0
 19 20  1  0  0  0  0
 19 21  1  0  0  0  0
 17 18  1  0  0  0  0
 17 19  1  0  0  0  0
 15 16  1  0  0  0  0
 15 17  2  0  0  0  0
 14 15  1  0  0  0  0
 14 21  2  0  0  0  0
 11 12  1  0  0  0  0
 11 13  1  0  0  0  0
 11 14  1  0  0  0  0
  9 10  1  0  0  0  0
  9 11  1  0  0  0  0
  9 23  1  0  0  0  0
  7  8  1  0  0  0  0
  7  9  1  0  0  0  0
 27 28  1  0  0  0  0
 27 29  1  0  0  0  0
 27 30  1  0  0  0  0
 25 26  1  0  0  0  0
 25 27  1  0  0  0  0
M  CHG  1  15   1
M  END
$$$$
default_name
  -OEChem-01062215323D

 30 30  0     1  0  0  0  0  0999 V2000
   -3.5507   -3.2183    1.8116 H   0  0  0  0  0  0  0  0  0  0  0  0
   -3.4597   -2.3913    1.1076 C   0  0  0  0  0  0  0  0  0  0  0  0
   -4.1577   -1.6043    1.3866 H   0  0  0  0  0  0  0  0  0  0  0  0
   -3.6807   -2.7523    0.1036 H   0  0  0  0  0  0  0  0  0  0  0  0
   -2.0477   -1.8543    1.1546 C   0  0  0  0  0  0  0  0  0  0  0  0
   -1.2227   -2.3443    1.9146 O   0  0  0  0  0  0  0  0  0  0  0  0
   -1.7517   -0.8483    0.3266 N   0  0  0  0  0  0  0  0  0  0  0  0
   -2.4847   -0.5123   -0.2804 H   0  0  0  0  0  0  0  0  0  0  0  0
   -0.4117   -0.2463    0.2186 C   0  0  1  0  0  0  0  0  0  0  0  0
   -0.1646    0.2092    1.1808 H   0  0  0  0  0  0  0  0  0  0  0  0
    0.6166   -1.3741   -0.0302 C   0  0  0  0  0  0  0  0  0  0  0  0
    0.3344   -1.9078   -0.9412 H   0  0  0  0  0  0  0  0  0  0  0  0
    1.5966   -0.9272   -0.2110 H   0  0  0  0  0  0  0  0  0  0  0  0
    0.7572   -2.3766    1.0956 C   0  0  0  0  0  0  0  0  0  0  0  0
    1.4104   -2.1481    2.2913 N   0  3  0  0  0  0  0  0  0  0  0  0
    1.8100   -1.2422    2.5527 H   0  0  0  0  0  0  0  0  0  0  0  0
    1.3301   -3.2656    3.0405 C   0  0  0  0  0  0  0  0  0  0  0  0
    1.7416   -3.3836    4.0409 H   0  0  0  0  0  0  0  0  0  0  0  0
    0.6411   -4.1988    2.3457 N   0  0  0  0  0  0  0  0  0  0  0  0
    0.4229   -5.1394    2.6637 H   0  0  0  0  0  0  0  0  0  0  0  0
    0.2739   -3.6569    1.1217 C   0  0  0  0  0  0  0  0  0  0  0  0
   -0.2886   -4.1455    0.3310 H   0  0  0  0  0  0  0  0  0  0  0  0
   -0.3889    0.8894   -0.8199 C   0  0  0  0  0  0  0  0  0  0  0  0
   -1.1220    1.8711   -0.6911 O   0  0  0  0  0  0  0  0  0  0  0  0
    0.4490    0.7362   -1.8526 N   0  0  0  0  0  0  0  0  0  0  0  0
    1.0194   -0.0955   -1.8693 H   0  0  0  0  0  0  0  0  0  0  0  0
    0.6023    1.6793   -2.9646 C   0  0  0  0  0  0  0  0  0  0  0  0
    1.4971    2.2879   -2.8193 H   0  0  0  0  0  0  0  0  0  0  0  0
    0.7019    1.1338   -3.9046 H   0  0  0  0  0  0  0  0  0  0  0  0
   -0.2639    2.3403   -3.0367 H   0  0  0  0  0  0  0  0  0  0  0  0
  5  6  2  0  0  0  0
  5  7  1  0  0  0  0
  2  3  1  0  0  0  0
  2  4  1  0  0  0  0
  2  5  1  0  0  0  0
  1  2  1  0  0  0  0
 23 24  2  0  0  0  0
 23 25  1  0  0  0  0
 21 22  1  0  0  0  0
 19 20  1  0  0  0  0
 19 21  1  0  0  0  0
 17 18  1  0  0  0  0
 17 19  1  0  0  0  0
 15 16  1  0  0  0  0
 15 17  2  0  0  0  0
 14 15  1  0  0  0  0
 14 21  2  0  0  0  0
 11 12  1  0  0  0  0
 11 13  1  0  0  0  0
 11 14  1  0  0  0  0
  9 10  1  0  0  0  0
  9 11  1  0  0  0  0
  9 23  1  0  0  0  0
  7  8  1  0  0  0  0
  7  9  1  0  0  0  0
 27 28  1  0  0  0  0
 27 29  1  0  0  0  0
 27 30  1  0  0  0  0
 25 26  1  0  0  0  0
 25 27  1  0  0  0  0
M  CHG  1  15   1
M  END
$$$$
default_name
  -OEChem-01062215323D

 30 30  0     1  0  0  0  0  0999 V2000
   -3.5507   -3.2183    1.8116 H   0  0  0  0  0  0  0  0  0  0  0  0
   -3.4597   -2.3913    1.1076 C   0  0  0  0  0  0  0  0  0  0  0  0
   -4.1577   -1.6043    1.3866 H   0  0  0  0  0  0  0  0  0  0  0  0
   -3.6807   -2.7523    0.1036 H   0  0  0  0  0  0  0  0  0  0  0  0
   -2.0477   -1.8543    1.1546 C   0  0  0  0  0  0  0  0  0  0  0  0
   -1.2227   -2.3443    1.9146 O   0  0  0  0  0  0  0  0  0  0  0  0
   -1.7517   -0.8483    0.3266 N   0  0  0  0  0  0  0  0  0  0  0  0
   -2.4847   -0.5123   -0.2804 H   0  0  0  0  0  0  0  0  0  0  0  0
   -0.4117   -0.2463    0.2186 C   0  0  1  0  0  0  0  0  0  0  0  0
   -0.1646    0.2092    1.1808 H   0  0  0  0  0  0  0  0  0  0  0  0
    0.6166   -1.3741   -0.0302 C   0  0  0  0  0  0  0  0  0  0  0  0
    0.3344   -1.9078   -0.9412 H   0  0  0  0  0  0  0  0  0  0  0  0
    1.5966   -0.9272   -0.2110 H   0  0  0  0  0  0  0  0  0  0  0  0
    0.7572   -2.3766    1.0956 C   0  0  0  0  0  0  0  0  0  0  0  0
    1.4104   -2.1481    2.2913 N   0  3  0  0  0  0  0  0  0  0  0  0
    1.8100   -1.2422    2.5527 H   0  0  0  0  0  0  0  0  0  0  0  0
    1.3301   -3.2656    3.0405 C   0  0  0  0  0  0  0  0  0  0  0  0
    1.7416   -3.3836    4.0409 H   0  0  0  0  0  0  0  0  0  0  0  0
    0.6411   -4.1988    2.3457 N   0  0  0  0  0  0  0  0  0  0  0  0
    0.4229   -5.1394    2.6637 H   0  0  0  0  0  0  0  0  0  0  0  0
    0.2739   -3.6569    1.1217 C   0  0  0  0  0  0  0  0  0  0  0  0
   -0.2886   -4.1455    0.3310 H   0  0  0  0  0  0  0  0  0  0  0  0
   -0.3889    0.8894   -0.8199 C   0  0  0  0  0  0  0  0  0  0  0  0
   -0.9007    1.9810   -0.5661 O   0  0  0  0  0  0  0  0  0  0  0  0
    0.1967    0.6140   -1.9917 N   0  0  0  0  0  0  0  0  0  0  0  0
    0.5990   -0.3038   -2.1063 H   0  0  0  0  0  0  0  0  0  0  0  0
    0.2979    1.5388   -3.1248 C   0  0  0  0  0  0  0  0  0  0  0  0
    1.2964    1.9791   -3.1614 H   0  0  0  0  0  0  0  0  0  0  0  0
    0.1194    1.0040   -4.0592 H   0  0  0  0  0  0  0  0  0  0  0  0
   -0.4368    2.3421   -3.0386 H   0  0  0  0  0  0  0  0  0  0  0  0
  5  6  2  0  0  0  0
  5  7  1  0  0  0  0
  2  3  1  0  0  0  0
  2  4  1  0  0  0  0
  2  5  1  0  0  0  0
  1  2  1  0  0  0  0
 23 24  2  0  0  0  0
 23 25  1  0  0  0  0
 21 22  1  0  0  0  0
 19 20  1  0  0  0  0
 19 21  1  0  0  0  0
 17 18  1  0  0  0  0
 17 19  1  0  0  0  0
 15 16  1  0  0  0  0
 15 17  2  0  0  0  0
 14 15  1  0  0  0  0
 14 21  2  0  0  0  0
 11 12  1  0  0  0  0
 11 13  1  0  0  0  0
 11 14  1  0  0  0  0
  9 10  1  0  0  0  0
  9 11  1  0  0  0  0
  9 23  1  0  0  0  0
  7  8  1  0  0  0  0
  7  9  1  0  0  0  0
 27 28  1  0  0  0  0
 27 29  1  0  0  0  0
 27 30  1  0  0  0  0
 25 26  1  0  0  0  0
 25 27  1  0  0  0  0
M  CHG  1  15   1
M  END
$$$$
default_name
  -OEChem-01062215323D

 30 30  0     1  0  0  0  0  0999 V2000
   -3.5507   -3.2183    1.8116 H   0  0  0  0  0  0  0  0  0  0  0  0
   -3.4597   -2.3913    1.1076 C   0  0  0  0  0  0  0  0  0  0  0  0
   -4.1577   -1.6043    1.3866 H   0  0  0  0  0  0  0  0  0  0  0  0
   -3.6807   -2.7523    0.1036 H   0  0  0  0  0  0  0  0  0  0  0  0
   -2.0477   -1.8543    1.1546 C   0  0  0  0  0  0  0  0  0  0  0  0
   -1.2227   -2.3443    1.9146 O   0  0  0  0  0  0  0  0  0  0  0  0
   -1.7517   -0.8483    0.3266 N   0  0  0  0  0  0  0  0  0  0  0  0
   -2.4847   -0.5123   -0.2804 H   0  0  0  0  0  0  0  0  0  0  0  0
   -0.4117   -0.2463    0.2186 C   0  0  1  0  0  0  0  0  0  0  0  0
   -0.1646    0.2092    1.1808 H   0  0  0  0  0  0  0  0  0  0  0  0
    0.6166   -1.3741   -0.0302 C   0  0  0  0  0  0  0  0  0  0  0  0
    0.3344   -1.9078   -0.9412 H   0  0  0  0  0  0  0  0  0  0  0  0
    1.5966   -0.9272   -0.2110 H   0  0  0  0  0  0  0  0  0  0  0  0
    0.7572   -2.3766    1.0956 C   0  0  0  0  0  0  0  0  0  0  0  0
    1.4104   -2.1481    2.2913 N   0  3  0  0  0  0  0  0  0  0  0  0
    1.8100   -1.2422    2.5527 H   0  0  0  0  0  0  0  0  0  0  0  0
    1.3301   -3.2656    3.0405 C   0  0  0  0  0  0  0  0  0  0  0  0
    1.7416   -3.3836    4.0409 H   0  0  0  0  0  0  0  0  0  0  0  0
    0.6411   -4.1988    2.3457 N   0  0  0  0  0  0  0  0  0  0  0  0
    0.4229   -5.1394    2.6637 H   0  0  0  0  0  0  0  0  0  0  0  0
    0.2739   -3.6569    1.1217 C   0  0  0  0  0  0  0  0  0  0  0  0
   -0.2886   -4.1455    0.3310 H   0  0  0  0  0  0  0  0  0  0  0  0
   -0.3889    0.8894   -0.8199 C   0  0  0  0  0  0  0  0  0  0  0  0
   -0.6439    2.0479   -0.4873 O   0  0  0  0  0  0  0  0  0  0  0  0
   -0.0948    0.5406   -2.0784 N   0  0  0  0  0  0  0  0  0  0  0  0
    0.1113   -0.4307   -2.2558 H   0  0  0  0  0  0  0  0  0  0  0  0
   -0.0512    1.4570   -3.2220 C   0  0  0  0  0  0  0  0  0  0  0  0
    0.9833    1.7172   -3.4547 H   0  0  0  0  0  0  0  0  0  0  0  0
   -0.4954    0.9810   -4.0979 H   0  0  0  0  0  0  0  0  0  0  0  0
   -0.6039    2.3740   -3.0073 H   0  0  0  0  0  0  0  0  0  0  0  0
  5  6  2  0  0  0  0
  5  7  1  0  0  0  0
  2  3  1  0  0  0  0
  2  4  1  0  0  0  0
  2  5  1  0  0  0  0
  1  2  1  0  0  0  0
 23 24  2  0  0  0  0
 23 25  1  0  0  0  0
 21 22  1  0  0  0  0
 19 20  1  0  0  0  0
 19 21  1  0  0  0  0
 17 18  1  0  0  0  0
 17 19  1  0  0  0  0
 15 16  1  0  0  0  0
 15 17  2  0  0  0  0
 14 15  1  0  0  0  0
 14 21  2  0  0  0  0
 11 12  1  0  0  0  0
 11 13  1  0  0  0  0
 11 14  1  0  0  0  0
  9 10  1  0  0  0  0
  9 11  1  0  0  0  0
  9 23  1  0  0  0  0
  7  8  1  0  0  0  0
  7  9  1  0  0  0  0
 27 28  1  0  0  0  0
 27 29  1  0  0  0  0
 27 30  1  0  0  0  0
 25 26  1  0  0  0  0
 25 27  1  0  0  0  0
M  CHG  1  15   1
M  END
$$$$
default_name
  -OEChem-01062215323D

 30 30  0     1  0  0  0  0  0999 V2000
   -3.5507   -3.2183    1.8116 H   0  0  0  0  0  0  0  0  0  0  0  0
   -3.4597   -2.3913    1.1076 C   0  0  0  0  0  0  0  0  0  0  0  0
   -4.1577   -1.6043    1.3866 H   0  0  0  0  0  0  0  0  0  0  0  0
   -3.6807   -2.7523    0.1036 H   0  0  0  0  0  0  0  0  0  0  0  0
   -2.0477   -1.8543    1.1546 C   0  0  0  0  0  0  0  0  0  0  0  0
   -1.2227   -2.3443    1.9146 O   0  0  0  0  0  0  0  0  0  0  0  0
   -1.7517   -0.8483    0.3266 N   0  0  0  0  0  0  0  0  0  0  0  0
   -2.4847   -0.5123   -0.2804 H   0  0  0  0  0  0  0  0  0  0  0  0
   -0.4117   -0.2463    0.2186 C   0  0  1  0  0  0  0  0  0  0  0  0
   -0.1646    0.2092    1.1808 H   0  0  0  0  0  0  0  0  0  0  0  0
    0.6166   -1.3741   -0.0302 C   0  0  0  0  0  0  0  0  0  0  0  0
    0.3344   -1.9078   -0.9412 H   0  0  0  0  0  0  0  0  0  0  0  0
    1.5966   -0.9272   -0.2110 H   0  0  0  0  0  0  0  0  0  0  0  0
    0.7572   -2.3766    1.0956 C   0  0  0  0  0  0  0  0  0  0  0  0
    1.4104   -2.1481    2.2913 N   0  3  0  0  0  0  0  0  0  0  0  0
    1.8100   -1.2422    2.5527 H   0  0  0  0  0  0  0  0  0  0  0  0
    1.3301   -3.2656    3.0405 C   0  0  0  0  0  0  0  0  0  0  0  0
    1.7416   -3.3836    4.0409 H   0  0  0  0  0  0  0  0  0  0  0  0
    0.6411   -4.1988    2.3457 N   0  0  0  0  0  0  0  0  0  0  0  0
    0.4229   -5.1394    2.6637 H   0  0  0  0  0  0  0  0  0  0  0  0
    0.2739   -3.6569    1.1217 C   0  0  0  0  0  0  0  0  0  0  0  0
   -0.2886   -4.1455    0.3310 H   0  0  0  0  0  0  0  0  0  0  0  0
   -0.3889    0.8894   -0.8199 C   0  0  0  0  0  0  0  0  0  0  0  0
   -0.3690    2.0675   -0.4599 O   0  0  0  0  0  0  0  0  0  0  0  0
   -0.4058    0.5209   -2.1067 N   0  0  0  0  0  0  0  0  0  0  0  0
   -0.4106   -0.4676   -2.3075 H   0  0  0  0  0  0  0  0  0  0  0  0
   -0.4213    1.4392   -3.2494 C   0  0  0  0  0  0  0  0  0  0  0  0
    0.5791    1.5199   -3.6792 H   0  0  0  0  0  0  0  0  0  0  0  0
   -1.1007    1.0662   -4.0179 H   0  0  0  0  0  0  0  0  0  0  0  0
   -0.7538    2.4339   -2.9451 H   0  0  0  0  0  0  0  0  0  0  0  0
  5  6  2  0  0  0  0
  5  7  1  0  0  0  0
  2  3  1  0  0  0  0
  2  4  1  0  0  0  0
  2  5  1  0  0  0  0
  1  2  1  0  0  0  0
 23 24  2  0  0  0  0
 23 25  1  0  0  0  0
 21 22  1  0  0  0  0
 19 20  1  0  0  0  0
 19 21  1  0  0  0  0
 17 18  1  0  0  0  0
 17 19  1  0  0  0  0
 15 16  1  0  0  0  0
 15 17  2  0  0  0  0
 14 15  1  0  0  0  0
 14 21  2  0  0  0  0
 11 12  1  0  0  0  0
 11 13  1  0  0  0  0
 11 14  1  0  0  0  0
  9 10  1  0  0  0  0
  9 11  1  0  0  0  0
  9 23  1  0  0  0  0
  7  8  1  0  0  0  0
  7  9  1  0  0  0  0
 27 28  1  0  0  0  0
 27 29  1  0  0  0  0
 27 30  1  0  0  0  0
 25 26  1  0  0  0  0
 25 27  1  0  0  0  0
M  CHG  1  15   1
M  END
$$$$
default_name
  -OEChem-01062215323D

 30 30  0     1  0  0  0  0  0999 V2000
   -3.5507   -3.2183    1.8116 H   0  0  0  0  0  0  0  0  0  0  0  0
   -3.4597   -2.3913    1.1076 C   0  0  0  0  0  0  0  0  0  0  0  0
   -4.1577   -1.6043    1.3866 H   0  0  0  0  0  0  0  0  0  0  0  0
   -3.6807   -2.7523    0.1036 H   0  0  0  0  0  0  0  0  0  0  0  0
   -2.0477   -1.8543    1.1546 C   0  0  0  0  0  0  0  0  0  0  0  0
   -1.2227   -2.3443    1.9146 O   0  0  0  0  0  0  0  0  0  0  0  0
   -1.7517   -0.8483    0.3266 N   0  0  0  0  0  0  0  0  0  0  0  0
   -2.4847   -0.5123   -0.2804 H   0  0  0  0  0  0  0  0  0  0  0  0
   -0.4117   -0.2463    0.2186 C   0  0  1  0  0  0  0  0  0  0  0  0
   -0.1646    0.2092    1.1808 H   0  0  0  0  0  0  0  0  0  0  0  0
    0.6166   -1.3741   -0.0302 C   0  0  0  0  0  0  0  0  0  0  0  0
    0.3344   -1.9078   -0.9412 H   0  0  0  0  0  0  0  0  0  0  0  0
    1.5966   -0.9272   -0.2110 H   0  0  0  0  0  0  0  0  0  0  0  0
    0.7572   -2.3766    1.0956 C   0  0  0  0  0  0  0  0  0  0  0  0
    1.4104   -2.1481    2.2913 N   0  3  0  0  0  0  0  0  0  0  0  0
    1.8100   -1.2422    2.5527 H   0  0  0  0  0  0  0  0  0  0  0  0
    1.3301   -3.2656    3.0405 C   0  0  0  0  0  0  0  0  0  0  0  0
    1.7416   -3.3836    4.0409 H   0  0  0  0  0  0  0  0  0  0  0  0
    0.6411   -4.1988    2.3457 N   0  0  0  0  0  0  0  0  0  0  0  0
    0.4229   -5.1394    2.6637 H   0  0  0  0  0  0  0  0  0  0  0  0
    0.2739   -3.6569    1.1217 C   0  0  0  0  0  0  0  0  0  0  0  0
   -0.2886   -4.1455    0.3310 H   0  0  0  0  0  0  0  0  0  0  0  0
   -0.3889    0.8894   -0.8199 C   0  0  0  0  0  0  0  0  0  0  0  0
   -0.0949    2.0382   -0.4859 O   0  0  0  0  0  0  0  0  0  0  0  0
   -0.7151    0.5563   -2.0748 N   0  0  0  0  0  0  0  0  0  0  0  0
   -0.9309   -0.4118   -2.2579 H   0  0  0  0  0  0  0  0  0  0  0  0
   -0.7872    1.4869   -3.2054 C   0  0  0  0  0  0  0  0  0  0  0  0
    0.1114    1.4009   -3.8196 H   0  0  0  0  0  0  0  0  0  0  0  0
   -1.6551    1.2540   -3.8247 H   0  0  0  0  0  0  0  0  0  0  0  0
   -0.8762    2.5177   -2.8561 H   0  0  0  0  0  0  0  0  0  0  0  0
  5  6  2  0  0  0  0
  5  7  1  0  0  0  0
  2  3  1  0  0  0  0
  2  4  1  0  0  0  0
  2  5  1  0  0  0  0
  1  2  1  0  0  0  0
 23 24  2  0  0  0  0
 23 25  1  0  0  0  0
 21 22  1  0  0  0  0
 19 20  1  0  0  0  0
 19 21  1  0  0  0  0
 17 18  1  0  0  0  0
 17 19  1  0  0  0  0
 15 16  1  0  0  0  0
 15 17  2  0  0  0  0
 14 15  1  0  0  0  0
 14 21  2  0  0  0  0
 11 12  1  0  0  0  0
 11 13  1  0  0  0  0
 11 14  1  0  0  0  0
  9 10  1  0  0  0  0
  9 11  1  0  0  0  0
  9 23  1  0  0  0  0
  7  8  1  0  0  0  0
  7  9  1  0  0  0  0
 27 28  1  0  0  0  0
 27 29  1  0  0  0  0
 27 30  1  0  0  0  0
 25 26  1  0  0  0  0
 25 27  1  0  0  0  0
M  CHG  1  15   1
M  END
$$$$
default_name
  -OEChem-01062215323D

 30 30  0     1  0  0  0  0  0999 V2000
   -3.5507   -3.2183    1.8116 H   0  0  0  0  0  0  0  0  0  0  0  0
   -3.4597   -2.3913    1.1076 C   0  0  0  0  0  0  0  0  0  0  0  0
   -4.1577   -1.6043    1.3866 H   0  0  0  0  0  0  0  0  0  0  0  0
   -3.6807   -2.7523    0.1036 H   0  0  0  0  0  0  0  0  0  0  0  0
   -2.0477   -1.8543    1.1546 C   0  0  0  0  0  0  0  0  0  0  0  0
   -1.2227   -2.3443    1.9146 O   0  0  0  0  0  0  0  0  0  0  0  0
   -1.7517   -0.8483    0.3266 N   0  0  0  0  0  0  0  0  0  0  0  0
   -2.4847   -0.5123   -0.2804 H   0  0  0  0  0  0  0  0  0  0  0  0
   -0.4117   -0.2463    0.2186 C   0  0  1  0  0  0  0  0  0  0  0  0
   -0.1646    0.2092    1.1808 H   0  0  0  0  0  0  0  0  0  0  0  0
    0.6166   -1.3741   -0.0302 C   0  0  0  0  0  0  0  0  0  0  0  0
    0.3344   -1.9078   -0.9412 H   0  0  0  0  0  0  0  0  0  0  0  0
    1.5966   -0.9272   -0.2110 H   0  0  0  0  0  0  0  0  0  0  0  0
    0.7572   -2.3766    1.0956 C   0  0  0  0  0  0  0  0  0  0  0  0
    1.4104   -2.1481    2.2913 N   0  3  0  0  0  0  0  0  0  0  0  0
    1.8100   -1.2422    2.5527 H   0  0  0  0  0  0  0  0  0  0  0  0
    1.3301   -3.2656    3.0405 C   0  0  0  0  0  0  0  0  0  0  0  0
    1.7416   -3.3836    4.0409 H   0  0  0  0  0  0  0  0  0  0  0  0
    0.6411   -4.1988    2.3457 N   0  0  0  0  0  0  0  0  0  0  0  0
    0.4229   -5.1394    2.6637 H   0  0  0  0  0  0  0  0  0  0  0  0
    0.2739   -3.6569    1.1217 C   0  0  0  0  0  0  0  0  0  0  0  0
   -0.2886   -4.1455    0.3310 H   0  0  0  0  0  0  0  0  0  0  0  0
   -0.3889    0.8894   -0.8199 C   0  0  0  0  0  0  0  0  0  0  0  0
    0.1598    1.9622   -0.5634 O   0  0  0  0  0  0  0  0  0  0  0  0
   -1.0015    0.6444   -1.9847 N   0  0  0  0  0  0  0  0  0  0  0  0
   -1.4143   -0.2673   -2.1104 H   0  0  0  0  0  0  0  0  0  0  0  0
   -1.1238    1.5966   -3.0928 C   0  0  0  0  0  0  0  0  0  0  0  0
   -0.3880    1.3681   -3.8664 H   0  0  0  0  0  0  0  0  0  0  0  0
   -2.1210    1.5314   -3.5314 H   0  0  0  0  0  0  0  0  0  0  0  0
   -0.9629    2.6197   -2.7465 H   0  0  0  0  0  0  0  0  0  0  0  0
  5  6  2  0  0  0  0
  5  7  1  0  0  0  0
  2  3  1  0  0  0  0
  2  4  1  0  0  0  0
  2  5  1  0  0  0  0
  1  2  1  0  0  0  0
 23 24  2  0  0  0  0
 23 25  1  0  0  0  0
 21 22  1  0  0  0  0
 19 20  1  0  0  0  0
 19 21  1  0  0  0  0
 17 18  1  0  0  0  0
 17 19  1  0  0  0  0
 15 16  1  0  0  0  0
 15 17  2  0  0  0  0
 14 15  1  0  0  0  0
 14 21  2  0  0  0  0
 11 12  1  0  0  0  0
 11 13  1  0  0  0  0
 11 14  1  0  0  0  0
  9 10  1  0  0  0  0
  9 11  1  0  0  0  0
  9 23  1  0  0  0  0
  7  8  1  0  0  0  0
  7  9  1  0  0  0  0
 27 28  1  0  0  0  0
 27 29  1  0  0  0  0
 27 30  1  0  0  0  0
 25 26  1  0  0  0  0
 25 27  1  0  0  0  0
M  CHG  1  15   1
M  END
$$$$
default_name
  -OEChem-01062215323D

 30 30  0     1  0  0  0  0  0999 V2000
   -3.5507   -3.2183    1.8116 H   0  0  0  0  0  0  0  0  0  0  0  0
   -3.4597   -2.3913    1.1076 C   0  0  0  0  0  0  0  0  0  0  0  0
   -4.1577   -1.6043    1.3866 H   0  0  0  0  0  0  0  0  0  0  0  0
   -3.6807   -2.7523    0.1036 H   0  0  0  0  0  0  0  0  0  0  0  0
   -2.0477   -1.8543    1.1546 C   0  0  0  0  0  0  0  0  0  0  0  0
   -1.2227   -2.3443    1.9146 O   0  0  0  0  0  0  0  0  0  0  0  0
   -1.7517   -0.8483    0.3266 N   0  0  0  0  0  0  0  0  0  0  0  0
   -2.4847   -0.5123   -0.2804 H   0  0  0  0  0  0  0  0  0  0  0  0
   -0.4117   -0.2463    0.2186 C   0  0  1  0  0  0  0  0  0  0  0  0
   -0.1646    0.2092    1.1808 H   0  0  0  0  0  0  0  0  0  0  0  0
    0.6166   -1.3741   -0.0302 C   0  0  0  0  0  0  0  0  0  0  0  0
    0.3344   -1.9078   -0.9412 H   0  0  0  0  0  0  0  0  0  0  0  0
    1.5966   -0.9272   -0.2110 H   0  0  0  0  0  0  0  0  0  0  0  0
    0.7572   -2.3766    1.0956 C   0  0  0  0  0  0  0  0  0  0  0  0
    1.4104   -2.1481    2.2913 N   0  3  0  0  0  0  0  0  0  0  0  0
    1.8100   -1.2422    2.5527 H   0  0  0  0  0  0  0  0  0  0  0  0
    1.3301   -3.2656    3.0405 C   0  0  0  0  0  0  0  0  0  0  0  0
    1.7416   -3.3836    4.0409 H   0  0  0  0  0  0  0  0  0  0  0  0
    0.6411   -4.1988    2.3457 N   0  0  0  0  0  0  0  0  0  0  0  0
    0.4229   -5.1394    2.6637 H   0  0  0  0  0  0  0  0  0  0  0  0
    0.2739   -3.6569    1.1217 C   0  0  0  0  0  0  0  0  0  0  0  0
   -0.2886   -4.1455    0.3310 H   0  0  0  0  0  0  0  0  0  0  0  0
   -0.3889    0.8894   -0.8199 C   0  0  0  0  0  0  0  0  0  0  0  0
    0.3778    1.8446   -0.6873 O   0  0  0  0  0  0  0  0  0  0  0  0
   -1.2456    0.7792   -1.8427 N   0  0  0  0  0  0  0  0  0  0  0  0
   -1.8278   -0.0438   -1.8751 H   0  0  0  0  0  0  0  0  0  0  0  0
   -1.4083    1.7609   -2.9193 C   0  0  0  0  0  0  0  0  0  0  0  0
   -0.8851    1.4238   -3.8163 H   0  0  0  0  0  0  0  0  0  0  0  0
   -2.4666    1.8797   -3.1582 H   0  0  0  0  0  0  0  0  0  0  0  0
   -1.0078    2.7329   -2.6237 H   0  0  0  0  0  0  0  0  0  0  0  0
  5  6  2  0  0  0  0
  5  7  1  0  0  0  0
  2  3  1  0  0  0  0
  2  4  1  0  0  0  0
  2  5  1  0  0  0  0
  1  2  1  0  0  0  0
 23 24  2  0  0  0  0
 23 25  1  0  0  0  0
 21 22  1  0  0  0  0
 19 20  1  0  0  0  0
 19 21  1  0  0  0  0
 17 18  1  0  0  0  0
 17 19  1  0  0  0  0
 15 16  1  0  0  0  0
 15 17  2  0  0  0  0
 14 15  1  0  0  0  0
 14 21  2  0  0  0  0
 11 12  1  0  0  0  0
 11 13  1  0  0  0  0
 11 14  1  0  0  0  0
  9 10  1  0  0  0  0
  9 11  1  0  0  0  0
  9 23  1  0  0  0  0
  7  8  1  0  0  0  0
  7  9  1  0  0  0  0
 27 28  1  0  0  0  0
 27 29  1  0  0  0  0
 27 30  1  0  0  0  0
 25 26  1  0  0  0  0
 25 27  1  0  0  0  0
M  CHG  1  15   1
M  END
$$$$
default_name
  -OEChem-01062215323D

 30 30  0     1  0  0  0  0  0999 V2000
   -3.5507   -3.2183    1.8116 H   0  0  0  0  0  0  0  0  0  0  0  0
   -3.4597   -2.3913    1.1076 C   0  0  0  0  0  0  0  0  0  0  0  0
   -4.1577   -1.6043    1.3866 H   0  0  0  0  0  0  0  0  0  0  0  0
   -3.6807   -2.7523    0.1036 H   0  0  0  0  0  0  0  0  0  0  0  0
   -2.0477   -1.8543    1.1546 C   0  0  0  0  0  0  0  0  0  0  0  0
   -1.2227   -2.3443    1.9146 O   0  0  0  0  0  0  0  0  0  0  0  0
   -1.7517   -0.8483    0.3266 N   0  0  0  0  0  0  0  0  0  0  0  0
   -2.4847   -0.5123   -0.2804 H   0  0  0  0  0  0  0  0  0  0  0  0
   -0.4117   -0.2463    0.2186 C   0  0  1  0  0  0  0  0  0  0  0  0
   -0.1646    0.2092    1.1808 H   0  0  0  0  0  0  0  0  0  0  0  0
    0.6166   -1.3741   -0.0302 C   0  0  0  0  0  0  0  0  0  0  0  0
    0.3344   -1.9078   -0.9412 H   0  0  0  0  0  0  0  0  0  0  0  0
    1.5966   -0.9272   -0.2110 H   0  0  0  0  0  0  0  0  0  0  0  0
    0.7572   -2.3766    1.0956 C   0  0  0  0  0  0  0  0  0  0  0  0
    1.4104   -2.1481    2.2913 N   0  3  0  0  0  0  0  0  0  0  0  0
    1.8100   -1.2422    2.5527 H   0  0  0  0  0  0  0  0  0  0  0  0
    1.3301   -3.2656    3.0405 C   0  0  0  0  0  0  0  0  0  0  0  0
    1.7416   -3.3836    4.0409 H   0  0  0  0  0  0  0  0  0  0  0  0
    0.6411   -4.1988    2.3457 N   0  0  0  0  0  0  0  0  0  0  0  0
    0.4229   -5.1394    2.6637 H   0  0  0  0  0  0  0  0  0  0  0  0
    0.2739   -3.6569    1.1217 C   0  0  0  0  0  0  0  0  0  0  0  0
   -0.2886   -4.1455    0.3310 H   0  0  0  0  0  0  0  0  0  0  0  0
   -0.3889    0.8894   -0.8199 C   0  0  0  0  0  0  0  0  0  0  0  0
    0.5441    1.6934   -0.8490 O   0  0  0  0  0  0  0  0  0  0  0  0
   -1.4307    0.9514   -1.6584 N   0  0  0  0  0  0  0  0  0  0  0  0
   -2.1433    0.2434   -1.5679 H   0  0  0  0  0  0  0  0  0  0  0  0
   -1.6213    1.9687   -2.6967 C   0  0  0  0  0  0  0  0  0  0  0  0
   -1.3459    1.5643   -3.6728 H   0  0  0  0  0  0  0  0  0  0  0  0
   -2.6683    2.2750   -2.7303 H   0  0  0  0  0  0  0  0  0  0  0  0
   -1.0080    2.8496   -2.4961 H   0  0  0  0  0  0  0  0  0  0  0  0
  5  6  2  0  0  0  0
  5  7  1  0  0  0  0
  2  3  1  0  0  0  0
  2  4  1  0  0  0  0
  2  5  1  0  0  0  0
  1  2  1  0  0  0  0
 23 24  2  0  0  0  0
 23 25  1  0  0  0  0
 21 22  1  0  0  0  0
 19 20  1  0  0  0  0
 19 21  1  0  0  0  0
 17 18  1  0  0  0  0
 17 19  1  0  0  0  0
 15 16  1  0  0  0  0
 15 17  2  0  0  0  0
 14 15  1  0  0  0  0
 14 21  2  0  0  0  0
 11 12  1  0  0  0  0
 11 13  1  0  0  0  0
 11 14  1  0  0  0  0
  9 10  1  0  0  0  0
  9 11  1  0  0  0  0
  9 23  1  0  0  0  0
  7  8  1  0  0  0  0
  7  9  1  0  0  0  0
 27 28  1  0  0  0  0
 27 29  1  0  0  0  0
 27 30  1  0  0  0  0
 25 26  1  0  0  0  0
 25 27  1  0  0  0  0
M  CHG  1  15   1
M  END
$$$$
default_name
  -OEChem-01062215323D

 30 30  0     1  0  0  0  0  0999 V2000
   -3.5507   -3.2183    1.8116 H   0  0  0  0  0  0  0  0  0  0  0  0
   -3.4597   -2.3913    1.1076 C   0  0  0  0  0  0  0  0  0  0  0  0
   -4.1577   -1.6043    1.3866 H   0  0  0  0  0  0  0  0  0  0  0  0
   -3.6807   -2.7523    0.1036 H   0  0  0  0  0  0  0  0  0  0  0  0
   -2.0477   -1.8543    1.1546 C   0  0  0  0  0  0  0  0  0  0  0  0
   -1.2227   -2.3443    1.9146 O   0  0  0  0  0  0  0  0  0  0  0  0
   -1.7517   -0.8483    0.3266 N   0  0  0  0  0  0  0  0  0  0  0  0
   -2.4847   -0.5123   -0.2804 H   0  0  0  0  0  0  0  0  0  0  0  0
   -0.4117   -0.2463    0.2186 C   0  0  1  0  0  0  0  0  0  0  0  0
   -0.1646    0.2092    1.1808 H   0  0  0  0  0  0  0  0  0  0  0  0
    0.6166   -1.3741   -0.0302 C   0  0  0  0  0  0  0  0  0  0  0  0
    0.3344   -1.9078   -0.9412 H   0  0  0  0  0  0  0  0  0  0  0  0
    1.5966   -0.9272   -0.2110 H   0  0  0  0  0  0  0  0  0  0  0  0
    0.7572   -2.3766    1.0956 C   0  0  0  0  0  0  0  0  0  0  0  0
    1.4104   -2.1481    2.2913 N   0  3  0  0  0  0  0  0  0  0  0  0
    1.8100   -1.2422    2.5527 H   0  0  0  0  0  0  0  0  0  0  0  0
    1.3301   -3.2656    3.0405 C   0  0  0  0  0  0  0  0  0  0  0  0
    1.7416   -3.3836    4.0409 H   0  0  0  0  0  0  0  0  0  0  0  0
    0.6411   -4.1988    2.3457 N   0  0  0  0  0  0  0  0  0  0  0  0
    0.4229   -5.1394    2.6637 H   0  0  0  0  0  0  0  0  0  0  0  0
    0.2739   -3.6569    1.1217 C   0  0  0  0  0  0  0  0  0  0  0  0
   -0.2886   -4.1455    0.3310 H   0  0  0  0  0  0  0  0  0  0  0  0
   -0.3889    0.8894   -0.8199 C   0  0  0  0  0  0  0  0  0  0  0  0
    0.6475    1.5189   -1.0375 O   0  0  0  0  0  0  0  0  0  0  0  0
   -1.5442    1.1494   -1.4443 N   0  0  0  0  0  0  0  0  0  0  0  0
   -2.3392    0.5747   -1.2099 H   0  0  0  0  0  0  0  0  0  0  0  0
   -1.7483    2.2057   -2.4403 C   0  0  0  0  0  0  0  0  0  0  0  0
   -1.7390    1.7799   -3.4456 H   0  0  0  0  0  0  0  0  0  0  0  0
   -2.7124    2.6904   -2.2769 H   0  0  0  0  0  0  0  0  0  0  0  0
   -0.9634    2.9619   -2.3723 H   0  0  0  0  0  0  0  0  0  0  0  0
  5  6  2  0  0  0  0
  5  7  1  0  0  0  0
  2  3  1  0  0  0  0
  2  4  1  0  0  0  0
  2  5  1  0  0  0  0
  1  2  1  0  0  0  0
 23 24  2  0  0  0  0
 23 25  1  0  0  0  0
 21 22  1  0  0  0  0
 19 20  1  0  0  0  0
 19 21  1  0  0  0  0
 17 18  1  0  0  0  0
 17 19  1  0  0  0  0
 15 16  1  0  0  0  0
 15 17  2  0  0  0  0
 14 15  1  0  0  0  0
 14 21  2  0  0  0  0
 11 12  1  0  0  0  0
 11 13  1  0  0  0  0
 11 14  1  0  0  0  0
  9 10  1  0  0  0  0
  9 11  1  0  0  0  0
  9 23  1  0  0  0  0
  7  8  1  0  0  0  0
  7  9  1  0  0  0  0
 27 28  1  0  0  0  0
 27 29  1  0  0  0  0
 27 30  1  0  0  0  0
 25 26  1  0  0  0  0
 25 27  1  0  0  0  0
M  CHG  1  15   1
M  END
$$$$
default_name
  -OEChem-01062215323D

 30 30  0     1  0  0  0  0  0999 V2000
   -3.5507   -3.2183    1.8116 H   0  0  0  0  0  0  0  0  0  0  0  0
   -3.4597   -2.3913    1.1076 C   0  0  0  0  0  0  0  0  0  0  0  0
   -4.1577   -1.6043    1.3866 H   0  0  0  0  0  0  0  0  0  0  0  0
   -3.6807   -2.7523    0.1036 H   0  0  0  0  0  0  0  0  0  0  0  0
   -2.0477   -1.8543    1.1546 C   0  0  0  0  0  0  0  0  0  0  0  0
   -1.2227   -2.3443    1.9146 O   0  0  0  0  0  0  0  0  0  0  0  0
   -1.7517   -0.8483    0.3266 N   0  0  0  0  0  0  0  0  0  0  0  0
   -2.4847   -0.5123   -0.2804 H   0  0  0  0  0  0  0  0  0  0  0  0
   -0.4117   -0.2463    0.2186 C   0  0  1  0  0  0  0  0  0  0  0  0
   -0.1646    0.2092    1.1808 H   0  0  0  0  0  0  0  0  0  0  0  0
    0.6166   -1.3741   -0.0302 C   0  0  0  0  0  0  0  0  0  0  0  0
    0.3344   -1.9078   -0.9412 H   0  0  0  0  0  0  0  0  0  0  0  0
    1.5966   -0.9272   -0.2110 H   0  0  0  0  0  0  0  0  0  0  0  0
    0.7572   -2.3766    1.0956 C   0  0  0  0  0  0  0  0  0  0  0  0
    1.4104   -2.1481    2.2913 N   0  3  0  0  0  0  0  0  0  0  0  0
    1.8100   -1.2422    2.5527 H   0  0  0  0  0  0  0  0  0  0  0  0
    1.3301   -3.2656    3.0405 C   0  0  0  0  0  0  0  0  0  0  0  0
    1.7416   -3.3836    4.0409 H   0  0  0  0  0  0  0  0  0  0  0  0
    0.6411   -4.1988    2.3457 N   0  0  0  0  0  0  0  0  0  0  0  0
    0.4229   -5.1394    2.6637 H   0  0  0  0  0  0  0  0  0  0  0  0
    0.2739   -3.6569    1.1217 C   0  0  0  0  0  0  0  0  0  0  0  0
   -0.2886   -4.1455    0.3310 H   0  0  0  0  0  0  0  0  0  0  0  0
   -0.3889    0.8894   -0.8199 C   0  0  0  0  0  0  0  0  0  0  0  0
    0.6808    1.3331   -1.2400 O   0  0  0  0  0  0  0  0  0  0  0  0
   -1.5783    1.3597   -1.2151 N   0  0  0  0  0  0  0  0  0  0  0  0
   -2.4022    0.9276   -0.8254 H   0  0  0  0  0  0  0  0  0  0  0  0
   -1.7805    2.4558   -2.1674 C   0  0  0  0  0  0  0  0  0  0  0  0
   -2.0378    2.0559   -3.1503 H   0  0  0  0  0  0  0  0  0  0  0  0
   -2.5958    3.0977   -1.8291 H   0  0  0  0  0  0  0  0  0  0  0  0
   -0.8770    3.0621   -2.2608 H   0  0  0  0  0  0  0  0  0  0  0  0
  5  6  2  0  0  0  0
  5  7  1  0  0  0  0
  2  3  1  0  0  0  0
  2  4  1  0  0  0  0
  2  5  1  0  0  0  0
  1  2  1  0  0  0  0
 23 24  2  0  0  0  0
 23 25  1  0  0  0  0
 21 22  1  0  0  0  0
 19 20  1  0  0  0  0
 19 21  1  0  0  0  0
 17 18  1  0  0  0  0
 17 19  1  0  0  0  0
 15 16  1  0  0  0  0
 15 17  2  0  0  0  0
 14 15  1  0  0  0  0
 14 21  2  0  0  0  0
 11 12  1  0  0  0  0
 11 13  1  0  0  0  0
 11 14  1  0  0  0  0
  9 10  1  0  0  0  0
  9 11  1  0  0  0  0
  9 23  1  0  0  0  0
  7  8  1  0  0  0  0
  7  9  1  0  0  0  0
 27 28  1  0  0  0  0
 27 29  1  0  0  0  0
 27 30  1  0  0  0  0
 25 26  1  0  0  0  0
 25 27  1  0  0  0  0
M  CHG  1  15   1
M  END
$$$$
default_name
  -OEChem-01062215323D

 30 30  0     1  0  0  0  0  0999 V2000
   -3.5507   -3.2183    1.8116 H   0  0  0  0  0  0  0  0  0  0  0  0
   -3.4597   -2.3913    1.1076 C   0  0  0  0  0  0  0  0  0  0  0  0
   -4.1577   -1.6043    1.3866 H   0  0  0  0  0  0  0  0  0  0  0  0
   -3.6807   -2.7523    0.1036 H   0  0  0  0  0  0  0  0  0  0  0  0
   -2.0477   -1.8543    1.1546 C   0  0  0  0  0  0  0  0  0  0  0  0
   -1.2227   -2.3443    1.9146 O   0  0  0  0  0  0  0  0  0  0  0  0
   -1.7517   -0.8483    0.3266 N   0  0  0  0  0  0  0  0  0  0  0  0
   -2.4847   -0.5123   -0.2804 H   0  0  0  0  0  0  0  0  0  0  0  0
   -0.4117   -0.2463    0.2186 C   0  0  1  0  0  0  0  0  0  0  0  0
   -0.1646    0.2092    1.1808 H   0  0  0  0  0  0  0  0  0  0  0  0
    0.6166   -1.3741   -0.0302 C   0  0  0  0  0  0  0  0  0  0  0  0
    0.3344   -1.9078   -0.9412 H   0  0  0  0  0  0  0  0  0  0  0  0
    1.5966   -0.9272   -0.2110 H   0  0  0  0  0  0  0  0  0  0  0  0
    0.7572   -2.3766    1.0956 C   0  0  0  0  0  0  0  0  0  0  0  0
    1.4104   -2.1481    2.2913 N   0  3  0  0  0  0  0  0  0  0  0  0
    1.8100   -1.2422    2.5527 H   0  0  0  0  0  0  0  0  0  0  0  0
    1.3301   -3.2656    3.0405 C   0  0  0  0  0  0  0  0  0  0  0  0
    1.7416   -3.3836    4.0409 H   0  0  0  0  0  0  0  0  0  0  0  0
    0.6411   -4.1988    2.3457 N   0  0  0  0  0  0  0  0  0  0  0  0
    0.4229   -5.1394    2.6637 H   0  0  0  0  0  0  0  0  0  0  0  0
    0.2739   -3.6569    1.1217 C   0  0  0  0  0  0  0  0  0  0  0  0
   -0.2886   -4.1455    0.3310 H   0  0  0  0  0  0  0  0  0  0  0  0
   -0.3889    0.8894   -0.8199 C   0  0  0  0  0  0  0  0  0  0  0  0
    0.6419    1.1485   -1.4427 O   0  0  0  0  0  0  0  0  0  0  0  0
   -1.5309    1.5679   -0.9864 N   0  0  0  0  0  0  0  0  0  0  0  0
   -2.3280    1.2779   -0.4406 H   0  0  0  0  0  0  0  0  0  0  0  0
   -1.7159    2.7021   -1.8968 C   0  0  0  0  0  0  0  0  0  0  0  0
   -2.2217    2.3736   -2.8069 H   0  0  0  0  0  0  0  0  0  0  0  0
   -2.3265    3.4690   -1.4171 H   0  0  0  0  0  0  0  0  0  0  0  0
   -0.7549    3.1434   -2.1692 H   0  0  0  0  0  0  0  0  0  0  0  0
  5  6  2  0  0  0  0
  5  7  1  0  0  0  0
  2  3  1  0  0  0  0
  2  4  1  0  0  0  0
  2  5  1  0  0  0  0
  1  2  1  0  0  0  0
 23 24  2  0  0  0  0
 23 25  1  0  0  0  0
 21 22  1  0  0  0  0
 19 20  1  0  0  0  0
 19 21  1  0  0  0  0
 17 18  1  0  0  0  0
 17 19  1  0  0  0  0
 15 16  1  0  0  0  0
 15 17  2  0  0  0  0
 14 15  1  0  0  0  0
 14 21  2  0  0  0  0
 11 12  1  0  0  0  0
 11 13  1  0  0  0  0
 11 14  1  0  0  0  0
  9 10  1  0  0  0  0
  9 11  1  0  0  0  0
  9 23  1  0  0  0  0
  7  8  1  0  0  0  0
  7  9  1  0  0  0  0
 27 28  1  0  0  0  0
 27 29  1  0  0  0  0
 27 30  1  0  0  0  0
 25 26  1  0  0  0  0
 25 27  1  0  0  0  0
M  CHG  1  15   1
M  END
$$$$
default_name
  -OEChem-01062215323D

 30 30  0     1  0  0  0  0  0999 V2000
   -3.5507   -3.2183    1.8116 H   0  0  0  0  0  0  0  0  0  0  0  0
   -3.4597   -2.3913    1.1076 C   0  0  0  0  0  0  0  0  0  0  0  0
   -4.1577   -1.6043    1.3866 H   0  0  0  0  0  0  0  0  0  0  0  0
   -3.6807   -2.7523    0.1036 H   0  0  0  0  0  0  0  0  0  0  0  0
   -2.0477   -1.8543    1.1546 C   0  0  0  0  0  0  0  0  0  0  0  0
   -1.2227   -2.3443    1.9146 O   0  0  0  0  0  0  0  0  0  0  0  0
   -1.7517   -0.8483    0.3266 N   0  0  0  0  0  0  0  0  0  0  0  0
   -2.4847   -0.5123   -0.2804 H   0  0  0  0  0  0  0  0  0  0  0  0
   -0.4117   -0.2463    0.2186 C   0  0  1  0  0  0  0  0  0  0  0  0
   -0.1646    0.2092    1.1808 H   0  0  0  0  0  0  0  0  0  0  0  0
    0.6166   -1.3741   -0.0302 C   0  0  0  0  0  0  0  0  0  0  0  0
    0.3344   -1.9078   -0.9412 H   0  0  0  0  0  0  0  0  0  0  0  0
    1.5966   -0.9272   -0.2110 H   0  0  0  0  0  0  0  0  0  0  0  0
    0.7572   -2.3766    1.0956 C   0  0  0  0  0  0  0  0  0  0  0  0
    1.4104   -2.1481    2.2913 N   0  3  0  0  0  0  0  0  0  0  0  0
    1.8100   -1.2422    2.5527 H   0  0  0  0  0  0  0  0  0  0  0  0
    1.3301   -3.2656    3.0405 C   0  0  0  0  0  0  0  0  0  0  0  0
    1.7416   -3.3836    4.0409 H   0  0  0  0  0  0  0  0  0  0  0  0
    0.6411   -4.1988    2.3457 N   0  0  0  0  0  0  0  0  0  0  0  0
    0.4229   -5.1394    2.6637 H   0  0  0  0  0  0  0  0  0  0  0  0
    0.2739   -3.6569    1.1217 C   0  0  0  0  0  0  0  0  0  0  0  0
   -0.2886   -4.1455    0.3310 H   0  0  0  0  0  0  0  0  0  0  0  0
   -0.3889    0.8894   -0.8199 C   0  0  0  0  0  0  0  0  0  0  0  0
    0.5334    0.9778   -1.6318 O   0  0  0  0  0  0  0  0  0  0  0  0
   -1.4050    1.7598   -0.7738 N   0  0  0  0  0  0  0  0  0  0  0  0
   -2.1217    1.6019   -0.0818 H   0  0  0  0  0  0  0  0  0  0  0  0
   -1.5587    2.9275   -1.6468 C   0  0  0  0  0  0  0  0  0  0  0  0
   -2.2784    2.7113   -2.4389 H   0  0  0  0  0  0  0  0  0  0  0  0
   -1.9229    3.7790   -1.0693 H   0  0  0  0  0  0  0  0  0  0  0  0
   -0.6052    3.2003   -2.1038 H   0  0  0  0  0  0  0  0  0  0  0  0
  5  6  2  0  0  0  0
  5  7  1  0  0  0  0
  2  3  1  0  0  0  0
  2  4  1  0  0  0  0
  2  5  1  0  0  0  0
  1  2  1  0  0  0  0
 23 24  2  0  0  0  0
 23 25  1  0  0  0  0
 21 22  1  0  0  0  0
 19 20  1  0  0  0  0
 19 21  1  0  0  0  0
 17 18  1  0  0  0  0
 17 19  1  0  0  0  0
 15 16  1  0  0  0  0
 15 17  2  0  0  0  0
 14 15  1  0  0  0  0
 14 21  2  0  0  0  0
 11 12  1  0  0  0  0
 11 13  1  0  0  0  0
 11 14  1  0  0  0  0
  9 10  1  0  0  0  0
  9 11  1  0  0  0  0
  9 23  1  0  0  0  0
  7  8  1  0  0  0  0
  7  9  1  0  0  0  0
 27 28  1  0  0  0  0
 27 29  1  0  0  0  0
 27 30  1  0  0  0  0
 25 26  1  0  0  0  0
 25 27  1  0  0  0  0
M  CHG  1  15   1
M  END
$$$$
default_name
  -OEChem-01062215323D

 30 30  0     1  0  0  0  0  0999 V2000
   -3.5507   -3.2183    1.8116 H   0  0  0  0  0  0  0  0  0  0  0  0
   -3.4597   -2.3913    1.1076 C   0  0  0  0  0  0  0  0  0  0  0  0
   -4.1577   -1.6043    1.3866 H   0  0  0  0  0  0  0  0  0  0  0  0
   -3.6807   -2.7523    0.1036 H   0  0  0  0  0  0  0  0  0  0  0  0
   -2.0477   -1.8543    1.1546 C   0  0  0  0  0  0  0  0  0  0  0  0
   -1.2227   -2.3443    1.9146 O   0  0  0  0  0  0  0  0  0  0  0  0
   -1.7517   -0.8483    0.3266 N   0  0  0  0  0  0  0  0  0  0  0  0
   -2.4847   -0.5123   -0.2804 H   0  0  0  0  0  0  0  0  0  0  0  0
   -0.4117   -0.2463    0.2186 C   0  0  1  0  0  0  0  0  0  0  0  0
   -0.1646    0.2092    1.1808 H   0  0  0  0  0  0  0  0  0  0  0  0
    0.6166   -1.3741   -0.0302 C   0  0  0  0  0  0  0  0  0  0  0  0
    0.3344   -1.9078   -0.9412 H   0  0  0  0  0  0  0  0  0  0  0  0
    1.5966   -0.9272   -0.2110 H   0  0  0  0  0  0  0  0  0  0  0  0
    0.7572   -2.3766    1.0956 C   0  0  0  0  0  0  0  0  0  0  0  0
    1.4104   -2.1481    2.2913 N   0  3  0  0  0  0  0  0  0  0  0  0
    1.8100   -1.2422    2.5527 H   0  0  0  0  0  0  0  0  0  0  0  0
    1.3301   -3.2656    3.0405 C   0  0  0  0  0  0  0  0  0  0  0  0
    1.7416   -3.3836    4.0409 H   0  0  0  0  0  0  0  0  0  0  0  0
    0.6411   -4.1988    2.3457 N   0  0  0  0  0  0  0  0  0  0  0  0
    0.4229   -5.1394    2.6637 H   0  0  0  0  0  0  0  0  0  0  0  0
    0.2739   -3.6569    1.1217 C   0  0  0  0  0  0  0  0  0  0  0  0
   -0.2886   -4.1455    0.3310 H   0  0  0  0  0  0  0  0  0  0  0  0
   -0.3889    0.8894   -0.8199 C   0  0  0  0  0  0  0  0  0  0  0  0
    0.3627    0.8325   -1.7944 O   0  0  0  0  0  0  0  0  0  0  0  0
   -1.2092    1.9224   -0.5917 N   0  0  0  0  0  0  0  0  0  0  0  0
   -1.7972    1.8775    0.2267 H   0  0  0  0  0  0  0  0  0  0  0  0
   -1.3198    3.1170   -1.4344 C   0  0  0  0  0  0  0  0  0  0  0  0
   -2.2038    3.0459   -2.0713 H   0  0  0  0  0  0  0  0  0  0  0  0
   -1.4125    4.0067   -0.8091 H   0  0  0  0  0  0  0  0  0  0  0  0
   -0.4382    3.2288   -2.0690 H   0  0  0  0  0  0  0  0  0  0  0  0
  5  6  2  0  0  0  0
  5  7  1  0  0  0  0
  2  3  1  0  0  0  0
  2  4  1  0  0  0  0
  2  5  1  0  0  0  0
  1  2  1  0  0  0  0
 23 24  2  0  0  0  0
 23 25  1  0  0  0  0
 21 22  1  0  0  0  0
 19 20  1  0  0  0  0
 19 21  1  0  0  0  0
 17 18  1  0  0  0  0
 17 19  1  0  0  0  0
 15 16  1  0  0  0  0
 15 17  2  0  0  0  0
 14 15  1  0  0  0  0
 14 21  2  0  0  0  0
 11 12  1  0  0  0  0
 11 13  1  0  0  0  0
 11 14  1  0  0  0  0
  9 10  1  0  0  0  0
  9 11  1  0  0  0  0
  9 23  1  0  0  0  0
  7  8  1  0  0  0  0
  7  9  1  0  0  0  0
 27 28  1  0  0  0  0
 27 29  1  0  0  0  0
 27 30  1  0  0  0  0
 25 26  1  0  0  0  0
 25 27  1  0  0  0  0
M  CHG  1  15   1
M  END
$$$$
default_name
  -OEChem-01062215323D

 30 30  0     1  0  0  0  0  0999 V2000
   -3.5507   -3.2183    1.8116 H   0  0  0  0  0  0  0  0  0  0  0  0
   -3.4597   -2.3913    1.1076 C   0  0  0  0  0  0  0  0  0  0  0  0
   -4.1577   -1.6043    1.3866 H   0  0  0  0  0  0  0  0  0  0  0  0
   -3.6807   -2.7523    0.1036 H   0  0  0  0  0  0  0  0  0  0  0  0
   -2.0477   -1.8543    1.1546 C   0  0  0  0  0  0  0  0  0  0  0  0
   -1.2227   -2.3443    1.9146 O   0  0  0  0  0  0  0  0  0  0  0  0
   -1.7517   -0.8483    0.3266 N   0  0  0  0  0  0  0  0  0  0  0  0
   -2.4847   -0.5123   -0.2804 H   0  0  0  0  0  0  0  0  0  0  0  0
   -0.4117   -0.2463    0.2186 C   0  0  1  0  0  0  0  0  0  0  0  0
   -0.1646    0.2092    1.1808 H   0  0  0  0  0  0  0  0  0  0  0  0
    0.6166   -1.3741   -0.0302 C   0  0  0  0  0  0  0  0  0  0  0  0
    0.3344   -1.9078   -0.9412 H   0  0  0  0  0  0  0  0  0  0  0  0
    1.5966   -0.9272   -0.2110 H   0  0  0  0  0  0  0  0  0  0  0  0
    0.7572   -2.3766    1.0956 C   0  0  0  0  0  0  0  0  0  0  0  0
    1.4104   -2.1481    2.2913 N   0  3  0  0  0  0  0  0  0  0  0  0
    1.8100   -1.2422    2.5527 H   0  0  0  0  0  0  0  0  0  0  0  0
    1.3301   -3.2656    3.0405 C   0  0  0  0  0  0  0  0  0  0  0  0
    1.7416   -3.3836    4.0409 H   0  0  0  0  0  0  0  0  0  0  0  0
    0.6411   -4.1988    2.3457 N   0  0  0  0  0  0  0  0  0  0  0  0
    0.4229   -5.1394    2.6637 H   0  0  0  0  0  0  0  0  0  0  0  0
    0.2739   -3.6569    1.1217 C   0  0  0  0  0  0  0  0  0  0  0  0
   -0.2886   -4.1455    0.3310 H   0  0  0  0  0  0  0  0  0  0  0  0
   -0.3889    0.8894   -0.8199 C   0  0  0  0  0  0  0  0  0  0  0  0
    0.1413    0.7227   -1.9193 O   0  0  0  0  0  0  0  0  0  0  0  0
   -0.9570    2.0446   -0.4525 N   0  0  0  0  0  0  0  0  0  0  0  0
   -1.3768    2.0858    0.4637 H   0  0  0  0  0  0  0  0  0  0  0  0
   -1.0154    3.2574   -1.2742 C   0  0  0  0  0  0  0  0  0  0  0  0
   -2.0031    3.3547   -1.7292 H   0  0  0  0  0  0  0  0  0  0  0  0
   -0.8300    4.1364   -0.6545 H   0  0  0  0  0  0  0  0  0  0  0  0
   -0.2652    3.2270   -2.0671 H   0  0  0  0  0  0  0  0  0  0  0  0
  5  6  2  0  0  0  0
  5  7  1  0  0  0  0
  2  3  1  0  0  0  0
  2  4  1  0  0  0  0
  2  5  1  0  0  0  0
  1  2  1  0  0  0  0
 23 24  2  0  0  0  0
 23 25  1  0  0  0  0
 21 22  1  0  0  0  0
 19 20  1  0  0  0  0
 19 21  1  0  0  0  0
 17 18  1  0  0  0  0
 17 19  1  0  0  0  0
 15 16  1  0  0  0  0
 15 17  2  0  0  0  0
 14 15  1  0  0  0  0
 14 21  2  0  0  0  0
 11 12  1  0  0  0  0
 11 13  1  0  0  0  0
 11 14  1  0  0  0  0
  9 10  1  0  0  0  0
  9 11  1  0  0  0  0
  9 23  1  0  0  0  0
  7  8  1  0  0  0  0
  7  9  1  0  0  0  0
 27 28  1  0  0  0  0
 27 29  1  0  0  0  0
 27 30  1  0  0  0  0
 25 26  1  0  0  0  0
 25 27  1  0  0  0  0
M  CHG  1  15   1
M  END
$$$$
default_name
  -OEChem-01062215323D

 30 30  0     1  0  0  0  0  0999 V2000
   -3.5507   -3.2183    1.8116 H   0  0  0  0  0  0  0  0  0  0  0  0
   -3.4597   -2.3913    1.1076 C   0  0  0  0  0  0  0  0  0  0  0  0
   -4.1577   -1.6043    1.3866 H   0  0  0  0  0  0  0  0  0  0  0  0
   -3.6807   -2.7523    0.1036 H   0  0  0  0  0  0  0  0  0  0  0  0
   -2.0477   -1.8543    1.1546 C   0  0  0  0  0  0  0  0  0  0  0  0
   -1.2227   -2.3443    1.9146 O   0  0  0  0  0  0  0  0  0  0  0  0
   -1.7517   -0.8483    0.3266 N   0  0  0  0  0  0  0  0  0  0  0  0
   -2.4847   -0.5123   -0.2804 H   0  0  0  0  0  0  0  0  0  0  0  0
   -0.4117   -0.2463    0.2186 C   0  0  1  0  0  0  0  0  0  0  0  0
   -0.1646    0.2092    1.1808 H   0  0  0  0  0  0  0  0  0  0  0  0
    0.6166   -1.3741   -0.0302 C   0  0  0  0  0  0  0  0  0  0  0  0
    0.3344   -1.9078   -0.9412 H   0  0  0  0  0  0  0  0  0  0  0  0
    1.5966   -0.9272   -0.2110 H   0  0  0  0  0  0  0  0  0  0  0  0
    0.7572   -2.3766    1.0956 C   0  0  0  0  0  0  0  0  0  0  0  0
    1.4104   -2.1481    2.2913 N   0  3  0  0  0  0  0  0  0  0  0  0
    1.8100   -1.2422    2.5527 H   0  0  0  0  0  0  0  0  0  0  0  0
    1.3301   -3.2656    3.0405 C   0  0  0  0  0  0  0  0  0  0  0  0
    1.7416   -3.3836    4.0409 H   0  0  0  0  0  0  0  0  0  0  0  0
    0.6411   -4.1988    2.3457 N   0  0  0  0  0  0  0  0  0  0  0  0
    0.4229   -5.1394    2.6637 H   0  0  0  0  0  0  0  0  0  0  0  0
    0.2739   -3.6569    1.1217 C   0  0  0  0  0  0  0  0  0  0  0  0
   -0.2886   -4.1455    0.3310 H   0  0  0  0  0  0  0  0  0  0  0  0
   -0.3889    0.8894   -0.8199 C   0  0  0  0  0  0  0  0  0  0  0  0
   -0.1155    0.6557   -1.9982 O   0  0  0  0  0  0  0  0  0  0  0  0
   -0.6655    2.1180   -0.3659 N   0  0  0  0  0  0  0  0  0  0  0  0
   -0.8891    2.2127    0.6131 H   0  0  0  0  0  0  0  0  0  0  0  0
   -0.6663    3.3393   -1.1770 C   0  0  0  0  0  0  0  0  0  0  0  0
   -1.6900    3.6167   -1.4359 H   0  0  0  0  0  0  0  0  0  0  0  0
   -0.2152    4.1595   -0.6158 H   0  0  0  0  0  0  0  0  0  0  0  0
   -0.0981    3.1951   -2.0984 H   0  0  0  0  0  0  0  0  0  0  0  0
  5  6  2  0  0  0  0
  5  7  1  0  0  0  0
  2  3  1  0  0  0  0
  2  4  1  0  0  0  0
  2  5  1  0  0  0  0
  1  2  1  0  0  0  0
 23 24  2  0  0  0  0
 23 25  1  0  0  0  0
 21 22  1  0  0  0  0
 19 20  1  0  0  0  0
 19 21  1  0  0  0  0
 17 18  1  0  0  0  0
 17 19  1  0  0  0  0
 15 16  1  0  0  0  0
 15 17  2  0  0  0  0
 14 15  1  0  0  0  0
 14 21  2  0  0  0  0
 11 12  1  0  0  0  0
 11 13  1  0  0  0  0
 11 14  1  0  0  0  0
  9 10  1  0  0  0  0
  9 11  1  0  0  0  0
  9 23  1  0  0  0  0
  7  8  1  0  0  0  0
  7  9  1  0  0  0  0
 27 28  1  0  0  0  0
 27 29  1  0  0  0  0
 27 30  1  0  0  0  0
 25 26  1  0  0  0  0
 25 27  1  0  0  0  0
M  CHG  1  15   1
M  END
$$$$
default_name
  -OEChem-01062215323D

 30 30  0     1  0  0  0  0  0999 V2000
   -3.5507   -3.2183    1.8116 H   0  0  0  0  0  0  0  0  0  0  0  0
   -3.4597   -2.3913    1.1076 C   0  0  0  0  0  0  0  0  0  0  0  0
   -4.1577   -1.6043    1.3866 H   0  0  0  0  0  0  0  0  0  0  0  0
   -3.6807   -2.7523    0.1036 H   0  0  0  0  0  0  0  0  0  0  0  0
   -2.0477   -1.8543    1.1546 C   0  0  0  0  0  0  0  0  0  0  0  0
   -1.2227   -2.3443    1.9146 O   0  0  0  0  0  0  0  0  0  0  0  0
   -1.7517   -0.8483    0.3266 N   0  0  0  0  0  0  0  0  0  0  0  0
   -2.4847   -0.5123   -0.2804 H   0  0  0  0  0  0  0  0  0  0  0  0
   -0.4117   -0.2463    0.2186 C   0  0  1  0  0  0  0  0  0  0  0  0
   -0.1646    0.2092    1.1808 H   0  0  0  0  0  0  0  0  0  0  0  0
    0.6166   -1.3741   -0.0302 C   0  0  0  0  0  0  0  0  0  0  0  0
    0.3344   -1.9078   -0.9412 H   0  0  0  0  0  0  0  0  0  0  0  0
    1.5966   -0.9272   -0.2110 H   0  0  0  0  0  0  0  0  0  0  0  0
    0.7572   -2.3766    1.0956 C   0  0  0  0  0  0  0  0  0  0  0  0
    1.4104   -2.1481    2.2913 N   0  3  0  0  0  0  0  0  0  0  0  0
    1.8100   -1.2422    2.5527 H   0  0  0  0  0  0  0  0  0  0  0  0
    1.3301   -3.2656    3.0405 C   0  0  0  0  0  0  0  0  0  0  0  0
    1.7416   -3.3836    4.0409 H   0  0  0  0  0  0  0  0  0  0  0  0
    0.6411   -4.1988    2.3457 N   0  0  0  0  0  0  0  0  0  0  0  0
    0.4229   -5.1394    2.6637 H   0  0  0  0  0  0  0  0  0  0  0  0
    0.2739   -3.6569    1.1217 C   0  0  0  0  0  0  0  0  0  0  0  0
   -0.2886   -4.1455    0.3310 H   0  0  0  0  0  0  0  0  0  0  0  0
   -0.3889    0.8894   -0.8199 C   0  0  0  0  0  0  0  0  0  0  0  0
   -0.3904    0.6362   -2.0255 O   0  0  0  0  0  0  0  0  0  0  0  0
   -0.3545    2.1377   -0.3375 N   0  0  0  0  0  0  0  0  0  0  0  0
   -0.3673    2.2496    0.6648 H   0  0  0  0  0  0  0  0  0  0  0  0
   -0.2962    3.3570   -1.1495 C   0  0  0  0  0  0  0  0  0  0  0  0
   -1.2859    3.8139   -1.2114 H   0  0  0  0  0  0  0  0  0  0  0  0
    0.3901    4.0742   -0.6958 H   0  0  0  0  0  0  0  0  0  0  0  0
    0.0518    3.1352   -2.1606 H   0  0  0  0  0  0  0  0  0  0  0  0
  5  6  2  0  0  0  0
  5  7  1  0  0  0  0
  2  3  1  0  0  0  0
  2  4  1  0  0  0  0
  2  5  1  0  0  0  0
  1  2  1  0  0  0  0
 23 24  2  0  0  0  0
 23 25  1  0  0  0  0
 21 22  1  0  0  0  0
 19 20  1  0  0  0  0
 19 21  1  0  0  0  0
 17 18  1  0  0  0  0
 17 19  1  0  0  0  0
 15 16  1  0  0  0  0
 15 17  2  0  0  0  0
 14 15  1  0  0  0  0
 14 21  2  0  0  0  0
 11 12  1  0  0  0  0
 11 13  1  0  0  0  0
 11 14  1  0  0  0  0
  9 10  1  0  0  0  0
  9 11  1  0  0  0  0
  9 23  1  0  0  0  0
  7  8  1  0  0  0  0
  7  9  1  0  0  0  0
 27 28  1  0  0  0  0
 27 29  1  0  0  0  0
 27 30  1  0  0  0  0
 25 26  1  0  0  0  0
 25 27  1  0  0  0  0
M  CHG  1  15   1
M  END
$$$$
default_name
  -OEChem-01062215323D

 30 30  0     1  0  0  0  0  0999 V2000
   -3.5507   -3.2183    1.8116 H   0  0  0  0  0  0  0  0  0  0  0  0
   -3.4597   -2.3913    1.1076 C   0  0  0  0  0  0  0  0  0  0  0  0
   -4.1577   -1.6043    1.3866 H   0  0  0  0  0  0  0  0  0  0  0  0
   -3.6807   -2.7523    0.1036 H   0  0  0  0  0  0  0  0  0  0  0  0
   -2.0477   -1.8543    1.1546 C   0  0  0  0  0  0  0  0  0  0  0  0
   -1.2227   -2.3443    1.9146 O   0  0  0  0  0  0  0  0  0  0  0  0
   -1.7517   -0.8483    0.3266 N   0  0  0  0  0  0  0  0  0  0  0  0
   -2.4847   -0.5123   -0.2804 H   0  0  0  0  0  0  0  0  0  0  0  0
   -0.4117   -0.2463    0.2186 C   0  0  1  0  0  0  0  0  0  0  0  0
   -0.1646    0.2092    1.1808 H   0  0  0  0  0  0  0  0  0  0  0  0
    0.6166   -1.3741   -0.0302 C   0  0  0  0  0  0  0  0  0  0  0  0
    0.3344   -1.9078   -0.9412 H   0  0  0  0  0  0  0  0  0  0  0  0
    1.5966   -0.9272   -0.2110 H   0  0  0  0  0  0  0  0  0  0  0  0
    0.7572   -2.3766    1.0956 C   0  0  0  0  0  0  0  0  0  0  0  0
    1.4104   -2.1481    2.2913 N   0  3  0  0  0  0  0  0  0  0  0  0
    1.8100   -1.2422    2.5527 H   0  0  0  0  0  0  0  0  0  0  0  0
    1.3301   -3.2656    3.0405 C   0  0  0  0  0  0  0  0  0  0  0  0
    1.7416   -3.3836    4.0409 H   0  0  0  0  0  0  0  0  0  0  0  0
    0.6411   -4.1988    2.3457 N   0  0  0  0  0  0  0  0  0  0  0  0
    0.4229   -5.1394    2.6637 H   0  0  0  0  0  0  0  0  0  0  0  0
    0.2739   -3.6569    1.1217 C   0  0  0  0  0  0  0  0  0  0  0  0
   -0.2886   -4.1455    0.3310 H   0  0  0  0  0  0  0  0  0  0  0  0
   -0.3889    0.8894   -0.8199 C   0  0  0  0  0  0  0  0  0  0  0  0
   -0.6645    0.6654   -1.9996 O   0  0  0  0  0  0  0  0  0  0  0  0
   -0.0452    2.1023   -0.3695 N   0  0  0  0  0  0  0  0  0  0  0  0
    0.1531    2.1938    0.6152 H   0  0  0  0  0  0  0  0  0  0  0  0
    0.0697    3.3094   -1.1936 C   0  0  0  0  0  0  0  0  0  0  0  0
   -0.8181    3.9329   -1.0710 H   0  0  0  0  0  0  0  0  0  0  0  0
    0.9445    3.8864   -0.8890 H   0  0  0  0  0  0  0  0  0  0  0  0
    0.1742    3.0514   -2.2496 H   0  0  0  0  0  0  0  0  0  0  0  0
  5  6  2  0  0  0  0
  5  7  1  0  0  0  0
  2  3  1  0  0  0  0
  2  4  1  0  0  0  0
  2  5  1  0  0  0  0
  1  2  1  0  0  0  0
 23 24  2  0  0  0  0
 23 25  1  0  0  0  0
 21 22  1  0  0  0  0
 19 20  1  0  0  0  0
 19 21  1  0  0  0  0
 17 18  1  0  0  0  0
 17 19  1  0  0  0  0
 15 16  1  0  0  0  0
 15 17  2  0  0  0  0
 14 15  1  0  0  0  0
 14 21  2  0  0  0  0
 11 12  1  0  0  0  0
 11 13  1  0  0  0  0
 11 14  1  0  0  0  0
  9 10  1  0  0  0  0
  9 11  1  0  0  0  0
  9 23  1  0  0  0  0
  7  8  1  0  0  0  0
  7  9  1  0  0  0  0
 27 28  1  0  0  0  0
 27 29  1  0  0  0  0
 27 30  1  0  0  0  0
 25 26  1  0  0  0  0
 25 27  1  0  0  0  0
M  CHG  1  15   1
M  END
$$$$
default_name
  -OEChem-01062215323D

 30 30  0     1  0  0  0  0  0999 V2000
   -3.5507   -3.2183    1.8116 H   0  0  0  0  0  0  0  0  0  0  0  0
   -3.4597   -2.3913    1.1076 C   0  0  0  0  0  0  0  0  0  0  0  0
   -4.1577   -1.6043    1.3866 H   0  0  0  0  0  0  0  0  0  0  0  0
   -3.6807   -2.7523    0.1036 H   0  0  0  0  0  0  0  0  0  0  0  0
   -2.0477   -1.8543    1.1546 C   0  0  0  0  0  0  0  0  0  0  0  0
   -1.2227   -2.3443    1.9146 O   0  0  0  0  0  0  0  0  0  0  0  0
   -1.7517   -0.8483    0.3266 N   0  0  0  0  0  0  0  0  0  0  0  0
   -2.4847   -0.5123   -0.2804 H   0  0  0  0  0  0  0  0  0  0  0  0
   -0.4117   -0.2463    0.2186 C   0  0  1  0  0  0  0  0  0  0  0  0
   -0.1646    0.2092    1.1808 H   0  0  0  0  0  0  0  0  0  0  0  0
    0.6166   -1.3741   -0.0302 C   0  0  0  0  0  0  0  0  0  0  0  0
    0.3344   -1.9078   -0.9412 H   0  0  0  0  0  0  0  0  0  0  0  0
    1.5966   -0.9272   -0.2110 H   0  0  0  0  0  0  0  0  0  0  0  0
    0.7572   -2.3766    1.0956 C   0  0  0  0  0  0  0  0  0  0  0  0
    1.4104   -2.1481    2.2913 N   0  3  0  0  0  0  0  0  0  0  0  0
    1.8100   -1.2422    2.5527 H   0  0  0  0  0  0  0  0  0  0  0  0
    1.3301   -3.2656    3.0405 C   0  0  0  0  0  0  0  0  0  0  0  0
    1.7416   -3.3836    4.0409 H   0  0  0  0  0  0  0  0  0  0  0  0
    0.6411   -4.1988    2.3457 N   0  0  0  0  0  0  0  0  0  0  0  0
    0.4229   -5.1394    2.6637 H   0  0  0  0  0  0  0  0  0  0  0  0
    0.2739   -3.6569    1.1217 C   0  0  0  0  0  0  0  0  0  0  0  0
   -0.2886   -4.1455    0.3310 H   0  0  0  0  0  0  0  0  0  0  0  0
   -0.3889    0.8894   -0.8199 C   0  0  0  0  0  0  0  0  0  0  0  0
   -0.9192    0.7415   -1.9220 O   0  0  0  0  0  0  0  0  0  0  0  0
    0.2412    2.0142   -0.4595 N   0  0  0  0  0  0  0  0  0  0  0  0
    0.6365    2.0493    0.4678 H   0  0  0  0  0  0  0  0  0  0  0  0
    0.4063    3.1996   -1.3062 C   0  0  0  0  0  0  0  0  0  0  0  0
   -0.3187    3.9657   -1.0242 H   0  0  0  0  0  0  0  0  0  0  0  0
    1.4104    3.6090   -1.1822 H   0  0  0  0  0  0  0  0  0  0  0  0
    0.2608    2.9494   -2.3592 H   0  0  0  0  0  0  0  0  0  0  0  0
  5  6  2  0  0  0  0
  5  7  1  0  0  0  0
  2  3  1  0  0  0  0
  2  4  1  0  0  0  0
  2  5  1  0  0  0  0
  1  2  1  0  0  0  0
 23 24  2  0  0  0  0
 23 25  1  0  0  0  0
 21 22  1  0  0  0  0
 19 20  1  0  0  0  0
 19 21  1  0  0  0  0
 17 18  1  0  0  0  0
 17 19  1  0  0  0  0
 15 16  1  0  0  0  0
 15 17  2  0  0  0  0
 14 15  1  0  0  0  0
 14 21  2  0  0  0  0
 11 12  1  0  0  0  0
 11 13  1  0  0  0  0
 11 14  1  0  0  0  0
  9 10  1  0  0  0  0
  9 11  1  0  0  0  0
  9 23  1  0  0  0  0
  7  8  1  0  0  0  0
  7  9  1  0  0  0  0
 27 28  1  0  0  0  0
 27 29  1  0  0  0  0
 27 30  1  0  0  0  0
 25 26  1  0  0  0  0
 25 27  1  0  0  0  0
M  CHG  1  15   1
M  END
$$$$
default_name
  -OEChem-01062215323D

 30 30  0     1  0  0  0  0  0999 V2000
   -3.5507   -3.2183    1.8116 H   0  0  0  0  0  0  0  0  0  0  0  0
   -3.4597   -2.3913    1.1076 C   0  0  0  0  0  0  0  0  0  0  0  0
   -4.1577   -1.6043    1.3866 H   0  0  0  0  0  0  0  0  0  0  0  0
   -3.6807   -2.7523    0.1036 H   0  0  0  0  0  0  0  0  0  0  0  0
   -2.0477   -1.8543    1.1546 C   0  0  0  0  0  0  0  0  0  0  0  0
   -1.2227   -2.3443    1.9146 O   0  0  0  0  0  0  0  0  0  0  0  0
   -1.7517   -0.8483    0.3266 N   0  0  0  0  0  0  0  0  0  0  0  0
   -2.4847   -0.5123   -0.2804 H   0  0  0  0  0  0  0  0  0  0  0  0
   -0.4117   -0.2463    0.2186 C   0  0  1  0  0  0  0  0  0  0  0  0
   -0.1646    0.2092    1.1808 H   0  0  0  0  0  0  0  0  0  0  0  0
    0.6166   -1.3741   -0.0302 C   0  0  0  0  0  0  0  0  0  0  0  0
    0.3344   -1.9078   -0.9412 H   0  0  0  0  0  0  0  0  0  0  0  0
    1.5966   -0.9272   -0.2110 H   0  0  0  0  0  0  0  0  0  0  0  0
    0.7572   -2.3766    1.0956 C   0  0  0  0  0  0  0  0  0  0  0  0
    1.4104   -2.1481    2.2913 N   0  3  0  0  0  0  0  0  0  0  0  0
    1.8100   -1.2422    2.5527 H   0  0  0  0  0  0  0  0  0  0  0  0
    1.3301   -3.2656    3.0405 C   0  0  0  0  0  0  0  0  0  0  0  0
    1.7416   -3.3836    4.0409 H   0  0  0  0  0  0  0  0  0  0  0  0
    0.6411   -4.1988    2.3457 N   0  0  0  0  0  0  0  0  0  0  0  0
    0.4229   -5.1394    2.6637 H   0  0  0  0  0  0  0  0  0  0  0  0
    0.2739   -3.6569    1.1217 C   0  0  0  0  0  0  0  0  0  0  0  0
   -0.2886   -4.1455    0.3310 H   0  0  0  0  0  0  0  0  0  0  0  0
   -0.3889    0.8894   -0.8199 C   0  0  0  0  0  0  0  0  0  0  0  0
   -1.1371    0.8591   -1.7982 O   0  0  0  0  0  0  0  0  0  0  0  0
    0.4853    1.8794   -0.6016 N   0  0  0  0  0  0  0  0  0  0  0  0
    1.0500    1.8258    0.2324 H   0  0  0  0  0  0  0  0  0  0  0  0
    0.6908    3.0353   -1.4797 C   0  0  0  0  0  0  0  0  0  0  0  0
    0.1783    3.9100   -1.0743 H   0  0  0  0  0  0  0  0  0  0  0  0
    1.7560    3.2607   -1.5555 H   0  0  0  0  0  0  0  0  0  0  0  0
    0.3058    2.8362   -2.4820 H   0  0  0  0  0  0  0  0  0  0  0  0
  5  6  2  0  0  0  0
  5  7  1  0  0  0  0
  2  3  1  0  0  0  0
  2  4  1  0  0  0  0
  2  5  1  0  0  0  0
  1  2  1  0  0  0  0
 23 24  2  0  0  0  0
 23 25  1  0  0  0  0
 21 22  1  0  0  0  0
 19 20  1  0  0  0  0
 19 21  1  0  0  0  0
 17 18  1  0  0  0  0
 17 19  1  0  0  0  0
 15 16  1  0  0  0  0
 15 17  2  0  0  0  0
 14 15  1  0  0  0  0
 14 21  2  0  0  0  0
 11 12  1  0  0  0  0
 11 13  1  0  0  0  0
 11 14  1  0  0  0  0
  9 10  1  0  0  0  0
  9 11  1  0  0  0  0
  9 23  1  0  0  0  0
  7  8  1  0  0  0  0
  7  9  1  0  0  0  0
 27 28  1  0  0  0  0
 27 29  1  0  0  0  0
 27 30  1  0  0  0  0
 25 26  1  0  0  0  0
 25 27  1  0  0  0  0
M  CHG  1  15   1
M  END
$$$$
default_name
  -OEChem-01062215323D

 30 30  0     1  0  0  0  0  0999 V2000
   -3.5507   -3.2183    1.8116 H   0  0  0  0  0  0  0  0  0  0  0  0
   -3.4597   -2.3913    1.1076 C   0  0  0  0  0  0  0  0  0  0  0  0
   -4.1577   -1.6043    1.3866 H   0  0  0  0  0  0  0  0  0  0  0  0
   -3.6807   -2.7523    0.1036 H   0  0  0  0  0  0  0  0  0  0  0  0
   -2.0477   -1.8543    1.1546 C   0  0  0  0  0  0  0  0  0  0  0  0
   -1.2227   -2.3443    1.9146 O   0  0  0  0  0  0  0  0  0  0  0  0
   -1.7517   -0.8483    0.3266 N   0  0  0  0  0  0  0  0  0  0  0  0
   -2.4847   -0.5123   -0.2804 H   0  0  0  0  0  0  0  0  0  0  0  0
   -0.4117   -0.2463    0.2186 C   0  0  1  0  0  0  0  0  0  0  0  0
   -0.1646    0.2092    1.1808 H   0  0  0  0  0  0  0  0  0  0  0  0
    0.6166   -1.3741   -0.0302 C   0  0  0  0  0  0  0  0  0  0  0  0
    0.3344   -1.9078   -0.9412 H   0  0  0  0  0  0  0  0  0  0  0  0
    1.5966   -0.9272   -0.2110 H   0  0  0  0  0  0  0  0  0  0  0  0
    0.7572   -2.3766    1.0956 C   0  0  0  0  0  0  0  0  0  0  0  0
    1.4104   -2.1481    2.2913 N   0  3  0  0  0  0  0  0  0  0  0  0
    1.8100   -1.2422    2.5527 H   0  0  0  0  0  0  0  0  0  0  0  0
    1.3301   -3.2656    3.0405 C   0  0  0  0  0  0  0  0  0  0  0  0
    1.7416   -3.3836    4.0409 H   0  0  0  0  0  0  0  0  0  0  0  0
    0.6411   -4.1988    2.3457 N   0  0  0  0  0  0  0  0  0  0  0  0
    0.4229   -5.1394    2.6637 H   0  0  0  0  0  0  0  0  0  0  0  0
    0.2739   -3.6569    1.1217 C   0  0  0  0  0  0  0  0  0  0  0  0
   -0.2886   -4.1455    0.3310 H   0  0  0  0  0  0  0  0  0  0  0  0
   -0.3889    0.8894   -0.8199 C   0  0  0  0  0  0  0  0  0  0  0  0
   -1.3035    1.0103   -1.6365 O   0  0  0  0  0  0  0  0  0  0  0  0
    0.6704    1.7072   -0.7859 N   0  0  0  0  0  0  0  0  0  0  0  0
    1.3655    1.5386   -0.0747 H   0  0  0  0  0  0  0  0  0  0  0  0
    0.9038    2.8275   -1.7022 C   0  0  0  0  0  0  0  0  0  0  0  0
    0.6391    3.7695   -1.2178 H   0  0  0  0  0  0  0  0  0  0  0  0
    1.9577    2.8654   -1.9834 H   0  0  0  0  0  0  0  0  0  0  0  0
    0.3059    2.7195   -2.6096 H   0  0  0  0  0  0  0  0  0  0  0  0
  5  6  2  0  0  0  0
  5  7  1  0  0  0  0
  2  3  1  0  0  0  0
  2  4  1  0  0  0  0
  2  5  1  0  0  0  0
  1  2  1  0  0  0  0
 23 24  2  0  0  0  0
 23 25  1  0  0  0  0
 21 22  1  0  0  0  0
 19 20  1  0  0  0  0
 19 21  1  0  0  0  0
 17 18  1  0  0  0  0
 17 19  1  0  0  0  0
 15 16  1  0  0  0  0
 15 17  2  0  0  0  0
 14 15  1  0  0  0  0
 14 21  2  0  0  0  0
 11 12  1  0  0  0  0
 11 13  1  0  0  0  0
 11 14  1  0  0  0  0
  9 10  1  0  0  0  0
  9 11  1  0  0  0  0
  9 23  1  0  0  0  0
  7  8  1  0  0  0  0
  7  9  1  0  0  0  0
 27 28  1  0  0  0  0
 27 29  1  0  0  0  0
 27 30  1  0  0  0  0
 25 26  1  0  0  0  0
 25 27  1  0  0  0  0
M  CHG  1  15   1
M  END
$$$$
default_name
  -OEChem-01062215323D

 30 30  0     1  0  0  0  0  0999 V2000
   -3.5507   -3.2183    1.8116 H   0  0  0  0  0  0  0  0  0  0  0  0
   -3.4597   -2.3913    1.1076 C   0  0  0  0  0  0  0  0  0  0  0  0
   -4.1577   -1.6043    1.3866 H   0  0  0  0  0  0  0  0  0  0  0  0
   -3.6807   -2.7523    0.1036 H   0  0  0  0  0  0  0  0  0  0  0  0
   -2.0477   -1.8543    1.1546 C   0  0  0  0  0  0  0  0  0  0  0  0
   -1.2227   -2.3443    1.9146 O   0  0  0  0  0  0  0  0  0  0  0  0
   -1.7517   -0.8483    0.3266 N   0  0  0  0  0  0  0  0  0  0  0  0
   -2.4847   -0.5123   -0.2804 H   0  0  0  0  0  0  0  0  0  0  0  0
   -0.4117   -0.2463    0.2186 C   0  0  1  0  0  0  0  0  0  0  0  0
   -0.0521   -0.0328    1.2283 H   0  0  0  0  0  0  0  0  0  0  0  0
    0.5491   -1.2897   -0.3973 C   0  0  0  0  0  0  0  0  0  0  0  0
    0.1574   -1.5911   -1.3720 H   0  0  0  0  0  0  0  0  0  0  0  0
    1.5188   -0.8190   -0.5731 H   0  0  0  0  0  0  0  0  0  0  0  0
    0.7737   -2.5309    0.4402 C   0  0  0  0  0  0  0  0  0  0  0  0
    1.5540   -2.5957    1.5783 N   0  3  0  0  0  0  0  0  0  0  0  0
    2.0070   -1.7799    2.0001 H   0  0  0  0  0  0  0  0  0  0  0  0
    1.5164   -3.8582    2.0489 C   0  0  0  0  0  0  0  0  0  0  0  0
    2.0253   -4.2120    2.9432 H   0  0  0  0  0  0  0  0  0  0  0  0
    0.7299   -4.5963    1.2333 N   0  0  0  0  0  0  0  0  0  0  0  0
    0.5162   -5.5840    1.3436 H   0  0  0  0  0  0  0  0  0  0  0  0
    0.2555   -3.7780    0.2175 C   0  0  0  0  0  0  0  0  0  0  0  0
   -0.4011   -4.0622   -0.6002 H   0  0  0  0  0  0  0  0  0  0  0  0
   -0.4606    1.1026   -0.5209 C   0  0  0  0  0  0  0  0  0  0  0  0
   -1.5282    1.5445   -0.9484 O   0  0  0  0  0  0  0  0  0  0  0  0
    0.7063    1.7400   -0.6763 N   0  0  0  0  0  0  0  0  0  0  0  0
    1.5284    1.3076   -0.2831 H   0  0  0  0  0  0  0  0  0  0  0  0
    0.8867    3.0158   -1.3757 C   0  0  0  0  0  0  0  0  0  0  0  0
    0.9719    3.8304   -0.6537 H   0  0  0  0  0  0  0  0  0  0  0  0
    1.7980    2.9862   -1.9754 H   0  0  0  0  0  0  0  0  0  0  0  0
    0.0421    3.2200   -2.0372 H   0  0  0  0  0  0  0  0  0  0  0  0
  5  6  2  0  0  0  0
  5  7  1  0  0  0  0
  2  3  1  0  0  0  0
  2  4  1  0  0  0  0
  2  5  1  0  0  0  0
  1  2  1  0  0  0  0
 23 24  2  0  0  0  0
 23 25  1  0  0  0  0
 21 22  1  0  0  0  0
 19 20  1  0  0  0  0
 19 21  1  0  0  0  0
 17 18  1  0  0  0  0
 17 19  1  0  0  0  0
 15 16  1  0  0  0  0
 15 17  2  0  0  0  0
 14 15  1  0  0  0  0
 14 21  2  0  0  0  0
 11 12  1  0  0  0  0
 11 13  1  0  0  0  0
 11 14  1  0  0  0  0
  9 10  1  0  0  0  0
  9 11  1  0  0  0  0
  9 23  1  0  0  0  0
  7  8  1  0  0  0  0
  7  9  1  0  0  0  0
 27 28  1  0  0  0  0
 27 29  1  0  0  0  0
 27 30  1  0  0  0  0
 25 26  1  0  0  0  0
 25 27  1  0  0  0  0
M  CHG  1  15   1
M  END
$$$$
default_name
  -OEChem-01062215323D

 30 30  0     1  0  0  0  0  0999 V2000
   -3.5507   -3.2183    1.8116 H   0  0  0  0  0  0  0  0  0  0  0  0
   -3.4597   -2.3913    1.1076 C   0  0  0  0  0  0  0  0  0  0  0  0
   -4.1577   -1.6043    1.3866 H   0  0  0  0  0  0  0  0  0  0  0  0
   -3.6807   -2.7523    0.1036 H   0  0  0  0  0  0  0  0  0  0  0  0
   -2.0477   -1.8543    1.1546 C   0  0  0  0  0  0  0  0  0  0  0  0
   -1.2227   -2.3443    1.9146 O   0  0  0  0  0  0  0  0  0  0  0  0
   -1.7517   -0.8483    0.3266 N   0  0  0  0  0  0  0  0  0  0  0  0
   -2.4847   -0.5123   -0.2804 H   0  0  0  0  0  0  0  0  0  0  0  0
   -0.4117   -0.2463    0.2186 C   0  0  1  0  0  0  0  0  0  0  0  0
   -0.0521   -0.0328    1.2283 H   0  0  0  0  0  0  0  0  0  0  0  0
    0.5491   -1.2897   -0.3973 C   0  0  0  0  0  0  0  0  0  0  0  0
    0.1574   -1.5911   -1.3720 H   0  0  0  0  0  0  0  0  0  0  0  0
    1.5188   -0.8190   -0.5731 H   0  0  0  0  0  0  0  0  0  0  0  0
    0.7737   -2.5309    0.4402 C   0  0  0  0  0  0  0  0  0  0  0  0
    1.5540   -2.5957    1.5783 N   0  3  0  0  0  0  0  0  0  0  0  0
    2.0070   -1.7799    2.0001 H   0  0  0  0  0  0  0  0  0  0  0  0
    1.5164   -3.8582    2.0489 C   0  0  0  0  0  0  0  0  0  0  0  0
    2.0253   -4.2120    2.9432 H   0  0  0  0  0  0  0  0  0  0  0  0
    0.7299   -4.5963    1.2333 N   0  0  0  0  0  0  0  0  0  0  0  0
    0.5162   -5.5840    1.3436 H   0  0  0  0  0  0  0  0  0  0  0  0
    0.2555   -3.7780    0.2175 C   0  0  0  0  0  0  0  0  0  0  0  0
   -0.4011   -4.0622   -0.6002 H   0  0  0  0  0  0  0  0  0  0  0  0
   -0.4606    1.1026   -0.5209 C   0  0  0  0  0  0  0  0  0  0  0  0
   -1.5345    1.6774   -0.7056 O   0  0  0  0  0  0  0  0  0  0  0  0
    0.7099    1.5897   -0.9507 N   0  0  0  0  0  0  0  0  0  0  0  0
    1.5401    1.0553   -0.7441 H   0  0  0  0  0  0  0  0  0  0  0  0
    0.8826    2.8370   -1.7014 C   0  0  0  0  0  0  0  0  0  0  0  0
    1.2296    3.6301   -1.0360 H   0  0  0  0  0  0  0  0  0  0  0  0
    1.6229    2.6971   -2.4910 H   0  0  0  0  0  0  0  0  0  0  0  0
   -0.0584    3.1496   -2.1590 H   0  0  0  0  0  0  0  0  0  0  0  0
  5  6  2  0  0  0  0
  5  7  1  0  0  0  0
  2  3  1  0  0  0  0
  2  4  1  0  0  0  0
  2  5  1  0  0  0  0
  1  2  1  0  0  0  0
 23 24  2  0  0  0  0
 23 25  1  0  0  0  0
 21 22  1  0  0  0  0
 19 20  1  0  0  0  0
 19 21  1  0  0  0  0
 17 18  1  0  0  0  0
 17 19  1  0  0  0  0
 15 16  1  0  0  0  0
 15 17  2  0  0  0  0
 14 15  1  0  0  0  0
 14 21  2  0  0  0  0
 11 12  1  0  0  0  0
 11 13  1  0  0  0  0
 11 14  1  0  0  0  0
  9 10  1  0  0  0  0
  9 11  1  0  0  0  0
  9 23  1  0  0  0  0
  7  8  1  0  0  0  0
  7  9  1  0  0  0  0
 27 28  1  0  0  0  0
 27 29  1  0  0  0  0
 27 30  1  0  0  0  0
 25 26  1  0  0  0  0
 25 27  1  0  0  0  0
M  CHG  1  15   1
M  END
$$$$
default_name
  -OEChem-01062215323D

 30 30  0     1  0  0  0  0  0999 V2000
   -3.5507   -3.2183    1.8116 H   0  0  0  0  0  0  0  0  0  0  0  0
   -3.4597   -2.3913    1.1076 C   0  0  0  0  0  0  0  0  0  0  0  0
   -4.1577   -1.6043    1.3866 H   0  0  0  0  0  0  0  0  0  0  0  0
   -3.6807   -2.7523    0.1036 H   0  0  0  0  0  0  0  0  0  0  0  0
   -2.0477   -1.8543    1.1546 C   0  0  0  0  0  0  0  0  0  0  0  0
   -1.2227   -2.3443    1.9146 O   0  0  0  0  0  0  0  0  0  0  0  0
   -1.7517   -0.8483    0.3266 N   0  0  0  0  0  0  0  0  0  0  0  0
   -2.4847   -0.5123   -0.2804 H   0  0  0  0  0  0  0  0  0  0  0  0
   -0.4117   -0.2463    0.2186 C   0  0  1  0  0  0  0  0  0  0  0  0
   -0.0521   -0.0328    1.2283 H   0  0  0  0  0  0  0  0  0  0  0  0
    0.5491   -1.2897   -0.3973 C   0  0  0  0  0  0  0  0  0  0  0  0
    0.1574   -1.5911   -1.3720 H   0  0  0  0  0  0  0  0  0  0  0  0
    1.5188   -0.8190   -0.5731 H   0  0  0  0  0  0  0  0  0  0  0  0
    0.7737   -2.5309    0.4402 C   0  0  0  0  0  0  0  0  0  0  0  0
    1.5540   -2.5957    1.5783 N   0  3  0  0  0  0  0  0  0  0  0  0
    2.0070   -1.7799    2.0001 H   0  0  0  0  0  0  0  0  0  0  0  0
    1.5164   -3.8582    2.0489 C   0  0  0  0  0  0  0  0  0  0  0  0
    2.0253   -4.2120    2.9432 H   0  0  0  0  0  0  0  0  0  0  0  0
    0.7299   -4.5963    1.2333 N   0  0  0  0  0  0  0  0  0  0  0  0
    0.5162   -5.5840    1.3436 H   0  0  0  0  0  0  0  0  0  0  0  0
    0.2555   -3.7780    0.2175 C   0  0  0  0  0  0  0  0  0  0  0  0
   -0.4011   -4.0622   -0.6002 H   0  0  0  0  0  0  0  0  0  0  0  0
   -0.4606    1.1026   -0.5209 C   0  0  0  0  0  0  0  0  0  0  0  0
   -1.4690    1.8086   -0.4707 O   0  0  0  0  0  0  0  0  0  0  0  0
    0.6324    1.4418   -1.2153 N   0  0  0  0  0  0  0  0  0  0  0  0
    1.4154    0.8064   -1.1900 H   0  0  0  0  0  0  0  0  0  0  0  0
    0.7825    2.6622   -2.0136 C   0  0  0  0  0  0  0  0  0  0  0  0
    1.3669    3.4015   -1.4621 H   0  0  0  0  0  0  0  0  0  0  0  0
    1.3009    2.4355   -2.9469 H   0  0  0  0  0  0  0  0  0  0  0  0
   -0.1919    3.0930   -2.2533 H   0  0  0  0  0  0  0  0  0  0  0  0
  5  6  2  0  0  0  0
  5  7  1  0  0  0  0
  2  3  1  0  0  0  0
  2  4  1  0  0  0  0
  2  5  1  0  0  0  0
  1  2  1  0  0  0  0
 23 24  2  0  0  0  0
 23 25  1  0  0  0  0
 21 22  1  0  0  0  0
 19 20  1  0  0  0  0
 19 21  1  0  0  0  0
 17 18  1  0  0  0  0
 17 19  1  0  0  0  0
 15 16  1  0  0  0  0
 15 17  2  0  0  0  0
 14 15  1  0  0  0  0
 14 21  2  0  0  0  0
 11 12  1  0  0  0  0
 11 13  1  0  0  0  0
 11 14  1  0  0  0  0
  9 10  1  0  0  0  0
  9 11  1  0  0  0  0
  9 23  1  0  0  0  0
  7  8  1  0  0  0  0
  7  9  1  0  0  0  0
 27 28  1  0  0  0  0
 27 29  1  0  0  0  0
 27 30  1  0  0  0  0
 25 26  1  0  0  0  0
 25 27  1  0  0  0  0
M  CHG  1  15   1
M  END
$$$$
default_name
  -OEChem-01062215323D

 30 30  0     1  0  0  0  0  0999 V2000
   -3.5507   -3.2183    1.8116 H   0  0  0  0  0  0  0  0  0  0  0  0
   -3.4597   -2.3913    1.1076 C   0  0  0  0  0  0  0  0  0  0  0  0
   -4.1577   -1.6043    1.3866 H   0  0  0  0  0  0  0  0  0  0  0  0
   -3.6807   -2.7523    0.1036 H   0  0  0  0  0  0  0  0  0  0  0  0
   -2.0477   -1.8543    1.1546 C   0  0  0  0  0  0  0  0  0  0  0  0
   -1.2227   -2.3443    1.9146 O   0  0  0  0  0  0  0  0  0  0  0  0
   -1.7517   -0.8483    0.3266 N   0  0  0  0  0  0  0  0  0  0  0  0
   -2.4847   -0.5123   -0.2804 H   0  0  0  0  0  0  0  0  0  0  0  0
   -0.4117   -0.2463    0.2186 C   0  0  1  0  0  0  0  0  0  0  0  0
   -0.0521   -0.0328    1.2283 H   0  0  0  0  0  0  0  0  0  0  0  0
    0.5491   -1.2897   -0.3973 C   0  0  0  0  0  0  0  0  0  0  0  0
    0.1574   -1.5911   -1.3720 H   0  0  0  0  0  0  0  0  0  0  0  0
    1.5188   -0.8190   -0.5731 H   0  0  0  0  0  0  0  0  0  0  0  0
    0.7737   -2.5309    0.4402 C   0  0  0  0  0  0  0  0  0  0  0  0
    1.5540   -2.5957    1.5783 N   0  3  0  0  0  0  0  0  0  0  0  0
    2.0070   -1.7799    2.0001 H   0  0  0  0  0  0  0  0  0  0  0  0
    1.5164   -3.8582    2.0489 C   0  0  0  0  0  0  0  0  0  0  0  0
    2.0253   -4.2120    2.9432 H   0  0  0  0  0  0  0  0  0  0  0  0
    0.7299   -4.5963    1.2333 N   0  0  0  0  0  0  0  0  0  0  0  0
    0.5162   -5.5840    1.3436 H   0  0  0  0  0  0  0  0  0  0  0  0
    0.2555   -3.7780    0.2175 C   0  0  0  0  0  0  0  0  0  0  0  0
   -0.4011   -4.0622   -0.6002 H   0  0  0  0  0  0  0  0  0  0  0  0
   -0.4606    1.1026   -0.5209 C   0  0  0  0  0  0  0  0  0  0  0  0
   -1.3362    1.9290   -0.2598 O   0  0  0  0  0  0  0  0  0  0  0  0
    0.4792    1.3064   -1.4522 N   0  0  0  0  0  0  0  0  0  0  0  0
    1.1628    0.5777   -1.5903 H   0  0  0  0  0  0  0  0  0  0  0  0
    0.5933    2.5033   -2.2911 C   0  0  0  0  0  0  0  0  0  0  0  0
    1.3744    3.1601   -1.9029 H   0  0  0  0  0  0  0  0  0  0  0  0
    0.8538    2.2191   -3.3121 H   0  0  0  0  0  0  0  0  0  0  0  0
   -0.3493    3.0542   -2.3137 H   0  0  0  0  0  0  0  0  0  0  0  0
  5  6  2  0  0  0  0
  5  7  1  0  0  0  0
  2  3  1  0  0  0  0
  2  4  1  0  0  0  0
  2  5  1  0  0  0  0
  1  2  1  0  0  0  0
 23 24  2  0  0  0  0
 23 25  1  0  0  0  0
 21 22  1  0  0  0  0
 19 20  1  0  0  0  0
 19 21  1  0  0  0  0
 17 18  1  0  0  0  0
 17 19  1  0  0  0  0
 15 16  1  0  0  0  0
 15 17  2  0  0  0  0
 14 15  1  0  0  0  0
 14 21  2  0  0  0  0
 11 12  1  0  0  0  0
 11 13  1  0  0  0  0
 11 14  1  0  0  0  0
  9 10  1  0  0  0  0
  9 11  1  0  0  0  0
  9 23  1  0  0  0  0
  7  8  1  0  0  0  0
  7  9  1  0  0  0  0
 27 28  1  0  0  0  0
 27 29  1  0  0  0  0
 27 30  1  0  0  0  0
 25 26  1  0  0  0  0
 25 27  1  0  0  0  0
M  CHG  1  15   1
M  END
$$$$
default_name
  -OEChem-01062215323D

 30 30  0     1  0  0  0  0  0999 V2000
   -3.5507   -3.2183    1.8116 H   0  0  0  0  0  0  0  0  0  0  0  0
   -3.4597   -2.3913    1.1076 C   0  0  0  0  0  0  0  0  0  0  0  0
   -4.1577   -1.6043    1.3866 H   0  0  0  0  0  0  0  0  0  0  0  0
   -3.6807   -2.7523    0.1036 H   0  0  0  0  0  0  0  0  0  0  0  0
   -2.0477   -1.8543    1.1546 C   0  0  0  0  0  0  0  0  0  0  0  0
   -1.2227   -2.3443    1.9146 O   0  0  0  0  0  0  0  0  0  0  0  0
   -1.7517   -0.8483    0.3266 N   0  0  0  0  0  0  0  0  0  0  0  0
   -2.4847   -0.5123   -0.2804 H   0  0  0  0  0  0  0  0  0  0  0  0
   -0.4117   -0.2463    0.2186 C   0  0  1  0  0  0  0  0  0  0  0  0
   -0.0521   -0.0328    1.2283 H   0  0  0  0  0  0  0  0  0  0  0  0
    0.5491   -1.2897   -0.3973 C   0  0  0  0  0  0  0  0  0  0  0  0
    0.1574   -1.5911   -1.3720 H   0  0  0  0  0  0  0  0  0  0  0  0
    1.5188   -0.8190   -0.5731 H   0  0  0  0  0  0  0  0  0  0  0  0
    0.7737   -2.5309    0.4402 C   0  0  0  0  0  0  0  0  0  0  0  0
    1.5540   -2.5957    1.5783 N   0  3  0  0  0  0  0  0  0  0  0  0
    2.0070   -1.7799    2.0001 H   0  0  0  0  0  0  0  0  0  0  0  0
    1.5164   -3.8582    2.0489 C   0  0  0  0  0  0  0  0  0  0  0  0
    2.0253   -4.2120    2.9432 H   0  0  0  0  0  0  0  0  0  0  0  0
    0.7299   -4.5963    1.2333 N   0  0  0  0  0  0  0  0  0  0  0  0
    0.5162   -5.5840    1.3436 H   0  0  0  0  0  0  0  0  0  0  0  0
    0.2555   -3.7780    0.2175 C   0  0  0  0  0  0  0  0  0  0  0  0
   -0.4011   -4.0622   -0.6002 H   0  0  0  0  0  0  0  0  0  0  0  0
   -0.4606    1.1026   -0.5209 C   0  0  0  0  0  0  0  0  0  0  0  0
   -1.1450    2.0306   -0.0871 O   0  0  0  0  0  0  0  0  0  0  0  0
    0.2606    1.1927   -1.6451 N   0  0  0  0  0  0  0  0  0  0  0  0
    0.7997    0.3849   -1.9178 H   0  0  0  0  0  0  0  0  0  0  0  0
    0.3278    2.3710   -2.5148 C   0  0  0  0  0  0  0  0  0  0  0  0
    1.2516    2.9223   -2.3284 H   0  0  0  0  0  0  0  0  0  0  0  0
    0.3123    2.0626   -3.5616 H   0  0  0  0  0  0  0  0  0  0  0  0
   -0.5198    3.0358   -2.3360 H   0  0  0  0  0  0  0  0  0  0  0  0
  5  6  2  0  0  0  0
  5  7  1  0  0  0  0
  2  3  1  0  0  0  0
  2  4  1  0  0  0  0
  2  5  1  0  0  0  0
  1  2  1  0  0  0  0
 23 24  2  0  0  0  0
 23 25  1  0  0  0  0
 21 22  1  0  0  0  0
 19 20  1  0  0  0  0
 19 21  1  0  0  0  0
 17 18  1  0  0  0  0
 17 19  1  0  0  0  0
 15 16  1  0  0  0  0
 15 17  2  0  0  0  0
 14 15  1  0  0  0  0
 14 21  2  0  0  0  0
 11 12  1  0  0  0  0
 11 13  1  0  0  0  0
 11 14  1  0  0  0  0
  9 10  1  0  0  0  0
  9 11  1  0  0  0  0
  9 23  1  0  0  0  0
  7  8  1  0  0  0  0
  7  9  1  0  0  0  0
 27 28  1  0  0  0  0
 27 29  1  0  0  0  0
 27 30  1  0  0  0  0
 25 26  1  0  0  0  0
 25 27  1  0  0  0  0
M  CHG  1  15   1
M  END
$$$$
default_name
  -OEChem-01062215323D

 30 30  0     1  0  0  0  0  0999 V2000
   -3.5507   -3.2183    1.8116 H   0  0  0  0  0  0  0  0  0  0  0  0
   -3.4597   -2.3913    1.1076 C   0  0  0  0  0  0  0  0  0  0  0  0
   -4.1577   -1.6043    1.3866 H   0  0  0  0  0  0  0  0  0  0  0  0
   -3.6807   -2.7523    0.1036 H   0  0  0  0  0  0  0  0  0  0  0  0
   -2.0477   -1.8543    1.1546 C   0  0  0  0  0  0  0  0  0  0  0  0
   -1.2227   -2.3443    1.9146 O   0  0  0  0  0  0  0  0  0  0  0  0
   -1.7517   -0.8483    0.3266 N   0  0  0  0  0  0  0  0  0  0  0  0
   -2.4847   -0.5123   -0.2804 H   0  0  0  0  0  0  0  0  0  0  0  0
   -0.4117   -0.2463    0.2186 C   0  0  1  0  0  0  0  0  0  0  0  0
   -0.0521   -0.0328    1.2283 H   0  0  0  0  0  0  0  0  0  0  0  0
    0.5491   -1.2897   -0.3973 C   0  0  0  0  0  0  0  0  0  0  0  0
    0.1574   -1.5911   -1.3720 H   0  0  0  0  0  0  0  0  0  0  0  0
    1.5188   -0.8190   -0.5731 H   0  0  0  0  0  0  0  0  0  0  0  0
    0.7737   -2.5309    0.4402 C   0  0  0  0  0  0  0  0  0  0  0  0
    1.5540   -2.5957    1.5783 N   0  3  0  0  0  0  0  0  0  0  0  0
    2.0070   -1.7799    2.0001 H   0  0  0  0  0  0  0  0  0  0  0  0
    1.5164   -3.8582    2.0489 C   0  0  0  0  0  0  0  0  0  0  0  0
    2.0253   -4.2120    2.9432 H   0  0  0  0  0  0  0  0  0  0  0  0
    0.7299   -4.5963    1.2333 N   0  0  0  0  0  0  0  0  0  0  0  0
    0.5162   -5.5840    1.3436 H   0  0  0  0  0  0  0  0  0  0  0  0
    0.2555   -3.7780    0.2175 C   0  0  0  0  0  0  0  0  0  0  0  0
   -0.4011   -4.0622   -0.6002 H   0  0  0  0  0  0  0  0  0  0  0  0
   -0.4606    1.1026   -0.5209 C   0  0  0  0  0  0  0  0  0  0  0  0
   -0.9086    2.1064    0.0355 O   0  0  0  0  0  0  0  0  0  0  0  0
   -0.0084    1.1085   -1.7809 N   0  0  0  0  0  0  0  0  0  0  0  0
    0.3506    0.2412   -2.1502 H   0  0  0  0  0  0  0  0  0  0  0  0
    0.0042    2.2743   -2.6697 C   0  0  0  0  0  0  0  0  0  0  0  0
    1.0069    2.7044   -2.7097 H   0  0  0  0  0  0  0  0  0  0  0  0
   -0.2869    1.9768   -3.6785 H   0  0  0  0  0  0  0  0  0  0  0  0
   -0.6919    3.0391   -2.3187 H   0  0  0  0  0  0  0  0  0  0  0  0
  5  6  2  0  0  0  0
  5  7  1  0  0  0  0
  2  3  1  0  0  0  0
  2  4  1  0  0  0  0
  2  5  1  0  0  0  0
  1  2  1  0  0  0  0
 23 24  2  0  0  0  0
 23 25  1  0  0  0  0
 21 22  1  0  0  0  0
 19 20  1  0  0  0  0
 19 21  1  0  0  0  0
 17 18  1  0  0  0  0
 17 19  1  0  0  0  0
 15 16  1  0  0  0  0
 15 17  2  0  0  0  0
 14 15  1  0  0  0  0
 14 21  2  0  0  0  0
 11 12  1  0  0  0  0
 11 13  1  0  0  0  0
 11 14  1  0  0  0  0
  9 10  1  0  0  0  0
  9 11  1  0  0  0  0
  9 23  1  0  0  0  0
  7  8  1  0  0  0  0
  7  9  1  0  0  0  0
 27 28  1  0  0  0  0
 27 29  1  0  0  0  0
 27 30  1  0  0  0  0
 25 26  1  0  0  0  0
 25 27  1  0  0  0  0
M  CHG  1  15   1
M  END
$$$$
default_name
  -OEChem-01062215323D

 30 30  0     1  0  0  0  0  0999 V2000
   -3.5507   -3.2183    1.8116 H   0  0  0  0  0  0  0  0  0  0  0  0
   -3.4597   -2.3913    1.1076 C   0  0  0  0  0  0  0  0  0  0  0  0
   -4.1577   -1.6043    1.3866 H   0  0  0  0  0  0  0  0  0  0  0  0
   -3.6807   -2.7523    0.1036 H   0  0  0  0  0  0  0  0  0  0  0  0
   -2.0477   -1.8543    1.1546 C   0  0  0  0  0  0  0  0  0  0  0  0
   -1.2227   -2.3443    1.9146 O   0  0  0  0  0  0  0  0  0  0  0  0
   -1.7517   -0.8483    0.3266 N   0  0  0  0  0  0  0  0  0  0  0  0
   -2.4847   -0.5123   -0.2804 H   0  0  0  0  0  0  0  0  0  0  0  0
   -0.4117   -0.2463    0.2186 C   0  0  1  0  0  0  0  0  0  0  0  0
   -0.0521   -0.0328    1.2283 H   0  0  0  0  0  0  0  0  0  0  0  0
    0.5491   -1.2897   -0.3973 C   0  0  0  0  0  0  0  0  0  0  0  0
    0.1574   -1.5911   -1.3720 H   0  0  0  0  0  0  0  0  0  0  0  0
    1.5188   -0.8190   -0.5731 H   0  0  0  0  0  0  0  0  0  0  0  0
    0.7737   -2.5309    0.4402 C   0  0  0  0  0  0  0  0  0  0  0  0
    1.5540   -2.5957    1.5783 N   0  3  0  0  0  0  0  0  0  0  0  0
    2.0070   -1.7799    2.0001 H   0  0  0  0  0  0  0  0  0  0  0  0
    1.5164   -3.8582    2.0489 C   0  0  0  0  0  0  0  0  0  0  0  0
    2.0253   -4.2120    2.9432 H   0  0  0  0  0  0  0  0  0  0  0  0
    0.7299   -4.5963    1.2333 N   0  0  0  0  0  0  0  0  0  0  0  0
    0.5162   -5.5840    1.3436 H   0  0  0  0  0  0  0  0  0  0  0  0
    0.2555   -3.7780    0.2175 C   0  0  0  0  0  0  0  0  0  0  0  0
   -0.4011   -4.0622   -0.6002 H   0  0  0  0  0  0  0  0  0  0  0  0
   -0.4606    1.1026   -0.5209 C   0  0  0  0  0  0  0  0  0  0  0  0
   -0.6430    2.1512    0.0996 O   0  0  0  0  0  0  0  0  0  0  0  0
   -0.3095    1.0595   -1.8503 N   0  0  0  0  0  0  0  0  0  0  0  0
   -0.1538    0.1564   -2.2717 H   0  0  0  0  0  0  0  0  0  0  0  0
   -0.3556    2.2200   -2.7450 C   0  0  0  0  0  0  0  0  0  0  0  0
    0.6570    2.5213   -3.0206 H   0  0  0  0  0  0  0  0  0  0  0  0
   -0.9028    1.9674   -3.6548 H   0  0  0  0  0  0  0  0  0  0  0  0
   -0.8538    3.0637   -2.2629 H   0  0  0  0  0  0  0  0  0  0  0  0
  5  6  2  0  0  0  0
  5  7  1  0  0  0  0
  2  3  1  0  0  0  0
  2  4  1  0  0  0  0
  2  5  1  0  0  0  0
  1  2  1  0  0  0  0
 23 24  2  0  0  0  0
 23 25  1  0  0  0  0
 21 22  1  0  0  0  0
 19 20  1  0  0  0  0
 19 21  1  0  0  0  0
 17 18  1  0  0  0  0
 17 19  1  0  0  0  0
 15 16  1  0  0  0  0
 15 17  2  0  0  0  0
 14 15  1  0  0  0  0
 14 21  2  0  0  0  0
 11 12  1  0  0  0  0
 11 13  1  0  0  0  0
 11 14  1  0  0  0  0
  9 10  1  0  0  0  0
  9 11  1  0  0  0  0
  9 23  1  0  0  0  0
  7  8  1  0  0  0  0
  7  9  1  0  0  0  0
 27 28  1  0  0  0  0
 27 29  1  0  0  0  0
 27 30  1  0  0  0  0
 25 26  1  0  0  0  0
 25 27  1  0  0  0  0
M  CHG  1  15   1
M  END
$$$$
default_name
  -OEChem-01062215323D

 30 30  0     1  0  0  0  0  0999 V2000
   -3.5507   -3.2183    1.8116 H   0  0  0  0  0  0  0  0  0  0  0  0
   -3.4597   -2.3913    1.1076 C   0  0  0  0  0  0  0  0  0  0  0  0
   -4.1577   -1.6043    1.3866 H   0  0  0  0  0  0  0  0  0  0  0  0
   -3.6807   -2.7523    0.1036 H   0  0  0  0  0  0  0  0  0  0  0  0
   -2.0477   -1.8543    1.1546 C   0  0  0  0  0  0  0  0  0  0  0  0
   -1.2227   -2.3443    1.9146 O   0  0  0  0  0  0  0  0  0  0  0  0
   -1.7517   -0.8483    0.3266 N   0  0  0  0  0  0  0  0  0  0  0  0
   -2.4847   -0.5123   -0.2804 H   0  0  0  0  0  0  0  0  0  0  0  0
   -0.4117   -0.2463    0.2186 C   0  0  1  0  0  0  0  0  0  0  0  0
   -0.0521   -0.0328    1.2283 H   0  0  0  0  0  0  0  0  0  0  0  0
    0.5491   -1.2897   -0.3973 C   0  0  0  0  0  0  0  0  0  0  0  0
    0.1574   -1.5911   -1.3720 H   0  0  0  0  0  0  0  0  0  0  0  0
    1.5188   -0.8190   -0.5731 H   0  0  0  0  0  0  0  0  0  0  0  0
    0.7737   -2.5309    0.4402 C   0  0  0  0  0  0  0  0  0  0  0  0
    1.5540   -2.5957    1.5783 N   0  3  0  0  0  0  0  0  0  0  0  0
    2.0070   -1.7799    2.0001 H   0  0  0  0  0  0  0  0  0  0  0  0
    1.5164   -3.8582    2.0489 C   0  0  0  0  0  0  0  0  0  0  0  0
    2.0253   -4.2120    2.9432 H   0  0  0  0  0  0  0  0  0  0  0  0
    0.7299   -4.5963    1.2333 N   0  0  0  0  0  0  0  0  0  0  0  0
    0.5162   -5.5840    1.3436 H   0  0  0  0  0  0  0  0  0  0  0  0
    0.2555   -3.7780    0.2175 C   0  0  0  0  0  0  0  0  0  0  0  0
   -0.4011   -4.0622   -0.6002 H   0  0  0  0  0  0  0  0  0  0  0  0
   -0.4606    1.1026   -0.5209 C   0  0  0  0  0  0  0  0  0  0  0  0
   -0.3663    2.1620    0.1009 O   0  0  0  0  0  0  0  0  0  0  0  0
   -0.6223    1.0490   -1.8487 N   0  0  0  0  0  0  0  0  0  0  0  0
   -0.6790    0.1361   -2.2739 H   0  0  0  0  0  0  0  0  0  0  0  0
   -0.7269    2.2116   -2.7357 C   0  0  0  0  0  0  0  0  0  0  0  0
    0.2257    2.3853   -3.2401 H   0  0  0  0  0  0  0  0  0  0  0  0
   -1.4936    2.0351   -3.4922 H   0  0  0  0  0  0  0  0  0  0  0  0
   -0.9944    3.1082   -2.1726 H   0  0  0  0  0  0  0  0  0  0  0  0
  5  6  2  0  0  0  0
  5  7  1  0  0  0  0
  2  3  1  0  0  0  0
  2  4  1  0  0  0  0
  2  5  1  0  0  0  0
  1  2  1  0  0  0  0
 23 24  2  0  0  0  0
 23 25  1  0  0  0  0
 21 22  1  0  0  0  0
 19 20  1  0  0  0  0
 19 21  1  0  0  0  0
 17 18  1  0  0  0  0
 17 19  1  0  0  0  0
 15 16  1  0  0  0  0
 15 17  2  0  0  0  0
 14 15  1  0  0  0  0
 14 21  2  0  0  0  0
 11 12  1  0  0  0  0
 11 13  1  0  0  0  0
 11 14  1  0  0  0  0
  9 10  1  0  0  0  0
  9 11  1  0  0  0  0
  9 23  1  0  0  0  0
  7  8  1  0  0  0  0
  7  9  1  0  0  0  0
 27 28  1  0  0  0  0
 27 29  1  0  0  0  0
 27 30  1  0  0  0  0
 25 26  1  0  0  0  0
 25 27  1  0  0  0  0
M  CHG  1  15   1
M  END
$$$$
default_name
  -OEChem-01062215323D

 30 30  0     1  0  0  0  0  0999 V2000
   -3.5507   -3.2183    1.8116 H   0  0  0  0  0  0  0  0  0  0  0  0
   -3.4597   -2.3913    1.1076 C   0  0  0  0  0  0  0  0  0  0  0  0
   -4.1577   -1.6043    1.3866 H   0  0  0  0  0  0  0  0  0  0  0  0
   -3.6807   -2.7523    0.1036 H   0  0  0  0  0  0  0  0  0  0  0  0
   -2.0477   -1.8543    1.1546 C   0  0  0  0  0  0  0  0  0  0  0  0
   -1.2227   -2.3443    1.9146 O   0  0  0  0  0  0  0  0  0  0  0  0
   -1.7517   -0.8483    0.3266 N   0  0  0  0  0  0  0  0  0  0  0  0
   -2.4847   -0.5123   -0.2804 H   0  0  0  0  0  0  0  0  0  0  0  0
   -0.4117   -0.2463    0.2186 C   0  0  1  0  0  0  0  0  0  0  0  0
   -0.0521   -0.0328    1.2283 H   0  0  0  0  0  0  0  0  0  0  0  0
    0.5491   -1.2897   -0.3973 C   0  0  0  0  0  0  0  0  0  0  0  0
    0.1574   -1.5911   -1.3720 H   0  0  0  0  0  0  0  0  0  0  0  0
    1.5188   -0.8190   -0.5731 H   0  0  0  0  0  0  0  0  0  0  0  0
    0.7737   -2.5309    0.4402 C   0  0  0  0  0  0  0  0  0  0  0  0
    1.5540   -2.5957    1.5783 N   0  3  0  0  0  0  0  0  0  0  0  0
    2.0070   -1.7799    2.0001 H   0  0  0  0  0  0  0  0  0  0  0  0
    1.5164   -3.8582    2.0489 C   0  0  0  0  0  0  0  0  0  0  0  0
    2.0253   -4.2120    2.9432 H   0  0  0  0  0  0  0  0  0  0  0  0
    0.7299   -4.5963    1.2333 N   0  0  0  0  0  0  0  0  0  0  0  0
    0.5162   -5.5840    1.3436 H   0  0  0  0  0  0  0  0  0  0  0  0
    0.2555   -3.7780    0.2175 C   0  0  0  0  0  0  0  0  0  0  0  0
   -0.4011   -4.0622   -0.6002 H   0  0  0  0  0  0  0  0  0  0  0  0
   -0.4606    1.1026   -0.5209 C   0  0  0  0  0  0  0  0  0  0  0  0
   -0.0974    2.1380    0.0393 O   0  0  0  0  0  0  0  0  0  0  0  0
   -0.9253    1.0778   -1.7761 N   0  0  0  0  0  0  0  0  0  0  0  0
   -1.1894    0.1818   -2.1567 H   0  0  0  0  0  0  0  0  0  0  0  0
   -1.0845    2.2497   -2.6425 C   0  0  0  0  0  0  0  0  0  0  0  0
   -0.2575    2.3058   -3.3531 H   0  0  0  0  0  0  0  0  0  0  0  0
   -2.0189    2.1754   -3.2016 H   0  0  0  0  0  0  0  0  0  0  0  0
   -1.1043    3.1693   -2.0538 H   0  0  0  0  0  0  0  0  0  0  0  0
  5  6  2  0  0  0  0
  5  7  1  0  0  0  0
  2  3  1  0  0  0  0
  2  4  1  0  0  0  0
  2  5  1  0  0  0  0
  1  2  1  0  0  0  0
 23 24  2  0  0  0  0
 23 25  1  0  0  0  0
 21 22  1  0  0  0  0
 19 20  1  0  0  0  0
 19 21  1  0  0  0  0
 17 18  1  0  0  0  0
 17 19  1  0  0  0  0
 15 16  1  0  0  0  0
 15 17  2  0  0  0  0
 14 15  1  0  0  0  0
 14 21  2  0  0  0  0
 11 12  1  0  0  0  0
 11 13  1  0  0  0  0
 11 14  1  0  0  0  0
  9 10  1  0  0  0  0
  9 11  1  0  0  0  0
  9 23  1  0  0  0  0
  7  8  1  0  0  0  0
  7  9  1  0  0  0  0
 27 28  1  0  0  0  0
 27 29  1  0  0  0  0
 27 30  1  0  0  0  0
 25 26  1  0  0  0  0
 25 27  1  0  0  0  0
M  CHG  1  15   1
M  END
$$$$
default_name
  -OEChem-01062215323D

 30 30  0     1  0  0  0  0  0999 V2000
   -3.5507   -3.2183    1.8116 H   0  0  0  0  0  0  0  0  0  0  0  0
   -3.4597   -2.3913    1.1076 C   0  0  0  0  0  0  0  0  0  0  0  0
   -4.1577   -1.6043    1.3866 H   0  0  0  0  0  0  0  0  0  0  0  0
   -3.6807   -2.7523    0.1036 H   0  0  0  0  0  0  0  0  0  0  0  0
   -2.0477   -1.8543    1.1546 C   0  0  0  0  0  0  0  0  0  0  0  0
   -1.2227   -2.3443    1.9146 O   0  0  0  0  0  0  0  0  0  0  0  0
   -1.7517   -0.8483    0.3266 N   0  0  0  0  0  0  0  0  0  0  0  0
   -2.4847   -0.5123   -0.2804 H   0  0  0  0  0  0  0  0  0  0  0  0
   -0.4117   -0.2463    0.2186 C   0  0  1  0  0  0  0  0  0  0  0  0
   -0.0521   -0.0328    1.2283 H   0  0  0  0  0  0  0  0  0  0  0  0
    0.5491   -1.2897   -0.3973 C   0  0  0  0  0  0  0  0  0  0  0  0
    0.1574   -1.5911   -1.3720 H   0  0  0  0  0  0  0  0  0  0  0  0
    1.5188   -0.8190   -0.5731 H   0  0  0  0  0  0  0  0  0  0  0  0
    0.7737   -2.5309    0.4402 C   0  0  0  0  0  0  0  0  0  0  0  0
    1.5540   -2.5957    1.5783 N   0  3  0  0  0  0  0  0  0  0  0  0
    2.0070   -1.7799    2.0001 H   0  0  0  0  0  0  0  0  0  0  0  0
    1.5164   -3.8582    2.0489 C   0  0  0  0  0  0  0  0  0  0  0  0
    2.0253   -4.2120    2.9432 H   0  0  0  0  0  0  0  0  0  0  0  0
    0.7299   -4.5963    1.2333 N   0  0  0  0  0  0  0  0  0  0  0  0
    0.5162   -5.5840    1.3436 H   0  0  0  0  0  0  0  0  0  0  0  0
    0.2555   -3.7780    0.2175 C   0  0  0  0  0  0  0  0  0  0  0  0
   -0.4011   -4.0622   -0.6002 H   0  0  0  0  0  0  0  0  0  0  0  0
   -0.4606    1.1026   -0.5209 C   0  0  0  0  0  0  0  0  0  0  0  0
    0.1454    2.0808   -0.0809 O   0  0  0  0  0  0  0  0  0  0  0  0
   -1.1979    1.1439   -1.6375 N   0  0  0  0  0  0  0  0  0  0  0  0
   -1.6502    0.2904   -1.9281 H   0  0  0  0  0  0  0  0  0  0  0  0
   -1.4041    2.3318   -2.4716 C   0  0  0  0  0  0  0  0  0  0  0  0
   -0.7599    2.2881   -3.3520 H   0  0  0  0  0  0  0  0  0  0  0  0
   -2.4429    2.3786   -2.8029 H   0  0  0  0  0  0  0  0  0  0  0  0
   -1.1758    3.2430   -1.9146 H   0  0  0  0  0  0  0  0  0  0  0  0
  5  6  2  0  0  0  0
  5  7  1  0  0  0  0
  2  3  1  0  0  0  0
  2  4  1  0  0  0  0
  2  5  1  0  0  0  0
  1  2  1  0  0  0  0
 23 24  2  0  0  0  0
 23 25  1  0  0  0  0
 21 22  1  0  0  0  0
 19 20  1  0  0  0  0
 19 21  1  0  0  0  0
 17 18  1  0  0  0  0
 17 19  1  0  0  0  0
 15 16  1  0  0  0  0
 15 17  2  0  0  0  0
 14 15  1  0  0  0  0
 14 21  2  0  0  0  0
 11 12  1  0  0  0  0
 11 13  1  0  0  0  0
 11 14  1  0  0  0  0
  9 10  1  0  0  0  0
  9 11  1  0  0  0  0
  9 23  1  0  0  0  0
  7  8  1  0  0  0  0
  7  9  1  0  0  0  0
 27 28  1  0  0  0  0
 27 29  1  0  0  0  0
 27 30  1  0  0  0  0
 25 26  1  0  0  0  0
 25 27  1  0  0  0  0
M  CHG  1  15   1
M  END
$$$$
default_name
  -OEChem-01062215323D

 30 30  0     1  0  0  0  0  0999 V2000
   -3.5507   -3.2183    1.8116 H   0  0  0  0  0  0  0  0  0  0  0  0
   -3.4597   -2.3913    1.1076 C   0  0  0  0  0  0  0  0  0  0  0  0
   -4.1577   -1.6043    1.3866 H   0  0  0  0  0  0  0  0  0  0  0  0
   -3.6807   -2.7523    0.1036 H   0  0  0  0  0  0  0  0  0  0  0  0
   -2.0477   -1.8543    1.1546 C   0  0  0  0  0  0  0  0  0  0  0  0
   -1.2227   -2.3443    1.9146 O   0  0  0  0  0  0  0  0  0  0  0  0
   -1.7517   -0.8483    0.3266 N   0  0  0  0  0  0  0  0  0  0  0  0
   -2.4847   -0.5123   -0.2804 H   0  0  0  0  0  0  0  0  0  0  0  0
   -0.4117   -0.2463    0.2186 C   0  0  1  0  0  0  0  0  0  0  0  0
   -0.0521   -0.0328    1.2283 H   0  0  0  0  0  0  0  0  0  0  0  0
    0.5491   -1.2897   -0.3973 C   0  0  0  0  0  0  0  0  0  0  0  0
    0.1574   -1.5911   -1.3720 H   0  0  0  0  0  0  0  0  0  0  0  0
    1.5188   -0.8190   -0.5731 H   0  0  0  0  0  0  0  0  0  0  0  0
    0.7737   -2.5309    0.4402 C   0  0  0  0  0  0  0  0  0  0  0  0
    1.5540   -2.5957    1.5783 N   0  3  0  0  0  0  0  0  0  0  0  0
    2.0070   -1.7799    2.0001 H   0  0  0  0  0  0  0  0  0  0  0  0
    1.5164   -3.8582    2.0489 C   0  0  0  0  0  0  0  0  0  0  0  0
    2.0253   -4.2120    2.9432 H   0  0  0  0  0  0  0  0  0  0  0  0
    0.7299   -4.5963    1.2333 N   0  0  0  0  0  0  0  0  0  0  0  0
    0.5162   -5.5840    1.3436 H   0  0  0  0  0  0  0  0  0  0  0  0
    0.2555   -3.7780    0.2175 C   0  0  0  0  0  0  0  0  0  0  0  0
   -0.4011   -4.0622   -0.6002 H   0  0  0  0  0  0  0  0  0  0  0  0
   -0.4606    1.1026   -0.5209 C   0  0  0  0  0  0  0  0  0  0  0  0
    0.3455    1.9945   -0.2517 O   0  0  0  0  0  0  0  0  0  0  0  0
   -1.4216    1.2428   -1.4423 N   0  0  0  0  0  0  0  0  0  0  0  0
   -2.0298    0.4545   -1.6036 H   0  0  0  0  0  0  0  0  0  0  0  0
   -1.6638    2.4523   -2.2347 C   0  0  0  0  0  0  0  0  0  0  0  0
   -1.2471    2.3336   -3.2369 H   0  0  0  0  0  0  0  0  0  0  0  0
   -2.7368    2.6308   -2.3233 H   0  0  0  0  0  0  0  0  0  0  0  0
   -1.2042    3.3242   -1.7646 H   0  0  0  0  0  0  0  0  0  0  0  0
  5  6  2  0  0  0  0
  5  7  1  0  0  0  0
  2  3  1  0  0  0  0
  2  4  1  0  0  0  0
  2  5  1  0  0  0  0
  1  2  1  0  0  0  0
 23 24  2  0  0  0  0
 23 25  1  0  0  0  0
 21 22  1  0  0  0  0
 19 20  1  0  0  0  0
 19 21  1  0  0  0  0
 17 18  1  0  0  0  0
 17 19  1  0  0  0  0
 15 16  1  0  0  0  0
 15 17  2  0  0  0  0
 14 15  1  0  0  0  0
 14 21  2  0  0  0  0
 11 12  1  0  0  0  0
 11 13  1  0  0  0  0
 11 14  1  0  0  0  0
  9 10  1  0  0  0  0
  9 11  1  0  0  0  0
  9 23  1  0  0  0  0
  7  8  1  0  0  0  0
  7  9  1  0  0  0  0
 27 28  1  0  0  0  0
 27 29  1  0  0  0  0
 27 30  1  0  0  0  0
 25 26  1  0  0  0  0
 25 27  1  0  0  0  0
M  CHG  1  15   1
M  END
$$$$
default_name
  -OEChem-01062215323D

 30 30  0     1  0  0  0  0  0999 V2000
   -3.5507   -3.2183    1.8116 H   0  0  0  0  0  0  0  0  0  0  0  0
   -3.4597   -2.3913    1.1076 C   0  0  0  0  0  0  0  0  0  0  0  0
   -4.1577   -1.6043    1.3866 H   0  0  0  0  0  0  0  0  0  0  0  0
   -3.6807   -2.7523    0.1036 H   0  0  0  0  0  0  0  0  0  0  0  0
   -2.0477   -1.8543    1.1546 C   0  0  0  0  0  0  0  0  0  0  0  0
   -1.2227   -2.3443    1.9146 O   0  0  0  0  0  0  0  0  0  0  0  0
   -1.7517   -0.8483    0.3266 N   0  0  0  0  0  0  0  0  0  0  0  0
   -2.4847   -0.5123   -0.2804 H   0  0  0  0  0  0  0  0  0  0  0  0
   -0.4117   -0.2463    0.2186 C   0  0  1  0  0  0  0  0  0  0  0  0
   -0.0521   -0.0328    1.2283 H   0  0  0  0  0  0  0  0  0  0  0  0
    0.5491   -1.2897   -0.3973 C   0  0  0  0  0  0  0  0  0  0  0  0
    0.1574   -1.5911   -1.3720 H   0  0  0  0  0  0  0  0  0  0  0  0
    1.5188   -0.8190   -0.5731 H   0  0  0  0  0  0  0  0  0  0  0  0
    0.7737   -2.5309    0.4402 C   0  0  0  0  0  0  0  0  0  0  0  0
    1.5540   -2.5957    1.5783 N   0  3  0  0  0  0  0  0  0  0  0  0
    2.0070   -1.7799    2.0001 H   0  0  0  0  0  0  0  0  0  0  0  0
    1.5164   -3.8582    2.0489 C   0  0  0  0  0  0  0  0  0  0  0  0
    2.0253   -4.2120    2.9432 H   0  0  0  0  0  0  0  0  0  0  0  0
    0.7299   -4.5963    1.2333 N   0  0  0  0  0  0  0  0  0  0  0  0
    0.5162   -5.5840    1.3436 H   0  0  0  0  0  0  0  0  0  0  0  0
    0.2555   -3.7780    0.2175 C   0  0  0  0  0  0  0  0  0  0  0  0
   -0.4011   -4.0622   -0.6002 H   0  0  0  0  0  0  0  0  0  0  0  0
   -0.4606    1.1026   -0.5209 C   0  0  0  0  0  0  0  0  0  0  0  0
    0.4893    1.8848   -0.4613 O   0  0  0  0  0  0  0  0  0  0  0  0
   -1.5810    1.3677   -1.2039 N   0  0  0  0  0  0  0  0  0  0  0  0
   -2.3026    0.6629   -1.2055 H   0  0  0  0  0  0  0  0  0  0  0  0
   -1.8459    2.6028   -1.9480 C   0  0  0  0  0  0  0  0  0  0  0  0
   -1.6859    2.4390   -3.0155 H   0  0  0  0  0  0  0  0  0  0  0  0
   -2.8805    2.9150   -1.7954 H   0  0  0  0  0  0  0  0  0  0  0  0
   -1.1875    3.4075   -1.6138 H   0  0  0  0  0  0  0  0  0  0  0  0
  5  6  2  0  0  0  0
  5  7  1  0  0  0  0
  2  3  1  0  0  0  0
  2  4  1  0  0  0  0
  2  5  1  0  0  0  0
  1  2  1  0  0  0  0
 23 24  2  0  0  0  0
 23 25  1  0  0  0  0
 21 22  1  0  0  0  0
 19 20  1  0  0  0  0
 19 21  1  0  0  0  0
 17 18  1  0  0  0  0
 17 19  1  0  0  0  0
 15 16  1  0  0  0  0
 15 17  2  0  0  0  0
 14 15  1  0  0  0  0
 14 21  2  0  0  0  0
 11 12  1  0  0  0  0
 11 13  1  0  0  0  0
 11 14  1  0  0  0  0
  9 10  1  0  0  0  0
  9 11  1  0  0  0  0
  9 23  1  0  0  0  0
  7  8  1  0  0  0  0
  7  9  1  0  0  0  0
 27 28  1  0  0  0  0
 27 29  1  0  0  0  0
 27 30  1  0  0  0  0
 25 26  1  0  0  0  0
 25 27  1  0  0  0  0
M  CHG  1  15   1
M  END
$$$$
default_name
  -OEChem-01062215323D

 30 30  0     1  0  0  0  0  0999 V2000
   -3.5507   -3.2183    1.8116 H   0  0  0  0  0  0  0  0  0  0  0  0
   -3.4597   -2.3913    1.1076 C   0  0  0  0  0  0  0  0  0  0  0  0
   -4.1577   -1.6043    1.3866 H   0  0  0  0  0  0  0  0  0  0  0  0
   -3.6807   -2.7523    0.1036 H   0  0  0  0  0  0  0  0  0  0  0  0
   -2.0477   -1.8543    1.1546 C   0  0  0  0  0  0  0  0  0  0  0  0
   -1.2227   -2.3443    1.9146 O   0  0  0  0  0  0  0  0  0  0  0  0
   -1.7517   -0.8483    0.3266 N   0  0  0  0  0  0  0  0  0  0  0  0
   -2.4847   -0.5123   -0.2804 H   0  0  0  0  0  0  0  0  0  0  0  0
   -0.4117   -0.2463    0.2186 C   0  0  1  0  0  0  0  0  0  0  0  0
   -0.0521   -0.0328    1.2283 H   0  0  0  0  0  0  0  0  0  0  0  0
    0.5491   -1.2897   -0.3973 C   0  0  0  0  0  0  0  0  0  0  0  0
    0.1574   -1.5911   -1.3720 H   0  0  0  0  0  0  0  0  0  0  0  0
    1.5188   -0.8190   -0.5731 H   0  0  0  0  0  0  0  0  0  0  0  0
    0.7737   -2.5309    0.4402 C   0  0  0  0  0  0  0  0  0  0  0  0
    1.5540   -2.5957    1.5783 N   0  3  0  0  0  0  0  0  0  0  0  0
    2.0070   -1.7799    2.0001 H   0  0  0  0  0  0  0  0  0  0  0  0
    1.5164   -3.8582    2.0489 C   0  0  0  0  0  0  0  0  0  0  0  0
    2.0253   -4.2120    2.9432 H   0  0  0  0  0  0  0  0  0  0  0  0
    0.7299   -4.5963    1.2333 N   0  0  0  0  0  0  0  0  0  0  0  0
    0.5162   -5.5840    1.3436 H   0  0  0  0  0  0  0  0  0  0  0  0
    0.2555   -3.7780    0.2175 C   0  0  0  0  0  0  0  0  0  0  0  0
   -0.4011   -4.0622   -0.6002 H   0  0  0  0  0  0  0  0  0  0  0  0
   -0.4606    1.1026   -0.5209 C   0  0  0  0  0  0  0  0  0  0  0  0
    0.5671    1.7592   -0.6956 O   0  0  0  0  0  0  0  0  0  0  0  0
   -1.6655    1.5102   -0.9384 N   0  0  0  0  0  0  0  0  0  0  0  0
   -2.4498    0.9014   -0.7608 H   0  0  0  0  0  0  0  0  0  0  0  0
   -1.9380    2.7733   -1.6309 C   0  0  0  0  0  0  0  0  0  0  0  0
   -2.0464    2.5973   -2.7030 H   0  0  0  0  0  0  0  0  0  0  0  0
   -2.8642    3.2117   -1.2553 H   0  0  0  0  0  0  0  0  0  0  0  0
   -1.1268    3.4870   -1.4728 H   0  0  0  0  0  0  0  0  0  0  0  0
  5  6  2  0  0  0  0
  5  7  1  0  0  0  0
  2  3  1  0  0  0  0
  2  4  1  0  0  0  0
  2  5  1  0  0  0  0
  1  2  1  0  0  0  0
 23 24  2  0  0  0  0
 23 25  1  0  0  0  0
 21 22  1  0  0  0  0
 19 20  1  0  0  0  0
 19 21  1  0  0  0  0
 17 18  1  0  0  0  0
 17 19  1  0  0  0  0
 15 16  1  0  0  0  0
 15 17  2  0  0  0  0
 14 15  1  0  0  0  0
 14 21  2  0  0  0  0
 11 12  1  0  0  0  0
 11 13  1  0  0  0  0
 11 14  1  0  0  0  0
  9 10  1  0  0  0  0
  9 11  1  0  0  0  0
  9 23  1  0  0  0  0
  7  8  1  0  0  0  0
  7  9  1  0  0  0  0
 27 28  1  0  0  0  0
 27 29  1  0  0  0  0
 27 30  1  0  0  0  0
 25 26  1  0  0  0  0
 25 27  1  0  0  0  0
M  CHG  1  15   1
M  END
$$$$
default_name
  -OEChem-01062215323D

 30 30  0     1  0  0  0  0  0999 V2000
   -3.5507   -3.2183    1.8116 H   0  0  0  0  0  0  0  0  0  0  0  0
   -3.4597   -2.3913    1.1076 C   0  0  0  0  0  0  0  0  0  0  0  0
   -4.1577   -1.6043    1.3866 H   0  0  0  0  0  0  0  0  0  0  0  0
   -3.6807   -2.7523    0.1036 H   0  0  0  0  0  0  0  0  0  0  0  0
   -2.0477   -1.8543    1.1546 C   0  0  0  0  0  0  0  0  0  0  0  0
   -1.2227   -2.3443    1.9146 O   0  0  0  0  0  0  0  0  0  0  0  0
   -1.7517   -0.8483    0.3266 N   0  0  0  0  0  0  0  0  0  0  0  0
   -2.4847   -0.5123   -0.2804 H   0  0  0  0  0  0  0  0  0  0  0  0
   -0.4117   -0.2463    0.2186 C   0  0  1  0  0  0  0  0  0  0  0  0
   -0.0521   -0.0328    1.2283 H   0  0  0  0  0  0  0  0  0  0  0  0
    0.5491   -1.2897   -0.3973 C   0  0  0  0  0  0  0  0  0  0  0  0
    0.1574   -1.5911   -1.3720 H   0  0  0  0  0  0  0  0  0  0  0  0
    1.5188   -0.8190   -0.5731 H   0  0  0  0  0  0  0  0  0  0  0  0
    0.7737   -2.5309    0.4402 C   0  0  0  0  0  0  0  0  0  0  0  0
    1.5540   -2.5957    1.5783 N   0  3  0  0  0  0  0  0  0  0  0  0
    2.0070   -1.7799    2.0001 H   0  0  0  0  0  0  0  0  0  0  0  0
    1.5164   -3.8582    2.0489 C   0  0  0  0  0  0  0  0  0  0  0  0
    2.0253   -4.2120    2.9432 H   0  0  0  0  0  0  0  0  0  0  0  0
    0.7299   -4.5963    1.2333 N   0  0  0  0  0  0  0  0  0  0  0  0
    0.5162   -5.5840    1.3436 H   0  0  0  0  0  0  0  0  0  0  0  0
    0.2555   -3.7780    0.2175 C   0  0  0  0  0  0  0  0  0  0  0  0
   -0.4011   -4.0622   -0.6002 H   0  0  0  0  0  0  0  0  0  0  0  0
   -0.4606    1.1026   -0.5209 C   0  0  0  0  0  0  0  0  0  0  0  0
    0.5734    1.6263   -0.9384 O   0  0  0  0  0  0  0  0  0  0  0  0
   -1.6691    1.6605   -0.6640 N   0  0  0  0  0  0  0  0  0  0  0  0
   -2.4614    1.1537   -0.2998 H   0  0  0  0  0  0  0  0  0  0  0  0
   -1.9339    2.9520   -1.3052 C   0  0  0  0  0  0  0  0  0  0  0  0
   -2.3041    2.7975   -2.3207 H   0  0  0  0  0  0  0  0  0  0  0  0
   -2.6891    3.5008   -0.7397 H   0  0  0  0  0  0  0  0  0  0  0  0
   -1.0262    3.5575   -1.3509 H   0  0  0  0  0  0  0  0  0  0  0  0
  5  6  2  0  0  0  0
  5  7  1  0  0  0  0
  2  3  1  0  0  0  0
  2  4  1  0  0  0  0
  2  5  1  0  0  0  0
  1  2  1  0  0  0  0
 23 24  2  0  0  0  0
 23 25  1  0  0  0  0
 21 22  1  0  0  0  0
 19 20  1  0  0  0  0
 19 21  1  0  0  0  0
 17 18  1  0  0  0  0
 17 19  1  0  0  0  0
 15 16  1  0  0  0  0
 15 17  2  0  0  0  0
 14 15  1  0  0  0  0
 14 21  2  0  0  0  0
 11 12  1  0  0  0  0
 11 13  1  0  0  0  0
 11 14  1  0  0  0  0
  9 10  1  0  0  0  0
  9 11  1  0  0  0  0
  9 23  1  0  0  0  0
  7  8  1  0  0  0  0
  7  9  1  0  0  0  0
 27 28  1  0  0  0  0
 27 29  1  0  0  0  0
 27 30  1  0  0  0  0
 25 26  1  0  0  0  0
 25 27  1  0  0  0  0
M  CHG  1  15   1
M  END
$$$$
default_name
  -OEChem-01062215323D

 30 30  0     1  0  0  0  0  0999 V2000
   -3.5507   -3.2183    1.8116 H   0  0  0  0  0  0  0  0  0  0  0  0
   -3.4597   -2.3913    1.1076 C   0  0  0  0  0  0  0  0  0  0  0  0
   -4.1577   -1.6043    1.3866 H   0  0  0  0  0  0  0  0  0  0  0  0
   -3.6807   -2.7523    0.1036 H   0  0  0  0  0  0  0  0  0  0  0  0
   -2.0477   -1.8543    1.1546 C   0  0  0  0  0  0  0  0  0  0  0  0
   -1.2227   -2.3443    1.9146 O   0  0  0  0  0  0  0  0  0  0  0  0
   -1.7517   -0.8483    0.3266 N   0  0  0  0  0  0  0  0  0  0  0  0
   -2.4847   -0.5123   -0.2804 H   0  0  0  0  0  0  0  0  0  0  0  0
   -0.4117   -0.2463    0.2186 C   0  0  1  0  0  0  0  0  0  0  0  0
   -0.0521   -0.0328    1.2283 H   0  0  0  0  0  0  0  0  0  0  0  0
    0.5491   -1.2897   -0.3973 C   0  0  0  0  0  0  0  0  0  0  0  0
    0.1574   -1.5911   -1.3720 H   0  0  0  0  0  0  0  0  0  0  0  0
    1.5188   -0.8190   -0.5731 H   0  0  0  0  0  0  0  0  0  0  0  0
    0.7737   -2.5309    0.4402 C   0  0  0  0  0  0  0  0  0  0  0  0
    1.5540   -2.5957    1.5783 N   0  3  0  0  0  0  0  0  0  0  0  0
    2.0070   -1.7799    2.0001 H   0  0  0  0  0  0  0  0  0  0  0  0
    1.5164   -3.8582    2.0489 C   0  0  0  0  0  0  0  0  0  0  0  0
    2.0253   -4.2120    2.9432 H   0  0  0  0  0  0  0  0  0  0  0  0
    0.7299   -4.5963    1.2333 N   0  0  0  0  0  0  0  0  0  0  0  0
    0.5162   -5.5840    1.3436 H   0  0  0  0  0  0  0  0  0  0  0  0
    0.2555   -3.7780    0.2175 C   0  0  0  0  0  0  0  0  0  0  0  0
   -0.4011   -4.0622   -0.6002 H   0  0  0  0  0  0  0  0  0  0  0  0
   -0.4606    1.1026   -0.5209 C   0  0  0  0  0  0  0  0  0  0  0  0
    0.5079    1.4951   -1.1733 O   0  0  0  0  0  0  0  0  0  0  0  0
   -1.5916    1.8084   -0.3993 N   0  0  0  0  0  0  0  0  0  0  0  0
   -2.3368    1.4027    0.1461 H   0  0  0  0  0  0  0  0  0  0  0  0
   -1.8339    3.1268   -0.9930 C   0  0  0  0  0  0  0  0  0  0  0  0
   -2.4414    3.0261   -1.8946 H   0  0  0  0  0  0  0  0  0  0  0  0
   -2.3670    3.7624   -0.2838 H   0  0  0  0  0  0  0  0  0  0  0  0
   -0.8927    3.6140   -1.2566 H   0  0  0  0  0  0  0  0  0  0  0  0
  5  6  2  0  0  0  0
  5  7  1  0  0  0  0
  2  3  1  0  0  0  0
  2  4  1  0  0  0  0
  2  5  1  0  0  0  0
  1  2  1  0  0  0  0
 23 24  2  0  0  0  0
 23 25  1  0  0  0  0
 21 22  1  0  0  0  0
 19 20  1  0  0  0  0
 19 21  1  0  0  0  0
 17 18  1  0  0  0  0
 17 19  1  0  0  0  0
 15 16  1  0  0  0  0
 15 17  2  0  0  0  0
 14 15  1  0  0  0  0
 14 21  2  0  0  0  0
 11 12  1  0  0  0  0
 11 13  1  0  0  0  0
 11 14  1  0  0  0  0
  9 10  1  0  0  0  0
  9 11  1  0  0  0  0
  9 23  1  0  0  0  0
  7  8  1  0  0  0  0
  7  9  1  0  0  0  0
 27 28  1  0  0  0  0
 27 29  1  0  0  0  0
 27 30  1  0  0  0  0
 25 26  1  0  0  0  0
 25 27  1  0  0  0  0
M  CHG  1  15   1
M  END
$$$$
default_name
  -OEChem-01062215323D

 30 30  0     1  0  0  0  0  0999 V2000
   -3.5507   -3.2183    1.8116 H   0  0  0  0  0  0  0  0  0  0  0  0
   -3.4597   -2.3913    1.1076 C   0  0  0  0  0  0  0  0  0  0  0  0
   -4.1577   -1.6043    1.3866 H   0  0  0  0  0  0  0  0  0  0  0  0
   -3.6807   -2.7523    0.1036 H   0  0  0  0  0  0  0  0  0  0  0  0
   -2.0477   -1.8543    1.1546 C   0  0  0  0  0  0  0  0  0  0  0  0
   -1.2227   -2.3443    1.9146 O   0  0  0  0  0  0  0  0  0  0  0  0
   -1.7517   -0.8483    0.3266 N   0  0  0  0  0  0  0  0  0  0  0  0
   -2.4847   -0.5123   -0.2804 H   0  0  0  0  0  0  0  0  0  0  0  0
   -0.4117   -0.2463    0.2186 C   0  0  1  0  0  0  0  0  0  0  0  0
   -0.0521   -0.0328    1.2283 H   0  0  0  0  0  0  0  0  0  0  0  0
    0.5491   -1.2897   -0.3973 C   0  0  0  0  0  0  0  0  0  0  0  0
    0.1574   -1.5911   -1.3720 H   0  0  0  0  0  0  0  0  0  0  0  0
    1.5188   -0.8190   -0.5731 H   0  0  0  0  0  0  0  0  0  0  0  0
    0.7737   -2.5309    0.4402 C   0  0  0  0  0  0  0  0  0  0  0  0
    1.5540   -2.5957    1.5783 N   0  3  0  0  0  0  0  0  0  0  0  0
    2.0070   -1.7799    2.0001 H   0  0  0  0  0  0  0  0  0  0  0  0
    1.5164   -3.8582    2.0489 C   0  0  0  0  0  0  0  0  0  0  0  0
    2.0253   -4.2120    2.9432 H   0  0  0  0  0  0  0  0  0  0  0  0
    0.7299   -4.5963    1.2333 N   0  0  0  0  0  0  0  0  0  0  0  0
    0.5162   -5.5840    1.3436 H   0  0  0  0  0  0  0  0  0  0  0  0
    0.2555   -3.7780    0.2175 C   0  0  0  0  0  0  0  0  0  0  0  0
   -0.4011   -4.0622   -0.6002 H   0  0  0  0  0  0  0  0  0  0  0  0
   -0.4606    1.1026   -0.5209 C   0  0  0  0  0  0  0  0  0  0  0  0
    0.3751    1.3746   -1.3843 O   0  0  0  0  0  0  0  0  0  0  0  0
   -1.4384    1.9438   -0.1625 N   0  0  0  0  0  0  0  0  0  0  0  0
   -2.0842    1.6313    0.5464 H   0  0  0  0  0  0  0  0  0  0  0  0
   -1.6446    3.2858   -0.7156 C   0  0  0  0  0  0  0  0  0  0  0  0
   -2.4489    3.2675   -1.4538 H   0  0  0  0  0  0  0  0  0  0  0  0
   -1.9200    3.9788    0.0813 H   0  0  0  0  0  0  0  0  0  0  0  0
   -0.7353    3.6529   -1.1962 H   0  0  0  0  0  0  0  0  0  0  0  0
  5  6  2  0  0  0  0
  5  7  1  0  0  0  0
  2  3  1  0  0  0  0
  2  4  1  0  0  0  0
  2  5  1  0  0  0  0
  1  2  1  0  0  0  0
 23 24  2  0  0  0  0
 23 25  1  0  0  0  0
 21 22  1  0  0  0  0
 19 20  1  0  0  0  0
 19 21  1  0  0  0  0
 17 18  1  0  0  0  0
 17 19  1  0  0  0  0
 15 16  1  0  0  0  0
 15 17  2  0  0  0  0
 14 15  1  0  0  0  0
 14 21  2  0  0  0  0
 11 12  1  0  0  0  0
 11 13  1  0  0  0  0
 11 14  1  0  0  0  0
  9 10  1  0  0  0  0
  9 11  1  0  0  0  0
  9 23  1  0  0  0  0
  7  8  1  0  0  0  0
  7  9  1  0  0  0  0
 27 28  1  0  0  0  0
 27 29  1  0  0  0  0
 27 30  1  0  0  0  0
 25 26  1  0  0  0  0
 25 27  1  0  0  0  0
M  CHG  1  15   1
M  END
$$$$
default_name
  -OEChem-01062215323D

 30 30  0     1  0  0  0  0  0999 V2000
   -3.5507   -3.2183    1.8116 H   0  0  0  0  0  0  0  0  0  0  0  0
   -3.4597   -2.3913    1.1076 C   0  0  0  0  0  0  0  0  0  0  0  0
   -4.1577   -1.6043    1.3866 H   0  0  0  0  0  0  0  0  0  0  0  0
   -3.6807   -2.7523    0.1036 H   0  0  0  0  0  0  0  0  0  0  0  0
   -2.0477   -1.8543    1.1546 C   0  0  0  0  0  0  0  0  0  0  0  0
   -1.2227   -2.3443    1.9146 O   0  0  0  0  0  0  0  0  0  0  0  0
   -1.7517   -0.8483    0.3266 N   0  0  0  0  0  0  0  0  0  0  0  0
   -2.4847   -0.5123   -0.2804 H   0  0  0  0  0  0  0  0  0  0  0  0
   -0.4117   -0.2463    0.2186 C   0  0  1  0  0  0  0  0  0  0  0  0
   -0.0521   -0.0328    1.2283 H   0  0  0  0  0  0  0  0  0  0  0  0
    0.5491   -1.2897   -0.3973 C   0  0  0  0  0  0  0  0  0  0  0  0
    0.1574   -1.5911   -1.3720 H   0  0  0  0  0  0  0  0  0  0  0  0
    1.5188   -0.8190   -0.5731 H   0  0  0  0  0  0  0  0  0  0  0  0
    0.7737   -2.5309    0.4402 C   0  0  0  0  0  0  0  0  0  0  0  0
    1.5540   -2.5957    1.5783 N   0  3  0  0  0  0  0  0  0  0  0  0
    2.0070   -1.7799    2.0001 H   0  0  0  0  0  0  0  0  0  0  0  0
    1.5164   -3.8582    2.0489 C   0  0  0  0  0  0  0  0  0  0  0  0
    2.0253   -4.2120    2.9432 H   0  0  0  0  0  0  0  0  0  0  0  0
    0.7299   -4.5963    1.2333 N   0  0  0  0  0  0  0  0  0  0  0  0
    0.5162   -5.5840    1.3436 H   0  0  0  0  0  0  0  0  0  0  0  0
    0.2555   -3.7780    0.2175 C   0  0  0  0  0  0  0  0  0  0  0  0
   -0.4011   -4.0622   -0.6002 H   0  0  0  0  0  0  0  0  0  0  0  0
   -0.4606    1.1026   -0.5209 C   0  0  0  0  0  0  0  0  0  0  0  0
    0.1839    1.2731   -1.5569 O   0  0  0  0  0  0  0  0  0  0  0  0
   -1.2198    2.0575    0.0304 N   0  0  0  0  0  0  0  0  0  0  0  0
   -1.7211    1.8241    0.8740 H   0  0  0  0  0  0  0  0  0  0  0  0
   -1.3792    3.4181   -0.4918 C   0  0  0  0  0  0  0  0  0  0  0  0
   -2.3261    3.5053   -1.0283 H   0  0  0  0  0  0  0  0  0  0  0  0
   -1.3784    4.1353    0.3309 H   0  0  0  0  0  0  0  0  0  0  0  0
   -0.5648    3.6713   -1.1739 H   0  0  0  0  0  0  0  0  0  0  0  0
  5  6  2  0  0  0  0
  5  7  1  0  0  0  0
  2  3  1  0  0  0  0
  2  4  1  0  0  0  0
  2  5  1  0  0  0  0
  1  2  1  0  0  0  0
 23 24  2  0  0  0  0
 23 25  1  0  0  0  0
 21 22  1  0  0  0  0
 19 20  1  0  0  0  0
 19 21  1  0  0  0  0
 17 18  1  0  0  0  0
 17 19  1  0  0  0  0
 15 16  1  0  0  0  0
 15 17  2  0  0  0  0
 14 15  1  0  0  0  0
 14 21  2  0  0  0  0
 11 12  1  0  0  0  0
 11 13  1  0  0  0  0
 11 14  1  0  0  0  0
  9 10  1  0  0  0  0
  9 11  1  0  0  0  0
  9 23  1  0  0  0  0
  7  8  1  0  0  0  0
  7  9  1  0  0  0  0
 27 28  1  0  0  0  0
 27 29  1  0  0  0  0
 27 30  1  0  0  0  0
 25 26  1  0  0  0  0
 25 27  1  0  0  0  0
M  CHG  1  15   1
M  END
$$$$
default_name
  -OEChem-01062215323D

 30 30  0     1  0  0  0  0  0999 V2000
   -3.5507   -3.2183    1.8116 H   0  0  0  0  0  0  0  0  0  0  0  0
   -3.4597   -2.3913    1.1076 C   0  0  0  0  0  0  0  0  0  0  0  0
   -4.1577   -1.6043    1.3866 H   0  0  0  0  0  0  0  0  0  0  0  0
   -3.6807   -2.7523    0.1036 H   0  0  0  0  0  0  0  0  0  0  0  0
   -2.0477   -1.8543    1.1546 C   0  0  0  0  0  0  0  0  0  0  0  0
   -1.2227   -2.3443    1.9146 O   0  0  0  0  0  0  0  0  0  0  0  0
   -1.7517   -0.8483    0.3266 N   0  0  0  0  0  0  0  0  0  0  0  0
   -2.4847   -0.5123   -0.2804 H   0  0  0  0  0  0  0  0  0  0  0  0
   -0.4117   -0.2463    0.2186 C   0  0  1  0  0  0  0  0  0  0  0  0
   -0.0521   -0.0328    1.2283 H   0  0  0  0  0  0  0  0  0  0  0  0
    0.5491   -1.2897   -0.3973 C   0  0  0  0  0  0  0  0  0  0  0  0
    0.1574   -1.5911   -1.3720 H   0  0  0  0  0  0  0  0  0  0  0  0
    1.5188   -0.8190   -0.5731 H   0  0  0  0  0  0  0  0  0  0  0  0
    0.7737   -2.5309    0.4402 C   0  0  0  0  0  0  0  0  0  0  0  0
    1.5540   -2.5957    1.5783 N   0  3  0  0  0  0  0  0  0  0  0  0
    2.0070   -1.7799    2.0001 H   0  0  0  0  0  0  0  0  0  0  0  0
    1.5164   -3.8582    2.0489 C   0  0  0  0  0  0  0  0  0  0  0  0
    2.0253   -4.2120    2.9432 H   0  0  0  0  0  0  0  0  0  0  0  0
    0.7299   -4.5963    1.2333 N   0  0  0  0  0  0  0  0  0  0  0  0
    0.5162   -5.5840    1.3436 H   0  0  0  0  0  0  0  0  0  0  0  0
    0.2555   -3.7780    0.2175 C   0  0  0  0  0  0  0  0  0  0  0  0
   -0.4011   -4.0622   -0.6002 H   0  0  0  0  0  0  0  0  0  0  0  0
   -0.4606    1.1026   -0.5209 C   0  0  0  0  0  0  0  0  0  0  0  0
   -0.0526    1.1973   -1.6795 O   0  0  0  0  0  0  0  0  0  0  0  0
   -0.9508    2.1417    0.1662 N   0  0  0  0  0  0  0  0  0  0  0  0
   -1.2720    1.9678    1.1064 H   0  0  0  0  0  0  0  0  0  0  0  0
   -1.0555    3.5148   -0.3370 C   0  0  0  0  0  0  0  0  0  0  0  0
   -2.0814    3.7232   -0.6470 H   0  0  0  0  0  0  0  0  0  0  0  0
   -0.7793    4.2211    0.4478 H   0  0  0  0  0  0  0  0  0  0  0  0
   -0.3927    3.6680   -1.1913 H   0  0  0  0  0  0  0  0  0  0  0  0
  5  6  2  0  0  0  0
  5  7  1  0  0  0  0
  2  3  1  0  0  0  0
  2  4  1  0  0  0  0
  2  5  1  0  0  0  0
  1  2  1  0  0  0  0
 23 24  2  0  0  0  0
 23 25  1  0  0  0  0
 21 22  1  0  0  0  0
 19 20  1  0  0  0  0
 19 21  1  0  0  0  0
 17 18  1  0  0  0  0
 17 19  1  0  0  0  0
 15 16  1  0  0  0  0
 15 17  2  0  0  0  0
 14 15  1  0  0  0  0
 14 21  2  0  0  0  0
 11 12  1  0  0  0  0
 11 13  1  0  0  0  0
 11 14  1  0  0  0  0
  9 10  1  0  0  0  0
  9 11  1  0  0  0  0
  9 23  1  0  0  0  0
  7  8  1  0  0  0  0
  7  9  1  0  0  0  0
 27 28  1  0  0  0  0
 27 29  1  0  0  0  0
 27 30  1  0  0  0  0
 25 26  1  0  0  0  0
 25 27  1  0  0  0  0
M  CHG  1  15   1
M  END
$$$$
default_name
  -OEChem-01062215323D

 30 30  0     1  0  0  0  0  0999 V2000
   -3.5507   -3.2183    1.8116 H   0  0  0  0  0  0  0  0  0  0  0  0
   -3.4597   -2.3913    1.1076 C   0  0  0  0  0  0  0  0  0  0  0  0
   -4.1577   -1.6043    1.3866 H   0  0  0  0  0  0  0  0  0  0  0  0
   -3.6807   -2.7523    0.1036 H   0  0  0  0  0  0  0  0  0  0  0  0
   -2.0477   -1.8543    1.1546 C   0  0  0  0  0  0  0  0  0  0  0  0
   -1.2227   -2.3443    1.9146 O   0  0  0  0  0  0  0  0  0  0  0  0
   -1.7517   -0.8483    0.3266 N   0  0  0  0  0  0  0  0  0  0  0  0
   -2.4847   -0.5123   -0.2804 H   0  0  0  0  0  0  0  0  0  0  0  0
   -0.4117   -0.2463    0.2186 C   0  0  1  0  0  0  0  0  0  0  0  0
   -0.0521   -0.0328    1.2283 H   0  0  0  0  0  0  0  0  0  0  0  0
    0.5491   -1.2897   -0.3973 C   0  0  0  0  0  0  0  0  0  0  0  0
    0.1574   -1.5911   -1.3720 H   0  0  0  0  0  0  0  0  0  0  0  0
    1.5188   -0.8190   -0.5731 H   0  0  0  0  0  0  0  0  0  0  0  0
    0.7737   -2.5309    0.4402 C   0  0  0  0  0  0  0  0  0  0  0  0
    1.5540   -2.5957    1.5783 N   0  3  0  0  0  0  0  0  0  0  0  0
    2.0070   -1.7799    2.0001 H   0  0  0  0  0  0  0  0  0  0  0  0
    1.5164   -3.8582    2.0489 C   0  0  0  0  0  0  0  0  0  0  0  0
    2.0253   -4.2120    2.9432 H   0  0  0  0  0  0  0  0  0  0  0  0
    0.7299   -4.5963    1.2333 N   0  0  0  0  0  0  0  0  0  0  0  0
    0.5162   -5.5840    1.3436 H   0  0  0  0  0  0  0  0  0  0  0  0
    0.2555   -3.7780    0.2175 C   0  0  0  0  0  0  0  0  0  0  0  0
   -0.4011   -4.0622   -0.6002 H   0  0  0  0  0  0  0  0  0  0  0  0
   -0.4606    1.1026   -0.5209 C   0  0  0  0  0  0  0  0  0  0  0  0
   -0.3182    1.1525   -1.7436 O   0  0  0  0  0  0  0  0  0  0  0  0
   -0.6496    2.1907    0.2356 N   0  0  0  0  0  0  0  0  0  0  0  0
   -0.7676    2.0527    1.2278 H   0  0  0  0  0  0  0  0  0  0  0  0
   -0.6958    3.5691   -0.2616 C   0  0  0  0  0  0  0  0  0  0  0  0
   -1.7315    3.9064   -0.3361 H   0  0  0  0  0  0  0  0  0  0  0  0
   -0.1633    4.2305    0.4241 H   0  0  0  0  0  0  0  0  0  0  0  0
   -0.2309    3.6433   -1.2470 H   0  0  0  0  0  0  0  0  0  0  0  0
  5  6  2  0  0  0  0
  5  7  1  0  0  0  0
  2  3  1  0  0  0  0
  2  4  1  0  0  0  0
  2  5  1  0  0  0  0
  1  2  1  0  0  0  0
 23 24  2  0  0  0  0
 23 25  1  0  0  0  0
 21 22  1  0  0  0  0
 19 20  1  0  0  0  0
 19 21  1  0  0  0  0
 17 18  1  0  0  0  0
 17 19  1  0  0  0  0
 15 16  1  0  0  0  0
 15 17  2  0  0  0  0
 14 15  1  0  0  0  0
 14 21  2  0  0  0  0
 11 12  1  0  0  0  0
 11 13  1  0  0  0  0
 11 14  1  0  0  0  0
  9 10  1  0  0  0  0
  9 11  1  0  0  0  0
  9 23  1  0  0  0  0
  7  8  1  0  0  0  0
  7  9  1  0  0  0  0
 27 28  1  0  0  0  0
 27 29  1  0  0  0  0
 27 30  1  0  0  0  0
 25 26  1  0  0  0  0
 25 27  1  0  0  0  0
M  CHG  1  15   1
M  END
$$$$
default_name
  -OEChem-01062215323D

 30 30  0     1  0  0  0  0  0999 V2000
   -3.5507   -3.2183    1.8116 H   0  0  0  0  0  0  0  0  0  0  0  0
   -3.4597   -2.3913    1.1076 C   0  0  0  0  0  0  0  0  0  0  0  0
   -4.1577   -1.6043    1.3866 H   0  0  0  0  0  0  0  0  0  0  0  0
   -3.6807   -2.7523    0.1036 H   0  0  0  0  0  0  0  0  0  0  0  0
   -2.0477   -1.8543    1.1546 C   0  0  0  0  0  0  0  0  0  0  0  0
   -1.2227   -2.3443    1.9146 O   0  0  0  0  0  0  0  0  0  0  0  0
   -1.7517   -0.8483    0.3266 N   0  0  0  0  0  0  0  0  0  0  0  0
   -2.4847   -0.5123   -0.2804 H   0  0  0  0  0  0  0  0  0  0  0  0
   -0.4117   -0.2463    0.2186 C   0  0  1  0  0  0  0  0  0  0  0  0
   -0.0521   -0.0328    1.2283 H   0  0  0  0  0  0  0  0  0  0  0  0
    0.5491   -1.2897   -0.3973 C   0  0  0  0  0  0  0  0  0  0  0  0
    0.1574   -1.5911   -1.3720 H   0  0  0  0  0  0  0  0  0  0  0  0
    1.5188   -0.8190   -0.5731 H   0  0  0  0  0  0  0  0  0  0  0  0
    0.7737   -2.5309    0.4402 C   0  0  0  0  0  0  0  0  0  0  0  0
    1.5540   -2.5957    1.5783 N   0  3  0  0  0  0  0  0  0  0  0  0
    2.0070   -1.7799    2.0001 H   0  0  0  0  0  0  0  0  0  0  0  0
    1.5164   -3.8582    2.0489 C   0  0  0  0  0  0  0  0  0  0  0  0
    2.0253   -4.2120    2.9432 H   0  0  0  0  0  0  0  0  0  0  0  0
    0.7299   -4.5963    1.2333 N   0  0  0  0  0  0  0  0  0  0  0  0
    0.5162   -5.5840    1.3436 H   0  0  0  0  0  0  0  0  0  0  0  0
    0.2555   -3.7780    0.2175 C   0  0  0  0  0  0  0  0  0  0  0  0
   -0.4011   -4.0622   -0.6002 H   0  0  0  0  0  0  0  0  0  0  0  0
   -0.4606    1.1026   -0.5209 C   0  0  0  0  0  0  0  0  0  0  0  0
   -0.5948    1.1417   -1.7449 O   0  0  0  0  0  0  0  0  0  0  0  0
   -0.3369    2.2012    0.2340 N   0  0  0  0  0  0  0  0  0  0  0  0
   -0.2424    2.0729    1.2300 H   0  0  0  0  0  0  0  0  0  0  0  0
   -0.3244    3.5775   -0.2709 C   0  0  0  0  0  0  0  0  0  0  0  0
   -1.3003    4.0423   -0.1166 H   0  0  0  0  0  0  0  0  0  0  0  0
    0.4274    4.1627    0.2614 H   0  0  0  0  0  0  0  0  0  0  0  0
   -0.0902    3.5989   -1.3373 H   0  0  0  0  0  0  0  0  0  0  0  0
  5  6  2  0  0  0  0
  5  7  1  0  0  0  0
  2  3  1  0  0  0  0
  2  4  1  0  0  0  0
  2  5  1  0  0  0  0
  1  2  1  0  0  0  0
 23 24  2  0  0  0  0
 23 25  1  0  0  0  0
 21 22  1  0  0  0  0
 19 20  1  0  0  0  0
 19 21  1  0  0  0  0
 17 18  1  0  0  0  0
 17 19  1  0  0  0  0
 15 16  1  0  0  0  0
 15 17  2  0  0  0  0
 14 15  1  0  0  0  0
 14 21  2  0  0  0  0
 11 12  1  0  0  0  0
 11 13  1  0  0  0  0
 11 14  1  0  0  0  0
  9 10  1  0  0  0  0
  9 11  1  0  0  0  0
  9 23  1  0  0  0  0
  7  8  1  0  0  0  0
  7  9  1  0  0  0  0
 27 28  1  0  0  0  0
 27 29  1  0  0  0  0
 27 30  1  0  0  0  0
 25 26  1  0  0  0  0
 25 27  1  0  0  0  0
M  CHG  1  15   1
M  END
$$$$
default_name
  -OEChem-01062215323D

 30 30  0     1  0  0  0  0  0999 V2000
   -3.5507   -3.2183    1.8116 H   0  0  0  0  0  0  0  0  0  0  0  0
   -3.4597   -2.3913    1.1076 C   0  0  0  0  0  0  0  0  0  0  0  0
   -4.1577   -1.6043    1.3866 H   0  0  0  0  0  0  0  0  0  0  0  0
   -3.6807   -2.7523    0.1036 H   0  0  0  0  0  0  0  0  0  0  0  0
   -2.0477   -1.8543    1.1546 C   0  0  0  0  0  0  0  0  0  0  0  0
   -1.2227   -2.3443    1.9146 O   0  0  0  0  0  0  0  0  0  0  0  0
   -1.7517   -0.8483    0.3266 N   0  0  0  0  0  0  0  0  0  0  0  0
   -2.4847   -0.5123   -0.2804 H   0  0  0  0  0  0  0  0  0  0  0  0
   -0.4117   -0.2463    0.2186 C   0  0  1  0  0  0  0  0  0  0  0  0
   -0.0521   -0.0328    1.2283 H   0  0  0  0  0  0  0  0  0  0  0  0
    0.5491   -1.2897   -0.3973 C   0  0  0  0  0  0  0  0  0  0  0  0
    0.1574   -1.5911   -1.3720 H   0  0  0  0  0  0  0  0  0  0  0  0
    1.5188   -0.8190   -0.5731 H   0  0  0  0  0  0  0  0  0  0  0  0
    0.7737   -2.5309    0.4402 C   0  0  0  0  0  0  0  0  0  0  0  0
    1.5540   -2.5957    1.5783 N   0  3  0  0  0  0  0  0  0  0  0  0
    2.0070   -1.7799    2.0001 H   0  0  0  0  0  0  0  0  0  0  0  0
    1.5164   -3.8582    2.0489 C   0  0  0  0  0  0  0  0  0  0  0  0
    2.0253   -4.2120    2.9432 H   0  0  0  0  0  0  0  0  0  0  0  0
    0.7299   -4.5963    1.2333 N   0  0  0  0  0  0  0  0  0  0  0  0
    0.5162   -5.5840    1.3436 H   0  0  0  0  0  0  0  0  0  0  0  0
    0.2555   -3.7780    0.2175 C   0  0  0  0  0  0  0  0  0  0  0  0
   -0.4011   -4.0622   -0.6002 H   0  0  0  0  0  0  0  0  0  0  0  0
   -0.4606    1.1026   -0.5209 C   0  0  0  0  0  0  0  0  0  0  0  0
   -0.8637    1.1657   -1.6833 O   0  0  0  0  0  0  0  0  0  0  0  0
   -0.0339    2.1724    0.1614 N   0  0  0  0  0  0  0  0  0  0  0  0
    0.2680    2.0272    1.1128 H   0  0  0  0  0  0  0  0  0  0  0  0
    0.0332    3.5394   -0.3642 C   0  0  0  0  0  0  0  0  0  0  0  0
   -0.8170    4.1218   -0.0036 H   0  0  0  0  0  0  0  0  0  0  0  0
    0.9527    4.0225   -0.0292 H   0  0  0  0  0  0  0  0  0  0  0  0
    0.0196    3.5378   -1.4561 H   0  0  0  0  0  0  0  0  0  0  0  0
  5  6  2  0  0  0  0
  5  7  1  0  0  0  0
  2  3  1  0  0  0  0
  2  4  1  0  0  0  0
  2  5  1  0  0  0  0
  1  2  1  0  0  0  0
 23 24  2  0  0  0  0
 23 25  1  0  0  0  0
 21 22  1  0  0  0  0
 19 20  1  0  0  0  0
 19 21  1  0  0  0  0
 17 18  1  0  0  0  0
 17 19  1  0  0  0  0
 15 16  1  0  0  0  0
 15 17  2  0  0  0  0
 14 15  1  0  0  0  0
 14 21  2  0  0  0  0
 11 12  1  0  0  0  0
 11 13  1  0  0  0  0
 11 14  1  0  0  0  0
  9 10  1  0  0  0  0
  9 11  1  0  0  0  0
  9 23  1  0  0  0  0
  7  8  1  0  0  0  0
  7  9  1  0  0  0  0
 27 28  1  0  0  0  0
 27 29  1  0  0  0  0
 27 30  1  0  0  0  0
 25 26  1  0  0  0  0
 25 27  1  0  0  0  0
M  CHG  1  15   1
M  END
$$$$
default_name
  -OEChem-01062215323D

 30 30  0     1  0  0  0  0  0999 V2000
   -3.5507   -3.2183    1.8116 H   0  0  0  0  0  0  0  0  0  0  0  0
   -3.4597   -2.3913    1.1076 C   0  0  0  0  0  0  0  0  0  0  0  0
   -4.1577   -1.6043    1.3866 H   0  0  0  0  0  0  0  0  0  0  0  0
   -3.6807   -2.7523    0.1036 H   0  0  0  0  0  0  0  0  0  0  0  0
   -2.0477   -1.8543    1.1546 C   0  0  0  0  0  0  0  0  0  0  0  0
   -1.2227   -2.3443    1.9146 O   0  0  0  0  0  0  0  0  0  0  0  0
   -1.7517   -0.8483    0.3266 N   0  0  0  0  0  0  0  0  0  0  0  0
   -2.4847   -0.5123   -0.2804 H   0  0  0  0  0  0  0  0  0  0  0  0
   -0.4117   -0.2463    0.2186 C   0  0  1  0  0  0  0  0  0  0  0  0
   -0.0521   -0.0328    1.2283 H   0  0  0  0  0  0  0  0  0  0  0  0
    0.5491   -1.2897   -0.3973 C   0  0  0  0  0  0  0  0  0  0  0  0
    0.1574   -1.5911   -1.3720 H   0  0  0  0  0  0  0  0  0  0  0  0
    1.5188   -0.8190   -0.5731 H   0  0  0  0  0  0  0  0  0  0  0  0
    0.7737   -2.5309    0.4402 C   0  0  0  0  0  0  0  0  0  0  0  0
    1.5540   -2.5957    1.5783 N   0  3  0  0  0  0  0  0  0  0  0  0
    2.0070   -1.7799    2.0001 H   0  0  0  0  0  0  0  0  0  0  0  0
    1.5164   -3.8582    2.0489 C   0  0  0  0  0  0  0  0  0  0  0  0
    2.0253   -4.2120    2.9432 H   0  0  0  0  0  0  0  0  0  0  0  0
    0.7299   -4.5963    1.2333 N   0  0  0  0  0  0  0  0  0  0  0  0
    0.5162   -5.5840    1.3436 H   0  0  0  0  0  0  0  0  0  0  0  0
    0.2555   -3.7780    0.2175 C   0  0  0  0  0  0  0  0  0  0  0  0
   -0.4011   -4.0622   -0.6002 H   0  0  0  0  0  0  0  0  0  0  0  0
   -0.4606    1.1026   -0.5209 C   0  0  0  0  0  0  0  0  0  0  0  0
   -1.1065    1.2228   -1.5631 O   0  0  0  0  0  0  0  0  0  0  0  0
    0.2387    2.1063    0.0228 N   0  0  0  0  0  0  0  0  0  0  0  0
    0.7288    1.9186    0.8842 H   0  0  0  0  0  0  0  0  0  0  0  0
    0.3528    3.4573   -0.5351 C   0  0  0  0  0  0  0  0  0  0  0  0
   -0.3146    4.1395   -0.0047 H   0  0  0  0  0  0  0  0  0  0  0  0
    1.3767    3.8193   -0.4279 H   0  0  0  0  0  0  0  0  0  0  0  0
    0.0912    3.4641   -1.5953 H   0  0  0  0  0  0  0  0  0  0  0  0
  5  6  2  0  0  0  0
  5  7  1  0  0  0  0
  2  3  1  0  0  0  0
  2  4  1  0  0  0  0
  2  5  1  0  0  0  0
  1  2  1  0  0  0  0
 23 24  2  0  0  0  0
 23 25  1  0  0  0  0
 21 22  1  0  0  0  0
 19 20  1  0  0  0  0
 19 21  1  0  0  0  0
 17 18  1  0  0  0  0
 17 19  1  0  0  0  0
 15 16  1  0  0  0  0
 15 17  2  0  0  0  0
 14 15  1  0  0  0  0
 14 21  2  0  0  0  0
 11 12  1  0  0  0  0
 11 13  1  0  0  0  0
 11 14  1  0  0  0  0
  9 10  1  0  0  0  0
  9 11  1  0  0  0  0
  9 23  1  0  0  0  0
  7  8  1  0  0  0  0
  7  9  1  0  0  0  0
 27 28  1  0  0  0  0
 27 29  1  0  0  0  0
 27 30  1  0  0  0  0
 25 26  1  0  0  0  0
 25 27  1  0  0  0  0
M  CHG  1  15   1
M  END
$$$$
default_name
  -OEChem-01062215323D

 30 30  0     1  0  0  0  0  0999 V2000
   -3.5507   -3.2183    1.8116 H   0  0  0  0  0  0  0  0  0  0  0  0
   -3.4597   -2.3913    1.1076 C   0  0  0  0  0  0  0  0  0  0  0  0
   -4.1577   -1.6043    1.3866 H   0  0  0  0  0  0  0  0  0  0  0  0
   -3.6807   -2.7523    0.1036 H   0  0  0  0  0  0  0  0  0  0  0  0
   -2.0477   -1.8543    1.1546 C   0  0  0  0  0  0  0  0  0  0  0  0
   -1.2227   -2.3443    1.9146 O   0  0  0  0  0  0  0  0  0  0  0  0
   -1.7517   -0.8483    0.3266 N   0  0  0  0  0  0  0  0  0  0  0  0
   -2.4847   -0.5123   -0.2804 H   0  0  0  0  0  0  0  0  0  0  0  0
   -0.4117   -0.2463    0.2186 C   0  0  1  0  0  0  0  0  0  0  0  0
   -0.0521   -0.0328    1.2283 H   0  0  0  0  0  0  0  0  0  0  0  0
    0.5491   -1.2897   -0.3973 C   0  0  0  0  0  0  0  0  0  0  0  0
    0.1574   -1.5911   -1.3720 H   0  0  0  0  0  0  0  0  0  0  0  0
    1.5188   -0.8190   -0.5731 H   0  0  0  0  0  0  0  0  0  0  0  0
    0.7737   -2.5309    0.4402 C   0  0  0  0  0  0  0  0  0  0  0  0
    1.5540   -2.5957    1.5783 N   0  3  0  0  0  0  0  0  0  0  0  0
    2.0070   -1.7799    2.0001 H   0  0  0  0  0  0  0  0  0  0  0  0
    1.5164   -3.8582    2.0489 C   0  0  0  0  0  0  0  0  0  0  0  0
    2.0253   -4.2120    2.9432 H   0  0  0  0  0  0  0  0  0  0  0  0
    0.7299   -4.5963    1.2333 N   0  0  0  0  0  0  0  0  0  0  0  0
    0.5162   -5.5840    1.3436 H   0  0  0  0  0  0  0  0  0  0  0  0
    0.2555   -3.7780    0.2175 C   0  0  0  0  0  0  0  0  0  0  0  0
   -0.4011   -4.0622   -0.6002 H   0  0  0  0  0  0  0  0  0  0  0  0
   -0.4606    1.1026   -0.5209 C   0  0  0  0  0  0  0  0  0  0  0  0
   -1.3066    1.3092   -1.3923 O   0  0  0  0  0  0  0  0  0  0  0  0
    0.4624    2.0074   -0.1724 N   0  0  0  0  0  0  0  0  0  0  0  0
    1.1084    1.7545    0.5598 H   0  0  0  0  0  0  0  0  0  0  0  0
    0.6124    3.3368   -0.7719 C   0  0  0  0  0  0  0  0  0  0  0  0
    0.1726    4.0940   -0.1198 H   0  0  0  0  0  0  0  0  0  0  0  0
    1.6706    3.5670   -0.9075 H   0  0  0  0  0  0  0  0  0  0  0  0
    0.1196    3.3828   -1.7454 H   0  0  0  0  0  0  0  0  0  0  0  0
  5  6  2  0  0  0  0
  5  7  1  0  0  0  0
  2  3  1  0  0  0  0
  2  4  1  0  0  0  0
  2  5  1  0  0  0  0
  1  2  1  0  0  0  0
 23 24  2  0  0  0  0
 23 25  1  0  0  0  0
 21 22  1  0  0  0  0
 19 20  1  0  0  0  0
 19 21  1  0  0  0  0
 17 18  1  0  0  0  0
 17 19  1  0  0  0  0
 15 16  1  0  0  0  0
 15 17  2  0  0  0  0
 14 15  1  0  0  0  0
 14 21  2  0  0  0  0
 11 12  1  0  0  0  0
 11 13  1  0  0  0  0
 11 14  1  0  0  0  0
  9 10  1  0  0  0  0
  9 11  1  0  0  0  0
  9 23  1  0  0  0  0
  7  8  1  0  0  0  0
  7  9  1  0  0  0  0
 27 28  1  0  0  0  0
 27 29  1  0  0  0  0
 27 30  1  0  0  0  0
 25 26  1  0  0  0  0
 25 27  1  0  0  0  0
M  CHG  1  15   1
M  END
$$$$
default_name
  -OEChem-01062215323D

 30 30  0     1  0  0  0  0  0999 V2000
   -3.5507   -3.2183    1.8116 H   0  0  0  0  0  0  0  0  0  0  0  0
   -3.4597   -2.3913    1.1076 C   0  0  0  0  0  0  0  0  0  0  0  0
   -4.1577   -1.6043    1.3866 H   0  0  0  0  0  0  0  0  0  0  0  0
   -3.6807   -2.7523    0.1036 H   0  0  0  0  0  0  0  0  0  0  0  0
   -2.0477   -1.8543    1.1546 C   0  0  0  0  0  0  0  0  0  0  0  0
   -1.2227   -2.3443    1.9146 O   0  0  0  0  0  0  0  0  0  0  0  0
   -1.7517   -0.8483    0.3266 N   0  0  0  0  0  0  0  0  0  0  0  0
   -2.4847   -0.5123   -0.2804 H   0  0  0  0  0  0  0  0  0  0  0  0
   -0.4117   -0.2463    0.2186 C   0  0  1  0  0  0  0  0  0  0  0  0
   -0.0521   -0.0328    1.2283 H   0  0  0  0  0  0  0  0  0  0  0  0
    0.5491   -1.2897   -0.3973 C   0  0  0  0  0  0  0  0  0  0  0  0
    0.1574   -1.5911   -1.3720 H   0  0  0  0  0  0  0  0  0  0  0  0
    1.5188   -0.8190   -0.5731 H   0  0  0  0  0  0  0  0  0  0  0  0
    0.7737   -2.5309    0.4402 C   0  0  0  0  0  0  0  0  0  0  0  0
    1.5540   -2.5957    1.5783 N   0  3  0  0  0  0  0  0  0  0  0  0
    2.0070   -1.7799    2.0001 H   0  0  0  0  0  0  0  0  0  0  0  0
    1.5164   -3.8582    2.0489 C   0  0  0  0  0  0  0  0  0  0  0  0
    2.0253   -4.2120    2.9432 H   0  0  0  0  0  0  0  0  0  0  0  0
    0.7299   -4.5963    1.2333 N   0  0  0  0  0  0  0  0  0  0  0  0
    0.5162   -5.5840    1.3436 H   0  0  0  0  0  0  0  0  0  0  0  0
    0.2555   -3.7780    0.2175 C   0  0  0  0  0  0  0  0  0  0  0  0
   -0.4011   -4.0622   -0.6002 H   0  0  0  0  0  0  0  0  0  0  0  0
   -0.4606    1.1026   -0.5209 C   0  0  0  0  0  0  0  0  0  0  0  0
   -1.4505    1.4189   -1.1827 O   0  0  0  0  0  0  0  0  0  0  0  0
    0.6219    1.8825   -0.4108 N   0  0  0  0  0  0  0  0  0  0  0  0
    1.3812    1.5461    0.1616 H   0  0  0  0  0  0  0  0  0  0  0  0
    0.7946    3.1862   -1.0587 C   0  0  0  0  0  0  0  0  0  0  0  0
    0.6114    3.9886   -0.3412 H   0  0  0  0  0  0  0  0  0  0  0  0
    1.8143    3.2829   -1.4353 H   0  0  0  0  0  0  0  0  0  0  0  0
    0.1028    3.2996   -1.8961 H   0  0  0  0  0  0  0  0  0  0  0  0
  5  6  2  0  0  0  0
  5  7  1  0  0  0  0
  2  3  1  0  0  0  0
  2  4  1  0  0  0  0
  2  5  1  0  0  0  0
  1  2  1  0  0  0  0
 23 24  2  0  0  0  0
 23 25  1  0  0  0  0
 21 22  1  0  0  0  0
 19 20  1  0  0  0  0
 19 21  1  0  0  0  0
 17 18  1  0  0  0  0
 17 19  1  0  0  0  0
 15 16  1  0  0  0  0
 15 17  2  0  0  0  0
 14 15  1  0  0  0  0
 14 21  2  0  0  0  0
 11 12  1  0  0  0  0
 11 13  1  0  0  0  0
 11 14  1  0  0  0  0
  9 10  1  0  0  0  0
  9 11  1  0  0  0  0
  9 23  1  0  0  0  0
  7  8  1  0  0  0  0
  7  9  1  0  0  0  0
 27 28  1  0  0  0  0
 27 29  1  0  0  0  0
 27 30  1  0  0  0  0
 25 26  1  0  0  0  0
 25 27  1  0  0  0  0
M  CHG  1  15   1
M  END
$$$$
default_name
  -OEChem-01062215323D

 30 30  0     1  0  0  0  0  0999 V2000
   -3.5507   -3.2183    1.8116 H   0  0  0  0  0  0  0  0  0  0  0  0
   -3.4597   -2.3913    1.1076 C   0  0  0  0  0  0  0  0  0  0  0  0
   -4.1577   -1.6043    1.3866 H   0  0  0  0  0  0  0  0  0  0  0  0
   -3.6807   -2.7523    0.1036 H   0  0  0  0  0  0  0  0  0  0  0  0
   -2.0477   -1.8543    1.1546 C   0  0  0  0  0  0  0  0  0  0  0  0
   -1.2227   -2.3443    1.9146 O   0  0  0  0  0  0  0  0  0  0  0  0
   -1.7517   -0.8483    0.3266 N   0  0  0  0  0  0  0  0  0  0  0  0
   -2.4847   -0.5123   -0.2804 H   0  0  0  0  0  0  0  0  0  0  0  0
   -0.4117   -0.2463    0.2186 C   0  0  1  0  0  0  0  0  0  0  0  0
    0.0571   -0.2799    1.2053 H   0  0  0  0  0  0  0  0  0  0  0  0
    0.4467   -1.1205   -0.7248 C   0  0  0  0  0  0  0  0  0  0  0  0
   -0.0532   -1.1804   -1.6949 H   0  0  0  0  0  0  0  0  0  0  0  0
    1.4074   -0.6277   -0.8891 H   0  0  0  0  0  0  0  0  0  0  0  0
    0.7174   -2.5259   -0.2310 C   0  0  0  0  0  0  0  0  0  0  0  0
    1.6088   -2.8630    0.7690 N   0  3  0  0  0  0  0  0  0  0  0  0
    2.1286   -2.1729    1.3188 H   0  0  0  0  0  0  0  0  0  0  0  0
    1.5802   -4.2006    0.9317 C   0  0  0  0  0  0  0  0  0  0  0  0
    2.1675   -4.7591    1.6579 H   0  0  0  0  0  0  0  0  0  0  0  0
    0.6906   -4.7199    0.0557 N   0  0  0  0  0  0  0  0  0  0  0  0
    0.4583   -5.7044   -0.0462 H   0  0  0  0  0  0  0  0  0  0  0  0
    0.1397   -3.6817   -0.6825 C   0  0  0  0  0  0  0  0  0  0  0  0
   -0.6067   -3.7603   -1.4682 H   0  0  0  0  0  0  0  0  0  0  0  0
   -0.4942    1.2395   -0.1743 C   0  0  0  0  0  0  0  0  0  0  0  0
   -1.5858    1.7767   -0.3684 O   0  0  0  0  0  0  0  0  0  0  0  0
    0.6700    1.8882   -0.3011 N   0  0  0  0  0  0  0  0  0  0  0  0
    1.5142    1.3699   -0.1114 H   0  0  0  0  0  0  0  0  0  0  0  0
    0.8173    3.2920   -0.6972 C   0  0  0  0  0  0  0  0  0  0  0  0
    1.0025    3.9122    0.1821 H   0  0  0  0  0  0  0  0  0  0  0  0
    1.6603    3.3993   -1.3821 H   0  0  0  0  0  0  0  0  0  0  0  0
   -0.0843    3.6522   -1.1971 H   0  0  0  0  0  0  0  0  0  0  0  0
  5  6  2  0  0  0  0
  5  7  1  0  0  0  0
  2  3  1  0  0  0  0
  2  4  1  0  0  0  0
  2  5  1  0  0  0  0
  1  2  1  0  0  0  0
 23 24  2  0  0  0  0
 23 25  1  0  0  0  0
 21 22  1  0  0  0  0
 19 20  1  0  0  0  0
 19 21  1  0  0  0  0
 17 18  1  0  0  0  0
 17 19  1  0  0  0  0
 15 16  1  0  0  0  0
 15 17  2  0  0  0  0
 14 15  1  0  0  0  0
 14 21  2  0  0  0  0
 11 12  1  0  0  0  0
 11 13  1  0  0  0  0
 11 14  1  0  0  0  0
  9 10  1  0  0  0  0
  9 11  1  0  0  0  0
  9 23  1  0  0  0  0
  7  8  1  0  0  0  0
  7  9  1  0  0  0  0
 27 28  1  0  0  0  0
 27 29  1  0  0  0  0
 27 30  1  0  0  0  0
 25 26  1  0  0  0  0
 25 27  1  0  0  0  0
M  CHG  1  15   1
M  END
$$$$
default_name
  -OEChem-01062215323D

 30 30  0     1  0  0  0  0  0999 V2000
   -3.5507   -3.2183    1.8116 H   0  0  0  0  0  0  0  0  0  0  0  0
   -3.4597   -2.3913    1.1076 C   0  0  0  0  0  0  0  0  0  0  0  0
   -4.1577   -1.6043    1.3866 H   0  0  0  0  0  0  0  0  0  0  0  0
   -3.6807   -2.7523    0.1036 H   0  0  0  0  0  0  0  0  0  0  0  0
   -2.0477   -1.8543    1.1546 C   0  0  0  0  0  0  0  0  0  0  0  0
   -1.2227   -2.3443    1.9146 O   0  0  0  0  0  0  0  0  0  0  0  0
   -1.7517   -0.8483    0.3266 N   0  0  0  0  0  0  0  0  0  0  0  0
   -2.4847   -0.5123   -0.2804 H   0  0  0  0  0  0  0  0  0  0  0  0
   -0.4117   -0.2463    0.2186 C   0  0  1  0  0  0  0  0  0  0  0  0
    0.0571   -0.2799    1.2053 H   0  0  0  0  0  0  0  0  0  0  0  0
    0.4467   -1.1205   -0.7248 C   0  0  0  0  0  0  0  0  0  0  0  0
   -0.0532   -1.1804   -1.6949 H   0  0  0  0  0  0  0  0  0  0  0  0
    1.4074   -0.6277   -0.8891 H   0  0  0  0  0  0  0  0  0  0  0  0
    0.7174   -2.5259   -0.2310 C   0  0  0  0  0  0  0  0  0  0  0  0
    1.6088   -2.8630    0.7690 N   0  3  0  0  0  0  0  0  0  0  0  0
    2.1286   -2.1729    1.3188 H   0  0  0  0  0  0  0  0  0  0  0  0
    1.5802   -4.2006    0.9317 C   0  0  0  0  0  0  0  0  0  0  0  0
    2.1675   -4.7591    1.6579 H   0  0  0  0  0  0  0  0  0  0  0  0
    0.6906   -4.7199    0.0557 N   0  0  0  0  0  0  0  0  0  0  0  0
    0.4583   -5.7044   -0.0462 H   0  0  0  0  0  0  0  0  0  0  0  0
    0.1397   -3.6817   -0.6825 C   0  0  0  0  0  0  0  0  0  0  0  0
   -0.6067   -3.7603   -1.4682 H   0  0  0  0  0  0  0  0  0  0  0  0
   -0.4942    1.2395   -0.1743 C   0  0  0  0  0  0  0  0  0  0  0  0
   -1.5627    1.8484   -0.1020 O   0  0  0  0  0  0  0  0  0  0  0  0
    0.6404    1.8070   -0.6019 N   0  0  0  0  0  0  0  0  0  0  0  0
    1.4701    1.2337   -0.6172 H   0  0  0  0  0  0  0  0  0  0  0  0
    0.7738    3.1954   -1.0534 C   0  0  0  0  0  0  0  0  0  0  0  0
    1.2127    3.8064   -0.2621 H   0  0  0  0  0  0  0  0  0  0  0  0
    1.4236    3.2415   -1.9290 H   0  0  0  0  0  0  0  0  0  0  0  0
   -0.1991    3.6132   -1.3205 H   0  0  0  0  0  0  0  0  0  0  0  0
  5  6  2  0  0  0  0
  5  7  1  0  0  0  0
  2  3  1  0  0  0  0
  2  4  1  0  0  0  0
  2  5  1  0  0  0  0
  1  2  1  0  0  0  0
 23 24  2  0  0  0  0
 23 25  1  0  0  0  0
 21 22  1  0  0  0  0
 19 20  1  0  0  0  0
 19 21  1  0  0  0  0
 17 18  1  0  0  0  0
 17 19  1  0  0  0  0
 15 16  1  0  0  0  0
 15 17  2  0  0  0  0
 14 15  1  0  0  0  0
 14 21  2  0  0  0  0
 11 12  1  0  0  0  0
 11 13  1  0  0  0  0
 11 14  1  0  0  0  0
  9 10  1  0  0  0  0
  9 11  1  0  0  0  0
  9 23  1  0  0  0  0
  7  8  1  0  0  0  0
  7  9  1  0  0  0  0
 27 28  1  0  0  0  0
 27 29  1  0  0  0  0
 27 30  1  0  0  0  0
 25 26  1  0  0  0  0
 25 27  1  0  0  0  0
M  CHG  1  15   1
M  END
$$$$
default_name
  -OEChem-01062215323D

 30 30  0     1  0  0  0  0  0999 V2000
   -3.5507   -3.2183    1.8116 H   0  0  0  0  0  0  0  0  0  0  0  0
   -3.4597   -2.3913    1.1076 C   0  0  0  0  0  0  0  0  0  0  0  0
   -4.1577   -1.6043    1.3866 H   0  0  0  0  0  0  0  0  0  0  0  0
   -3.6807   -2.7523    0.1036 H   0  0  0  0  0  0  0  0  0  0  0  0
   -2.0477   -1.8543    1.1546 C   0  0  0  0  0  0  0  0  0  0  0  0
   -1.2227   -2.3443    1.9146 O   0  0  0  0  0  0  0  0  0  0  0  0
   -1.7517   -0.8483    0.3266 N   0  0  0  0  0  0  0  0  0  0  0  0
   -2.4847   -0.5123   -0.2804 H   0  0  0  0  0  0  0  0  0  0  0  0
   -0.4117   -0.2463    0.2186 C   0  0  1  0  0  0  0  0  0  0  0  0
    0.0571   -0.2799    1.2053 H   0  0  0  0  0  0  0  0  0  0  0  0
    0.4467   -1.1205   -0.7248 C   0  0  0  0  0  0  0  0  0  0  0  0
   -0.0532   -1.1804   -1.6949 H   0  0  0  0  0  0  0  0  0  0  0  0
    1.4074   -0.6277   -0.8891 H   0  0  0  0  0  0  0  0  0  0  0  0
    0.7174   -2.5259   -0.2310 C   0  0  0  0  0  0  0  0  0  0  0  0
    1.6088   -2.8630    0.7690 N   0  3  0  0  0  0  0  0  0  0  0  0
    2.1286   -2.1729    1.3188 H   0  0  0  0  0  0  0  0  0  0  0  0
    1.5802   -4.2006    0.9317 C   0  0  0  0  0  0  0  0  0  0  0  0
    2.1675   -4.7591    1.6579 H   0  0  0  0  0  0  0  0  0  0  0  0
    0.6906   -4.7199    0.0557 N   0  0  0  0  0  0  0  0  0  0  0  0
    0.4583   -5.7044   -0.0462 H   0  0  0  0  0  0  0  0  0  0  0  0
    0.1397   -3.6817   -0.6825 C   0  0  0  0  0  0  0  0  0  0  0  0
   -0.6067   -3.7603   -1.4682 H   0  0  0  0  0  0  0  0  0  0  0  0
   -0.4942    1.2395   -0.1743 C   0  0  0  0  0  0  0  0  0  0  0  0
   -1.4691    1.9199    0.1486 O   0  0  0  0  0  0  0  0  0  0  0  0
    0.5313    1.7264   -0.8838 N   0  0  0  0  0  0  0  0  0  0  0  0
    1.2922    1.0980   -1.0929 H   0  0  0  0  0  0  0  0  0  0  0  0
    0.6365    3.1000   -1.3852 C   0  0  0  0  0  0  0  0  0  0  0  0
    1.2979    3.6842   -0.7422 H   0  0  0  0  0  0  0  0  0  0  0  0
    1.0480    3.0971   -2.3960 H   0  0  0  0  0  0  0  0  0  0  0  0
   -0.3434    3.5814   -1.4105 H   0  0  0  0  0  0  0  0  0  0  0  0
  5  6  2  0  0  0  0
  5  7  1  0  0  0  0
  2  3  1  0  0  0  0
  2  4  1  0  0  0  0
  2  5  1  0  0  0  0
  1  2  1  0  0  0  0
 23 24  2  0  0  0  0
 23 25  1  0  0  0  0
 21 22  1  0  0  0  0
 19 20  1  0  0  0  0
 19 21  1  0  0  0  0
 17 18  1  0  0  0  0
 17 19  1  0  0  0  0
 15 16  1  0  0  0  0
 15 17  2  0  0  0  0
 14 15  1  0  0  0  0
 14 21  2  0  0  0  0
 11 12  1  0  0  0  0
 11 13  1  0  0  0  0
 11 14  1  0  0  0  0
  9 10  1  0  0  0  0
  9 11  1  0  0  0  0
  9 23  1  0  0  0  0
  7  8  1  0  0  0  0
  7  9  1  0  0  0  0
 27 28  1  0  0  0  0
 27 29  1  0  0  0  0
 27 30  1  0  0  0  0
 25 26  1  0  0  0  0
 25 27  1  0  0  0  0
M  CHG  1  15   1
M  END
$$$$
default_name
  -OEChem-01062215323D

 30 30  0     1  0  0  0  0  0999 V2000
   -3.5507   -3.2183    1.8116 H   0  0  0  0  0  0  0  0  0  0  0  0
   -3.4597   -2.3913    1.1076 C   0  0  0  0  0  0  0  0  0  0  0  0
   -4.1577   -1.6043    1.3866 H   0  0  0  0  0  0  0  0  0  0  0  0
   -3.6807   -2.7523    0.1036 H   0  0  0  0  0  0  0  0  0  0  0  0
   -2.0477   -1.8543    1.1546 C   0  0  0  0  0  0  0  0  0  0  0  0
   -1.2227   -2.3443    1.9146 O   0  0  0  0  0  0  0  0  0  0  0  0
   -1.7517   -0.8483    0.3266 N   0  0  0  0  0  0  0  0  0  0  0  0
   -2.4847   -0.5123   -0.2804 H   0  0  0  0  0  0  0  0  0  0  0  0
   -0.4117   -0.2463    0.2186 C   0  0  1  0  0  0  0  0  0  0  0  0
    0.0571   -0.2799    1.2053 H   0  0  0  0  0  0  0  0  0  0  0  0
    0.4467   -1.1205   -0.7248 C   0  0  0  0  0  0  0  0  0  0  0  0
   -0.0532   -1.1804   -1.6949 H   0  0  0  0  0  0  0  0  0  0  0  0
    1.4074   -0.6277   -0.8891 H   0  0  0  0  0  0  0  0  0  0  0  0
    0.7174   -2.5259   -0.2310 C   0  0  0  0  0  0  0  0  0  0  0  0
    1.6088   -2.8630    0.7690 N   0  3  0  0  0  0  0  0  0  0  0  0
    2.1286   -2.1729    1.3188 H   0  0  0  0  0  0  0  0  0  0  0  0
    1.5802   -4.2006    0.9317 C   0  0  0  0  0  0  0  0  0  0  0  0
    2.1675   -4.7591    1.6579 H   0  0  0  0  0  0  0  0  0  0  0  0
    0.6906   -4.7199    0.0557 N   0  0  0  0  0  0  0  0  0  0  0  0
    0.4583   -5.7044   -0.0462 H   0  0  0  0  0  0  0  0  0  0  0  0
    0.1397   -3.6817   -0.6825 C   0  0  0  0  0  0  0  0  0  0  0  0
   -0.6067   -3.7603   -1.4682 H   0  0  0  0  0  0  0  0  0  0  0  0
   -0.4942    1.2395   -0.1743 C   0  0  0  0  0  0  0  0  0  0  0  0
   -1.3114    1.9863    0.3663 O   0  0  0  0  0  0  0  0  0  0  0  0
    0.3502    1.6518   -1.1278 N   0  0  0  0  0  0  0  0  0  0  0  0
    0.9924    0.9721   -1.5059 H   0  0  0  0  0  0  0  0  0  0  0  0
    0.4147    3.0124   -1.6700 C   0  0  0  0  0  0  0  0  0  0  0  0
    1.2521    3.5538   -1.2254 H   0  0  0  0  0  0  0  0  0  0  0  0
    0.5590    2.9760   -2.7512 H   0  0  0  0  0  0  0  0  0  0  0  0
   -0.5073    3.5590   -1.4609 H   0  0  0  0  0  0  0  0  0  0  0  0
  5  6  2  0  0  0  0
  5  7  1  0  0  0  0
  2  3  1  0  0  0  0
  2  4  1  0  0  0  0
  2  5  1  0  0  0  0
  1  2  1  0  0  0  0
 23 24  2  0  0  0  0
 23 25  1  0  0  0  0
 21 22  1  0  0  0  0
 19 20  1  0  0  0  0
 19 21  1  0  0  0  0
 17 18  1  0  0  0  0
 17 19  1  0  0  0  0
 15 16  1  0  0  0  0
 15 17  2  0  0  0  0
 14 15  1  0  0  0  0
 14 21  2  0  0  0  0
 11 12  1  0  0  0  0
 11 13  1  0  0  0  0
 11 14  1  0  0  0  0
  9 10  1  0  0  0  0
  9 11  1  0  0  0  0
  9 23  1  0  0  0  0
  7  8  1  0  0  0  0
  7  9  1  0  0  0  0
 27 28  1  0  0  0  0
 27 29  1  0  0  0  0
 27 30  1  0  0  0  0
 25 26  1  0  0  0  0
 25 27  1  0  0  0  0
M  CHG  1  15   1
M  END
$$$$
default_name
  -OEChem-01062215323D

 30 30  0     1  0  0  0  0  0999 V2000
   -3.5507   -3.2183    1.8116 H   0  0  0  0  0  0  0  0  0  0  0  0
   -3.4597   -2.3913    1.1076 C   0  0  0  0  0  0  0  0  0  0  0  0
   -4.1577   -1.6043    1.3866 H   0  0  0  0  0  0  0  0  0  0  0  0
   -3.6807   -2.7523    0.1036 H   0  0  0  0  0  0  0  0  0  0  0  0
   -2.0477   -1.8543    1.1546 C   0  0  0  0  0  0  0  0  0  0  0  0
   -1.2227   -2.3443    1.9146 O   0  0  0  0  0  0  0  0  0  0  0  0
   -1.7517   -0.8483    0.3266 N   0  0  0  0  0  0  0  0  0  0  0  0
   -2.4847   -0.5123   -0.2804 H   0  0  0  0  0  0  0  0  0  0  0  0
   -0.4117   -0.2463    0.2186 C   0  0  1  0  0  0  0  0  0  0  0  0
    0.0571   -0.2799    1.2053 H   0  0  0  0  0  0  0  0  0  0  0  0
    0.4467   -1.1205   -0.7248 C   0  0  0  0  0  0  0  0  0  0  0  0
   -0.0532   -1.1804   -1.6949 H   0  0  0  0  0  0  0  0  0  0  0  0
    1.4074   -0.6277   -0.8891 H   0  0  0  0  0  0  0  0  0  0  0  0
    0.7174   -2.5259   -0.2310 C   0  0  0  0  0  0  0  0  0  0  0  0
    1.6088   -2.8630    0.7690 N   0  3  0  0  0  0  0  0  0  0  0  0
    2.1286   -2.1729    1.3188 H   0  0  0  0  0  0  0  0  0  0  0  0
    1.5802   -4.2006    0.9317 C   0  0  0  0  0  0  0  0  0  0  0  0
    2.1675   -4.7591    1.6579 H   0  0  0  0  0  0  0  0  0  0  0  0
    0.6906   -4.7199    0.0557 N   0  0  0  0  0  0  0  0  0  0  0  0
    0.4583   -5.7044   -0.0462 H   0  0  0  0  0  0  0  0  0  0  0  0
    0.1397   -3.6817   -0.6825 C   0  0  0  0  0  0  0  0  0  0  0  0
   -0.6067   -3.7603   -1.4682 H   0  0  0  0  0  0  0  0  0  0  0  0
   -0.4942    1.2395   -0.1743 C   0  0  0  0  0  0  0  0  0  0  0  0
   -1.1003    2.0429    0.5363 O   0  0  0  0  0  0  0  0  0  0  0  0
    0.1093    1.5883   -1.3172 N   0  0  0  0  0  0  0  0  0  0  0  0
    0.5914    0.8646   -1.8283 H   0  0  0  0  0  0  0  0  0  0  0  0
    0.1234    2.9384   -1.8885 C   0  0  0  0  0  0  0  0  0  0  0  0
    1.0785    3.4242   -1.6790 H   0  0  0  0  0  0  0  0  0  0  0  0
   -0.0102    2.8864   -2.9705 H   0  0  0  0  0  0  0  0  0  0  0  0
   -0.6798    3.5474   -1.4683 H   0  0  0  0  0  0  0  0  0  0  0  0
  5  6  2  0  0  0  0
  5  7  1  0  0  0  0
  2  3  1  0  0  0  0
  2  4  1  0  0  0  0
  2  5  1  0  0  0  0
  1  2  1  0  0  0  0
 23 24  2  0  0  0  0
 23 25  1  0  0  0  0
 21 22  1  0  0  0  0
 19 20  1  0  0  0  0
 19 21  1  0  0  0  0
 17 18  1  0  0  0  0
 17 19  1  0  0  0  0
 15 16  1  0  0  0  0
 15 17  2  0  0  0  0
 14 15  1  0  0  0  0
 14 21  2  0  0  0  0
 11 12  1  0  0  0  0
 11 13  1  0  0  0  0
 11 14  1  0  0  0  0
  9 10  1  0  0  0  0
  9 11  1  0  0  0  0
  9 23  1  0  0  0  0
  7  8  1  0  0  0  0
  7  9  1  0  0  0  0
 27 28  1  0  0  0  0
 27 29  1  0  0  0  0
 27 30  1  0  0  0  0
 25 26  1  0  0  0  0
 25 27  1  0  0  0  0
M  CHG  1  15   1
M  END
$$$$
default_name
  -OEChem-01062215323D

 30 30  0     1  0  0  0  0  0999 V2000
   -3.5507   -3.2183    1.8116 H   0  0  0  0  0  0  0  0  0  0  0  0
   -3.4597   -2.3913    1.1076 C   0  0  0  0  0  0  0  0  0  0  0  0
   -4.1577   -1.6043    1.3866 H   0  0  0  0  0  0  0  0  0  0  0  0
   -3.6807   -2.7523    0.1036 H   0  0  0  0  0  0  0  0  0  0  0  0
   -2.0477   -1.8543    1.1546 C   0  0  0  0  0  0  0  0  0  0  0  0
   -1.2227   -2.3443    1.9146 O   0  0  0  0  0  0  0  0  0  0  0  0
   -1.7517   -0.8483    0.3266 N   0  0  0  0  0  0  0  0  0  0  0  0
   -2.4847   -0.5123   -0.2804 H   0  0  0  0  0  0  0  0  0  0  0  0
   -0.4117   -0.2463    0.2186 C   0  0  1  0  0  0  0  0  0  0  0  0
    0.0571   -0.2799    1.2053 H   0  0  0  0  0  0  0  0  0  0  0  0
    0.4467   -1.1205   -0.7248 C   0  0  0  0  0  0  0  0  0  0  0  0
   -0.0532   -1.1804   -1.6949 H   0  0  0  0  0  0  0  0  0  0  0  0
    1.4074   -0.6277   -0.8891 H   0  0  0  0  0  0  0  0  0  0  0  0
    0.7174   -2.5259   -0.2310 C   0  0  0  0  0  0  0  0  0  0  0  0
    1.6088   -2.8630    0.7690 N   0  3  0  0  0  0  0  0  0  0  0  0
    2.1286   -2.1729    1.3188 H   0  0  0  0  0  0  0  0  0  0  0  0
    1.5802   -4.2006    0.9317 C   0  0  0  0  0  0  0  0  0  0  0  0
    2.1675   -4.7591    1.6579 H   0  0  0  0  0  0  0  0  0  0  0  0
    0.6906   -4.7199    0.0557 N   0  0  0  0  0  0  0  0  0  0  0  0
    0.4583   -5.7044   -0.0462 H   0  0  0  0  0  0  0  0  0  0  0  0
    0.1397   -3.6817   -0.6825 C   0  0  0  0  0  0  0  0  0  0  0  0
   -0.6067   -3.7603   -1.4682 H   0  0  0  0  0  0  0  0  0  0  0  0
   -0.4942    1.2395   -0.1743 C   0  0  0  0  0  0  0  0  0  0  0  0
   -0.8502    2.0861    0.6469 O   0  0  0  0  0  0  0  0  0  0  0  0
   -0.1749    1.5403   -1.4391 N   0  0  0  0  0  0  0  0  0  0  0  0
    0.1164    0.7828   -2.0380 H   0  0  0  0  0  0  0  0  0  0  0  0
   -0.2174    2.8832   -2.0258 C   0  0  0  0  0  0  0  0  0  0  0  0
    0.7889    3.3042   -2.0720 H   0  0  0  0  0  0  0  0  0  0  0  0
   -0.6207    2.8345   -3.0388 H   0  0  0  0  0  0  0  0  0  0  0  0
   -0.8489    3.5476   -1.4322 H   0  0  0  0  0  0  0  0  0  0  0  0
  5  6  2  0  0  0  0
  5  7  1  0  0  0  0
  2  3  1  0  0  0  0
  2  4  1  0  0  0  0
  2  5  1  0  0  0  0
  1  2  1  0  0  0  0
 23 24  2  0  0  0  0
 23 25  1  0  0  0  0
 21 22  1  0  0  0  0
 19 20  1  0  0  0  0
 19 21  1  0  0  0  0
 17 18  1  0  0  0  0
 17 19  1  0  0  0  0
 15 16  1  0  0  0  0
 15 17  2  0  0  0  0
 14 15  1  0  0  0  0
 14 21  2  0  0  0  0
 11 12  1  0  0  0  0
 11 13  1  0  0  0  0
 11 14  1  0  0  0  0
  9 10  1  0  0  0  0
  9 11  1  0  0  0  0
  9 23  1  0  0  0  0
  7  8  1  0  0  0  0
  7  9  1  0  0  0  0
 27 28  1  0  0  0  0
 27 29  1  0  0  0  0
 27 30  1  0  0  0  0
 25 26  1  0  0  0  0
 25 27  1  0  0  0  0
M  CHG  1  15   1
M  END
$$$$
default_name
  -OEChem-01062215323D

 30 30  0     1  0  0  0  0  0999 V2000
   -3.5507   -3.2183    1.8116 H   0  0  0  0  0  0  0  0  0  0  0  0
   -3.4597   -2.3913    1.1076 C   0  0  0  0  0  0  0  0  0  0  0  0
   -4.1577   -1.6043    1.3866 H   0  0  0  0  0  0  0  0  0  0  0  0
   -3.6807   -2.7523    0.1036 H   0  0  0  0  0  0  0  0  0  0  0  0
   -2.0477   -1.8543    1.1546 C   0  0  0  0  0  0  0  0  0  0  0  0
   -1.2227   -2.3443    1.9146 O   0  0  0  0  0  0  0  0  0  0  0  0
   -1.7517   -0.8483    0.3266 N   0  0  0  0  0  0  0  0  0  0  0  0
   -2.4847   -0.5123   -0.2804 H   0  0  0  0  0  0  0  0  0  0  0  0
   -0.4117   -0.2463    0.2186 C   0  0  1  0  0  0  0  0  0  0  0  0
    0.0571   -0.2799    1.2053 H   0  0  0  0  0  0  0  0  0  0  0  0
    0.4467   -1.1205   -0.7248 C   0  0  0  0  0  0  0  0  0  0  0  0
   -0.0532   -1.1804   -1.6949 H   0  0  0  0  0  0  0  0  0  0  0  0
    1.4074   -0.6277   -0.8891 H   0  0  0  0  0  0  0  0  0  0  0  0
    0.7174   -2.5259   -0.2310 C   0  0  0  0  0  0  0  0  0  0  0  0
    1.6088   -2.8630    0.7690 N   0  3  0  0  0  0  0  0  0  0  0  0
    2.1286   -2.1729    1.3188 H   0  0  0  0  0  0  0  0  0  0  0  0
    1.5802   -4.2006    0.9317 C   0  0  0  0  0  0  0  0  0  0  0  0
    2.1675   -4.7591    1.6579 H   0  0  0  0  0  0  0  0  0  0  0  0
    0.6906   -4.7199    0.0557 N   0  0  0  0  0  0  0  0  0  0  0  0
    0.4583   -5.7044   -0.0462 H   0  0  0  0  0  0  0  0  0  0  0  0
    0.1397   -3.6817   -0.6825 C   0  0  0  0  0  0  0  0  0  0  0  0
   -0.6067   -3.7603   -1.4682 H   0  0  0  0  0  0  0  0  0  0  0  0
   -0.4942    1.2395   -0.1743 C   0  0  0  0  0  0  0  0  0  0  0  0
   -0.5780    2.1128    0.6906 O   0  0  0  0  0  0  0  0  0  0  0  0
   -0.4830    1.5110   -1.4851 N   0  0  0  0  0  0  0  0  0  0  0  0
   -0.4003    0.7322   -2.1207 H   0  0  0  0  0  0  0  0  0  0  0  0
   -0.5846    2.8504   -2.0725 C   0  0  0  0  0  0  0  0  0  0  0  0
    0.4031    3.2020   -2.3775 H   0  0  0  0  0  0  0  0  0  0  0  0
   -1.2308    2.8236   -2.9515 H   0  0  0  0  0  0  0  0  0  0  0  0
   -1.0033    3.5594   -1.3551 H   0  0  0  0  0  0  0  0  0  0  0  0
  5  6  2  0  0  0  0
  5  7  1  0  0  0  0
  2  3  1  0  0  0  0
  2  4  1  0  0  0  0
  2  5  1  0  0  0  0
  1  2  1  0  0  0  0
 23 24  2  0  0  0  0
 23 25  1  0  0  0  0
 21 22  1  0  0  0  0
 19 20  1  0  0  0  0
 19 21  1  0  0  0  0
 17 18  1  0  0  0  0
 17 19  1  0  0  0  0
 15 16  1  0  0  0  0
 15 17  2  0  0  0  0
 14 15  1  0  0  0  0
 14 21  2  0  0  0  0
 11 12  1  0  0  0  0
 11 13  1  0  0  0  0
 11 14  1  0  0  0  0
  9 10  1  0  0  0  0
  9 11  1  0  0  0  0
  9 23  1  0  0  0  0
  7  8  1  0  0  0  0
  7  9  1  0  0  0  0
 27 28  1  0  0  0  0
 27 29  1  0  0  0  0
 27 30  1  0  0  0  0
 25 26  1  0  0  0  0
 25 27  1  0  0  0  0
M  CHG  1  15   1
M  END
$$$$
default_name
  -OEChem-01062215323D

 30 30  0     1  0  0  0  0  0999 V2000
   -3.5507   -3.2183    1.8116 H   0  0  0  0  0  0  0  0  0  0  0  0
   -3.4597   -2.3913    1.1076 C   0  0  0  0  0  0  0  0  0  0  0  0
   -4.1577   -1.6043    1.3866 H   0  0  0  0  0  0  0  0  0  0  0  0
   -3.6807   -2.7523    0.1036 H   0  0  0  0  0  0  0  0  0  0  0  0
   -2.0477   -1.8543    1.1546 C   0  0  0  0  0  0  0  0  0  0  0  0
   -1.2227   -2.3443    1.9146 O   0  0  0  0  0  0  0  0  0  0  0  0
   -1.7517   -0.8483    0.3266 N   0  0  0  0  0  0  0  0  0  0  0  0
   -2.4847   -0.5123   -0.2804 H   0  0  0  0  0  0  0  0  0  0  0  0
   -0.4117   -0.2463    0.2186 C   0  0  1  0  0  0  0  0  0  0  0  0
    0.0571   -0.2799    1.2053 H   0  0  0  0  0  0  0  0  0  0  0  0
    0.4467   -1.1205   -0.7248 C   0  0  0  0  0  0  0  0  0  0  0  0
   -0.0532   -1.1804   -1.6949 H   0  0  0  0  0  0  0  0  0  0  0  0
    1.4074   -0.6277   -0.8891 H   0  0  0  0  0  0  0  0  0  0  0  0
    0.7174   -2.5259   -0.2310 C   0  0  0  0  0  0  0  0  0  0  0  0
    1.6088   -2.8630    0.7690 N   0  3  0  0  0  0  0  0  0  0  0  0
    2.1286   -2.1729    1.3188 H   0  0  0  0  0  0  0  0  0  0  0  0
    1.5802   -4.2006    0.9317 C   0  0  0  0  0  0  0  0  0  0  0  0
    2.1675   -4.7591    1.6579 H   0  0  0  0  0  0  0  0  0  0  0  0
    0.6906   -4.7199    0.0557 N   0  0  0  0  0  0  0  0  0  0  0  0
    0.4583   -5.7044   -0.0462 H   0  0  0  0  0  0  0  0  0  0  0  0
    0.1397   -3.6817   -0.6825 C   0  0  0  0  0  0  0  0  0  0  0  0
   -0.6067   -3.7603   -1.4682 H   0  0  0  0  0  0  0  0  0  0  0  0
   -0.4942    1.2395   -0.1743 C   0  0  0  0  0  0  0  0  0  0  0  0
   -0.3025    2.1212    0.6646 O   0  0  0  0  0  0  0  0  0  0  0  0
   -0.7940    1.5024   -1.4522 N   0  0  0  0  0  0  0  0  0  0  0  0
   -0.9233    0.7163   -2.0709 H   0  0  0  0  0  0  0  0  0  0  0  0
   -0.9531    2.8424   -2.0253 C   0  0  0  0  0  0  0  0  0  0  0  0
   -0.0527    3.1245   -2.5748 H   0  0  0  0  0  0  0  0  0  0  0  0
   -1.7991    2.8547   -2.7147 H   0  0  0  0  0  0  0  0  0  0  0  0
   -1.1324    3.5821   -1.2422 H   0  0  0  0  0  0  0  0  0  0  0  0
  5  6  2  0  0  0  0
  5  7  1  0  0  0  0
  2  3  1  0  0  0  0
  2  4  1  0  0  0  0
  2  5  1  0  0  0  0
  1  2  1  0  0  0  0
 23 24  2  0  0  0  0
 23 25  1  0  0  0  0
 21 22  1  0  0  0  0
 19 20  1  0  0  0  0
 19 21  1  0  0  0  0
 17 18  1  0  0  0  0
 17 19  1  0  0  0  0
 15 16  1  0  0  0  0
 15 17  2  0  0  0  0
 14 15  1  0  0  0  0
 14 21  2  0  0  0  0
 11 12  1  0  0  0  0
 11 13  1  0  0  0  0
 11 14  1  0  0  0  0
  9 10  1  0  0  0  0
  9 11  1  0  0  0  0
  9 23  1  0  0  0  0
  7  8  1  0  0  0  0
  7  9  1  0  0  0  0
 27 28  1  0  0  0  0
 27 29  1  0  0  0  0
 27 30  1  0  0  0  0
 25 26  1  0  0  0  0
 25 27  1  0  0  0  0
M  CHG  1  15   1
M  END
$$$$
default_name
  -OEChem-01062215323D

 30 30  0     1  0  0  0  0  0999 V2000
   -3.5507   -3.2183    1.8116 H   0  0  0  0  0  0  0  0  0  0  0  0
   -3.4597   -2.3913    1.1076 C   0  0  0  0  0  0  0  0  0  0  0  0
   -4.1577   -1.6043    1.3866 H   0  0  0  0  0  0  0  0  0  0  0  0
   -3.6807   -2.7523    0.1036 H   0  0  0  0  0  0  0  0  0  0  0  0
   -2.0477   -1.8543    1.1546 C   0  0  0  0  0  0  0  0  0  0  0  0
   -1.2227   -2.3443    1.9146 O   0  0  0  0  0  0  0  0  0  0  0  0
   -1.7517   -0.8483    0.3266 N   0  0  0  0  0  0  0  0  0  0  0  0
   -2.4847   -0.5123   -0.2804 H   0  0  0  0  0  0  0  0  0  0  0  0
   -0.4117   -0.2463    0.2186 C   0  0  1  0  0  0  0  0  0  0  0  0
    0.0571   -0.2799    1.2053 H   0  0  0  0  0  0  0  0  0  0  0  0
    0.4467   -1.1205   -0.7248 C   0  0  0  0  0  0  0  0  0  0  0  0
   -0.0532   -1.1804   -1.6949 H   0  0  0  0  0  0  0  0  0  0  0  0
    1.4074   -0.6277   -0.8891 H   0  0  0  0  0  0  0  0  0  0  0  0
    0.7174   -2.5259   -0.2310 C   0  0  0  0  0  0  0  0  0  0  0  0
    1.6088   -2.8630    0.7690 N   0  3  0  0  0  0  0  0  0  0  0  0
    2.1286   -2.1729    1.3188 H   0  0  0  0  0  0  0  0  0  0  0  0
    1.5802   -4.2006    0.9317 C   0  0  0  0  0  0  0  0  0  0  0  0
    2.1675   -4.7591    1.6579 H   0  0  0  0  0  0  0  0  0  0  0  0
    0.6906   -4.7199    0.0557 N   0  0  0  0  0  0  0  0  0  0  0  0
    0.4583   -5.7044   -0.0462 H   0  0  0  0  0  0  0  0  0  0  0  0
    0.1397   -3.6817   -0.6825 C   0  0  0  0  0  0  0  0  0  0  0  0
   -0.6067   -3.7603   -1.4682 H   0  0  0  0  0  0  0  0  0  0  0  0
   -0.4942    1.2395   -0.1743 C   0  0  0  0  0  0  0  0  0  0  0  0
   -0.0423    2.1107    0.5704 O   0  0  0  0  0  0  0  0  0  0  0  0
   -1.0868    1.5152   -1.3426 N   0  0  0  0  0  0  0  0  0  0  0  0
   -1.4172    0.7363   -1.8918 H   0  0  0  0  0  0  0  0  0  0  0  0
   -1.2977    2.8597   -1.8876 C   0  0  0  0  0  0  0  0  0  0  0  0
   -0.5474    3.0770   -2.6504 H   0  0  0  0  0  0  0  0  0  0  0  0
   -2.2868    2.9256   -2.3443 H   0  0  0  0  0  0  0  0  0  0  0  0
   -1.2273    3.6141   -1.1012 H   0  0  0  0  0  0  0  0  0  0  0  0
  5  6  2  0  0  0  0
  5  7  1  0  0  0  0
  2  3  1  0  0  0  0
  2  4  1  0  0  0  0
  2  5  1  0  0  0  0
  1  2  1  0  0  0  0
 23 24  2  0  0  0  0
 23 25  1  0  0  0  0
 21 22  1  0  0  0  0
 19 20  1  0  0  0  0
 19 21  1  0  0  0  0
 17 18  1  0  0  0  0
 17 19  1  0  0  0  0
 15 16  1  0  0  0  0
 15 17  2  0  0  0  0
 14 15  1  0  0  0  0
 14 21  2  0  0  0  0
 11 12  1  0  0  0  0
 11 13  1  0  0  0  0
 11 14  1  0  0  0  0
  9 10  1  0  0  0  0
  9 11  1  0  0  0  0
  9 23  1  0  0  0  0
  7  8  1  0  0  0  0
  7  9  1  0  0  0  0
 27 28  1  0  0  0  0
 27 29  1  0  0  0  0
 27 30  1  0  0  0  0
 25 26  1  0  0  0  0
 25 27  1  0  0  0  0
M  CHG  1  15   1
M  END
$$$$
default_name
  -OEChem-01062215323D

 30 30  0     1  0  0  0  0  0999 V2000
   -3.5507   -3.2183    1.8116 H   0  0  0  0  0  0  0  0  0  0  0  0
   -3.4597   -2.3913    1.1076 C   0  0  0  0  0  0  0  0  0  0  0  0
   -4.1577   -1.6043    1.3866 H   0  0  0  0  0  0  0  0  0  0  0  0
   -3.6807   -2.7523    0.1036 H   0  0  0  0  0  0  0  0  0  0  0  0
   -2.0477   -1.8543    1.1546 C   0  0  0  0  0  0  0  0  0  0  0  0
   -1.2227   -2.3443    1.9146 O   0  0  0  0  0  0  0  0  0  0  0  0
   -1.7517   -0.8483    0.3266 N   0  0  0  0  0  0  0  0  0  0  0  0
   -2.4847   -0.5123   -0.2804 H   0  0  0  0  0  0  0  0  0  0  0  0
   -0.4117   -0.2463    0.2186 C   0  0  1  0  0  0  0  0  0  0  0  0
    0.0571   -0.2799    1.2053 H   0  0  0  0  0  0  0  0  0  0  0  0
    0.4467   -1.1205   -0.7248 C   0  0  0  0  0  0  0  0  0  0  0  0
   -0.0532   -1.1804   -1.6949 H   0  0  0  0  0  0  0  0  0  0  0  0
    1.4074   -0.6277   -0.8891 H   0  0  0  0  0  0  0  0  0  0  0  0
    0.7174   -2.5259   -0.2310 C   0  0  0  0  0  0  0  0  0  0  0  0
    1.6088   -2.8630    0.7690 N   0  3  0  0  0  0  0  0  0  0  0  0
    2.1286   -2.1729    1.3188 H   0  0  0  0  0  0  0  0  0  0  0  0
    1.5802   -4.2006    0.9317 C   0  0  0  0  0  0  0  0  0  0  0  0
    2.1675   -4.7591    1.6579 H   0  0  0  0  0  0  0  0  0  0  0  0
    0.6906   -4.7199    0.0557 N   0  0  0  0  0  0  0  0  0  0  0  0
    0.4583   -5.7044   -0.0462 H   0  0  0  0  0  0  0  0  0  0  0  0
    0.1397   -3.6817   -0.6825 C   0  0  0  0  0  0  0  0  0  0  0  0
   -0.6067   -3.7603   -1.4682 H   0  0  0  0  0  0  0  0  0  0  0  0
   -0.4942    1.2395   -0.1743 C   0  0  0  0  0  0  0  0  0  0  0  0
    0.1848    2.0821    0.4146 O   0  0  0  0  0  0  0  0  0  0  0  0
   -1.3414    1.5483   -1.1637 N   0  0  0  0  0  0  0  0  0  0  0  0
   -1.8481    0.7906   -1.5957 H   0  0  0  0  0  0  0  0  0  0  0  0
   -1.5951    2.9011   -1.6688 C   0  0  0  0  0  0  0  0  0  0  0  0
   -1.0472    3.0628   -2.5992 H   0  0  0  0  0  0  0  0  0  0  0  0
   -2.6606    3.0314   -1.8657 H   0  0  0  0  0  0  0  0  0  0  0  0
   -1.2817    3.6533   -0.9417 H   0  0  0  0  0  0  0  0  0  0  0  0
  5  6  2  0  0  0  0
  5  7  1  0  0  0  0
  2  3  1  0  0  0  0
  2  4  1  0  0  0  0
  2  5  1  0  0  0  0
  1  2  1  0  0  0  0
 23 24  2  0  0  0  0
 23 25  1  0  0  0  0
 21 22  1  0  0  0  0
 19 20  1  0  0  0  0
 19 21  1  0  0  0  0
 17 18  1  0  0  0  0
 17 19  1  0  0  0  0
 15 16  1  0  0  0  0
 15 17  2  0  0  0  0
 14 15  1  0  0  0  0
 14 21  2  0  0  0  0
 11 12  1  0  0  0  0
 11 13  1  0  0  0  0
 11 14  1  0  0  0  0
  9 10  1  0  0  0  0
  9 11  1  0  0  0  0
  9 23  1  0  0  0  0
  7  8  1  0  0  0  0
  7  9  1  0  0  0  0
 27 28  1  0  0  0  0
 27 29  1  0  0  0  0
 27 30  1  0  0  0  0
 25 26  1  0  0  0  0
 25 27  1  0  0  0  0
M  CHG  1  15   1
M  END
$$$$
default_name
  -OEChem-01062215323D

 30 30  0     1  0  0  0  0  0999 V2000
   -3.5507   -3.2183    1.8116 H   0  0  0  0  0  0  0  0  0  0  0  0
   -3.4597   -2.3913    1.1076 C   0  0  0  0  0  0  0  0  0  0  0  0
   -4.1577   -1.6043    1.3866 H   0  0  0  0  0  0  0  0  0  0  0  0
   -3.6807   -2.7523    0.1036 H   0  0  0  0  0  0  0  0  0  0  0  0
   -2.0477   -1.8543    1.1546 C   0  0  0  0  0  0  0  0  0  0  0  0
   -1.2227   -2.3443    1.9146 O   0  0  0  0  0  0  0  0  0  0  0  0
   -1.7517   -0.8483    0.3266 N   0  0  0  0  0  0  0  0  0  0  0  0
   -2.4847   -0.5123   -0.2804 H   0  0  0  0  0  0  0  0  0  0  0  0
   -0.4117   -0.2463    0.2186 C   0  0  1  0  0  0  0  0  0  0  0  0
    0.0571   -0.2799    1.2053 H   0  0  0  0  0  0  0  0  0  0  0  0
    0.4467   -1.1205   -0.7248 C   0  0  0  0  0  0  0  0  0  0  0  0
   -0.0532   -1.1804   -1.6949 H   0  0  0  0  0  0  0  0  0  0  0  0
    1.4074   -0.6277   -0.8891 H   0  0  0  0  0  0  0  0  0  0  0  0
    0.7174   -2.5259   -0.2310 C   0  0  0  0  0  0  0  0  0  0  0  0
    1.6088   -2.8630    0.7690 N   0  3  0  0  0  0  0  0  0  0  0  0
    2.1286   -2.1729    1.3188 H   0  0  0  0  0  0  0  0  0  0  0  0
    1.5802   -4.2006    0.9317 C   0  0  0  0  0  0  0  0  0  0  0  0
    2.1675   -4.7591    1.6579 H   0  0  0  0  0  0  0  0  0  0  0  0
    0.6906   -4.7199    0.0557 N   0  0  0  0  0  0  0  0  0  0  0  0
    0.4583   -5.7044   -0.0462 H   0  0  0  0  0  0  0  0  0  0  0  0
    0.1397   -3.6817   -0.6825 C   0  0  0  0  0  0  0  0  0  0  0  0
   -0.6067   -3.7603   -1.4682 H   0  0  0  0  0  0  0  0  0  0  0  0
   -0.4942    1.2395   -0.1743 C   0  0  0  0  0  0  0  0  0  0  0  0
    0.3633    2.0373    0.2077 O   0  0  0  0  0  0  0  0  0  0  0  0
   -1.5404    1.5997   -0.9278 N   0  0  0  0  0  0  0  0  0  0  0  0
   -2.1868    0.8757   -1.2028 H   0  0  0  0  0  0  0  0  0  0  0  0
   -1.8249    2.9637   -1.3836 C   0  0  0  0  0  0  0  0  0  0  0  0
   -1.5182    3.0828   -2.4247 H   0  0  0  0  0  0  0  0  0  0  0  0
   -2.8952    3.1650   -1.3114 H   0  0  0  0  0  0  0  0  0  0  0  0
   -1.2918    3.6969   -0.7747 H   0  0  0  0  0  0  0  0  0  0  0  0
  5  6  2  0  0  0  0
  5  7  1  0  0  0  0
  2  3  1  0  0  0  0
  2  4  1  0  0  0  0
  2  5  1  0  0  0  0
  1  2  1  0  0  0  0
 23 24  2  0  0  0  0
 23 25  1  0  0  0  0
 21 22  1  0  0  0  0
 19 20  1  0  0  0  0
 19 21  1  0  0  0  0
 17 18  1  0  0  0  0
 17 19  1  0  0  0  0
 15 16  1  0  0  0  0
 15 17  2  0  0  0  0
 14 15  1  0  0  0  0
 14 21  2  0  0  0  0
 11 12  1  0  0  0  0
 11 13  1  0  0  0  0
 11 14  1  0  0  0  0
  9 10  1  0  0  0  0
  9 11  1  0  0  0  0
  9 23  1  0  0  0  0
  7  8  1  0  0  0  0
  7  9  1  0  0  0  0
 27 28  1  0  0  0  0
 27 29  1  0  0  0  0
 27 30  1  0  0  0  0
 25 26  1  0  0  0  0
 25 27  1  0  0  0  0
M  CHG  1  15   1
M  END
$$$$
default_name
  -OEChem-01062215323D

 30 30  0     1  0  0  0  0  0999 V2000
   -3.5507   -3.2183    1.8116 H   0  0  0  0  0  0  0  0  0  0  0  0
   -3.4597   -2.3913    1.1076 C   0  0  0  0  0  0  0  0  0  0  0  0
   -4.1577   -1.6043    1.3866 H   0  0  0  0  0  0  0  0  0  0  0  0
   -3.6807   -2.7523    0.1036 H   0  0  0  0  0  0  0  0  0  0  0  0
   -2.0477   -1.8543    1.1546 C   0  0  0  0  0  0  0  0  0  0  0  0
   -1.2227   -2.3443    1.9146 O   0  0  0  0  0  0  0  0  0  0  0  0
   -1.7517   -0.8483    0.3266 N   0  0  0  0  0  0  0  0  0  0  0  0
   -2.4847   -0.5123   -0.2804 H   0  0  0  0  0  0  0  0  0  0  0  0
   -0.4117   -0.2463    0.2186 C   0  0  1  0  0  0  0  0  0  0  0  0
    0.0571   -0.2799    1.2053 H   0  0  0  0  0  0  0  0  0  0  0  0
    0.4467   -1.1205   -0.7248 C   0  0  0  0  0  0  0  0  0  0  0  0
   -0.0532   -1.1804   -1.6949 H   0  0  0  0  0  0  0  0  0  0  0  0
    1.4074   -0.6277   -0.8891 H   0  0  0  0  0  0  0  0  0  0  0  0
    0.7174   -2.5259   -0.2310 C   0  0  0  0  0  0  0  0  0  0  0  0
    1.6088   -2.8630    0.7690 N   0  3  0  0  0  0  0  0  0  0  0  0
    2.1286   -2.1729    1.3188 H   0  0  0  0  0  0  0  0  0  0  0  0
    1.5802   -4.2006    0.9317 C   0  0  0  0  0  0  0  0  0  0  0  0
    2.1675   -4.7591    1.6579 H   0  0  0  0  0  0  0  0  0  0  0  0
    0.6906   -4.7199    0.0557 N   0  0  0  0  0  0  0  0  0  0  0  0
    0.4583   -5.7044   -0.0462 H   0  0  0  0  0  0  0  0  0  0  0  0
    0.1397   -3.6817   -0.6825 C   0  0  0  0  0  0  0  0  0  0  0  0
   -0.6067   -3.7603   -1.4682 H   0  0  0  0  0  0  0  0  0  0  0  0
   -0.4942    1.2395   -0.1743 C   0  0  0  0  0  0  0  0  0  0  0  0
    0.4811    1.9794   -0.0361 O   0  0  0  0  0  0  0  0  0  0  0  0
   -1.6703    1.6657   -0.6509 N   0  0  0  0  0  0  0  0  0  0  0  0
   -2.4101    0.9858   -0.7398 H   0  0  0  0  0  0  0  0  0  0  0  0
   -1.9716    3.0434   -1.0516 C   0  0  0  0  0  0  0  0  0  0  0  0
   -1.9282    3.1356   -2.1387 H   0  0  0  0  0  0  0  0  0  0  0  0
   -2.9744    3.3172   -0.7193 H   0  0  0  0  0  0  0  0  0  0  0  0
   -1.2570    3.7420   -0.6114 H   0  0  0  0  0  0  0  0  0  0  0  0
  5  6  2  0  0  0  0
  5  7  1  0  0  0  0
  2  3  1  0  0  0  0
  2  4  1  0  0  0  0
  2  5  1  0  0  0  0
  1  2  1  0  0  0  0
 23 24  2  0  0  0  0
 23 25  1  0  0  0  0
 21 22  1  0  0  0  0
 19 20  1  0  0  0  0
 19 21  1  0  0  0  0
 17 18  1  0  0  0  0
 17 19  1  0  0  0  0
 15 16  1  0  0  0  0
 15 17  2  0  0  0  0
 14 15  1  0  0  0  0
 14 21  2  0  0  0  0
 11 12  1  0  0  0  0
 11 13  1  0  0  0  0
 11 14  1  0  0  0  0
  9 10  1  0  0  0  0
  9 11  1  0  0  0  0
  9 23  1  0  0  0  0
  7  8  1  0  0  0  0
  7  9  1  0  0  0  0
 27 28  1  0  0  0  0
 27 29  1  0  0  0  0
 27 30  1  0  0  0  0
 25 26  1  0  0  0  0
 25 27  1  0  0  0  0
M  CHG  1  15   1
M  END
$$$$
default_name
  -OEChem-01062215323D

 30 30  0     1  0  0  0  0  0999 V2000
   -3.5507   -3.2183    1.8116 H   0  0  0  0  0  0  0  0  0  0  0  0
   -3.4597   -2.3913    1.1076 C   0  0  0  0  0  0  0  0  0  0  0  0
   -4.1577   -1.6043    1.3866 H   0  0  0  0  0  0  0  0  0  0  0  0
   -3.6807   -2.7523    0.1036 H   0  0  0  0  0  0  0  0  0  0  0  0
   -2.0477   -1.8543    1.1546 C   0  0  0  0  0  0  0  0  0  0  0  0
   -1.2227   -2.3443    1.9146 O   0  0  0  0  0  0  0  0  0  0  0  0
   -1.7517   -0.8483    0.3266 N   0  0  0  0  0  0  0  0  0  0  0  0
   -2.4847   -0.5123   -0.2804 H   0  0  0  0  0  0  0  0  0  0  0  0
   -0.4117   -0.2463    0.2186 C   0  0  1  0  0  0  0  0  0  0  0  0
    0.0571   -0.2799    1.2053 H   0  0  0  0  0  0  0  0  0  0  0  0
    0.4467   -1.1205   -0.7248 C   0  0  0  0  0  0  0  0  0  0  0  0
   -0.0532   -1.1804   -1.6949 H   0  0  0  0  0  0  0  0  0  0  0  0
    1.4074   -0.6277   -0.8891 H   0  0  0  0  0  0  0  0  0  0  0  0
    0.7174   -2.5259   -0.2310 C   0  0  0  0  0  0  0  0  0  0  0  0
    1.6088   -2.8630    0.7690 N   0  3  0  0  0  0  0  0  0  0  0  0
    2.1286   -2.1729    1.3188 H   0  0  0  0  0  0  0  0  0  0  0  0
    1.5802   -4.2006    0.9317 C   0  0  0  0  0  0  0  0  0  0  0  0
    2.1675   -4.7591    1.6579 H   0  0  0  0  0  0  0  0  0  0  0  0
    0.6906   -4.7199    0.0557 N   0  0  0  0  0  0  0  0  0  0  0  0
    0.4583   -5.7044   -0.0462 H   0  0  0  0  0  0  0  0  0  0  0  0
    0.1397   -3.6817   -0.6825 C   0  0  0  0  0  0  0  0  0  0  0  0
   -0.6067   -3.7603   -1.4682 H   0  0  0  0  0  0  0  0  0  0  0  0
   -0.4942    1.2395   -0.1743 C   0  0  0  0  0  0  0  0  0  0  0  0
    0.5302    1.9123   -0.3002 O   0  0  0  0  0  0  0  0  0  0  0  0
   -1.7223    1.7419   -0.3519 N   0  0  0  0  0  0  0  0  0  0  0  0
   -2.5029    1.1133   -0.2383 H   0  0  0  0  0  0  0  0  0  0  0  0
   -2.0250    3.1346   -0.6954 C   0  0  0  0  0  0  0  0  0  0  0  0
   -2.2492    3.2178   -1.7608 H   0  0  0  0  0  0  0  0  0  0  0  0
   -2.8929    3.4776   -0.1297 H   0  0  0  0  0  0  0  0  0  0  0  0
   -1.1795    3.7856   -0.4630 H   0  0  0  0  0  0  0  0  0  0  0  0
  5  6  2  0  0  0  0
  5  7  1  0  0  0  0
  2  3  1  0  0  0  0
  2  4  1  0  0  0  0
  2  5  1  0  0  0  0
  1  2  1  0  0  0  0
 23 24  2  0  0  0  0
 23 25  1  0  0  0  0
 21 22  1  0  0  0  0
 19 20  1  0  0  0  0
 19 21  1  0  0  0  0
 17 18  1  0  0  0  0
 17 19  1  0  0  0  0
 15 16  1  0  0  0  0
 15 17  2  0  0  0  0
 14 15  1  0  0  0  0
 14 21  2  0  0  0  0
 11 12  1  0  0  0  0
 11 13  1  0  0  0  0
 11 14  1  0  0  0  0
  9 10  1  0  0  0  0
  9 11  1  0  0  0  0
  9 23  1  0  0  0  0
  7  8  1  0  0  0  0
  7  9  1  0  0  0  0
 27 28  1  0  0  0  0
 27 29  1  0  0  0  0
 27 30  1  0  0  0  0
 25 26  1  0  0  0  0
 25 27  1  0  0  0  0
M  CHG  1  15   1
M  END
$$$$
default_name
  -OEChem-01062215323D

 30 30  0     1  0  0  0  0  0999 V2000
   -3.5507   -3.2183    1.8116 H   0  0  0  0  0  0  0  0  0  0  0  0
   -3.4597   -2.3913    1.1076 C   0  0  0  0  0  0  0  0  0  0  0  0
   -4.1577   -1.6043    1.3866 H   0  0  0  0  0  0  0  0  0  0  0  0
   -3.6807   -2.7523    0.1036 H   0  0  0  0  0  0  0  0  0  0  0  0
   -2.0477   -1.8543    1.1546 C   0  0  0  0  0  0  0  0  0  0  0  0
   -1.2227   -2.3443    1.9146 O   0  0  0  0  0  0  0  0  0  0  0  0
   -1.7517   -0.8483    0.3266 N   0  0  0  0  0  0  0  0  0  0  0  0
   -2.4847   -0.5123   -0.2804 H   0  0  0  0  0  0  0  0  0  0  0  0
   -0.4117   -0.2463    0.2186 C   0  0  1  0  0  0  0  0  0  0  0  0
    0.0571   -0.2799    1.2053 H   0  0  0  0  0  0  0  0  0  0  0  0
    0.4467   -1.1205   -0.7248 C   0  0  0  0  0  0  0  0  0  0  0  0
   -0.0532   -1.1804   -1.6949 H   0  0  0  0  0  0  0  0  0  0  0  0
    1.4074   -0.6277   -0.8891 H   0  0  0  0  0  0  0  0  0  0  0  0
    0.7174   -2.5259   -0.2310 C   0  0  0  0  0  0  0  0  0  0  0  0
    1.6088   -2.8630    0.7690 N   0  3  0  0  0  0  0  0  0  0  0  0
    2.1286   -2.1729    1.3188 H   0  0  0  0  0  0  0  0  0  0  0  0
    1.5802   -4.2006    0.9317 C   0  0  0  0  0  0  0  0  0  0  0  0
    2.1675   -4.7591    1.6579 H   0  0  0  0  0  0  0  0  0  0  0  0
    0.6906   -4.7199    0.0557 N   0  0  0  0  0  0  0  0  0  0  0  0
    0.4583   -5.7044   -0.0462 H   0  0  0  0  0  0  0  0  0  0  0  0
    0.1397   -3.6817   -0.6825 C   0  0  0  0  0  0  0  0  0  0  0  0
   -0.6067   -3.7603   -1.4682 H   0  0  0  0  0  0  0  0  0  0  0  0
   -0.4942    1.2395   -0.1743 C   0  0  0  0  0  0  0  0  0  0  0  0
    0.5071    1.8405   -0.5666 O   0  0  0  0  0  0  0  0  0  0  0  0
   -1.6927    1.8230   -0.0512 N   0  0  0  0  0  0  0  0  0  0  0  0
   -2.4588    1.2495    0.2675 H   0  0  0  0  0  0  0  0  0  0  0  0
   -1.9815    3.2312   -0.3393 C   0  0  0  0  0  0  0  0  0  0  0  0
   -2.4595    3.3235   -1.3166 H   0  0  0  0  0  0  0  0  0  0  0  0
   -2.6563    3.6354    0.4172 H   0  0  0  0  0  0  0  0  0  0  0  0
   -1.0647    3.8246   -0.3396 H   0  0  0  0  0  0  0  0  0  0  0  0
  5  6  2  0  0  0  0
  5  7  1  0  0  0  0
  2  3  1  0  0  0  0
  2  4  1  0  0  0  0
  2  5  1  0  0  0  0
  1  2  1  0  0  0  0
 23 24  2  0  0  0  0
 23 25  1  0  0  0  0
 21 22  1  0  0  0  0
 19 20  1  0  0  0  0
 19 21  1  0  0  0  0
 17 18  1  0  0  0  0
 17 19  1  0  0  0  0
 15 16  1  0  0  0  0
 15 17  2  0  0  0  0
 14 15  1  0  0  0  0
 14 21  2  0  0  0  0
 11 12  1  0  0  0  0
 11 13  1  0  0  0  0
 11 14  1  0  0  0  0
  9 10  1  0  0  0  0
  9 11  1  0  0  0  0
  9 23  1  0  0  0  0
  7  8  1  0  0  0  0
  7  9  1  0  0  0  0
 27 28  1  0  0  0  0
 27 29  1  0  0  0  0
 27 30  1  0  0  0  0
 25 26  1  0  0  0  0
 25 27  1  0  0  0  0
M  CHG  1  15   1
M  END
$$$$
default_name
  -OEChem-01062215323D

 30 30  0     1  0  0  0  0  0999 V2000
   -3.5507   -3.2183    1.8116 H   0  0  0  0  0  0  0  0  0  0  0  0
   -3.4597   -2.3913    1.1076 C   0  0  0  0  0  0  0  0  0  0  0  0
   -4.1577   -1.6043    1.3866 H   0  0  0  0  0  0  0  0  0  0  0  0
   -3.6807   -2.7523    0.1036 H   0  0  0  0  0  0  0  0  0  0  0  0
   -2.0477   -1.8543    1.1546 C   0  0  0  0  0  0  0  0  0  0  0  0
   -1.2227   -2.3443    1.9146 O   0  0  0  0  0  0  0  0  0  0  0  0
   -1.7517   -0.8483    0.3266 N   0  0  0  0  0  0  0  0  0  0  0  0
   -2.4847   -0.5123   -0.2804 H   0  0  0  0  0  0  0  0  0  0  0  0
   -0.4117   -0.2463    0.2186 C   0  0  1  0  0  0  0  0  0  0  0  0
    0.0571   -0.2799    1.2053 H   0  0  0  0  0  0  0  0  0  0  0  0
    0.4467   -1.1205   -0.7248 C   0  0  0  0  0  0  0  0  0  0  0  0
   -0.0532   -1.1804   -1.6949 H   0  0  0  0  0  0  0  0  0  0  0  0
    1.4074   -0.6277   -0.8891 H   0  0  0  0  0  0  0  0  0  0  0  0
    0.7174   -2.5259   -0.2310 C   0  0  0  0  0  0  0  0  0  0  0  0
    1.6088   -2.8630    0.7690 N   0  3  0  0  0  0  0  0  0  0  0  0
    2.1286   -2.1729    1.3188 H   0  0  0  0  0  0  0  0  0  0  0  0
    1.5802   -4.2006    0.9317 C   0  0  0  0  0  0  0  0  0  0  0  0
    2.1675   -4.7591    1.6579 H   0  0  0  0  0  0  0  0  0  0  0  0
    0.6906   -4.7199    0.0557 N   0  0  0  0  0  0  0  0  0  0  0  0
    0.4583   -5.7044   -0.0462 H   0  0  0  0  0  0  0  0  0  0  0  0
    0.1397   -3.6817   -0.6825 C   0  0  0  0  0  0  0  0  0  0  0  0
   -0.6067   -3.7603   -1.4682 H   0  0  0  0  0  0  0  0  0  0  0  0
   -0.4942    1.2395   -0.1743 C   0  0  0  0  0  0  0  0  0  0  0  0
    0.4136    1.7690   -0.8172 O   0  0  0  0  0  0  0  0  0  0  0  0
   -1.5836    1.9037    0.2308 N   0  0  0  0  0  0  0  0  0  0  0  0
   -2.2808    1.3852    0.7431 H   0  0  0  0  0  0  0  0  0  0  0  0
   -1.8442    3.3266   -0.0075 C   0  0  0  0  0  0  0  0  0  0  0  0
   -2.5446    3.4458   -0.8365 H   0  0  0  0  0  0  0  0  0  0  0  0
   -2.2807    3.7798    0.8842 H   0  0  0  0  0  0  0  0  0  0  0  0
   -0.9204    3.8564   -0.2496 H   0  0  0  0  0  0  0  0  0  0  0  0
  5  6  2  0  0  0  0
  5  7  1  0  0  0  0
  2  3  1  0  0  0  0
  2  4  1  0  0  0  0
  2  5  1  0  0  0  0
  1  2  1  0  0  0  0
 23 24  2  0  0  0  0
 23 25  1  0  0  0  0
 21 22  1  0  0  0  0
 19 20  1  0  0  0  0
 19 21  1  0  0  0  0
 17 18  1  0  0  0  0
 17 19  1  0  0  0  0
 15 16  1  0  0  0  0
 15 17  2  0  0  0  0
 14 15  1  0  0  0  0
 14 21  2  0  0  0  0
 11 12  1  0  0  0  0
 11 13  1  0  0  0  0
 11 14  1  0  0  0  0
  9 10  1  0  0  0  0
  9 11  1  0  0  0  0
  9 23  1  0  0  0  0
  7  8  1  0  0  0  0
  7  9  1  0  0  0  0
 27 28  1  0  0  0  0
 27 29  1  0  0  0  0
 27 30  1  0  0  0  0
 25 26  1  0  0  0  0
 25 27  1  0  0  0  0
M  CHG  1  15   1
M  END
$$$$
default_name
  -OEChem-01062215323D

 30 30  0     1  0  0  0  0  0999 V2000
   -3.5507   -3.2183    1.8116 H   0  0  0  0  0  0  0  0  0  0  0  0
   -3.4597   -2.3913    1.1076 C   0  0  0  0  0  0  0  0  0  0  0  0
   -4.1577   -1.6043    1.3866 H   0  0  0  0  0  0  0  0  0  0  0  0
   -3.6807   -2.7523    0.1036 H   0  0  0  0  0  0  0  0  0  0  0  0
   -2.0477   -1.8543    1.1546 C   0  0  0  0  0  0  0  0  0  0  0  0
   -1.2227   -2.3443    1.9146 O   0  0  0  0  0  0  0  0  0  0  0  0
   -1.7517   -0.8483    0.3266 N   0  0  0  0  0  0  0  0  0  0  0  0
   -2.4847   -0.5123   -0.2804 H   0  0  0  0  0  0  0  0  0  0  0  0
   -0.4117   -0.2463    0.2186 C   0  0  1  0  0  0  0  0  0  0  0  0
    0.0571   -0.2799    1.2053 H   0  0  0  0  0  0  0  0  0  0  0  0
    0.4467   -1.1205   -0.7248 C   0  0  0  0  0  0  0  0  0  0  0  0
   -0.0532   -1.1804   -1.6949 H   0  0  0  0  0  0  0  0  0  0  0  0
    1.4074   -0.6277   -0.8891 H   0  0  0  0  0  0  0  0  0  0  0  0
    0.7174   -2.5259   -0.2310 C   0  0  0  0  0  0  0  0  0  0  0  0
    1.6088   -2.8630    0.7690 N   0  3  0  0  0  0  0  0  0  0  0  0
    2.1286   -2.1729    1.3188 H   0  0  0  0  0  0  0  0  0  0  0  0
    1.5802   -4.2006    0.9317 C   0  0  0  0  0  0  0  0  0  0  0  0
    2.1675   -4.7591    1.6579 H   0  0  0  0  0  0  0  0  0  0  0  0
    0.6906   -4.7199    0.0557 N   0  0  0  0  0  0  0  0  0  0  0  0
    0.4583   -5.7044   -0.0462 H   0  0  0  0  0  0  0  0  0  0  0  0
    0.1397   -3.6817   -0.6825 C   0  0  0  0  0  0  0  0  0  0  0  0
   -0.6067   -3.7603   -1.4682 H   0  0  0  0  0  0  0  0  0  0  0  0
   -0.4942    1.2395   -0.1743 C   0  0  0  0  0  0  0  0  0  0  0  0
    0.2558    1.7027   -1.0349 O   0  0  0  0  0  0  0  0  0  0  0  0
   -1.4025    1.9783    0.4748 N   0  0  0  0  0  0  0  0  0  0  0  0
   -1.9811    1.5111    1.1562 H   0  0  0  0  0  0  0  0  0  0  0  0
   -1.6223    3.4143    0.2774 C   0  0  0  0  0  0  0  0  0  0  0  0
   -2.4988    3.5762   -0.3532 H   0  0  0  0  0  0  0  0  0  0  0  0
   -1.7916    3.9009    1.2395 H   0  0  0  0  0  0  0  0  0  0  0  0
   -0.7565    3.8788   -0.1992 H   0  0  0  0  0  0  0  0  0  0  0  0
  5  6  2  0  0  0  0
  5  7  1  0  0  0  0
  2  3  1  0  0  0  0
  2  4  1  0  0  0  0
  2  5  1  0  0  0  0
  1  2  1  0  0  0  0
 23 24  2  0  0  0  0
 23 25  1  0  0  0  0
 21 22  1  0  0  0  0
 19 20  1  0  0  0  0
 19 21  1  0  0  0  0
 17 18  1  0  0  0  0
 17 19  1  0  0  0  0
 15 16  1  0  0  0  0
 15 17  2  0  0  0  0
 14 15  1  0  0  0  0
 14 21  2  0  0  0  0
 11 12  1  0  0  0  0
 11 13  1  0  0  0  0
 11 14  1  0  0  0  0
  9 10  1  0  0  0  0
  9 11  1  0  0  0  0
  9 23  1  0  0  0  0
  7  8  1  0  0  0  0
  7  9  1  0  0  0  0
 27 28  1  0  0  0  0
 27 29  1  0  0  0  0
 27 30  1  0  0  0  0
 25 26  1  0  0  0  0
 25 27  1  0  0  0  0
M  CHG  1  15   1
M  END
$$$$
default_name
  -OEChem-01062215323D

 30 30  0     1  0  0  0  0  0999 V2000
   -3.5507   -3.2183    1.8116 H   0  0  0  0  0  0  0  0  0  0  0  0
   -3.4597   -2.3913    1.1076 C   0  0  0  0  0  0  0  0  0  0  0  0
   -4.1577   -1.6043    1.3866 H   0  0  0  0  0  0  0  0  0  0  0  0
   -3.6807   -2.7523    0.1036 H   0  0  0  0  0  0  0  0  0  0  0  0
   -2.0477   -1.8543    1.1546 C   0  0  0  0  0  0  0  0  0  0  0  0
   -1.2227   -2.3443    1.9146 O   0  0  0  0  0  0  0  0  0  0  0  0
   -1.7517   -0.8483    0.3266 N   0  0  0  0  0  0  0  0  0  0  0  0
   -2.4847   -0.5123   -0.2804 H   0  0  0  0  0  0  0  0  0  0  0  0
   -0.4117   -0.2463    0.2186 C   0  0  1  0  0  0  0  0  0  0  0  0
    0.0571   -0.2799    1.2053 H   0  0  0  0  0  0  0  0  0  0  0  0
    0.4467   -1.1205   -0.7248 C   0  0  0  0  0  0  0  0  0  0  0  0
   -0.0532   -1.1804   -1.6949 H   0  0  0  0  0  0  0  0  0  0  0  0
    1.4074   -0.6277   -0.8891 H   0  0  0  0  0  0  0  0  0  0  0  0
    0.7174   -2.5259   -0.2310 C   0  0  0  0  0  0  0  0  0  0  0  0
    1.6088   -2.8630    0.7690 N   0  3  0  0  0  0  0  0  0  0  0  0
    2.1286   -2.1729    1.3188 H   0  0  0  0  0  0  0  0  0  0  0  0
    1.5802   -4.2006    0.9317 C   0  0  0  0  0  0  0  0  0  0  0  0
    2.1675   -4.7591    1.6579 H   0  0  0  0  0  0  0  0  0  0  0  0
    0.6906   -4.7199    0.0557 N   0  0  0  0  0  0  0  0  0  0  0  0
    0.4583   -5.7044   -0.0462 H   0  0  0  0  0  0  0  0  0  0  0  0
    0.1397   -3.6817   -0.6825 C   0  0  0  0  0  0  0  0  0  0  0  0
   -0.6067   -3.7603   -1.4682 H   0  0  0  0  0  0  0  0  0  0  0  0
   -0.4942    1.2395   -0.1743 C   0  0  0  0  0  0  0  0  0  0  0  0
    0.0447    1.6460   -1.2049 O   0  0  0  0  0  0  0  0  0  0  0  0
   -1.1616    2.0417    0.6642 N   0  0  0  0  0  0  0  0  0  0  0  0
   -1.5800    1.6186    1.4786 H   0  0  0  0  0  0  0  0  0  0  0  0
   -1.3310    3.4882    0.4959 C   0  0  0  0  0  0  0  0  0  0  0  0
   -2.3252    3.7058    0.1003 H   0  0  0  0  0  0  0  0  0  0  0  0
   -1.2225    3.9905    1.4587 H   0  0  0  0  0  0  0  0  0  0  0  0
   -0.5841    3.8903   -0.1918 H   0  0  0  0  0  0  0  0  0  0  0  0
  5  6  2  0  0  0  0
  5  7  1  0  0  0  0
  2  3  1  0  0  0  0
  2  4  1  0  0  0  0
  2  5  1  0  0  0  0
  1  2  1  0  0  0  0
 23 24  2  0  0  0  0
 23 25  1  0  0  0  0
 21 22  1  0  0  0  0
 19 20  1  0  0  0  0
 19 21  1  0  0  0  0
 17 18  1  0  0  0  0
 17 19  1  0  0  0  0
 15 16  1  0  0  0  0
 15 17  2  0  0  0  0
 14 15  1  0  0  0  0
 14 21  2  0  0  0  0
 11 12  1  0  0  0  0
 11 13  1  0  0  0  0
 11 14  1  0  0  0  0
  9 10  1  0  0  0  0
  9 11  1  0  0  0  0
  9 23  1  0  0  0  0
  7  8  1  0  0  0  0
  7  9  1  0  0  0  0
 27 28  1  0  0  0  0
 27 29  1  0  0  0  0
 27 30  1  0  0  0  0
 25 26  1  0  0  0  0
 25 27  1  0  0  0  0
M  CHG  1  15   1
M  END
$$$$
default_name
  -OEChem-01062215323D

 30 30  0     1  0  0  0  0  0999 V2000
   -3.5507   -3.2183    1.8116 H   0  0  0  0  0  0  0  0  0  0  0  0
   -3.4597   -2.3913    1.1076 C   0  0  0  0  0  0  0  0  0  0  0  0
   -4.1577   -1.6043    1.3866 H   0  0  0  0  0  0  0  0  0  0  0  0
   -3.6807   -2.7523    0.1036 H   0  0  0  0  0  0  0  0  0  0  0  0
   -2.0477   -1.8543    1.1546 C   0  0  0  0  0  0  0  0  0  0  0  0
   -1.2227   -2.3443    1.9146 O   0  0  0  0  0  0  0  0  0  0  0  0
   -1.7517   -0.8483    0.3266 N   0  0  0  0  0  0  0  0  0  0  0  0
   -2.4847   -0.5123   -0.2804 H   0  0  0  0  0  0  0  0  0  0  0  0
   -0.4117   -0.2463    0.2186 C   0  0  1  0  0  0  0  0  0  0  0  0
    0.0571   -0.2799    1.2053 H   0  0  0  0  0  0  0  0  0  0  0  0
    0.4467   -1.1205   -0.7248 C   0  0  0  0  0  0  0  0  0  0  0  0
   -0.0532   -1.1804   -1.6949 H   0  0  0  0  0  0  0  0  0  0  0  0
    1.4074   -0.6277   -0.8891 H   0  0  0  0  0  0  0  0  0  0  0  0
    0.7174   -2.5259   -0.2310 C   0  0  0  0  0  0  0  0  0  0  0  0
    1.6088   -2.8630    0.7690 N   0  3  0  0  0  0  0  0  0  0  0  0
    2.1286   -2.1729    1.3188 H   0  0  0  0  0  0  0  0  0  0  0  0
    1.5802   -4.2006    0.9317 C   0  0  0  0  0  0  0  0  0  0  0  0
    2.1675   -4.7591    1.6579 H   0  0  0  0  0  0  0  0  0  0  0  0
    0.6906   -4.7199    0.0557 N   0  0  0  0  0  0  0  0  0  0  0  0
    0.4583   -5.7044   -0.0462 H   0  0  0  0  0  0  0  0  0  0  0  0
    0.1397   -3.6817   -0.6825 C   0  0  0  0  0  0  0  0  0  0  0  0
   -0.6067   -3.7603   -1.4682 H   0  0  0  0  0  0  0  0  0  0  0  0
   -0.4942    1.2395   -0.1743 C   0  0  0  0  0  0  0  0  0  0  0  0
   -0.2054    1.6029   -1.3155 O   0  0  0  0  0  0  0  0  0  0  0  0
   -0.8775    2.0898    0.7860 N   0  0  0  0  0  0  0  0  0  0  0  0
   -1.1050    1.7004    1.6883 H   0  0  0  0  0  0  0  0  0  0  0  0
   -0.9902    3.5435    0.6331 C   0  0  0  0  0  0  0  0  0  0  0  0
   -2.0356    3.8258    0.4933 H   0  0  0  0  0  0  0  0  0  0  0  0
   -0.6120    4.0425    1.5270 H   0  0  0  0  0  0  0  0  0  0  0  0
   -0.4149    3.8902   -0.2279 H   0  0  0  0  0  0  0  0  0  0  0  0
  5  6  2  0  0  0  0
  5  7  1  0  0  0  0
  2  3  1  0  0  0  0
  2  4  1  0  0  0  0
  2  5  1  0  0  0  0
  1  2  1  0  0  0  0
 23 24  2  0  0  0  0
 23 25  1  0  0  0  0
 21 22  1  0  0  0  0
 19 20  1  0  0  0  0
 19 21  1  0  0  0  0
 17 18  1  0  0  0  0
 17 19  1  0  0  0  0
 15 16  1  0  0  0  0
 15 17  2  0  0  0  0
 14 15  1  0  0  0  0
 14 21  2  0  0  0  0
 11 12  1  0  0  0  0
 11 13  1  0  0  0  0
 11 14  1  0  0  0  0
  9 10  1  0  0  0  0
  9 11  1  0  0  0  0
  9 23  1  0  0  0  0
  7  8  1  0  0  0  0
  7  9  1  0  0  0  0
 27 28  1  0  0  0  0
 27 29  1  0  0  0  0
 27 30  1  0  0  0  0
 25 26  1  0  0  0  0
 25 27  1  0  0  0  0
M  CHG  1  15   1
M  END
$$$$
default_name
  -OEChem-01062215323D

 30 30  0     1  0  0  0  0  0999 V2000
   -3.5507   -3.2183    1.8116 H   0  0  0  0  0  0  0  0  0  0  0  0
   -3.4597   -2.3913    1.1076 C   0  0  0  0  0  0  0  0  0  0  0  0
   -4.1577   -1.6043    1.3866 H   0  0  0  0  0  0  0  0  0  0  0  0
   -3.6807   -2.7523    0.1036 H   0  0  0  0  0  0  0  0  0  0  0  0
   -2.0477   -1.8543    1.1546 C   0  0  0  0  0  0  0  0  0  0  0  0
   -1.2227   -2.3443    1.9146 O   0  0  0  0  0  0  0  0  0  0  0  0
   -1.7517   -0.8483    0.3266 N   0  0  0  0  0  0  0  0  0  0  0  0
   -2.4847   -0.5123   -0.2804 H   0  0  0  0  0  0  0  0  0  0  0  0
   -0.4117   -0.2463    0.2186 C   0  0  1  0  0  0  0  0  0  0  0  0
    0.0571   -0.2799    1.2053 H   0  0  0  0  0  0  0  0  0  0  0  0
    0.4467   -1.1205   -0.7248 C   0  0  0  0  0  0  0  0  0  0  0  0
   -0.0532   -1.1804   -1.6949 H   0  0  0  0  0  0  0  0  0  0  0  0
    1.4074   -0.6277   -0.8891 H   0  0  0  0  0  0  0  0  0  0  0  0
    0.7174   -2.5259   -0.2310 C   0  0  0  0  0  0  0  0  0  0  0  0
    1.6088   -2.8630    0.7690 N   0  3  0  0  0  0  0  0  0  0  0  0
    2.1286   -2.1729    1.3188 H   0  0  0  0  0  0  0  0  0  0  0  0
    1.5802   -4.2006    0.9317 C   0  0  0  0  0  0  0  0  0  0  0  0
    2.1675   -4.7591    1.6579 H   0  0  0  0  0  0  0  0  0  0  0  0
    0.6906   -4.7199    0.0557 N   0  0  0  0  0  0  0  0  0  0  0  0
    0.4583   -5.7044   -0.0462 H   0  0  0  0  0  0  0  0  0  0  0  0
    0.1397   -3.6817   -0.6825 C   0  0  0  0  0  0  0  0  0  0  0  0
   -0.6067   -3.7603   -1.4682 H   0  0  0  0  0  0  0  0  0  0  0  0
   -0.4942    1.2395   -0.1743 C   0  0  0  0  0  0  0  0  0  0  0  0
   -0.4776    1.5762   -1.3593 O   0  0  0  0  0  0  0  0  0  0  0  0
   -0.5694    2.1190    0.8321 N   0  0  0  0  0  0  0  0  0  0  0  0
   -0.5883    1.7510    1.7710 H   0  0  0  0  0  0  0  0  0  0  0  0
   -0.6231    3.5762    0.6798 C   0  0  0  0  0  0  0  0  0  0  0  0
   -1.6498    3.9280    0.7988 H   0  0  0  0  0  0  0  0  0  0  0  0
   -0.0018    4.0533    1.4398 H   0  0  0  0  0  0  0  0  0  0  0  0
   -0.2605    3.8784   -0.3050 H   0  0  0  0  0  0  0  0  0  0  0  0
  5  6  2  0  0  0  0
  5  7  1  0  0  0  0
  2  3  1  0  0  0  0
  2  4  1  0  0  0  0
  2  5  1  0  0  0  0
  1  2  1  0  0  0  0
 23 24  2  0  0  0  0
 23 25  1  0  0  0  0
 21 22  1  0  0  0  0
 19 20  1  0  0  0  0
 19 21  1  0  0  0  0
 17 18  1  0  0  0  0
 17 19  1  0  0  0  0
 15 16  1  0  0  0  0
 15 17  2  0  0  0  0
 14 15  1  0  0  0  0
 14 21  2  0  0  0  0
 11 12  1  0  0  0  0
 11 13  1  0  0  0  0
 11 14  1  0  0  0  0
  9 10  1  0  0  0  0
  9 11  1  0  0  0  0
  9 23  1  0  0  0  0
  7  8  1  0  0  0  0
  7  9  1  0  0  0  0
 27 28  1  0  0  0  0
 27 29  1  0  0  0  0
 27 30  1  0  0  0  0
 25 26  1  0  0  0  0
 25 27  1  0  0  0  0
M  CHG  1  15   1
M  END
$$$$
default_name
  -OEChem-01062215323D

 30 30  0     1  0  0  0  0  0999 V2000
   -3.5507   -3.2183    1.8116 H   0  0  0  0  0  0  0  0  0  0  0  0
   -3.4597   -2.3913    1.1076 C   0  0  0  0  0  0  0  0  0  0  0  0
   -4.1577   -1.6043    1.3866 H   0  0  0  0  0  0  0  0  0  0  0  0
   -3.6807   -2.7523    0.1036 H   0  0  0  0  0  0  0  0  0  0  0  0
   -2.0477   -1.8543    1.1546 C   0  0  0  0  0  0  0  0  0  0  0  0
   -1.2227   -2.3443    1.9146 O   0  0  0  0  0  0  0  0  0  0  0  0
   -1.7517   -0.8483    0.3266 N   0  0  0  0  0  0  0  0  0  0  0  0
   -2.4847   -0.5123   -0.2804 H   0  0  0  0  0  0  0  0  0  0  0  0
   -0.4117   -0.2463    0.2186 C   0  0  1  0  0  0  0  0  0  0  0  0
    0.0571   -0.2799    1.2053 H   0  0  0  0  0  0  0  0  0  0  0  0
    0.4467   -1.1205   -0.7248 C   0  0  0  0  0  0  0  0  0  0  0  0
   -0.0532   -1.1804   -1.6949 H   0  0  0  0  0  0  0  0  0  0  0  0
    1.4074   -0.6277   -0.8891 H   0  0  0  0  0  0  0  0  0  0  0  0
    0.7174   -2.5259   -0.2310 C   0  0  0  0  0  0  0  0  0  0  0  0
    1.6088   -2.8630    0.7690 N   0  3  0  0  0  0  0  0  0  0  0  0
    2.1286   -2.1729    1.3188 H   0  0  0  0  0  0  0  0  0  0  0  0
    1.5802   -4.2006    0.9317 C   0  0  0  0  0  0  0  0  0  0  0  0
    2.1675   -4.7591    1.6579 H   0  0  0  0  0  0  0  0  0  0  0  0
    0.6906   -4.7199    0.0557 N   0  0  0  0  0  0  0  0  0  0  0  0
    0.4583   -5.7044   -0.0462 H   0  0  0  0  0  0  0  0  0  0  0  0
    0.1397   -3.6817   -0.6825 C   0  0  0  0  0  0  0  0  0  0  0  0
   -0.6067   -3.7603   -1.4682 H   0  0  0  0  0  0  0  0  0  0  0  0
   -0.4942    1.2395   -0.1743 C   0  0  0  0  0  0  0  0  0  0  0  0
   -0.7531    1.5678   -1.3332 O   0  0  0  0  0  0  0  0  0  0  0  0
   -0.2583    2.1276    0.7992 N   0  0  0  0  0  0  0  0  0  0  0  0
   -0.0653    1.7669    1.7211 H   0  0  0  0  0  0  0  0  0  0  0  0
   -0.2546    3.5842    0.6327 C   0  0  0  0  0  0  0  0  0  0  0  0
   -1.1940    4.0055    0.9961 H   0  0  0  0  0  0  0  0  0  0  0  0
    0.5664    4.0222    1.2029 H   0  0  0  0  0  0  0  0  0  0  0  0
   -0.1315    3.8557   -0.4179 H   0  0  0  0  0  0  0  0  0  0  0  0
  5  6  2  0  0  0  0
  5  7  1  0  0  0  0
  2  3  1  0  0  0  0
  2  4  1  0  0  0  0
  2  5  1  0  0  0  0
  1  2  1  0  0  0  0
 23 24  2  0  0  0  0
 23 25  1  0  0  0  0
 21 22  1  0  0  0  0
 19 20  1  0  0  0  0
 19 21  1  0  0  0  0
 17 18  1  0  0  0  0
 17 19  1  0  0  0  0
 15 16  1  0  0  0  0
 15 17  2  0  0  0  0
 14 15  1  0  0  0  0
 14 21  2  0  0  0  0
 11 12  1  0  0  0  0
 11 13  1  0  0  0  0
 11 14  1  0  0  0  0
  9 10  1  0  0  0  0
  9 11  1  0  0  0  0
  9 23  1  0  0  0  0
  7  8  1  0  0  0  0
  7  9  1  0  0  0  0
 27 28  1  0  0  0  0
 27 29  1  0  0  0  0
 27 30  1  0  0  0  0
 25 26  1  0  0  0  0
 25 27  1  0  0  0  0
M  CHG  1  15   1
M  END
$$$$
default_name
  -OEChem-01062215323D

 30 30  0     1  0  0  0  0  0999 V2000
   -3.5507   -3.2183    1.8116 H   0  0  0  0  0  0  0  0  0  0  0  0
   -3.4597   -2.3913    1.1076 C   0  0  0  0  0  0  0  0  0  0  0  0
   -4.1577   -1.6043    1.3866 H   0  0  0  0  0  0  0  0  0  0  0  0
   -3.6807   -2.7523    0.1036 H   0  0  0  0  0  0  0  0  0  0  0  0
   -2.0477   -1.8543    1.1546 C   0  0  0  0  0  0  0  0  0  0  0  0
   -1.2227   -2.3443    1.9146 O   0  0  0  0  0  0  0  0  0  0  0  0
   -1.7517   -0.8483    0.3266 N   0  0  0  0  0  0  0  0  0  0  0  0
   -2.4847   -0.5123   -0.2804 H   0  0  0  0  0  0  0  0  0  0  0  0
   -0.4117   -0.2463    0.2186 C   0  0  1  0  0  0  0  0  0  0  0  0
    0.0571   -0.2799    1.2053 H   0  0  0  0  0  0  0  0  0  0  0  0
    0.4467   -1.1205   -0.7248 C   0  0  0  0  0  0  0  0  0  0  0  0
   -0.0532   -1.1804   -1.6949 H   0  0  0  0  0  0  0  0  0  0  0  0
    1.4074   -0.6277   -0.8891 H   0  0  0  0  0  0  0  0  0  0  0  0
    0.7174   -2.5259   -0.2310 C   0  0  0  0  0  0  0  0  0  0  0  0
    1.6088   -2.8630    0.7690 N   0  3  0  0  0  0  0  0  0  0  0  0
    2.1286   -2.1729    1.3188 H   0  0  0  0  0  0  0  0  0  0  0  0
    1.5802   -4.2006    0.9317 C   0  0  0  0  0  0  0  0  0  0  0  0
    2.1675   -4.7591    1.6579 H   0  0  0  0  0  0  0  0  0  0  0  0
    0.6906   -4.7199    0.0557 N   0  0  0  0  0  0  0  0  0  0  0  0
    0.4583   -5.7044   -0.0462 H   0  0  0  0  0  0  0  0  0  0  0  0
    0.1397   -3.6817   -0.6825 C   0  0  0  0  0  0  0  0  0  0  0  0
   -0.6067   -3.7603   -1.4682 H   0  0  0  0  0  0  0  0  0  0  0  0
   -0.4942    1.2395   -0.1743 C   0  0  0  0  0  0  0  0  0  0  0  0
   -1.0133    1.5782   -1.2390 O   0  0  0  0  0  0  0  0  0  0  0  0
    0.0345    2.1149    0.6896 N   0  0  0  0  0  0  0  0  0  0  0  0
    0.4285    1.7469    1.5420 H   0  0  0  0  0  0  0  0  0  0  0  0
    0.0901    3.5669    0.4950 C   0  0  0  0  0  0  0  0  0  0  0  0
   -0.6994    4.0530    1.0718 H   0  0  0  0  0  0  0  0  0  0  0  0
    1.0541    3.9513    0.8325 H   0  0  0  0  0  0  0  0  0  0  0  0
   -0.0365    3.8237   -0.5589 H   0  0  0  0  0  0  0  0  0  0  0  0
  5  6  2  0  0  0  0
  5  7  1  0  0  0  0
  2  3  1  0  0  0  0
  2  4  1  0  0  0  0
  2  5  1  0  0  0  0
  1  2  1  0  0  0  0
 23 24  2  0  0  0  0
 23 25  1  0  0  0  0
 21 22  1  0  0  0  0
 19 20  1  0  0  0  0
 19 21  1  0  0  0  0
 17 18  1  0  0  0  0
 17 19  1  0  0  0  0
 15 16  1  0  0  0  0
 15 17  2  0  0  0  0
 14 15  1  0  0  0  0
 14 21  2  0  0  0  0
 11 12  1  0  0  0  0
 11 13  1  0  0  0  0
 11 14  1  0  0  0  0
  9 10  1  0  0  0  0
  9 11  1  0  0  0  0
  9 23  1  0  0  0  0
  7  8  1  0  0  0  0
  7  9  1  0  0  0  0
 27 28  1  0  0  0  0
 27 29  1  0  0  0  0
 27 30  1  0  0  0  0
 25 26  1  0  0  0  0
 25 27  1  0  0  0  0
M  CHG  1  15   1
M  END
$$$$
default_name
  -OEChem-01062215323D

 30 30  0     1  0  0  0  0  0999 V2000
   -3.5507   -3.2183    1.8116 H   0  0  0  0  0  0  0  0  0  0  0  0
   -3.4597   -2.3913    1.1076 C   0  0  0  0  0  0  0  0  0  0  0  0
   -4.1577   -1.6043    1.3866 H   0  0  0  0  0  0  0  0  0  0  0  0
   -3.6807   -2.7523    0.1036 H   0  0  0  0  0  0  0  0  0  0  0  0
   -2.0477   -1.8543    1.1546 C   0  0  0  0  0  0  0  0  0  0  0  0
   -1.2227   -2.3443    1.9146 O   0  0  0  0  0  0  0  0  0  0  0  0
   -1.7517   -0.8483    0.3266 N   0  0  0  0  0  0  0  0  0  0  0  0
   -2.4847   -0.5123   -0.2804 H   0  0  0  0  0  0  0  0  0  0  0  0
   -0.4117   -0.2463    0.2186 C   0  0  1  0  0  0  0  0  0  0  0  0
    0.0571   -0.2799    1.2053 H   0  0  0  0  0  0  0  0  0  0  0  0
    0.4467   -1.1205   -0.7248 C   0  0  0  0  0  0  0  0  0  0  0  0
   -0.0532   -1.1804   -1.6949 H   0  0  0  0  0  0  0  0  0  0  0  0
    1.4074   -0.6277   -0.8891 H   0  0  0  0  0  0  0  0  0  0  0  0
    0.7174   -2.5259   -0.2310 C   0  0  0  0  0  0  0  0  0  0  0  0
    1.6088   -2.8630    0.7690 N   0  3  0  0  0  0  0  0  0  0  0  0
    2.1286   -2.1729    1.3188 H   0  0  0  0  0  0  0  0  0  0  0  0
    1.5802   -4.2006    0.9317 C   0  0  0  0  0  0  0  0  0  0  0  0
    2.1675   -4.7591    1.6579 H   0  0  0  0  0  0  0  0  0  0  0  0
    0.6906   -4.7199    0.0557 N   0  0  0  0  0  0  0  0  0  0  0  0
    0.4583   -5.7044   -0.0462 H   0  0  0  0  0  0  0  0  0  0  0  0
    0.1397   -3.6817   -0.6825 C   0  0  0  0  0  0  0  0  0  0  0  0
   -0.6067   -3.7603   -1.4682 H   0  0  0  0  0  0  0  0  0  0  0  0
   -0.4942    1.2395   -0.1743 C   0  0  0  0  0  0  0  0  0  0  0  0
   -1.2404    1.6068   -1.0832 O   0  0  0  0  0  0  0  0  0  0  0  0
    0.2891    2.0817    0.5107 N   0  0  0  0  0  0  0  0  0  0  0  0
    0.8595    1.6926    1.2459 H   0  0  0  0  0  0  0  0  0  0  0  0
    0.3875    3.5256    0.2761 C   0  0  0  0  0  0  0  0  0  0  0  0
   -0.1995    4.0672    1.0206 H   0  0  0  0  0  0  0  0  0  0  0  0
    1.4280    3.8455    0.3539 H   0  0  0  0  0  0  0  0  0  0  0  0
    0.0179    3.7845   -0.7183 H   0  0  0  0  0  0  0  0  0  0  0  0
  5  6  2  0  0  0  0
  5  7  1  0  0  0  0
  2  3  1  0  0  0  0
  2  4  1  0  0  0  0
  2  5  1  0  0  0  0
  1  2  1  0  0  0  0
 23 24  2  0  0  0  0
 23 25  1  0  0  0  0
 21 22  1  0  0  0  0
 19 20  1  0  0  0  0
 19 21  1  0  0  0  0
 17 18  1  0  0  0  0
 17 19  1  0  0  0  0
 15 16  1  0  0  0  0
 15 17  2  0  0  0  0
 14 15  1  0  0  0  0
 14 21  2  0  0  0  0
 11 12  1  0  0  0  0
 11 13  1  0  0  0  0
 11 14  1  0  0  0  0
  9 10  1  0  0  0  0
  9 11  1  0  0  0  0
  9 23  1  0  0  0  0
  7  8  1  0  0  0  0
  7  9  1  0  0  0  0
 27 28  1  0  0  0  0
 27 29  1  0  0  0  0
 27 30  1  0  0  0  0
 25 26  1  0  0  0  0
 25 27  1  0  0  0  0
M  CHG  1  15   1
M  END
$$$$
default_name
  -OEChem-01062215323D

 30 30  0     1  0  0  0  0  0999 V2000
   -3.5507   -3.2183    1.8116 H   0  0  0  0  0  0  0  0  0  0  0  0
   -3.4597   -2.3913    1.1076 C   0  0  0  0  0  0  0  0  0  0  0  0
   -4.1577   -1.6043    1.3866 H   0  0  0  0  0  0  0  0  0  0  0  0
   -3.6807   -2.7523    0.1036 H   0  0  0  0  0  0  0  0  0  0  0  0
   -2.0477   -1.8543    1.1546 C   0  0  0  0  0  0  0  0  0  0  0  0
   -1.2227   -2.3443    1.9146 O   0  0  0  0  0  0  0  0  0  0  0  0
   -1.7517   -0.8483    0.3266 N   0  0  0  0  0  0  0  0  0  0  0  0
   -2.4847   -0.5123   -0.2804 H   0  0  0  0  0  0  0  0  0  0  0  0
   -0.4117   -0.2463    0.2186 C   0  0  1  0  0  0  0  0  0  0  0  0
    0.0571   -0.2799    1.2053 H   0  0  0  0  0  0  0  0  0  0  0  0
    0.4467   -1.1205   -0.7248 C   0  0  0  0  0  0  0  0  0  0  0  0
   -0.0532   -1.1804   -1.6949 H   0  0  0  0  0  0  0  0  0  0  0  0
    1.4074   -0.6277   -0.8891 H   0  0  0  0  0  0  0  0  0  0  0  0
    0.7174   -2.5259   -0.2310 C   0  0  0  0  0  0  0  0  0  0  0  0
    1.6088   -2.8630    0.7690 N   0  3  0  0  0  0  0  0  0  0  0  0
    2.1286   -2.1729    1.3188 H   0  0  0  0  0  0  0  0  0  0  0  0
    1.5802   -4.2006    0.9317 C   0  0  0  0  0  0  0  0  0  0  0  0
    2.1675   -4.7591    1.6579 H   0  0  0  0  0  0  0  0  0  0  0  0
    0.6906   -4.7199    0.0557 N   0  0  0  0  0  0  0  0  0  0  0  0
    0.4583   -5.7044   -0.0462 H   0  0  0  0  0  0  0  0  0  0  0  0
    0.1397   -3.6817   -0.6825 C   0  0  0  0  0  0  0  0  0  0  0  0
   -0.6067   -3.7603   -1.4682 H   0  0  0  0  0  0  0  0  0  0  0  0
   -0.4942    1.2395   -0.1743 C   0  0  0  0  0  0  0  0  0  0  0  0
   -1.4189    1.6516   -0.8763 O   0  0  0  0  0  0  0  0  0  0  0  0
    0.4881    2.0304    0.2748 N   0  0  0  0  0  0  0  0  0  0  0  0
    1.1981    1.6075    0.8530 H   0  0  0  0  0  0  0  0  0  0  0  0
    0.6173    3.4629   -0.0090 C   0  0  0  0  0  0  0  0  0  0  0  0
    0.2714    4.0472    0.8460 H   0  0  0  0  0  0  0  0  0  0  0  0
    1.6625    3.7120   -0.2003 H   0  0  0  0  0  0  0  0  0  0  0  0
    0.0280    3.7409   -0.8854 H   0  0  0  0  0  0  0  0  0  0  0  0
  5  6  2  0  0  0  0
  5  7  1  0  0  0  0
  2  3  1  0  0  0  0
  2  4  1  0  0  0  0
  2  5  1  0  0  0  0
  1  2  1  0  0  0  0
 23 24  2  0  0  0  0
 23 25  1  0  0  0  0
 21 22  1  0  0  0  0
 19 20  1  0  0  0  0
 19 21  1  0  0  0  0
 17 18  1  0  0  0  0
 17 19  1  0  0  0  0
 15 16  1  0  0  0  0
 15 17  2  0  0  0  0
 14 15  1  0  0  0  0
 14 21  2  0  0  0  0
 11 12  1  0  0  0  0
 11 13  1  0  0  0  0
 11 14  1  0  0  0  0
  9 10  1  0  0  0  0
  9 11  1  0  0  0  0
  9 23  1  0  0  0  0
  7  8  1  0  0  0  0
  7  9  1  0  0  0  0
 27 28  1  0  0  0  0
 27 29  1  0  0  0  0
 27 30  1  0  0  0  0
 25 26  1  0  0  0  0
 25 27  1  0  0  0  0
M  CHG  1  15   1
M  END
$$$$
default_name
  -OEChem-01062215323D

 30 30  0     1  0  0  0  0  0999 V2000
   -3.5507   -3.2183    1.8116 H   0  0  0  0  0  0  0  0  0  0  0  0
   -3.4597   -2.3913    1.1076 C   0  0  0  0  0  0  0  0  0  0  0  0
   -4.1577   -1.6043    1.3866 H   0  0  0  0  0  0  0  0  0  0  0  0
   -3.6807   -2.7523    0.1036 H   0  0  0  0  0  0  0  0  0  0  0  0
   -2.0477   -1.8543    1.1546 C   0  0  0  0  0  0  0  0  0  0  0  0
   -1.2227   -2.3443    1.9146 O   0  0  0  0  0  0  0  0  0  0  0  0
   -1.7517   -0.8483    0.3266 N   0  0  0  0  0  0  0  0  0  0  0  0
   -2.4847   -0.5123   -0.2804 H   0  0  0  0  0  0  0  0  0  0  0  0
   -0.4117   -0.2463    0.2186 C   0  0  1  0  0  0  0  0  0  0  0  0
    0.0571   -0.2799    1.2053 H   0  0  0  0  0  0  0  0  0  0  0  0
    0.4467   -1.1205   -0.7248 C   0  0  0  0  0  0  0  0  0  0  0  0
   -0.0532   -1.1804   -1.6949 H   0  0  0  0  0  0  0  0  0  0  0  0
    1.4074   -0.6277   -0.8891 H   0  0  0  0  0  0  0  0  0  0  0  0
    0.7174   -2.5259   -0.2310 C   0  0  0  0  0  0  0  0  0  0  0  0
    1.6088   -2.8630    0.7690 N   0  3  0  0  0  0  0  0  0  0  0  0
    2.1286   -2.1729    1.3188 H   0  0  0  0  0  0  0  0  0  0  0  0
    1.5802   -4.2006    0.9317 C   0  0  0  0  0  0  0  0  0  0  0  0
    2.1675   -4.7591    1.6579 H   0  0  0  0  0  0  0  0  0  0  0  0
    0.6906   -4.7199    0.0557 N   0  0  0  0  0  0  0  0  0  0  0  0
    0.4583   -5.7044   -0.0462 H   0  0  0  0  0  0  0  0  0  0  0  0
    0.1397   -3.6817   -0.6825 C   0  0  0  0  0  0  0  0  0  0  0  0
   -0.6067   -3.7603   -1.4682 H   0  0  0  0  0  0  0  0  0  0  0  0
   -0.4942    1.2395   -0.1743 C   0  0  0  0  0  0  0  0  0  0  0  0
   -1.5367    1.7096   -0.6326 O   0  0  0  0  0  0  0  0  0  0  0  0
    0.6180    1.9644   -0.0021 N   0  0  0  0  0  0  0  0  0  0  0  0
    1.4215    1.4974    0.3900 H   0  0  0  0  0  0  0  0  0  0  0  0
    0.7639    3.3833   -0.3410 C   0  0  0  0  0  0  0  0  0  0  0  0
    0.6814    3.9943    0.5600 H   0  0  0  0  0  0  0  0  0  0  0  0
    1.7417    3.5598   -0.7924 H   0  0  0  0  0  0  0  0  0  0  0  0
   -0.0069    3.6958   -1.0487 H   0  0  0  0  0  0  0  0  0  0  0  0
  5  6  2  0  0  0  0
  5  7  1  0  0  0  0
  2  3  1  0  0  0  0
  2  4  1  0  0  0  0
  2  5  1  0  0  0  0
  1  2  1  0  0  0  0
 23 24  2  0  0  0  0
 23 25  1  0  0  0  0
 21 22  1  0  0  0  0
 19 20  1  0  0  0  0
 19 21  1  0  0  0  0
 17 18  1  0  0  0  0
 17 19  1  0  0  0  0
 15 16  1  0  0  0  0
 15 17  2  0  0  0  0
 14 15  1  0  0  0  0
 14 21  2  0  0  0  0
 11 12  1  0  0  0  0
 11 13  1  0  0  0  0
 11 14  1  0  0  0  0
  9 10  1  0  0  0  0
  9 11  1  0  0  0  0
  9 23  1  0  0  0  0
  7  8  1  0  0  0  0
  7  9  1  0  0  0  0
 27 28  1  0  0  0  0
 27 29  1  0  0  0  0
 27 30  1  0  0  0  0
 25 26  1  0  0  0  0
 25 27  1  0  0  0  0
M  CHG  1  15   1
M  END
$$$$
default_name
  -OEChem-01062215323D

 30 30  0     1  0  0  0  0  0999 V2000
   -3.5507   -3.2183    1.8116 H   0  0  0  0  0  0  0  0  0  0  0  0
   -3.4597   -2.3913    1.1076 C   0  0  0  0  0  0  0  0  0  0  0  0
   -4.1577   -1.6043    1.3866 H   0  0  0  0  0  0  0  0  0  0  0  0
   -3.6807   -2.7523    0.1036 H   0  0  0  0  0  0  0  0  0  0  0  0
   -2.0477   -1.8543    1.1546 C   0  0  0  0  0  0  0  0  0  0  0  0
   -1.2227   -2.3443    1.9146 O   0  0  0  0  0  0  0  0  0  0  0  0
   -1.7517   -0.8483    0.3266 N   0  0  0  0  0  0  0  0  0  0  0  0
   -2.4847   -0.5123   -0.2804 H   0  0  0  0  0  0  0  0  0  0  0  0
   -0.4117   -0.2463    0.2186 C   0  0  1  0  0  0  0  0  0  0  0  0
    0.1554   -0.5152    1.1133 H   0  0  0  0  0  0  0  0  0  0  0  0
    0.3164   -0.8780   -0.9905 C   0  0  0  0  0  0  0  0  0  0  0  0
   -0.2829   -0.7036   -1.8878 H   0  0  0  0  0  0  0  0  0  0  0  0
    1.2700   -0.3664   -1.1375 H   0  0  0  0  0  0  0  0  0  0  0  0
    0.5921   -2.3620   -0.8722 C   0  0  0  0  0  0  0  0  0  0  0  0
    1.5711   -2.9316   -0.0814 N   0  3  0  0  0  0  0  0  0  0  0  0
    2.1666   -2.3944    0.5554 H   0  0  0  0  0  0  0  0  0  0  0  0
    1.5172   -4.2696   -0.2347 C   0  0  0  0  0  0  0  0  0  0  0  0
    2.1585   -4.9876    0.2725 H   0  0  0  0  0  0  0  0  0  0  0  0
    0.5257   -4.5614   -1.1066 N   0  0  0  0  0  0  0  0  0  0  0  0
    0.2531   -5.4924   -1.4108 H   0  0  0  0  0  0  0  0  0  0  0  0
   -0.0656   -3.3746   -1.5169 C   0  0  0  0  0  0  0  0  0  0  0  0
   -0.8914   -3.2605   -2.2138 H   0  0  0  0  0  0  0  0  0  0  0  0
   -0.4874    1.2908    0.1962 C   0  0  0  0  0  0  0  0  0  0  0  0
   -1.5756    1.8655    0.2526 O   0  0  0  0  0  0  0  0  0  0  0  0
    0.6773    1.9437    0.1000 N   0  0  0  0  0  0  0  0  0  0  0  0
    1.5199    1.3900    0.0706 H   0  0  0  0  0  0  0  0  0  0  0  0
    0.8272    3.4004    0.0305 C   0  0  0  0  0  0  0  0  0  0  0  0
    1.1220    3.7939    1.0054 H   0  0  0  0  0  0  0  0  0  0  0  0
    1.5978    3.6613   -0.6970 H   0  0  0  0  0  0  0  0  0  0  0  0
   -0.1094    3.8743   -0.2706 H   0  0  0  0  0  0  0  0  0  0  0  0
  5  6  2  0  0  0  0
  5  7  1  0  0  0  0
  2  3  1  0  0  0  0
  2  4  1  0  0  0  0
  2  5  1  0  0  0  0
  1  2  1  0  0  0  0
 23 24  2  0  0  0  0
 23 25  1  0  0  0  0
 21 22  1  0  0  0  0
 19 20  1  0  0  0  0
 19 21  1  0  0  0  0
 17 18  1  0  0  0  0
 17 19  1  0  0  0  0
 15 16  1  0  0  0  0
 15 17  2  0  0  0  0
 14 15  1  0  0  0  0
 14 21  2  0  0  0  0
 11 12  1  0  0  0  0
 11 13  1  0  0  0  0
 11 14  1  0  0  0  0
  9 10  1  0  0  0  0
  9 11  1  0  0  0  0
  9 23  1  0  0  0  0
  7  8  1  0  0  0  0
  7  9  1  0  0  0  0
 27 28  1  0  0  0  0
 27 29  1  0  0  0  0
 27 30  1  0  0  0  0
 25 26  1  0  0  0  0
 25 27  1  0  0  0  0
M  CHG  1  15   1
M  END
$$$$
default_name
  -OEChem-01062215323D

 30 30  0     1  0  0  0  0  0999 V2000
   -3.5507   -3.2183    1.8116 H   0  0  0  0  0  0  0  0  0  0  0  0
   -3.4597   -2.3913    1.1076 C   0  0  0  0  0  0  0  0  0  0  0  0
   -4.1577   -1.6043    1.3866 H   0  0  0  0  0  0  0  0  0  0  0  0
   -3.6807   -2.7523    0.1036 H   0  0  0  0  0  0  0  0  0  0  0  0
   -2.0477   -1.8543    1.1546 C   0  0  0  0  0  0  0  0  0  0  0  0
   -1.2227   -2.3443    1.9146 O   0  0  0  0  0  0  0  0  0  0  0  0
   -1.7517   -0.8483    0.3266 N   0  0  0  0  0  0  0  0  0  0  0  0
   -2.4847   -0.5123   -0.2804 H   0  0  0  0  0  0  0  0  0  0  0  0
   -0.4117   -0.2463    0.2186 C   0  0  1  0  0  0  0  0  0  0  0  0
    0.1554   -0.5152    1.1133 H   0  0  0  0  0  0  0  0  0  0  0  0
    0.3164   -0.8780   -0.9905 C   0  0  0  0  0  0  0  0  0  0  0  0
   -0.2829   -0.7036   -1.8878 H   0  0  0  0  0  0  0  0  0  0  0  0
    1.2700   -0.3664   -1.1375 H   0  0  0  0  0  0  0  0  0  0  0  0
    0.5921   -2.3620   -0.8722 C   0  0  0  0  0  0  0  0  0  0  0  0
    1.5711   -2.9316   -0.0814 N   0  3  0  0  0  0  0  0  0  0  0  0
    2.1666   -2.3944    0.5554 H   0  0  0  0  0  0  0  0  0  0  0  0
    1.5172   -4.2696   -0.2347 C   0  0  0  0  0  0  0  0  0  0  0  0
    2.1585   -4.9876    0.2725 H   0  0  0  0  0  0  0  0  0  0  0  0
    0.5257   -4.5614   -1.1066 N   0  0  0  0  0  0  0  0  0  0  0  0
    0.2531   -5.4924   -1.4108 H   0  0  0  0  0  0  0  0  0  0  0  0
   -0.0656   -3.3746   -1.5169 C   0  0  0  0  0  0  0  0  0  0  0  0
   -0.8914   -3.2605   -2.2138 H   0  0  0  0  0  0  0  0  0  0  0  0
   -0.4874    1.2908    0.1962 C   0  0  0  0  0  0  0  0  0  0  0  0
   -1.5229    1.8721    0.5243 O   0  0  0  0  0  0  0  0  0  0  0  0
    0.6142    1.9361   -0.2064 N   0  0  0  0  0  0  0  0  0  0  0  0
    1.4194    1.3775   -0.4453 H   0  0  0  0  0  0  0  0  0  0  0  0
    0.7441    3.3910   -0.3315 C   0  0  0  0  0  0  0  0  0  0  0  0
    1.2817    3.7948    0.5288 H   0  0  0  0  0  0  0  0  0  0  0  0
    1.3009    3.6388   -1.2369 H   0  0  0  0  0  0  0  0  0  0  0  0
   -0.2375    3.8663   -0.3865 H   0  0  0  0  0  0  0  0  0  0  0  0
  5  6  2  0  0  0  0
  5  7  1  0  0  0  0
  2  3  1  0  0  0  0
  2  4  1  0  0  0  0
  2  5  1  0  0  0  0
  1  2  1  0  0  0  0
 23 24  2  0  0  0  0
 23 25  1  0  0  0  0
 21 22  1  0  0  0  0
 19 20  1  0  0  0  0
 19 21  1  0  0  0  0
 17 18  1  0  0  0  0
 17 19  1  0  0  0  0
 15 16  1  0  0  0  0
 15 17  2  0  0  0  0
 14 15  1  0  0  0  0
 14 21  2  0  0  0  0
 11 12  1  0  0  0  0
 11 13  1  0  0  0  0
 11 14  1  0  0  0  0
  9 10  1  0  0  0  0
  9 11  1  0  0  0  0
  9 23  1  0  0  0  0
  7  8  1  0  0  0  0
  7  9  1  0  0  0  0
 27 28  1  0  0  0  0
 27 29  1  0  0  0  0
 27 30  1  0  0  0  0
 25 26  1  0  0  0  0
 25 27  1  0  0  0  0
M  CHG  1  15   1
M  END
$$$$
default_name
  -OEChem-01062215323D

 30 30  0     1  0  0  0  0  0999 V2000
   -3.5507   -3.2183    1.8116 H   0  0  0  0  0  0  0  0  0  0  0  0
   -3.4597   -2.3913    1.1076 C   0  0  0  0  0  0  0  0  0  0  0  0
   -4.1577   -1.6043    1.3866 H   0  0  0  0  0  0  0  0  0  0  0  0
   -3.6807   -2.7523    0.1036 H   0  0  0  0  0  0  0  0  0  0  0  0
   -2.0477   -1.8543    1.1546 C   0  0  0  0  0  0  0  0  0  0  0  0
   -1.2227   -2.3443    1.9146 O   0  0  0  0  0  0  0  0  0  0  0  0
   -1.7517   -0.8483    0.3266 N   0  0  0  0  0  0  0  0  0  0  0  0
   -2.4847   -0.5123   -0.2804 H   0  0  0  0  0  0  0  0  0  0  0  0
   -0.4117   -0.2463    0.2186 C   0  0  1  0  0  0  0  0  0  0  0  0
    0.1554   -0.5152    1.1133 H   0  0  0  0  0  0  0  0  0  0  0  0
    0.3164   -0.8780   -0.9905 C   0  0  0  0  0  0  0  0  0  0  0  0
   -0.2829   -0.7036   -1.8878 H   0  0  0  0  0  0  0  0  0  0  0  0
    1.2700   -0.3664   -1.1375 H   0  0  0  0  0  0  0  0  0  0  0  0
    0.5921   -2.3620   -0.8722 C   0  0  0  0  0  0  0  0  0  0  0  0
    1.5711   -2.9316   -0.0814 N   0  3  0  0  0  0  0  0  0  0  0  0
    2.1666   -2.3944    0.5554 H   0  0  0  0  0  0  0  0  0  0  0  0
    1.5172   -4.2696   -0.2347 C   0  0  0  0  0  0  0  0  0  0  0  0
    2.1585   -4.9876    0.2725 H   0  0  0  0  0  0  0  0  0  0  0  0
    0.5257   -4.5614   -1.1066 N   0  0  0  0  0  0  0  0  0  0  0  0
    0.2531   -5.4924   -1.4108 H   0  0  0  0  0  0  0  0  0  0  0  0
   -0.0656   -3.3746   -1.5169 C   0  0  0  0  0  0  0  0  0  0  0  0
   -0.8914   -3.2605   -2.2138 H   0  0  0  0  0  0  0  0  0  0  0  0
   -0.4874    1.2908    0.1962 C   0  0  0  0  0  0  0  0  0  0  0  0
   -1.4016    1.8817    0.7731 O   0  0  0  0  0  0  0  0  0  0  0  0
    0.4741    1.9251   -0.4859 N   0  0  0  0  0  0  0  0  0  0  0  0
    1.1889    1.3593   -0.9174 H   0  0  0  0  0  0  0  0  0  0  0  0
    0.5702    3.3777   -0.6596 C   0  0  0  0  0  0  0  0  0  0  0  0
    1.3128    3.7890    0.0271 H   0  0  0  0  0  0  0  0  0  0  0  0
    0.8746    3.6113   -1.6813 H   0  0  0  0  0  0  0  0  0  0  0  0
   -0.3913    3.8576   -0.4653 H   0  0  0  0  0  0  0  0  0  0  0  0
  5  6  2  0  0  0  0
  5  7  1  0  0  0  0
  2  3  1  0  0  0  0
  2  4  1  0  0  0  0
  2  5  1  0  0  0  0
  1  2  1  0  0  0  0
 23 24  2  0  0  0  0
 23 25  1  0  0  0  0
 21 22  1  0  0  0  0
 19 20  1  0  0  0  0
 19 21  1  0  0  0  0
 17 18  1  0  0  0  0
 17 19  1  0  0  0  0
 15 16  1  0  0  0  0
 15 17  2  0  0  0  0
 14 15  1  0  0  0  0
 14 21  2  0  0  0  0
 11 12  1  0  0  0  0
 11 13  1  0  0  0  0
 11 14  1  0  0  0  0
  9 10  1  0  0  0  0
  9 11  1  0  0  0  0
  9 23  1  0  0  0  0
  7  8  1  0  0  0  0
  7  9  1  0  0  0  0
 27 28  1  0  0  0  0
 27 29  1  0  0  0  0
 27 30  1  0  0  0  0
 25 26  1  0  0  0  0
 25 27  1  0  0  0  0
M  CHG  1  15   1
M  END
$$$$
default_name
  -OEChem-01062215323D

 30 30  0     1  0  0  0  0  0999 V2000
   -3.5507   -3.2183    1.8116 H   0  0  0  0  0  0  0  0  0  0  0  0
   -3.4597   -2.3913    1.1076 C   0  0  0  0  0  0  0  0  0  0  0  0
   -4.1577   -1.6043    1.3866 H   0  0  0  0  0  0  0  0  0  0  0  0
   -3.6807   -2.7523    0.1036 H   0  0  0  0  0  0  0  0  0  0  0  0
   -2.0477   -1.8543    1.1546 C   0  0  0  0  0  0  0  0  0  0  0  0
   -1.2227   -2.3443    1.9146 O   0  0  0  0  0  0  0  0  0  0  0  0
   -1.7517   -0.8483    0.3266 N   0  0  0  0  0  0  0  0  0  0  0  0
   -2.4847   -0.5123   -0.2804 H   0  0  0  0  0  0  0  0  0  0  0  0
   -0.4117   -0.2463    0.2186 C   0  0  1  0  0  0  0  0  0  0  0  0
    0.1554   -0.5152    1.1133 H   0  0  0  0  0  0  0  0  0  0  0  0
    0.3164   -0.8780   -0.9905 C   0  0  0  0  0  0  0  0  0  0  0  0
   -0.2829   -0.7036   -1.8878 H   0  0  0  0  0  0  0  0  0  0  0  0
    1.2700   -0.3664   -1.1375 H   0  0  0  0  0  0  0  0  0  0  0  0
    0.5921   -2.3620   -0.8722 C   0  0  0  0  0  0  0  0  0  0  0  0
    1.5711   -2.9316   -0.0814 N   0  3  0  0  0  0  0  0  0  0  0  0
    2.1666   -2.3944    0.5554 H   0  0  0  0  0  0  0  0  0  0  0  0
    1.5172   -4.2696   -0.2347 C   0  0  0  0  0  0  0  0  0  0  0  0
    2.1585   -4.9876    0.2725 H   0  0  0  0  0  0  0  0  0  0  0  0
    0.5257   -4.5614   -1.1066 N   0  0  0  0  0  0  0  0  0  0  0  0
    0.2531   -5.4924   -1.4108 H   0  0  0  0  0  0  0  0  0  0  0  0
   -0.0656   -3.3746   -1.5169 C   0  0  0  0  0  0  0  0  0  0  0  0
   -0.8914   -3.2605   -2.2138 H   0  0  0  0  0  0  0  0  0  0  0  0
   -0.4874    1.2908    0.1962 C   0  0  0  0  0  0  0  0  0  0  0  0
   -1.2202    1.8936    0.9819 O   0  0  0  0  0  0  0  0  0  0  0  0
    0.2664    1.9115   -0.7195 N   0  0  0  0  0  0  0  0  0  0  0  0
    0.8442    1.3365   -1.3136 H   0  0  0  0  0  0  0  0  0  0  0  0
    0.3174    3.3613   -0.9314 C   0  0  0  0  0  0  0  0  0  0  0  0
    1.2131    3.7770   -0.4654 H   0  0  0  0  0  0  0  0  0  0  0  0
    0.3478    3.5807   -2.0000 H   0  0  0  0  0  0  0  0  0  0  0  0
   -0.5602    3.8487   -0.5015 H   0  0  0  0  0  0  0  0  0  0  0  0
  5  6  2  0  0  0  0
  5  7  1  0  0  0  0
  2  3  1  0  0  0  0
  2  4  1  0  0  0  0
  2  5  1  0  0  0  0
  1  2  1  0  0  0  0
 23 24  2  0  0  0  0
 23 25  1  0  0  0  0
 21 22  1  0  0  0  0
 19 20  1  0  0  0  0
 19 21  1  0  0  0  0
 17 18  1  0  0  0  0
 17 19  1  0  0  0  0
 15 16  1  0  0  0  0
 15 17  2  0  0  0  0
 14 15  1  0  0  0  0
 14 21  2  0  0  0  0
 11 12  1  0  0  0  0
 11 13  1  0  0  0  0
 11 14  1  0  0  0  0
  9 10  1  0  0  0  0
  9 11  1  0  0  0  0
  9 23  1  0  0  0  0
  7  8  1  0  0  0  0
  7  9  1  0  0  0  0
 27 28  1  0  0  0  0
 27 29  1  0  0  0  0
 27 30  1  0  0  0  0
 25 26  1  0  0  0  0
 25 27  1  0  0  0  0
M  CHG  1  15   1
M  END
$$$$
default_name
  -OEChem-01062215323D

 30 30  0     1  0  0  0  0  0999 V2000
   -3.5507   -3.2183    1.8116 H   0  0  0  0  0  0  0  0  0  0  0  0
   -3.4597   -2.3913    1.1076 C   0  0  0  0  0  0  0  0  0  0  0  0
   -4.1577   -1.6043    1.3866 H   0  0  0  0  0  0  0  0  0  0  0  0
   -3.6807   -2.7523    0.1036 H   0  0  0  0  0  0  0  0  0  0  0  0
   -2.0477   -1.8543    1.1546 C   0  0  0  0  0  0  0  0  0  0  0  0
   -1.2227   -2.3443    1.9146 O   0  0  0  0  0  0  0  0  0  0  0  0
   -1.7517   -0.8483    0.3266 N   0  0  0  0  0  0  0  0  0  0  0  0
   -2.4847   -0.5123   -0.2804 H   0  0  0  0  0  0  0  0  0  0  0  0
   -0.4117   -0.2463    0.2186 C   0  0  1  0  0  0  0  0  0  0  0  0
    0.1554   -0.5152    1.1133 H   0  0  0  0  0  0  0  0  0  0  0  0
    0.3164   -0.8780   -0.9905 C   0  0  0  0  0  0  0  0  0  0  0  0
   -0.2829   -0.7036   -1.8878 H   0  0  0  0  0  0  0  0  0  0  0  0
    1.2700   -0.3664   -1.1375 H   0  0  0  0  0  0  0  0  0  0  0  0
    0.5921   -2.3620   -0.8722 C   0  0  0  0  0  0  0  0  0  0  0  0
    1.5711   -2.9316   -0.0814 N   0  3  0  0  0  0  0  0  0  0  0  0
    2.1666   -2.3944    0.5554 H   0  0  0  0  0  0  0  0  0  0  0  0
    1.5172   -4.2696   -0.2347 C   0  0  0  0  0  0  0  0  0  0  0  0
    2.1585   -4.9876    0.2725 H   0  0  0  0  0  0  0  0  0  0  0  0
    0.5257   -4.5614   -1.1066 N   0  0  0  0  0  0  0  0  0  0  0  0
    0.2531   -5.4924   -1.4108 H   0  0  0  0  0  0  0  0  0  0  0  0
   -0.0656   -3.3746   -1.5169 C   0  0  0  0  0  0  0  0  0  0  0  0
   -0.8914   -3.2605   -2.2138 H   0  0  0  0  0  0  0  0  0  0  0  0
   -0.4874    1.2908    0.1962 C   0  0  0  0  0  0  0  0  0  0  0  0
   -0.9909    1.9072    1.1366 O   0  0  0  0  0  0  0  0  0  0  0  0
    0.0053    1.8961   -0.8914 N   0  0  0  0  0  0  0  0  0  0  0  0
    0.4088    1.3108   -1.6069 H   0  0  0  0  0  0  0  0  0  0  0  0
    0.0029    3.3429   -1.1283 C   0  0  0  0  0  0  0  0  0  0  0  0
    0.9895    3.7594   -0.9152 H   0  0  0  0  0  0  0  0  0  0  0  0
   -0.2435    3.5491   -2.1714 H   0  0  0  0  0  0  0  0  0  0  0  0
   -0.7327    3.8404   -0.4928 H   0  0  0  0  0  0  0  0  0  0  0  0
  5  6  2  0  0  0  0
  5  7  1  0  0  0  0
  2  3  1  0  0  0  0
  2  4  1  0  0  0  0
  2  5  1  0  0  0  0
  1  2  1  0  0  0  0
 23 24  2  0  0  0  0
 23 25  1  0  0  0  0
 21 22  1  0  0  0  0
 19 20  1  0  0  0  0
 19 21  1  0  0  0  0
 17 18  1  0  0  0  0
 17 19  1  0  0  0  0
 15 16  1  0  0  0  0
 15 17  2  0  0  0  0
 14 15  1  0  0  0  0
 14 21  2  0  0  0  0
 11 12  1  0  0  0  0
 11 13  1  0  0  0  0
 11 14  1  0  0  0  0
  9 10  1  0  0  0  0
  9 11  1  0  0  0  0
  9 23  1  0  0  0  0
  7  8  1  0  0  0  0
  7  9  1  0  0  0  0
 27 28  1  0  0  0  0
 27 29  1  0  0  0  0
 27 30  1  0  0  0  0
 25 26  1  0  0  0  0
 25 27  1  0  0  0  0
M  CHG  1  15   1
M  END
$$$$
default_name
  -OEChem-01062215323D

 30 30  0     1  0  0  0  0  0999 V2000
   -3.5507   -3.2183    1.8116 H   0  0  0  0  0  0  0  0  0  0  0  0
   -3.4597   -2.3913    1.1076 C   0  0  0  0  0  0  0  0  0  0  0  0
   -4.1577   -1.6043    1.3866 H   0  0  0  0  0  0  0  0  0  0  0  0
   -3.6807   -2.7523    0.1036 H   0  0  0  0  0  0  0  0  0  0  0  0
   -2.0477   -1.8543    1.1546 C   0  0  0  0  0  0  0  0  0  0  0  0
   -1.2227   -2.3443    1.9146 O   0  0  0  0  0  0  0  0  0  0  0  0
   -1.7517   -0.8483    0.3266 N   0  0  0  0  0  0  0  0  0  0  0  0
   -2.4847   -0.5123   -0.2804 H   0  0  0  0  0  0  0  0  0  0  0  0
   -0.4117   -0.2463    0.2186 C   0  0  1  0  0  0  0  0  0  0  0  0
    0.1554   -0.5152    1.1133 H   0  0  0  0  0  0  0  0  0  0  0  0
    0.3164   -0.8780   -0.9905 C   0  0  0  0  0  0  0  0  0  0  0  0
   -0.2829   -0.7036   -1.8878 H   0  0  0  0  0  0  0  0  0  0  0  0
    1.2700   -0.3664   -1.1375 H   0  0  0  0  0  0  0  0  0  0  0  0
    0.5921   -2.3620   -0.8722 C   0  0  0  0  0  0  0  0  0  0  0  0
    1.5711   -2.9316   -0.0814 N   0  3  0  0  0  0  0  0  0  0  0  0
    2.1666   -2.3944    0.5554 H   0  0  0  0  0  0  0  0  0  0  0  0
    1.5172   -4.2696   -0.2347 C   0  0  0  0  0  0  0  0  0  0  0  0
    2.1585   -4.9876    0.2725 H   0  0  0  0  0  0  0  0  0  0  0  0
    0.5257   -4.5614   -1.1066 N   0  0  0  0  0  0  0  0  0  0  0  0
    0.2531   -5.4924   -1.4108 H   0  0  0  0  0  0  0  0  0  0  0  0
   -0.0656   -3.3746   -1.5169 C   0  0  0  0  0  0  0  0  0  0  0  0
   -0.8914   -3.2605   -2.2138 H   0  0  0  0  0  0  0  0  0  0  0  0
   -0.4874    1.2908    0.1962 C   0  0  0  0  0  0  0  0  0  0  0  0
   -0.7294    1.9214    1.2265 O   0  0  0  0  0  0  0  0  0  0  0  0
   -0.2913    1.8801   -0.9897 N   0  0  0  0  0  0  0  0  0  0  0  0
   -0.0878    1.2839   -1.7774 H   0  0  0  0  0  0  0  0  0  0  0  0
   -0.3519    3.3239   -1.2371 C   0  0  0  0  0  0  0  0  0  0  0  0
    0.6571    3.7375   -1.2917 H   0  0  0  0  0  0  0  0  0  0  0  0
   -0.8591    3.5186   -2.1836 H   0  0  0  0  0  0  0  0  0  0  0  0
   -0.8972    3.8330   -0.4396 H   0  0  0  0  0  0  0  0  0  0  0  0
  5  6  2  0  0  0  0
  5  7  1  0  0  0  0
  2  3  1  0  0  0  0
  2  4  1  0  0  0  0
  2  5  1  0  0  0  0
  1  2  1  0  0  0  0
 23 24  2  0  0  0  0
 23 25  1  0  0  0  0
 21 22  1  0  0  0  0
 19 20  1  0  0  0  0
 19 21  1  0  0  0  0
 17 18  1  0  0  0  0
 17 19  1  0  0  0  0
 15 16  1  0  0  0  0
 15 17  2  0  0  0  0
 14 15  1  0  0  0  0
 14 21  2  0  0  0  0
 11 12  1  0  0  0  0
 11 13  1  0  0  0  0
 11 14  1  0  0  0  0
  9 10  1  0  0  0  0
  9 11  1  0  0  0  0
  9 23  1  0  0  0  0
  7  8  1  0  0  0  0
  7  9  1  0  0  0  0
 27 28  1  0  0  0  0
 27 29  1  0  0  0  0
 27 30  1  0  0  0  0
 25 26  1  0  0  0  0
 25 27  1  0  0  0  0
M  CHG  1  15   1
M  END
$$$$
default_name
  -OEChem-01062215323D

 30 30  0     1  0  0  0  0  0999 V2000
   -3.5507   -3.2183    1.8116 H   0  0  0  0  0  0  0  0  0  0  0  0
   -3.4597   -2.3913    1.1076 C   0  0  0  0  0  0  0  0  0  0  0  0
   -4.1577   -1.6043    1.3866 H   0  0  0  0  0  0  0  0  0  0  0  0
   -3.6807   -2.7523    0.1036 H   0  0  0  0  0  0  0  0  0  0  0  0
   -2.0477   -1.8543    1.1546 C   0  0  0  0  0  0  0  0  0  0  0  0
   -1.2227   -2.3443    1.9146 O   0  0  0  0  0  0  0  0  0  0  0  0
   -1.7517   -0.8483    0.3266 N   0  0  0  0  0  0  0  0  0  0  0  0
   -2.4847   -0.5123   -0.2804 H   0  0  0  0  0  0  0  0  0  0  0  0
   -0.4117   -0.2463    0.2186 C   0  0  1  0  0  0  0  0  0  0  0  0
    0.1554   -0.5152    1.1133 H   0  0  0  0  0  0  0  0  0  0  0  0
    0.3164   -0.8780   -0.9905 C   0  0  0  0  0  0  0  0  0  0  0  0
   -0.2829   -0.7036   -1.8878 H   0  0  0  0  0  0  0  0  0  0  0  0
    1.2700   -0.3664   -1.1375 H   0  0  0  0  0  0  0  0  0  0  0  0
    0.5921   -2.3620   -0.8722 C   0  0  0  0  0  0  0  0  0  0  0  0
    1.5711   -2.9316   -0.0814 N   0  3  0  0  0  0  0  0  0  0  0  0
    2.1666   -2.3944    0.5554 H   0  0  0  0  0  0  0  0  0  0  0  0
    1.5172   -4.2696   -0.2347 C   0  0  0  0  0  0  0  0  0  0  0  0
    2.1585   -4.9876    0.2725 H   0  0  0  0  0  0  0  0  0  0  0  0
    0.5257   -4.5614   -1.1066 N   0  0  0  0  0  0  0  0  0  0  0  0
    0.2531   -5.4924   -1.4108 H   0  0  0  0  0  0  0  0  0  0  0  0
   -0.0656   -3.3746   -1.5169 C   0  0  0  0  0  0  0  0  0  0  0  0
   -0.8914   -3.2605   -2.2138 H   0  0  0  0  0  0  0  0  0  0  0  0
   -0.4874    1.2908    0.1962 C   0  0  0  0  0  0  0  0  0  0  0  0
   -0.4536    1.9352    1.2457 O   0  0  0  0  0  0  0  0  0  0  0  0
   -0.6033    1.8645   -1.0077 N   0  0  0  0  0  0  0  0  0  0  0  0
   -0.6115    1.2575   -1.8133 H   0  0  0  0  0  0  0  0  0  0  0  0
   -0.7227    3.3054   -1.2502 C   0  0  0  0  0  0  0  0  0  0  0  0
    0.2387    3.7129   -1.5692 H   0  0  0  0  0  0  0  0  0  0  0  0
   -1.4570    3.4913   -2.0359 H   0  0  0  0  0  0  0  0  0  0  0  0
   -1.0423    3.8273   -0.3457 H   0  0  0  0  0  0  0  0  0  0  0  0
  5  6  2  0  0  0  0
  5  7  1  0  0  0  0
  2  3  1  0  0  0  0
  2  4  1  0  0  0  0
  2  5  1  0  0  0  0
  1  2  1  0  0  0  0
 23 24  2  0  0  0  0
 23 25  1  0  0  0  0
 21 22  1  0  0  0  0
 19 20  1  0  0  0  0
 19 21  1  0  0  0  0
 17 18  1  0  0  0  0
 17 19  1  0  0  0  0
 15 16  1  0  0  0  0
 15 17  2  0  0  0  0
 14 15  1  0  0  0  0
 14 21  2  0  0  0  0
 11 12  1  0  0  0  0
 11 13  1  0  0  0  0
 11 14  1  0  0  0  0
  9 10  1  0  0  0  0
  9 11  1  0  0  0  0
  9 23  1  0  0  0  0
  7  8  1  0  0  0  0
  7  9  1  0  0  0  0
 27 28  1  0  0  0  0
 27 29  1  0  0  0  0
 27 30  1  0  0  0  0
 25 26  1  0  0  0  0
 25 27  1  0  0  0  0
M  CHG  1  15   1
M  END
$$$$
default_name
  -OEChem-01062215323D

 30 30  0     1  0  0  0  0  0999 V2000
   -3.5507   -3.2183    1.8116 H   0  0  0  0  0  0  0  0  0  0  0  0
   -3.4597   -2.3913    1.1076 C   0  0  0  0  0  0  0  0  0  0  0  0
   -4.1577   -1.6043    1.3866 H   0  0  0  0  0  0  0  0  0  0  0  0
   -3.6807   -2.7523    0.1036 H   0  0  0  0  0  0  0  0  0  0  0  0
   -2.0477   -1.8543    1.1546 C   0  0  0  0  0  0  0  0  0  0  0  0
   -1.2227   -2.3443    1.9146 O   0  0  0  0  0  0  0  0  0  0  0  0
   -1.7517   -0.8483    0.3266 N   0  0  0  0  0  0  0  0  0  0  0  0
   -2.4847   -0.5123   -0.2804 H   0  0  0  0  0  0  0  0  0  0  0  0
   -0.4117   -0.2463    0.2186 C   0  0  1  0  0  0  0  0  0  0  0  0
    0.1554   -0.5152    1.1133 H   0  0  0  0  0  0  0  0  0  0  0  0
    0.3164   -0.8780   -0.9905 C   0  0  0  0  0  0  0  0  0  0  0  0
   -0.2829   -0.7036   -1.8878 H   0  0  0  0  0  0  0  0  0  0  0  0
    1.2700   -0.3664   -1.1375 H   0  0  0  0  0  0  0  0  0  0  0  0
    0.5921   -2.3620   -0.8722 C   0  0  0  0  0  0  0  0  0  0  0  0
    1.5711   -2.9316   -0.0814 N   0  3  0  0  0  0  0  0  0  0  0  0
    2.1666   -2.3944    0.5554 H   0  0  0  0  0  0  0  0  0  0  0  0
    1.5172   -4.2696   -0.2347 C   0  0  0  0  0  0  0  0  0  0  0  0
    2.1585   -4.9876    0.2725 H   0  0  0  0  0  0  0  0  0  0  0  0
    0.5257   -4.5614   -1.1066 N   0  0  0  0  0  0  0  0  0  0  0  0
    0.2531   -5.4924   -1.4108 H   0  0  0  0  0  0  0  0  0  0  0  0
   -0.0656   -3.3746   -1.5169 C   0  0  0  0  0  0  0  0  0  0  0  0
   -0.8914   -3.2605   -2.2138 H   0  0  0  0  0  0  0  0  0  0  0  0
   -0.4874    1.2908    0.1962 C   0  0  0  0  0  0  0  0  0  0  0  0
   -0.1821    1.9478    1.1927 O   0  0  0  0  0  0  0  0  0  0  0  0
   -0.9094    1.8503   -0.9443 N   0  0  0  0  0  0  0  0  0  0  0  0
   -1.1269    1.2336   -1.7123 H   0  0  0  0  0  0  0  0  0  0  0  0
   -1.0844    3.2888   -1.1667 C   0  0  0  0  0  0  0  0  0  0  0  0
   -0.2373    3.6871   -1.7287 H   0  0  0  0  0  0  0  0  0  0  0  0
   -1.9964    3.4691   -1.7384 H   0  0  0  0  0  0  0  0  0  0  0  0
   -1.1582    3.8234   -0.2173 H   0  0  0  0  0  0  0  0  0  0  0  0
  5  6  2  0  0  0  0
  5  7  1  0  0  0  0
  2  3  1  0  0  0  0
  2  4  1  0  0  0  0
  2  5  1  0  0  0  0
  1  2  1  0  0  0  0
 23 24  2  0  0  0  0
 23 25  1  0  0  0  0
 21 22  1  0  0  0  0
 19 20  1  0  0  0  0
 19 21  1  0  0  0  0
 17 18  1  0  0  0  0
 17 19  1  0  0  0  0
 15 16  1  0  0  0  0
 15 17  2  0  0  0  0
 14 15  1  0  0  0  0
 14 21  2  0  0  0  0
 11 12  1  0  0  0  0
 11 13  1  0  0  0  0
 11 14  1  0  0  0  0
  9 10  1  0  0  0  0
  9 11  1  0  0  0  0
  9 23  1  0  0  0  0
  7  8  1  0  0  0  0
  7  9  1  0  0  0  0
 27 28  1  0  0  0  0
 27 29  1  0  0  0  0
 27 30  1  0  0  0  0
 25 26  1  0  0  0  0
 25 27  1  0  0  0  0
M  CHG  1  15   1
M  END
$$$$
default_name
  -OEChem-01062215323D

 30 30  0     1  0  0  0  0  0999 V2000
   -3.5507   -3.2183    1.8116 H   0  0  0  0  0  0  0  0  0  0  0  0
   -3.4597   -2.3913    1.1076 C   0  0  0  0  0  0  0  0  0  0  0  0
   -4.1577   -1.6043    1.3866 H   0  0  0  0  0  0  0  0  0  0  0  0
   -3.6807   -2.7523    0.1036 H   0  0  0  0  0  0  0  0  0  0  0  0
   -2.0477   -1.8543    1.1546 C   0  0  0  0  0  0  0  0  0  0  0  0
   -1.2227   -2.3443    1.9146 O   0  0  0  0  0  0  0  0  0  0  0  0
   -1.7517   -0.8483    0.3266 N   0  0  0  0  0  0  0  0  0  0  0  0
   -2.4847   -0.5123   -0.2804 H   0  0  0  0  0  0  0  0  0  0  0  0
   -0.4117   -0.2463    0.2186 C   0  0  1  0  0  0  0  0  0  0  0  0
    0.1554   -0.5152    1.1133 H   0  0  0  0  0  0  0  0  0  0  0  0
    0.3164   -0.8780   -0.9905 C   0  0  0  0  0  0  0  0  0  0  0  0
   -0.2829   -0.7036   -1.8878 H   0  0  0  0  0  0  0  0  0  0  0  0
    1.2700   -0.3664   -1.1375 H   0  0  0  0  0  0  0  0  0  0  0  0
    0.5921   -2.3620   -0.8722 C   0  0  0  0  0  0  0  0  0  0  0  0
    1.5711   -2.9316   -0.0814 N   0  3  0  0  0  0  0  0  0  0  0  0
    2.1666   -2.3944    0.5554 H   0  0  0  0  0  0  0  0  0  0  0  0
    1.5172   -4.2696   -0.2347 C   0  0  0  0  0  0  0  0  0  0  0  0
    2.1585   -4.9876    0.2725 H   0  0  0  0  0  0  0  0  0  0  0  0
    0.5257   -4.5614   -1.1066 N   0  0  0  0  0  0  0  0  0  0  0  0
    0.2531   -5.4924   -1.4108 H   0  0  0  0  0  0  0  0  0  0  0  0
   -0.0656   -3.3746   -1.5169 C   0  0  0  0  0  0  0  0  0  0  0  0
   -0.8914   -3.2605   -2.2138 H   0  0  0  0  0  0  0  0  0  0  0  0
   -0.4874    1.2908    0.1962 C   0  0  0  0  0  0  0  0  0  0  0  0
    0.0665    1.9583    1.0711 O   0  0  0  0  0  0  0  0  0  0  0  0
   -1.1887    1.8386   -0.8038 N   0  0  0  0  0  0  0  0  0  0  0  0
   -1.5986    1.2138   -1.4813 H   0  0  0  0  0  0  0  0  0  0  0  0
   -1.4123    3.2752   -0.9924 C   0  0  0  0  0  0  0  0  0  0  0  0
   -0.7384    3.6620   -1.7595 H   0  0  0  0  0  0  0  0  0  0  0  0
   -2.4407    3.4535   -1.3112 H   0  0  0  0  0  0  0  0  0  0  0  0
   -1.2370    3.8218   -0.0633 H   0  0  0  0  0  0  0  0  0  0  0  0
  5  6  2  0  0  0  0
  5  7  1  0  0  0  0
  2  3  1  0  0  0  0
  2  4  1  0  0  0  0
  2  5  1  0  0  0  0
  1  2  1  0  0  0  0
 23 24  2  0  0  0  0
 23 25  1  0  0  0  0
 21 22  1  0  0  0  0
 19 20  1  0  0  0  0
 19 21  1  0  0  0  0
 17 18  1  0  0  0  0
 17 19  1  0  0  0  0
 15 16  1  0  0  0  0
 15 17  2  0  0  0  0
 14 15  1  0  0  0  0
 14 21  2  0  0  0  0
 11 12  1  0  0  0  0
 11 13  1  0  0  0  0
 11 14  1  0  0  0  0
  9 10  1  0  0  0  0
  9 11  1  0  0  0  0
  9 23  1  0  0  0  0
  7  8  1  0  0  0  0
  7  9  1  0  0  0  0
 27 28  1  0  0  0  0
 27 29  1  0  0  0  0
 27 30  1  0  0  0  0
 25 26  1  0  0  0  0
 25 27  1  0  0  0  0
M  CHG  1  15   1
M  END
$$$$
default_name
  -OEChem-01062215323D

 30 30  0     1  0  0  0  0  0999 V2000
   -3.5507   -3.2183    1.8116 H   0  0  0  0  0  0  0  0  0  0  0  0
   -3.4597   -2.3913    1.1076 C   0  0  0  0  0  0  0  0  0  0  0  0
   -4.1577   -1.6043    1.3866 H   0  0  0  0  0  0  0  0  0  0  0  0
   -3.6807   -2.7523    0.1036 H   0  0  0  0  0  0  0  0  0  0  0  0
   -2.0477   -1.8543    1.1546 C   0  0  0  0  0  0  0  0  0  0  0  0
   -1.2227   -2.3443    1.9146 O   0  0  0  0  0  0  0  0  0  0  0  0
   -1.7517   -0.8483    0.3266 N   0  0  0  0  0  0  0  0  0  0  0  0
   -2.4847   -0.5123   -0.2804 H   0  0  0  0  0  0  0  0  0  0  0  0
   -0.4117   -0.2463    0.2186 C   0  0  1  0  0  0  0  0  0  0  0  0
    0.1554   -0.5152    1.1133 H   0  0  0  0  0  0  0  0  0  0  0  0
    0.3164   -0.8780   -0.9905 C   0  0  0  0  0  0  0  0  0  0  0  0
   -0.2829   -0.7036   -1.8878 H   0  0  0  0  0  0  0  0  0  0  0  0
    1.2700   -0.3664   -1.1375 H   0  0  0  0  0  0  0  0  0  0  0  0
    0.5921   -2.3620   -0.8722 C   0  0  0  0  0  0  0  0  0  0  0  0
    1.5711   -2.9316   -0.0814 N   0  3  0  0  0  0  0  0  0  0  0  0
    2.1666   -2.3944    0.5554 H   0  0  0  0  0  0  0  0  0  0  0  0
    1.5172   -4.2696   -0.2347 C   0  0  0  0  0  0  0  0  0  0  0  0
    2.1585   -4.9876    0.2725 H   0  0  0  0  0  0  0  0  0  0  0  0
    0.5257   -4.5614   -1.1066 N   0  0  0  0  0  0  0  0  0  0  0  0
    0.2531   -5.4924   -1.4108 H   0  0  0  0  0  0  0  0  0  0  0  0
   -0.0656   -3.3746   -1.5169 C   0  0  0  0  0  0  0  0  0  0  0  0
   -0.8914   -3.2605   -2.2138 H   0  0  0  0  0  0  0  0  0  0  0  0
   -0.4874    1.2908    0.1962 C   0  0  0  0  0  0  0  0  0  0  0  0
    0.2752    1.9659    0.8893 O   0  0  0  0  0  0  0  0  0  0  0  0
   -1.4222    1.8301   -0.5957 N   0  0  0  0  0  0  0  0  0  0  0  0
   -1.9946    1.1993   -1.1359 H   0  0  0  0  0  0  0  0  0  0  0  0
   -1.6839    3.2655   -0.7391 C   0  0  0  0  0  0  0  0  0  0  0  0
   -1.2304    3.6392   -1.6593 H   0  0  0  0  0  0  0  0  0  0  0  0
   -2.7594    3.4454   -0.7836 H   0  0  0  0  0  0  0  0  0  0  0  0
   -1.2733    3.8225    0.1058 H   0  0  0  0  0  0  0  0  0  0  0  0
  5  6  2  0  0  0  0
  5  7  1  0  0  0  0
  2  3  1  0  0  0  0
  2  4  1  0  0  0  0
  2  5  1  0  0  0  0
  1  2  1  0  0  0  0
 23 24  2  0  0  0  0
 23 25  1  0  0  0  0
 21 22  1  0  0  0  0
 19 20  1  0  0  0  0
 19 21  1  0  0  0  0
 17 18  1  0  0  0  0
 17 19  1  0  0  0  0
 15 16  1  0  0  0  0
 15 17  2  0  0  0  0
 14 15  1  0  0  0  0
 14 21  2  0  0  0  0
 11 12  1  0  0  0  0
 11 13  1  0  0  0  0
 11 14  1  0  0  0  0
  9 10  1  0  0  0  0
  9 11  1  0  0  0  0
  9 23  1  0  0  0  0
  7  8  1  0  0  0  0
  7  9  1  0  0  0  0
 27 28  1  0  0  0  0
 27 29  1  0  0  0  0
 27 30  1  0  0  0  0
 25 26  1  0  0  0  0
 25 27  1  0  0  0  0
M  CHG  1  15   1
M  END
$$$$
default_name
  -OEChem-01062215323D

 30 30  0     1  0  0  0  0  0999 V2000
   -3.5507   -3.2183    1.8116 H   0  0  0  0  0  0  0  0  0  0  0  0
   -3.4597   -2.3913    1.1076 C   0  0  0  0  0  0  0  0  0  0  0  0
   -4.1577   -1.6043    1.3866 H   0  0  0  0  0  0  0  0  0  0  0  0
   -3.6807   -2.7523    0.1036 H   0  0  0  0  0  0  0  0  0  0  0  0
   -2.0477   -1.8543    1.1546 C   0  0  0  0  0  0  0  0  0  0  0  0
   -1.2227   -2.3443    1.9146 O   0  0  0  0  0  0  0  0  0  0  0  0
   -1.7517   -0.8483    0.3266 N   0  0  0  0  0  0  0  0  0  0  0  0
   -2.4847   -0.5123   -0.2804 H   0  0  0  0  0  0  0  0  0  0  0  0
   -0.4117   -0.2463    0.2186 C   0  0  1  0  0  0  0  0  0  0  0  0
    0.1554   -0.5152    1.1133 H   0  0  0  0  0  0  0  0  0  0  0  0
    0.3164   -0.8780   -0.9905 C   0  0  0  0  0  0  0  0  0  0  0  0
   -0.2829   -0.7036   -1.8878 H   0  0  0  0  0  0  0  0  0  0  0  0
    1.2700   -0.3664   -1.1375 H   0  0  0  0  0  0  0  0  0  0  0  0
    0.5921   -2.3620   -0.8722 C   0  0  0  0  0  0  0  0  0  0  0  0
    1.5711   -2.9316   -0.0814 N   0  3  0  0  0  0  0  0  0  0  0  0
    2.1666   -2.3944    0.5554 H   0  0  0  0  0  0  0  0  0  0  0  0
    1.5172   -4.2696   -0.2347 C   0  0  0  0  0  0  0  0  0  0  0  0
    2.1585   -4.9876    0.2725 H   0  0  0  0  0  0  0  0  0  0  0  0
    0.5257   -4.5614   -1.1066 N   0  0  0  0  0  0  0  0  0  0  0  0
    0.2531   -5.4924   -1.4108 H   0  0  0  0  0  0  0  0  0  0  0  0
   -0.0656   -3.3746   -1.5169 C   0  0  0  0  0  0  0  0  0  0  0  0
   -0.8914   -3.2605   -2.2138 H   0  0  0  0  0  0  0  0  0  0  0  0
   -0.4874    1.2908    0.1962 C   0  0  0  0  0  0  0  0  0  0  0  0
    0.4299    1.9702    0.6597 O   0  0  0  0  0  0  0  0  0  0  0  0
   -1.5940    1.8255   -0.3343 N   0  0  0  0  0  0  0  0  0  0  0  0
   -2.2879    1.1912   -0.6997 H   0  0  0  0  0  0  0  0  0  0  0  0
   -1.8809    3.2604   -0.4241 C   0  0  0  0  0  0  0  0  0  0  0  0
   -1.6799    3.6203   -1.4351 H   0  0  0  0  0  0  0  0  0  0  0  0
   -2.9310    3.4456   -0.1915 H   0  0  0  0  0  0  0  0  0  0  0  0
   -1.2647    3.8254    0.2785 H   0  0  0  0  0  0  0  0  0  0  0  0
  5  6  2  0  0  0  0
  5  7  1  0  0  0  0
  2  3  1  0  0  0  0
  2  4  1  0  0  0  0
  2  5  1  0  0  0  0
  1  2  1  0  0  0  0
 23 24  2  0  0  0  0
 23 25  1  0  0  0  0
 21 22  1  0  0  0  0
 19 20  1  0  0  0  0
 19 21  1  0  0  0  0
 17 18  1  0  0  0  0
 17 19  1  0  0  0  0
 15 16  1  0  0  0  0
 15 17  2  0  0  0  0
 14 15  1  0  0  0  0
 14 21  2  0  0  0  0
 11 12  1  0  0  0  0
 11 13  1  0  0  0  0
 11 14  1  0  0  0  0
  9 10  1  0  0  0  0
  9 11  1  0  0  0  0
  9 23  1  0  0  0  0
  7  8  1  0  0  0  0
  7  9  1  0  0  0  0
 27 28  1  0  0  0  0
 27 29  1  0  0  0  0
 27 30  1  0  0  0  0
 25 26  1  0  0  0  0
 25 27  1  0  0  0  0
M  CHG  1  15   1
M  END
$$$$
default_name
  -OEChem-01062215323D

 30 30  0     1  0  0  0  0  0999 V2000
   -3.5507   -3.2183    1.8116 H   0  0  0  0  0  0  0  0  0  0  0  0
   -3.4597   -2.3913    1.1076 C   0  0  0  0  0  0  0  0  0  0  0  0
   -4.1577   -1.6043    1.3866 H   0  0  0  0  0  0  0  0  0  0  0  0
   -3.6807   -2.7523    0.1036 H   0  0  0  0  0  0  0  0  0  0  0  0
   -2.0477   -1.8543    1.1546 C   0  0  0  0  0  0  0  0  0  0  0  0
   -1.2227   -2.3443    1.9146 O   0  0  0  0  0  0  0  0  0  0  0  0
   -1.7517   -0.8483    0.3266 N   0  0  0  0  0  0  0  0  0  0  0  0
   -2.4847   -0.5123   -0.2804 H   0  0  0  0  0  0  0  0  0  0  0  0
   -0.4117   -0.2463    0.2186 C   0  0  1  0  0  0  0  0  0  0  0  0
    0.1554   -0.5152    1.1133 H   0  0  0  0  0  0  0  0  0  0  0  0
    0.3164   -0.8780   -0.9905 C   0  0  0  0  0  0  0  0  0  0  0  0
   -0.2829   -0.7036   -1.8878 H   0  0  0  0  0  0  0  0  0  0  0  0
    1.2700   -0.3664   -1.1375 H   0  0  0  0  0  0  0  0  0  0  0  0
    0.5921   -2.3620   -0.8722 C   0  0  0  0  0  0  0  0  0  0  0  0
    1.5711   -2.9316   -0.0814 N   0  3  0  0  0  0  0  0  0  0  0  0
    2.1666   -2.3944    0.5554 H   0  0  0  0  0  0  0  0  0  0  0  0
    1.5172   -4.2696   -0.2347 C   0  0  0  0  0  0  0  0  0  0  0  0
    2.1585   -4.9876    0.2725 H   0  0  0  0  0  0  0  0  0  0  0  0
    0.5257   -4.5614   -1.1066 N   0  0  0  0  0  0  0  0  0  0  0  0
    0.2531   -5.4924   -1.4108 H   0  0  0  0  0  0  0  0  0  0  0  0
   -0.0656   -3.3746   -1.5169 C   0  0  0  0  0  0  0  0  0  0  0  0
   -0.8914   -3.2605   -2.2138 H   0  0  0  0  0  0  0  0  0  0  0  0
   -0.4874    1.2908    0.1962 C   0  0  0  0  0  0  0  0  0  0  0  0
    0.5199    1.9708    0.3979 O   0  0  0  0  0  0  0  0  0  0  0  0
   -1.6924    1.8250   -0.0372 N   0  0  0  0  0  0  0  0  0  0  0  0
   -2.4586    1.1901   -0.2025 H   0  0  0  0  0  0  0  0  0  0  0  0
   -1.9898    3.2602   -0.0688 C   0  0  0  0  0  0  0  0  0  0  0  0
   -2.0562    3.6067   -1.1021 H   0  0  0  0  0  0  0  0  0  0  0  0
   -2.9437    3.4540    0.4248 H   0  0  0  0  0  0  0  0  0  0  0  0
   -1.2117    3.8304    0.4431 H   0  0  0  0  0  0  0  0  0  0  0  0
  5  6  2  0  0  0  0
  5  7  1  0  0  0  0
  2  3  1  0  0  0  0
  2  4  1  0  0  0  0
  2  5  1  0  0  0  0
  1  2  1  0  0  0  0
 23 24  2  0  0  0  0
 23 25  1  0  0  0  0
 21 22  1  0  0  0  0
 19 20  1  0  0  0  0
 19 21  1  0  0  0  0
 17 18  1  0  0  0  0
 17 19  1  0  0  0  0
 15 16  1  0  0  0  0
 15 17  2  0  0  0  0
 14 15  1  0  0  0  0
 14 21  2  0  0  0  0
 11 12  1  0  0  0  0
 11 13  1  0  0  0  0
 11 14  1  0  0  0  0
  9 10  1  0  0  0  0
  9 11  1  0  0  0  0
  9 23  1  0  0  0  0
  7  8  1  0  0  0  0
  7  9  1  0  0  0  0
 27 28  1  0  0  0  0
 27 29  1  0  0  0  0
 27 30  1  0  0  0  0
 25 26  1  0  0  0  0
 25 27  1  0  0  0  0
M  CHG  1  15   1
M  END
$$$$
default_name
  -OEChem-01062215323D

 30 30  0     1  0  0  0  0  0999 V2000
   -3.5507   -3.2183    1.8116 H   0  0  0  0  0  0  0  0  0  0  0  0
   -3.4597   -2.3913    1.1076 C   0  0  0  0  0  0  0  0  0  0  0  0
   -4.1577   -1.6043    1.3866 H   0  0  0  0  0  0  0  0  0  0  0  0
   -3.6807   -2.7523    0.1036 H   0  0  0  0  0  0  0  0  0  0  0  0
   -2.0477   -1.8543    1.1546 C   0  0  0  0  0  0  0  0  0  0  0  0
   -1.2227   -2.3443    1.9146 O   0  0  0  0  0  0  0  0  0  0  0  0
   -1.7517   -0.8483    0.3266 N   0  0  0  0  0  0  0  0  0  0  0  0
   -2.4847   -0.5123   -0.2804 H   0  0  0  0  0  0  0  0  0  0  0  0
   -0.4117   -0.2463    0.2186 C   0  0  1  0  0  0  0  0  0  0  0  0
    0.1554   -0.5152    1.1133 H   0  0  0  0  0  0  0  0  0  0  0  0
    0.3164   -0.8780   -0.9905 C   0  0  0  0  0  0  0  0  0  0  0  0
   -0.2829   -0.7036   -1.8878 H   0  0  0  0  0  0  0  0  0  0  0  0
    1.2700   -0.3664   -1.1375 H   0  0  0  0  0  0  0  0  0  0  0  0
    0.5921   -2.3620   -0.8722 C   0  0  0  0  0  0  0  0  0  0  0  0
    1.5711   -2.9316   -0.0814 N   0  3  0  0  0  0  0  0  0  0  0  0
    2.1666   -2.3944    0.5554 H   0  0  0  0  0  0  0  0  0  0  0  0
    1.5172   -4.2696   -0.2347 C   0  0  0  0  0  0  0  0  0  0  0  0
    2.1585   -4.9876    0.2725 H   0  0  0  0  0  0  0  0  0  0  0  0
    0.5257   -4.5614   -1.1066 N   0  0  0  0  0  0  0  0  0  0  0  0
    0.2531   -5.4924   -1.4108 H   0  0  0  0  0  0  0  0  0  0  0  0
   -0.0656   -3.3746   -1.5169 C   0  0  0  0  0  0  0  0  0  0  0  0
   -0.8914   -3.2605   -2.2138 H   0  0  0  0  0  0  0  0  0  0  0  0
   -0.4874    1.2908    0.1962 C   0  0  0  0  0  0  0  0  0  0  0  0
    0.5392    1.9678    0.1217 O   0  0  0  0  0  0  0  0  0  0  0  0
   -1.7107    1.8286    0.2751 N   0  0  0  0  0  0  0  0  0  0  0  0
   -2.4949    1.1959    0.3218 H   0  0  0  0  0  0  0  0  0  0  0  0
   -2.0031    3.2650    0.3024 C   0  0  0  0  0  0  0  0  0  0  0  0
   -2.3337    3.5991   -0.6830 H   0  0  0  0  0  0  0  0  0  0  0  0
   -2.7966    3.4699    1.0232 H   0  0  0  0  0  0  0  0  0  0  0  0
   -1.1179    3.8371    0.5883 H   0  0  0  0  0  0  0  0  0  0  0  0
  5  6  2  0  0  0  0
  5  7  1  0  0  0  0
  2  3  1  0  0  0  0
  2  4  1  0  0  0  0
  2  5  1  0  0  0  0
  1  2  1  0  0  0  0
 23 24  2  0  0  0  0
 23 25  1  0  0  0  0
 21 22  1  0  0  0  0
 19 20  1  0  0  0  0
 19 21  1  0  0  0  0
 17 18  1  0  0  0  0
 17 19  1  0  0  0  0
 15 16  1  0  0  0  0
 15 17  2  0  0  0  0
 14 15  1  0  0  0  0
 14 21  2  0  0  0  0
 11 12  1  0  0  0  0
 11 13  1  0  0  0  0
 11 14  1  0  0  0  0
  9 10  1  0  0  0  0
  9 11  1  0  0  0  0
  9 23  1  0  0  0  0
  7  8  1  0  0  0  0
  7  9  1  0  0  0  0
 27 28  1  0  0  0  0
 27 29  1  0  0  0  0
 27 30  1  0  0  0  0
 25 26  1  0  0  0  0
 25 27  1  0  0  0  0
M  CHG  1  15   1
M  END
$$$$
default_name
  -OEChem-01062215323D

 30 30  0     1  0  0  0  0  0999 V2000
   -3.5507   -3.2183    1.8116 H   0  0  0  0  0  0  0  0  0  0  0  0
   -3.4597   -2.3913    1.1076 C   0  0  0  0  0  0  0  0  0  0  0  0
   -4.1577   -1.6043    1.3866 H   0  0  0  0  0  0  0  0  0  0  0  0
   -3.6807   -2.7523    0.1036 H   0  0  0  0  0  0  0  0  0  0  0  0
   -2.0477   -1.8543    1.1546 C   0  0  0  0  0  0  0  0  0  0  0  0
   -1.2227   -2.3443    1.9146 O   0  0  0  0  0  0  0  0  0  0  0  0
   -1.7517   -0.8483    0.3266 N   0  0  0  0  0  0  0  0  0  0  0  0
   -2.4847   -0.5123   -0.2804 H   0  0  0  0  0  0  0  0  0  0  0  0
   -0.4117   -0.2463    0.2186 C   0  0  1  0  0  0  0  0  0  0  0  0
    0.1554   -0.5152    1.1133 H   0  0  0  0  0  0  0  0  0  0  0  0
    0.3164   -0.8780   -0.9905 C   0  0  0  0  0  0  0  0  0  0  0  0
   -0.2829   -0.7036   -1.8878 H   0  0  0  0  0  0  0  0  0  0  0  0
    1.2700   -0.3664   -1.1375 H   0  0  0  0  0  0  0  0  0  0  0  0
    0.5921   -2.3620   -0.8722 C   0  0  0  0  0  0  0  0  0  0  0  0
    1.5711   -2.9316   -0.0814 N   0  3  0  0  0  0  0  0  0  0  0  0
    2.1666   -2.3944    0.5554 H   0  0  0  0  0  0  0  0  0  0  0  0
    1.5172   -4.2696   -0.2347 C   0  0  0  0  0  0  0  0  0  0  0  0
    2.1585   -4.9876    0.2725 H   0  0  0  0  0  0  0  0  0  0  0  0
    0.5257   -4.5614   -1.1066 N   0  0  0  0  0  0  0  0  0  0  0  0
    0.2531   -5.4924   -1.4108 H   0  0  0  0  0  0  0  0  0  0  0  0
   -0.0656   -3.3746   -1.5169 C   0  0  0  0  0  0  0  0  0  0  0  0
   -0.8914   -3.2605   -2.2138 H   0  0  0  0  0  0  0  0  0  0  0  0
   -0.4874    1.2908    0.1962 C   0  0  0  0  0  0  0  0  0  0  0  0
    0.4865    1.9612   -0.1501 O   0  0  0  0  0  0  0  0  0  0  0  0
   -1.6476    1.8362    0.5815 N   0  0  0  0  0  0  0  0  0  0  0  0
   -2.3943    1.2084    0.8377 H   0  0  0  0  0  0  0  0  0  0  0  0
   -1.9200    3.2744    0.6645 C   0  0  0  0  0  0  0  0  0  0  0  0
   -2.4934    3.5982   -0.2064 H   0  0  0  0  0  0  0  0  0  0  0  0
   -2.4997    3.4924    1.5630 H   0  0  0  0  0  0  0  0  0  0  0  0
   -0.9898    3.8451    0.7042 H   0  0  0  0  0  0  0  0  0  0  0  0
  5  6  2  0  0  0  0
  5  7  1  0  0  0  0
  2  3  1  0  0  0  0
  2  4  1  0  0  0  0
  2  5  1  0  0  0  0
  1  2  1  0  0  0  0
 23 24  2  0  0  0  0
 23 25  1  0  0  0  0
 21 22  1  0  0  0  0
 19 20  1  0  0  0  0
 19 21  1  0  0  0  0
 17 18  1  0  0  0  0
 17 19  1  0  0  0  0
 15 16  1  0  0  0  0
 15 17  2  0  0  0  0
 14 15  1  0  0  0  0
 14 21  2  0  0  0  0
 11 12  1  0  0  0  0
 11 13  1  0  0  0  0
 11 14  1  0  0  0  0
  9 10  1  0  0  0  0
  9 11  1  0  0  0  0
  9 23  1  0  0  0  0
  7  8  1  0  0  0  0
  7  9  1  0  0  0  0
 27 28  1  0  0  0  0
 27 29  1  0  0  0  0
 27 30  1  0  0  0  0
 25 26  1  0  0  0  0
 25 27  1  0  0  0  0
M  CHG  1  15   1
M  END
$$$$
default_name
  -OEChem-01062215323D

 30 30  0     1  0  0  0  0  0999 V2000
   -3.5507   -3.2183    1.8116 H   0  0  0  0  0  0  0  0  0  0  0  0
   -3.4597   -2.3913    1.1076 C   0  0  0  0  0  0  0  0  0  0  0  0
   -4.1577   -1.6043    1.3866 H   0  0  0  0  0  0  0  0  0  0  0  0
   -3.6807   -2.7523    0.1036 H   0  0  0  0  0  0  0  0  0  0  0  0
   -2.0477   -1.8543    1.1546 C   0  0  0  0  0  0  0  0  0  0  0  0
   -1.2227   -2.3443    1.9146 O   0  0  0  0  0  0  0  0  0  0  0  0
   -1.7517   -0.8483    0.3266 N   0  0  0  0  0  0  0  0  0  0  0  0
   -2.4847   -0.5123   -0.2804 H   0  0  0  0  0  0  0  0  0  0  0  0
   -0.4117   -0.2463    0.2186 C   0  0  1  0  0  0  0  0  0  0  0  0
    0.1554   -0.5152    1.1133 H   0  0  0  0  0  0  0  0  0  0  0  0
    0.3164   -0.8780   -0.9905 C   0  0  0  0  0  0  0  0  0  0  0  0
   -0.2829   -0.7036   -1.8878 H   0  0  0  0  0  0  0  0  0  0  0  0
    1.2700   -0.3664   -1.1375 H   0  0  0  0  0  0  0  0  0  0  0  0
    0.5921   -2.3620   -0.8722 C   0  0  0  0  0  0  0  0  0  0  0  0
    1.5711   -2.9316   -0.0814 N   0  3  0  0  0  0  0  0  0  0  0  0
    2.1666   -2.3944    0.5554 H   0  0  0  0  0  0  0  0  0  0  0  0
    1.5172   -4.2696   -0.2347 C   0  0  0  0  0  0  0  0  0  0  0  0
    2.1585   -4.9876    0.2725 H   0  0  0  0  0  0  0  0  0  0  0  0
    0.5257   -4.5614   -1.1066 N   0  0  0  0  0  0  0  0  0  0  0  0
    0.2531   -5.4924   -1.4108 H   0  0  0  0  0  0  0  0  0  0  0  0
   -0.0656   -3.3746   -1.5169 C   0  0  0  0  0  0  0  0  0  0  0  0
   -0.8914   -3.2605   -2.2138 H   0  0  0  0  0  0  0  0  0  0  0  0
   -0.4874    1.2908    0.1962 C   0  0  0  0  0  0  0  0  0  0  0  0
    0.3653    1.9516   -0.3988 O   0  0  0  0  0  0  0  0  0  0  0  0
   -1.5074    1.8472    0.8610 N   0  0  0  0  0  0  0  0  0  0  0  0
   -2.1639    1.2266    1.3098 H   0  0  0  0  0  0  0  0  0  0  0  0
   -1.7461    3.2877    0.9925 C   0  0  0  0  0  0  0  0  0  0  0  0
   -2.5245    3.6040    0.2952 H   0  0  0  0  0  0  0  0  0  0  0  0
   -2.0734    3.5199    2.0075 H   0  0  0  0  0  0  0  0  0  0  0  0
   -0.8361    3.8539    0.7830 H   0  0  0  0  0  0  0  0  0  0  0  0
  5  6  2  0  0  0  0
  5  7  1  0  0  0  0
  2  3  1  0  0  0  0
  2  4  1  0  0  0  0
  2  5  1  0  0  0  0
  1  2  1  0  0  0  0
 23 24  2  0  0  0  0
 23 25  1  0  0  0  0
 21 22  1  0  0  0  0
 19 20  1  0  0  0  0
 19 21  1  0  0  0  0
 17 18  1  0  0  0  0
 17 19  1  0  0  0  0
 15 16  1  0  0  0  0
 15 17  2  0  0  0  0
 14 15  1  0  0  0  0
 14 21  2  0  0  0  0
 11 12  1  0  0  0  0
 11 13  1  0  0  0  0
 11 14  1  0  0  0  0
  9 10  1  0  0  0  0
  9 11  1  0  0  0  0
  9 23  1  0  0  0  0
  7  8  1  0  0  0  0
  7  9  1  0  0  0  0
 27 28  1  0  0  0  0
 27 29  1  0  0  0  0
 27 30  1  0  0  0  0
 25 26  1  0  0  0  0
 25 27  1  0  0  0  0
M  CHG  1  15   1
M  END
$$$$
default_name
  -OEChem-01062215323D

 30 30  0     1  0  0  0  0  0999 V2000
   -3.5507   -3.2183    1.8116 H   0  0  0  0  0  0  0  0  0  0  0  0
   -3.4597   -2.3913    1.1076 C   0  0  0  0  0  0  0  0  0  0  0  0
   -4.1577   -1.6043    1.3866 H   0  0  0  0  0  0  0  0  0  0  0  0
   -3.6807   -2.7523    0.1036 H   0  0  0  0  0  0  0  0  0  0  0  0
   -2.0477   -1.8543    1.1546 C   0  0  0  0  0  0  0  0  0  0  0  0
   -1.2227   -2.3443    1.9146 O   0  0  0  0  0  0  0  0  0  0  0  0
   -1.7517   -0.8483    0.3266 N   0  0  0  0  0  0  0  0  0  0  0  0
   -2.4847   -0.5123   -0.2804 H   0  0  0  0  0  0  0  0  0  0  0  0
   -0.4117   -0.2463    0.2186 C   0  0  1  0  0  0  0  0  0  0  0  0
    0.1554   -0.5152    1.1133 H   0  0  0  0  0  0  0  0  0  0  0  0
    0.3164   -0.8780   -0.9905 C   0  0  0  0  0  0  0  0  0  0  0  0
   -0.2829   -0.7036   -1.8878 H   0  0  0  0  0  0  0  0  0  0  0  0
    1.2700   -0.3664   -1.1375 H   0  0  0  0  0  0  0  0  0  0  0  0
    0.5921   -2.3620   -0.8722 C   0  0  0  0  0  0  0  0  0  0  0  0
    1.5711   -2.9316   -0.0814 N   0  3  0  0  0  0  0  0  0  0  0  0
    2.1666   -2.3944    0.5554 H   0  0  0  0  0  0  0  0  0  0  0  0
    1.5172   -4.2696   -0.2347 C   0  0  0  0  0  0  0  0  0  0  0  0
    2.1585   -4.9876    0.2725 H   0  0  0  0  0  0  0  0  0  0  0  0
    0.5257   -4.5614   -1.1066 N   0  0  0  0  0  0  0  0  0  0  0  0
    0.2531   -5.4924   -1.4108 H   0  0  0  0  0  0  0  0  0  0  0  0
   -0.0656   -3.3746   -1.5169 C   0  0  0  0  0  0  0  0  0  0  0  0
   -0.8914   -3.2605   -2.2138 H   0  0  0  0  0  0  0  0  0  0  0  0
   -0.4874    1.2908    0.1962 C   0  0  0  0  0  0  0  0  0  0  0  0
    0.1838    1.9396   -0.6077 O   0  0  0  0  0  0  0  0  0  0  0  0
   -1.2998    1.8608    1.0947 N   0  0  0  0  0  0  0  0  0  0  0  0
   -1.8192    1.2494    1.7060 H   0  0  0  0  0  0  0  0  0  0  0  0
   -1.4933    3.3041    1.2643 C   0  0  0  0  0  0  0  0  0  0  0  0
   -2.4248    3.6161    0.7878 H   0  0  0  0  0  0  0  0  0  0  0  0
   -1.5466    3.5505    2.3262 H   0  0  0  0  0  0  0  0  0  0  0  0
   -0.6672    3.8627    0.8193 H   0  0  0  0  0  0  0  0  0  0  0  0
  5  6  2  0  0  0  0
  5  7  1  0  0  0  0
  2  3  1  0  0  0  0
  2  4  1  0  0  0  0
  2  5  1  0  0  0  0
  1  2  1  0  0  0  0
 23 24  2  0  0  0  0
 23 25  1  0  0  0  0
 21 22  1  0  0  0  0
 19 20  1  0  0  0  0
 19 21  1  0  0  0  0
 17 18  1  0  0  0  0
 17 19  1  0  0  0  0
 15 16  1  0  0  0  0
 15 17  2  0  0  0  0
 14 15  1  0  0  0  0
 14 21  2  0  0  0  0
 11 12  1  0  0  0  0
 11 13  1  0  0  0  0
 11 14  1  0  0  0  0
  9 10  1  0  0  0  0
  9 11  1  0  0  0  0
  9 23  1  0  0  0  0
  7  8  1  0  0  0  0
  7  9  1  0  0  0  0
 27 28  1  0  0  0  0
 27 29  1  0  0  0  0
 27 30  1  0  0  0  0
 25 26  1  0  0  0  0
 25 27  1  0  0  0  0
M  CHG  1  15   1
M  END
$$$$
default_name
  -OEChem-01062215323D

 30 30  0     1  0  0  0  0  0999 V2000
   -3.5507   -3.2183    1.8116 H   0  0  0  0  0  0  0  0  0  0  0  0
   -3.4597   -2.3913    1.1076 C   0  0  0  0  0  0  0  0  0  0  0  0
   -4.1577   -1.6043    1.3866 H   0  0  0  0  0  0  0  0  0  0  0  0
   -3.6807   -2.7523    0.1036 H   0  0  0  0  0  0  0  0  0  0  0  0
   -2.0477   -1.8543    1.1546 C   0  0  0  0  0  0  0  0  0  0  0  0
   -1.2227   -2.3443    1.9146 O   0  0  0  0  0  0  0  0  0  0  0  0
   -1.7517   -0.8483    0.3266 N   0  0  0  0  0  0  0  0  0  0  0  0
   -2.4847   -0.5123   -0.2804 H   0  0  0  0  0  0  0  0  0  0  0  0
   -0.4117   -0.2463    0.2186 C   0  0  1  0  0  0  0  0  0  0  0  0
    0.1554   -0.5152    1.1133 H   0  0  0  0  0  0  0  0  0  0  0  0
    0.3164   -0.8780   -0.9905 C   0  0  0  0  0  0  0  0  0  0  0  0
   -0.2829   -0.7036   -1.8878 H   0  0  0  0  0  0  0  0  0  0  0  0
    1.2700   -0.3664   -1.1375 H   0  0  0  0  0  0  0  0  0  0  0  0
    0.5921   -2.3620   -0.8722 C   0  0  0  0  0  0  0  0  0  0  0  0
    1.5711   -2.9316   -0.0814 N   0  3  0  0  0  0  0  0  0  0  0  0
    2.1666   -2.3944    0.5554 H   0  0  0  0  0  0  0  0  0  0  0  0
    1.5172   -4.2696   -0.2347 C   0  0  0  0  0  0  0  0  0  0  0  0
    2.1585   -4.9876    0.2725 H   0  0  0  0  0  0  0  0  0  0  0  0
    0.5257   -4.5614   -1.1066 N   0  0  0  0  0  0  0  0  0  0  0  0
    0.2531   -5.4924   -1.4108 H   0  0  0  0  0  0  0  0  0  0  0  0
   -0.0656   -3.3746   -1.5169 C   0  0  0  0  0  0  0  0  0  0  0  0
   -0.8914   -3.2605   -2.2138 H   0  0  0  0  0  0  0  0  0  0  0  0
   -0.4874    1.2908    0.1962 C   0  0  0  0  0  0  0  0  0  0  0  0
   -0.0454    1.9261   -0.7623 O   0  0  0  0  0  0  0  0  0  0  0  0
   -1.0387    1.8762    1.2665 N   0  0  0  0  0  0  0  0  0  0  0  0
   -1.3837    1.2751    1.9993 H   0  0  0  0  0  0  0  0  0  0  0  0
   -1.1788    3.3225    1.4613 C   0  0  0  0  0  0  0  0  0  0  0  0
   -2.2011    3.6336    1.2376 H   0  0  0  0  0  0  0  0  0  0  0  0
   -0.9553    3.5821    2.4975 H   0  0  0  0  0  0  0  0  0  0  0  0
   -0.4946    3.8711    0.8105 H   0  0  0  0  0  0  0  0  0  0  0  0
  5  6  2  0  0  0  0
  5  7  1  0  0  0  0
  2  3  1  0  0  0  0
  2  4  1  0  0  0  0
  2  5  1  0  0  0  0
  1  2  1  0  0  0  0
 23 24  2  0  0  0  0
 23 25  1  0  0  0  0
 21 22  1  0  0  0  0
 19 20  1  0  0  0  0
 19 21  1  0  0  0  0
 17 18  1  0  0  0  0
 17 19  1  0  0  0  0
 15 16  1  0  0  0  0
 15 17  2  0  0  0  0
 14 15  1  0  0  0  0
 14 21  2  0  0  0  0
 11 12  1  0  0  0  0
 11 13  1  0  0  0  0
 11 14  1  0  0  0  0
  9 10  1  0  0  0  0
  9 11  1  0  0  0  0
  9 23  1  0  0  0  0
  7  8  1  0  0  0  0
  7  9  1  0  0  0  0
 27 28  1  0  0  0  0
 27 29  1  0  0  0  0
 27 30  1  0  0  0  0
 25 26  1  0  0  0  0
 25 27  1  0  0  0  0
M  CHG  1  15   1
M  END
$$$$
default_name
  -OEChem-01062215323D

 30 30  0     1  0  0  0  0  0999 V2000
   -3.5507   -3.2183    1.8116 H   0  0  0  0  0  0  0  0  0  0  0  0
   -3.4597   -2.3913    1.1076 C   0  0  0  0  0  0  0  0  0  0  0  0
   -4.1577   -1.6043    1.3866 H   0  0  0  0  0  0  0  0  0  0  0  0
   -3.6807   -2.7523    0.1036 H   0  0  0  0  0  0  0  0  0  0  0  0
   -2.0477   -1.8543    1.1546 C   0  0  0  0  0  0  0  0  0  0  0  0
   -1.2227   -2.3443    1.9146 O   0  0  0  0  0  0  0  0  0  0  0  0
   -1.7517   -0.8483    0.3266 N   0  0  0  0  0  0  0  0  0  0  0  0
   -2.4847   -0.5123   -0.2804 H   0  0  0  0  0  0  0  0  0  0  0  0
   -0.4117   -0.2463    0.2186 C   0  0  1  0  0  0  0  0  0  0  0  0
    0.1554   -0.5152    1.1133 H   0  0  0  0  0  0  0  0  0  0  0  0
    0.3164   -0.8780   -0.9905 C   0  0  0  0  0  0  0  0  0  0  0  0
   -0.2829   -0.7036   -1.8878 H   0  0  0  0  0  0  0  0  0  0  0  0
    1.2700   -0.3664   -1.1375 H   0  0  0  0  0  0  0  0  0  0  0  0
    0.5921   -2.3620   -0.8722 C   0  0  0  0  0  0  0  0  0  0  0  0
    1.5711   -2.9316   -0.0814 N   0  3  0  0  0  0  0  0  0  0  0  0
    2.1666   -2.3944    0.5554 H   0  0  0  0  0  0  0  0  0  0  0  0
    1.5172   -4.2696   -0.2347 C   0  0  0  0  0  0  0  0  0  0  0  0
    2.1585   -4.9876    0.2725 H   0  0  0  0  0  0  0  0  0  0  0  0
    0.5257   -4.5614   -1.1066 N   0  0  0  0  0  0  0  0  0  0  0  0
    0.2531   -5.4924   -1.4108 H   0  0  0  0  0  0  0  0  0  0  0  0
   -0.0656   -3.3746   -1.5169 C   0  0  0  0  0  0  0  0  0  0  0  0
   -0.8914   -3.2605   -2.2138 H   0  0  0  0  0  0  0  0  0  0  0  0
   -0.4874    1.2908    0.1962 C   0  0  0  0  0  0  0  0  0  0  0  0
   -0.3069    1.9119   -0.8523 O   0  0  0  0  0  0  0  0  0  0  0  0
   -0.7421    1.8922    1.3648 N   0  0  0  0  0  0  0  0  0  0  0  0
   -0.8872    1.3020    2.1698 H   0  0  0  0  0  0  0  0  0  0  0  0
   -0.8240    3.3415    1.5700 C   0  0  0  0  0  0  0  0  0  0  0  0
   -1.8688    3.6555    1.6141 H   0  0  0  0  0  0  0  0  0  0  0  0
   -0.3397    3.6126    2.5098 H   0  0  0  0  0  0  0  0  0  0  0  0
   -0.3302    3.8784    0.7573 H   0  0  0  0  0  0  0  0  0  0  0  0
  5  6  2  0  0  0  0
  5  7  1  0  0  0  0
  2  3  1  0  0  0  0
  2  4  1  0  0  0  0
  2  5  1  0  0  0  0
  1  2  1  0  0  0  0
 23 24  2  0  0  0  0
 23 25  1  0  0  0  0
 21 22  1  0  0  0  0
 19 20  1  0  0  0  0
 19 21  1  0  0  0  0
 17 18  1  0  0  0  0
 17 19  1  0  0  0  0
 15 16  1  0  0  0  0
 15 17  2  0  0  0  0
 14 15  1  0  0  0  0
 14 21  2  0  0  0  0
 11 12  1  0  0  0  0
 11 13  1  0  0  0  0
 11 14  1  0  0  0  0
  9 10  1  0  0  0  0
  9 11  1  0  0  0  0
  9 23  1  0  0  0  0
  7  8  1  0  0  0  0
  7  9  1  0  0  0  0
 27 28  1  0  0  0  0
 27 29  1  0  0  0  0
 27 30  1  0  0  0  0
 25 26  1  0  0  0  0
 25 27  1  0  0  0  0
M  CHG  1  15   1
M  END
$$$$
default_name
  -OEChem-01062215323D

 30 30  0     1  0  0  0  0  0999 V2000
   -3.5507   -3.2183    1.8116 H   0  0  0  0  0  0  0  0  0  0  0  0
   -3.4597   -2.3913    1.1076 C   0  0  0  0  0  0  0  0  0  0  0  0
   -4.1577   -1.6043    1.3866 H   0  0  0  0  0  0  0  0  0  0  0  0
   -3.6807   -2.7523    0.1036 H   0  0  0  0  0  0  0  0  0  0  0  0
   -2.0477   -1.8543    1.1546 C   0  0  0  0  0  0  0  0  0  0  0  0
   -1.2227   -2.3443    1.9146 O   0  0  0  0  0  0  0  0  0  0  0  0
   -1.7517   -0.8483    0.3266 N   0  0  0  0  0  0  0  0  0  0  0  0
   -2.4847   -0.5123   -0.2804 H   0  0  0  0  0  0  0  0  0  0  0  0
   -0.4117   -0.2463    0.2186 C   0  0  1  0  0  0  0  0  0  0  0  0
    0.1554   -0.5152    1.1133 H   0  0  0  0  0  0  0  0  0  0  0  0
    0.3164   -0.8780   -0.9905 C   0  0  0  0  0  0  0  0  0  0  0  0
   -0.2829   -0.7036   -1.8878 H   0  0  0  0  0  0  0  0  0  0  0  0
    1.2700   -0.3664   -1.1375 H   0  0  0  0  0  0  0  0  0  0  0  0
    0.5921   -2.3620   -0.8722 C   0  0  0  0  0  0  0  0  0  0  0  0
    1.5711   -2.9316   -0.0814 N   0  3  0  0  0  0  0  0  0  0  0  0
    2.1666   -2.3944    0.5554 H   0  0  0  0  0  0  0  0  0  0  0  0
    1.5172   -4.2696   -0.2347 C   0  0  0  0  0  0  0  0  0  0  0  0
    2.1585   -4.9876    0.2725 H   0  0  0  0  0  0  0  0  0  0  0  0
    0.5257   -4.5614   -1.1066 N   0  0  0  0  0  0  0  0  0  0  0  0
    0.2531   -5.4924   -1.4108 H   0  0  0  0  0  0  0  0  0  0  0  0
   -0.0656   -3.3746   -1.5169 C   0  0  0  0  0  0  0  0  0  0  0  0
   -0.8914   -3.2605   -2.2138 H   0  0  0  0  0  0  0  0  0  0  0  0
   -0.4874    1.2908    0.1962 C   0  0  0  0  0  0  0  0  0  0  0  0
   -0.5828    1.8980   -0.8714 O   0  0  0  0  0  0  0  0  0  0  0  0
   -0.4301    1.9078    1.3828 N   0  0  0  0  0  0  0  0  0  0  0  0
   -0.3634    1.3283    2.2057 H   0  0  0  0  0  0  0  0  0  0  0  0
   -0.4531    3.3600    1.5831 C   0  0  0  0  0  0  0  0  0  0  0  0
   -1.4504    3.6801    1.8915 H   0  0  0  0  0  0  0  0  0  0  0  0
    0.2582    3.6399    2.3621 H   0  0  0  0  0  0  0  0  0  0  0  0
   -0.1851    3.8842    0.6634 H   0  0  0  0  0  0  0  0  0  0  0  0
  5  6  2  0  0  0  0
  5  7  1  0  0  0  0
  2  3  1  0  0  0  0
  2  4  1  0  0  0  0
  2  5  1  0  0  0  0
  1  2  1  0  0  0  0
 23 24  2  0  0  0  0
 23 25  1  0  0  0  0
 21 22  1  0  0  0  0
 19 20  1  0  0  0  0
 19 21  1  0  0  0  0
 17 18  1  0  0  0  0
 17 19  1  0  0  0  0
 15 16  1  0  0  0  0
 15 17  2  0  0  0  0
 14 15  1  0  0  0  0
 14 21  2  0  0  0  0
 11 12  1  0  0  0  0
 11 13  1  0  0  0  0
 11 14  1  0  0  0  0
  9 10  1  0  0  0  0
  9 11  1  0  0  0  0
  9 23  1  0  0  0  0
  7  8  1  0  0  0  0
  7  9  1  0  0  0  0
 27 28  1  0  0  0  0
 27 29  1  0  0  0  0
 27 30  1  0  0  0  0
 25 26  1  0  0  0  0
 25 27  1  0  0  0  0
M  CHG  1  15   1
M  END
$$$$
default_name
  -OEChem-01062215323D

 30 30  0     1  0  0  0  0  0999 V2000
   -3.5507   -3.2183    1.8116 H   0  0  0  0  0  0  0  0  0  0  0  0
   -3.4597   -2.3913    1.1076 C   0  0  0  0  0  0  0  0  0  0  0  0
   -4.1577   -1.6043    1.3866 H   0  0  0  0  0  0  0  0  0  0  0  0
   -3.6807   -2.7523    0.1036 H   0  0  0  0  0  0  0  0  0  0  0  0
   -2.0477   -1.8543    1.1546 C   0  0  0  0  0  0  0  0  0  0  0  0
   -1.2227   -2.3443    1.9146 O   0  0  0  0  0  0  0  0  0  0  0  0
   -1.7517   -0.8483    0.3266 N   0  0  0  0  0  0  0  0  0  0  0  0
   -2.4847   -0.5123   -0.2804 H   0  0  0  0  0  0  0  0  0  0  0  0
   -0.4117   -0.2463    0.2186 C   0  0  1  0  0  0  0  0  0  0  0  0
    0.1554   -0.5152    1.1133 H   0  0  0  0  0  0  0  0  0  0  0  0
    0.3164   -0.8780   -0.9905 C   0  0  0  0  0  0  0  0  0  0  0  0
   -0.2829   -0.7036   -1.8878 H   0  0  0  0  0  0  0  0  0  0  0  0
    1.2700   -0.3664   -1.1375 H   0  0  0  0  0  0  0  0  0  0  0  0
    0.5921   -2.3620   -0.8722 C   0  0  0  0  0  0  0  0  0  0  0  0
    1.5711   -2.9316   -0.0814 N   0  3  0  0  0  0  0  0  0  0  0  0
    2.1666   -2.3944    0.5554 H   0  0  0  0  0  0  0  0  0  0  0  0
    1.5172   -4.2696   -0.2347 C   0  0  0  0  0  0  0  0  0  0  0  0
    2.1585   -4.9876    0.2725 H   0  0  0  0  0  0  0  0  0  0  0  0
    0.5257   -4.5614   -1.1066 N   0  0  0  0  0  0  0  0  0  0  0  0
    0.2531   -5.4924   -1.4108 H   0  0  0  0  0  0  0  0  0  0  0  0
   -0.0656   -3.3746   -1.5169 C   0  0  0  0  0  0  0  0  0  0  0  0
   -0.8914   -3.2605   -2.2138 H   0  0  0  0  0  0  0  0  0  0  0  0
   -0.4874    1.2908    0.1962 C   0  0  0  0  0  0  0  0  0  0  0  0
   -0.8543    1.8854   -0.8184 O   0  0  0  0  0  0  0  0  0  0  0  0
   -0.1240    1.9220    1.3195 N   0  0  0  0  0  0  0  0  0  0  0  0
    0.1519    1.3522    2.1047 H   0  0  0  0  0  0  0  0  0  0  0  0
   -0.0914    3.3766    1.4997 C   0  0  0  0  0  0  0  0  0  0  0  0
   -0.9744    3.7059    2.0511 H   0  0  0  0  0  0  0  0  0  0  0  0
    0.7977    3.6621    2.0645 H   0  0  0  0  0  0  0  0  0  0  0  0
   -0.0692    3.8880    0.5350 H   0  0  0  0  0  0  0  0  0  0  0  0
  5  6  2  0  0  0  0
  5  7  1  0  0  0  0
  2  3  1  0  0  0  0
  2  4  1  0  0  0  0
  2  5  1  0  0  0  0
  1  2  1  0  0  0  0
 23 24  2  0  0  0  0
 23 25  1  0  0  0  0
 21 22  1  0  0  0  0
 19 20  1  0  0  0  0
 19 21  1  0  0  0  0
 17 18  1  0  0  0  0
 17 19  1  0  0  0  0
 15 16  1  0  0  0  0
 15 17  2  0  0  0  0
 14 15  1  0  0  0  0
 14 21  2  0  0  0  0
 11 12  1  0  0  0  0
 11 13  1  0  0  0  0
 11 14  1  0  0  0  0
  9 10  1  0  0  0  0
  9 11  1  0  0  0  0
  9 23  1  0  0  0  0
  7  8  1  0  0  0  0
  7  9  1  0  0  0  0
 27 28  1  0  0  0  0
 27 29  1  0  0  0  0
 27 30  1  0  0  0  0
 25 26  1  0  0  0  0
 25 27  1  0  0  0  0
M  CHG  1  15   1
M  END
$$$$
default_name
  -OEChem-01062215323D

 30 30  0     1  0  0  0  0  0999 V2000
   -3.5507   -3.2183    1.8116 H   0  0  0  0  0  0  0  0  0  0  0  0
   -3.4597   -2.3913    1.1076 C   0  0  0  0  0  0  0  0  0  0  0  0
   -4.1577   -1.6043    1.3866 H   0  0  0  0  0  0  0  0  0  0  0  0
   -3.6807   -2.7523    0.1036 H   0  0  0  0  0  0  0  0  0  0  0  0
   -2.0477   -1.8543    1.1546 C   0  0  0  0  0  0  0  0  0  0  0  0
   -1.2227   -2.3443    1.9146 O   0  0  0  0  0  0  0  0  0  0  0  0
   -1.7517   -0.8483    0.3266 N   0  0  0  0  0  0  0  0  0  0  0  0
   -2.4847   -0.5123   -0.2804 H   0  0  0  0  0  0  0  0  0  0  0  0
   -0.4117   -0.2463    0.2186 C   0  0  1  0  0  0  0  0  0  0  0  0
    0.1554   -0.5152    1.1133 H   0  0  0  0  0  0  0  0  0  0  0  0
    0.3164   -0.8780   -0.9905 C   0  0  0  0  0  0  0  0  0  0  0  0
   -0.2829   -0.7036   -1.8878 H   0  0  0  0  0  0  0  0  0  0  0  0
    1.2700   -0.3664   -1.1375 H   0  0  0  0  0  0  0  0  0  0  0  0
    0.5921   -2.3620   -0.8722 C   0  0  0  0  0  0  0  0  0  0  0  0
    1.5711   -2.9316   -0.0814 N   0  3  0  0  0  0  0  0  0  0  0  0
    2.1666   -2.3944    0.5554 H   0  0  0  0  0  0  0  0  0  0  0  0
    1.5172   -4.2696   -0.2347 C   0  0  0  0  0  0  0  0  0  0  0  0
    2.1585   -4.9876    0.2725 H   0  0  0  0  0  0  0  0  0  0  0  0
    0.5257   -4.5614   -1.1066 N   0  0  0  0  0  0  0  0  0  0  0  0
    0.2531   -5.4924   -1.4108 H   0  0  0  0  0  0  0  0  0  0  0  0
   -0.0656   -3.3746   -1.5169 C   0  0  0  0  0  0  0  0  0  0  0  0
   -0.8914   -3.2605   -2.2138 H   0  0  0  0  0  0  0  0  0  0  0  0
   -0.4874    1.2908    0.1962 C   0  0  0  0  0  0  0  0  0  0  0  0
   -1.1029    1.8750   -0.6969 O   0  0  0  0  0  0  0  0  0  0  0  0
    0.1553    1.9337    1.1789 N   0  0  0  0  0  0  0  0  0  0  0  0
    0.6237    1.3721    1.8737 H   0  0  0  0  0  0  0  0  0  0  0  0
    0.2364    3.3902    1.3253 C   0  0  0  0  0  0  0  0  0  0  0  0
   -0.4733    3.7310    2.0818 H   0  0  0  0  0  0  0  0  0  0  0  0
    1.2419    3.6778    1.6374 H   0  0  0  0  0  0  0  0  0  0  0  0
    0.0096    3.8897    0.3811 H   0  0  0  0  0  0  0  0  0  0  0  0
  5  6  2  0  0  0  0
  5  7  1  0  0  0  0
  2  3  1  0  0  0  0
  2  4  1  0  0  0  0
  2  5  1  0  0  0  0
  1  2  1  0  0  0  0
 23 24  2  0  0  0  0
 23 25  1  0  0  0  0
 21 22  1  0  0  0  0
 19 20  1  0  0  0  0
 19 21  1  0  0  0  0
 17 18  1  0  0  0  0
 17 19  1  0  0  0  0
 15 16  1  0  0  0  0
 15 17  2  0  0  0  0
 14 15  1  0  0  0  0
 14 21  2  0  0  0  0
 11 12  1  0  0  0  0
 11 13  1  0  0  0  0
 11 14  1  0  0  0  0
  9 10  1  0  0  0  0
  9 11  1  0  0  0  0
  9 23  1  0  0  0  0
  7  8  1  0  0  0  0
  7  9  1  0  0  0  0
 27 28  1  0  0  0  0
 27 29  1  0  0  0  0
 27 30  1  0  0  0  0
 25 26  1  0  0  0  0
 25 27  1  0  0  0  0
M  CHG  1  15   1
M  END
$$$$
default_name
  -OEChem-01062215323D

 30 30  0     1  0  0  0  0  0999 V2000
   -3.5507   -3.2183    1.8116 H   0  0  0  0  0  0  0  0  0  0  0  0
   -3.4597   -2.3913    1.1076 C   0  0  0  0  0  0  0  0  0  0  0  0
   -4.1577   -1.6043    1.3866 H   0  0  0  0  0  0  0  0  0  0  0  0
   -3.6807   -2.7523    0.1036 H   0  0  0  0  0  0  0  0  0  0  0  0
   -2.0477   -1.8543    1.1546 C   0  0  0  0  0  0  0  0  0  0  0  0
   -1.2227   -2.3443    1.9146 O   0  0  0  0  0  0  0  0  0  0  0  0
   -1.7517   -0.8483    0.3266 N   0  0  0  0  0  0  0  0  0  0  0  0
   -2.4847   -0.5123   -0.2804 H   0  0  0  0  0  0  0  0  0  0  0  0
   -0.4117   -0.2463    0.2186 C   0  0  1  0  0  0  0  0  0  0  0  0
    0.1554   -0.5152    1.1133 H   0  0  0  0  0  0  0  0  0  0  0  0
    0.3164   -0.8780   -0.9905 C   0  0  0  0  0  0  0  0  0  0  0  0
   -0.2829   -0.7036   -1.8878 H   0  0  0  0  0  0  0  0  0  0  0  0
    1.2700   -0.3664   -1.1375 H   0  0  0  0  0  0  0  0  0  0  0  0
    0.5921   -2.3620   -0.8722 C   0  0  0  0  0  0  0  0  0  0  0  0
    1.5711   -2.9316   -0.0814 N   0  3  0  0  0  0  0  0  0  0  0  0
    2.1666   -2.3944    0.5554 H   0  0  0  0  0  0  0  0  0  0  0  0
    1.5172   -4.2696   -0.2347 C   0  0  0  0  0  0  0  0  0  0  0  0
    2.1585   -4.9876    0.2725 H   0  0  0  0  0  0  0  0  0  0  0  0
    0.5257   -4.5614   -1.1066 N   0  0  0  0  0  0  0  0  0  0  0  0
    0.2531   -5.4924   -1.4108 H   0  0  0  0  0  0  0  0  0  0  0  0
   -0.0656   -3.3746   -1.5169 C   0  0  0  0  0  0  0  0  0  0  0  0
   -0.8914   -3.2605   -2.2138 H   0  0  0  0  0  0  0  0  0  0  0  0
   -0.4874    1.2908    0.1962 C   0  0  0  0  0  0  0  0  0  0  0  0
   -1.3116    1.8673   -0.5151 O   0  0  0  0  0  0  0  0  0  0  0  0
    0.3889    1.9422    0.9708 N   0  0  0  0  0  0  0  0  0  0  0  0
    1.0197    1.3866    1.5283 H   0  0  0  0  0  0  0  0  0  0  0  0
    0.5081    3.3999    1.0720 C   0  0  0  0  0  0  0  0  0  0  0  0
    0.0188    3.7538    1.9817 H   0  0  0  0  0  0  0  0  0  0  0  0
    1.5607    3.6858    1.1098 H   0  0  0  0  0  0  0  0  0  0  0  0
    0.0459    3.8890    0.2119 H   0  0  0  0  0  0  0  0  0  0  0  0
  5  6  2  0  0  0  0
  5  7  1  0  0  0  0
  2  3  1  0  0  0  0
  2  4  1  0  0  0  0
  2  5  1  0  0  0  0
  1  2  1  0  0  0  0
 23 24  2  0  0  0  0
 23 25  1  0  0  0  0
 21 22  1  0  0  0  0
 19 20  1  0  0  0  0
 19 21  1  0  0  0  0
 17 18  1  0  0  0  0
 17 19  1  0  0  0  0
 15 16  1  0  0  0  0
 15 17  2  0  0  0  0
 14 15  1  0  0  0  0
 14 21  2  0  0  0  0
 11 12  1  0  0  0  0
 11 13  1  0  0  0  0
 11 14  1  0  0  0  0
  9 10  1  0  0  0  0
  9 11  1  0  0  0  0
  9 23  1  0  0  0  0
  7  8  1  0  0  0  0
  7  9  1  0  0  0  0
 27 28  1  0  0  0  0
 27 29  1  0  0  0  0
 27 30  1  0  0  0  0
 25 26  1  0  0  0  0
 25 27  1  0  0  0  0
M  CHG  1  15   1
M  END
$$$$
default_name
  -OEChem-01062215323D

 30 30  0     1  0  0  0  0  0999 V2000
   -3.5507   -3.2183    1.8116 H   0  0  0  0  0  0  0  0  0  0  0  0
   -3.4597   -2.3913    1.1076 C   0  0  0  0  0  0  0  0  0  0  0  0
   -4.1577   -1.6043    1.3866 H   0  0  0  0  0  0  0  0  0  0  0  0
   -3.6807   -2.7523    0.1036 H   0  0  0  0  0  0  0  0  0  0  0  0
   -2.0477   -1.8543    1.1546 C   0  0  0  0  0  0  0  0  0  0  0  0
   -1.2227   -2.3443    1.9146 O   0  0  0  0  0  0  0  0  0  0  0  0
   -1.7517   -0.8483    0.3266 N   0  0  0  0  0  0  0  0  0  0  0  0
   -2.4847   -0.5123   -0.2804 H   0  0  0  0  0  0  0  0  0  0  0  0
   -0.4117   -0.2463    0.2186 C   0  0  1  0  0  0  0  0  0  0  0  0
    0.1554   -0.5152    1.1133 H   0  0  0  0  0  0  0  0  0  0  0  0
    0.3164   -0.8780   -0.9905 C   0  0  0  0  0  0  0  0  0  0  0  0
   -0.2829   -0.7036   -1.8878 H   0  0  0  0  0  0  0  0  0  0  0  0
    1.2700   -0.3664   -1.1375 H   0  0  0  0  0  0  0  0  0  0  0  0
    0.5921   -2.3620   -0.8722 C   0  0  0  0  0  0  0  0  0  0  0  0
    1.5711   -2.9316   -0.0814 N   0  3  0  0  0  0  0  0  0  0  0  0
    2.1666   -2.3944    0.5554 H   0  0  0  0  0  0  0  0  0  0  0  0
    1.5172   -4.2696   -0.2347 C   0  0  0  0  0  0  0  0  0  0  0  0
    2.1585   -4.9876    0.2725 H   0  0  0  0  0  0  0  0  0  0  0  0
    0.5257   -4.5614   -1.1066 N   0  0  0  0  0  0  0  0  0  0  0  0
    0.2531   -5.4924   -1.4108 H   0  0  0  0  0  0  0  0  0  0  0  0
   -0.0656   -3.3746   -1.5169 C   0  0  0  0  0  0  0  0  0  0  0  0
   -0.8914   -3.2605   -2.2138 H   0  0  0  0  0  0  0  0  0  0  0  0
   -0.4874    1.2908    0.1962 C   0  0  0  0  0  0  0  0  0  0  0  0
   -1.4663    1.8631   -0.2855 O   0  0  0  0  0  0  0  0  0  0  0  0
    0.5607    1.9468    0.7094 N   0  0  0  0  0  0  0  0  0  0  0  0
    1.3130    1.3947    1.0922 H   0  0  0  0  0  0  0  0  0  0  0  0
    0.7050    3.4050    0.7570 C   0  0  0  0  0  0  0  0  0  0  0  0
    0.4682    3.7727    1.7575 H   0  0  0  0  0  0  0  0  0  0  0  0
    1.7322    3.6856    0.5177 H   0  0  0  0  0  0  0  0  0  0  0  0
    0.0373    3.8860    0.0392 H   0  0  0  0  0  0  0  0  0  0  0  0
  5  6  2  0  0  0  0
  5  7  1  0  0  0  0
  2  3  1  0  0  0  0
  2  4  1  0  0  0  0
  2  5  1  0  0  0  0
  1  2  1  0  0  0  0
 23 24  2  0  0  0  0
 23 25  1  0  0  0  0
 21 22  1  0  0  0  0
 19 20  1  0  0  0  0
 19 21  1  0  0  0  0
 17 18  1  0  0  0  0
 17 19  1  0  0  0  0
 15 16  1  0  0  0  0
 15 17  2  0  0  0  0
 14 15  1  0  0  0  0
 14 21  2  0  0  0  0
 11 12  1  0  0  0  0
 11 13  1  0  0  0  0
 11 14  1  0  0  0  0
  9 10  1  0  0  0  0
  9 11  1  0  0  0  0
  9 23  1  0  0  0  0
  7  8  1  0  0  0  0
  7  9  1  0  0  0  0
 27 28  1  0  0  0  0
 27 29  1  0  0  0  0
 27 30  1  0  0  0  0
 25 26  1  0  0  0  0
 25 27  1  0  0  0  0
M  CHG  1  15   1
M  END
$$$$
default_name
  -OEChem-01062215323D

 30 30  0     1  0  0  0  0  0999 V2000
   -3.5507   -3.2183    1.8116 H   0  0  0  0  0  0  0  0  0  0  0  0
   -3.4597   -2.3913    1.1076 C   0  0  0  0  0  0  0  0  0  0  0  0
   -4.1577   -1.6043    1.3866 H   0  0  0  0  0  0  0  0  0  0  0  0
   -3.6807   -2.7523    0.1036 H   0  0  0  0  0  0  0  0  0  0  0  0
   -2.0477   -1.8543    1.1546 C   0  0  0  0  0  0  0  0  0  0  0  0
   -1.2227   -2.3443    1.9146 O   0  0  0  0  0  0  0  0  0  0  0  0
   -1.7517   -0.8483    0.3266 N   0  0  0  0  0  0  0  0  0  0  0  0
   -2.4847   -0.5123   -0.2804 H   0  0  0  0  0  0  0  0  0  0  0  0
   -0.4117   -0.2463    0.2186 C   0  0  1  0  0  0  0  0  0  0  0  0
    0.1554   -0.5152    1.1133 H   0  0  0  0  0  0  0  0  0  0  0  0
    0.3164   -0.8780   -0.9905 C   0  0  0  0  0  0  0  0  0  0  0  0
   -0.2829   -0.7036   -1.8878 H   0  0  0  0  0  0  0  0  0  0  0  0
    1.2700   -0.3664   -1.1375 H   0  0  0  0  0  0  0  0  0  0  0  0
    0.5921   -2.3620   -0.8722 C   0  0  0  0  0  0  0  0  0  0  0  0
    1.5711   -2.9316   -0.0814 N   0  3  0  0  0  0  0  0  0  0  0  0
    2.1666   -2.3944    0.5554 H   0  0  0  0  0  0  0  0  0  0  0  0
    1.5172   -4.2696   -0.2347 C   0  0  0  0  0  0  0  0  0  0  0  0
    2.1585   -4.9876    0.2725 H   0  0  0  0  0  0  0  0  0  0  0  0
    0.5257   -4.5614   -1.1066 N   0  0  0  0  0  0  0  0  0  0  0  0
    0.2531   -5.4924   -1.4108 H   0  0  0  0  0  0  0  0  0  0  0  0
   -0.0656   -3.3746   -1.5169 C   0  0  0  0  0  0  0  0  0  0  0  0
   -0.8914   -3.2605   -2.2138 H   0  0  0  0  0  0  0  0  0  0  0  0
   -0.4874    1.2908    0.1962 C   0  0  0  0  0  0  0  0  0  0  0  0
   -1.5563    1.8624   -0.0236 O   0  0  0  0  0  0  0  0  0  0  0  0
    0.6591    1.9473    0.4124 N   0  0  0  0  0  0  0  0  0  0  0  0
    1.4836    1.3958    0.5949 H   0  0  0  0  0  0  0  0  0  0  0  0
    0.8139    3.4052    0.4018 C   0  0  0  0  0  0  0  0  0  0  0  0
    0.8445    3.7863    1.4245 H   0  0  0  0  0  0  0  0  0  0  0  0
    1.7449    3.6773   -0.0986 H   0  0  0  0  0  0  0  0  0  0  0  0
   -0.0157    3.8810   -0.1254 H   0  0  0  0  0  0  0  0  0  0  0  0
  5  6  2  0  0  0  0
  5  7  1  0  0  0  0
  2  3  1  0  0  0  0
  2  4  1  0  0  0  0
  2  5  1  0  0  0  0
  1  2  1  0  0  0  0
 23 24  2  0  0  0  0
 23 25  1  0  0  0  0
 21 22  1  0  0  0  0
 19 20  1  0  0  0  0
 19 21  1  0  0  0  0
 17 18  1  0  0  0  0
 17 19  1  0  0  0  0
 15 16  1  0  0  0  0
 15 17  2  0  0  0  0
 14 15  1  0  0  0  0
 14 21  2  0  0  0  0
 11 12  1  0  0  0  0
 11 13  1  0  0  0  0
 11 14  1  0  0  0  0
  9 10  1  0  0  0  0
  9 11  1  0  0  0  0
  9 23  1  0  0  0  0
  7  8  1  0  0  0  0
  7  9  1  0  0  0  0
 27 28  1  0  0  0  0
 27 29  1  0  0  0  0
 27 30  1  0  0  0  0
 25 26  1  0  0  0  0
 25 27  1  0  0  0  0
M  CHG  1  15   1
M  END
$$$$
default_name
  -OEChem-01062215323D

 30 30  0     1  0  0  0  0  0999 V2000
   -3.5507   -3.2183    1.8116 H   0  0  0  0  0  0  0  0  0  0  0  0
   -3.4597   -2.3913    1.1076 C   0  0  0  0  0  0  0  0  0  0  0  0
   -4.1577   -1.6043    1.3866 H   0  0  0  0  0  0  0  0  0  0  0  0
   -3.6807   -2.7523    0.1036 H   0  0  0  0  0  0  0  0  0  0  0  0
   -2.0477   -1.8543    1.1546 C   0  0  0  0  0  0  0  0  0  0  0  0
   -1.2227   -2.3443    1.9146 O   0  0  0  0  0  0  0  0  0  0  0  0
   -1.7517   -0.8483    0.3266 N   0  0  0  0  0  0  0  0  0  0  0  0
   -2.4847   -0.5123   -0.2804 H   0  0  0  0  0  0  0  0  0  0  0  0
   -0.4117   -0.2463    0.2186 C   0  0  1  0  0  0  0  0  0  0  0  0
    0.2361   -0.7228    0.9586 H   0  0  0  0  0  0  0  0  0  0  0  0
    0.1670   -0.5787   -1.1763 C   0  0  0  0  0  0  0  0  0  0  0  0
   -0.5161   -0.1934   -1.9375 H   0  0  0  0  0  0  0  0  0  0  0  0
    1.1159   -0.0529   -1.3014 H   0  0  0  0  0  0  0  0  0  0  0  0
    0.4063   -2.0503   -1.4397 C   0  0  0  0  0  0  0  0  0  0  0  0
    1.4434   -2.7970   -0.9150 N   0  3  0  0  0  0  0  0  0  0  0  0
    2.1184   -2.4293   -0.2382 H   0  0  0  0  0  0  0  0  0  0  0  0
    1.3316   -4.0604   -1.3709 C   0  0  0  0  0  0  0  0  0  0  0  0
    1.9989   -4.8820   -1.1186 H   0  0  0  0  0  0  0  0  0  0  0  0
    0.2465   -4.1314   -2.1746 N   0  0  0  0  0  0  0  0  0  0  0  0
   -0.0855   -4.9623   -2.6572 H   0  0  0  0  0  0  0  0  0  0  0  0
   -0.3462   -2.8775   -2.2289 C   0  0  0  0  0  0  0  0  0  0  0  0
   -1.2357   -2.5967   -2.7861 H   0  0  0  0  0  0  0  0  0  0  0  0
   -0.4406    1.2529    0.5655 C   0  0  0  0  0  0  0  0  0  0  0  0
   -1.4984    1.8049    0.8723 O   0  0  0  0  0  0  0  0  0  0  0  0
    0.7280    1.9027    0.4998 N   0  0  0  0  0  0  0  0  0  0  0  0
    1.5450    1.3664    0.2505 H   0  0  0  0  0  0  0  0  0  0  0  0
    0.9159    3.3336    0.7579 C   0  0  0  0  0  0  0  0  0  0  0  0
    1.3223    3.4835    1.7602 H   0  0  0  0  0  0  0  0  0  0  0  0
    1.6149    3.7542    0.0329 H   0  0  0  0  0  0  0  0  0  0  0  0
   -0.0314    3.8711    0.6793 H   0  0  0  0  0  0  0  0  0  0  0  0
  5  6  2  0  0  0  0
  5  7  1  0  0  0  0
  2  3  1  0  0  0  0
  2  4  1  0  0  0  0
  2  5  1  0  0  0  0
  1  2  1  0  0  0  0
 23 24  2  0  0  0  0
 23 25  1  0  0  0  0
 21 22  1  0  0  0  0
 19 20  1  0  0  0  0
 19 21  1  0  0  0  0
 17 18  1  0  0  0  0
 17 19  1  0  0  0  0
 15 16  1  0  0  0  0
 15 17  2  0  0  0  0
 14 15  1  0  0  0  0
 14 21  2  0  0  0  0
 11 12  1  0  0  0  0
 11 13  1  0  0  0  0
 11 14  1  0  0  0  0
  9 10  1  0  0  0  0
  9 11  1  0  0  0  0
  9 23  1  0  0  0  0
  7  8  1  0  0  0  0
  7  9  1  0  0  0  0
 27 28  1  0  0  0  0
 27 29  1  0  0  0  0
 27 30  1  0  0  0  0
 25 26  1  0  0  0  0
 25 27  1  0  0  0  0
M  CHG  1  15   1
M  END
$$$$
default_name
  -OEChem-01062215323D

 30 30  0     1  0  0  0  0  0999 V2000
   -3.5507   -3.2183    1.8116 H   0  0  0  0  0  0  0  0  0  0  0  0
   -3.4597   -2.3913    1.1076 C   0  0  0  0  0  0  0  0  0  0  0  0
   -4.1577   -1.6043    1.3866 H   0  0  0  0  0  0  0  0  0  0  0  0
   -3.6807   -2.7523    0.1036 H   0  0  0  0  0  0  0  0  0  0  0  0
   -2.0477   -1.8543    1.1546 C   0  0  0  0  0  0  0  0  0  0  0  0
   -1.2227   -2.3443    1.9146 O   0  0  0  0  0  0  0  0  0  0  0  0
   -1.7517   -0.8483    0.3266 N   0  0  0  0  0  0  0  0  0  0  0  0
   -2.4847   -0.5123   -0.2804 H   0  0  0  0  0  0  0  0  0  0  0  0
   -0.4117   -0.2463    0.2186 C   0  0  1  0  0  0  0  0  0  0  0  0
    0.2361   -0.7228    0.9586 H   0  0  0  0  0  0  0  0  0  0  0  0
    0.1670   -0.5787   -1.1763 C   0  0  0  0  0  0  0  0  0  0  0  0
   -0.5161   -0.1934   -1.9375 H   0  0  0  0  0  0  0  0  0  0  0  0
    1.1159   -0.0529   -1.3014 H   0  0  0  0  0  0  0  0  0  0  0  0
    0.4063   -2.0503   -1.4397 C   0  0  0  0  0  0  0  0  0  0  0  0
    1.4434   -2.7970   -0.9150 N   0  3  0  0  0  0  0  0  0  0  0  0
    2.1184   -2.4293   -0.2382 H   0  0  0  0  0  0  0  0  0  0  0  0
    1.3316   -4.0604   -1.3709 C   0  0  0  0  0  0  0  0  0  0  0  0
    1.9989   -4.8820   -1.1186 H   0  0  0  0  0  0  0  0  0  0  0  0
    0.2465   -4.1314   -2.1746 N   0  0  0  0  0  0  0  0  0  0  0  0
   -0.0855   -4.9623   -2.6572 H   0  0  0  0  0  0  0  0  0  0  0  0
   -0.3462   -2.8775   -2.2289 C   0  0  0  0  0  0  0  0  0  0  0  0
   -1.2357   -2.5967   -2.7861 H   0  0  0  0  0  0  0  0  0  0  0  0
   -0.4406    1.2529    0.5655 C   0  0  0  0  0  0  0  0  0  0  0  0
   -1.4177    1.7467    1.1306 O   0  0  0  0  0  0  0  0  0  0  0  0
    0.6333    1.9682    0.2088 N   0  0  0  0  0  0  0  0  0  0  0  0
    1.3913    1.4769   -0.2399 H   0  0  0  0  0  0  0  0  0  0  0  0
    0.7955    3.4106    0.4150 C   0  0  0  0  0  0  0  0  0  0  0  0
    1.4317    3.5961    1.2827 H   0  0  0  0  0  0  0  0  0  0  0  0
    1.2632    3.8619   -0.4618 H   0  0  0  0  0  0  0  0  0  0  0  0
   -0.1711    3.8916    0.5793 H   0  0  0  0  0  0  0  0  0  0  0  0
  5  6  2  0  0  0  0
  5  7  1  0  0  0  0
  2  3  1  0  0  0  0
  2  4  1  0  0  0  0
  2  5  1  0  0  0  0
  1  2  1  0  0  0  0
 23 24  2  0  0  0  0
 23 25  1  0  0  0  0
 21 22  1  0  0  0  0
 19 20  1  0  0  0  0
 19 21  1  0  0  0  0
 17 18  1  0  0  0  0
 17 19  1  0  0  0  0
 15 16  1  0  0  0  0
 15 17  2  0  0  0  0
 14 15  1  0  0  0  0
 14 21  2  0  0  0  0
 11 12  1  0  0  0  0
 11 13  1  0  0  0  0
 11 14  1  0  0  0  0
  9 10  1  0  0  0  0
  9 11  1  0  0  0  0
  9 23  1  0  0  0  0
  7  8  1  0  0  0  0
  7  9  1  0  0  0  0
 27 28  1  0  0  0  0
 27 29  1  0  0  0  0
 27 30  1  0  0  0  0
 25 26  1  0  0  0  0
 25 27  1  0  0  0  0
M  CHG  1  15   1
M  END
$$$$
default_name
  -OEChem-01062215323D

 30 30  0     1  0  0  0  0  0999 V2000
   -3.5507   -3.2183    1.8116 H   0  0  0  0  0  0  0  0  0  0  0  0
   -3.4597   -2.3913    1.1076 C   0  0  0  0  0  0  0  0  0  0  0  0
   -4.1577   -1.6043    1.3866 H   0  0  0  0  0  0  0  0  0  0  0  0
   -3.6807   -2.7523    0.1036 H   0  0  0  0  0  0  0  0  0  0  0  0
   -2.0477   -1.8543    1.1546 C   0  0  0  0  0  0  0  0  0  0  0  0
   -1.2227   -2.3443    1.9146 O   0  0  0  0  0  0  0  0  0  0  0  0
   -1.7517   -0.8483    0.3266 N   0  0  0  0  0  0  0  0  0  0  0  0
   -2.4847   -0.5123   -0.2804 H   0  0  0  0  0  0  0  0  0  0  0  0
   -0.4117   -0.2463    0.2186 C   0  0  1  0  0  0  0  0  0  0  0  0
    0.2361   -0.7228    0.9586 H   0  0  0  0  0  0  0  0  0  0  0  0
    0.1670   -0.5787   -1.1763 C   0  0  0  0  0  0  0  0  0  0  0  0
   -0.5161   -0.1934   -1.9375 H   0  0  0  0  0  0  0  0  0  0  0  0
    1.1159   -0.0529   -1.3014 H   0  0  0  0  0  0  0  0  0  0  0  0
    0.4063   -2.0503   -1.4397 C   0  0  0  0  0  0  0  0  0  0  0  0
    1.4434   -2.7970   -0.9150 N   0  3  0  0  0  0  0  0  0  0  0  0
    2.1184   -2.4293   -0.2382 H   0  0  0  0  0  0  0  0  0  0  0  0
    1.3316   -4.0604   -1.3709 C   0  0  0  0  0  0  0  0  0  0  0  0
    1.9989   -4.8820   -1.1186 H   0  0  0  0  0  0  0  0  0  0  0  0
    0.2465   -4.1314   -2.1746 N   0  0  0  0  0  0  0  0  0  0  0  0
   -0.0855   -4.9623   -2.6572 H   0  0  0  0  0  0  0  0  0  0  0  0
   -0.3462   -2.8775   -2.2289 C   0  0  0  0  0  0  0  0  0  0  0  0
   -1.2357   -2.5967   -2.7861 H   0  0  0  0  0  0  0  0  0  0  0  0
   -0.4406    1.2529    0.5655 C   0  0  0  0  0  0  0  0  0  0  0  0
   -1.2711    1.6964    1.3601 O   0  0  0  0  0  0  0  0  0  0  0  0
    0.4647    2.0245   -0.0487 N   0  0  0  0  0  0  0  0  0  0  0  0
    1.1128    1.5722   -0.6754 H   0  0  0  0  0  0  0  0  0  0  0  0
    0.5883    3.4763    0.1137 C   0  0  0  0  0  0  0  0  0  0  0  0
    1.4105    3.7089    0.7933 H   0  0  0  0  0  0  0  0  0  0  0  0
    0.7925    3.9430   -0.8515 H   0  0  0  0  0  0  0  0  0  0  0  0
   -0.3323    3.9027    0.5177 H   0  0  0  0  0  0  0  0  0  0  0  0
  5  6  2  0  0  0  0
  5  7  1  0  0  0  0
  2  3  1  0  0  0  0
  2  4  1  0  0  0  0
  2  5  1  0  0  0  0
  1  2  1  0  0  0  0
 23 24  2  0  0  0  0
 23 25  1  0  0  0  0
 21 22  1  0  0  0  0
 19 20  1  0  0  0  0
 19 21  1  0  0  0  0
 17 18  1  0  0  0  0
 17 19  1  0  0  0  0
 15 16  1  0  0  0  0
 15 17  2  0  0  0  0
 14 15  1  0  0  0  0
 14 21  2  0  0  0  0
 11 12  1  0  0  0  0
 11 13  1  0  0  0  0
 11 14  1  0  0  0  0
  9 10  1  0  0  0  0
  9 11  1  0  0  0  0
  9 23  1  0  0  0  0
  7  8  1  0  0  0  0
  7  9  1  0  0  0  0
 27 28  1  0  0  0  0
 27 29  1  0  0  0  0
 27 30  1  0  0  0  0
 25 26  1  0  0  0  0
 25 27  1  0  0  0  0
M  CHG  1  15   1
M  END
$$$$
default_name
  -OEChem-01062215323D

 30 30  0     1  0  0  0  0  0999 V2000
   -3.5507   -3.2183    1.8116 H   0  0  0  0  0  0  0  0  0  0  0  0
   -3.4597   -2.3913    1.1076 C   0  0  0  0  0  0  0  0  0  0  0  0
   -4.1577   -1.6043    1.3866 H   0  0  0  0  0  0  0  0  0  0  0  0
   -3.6807   -2.7523    0.1036 H   0  0  0  0  0  0  0  0  0  0  0  0
   -2.0477   -1.8543    1.1546 C   0  0  0  0  0  0  0  0  0  0  0  0
   -1.2227   -2.3443    1.9146 O   0  0  0  0  0  0  0  0  0  0  0  0
   -1.7517   -0.8483    0.3266 N   0  0  0  0  0  0  0  0  0  0  0  0
   -2.4847   -0.5123   -0.2804 H   0  0  0  0  0  0  0  0  0  0  0  0
   -0.4117   -0.2463    0.2186 C   0  0  1  0  0  0  0  0  0  0  0  0
    0.2361   -0.7228    0.9586 H   0  0  0  0  0  0  0  0  0  0  0  0
    0.1670   -0.5787   -1.1763 C   0  0  0  0  0  0  0  0  0  0  0  0
   -0.5161   -0.1934   -1.9375 H   0  0  0  0  0  0  0  0  0  0  0  0
    1.1159   -0.0529   -1.3014 H   0  0  0  0  0  0  0  0  0  0  0  0
    0.4063   -2.0503   -1.4397 C   0  0  0  0  0  0  0  0  0  0  0  0
    1.4434   -2.7970   -0.9150 N   0  3  0  0  0  0  0  0  0  0  0  0
    2.1184   -2.4293   -0.2382 H   0  0  0  0  0  0  0  0  0  0  0  0
    1.3316   -4.0604   -1.3709 C   0  0  0  0  0  0  0  0  0  0  0  0
    1.9989   -4.8820   -1.1186 H   0  0  0  0  0  0  0  0  0  0  0  0
    0.2465   -4.1314   -2.1746 N   0  0  0  0  0  0  0  0  0  0  0  0
   -0.0855   -4.9623   -2.6572 H   0  0  0  0  0  0  0  0  0  0  0  0
   -0.3462   -2.8775   -2.2289 C   0  0  0  0  0  0  0  0  0  0  0  0
   -1.2357   -2.5967   -2.7861 H   0  0  0  0  0  0  0  0  0  0  0  0
   -0.4406    1.2529    0.5655 C   0  0  0  0  0  0  0  0  0  0  0  0
   -1.0687    1.6575    1.5451 O   0  0  0  0  0  0  0  0  0  0  0  0
    0.2336    2.0678   -0.2552 N   0  0  0  0  0  0  0  0  0  0  0  0
    0.7284    1.6460   -1.0263 H   0  0  0  0  0  0  0  0  0  0  0  0
    0.3083    3.5262   -0.1255 C   0  0  0  0  0  0  0  0  0  0  0  0
    1.2601    3.8143    0.3254 H   0  0  0  0  0  0  0  0  0  0  0  0
    0.2348    3.9920   -1.1097 H   0  0  0  0  0  0  0  0  0  0  0  0
   -0.5043    3.9037    0.4989 H   0  0  0  0  0  0  0  0  0  0  0  0
  5  6  2  0  0  0  0
  5  7  1  0  0  0  0
  2  3  1  0  0  0  0
  2  4  1  0  0  0  0
  2  5  1  0  0  0  0
  1  2  1  0  0  0  0
 23 24  2  0  0  0  0
 23 25  1  0  0  0  0
 21 22  1  0  0  0  0
 19 20  1  0  0  0  0
 19 21  1  0  0  0  0
 17 18  1  0  0  0  0
 17 19  1  0  0  0  0
 15 16  1  0  0  0  0
 15 17  2  0  0  0  0
 14 15  1  0  0  0  0
 14 21  2  0  0  0  0
 11 12  1  0  0  0  0
 11 13  1  0  0  0  0
 11 14  1  0  0  0  0
  9 10  1  0  0  0  0
  9 11  1  0  0  0  0
  9 23  1  0  0  0  0
  7  8  1  0  0  0  0
  7  9  1  0  0  0  0
 27 28  1  0  0  0  0
 27 29  1  0  0  0  0
 27 30  1  0  0  0  0
 25 26  1  0  0  0  0
 25 27  1  0  0  0  0
M  CHG  1  15   1
M  END
$$$$
default_name
  -OEChem-01062215323D

 30 30  0     1  0  0  0  0  0999 V2000
   -3.5507   -3.2183    1.8116 H   0  0  0  0  0  0  0  0  0  0  0  0
   -3.4597   -2.3913    1.1076 C   0  0  0  0  0  0  0  0  0  0  0  0
   -4.1577   -1.6043    1.3866 H   0  0  0  0  0  0  0  0  0  0  0  0
   -3.6807   -2.7523    0.1036 H   0  0  0  0  0  0  0  0  0  0  0  0
   -2.0477   -1.8543    1.1546 C   0  0  0  0  0  0  0  0  0  0  0  0
   -1.2227   -2.3443    1.9146 O   0  0  0  0  0  0  0  0  0  0  0  0
   -1.7517   -0.8483    0.3266 N   0  0  0  0  0  0  0  0  0  0  0  0
   -2.4847   -0.5123   -0.2804 H   0  0  0  0  0  0  0  0  0  0  0  0
   -0.4117   -0.2463    0.2186 C   0  0  1  0  0  0  0  0  0  0  0  0
    0.2361   -0.7228    0.9586 H   0  0  0  0  0  0  0  0  0  0  0  0
    0.1670   -0.5787   -1.1763 C   0  0  0  0  0  0  0  0  0  0  0  0
   -0.5161   -0.1934   -1.9375 H   0  0  0  0  0  0  0  0  0  0  0  0
    1.1159   -0.0529   -1.3014 H   0  0  0  0  0  0  0  0  0  0  0  0
    0.4063   -2.0503   -1.4397 C   0  0  0  0  0  0  0  0  0  0  0  0
    1.4434   -2.7970   -0.9150 N   0  3  0  0  0  0  0  0  0  0  0  0
    2.1184   -2.4293   -0.2382 H   0  0  0  0  0  0  0  0  0  0  0  0
    1.3316   -4.0604   -1.3709 C   0  0  0  0  0  0  0  0  0  0  0  0
    1.9989   -4.8820   -1.1186 H   0  0  0  0  0  0  0  0  0  0  0  0
    0.2465   -4.1314   -2.1746 N   0  0  0  0  0  0  0  0  0  0  0  0
   -0.0855   -4.9623   -2.6572 H   0  0  0  0  0  0  0  0  0  0  0  0
   -0.3462   -2.8775   -2.2289 C   0  0  0  0  0  0  0  0  0  0  0  0
   -1.2357   -2.5967   -2.7861 H   0  0  0  0  0  0  0  0  0  0  0  0
   -0.4406    1.2529    0.5655 C   0  0  0  0  0  0  0  0  0  0  0  0
   -0.8244    1.6327    1.6729 O   0  0  0  0  0  0  0  0  0  0  0  0
   -0.0442    2.0952   -0.3966 N   0  0  0  0  0  0  0  0  0  0  0  0
    0.2643    1.6931   -1.2687 H   0  0  0  0  0  0  0  0  0  0  0  0
   -0.0254    3.5570   -0.2861 C   0  0  0  0  0  0  0  0  0  0  0  0
    0.9906    3.9050   -0.0892 H   0  0  0  0  0  0  0  0  0  0  0  0
   -0.3718    4.0055   -1.2188 H   0  0  0  0  0  0  0  0  0  0  0  0
   -0.6752    3.8946    0.5241 H   0  0  0  0  0  0  0  0  0  0  0  0
  5  6  2  0  0  0  0
  5  7  1  0  0  0  0
  2  3  1  0  0  0  0
  2  4  1  0  0  0  0
  2  5  1  0  0  0  0
  1  2  1  0  0  0  0
 23 24  2  0  0  0  0
 23 25  1  0  0  0  0
 21 22  1  0  0  0  0
 19 20  1  0  0  0  0
 19 21  1  0  0  0  0
 17 18  1  0  0  0  0
 17 19  1  0  0  0  0
 15 16  1  0  0  0  0
 15 17  2  0  0  0  0
 14 15  1  0  0  0  0
 14 21  2  0  0  0  0
 11 12  1  0  0  0  0
 11 13  1  0  0  0  0
 11 14  1  0  0  0  0
  9 10  1  0  0  0  0
  9 11  1  0  0  0  0
  9 23  1  0  0  0  0
  7  8  1  0  0  0  0
  7  9  1  0  0  0  0
 27 28  1  0  0  0  0
 27 29  1  0  0  0  0
 27 30  1  0  0  0  0
 25 26  1  0  0  0  0
 25 27  1  0  0  0  0
M  CHG  1  15   1
M  END
$$$$
default_name
  -OEChem-01062215323D

 30 30  0     1  0  0  0  0  0999 V2000
   -3.5507   -3.2183    1.8116 H   0  0  0  0  0  0  0  0  0  0  0  0
   -3.4597   -2.3913    1.1076 C   0  0  0  0  0  0  0  0  0  0  0  0
   -4.1577   -1.6043    1.3866 H   0  0  0  0  0  0  0  0  0  0  0  0
   -3.6807   -2.7523    0.1036 H   0  0  0  0  0  0  0  0  0  0  0  0
   -2.0477   -1.8543    1.1546 C   0  0  0  0  0  0  0  0  0  0  0  0
   -1.2227   -2.3443    1.9146 O   0  0  0  0  0  0  0  0  0  0  0  0
   -1.7517   -0.8483    0.3266 N   0  0  0  0  0  0  0  0  0  0  0  0
   -2.4847   -0.5123   -0.2804 H   0  0  0  0  0  0  0  0  0  0  0  0
   -0.4117   -0.2463    0.2186 C   0  0  1  0  0  0  0  0  0  0  0  0
    0.2361   -0.7228    0.9586 H   0  0  0  0  0  0  0  0  0  0  0  0
    0.1670   -0.5787   -1.1763 C   0  0  0  0  0  0  0  0  0  0  0  0
   -0.5161   -0.1934   -1.9375 H   0  0  0  0  0  0  0  0  0  0  0  0
    1.1159   -0.0529   -1.3014 H   0  0  0  0  0  0  0  0  0  0  0  0
    0.4063   -2.0503   -1.4397 C   0  0  0  0  0  0  0  0  0  0  0  0
    1.4434   -2.7970   -0.9150 N   0  3  0  0  0  0  0  0  0  0  0  0
    2.1184   -2.4293   -0.2382 H   0  0  0  0  0  0  0  0  0  0  0  0
    1.3316   -4.0604   -1.3709 C   0  0  0  0  0  0  0  0  0  0  0  0
    1.9989   -4.8820   -1.1186 H   0  0  0  0  0  0  0  0  0  0  0  0
    0.2465   -4.1314   -2.1746 N   0  0  0  0  0  0  0  0  0  0  0  0
   -0.0855   -4.9623   -2.6572 H   0  0  0  0  0  0  0  0  0  0  0  0
   -0.3462   -2.8775   -2.2289 C   0  0  0  0  0  0  0  0  0  0  0  0
   -1.2357   -2.5967   -2.7861 H   0  0  0  0  0  0  0  0  0  0  0  0
   -0.4406    1.2529    0.5655 C   0  0  0  0  0  0  0  0  0  0  0  0
   -0.5547    1.6235    1.7349 O   0  0  0  0  0  0  0  0  0  0  0  0
   -0.3498    2.1047   -0.4632 N   0  0  0  0  0  0  0  0  0  0  0  0
   -0.2478    1.7104   -1.3860 H   0  0  0  0  0  0  0  0  0  0  0  0
   -0.3899    3.5664   -0.3573 C   0  0  0  0  0  0  0  0  0  0  0  0
    0.6206    3.9749   -0.4221 H   0  0  0  0  0  0  0  0  0  0  0  0
   -0.9860    3.9827   -1.1712 H   0  0  0  0  0  0  0  0  0  0  0  0
   -0.8334    3.8760    0.5915 H   0  0  0  0  0  0  0  0  0  0  0  0
  5  6  2  0  0  0  0
  5  7  1  0  0  0  0
  2  3  1  0  0  0  0
  2  4  1  0  0  0  0
  2  5  1  0  0  0  0
  1  2  1  0  0  0  0
 23 24  2  0  0  0  0
 23 25  1  0  0  0  0
 21 22  1  0  0  0  0
 19 20  1  0  0  0  0
 19 21  1  0  0  0  0
 17 18  1  0  0  0  0
 17 19  1  0  0  0  0
 15 16  1  0  0  0  0
 15 17  2  0  0  0  0
 14 15  1  0  0  0  0
 14 21  2  0  0  0  0
 11 12  1  0  0  0  0
 11 13  1  0  0  0  0
 11 14  1  0  0  0  0
  9 10  1  0  0  0  0
  9 11  1  0  0  0  0
  9 23  1  0  0  0  0
  7  8  1  0  0  0  0
  7  9  1  0  0  0  0
 27 28  1  0  0  0  0
 27 29  1  0  0  0  0
 27 30  1  0  0  0  0
 25 26  1  0  0  0  0
 25 27  1  0  0  0  0
M  CHG  1  15   1
M  END
$$$$
default_name
  -OEChem-01062215323D

 30 30  0     1  0  0  0  0  0999 V2000
   -3.5507   -3.2183    1.8116 H   0  0  0  0  0  0  0  0  0  0  0  0
   -3.4597   -2.3913    1.1076 C   0  0  0  0  0  0  0  0  0  0  0  0
   -4.1577   -1.6043    1.3866 H   0  0  0  0  0  0  0  0  0  0  0  0
   -3.6807   -2.7523    0.1036 H   0  0  0  0  0  0  0  0  0  0  0  0
   -2.0477   -1.8543    1.1546 C   0  0  0  0  0  0  0  0  0  0  0  0
   -1.2227   -2.3443    1.9146 O   0  0  0  0  0  0  0  0  0  0  0  0
   -1.7517   -0.8483    0.3266 N   0  0  0  0  0  0  0  0  0  0  0  0
   -2.4847   -0.5123   -0.2804 H   0  0  0  0  0  0  0  0  0  0  0  0
   -0.4117   -0.2463    0.2186 C   0  0  1  0  0  0  0  0  0  0  0  0
    0.2361   -0.7228    0.9586 H   0  0  0  0  0  0  0  0  0  0  0  0
    0.1670   -0.5787   -1.1763 C   0  0  0  0  0  0  0  0  0  0  0  0
   -0.5161   -0.1934   -1.9375 H   0  0  0  0  0  0  0  0  0  0  0  0
    1.1159   -0.0529   -1.3014 H   0  0  0  0  0  0  0  0  0  0  0  0
    0.4063   -2.0503   -1.4397 C   0  0  0  0  0  0  0  0  0  0  0  0
    1.4434   -2.7970   -0.9150 N   0  3  0  0  0  0  0  0  0  0  0  0
    2.1184   -2.4293   -0.2382 H   0  0  0  0  0  0  0  0  0  0  0  0
    1.3316   -4.0604   -1.3709 C   0  0  0  0  0  0  0  0  0  0  0  0
    1.9989   -4.8820   -1.1186 H   0  0  0  0  0  0  0  0  0  0  0  0
    0.2465   -4.1314   -2.1746 N   0  0  0  0  0  0  0  0  0  0  0  0
   -0.0855   -4.9623   -2.6572 H   0  0  0  0  0  0  0  0  0  0  0  0
   -0.3462   -2.8775   -2.2289 C   0  0  0  0  0  0  0  0  0  0  0  0
   -1.2357   -2.5967   -2.7861 H   0  0  0  0  0  0  0  0  0  0  0  0
   -0.4406    1.2529    0.5655 C   0  0  0  0  0  0  0  0  0  0  0  0
   -0.2780    1.6307    1.7268 O   0  0  0  0  0  0  0  0  0  0  0  0
   -0.6623    2.0958   -0.4506 N   0  0  0  0  0  0  0  0  0  0  0  0
   -0.7731    1.6966   -1.3703 H   0  0  0  0  0  0  0  0  0  0  0  0
   -0.7605    3.5539   -0.3341 C   0  0  0  0  0  0  0  0  0  0  0  0
    0.1751    4.0192   -0.6507 H   0  0  0  0  0  0  0  0  0  0  0  0
   -1.5659    3.9250   -0.9703 H   0  0  0  0  0  0  0  0  0  0  0  0
   -0.9681    3.8491    0.6966 H   0  0  0  0  0  0  0  0  0  0  0  0
  5  6  2  0  0  0  0
  5  7  1  0  0  0  0
  2  3  1  0  0  0  0
  2  4  1  0  0  0  0
  2  5  1  0  0  0  0
  1  2  1  0  0  0  0
 23 24  2  0  0  0  0
 23 25  1  0  0  0  0
 21 22  1  0  0  0  0
 19 20  1  0  0  0  0
 19 21  1  0  0  0  0
 17 18  1  0  0  0  0
 17 19  1  0  0  0  0
 15 16  1  0  0  0  0
 15 17  2  0  0  0  0
 14 15  1  0  0  0  0
 14 21  2  0  0  0  0
 11 12  1  0  0  0  0
 11 13  1  0  0  0  0
 11 14  1  0  0  0  0
  9 10  1  0  0  0  0
  9 11  1  0  0  0  0
  9 23  1  0  0  0  0
  7  8  1  0  0  0  0
  7  9  1  0  0  0  0
 27 28  1  0  0  0  0
 27 29  1  0  0  0  0
 27 30  1  0  0  0  0
 25 26  1  0  0  0  0
 25 27  1  0  0  0  0
M  CHG  1  15   1
M  END
$$$$
default_name
  -OEChem-01062215323D

 30 30  0     1  0  0  0  0  0999 V2000
   -3.5507   -3.2183    1.8116 H   0  0  0  0  0  0  0  0  0  0  0  0
   -3.4597   -2.3913    1.1076 C   0  0  0  0  0  0  0  0  0  0  0  0
   -4.1577   -1.6043    1.3866 H   0  0  0  0  0  0  0  0  0  0  0  0
   -3.6807   -2.7523    0.1036 H   0  0  0  0  0  0  0  0  0  0  0  0
   -2.0477   -1.8543    1.1546 C   0  0  0  0  0  0  0  0  0  0  0  0
   -1.2227   -2.3443    1.9146 O   0  0  0  0  0  0  0  0  0  0  0  0
   -1.7517   -0.8483    0.3266 N   0  0  0  0  0  0  0  0  0  0  0  0
   -2.4847   -0.5123   -0.2804 H   0  0  0  0  0  0  0  0  0  0  0  0
   -0.4117   -0.2463    0.2186 C   0  0  1  0  0  0  0  0  0  0  0  0
    0.2361   -0.7228    0.9586 H   0  0  0  0  0  0  0  0  0  0  0  0
    0.1670   -0.5787   -1.1763 C   0  0  0  0  0  0  0  0  0  0  0  0
   -0.5161   -0.1934   -1.9375 H   0  0  0  0  0  0  0  0  0  0  0  0
    1.1159   -0.0529   -1.3014 H   0  0  0  0  0  0  0  0  0  0  0  0
    0.4063   -2.0503   -1.4397 C   0  0  0  0  0  0  0  0  0  0  0  0
    1.4434   -2.7970   -0.9150 N   0  3  0  0  0  0  0  0  0  0  0  0
    2.1184   -2.4293   -0.2382 H   0  0  0  0  0  0  0  0  0  0  0  0
    1.3316   -4.0604   -1.3709 C   0  0  0  0  0  0  0  0  0  0  0  0
    1.9989   -4.8820   -1.1186 H   0  0  0  0  0  0  0  0  0  0  0  0
    0.2465   -4.1314   -2.1746 N   0  0  0  0  0  0  0  0  0  0  0  0
   -0.0855   -4.9623   -2.6572 H   0  0  0  0  0  0  0  0  0  0  0  0
   -0.3462   -2.8775   -2.2289 C   0  0  0  0  0  0  0  0  0  0  0  0
   -1.2357   -2.5967   -2.7861 H   0  0  0  0  0  0  0  0  0  0  0  0
   -0.4406    1.2529    0.5655 C   0  0  0  0  0  0  0  0  0  0  0  0
   -0.0132    1.6538    1.6492 O   0  0  0  0  0  0  0  0  0  0  0  0
   -0.9605    2.0690   -0.3596 N   0  0  0  0  0  0  0  0  0  0  0  0
   -1.2757    1.6528   -1.2227 H   0  0  0  0  0  0  0  0  0  0  0  0
   -1.1120    3.5203   -0.2183 C   0  0  0  0  0  0  0  0  0  0  0  0
   -0.3154    4.0349   -0.7594 H   0  0  0  0  0  0  0  0  0  0  0  0
   -2.0721    3.8364   -0.6298 H   0  0  0  0  0  0  0  0  0  0  0  0
   -1.0701    3.8157    0.8322 H   0  0  0  0  0  0  0  0  0  0  0  0
  5  6  2  0  0  0  0
  5  7  1  0  0  0  0
  2  3  1  0  0  0  0
  2  4  1  0  0  0  0
  2  5  1  0  0  0  0
  1  2  1  0  0  0  0
 23 24  2  0  0  0  0
 23 25  1  0  0  0  0
 21 22  1  0  0  0  0
 19 20  1  0  0  0  0
 19 21  1  0  0  0  0
 17 18  1  0  0  0  0
 17 19  1  0  0  0  0
 15 16  1  0  0  0  0
 15 17  2  0  0  0  0
 14 15  1  0  0  0  0
 14 21  2  0  0  0  0
 11 12  1  0  0  0  0
 11 13  1  0  0  0  0
 11 14  1  0  0  0  0
  9 10  1  0  0  0  0
  9 11  1  0  0  0  0
  9 23  1  0  0  0  0
  7  8  1  0  0  0  0
  7  9  1  0  0  0  0
 27 28  1  0  0  0  0
 27 29  1  0  0  0  0
 27 30  1  0  0  0  0
 25 26  1  0  0  0  0
 25 27  1  0  0  0  0
M  CHG  1  15   1
M  END
$$$$
default_name
  -OEChem-01062215323D

 30 30  0     1  0  0  0  0  0999 V2000
   -3.5507   -3.2183    1.8116 H   0  0  0  0  0  0  0  0  0  0  0  0
   -3.4597   -2.3913    1.1076 C   0  0  0  0  0  0  0  0  0  0  0  0
   -4.1577   -1.6043    1.3866 H   0  0  0  0  0  0  0  0  0  0  0  0
   -3.6807   -2.7523    0.1036 H   0  0  0  0  0  0  0  0  0  0  0  0
   -2.0477   -1.8543    1.1546 C   0  0  0  0  0  0  0  0  0  0  0  0
   -1.2227   -2.3443    1.9146 O   0  0  0  0  0  0  0  0  0  0  0  0
   -1.7517   -0.8483    0.3266 N   0  0  0  0  0  0  0  0  0  0  0  0
   -2.4847   -0.5123   -0.2804 H   0  0  0  0  0  0  0  0  0  0  0  0
   -0.4117   -0.2463    0.2186 C   0  0  1  0  0  0  0  0  0  0  0  0
    0.2361   -0.7228    0.9586 H   0  0  0  0  0  0  0  0  0  0  0  0
    0.1670   -0.5787   -1.1763 C   0  0  0  0  0  0  0  0  0  0  0  0
   -0.5161   -0.1934   -1.9375 H   0  0  0  0  0  0  0  0  0  0  0  0
    1.1159   -0.0529   -1.3014 H   0  0  0  0  0  0  0  0  0  0  0  0
    0.4063   -2.0503   -1.4397 C   0  0  0  0  0  0  0  0  0  0  0  0
    1.4434   -2.7970   -0.9150 N   0  3  0  0  0  0  0  0  0  0  0  0
    2.1184   -2.4293   -0.2382 H   0  0  0  0  0  0  0  0  0  0  0  0
    1.3316   -4.0604   -1.3709 C   0  0  0  0  0  0  0  0  0  0  0  0
    1.9989   -4.8820   -1.1186 H   0  0  0  0  0  0  0  0  0  0  0  0
    0.2465   -4.1314   -2.1746 N   0  0  0  0  0  0  0  0  0  0  0  0
   -0.0855   -4.9623   -2.6572 H   0  0  0  0  0  0  0  0  0  0  0  0
   -0.3462   -2.8775   -2.2289 C   0  0  0  0  0  0  0  0  0  0  0  0
   -1.2357   -2.5967   -2.7861 H   0  0  0  0  0  0  0  0  0  0  0  0
   -0.4406    1.2529    0.5655 C   0  0  0  0  0  0  0  0  0  0  0  0
    0.2217    1.6911    1.5074 O   0  0  0  0  0  0  0  0  0  0  0  0
   -1.2240    2.0261   -0.1964 N   0  0  0  0  0  0  0  0  0  0  0  0
   -1.7214    1.5818   -0.9531 H   0  0  0  0  0  0  0  0  0  0  0  0
   -1.4203    3.4680   -0.0177 C   0  0  0  0  0  0  0  0  0  0  0  0
   -0.8175    4.0209   -0.7409 H   0  0  0  0  0  0  0  0  0  0  0  0
   -2.4700    3.7230   -0.1728 H   0  0  0  0  0  0  0  0  0  0  0  0
   -1.1326    3.7782    0.9891 H   0  0  0  0  0  0  0  0  0  0  0  0
  5  6  2  0  0  0  0
  5  7  1  0  0  0  0
  2  3  1  0  0  0  0
  2  4  1  0  0  0  0
  2  5  1  0  0  0  0
  1  2  1  0  0  0  0
 23 24  2  0  0  0  0
 23 25  1  0  0  0  0
 21 22  1  0  0  0  0
 19 20  1  0  0  0  0
 19 21  1  0  0  0  0
 17 18  1  0  0  0  0
 17 19  1  0  0  0  0
 15 16  1  0  0  0  0
 15 17  2  0  0  0  0
 14 15  1  0  0  0  0
 14 21  2  0  0  0  0
 11 12  1  0  0  0  0
 11 13  1  0  0  0  0
 11 14  1  0  0  0  0
  9 10  1  0  0  0  0
  9 11  1  0  0  0  0
  9 23  1  0  0  0  0
  7  8  1  0  0  0  0
  7  9  1  0  0  0  0
 27 28  1  0  0  0  0
 27 29  1  0  0  0  0
 27 30  1  0  0  0  0
 25 26  1  0  0  0  0
 25 27  1  0  0  0  0
M  CHG  1  15   1
M  END
$$$$
default_name
  -OEChem-01062215323D

 30 30  0     1  0  0  0  0  0999 V2000
   -3.5507   -3.2183    1.8116 H   0  0  0  0  0  0  0  0  0  0  0  0
   -3.4597   -2.3913    1.1076 C   0  0  0  0  0  0  0  0  0  0  0  0
   -4.1577   -1.6043    1.3866 H   0  0  0  0  0  0  0  0  0  0  0  0
   -3.6807   -2.7523    0.1036 H   0  0  0  0  0  0  0  0  0  0  0  0
   -2.0477   -1.8543    1.1546 C   0  0  0  0  0  0  0  0  0  0  0  0
   -1.2227   -2.3443    1.9146 O   0  0  0  0  0  0  0  0  0  0  0  0
   -1.7517   -0.8483    0.3266 N   0  0  0  0  0  0  0  0  0  0  0  0
   -2.4847   -0.5123   -0.2804 H   0  0  0  0  0  0  0  0  0  0  0  0
   -0.4117   -0.2463    0.2186 C   0  0  1  0  0  0  0  0  0  0  0  0
    0.2361   -0.7228    0.9586 H   0  0  0  0  0  0  0  0  0  0  0  0
    0.1670   -0.5787   -1.1763 C   0  0  0  0  0  0  0  0  0  0  0  0
   -0.5161   -0.1934   -1.9375 H   0  0  0  0  0  0  0  0  0  0  0  0
    1.1159   -0.0529   -1.3014 H   0  0  0  0  0  0  0  0  0  0  0  0
    0.4063   -2.0503   -1.4397 C   0  0  0  0  0  0  0  0  0  0  0  0
    1.4434   -2.7970   -0.9150 N   0  3  0  0  0  0  0  0  0  0  0  0
    2.1184   -2.4293   -0.2382 H   0  0  0  0  0  0  0  0  0  0  0  0
    1.3316   -4.0604   -1.3709 C   0  0  0  0  0  0  0  0  0  0  0  0
    1.9989   -4.8820   -1.1186 H   0  0  0  0  0  0  0  0  0  0  0  0
    0.2465   -4.1314   -2.1746 N   0  0  0  0  0  0  0  0  0  0  0  0
   -0.0855   -4.9623   -2.6572 H   0  0  0  0  0  0  0  0  0  0  0  0
   -0.3462   -2.8775   -2.2289 C   0  0  0  0  0  0  0  0  0  0  0  0
   -1.2357   -2.5967   -2.7861 H   0  0  0  0  0  0  0  0  0  0  0  0
   -0.4406    1.2529    0.5655 C   0  0  0  0  0  0  0  0  0  0  0  0
    0.4106    1.7402    1.3110 O   0  0  0  0  0  0  0  0  0  0  0  0
   -1.4349    1.9702    0.0278 N   0  0  0  0  0  0  0  0  0  0  0  0
   -2.0798    1.4886   -0.5801 H   0  0  0  0  0  0  0  0  0  0  0  0
   -1.6644    3.4004    0.2541 C   0  0  0  0  0  0  0  0  0  0  0  0
   -1.2970    3.9782   -0.5963 H   0  0  0  0  0  0  0  0  0  0  0  0
   -2.7326    3.5925    0.3695 H   0  0  0  0  0  0  0  0  0  0  0  0
   -1.1512    3.7391    1.1565 H   0  0  0  0  0  0  0  0  0  0  0  0
  5  6  2  0  0  0  0
  5  7  1  0  0  0  0
  2  3  1  0  0  0  0
  2  4  1  0  0  0  0
  2  5  1  0  0  0  0
  1  2  1  0  0  0  0
 23 24  2  0  0  0  0
 23 25  1  0  0  0  0
 21 22  1  0  0  0  0
 19 20  1  0  0  0  0
 19 21  1  0  0  0  0
 17 18  1  0  0  0  0
 17 19  1  0  0  0  0
 15 16  1  0  0  0  0
 15 17  2  0  0  0  0
 14 15  1  0  0  0  0
 14 21  2  0  0  0  0
 11 12  1  0  0  0  0
 11 13  1  0  0  0  0
 11 14  1  0  0  0  0
  9 10  1  0  0  0  0
  9 11  1  0  0  0  0
  9 23  1  0  0  0  0
  7  8  1  0  0  0  0
  7  9  1  0  0  0  0
 27 28  1  0  0  0  0
 27 29  1  0  0  0  0
 27 30  1  0  0  0  0
 25 26  1  0  0  0  0
 25 27  1  0  0  0  0
M  CHG  1  15   1
M  END
$$$$
default_name
  -OEChem-01062215323D

 30 30  0     1  0  0  0  0  0999 V2000
   -3.5507   -3.2183    1.8116 H   0  0  0  0  0  0  0  0  0  0  0  0
   -3.4597   -2.3913    1.1076 C   0  0  0  0  0  0  0  0  0  0  0  0
   -4.1577   -1.6043    1.3866 H   0  0  0  0  0  0  0  0  0  0  0  0
   -3.6807   -2.7523    0.1036 H   0  0  0  0  0  0  0  0  0  0  0  0
   -2.0477   -1.8543    1.1546 C   0  0  0  0  0  0  0  0  0  0  0  0
   -1.2227   -2.3443    1.9146 O   0  0  0  0  0  0  0  0  0  0  0  0
   -1.7517   -0.8483    0.3266 N   0  0  0  0  0  0  0  0  0  0  0  0
   -2.4847   -0.5123   -0.2804 H   0  0  0  0  0  0  0  0  0  0  0  0
   -0.4117   -0.2463    0.2186 C   0  0  1  0  0  0  0  0  0  0  0  0
    0.2361   -0.7228    0.9586 H   0  0  0  0  0  0  0  0  0  0  0  0
    0.1670   -0.5787   -1.1763 C   0  0  0  0  0  0  0  0  0  0  0  0
   -0.5161   -0.1934   -1.9375 H   0  0  0  0  0  0  0  0  0  0  0  0
    1.1159   -0.0529   -1.3014 H   0  0  0  0  0  0  0  0  0  0  0  0
    0.4063   -2.0503   -1.4397 C   0  0  0  0  0  0  0  0  0  0  0  0
    1.4434   -2.7970   -0.9150 N   0  3  0  0  0  0  0  0  0  0  0  0
    2.1184   -2.4293   -0.2382 H   0  0  0  0  0  0  0  0  0  0  0  0
    1.3316   -4.0604   -1.3709 C   0  0  0  0  0  0  0  0  0  0  0  0
    1.9989   -4.8820   -1.1186 H   0  0  0  0  0  0  0  0  0  0  0  0
    0.2465   -4.1314   -2.1746 N   0  0  0  0  0  0  0  0  0  0  0  0
   -0.0855   -4.9623   -2.6572 H   0  0  0  0  0  0  0  0  0  0  0  0
   -0.3462   -2.8775   -2.2289 C   0  0  0  0  0  0  0  0  0  0  0  0
   -1.2357   -2.5967   -2.7861 H   0  0  0  0  0  0  0  0  0  0  0  0
   -0.4406    1.2529    0.5655 C   0  0  0  0  0  0  0  0  0  0  0  0
    0.5407    1.7977    1.0734 O   0  0  0  0  0  0  0  0  0  0  0  0
   -1.5788    1.9049    0.2979 N   0  0  0  0  0  0  0  0  0  0  0  0
   -2.3265    1.3794   -0.1289 H   0  0  0  0  0  0  0  0  0  0  0  0
   -1.8278    3.3221    0.5785 C   0  0  0  0  0  0  0  0  0  0  0  0
   -1.7213    3.9097   -0.3356 H   0  0  0  0  0  0  0  0  0  0  0  0
   -2.8418    3.4537    0.9601 H   0  0  0  0  0  0  0  0  0  0  0  0
   -1.1246    3.7011    1.3232 H   0  0  0  0  0  0  0  0  0  0  0  0
  5  6  2  0  0  0  0
  5  7  1  0  0  0  0
  2  3  1  0  0  0  0
  2  4  1  0  0  0  0
  2  5  1  0  0  0  0
  1  2  1  0  0  0  0
 23 24  2  0  0  0  0
 23 25  1  0  0  0  0
 21 22  1  0  0  0  0
 19 20  1  0  0  0  0
 19 21  1  0  0  0  0
 17 18  1  0  0  0  0
 17 19  1  0  0  0  0
 15 16  1  0  0  0  0
 15 17  2  0  0  0  0
 14 15  1  0  0  0  0
 14 21  2  0  0  0  0
 11 12  1  0  0  0  0
 11 13  1  0  0  0  0
 11 14  1  0  0  0  0
  9 10  1  0  0  0  0
  9 11  1  0  0  0  0
  9 23  1  0  0  0  0
  7  8  1  0  0  0  0
  7  9  1  0  0  0  0
 27 28  1  0  0  0  0
 27 29  1  0  0  0  0
 27 30  1  0  0  0  0
 25 26  1  0  0  0  0
 25 27  1  0  0  0  0
M  CHG  1  15   1
M  END
$$$$
default_name
  -OEChem-01062215323D

 30 30  0     1  0  0  0  0  0999 V2000
   -3.5507   -3.2183    1.8116 H   0  0  0  0  0  0  0  0  0  0  0  0
   -3.4597   -2.3913    1.1076 C   0  0  0  0  0  0  0  0  0  0  0  0
   -4.1577   -1.6043    1.3866 H   0  0  0  0  0  0  0  0  0  0  0  0
   -3.6807   -2.7523    0.1036 H   0  0  0  0  0  0  0  0  0  0  0  0
   -2.0477   -1.8543    1.1546 C   0  0  0  0  0  0  0  0  0  0  0  0
   -1.2227   -2.3443    1.9146 O   0  0  0  0  0  0  0  0  0  0  0  0
   -1.7517   -0.8483    0.3266 N   0  0  0  0  0  0  0  0  0  0  0  0
   -2.4847   -0.5123   -0.2804 H   0  0  0  0  0  0  0  0  0  0  0  0
   -0.4117   -0.2463    0.2186 C   0  0  1  0  0  0  0  0  0  0  0  0
    0.2361   -0.7228    0.9586 H   0  0  0  0  0  0  0  0  0  0  0  0
    0.1670   -0.5787   -1.1763 C   0  0  0  0  0  0  0  0  0  0  0  0
   -0.5161   -0.1934   -1.9375 H   0  0  0  0  0  0  0  0  0  0  0  0
    1.1159   -0.0529   -1.3014 H   0  0  0  0  0  0  0  0  0  0  0  0
    0.4063   -2.0503   -1.4397 C   0  0  0  0  0  0  0  0  0  0  0  0
    1.4434   -2.7970   -0.9150 N   0  3  0  0  0  0  0  0  0  0  0  0
    2.1184   -2.4293   -0.2382 H   0  0  0  0  0  0  0  0  0  0  0  0
    1.3316   -4.0604   -1.3709 C   0  0  0  0  0  0  0  0  0  0  0  0
    1.9989   -4.8820   -1.1186 H   0  0  0  0  0  0  0  0  0  0  0  0
    0.2465   -4.1314   -2.1746 N   0  0  0  0  0  0  0  0  0  0  0  0
   -0.0855   -4.9623   -2.6572 H   0  0  0  0  0  0  0  0  0  0  0  0
   -0.3462   -2.8775   -2.2289 C   0  0  0  0  0  0  0  0  0  0  0  0
   -1.2357   -2.5967   -2.7861 H   0  0  0  0  0  0  0  0  0  0  0  0
   -0.4406    1.2529    0.5655 C   0  0  0  0  0  0  0  0  0  0  0  0
    0.6032    1.8596    0.8109 O   0  0  0  0  0  0  0  0  0  0  0  0
   -1.6459    1.8348    0.5954 N   0  0  0  0  0  0  0  0  0  0  0  0
   -2.4447    1.2618    0.3696 H   0  0  0  0  0  0  0  0  0  0  0  0
   -1.8993    3.2386    0.9334 C   0  0  0  0  0  0  0  0  0  0  0  0
   -2.0613    3.8200    0.0236 H   0  0  0  0  0  0  0  0  0  0  0  0
   -2.7904    3.3162    1.5588 H   0  0  0  0  0  0  0  0  0  0  0  0
   -1.0547    3.6667    1.4776 H   0  0  0  0  0  0  0  0  0  0  0  0
  5  6  2  0  0  0  0
  5  7  1  0  0  0  0
  2  3  1  0  0  0  0
  2  4  1  0  0  0  0
  2  5  1  0  0  0  0
  1  2  1  0  0  0  0
 23 24  2  0  0  0  0
 23 25  1  0  0  0  0
 21 22  1  0  0  0  0
 19 20  1  0  0  0  0
 19 21  1  0  0  0  0
 17 18  1  0  0  0  0
 17 19  1  0  0  0  0
 15 16  1  0  0  0  0
 15 17  2  0  0  0  0
 14 15  1  0  0  0  0
 14 21  2  0  0  0  0
 11 12  1  0  0  0  0
 11 13  1  0  0  0  0
 11 14  1  0  0  0  0
  9 10  1  0  0  0  0
  9 11  1  0  0  0  0
  9 23  1  0  0  0  0
  7  8  1  0  0  0  0
  7  9  1  0  0  0  0
 27 28  1  0  0  0  0
 27 29  1  0  0  0  0
 27 30  1  0  0  0  0
 25 26  1  0  0  0  0
 25 27  1  0  0  0  0
M  CHG  1  15   1
M  END
$$$$
default_name
  -OEChem-01062215323D

 30 30  0     1  0  0  0  0  0999 V2000
   -3.5507   -3.2183    1.8116 H   0  0  0  0  0  0  0  0  0  0  0  0
   -3.4597   -2.3913    1.1076 C   0  0  0  0  0  0  0  0  0  0  0  0
   -4.1577   -1.6043    1.3866 H   0  0  0  0  0  0  0  0  0  0  0  0
   -3.6807   -2.7523    0.1036 H   0  0  0  0  0  0  0  0  0  0  0  0
   -2.0477   -1.8543    1.1546 C   0  0  0  0  0  0  0  0  0  0  0  0
   -1.2227   -2.3443    1.9146 O   0  0  0  0  0  0  0  0  0  0  0  0
   -1.7517   -0.8483    0.3266 N   0  0  0  0  0  0  0  0  0  0  0  0
   -2.4847   -0.5123   -0.2804 H   0  0  0  0  0  0  0  0  0  0  0  0
   -0.4117   -0.2463    0.2186 C   0  0  1  0  0  0  0  0  0  0  0  0
    0.2361   -0.7228    0.9586 H   0  0  0  0  0  0  0  0  0  0  0  0
    0.1670   -0.5787   -1.1763 C   0  0  0  0  0  0  0  0  0  0  0  0
   -0.5161   -0.1934   -1.9375 H   0  0  0  0  0  0  0  0  0  0  0  0
    1.1159   -0.0529   -1.3014 H   0  0  0  0  0  0  0  0  0  0  0  0
    0.4063   -2.0503   -1.4397 C   0  0  0  0  0  0  0  0  0  0  0  0
    1.4434   -2.7970   -0.9150 N   0  3  0  0  0  0  0  0  0  0  0  0
    2.1184   -2.4293   -0.2382 H   0  0  0  0  0  0  0  0  0  0  0  0
    1.3316   -4.0604   -1.3709 C   0  0  0  0  0  0  0  0  0  0  0  0
    1.9989   -4.8820   -1.1186 H   0  0  0  0  0  0  0  0  0  0  0  0
    0.2465   -4.1314   -2.1746 N   0  0  0  0  0  0  0  0  0  0  0  0
   -0.0855   -4.9623   -2.6572 H   0  0  0  0  0  0  0  0  0  0  0  0
   -0.3462   -2.8775   -2.2289 C   0  0  0  0  0  0  0  0  0  0  0  0
   -1.2357   -2.5967   -2.7861 H   0  0  0  0  0  0  0  0  0  0  0  0
   -0.4406    1.2529    0.5655 C   0  0  0  0  0  0  0  0  0  0  0  0
    0.5937    1.9218    0.5412 O   0  0  0  0  0  0  0  0  0  0  0  0
   -1.6316    1.7646    0.9000 N   0  0  0  0  0  0  0  0  0  0  0  0
   -2.4263    1.1437    0.8815 H   0  0  0  0  0  0  0  0  0  0  0  0
   -1.8740    3.1555    1.2947 C   0  0  0  0  0  0  0  0  0  0  0  0
   -2.2940    3.7153    0.4567 H   0  0  0  0  0  0  0  0  0  0  0  0
   -2.5817    3.1893    2.1248 H   0  0  0  0  0  0  0  0  0  0  0  0
   -0.9463    3.6383    1.6094 H   0  0  0  0  0  0  0  0  0  0  0  0
  5  6  2  0  0  0  0
  5  7  1  0  0  0  0
  2  3  1  0  0  0  0
  2  4  1  0  0  0  0
  2  5  1  0  0  0  0
  1  2  1  0  0  0  0
 23 24  2  0  0  0  0
 23 25  1  0  0  0  0
 21 22  1  0  0  0  0
 19 20  1  0  0  0  0
 19 21  1  0  0  0  0
 17 18  1  0  0  0  0
 17 19  1  0  0  0  0
 15 16  1  0  0  0  0
 15 17  2  0  0  0  0
 14 15  1  0  0  0  0
 14 21  2  0  0  0  0
 11 12  1  0  0  0  0
 11 13  1  0  0  0  0
 11 14  1  0  0  0  0
  9 10  1  0  0  0  0
  9 11  1  0  0  0  0
  9 23  1  0  0  0  0
  7  8  1  0  0  0  0
  7  9  1  0  0  0  0
 27 28  1  0  0  0  0
 27 29  1  0  0  0  0
 27 30  1  0  0  0  0
 25 26  1  0  0  0  0
 25 27  1  0  0  0  0
M  CHG  1  15   1
M  END
$$$$
default_name
  -OEChem-01062215323D

 30 30  0     1  0  0  0  0  0999 V2000
   -3.5507   -3.2183    1.8116 H   0  0  0  0  0  0  0  0  0  0  0  0
   -3.4597   -2.3913    1.1076 C   0  0  0  0  0  0  0  0  0  0  0  0
   -4.1577   -1.6043    1.3866 H   0  0  0  0  0  0  0  0  0  0  0  0
   -3.6807   -2.7523    0.1036 H   0  0  0  0  0  0  0  0  0  0  0  0
   -2.0477   -1.8543    1.1546 C   0  0  0  0  0  0  0  0  0  0  0  0
   -1.2227   -2.3443    1.9146 O   0  0  0  0  0  0  0  0  0  0  0  0
   -1.7517   -0.8483    0.3266 N   0  0  0  0  0  0  0  0  0  0  0  0
   -2.4847   -0.5123   -0.2804 H   0  0  0  0  0  0  0  0  0  0  0  0
   -0.4117   -0.2463    0.2186 C   0  0  1  0  0  0  0  0  0  0  0  0
    0.2361   -0.7228    0.9586 H   0  0  0  0  0  0  0  0  0  0  0  0
    0.1670   -0.5787   -1.1763 C   0  0  0  0  0  0  0  0  0  0  0  0
   -0.5161   -0.1934   -1.9375 H   0  0  0  0  0  0  0  0  0  0  0  0
    1.1159   -0.0529   -1.3014 H   0  0  0  0  0  0  0  0  0  0  0  0
    0.4063   -2.0503   -1.4397 C   0  0  0  0  0  0  0  0  0  0  0  0
    1.4434   -2.7970   -0.9150 N   0  3  0  0  0  0  0  0  0  0  0  0
    2.1184   -2.4293   -0.2382 H   0  0  0  0  0  0  0  0  0  0  0  0
    1.3316   -4.0604   -1.3709 C   0  0  0  0  0  0  0  0  0  0  0  0
    1.9989   -4.8820   -1.1186 H   0  0  0  0  0  0  0  0  0  0  0  0
    0.2465   -4.1314   -2.1746 N   0  0  0  0  0  0  0  0  0  0  0  0
   -0.0855   -4.9623   -2.6572 H   0  0  0  0  0  0  0  0  0  0  0  0
   -0.3462   -2.8775   -2.2289 C   0  0  0  0  0  0  0  0  0  0  0  0
   -1.2357   -2.5967   -2.7861 H   0  0  0  0  0  0  0  0  0  0  0  0
   -0.4406    1.2529    0.5655 C   0  0  0  0  0  0  0  0  0  0  0  0
    0.5129    1.9801    0.2829 O   0  0  0  0  0  0  0  0  0  0  0  0
   -1.5369    1.6991    1.1909 N   0  0  0  0  0  0  0  0  0  0  0  0
   -2.2726    1.0332    1.3719 H   0  0  0  0  0  0  0  0  0  0  0  0
   -1.7536    3.0785    1.6377 C   0  0  0  0  0  0  0  0  0  0  0  0
   -2.4035    3.6027    0.9342 H   0  0  0  0  0  0  0  0  0  0  0  0
   -2.2300    3.0816    2.6196 H   0  0  0  0  0  0  0  0  0  0  0  0
   -0.8067    3.6178    1.7094 H   0  0  0  0  0  0  0  0  0  0  0  0
  5  6  2  0  0  0  0
  5  7  1  0  0  0  0
  2  3  1  0  0  0  0
  2  4  1  0  0  0  0
  2  5  1  0  0  0  0
  1  2  1  0  0  0  0
 23 24  2  0  0  0  0
 23 25  1  0  0  0  0
 21 22  1  0  0  0  0
 19 20  1  0  0  0  0
 19 21  1  0  0  0  0
 17 18  1  0  0  0  0
 17 19  1  0  0  0  0
 15 16  1  0  0  0  0
 15 17  2  0  0  0  0
 14 15  1  0  0  0  0
 14 21  2  0  0  0  0
 11 12  1  0  0  0  0
 11 13  1  0  0  0  0
 11 14  1  0  0  0  0
  9 10  1  0  0  0  0
  9 11  1  0  0  0  0
  9 23  1  0  0  0  0
  7  8  1  0  0  0  0
  7  9  1  0  0  0  0
 27 28  1  0  0  0  0
 27 29  1  0  0  0  0
 27 30  1  0  0  0  0
 25 26  1  0  0  0  0
 25 27  1  0  0  0  0
M  CHG  1  15   1
M  END
$$$$
default_name
  -OEChem-01062215323D

 30 30  0     1  0  0  0  0  0999 V2000
   -3.5507   -3.2183    1.8116 H   0  0  0  0  0  0  0  0  0  0  0  0
   -3.4597   -2.3913    1.1076 C   0  0  0  0  0  0  0  0  0  0  0  0
   -4.1577   -1.6043    1.3866 H   0  0  0  0  0  0  0  0  0  0  0  0
   -3.6807   -2.7523    0.1036 H   0  0  0  0  0  0  0  0  0  0  0  0
   -2.0477   -1.8543    1.1546 C   0  0  0  0  0  0  0  0  0  0  0  0
   -1.2227   -2.3443    1.9146 O   0  0  0  0  0  0  0  0  0  0  0  0
   -1.7517   -0.8483    0.3266 N   0  0  0  0  0  0  0  0  0  0  0  0
   -2.4847   -0.5123   -0.2804 H   0  0  0  0  0  0  0  0  0  0  0  0
   -0.4117   -0.2463    0.2186 C   0  0  1  0  0  0  0  0  0  0  0  0
    0.2361   -0.7228    0.9586 H   0  0  0  0  0  0  0  0  0  0  0  0
    0.1670   -0.5787   -1.1763 C   0  0  0  0  0  0  0  0  0  0  0  0
   -0.5161   -0.1934   -1.9375 H   0  0  0  0  0  0  0  0  0  0  0  0
    1.1159   -0.0529   -1.3014 H   0  0  0  0  0  0  0  0  0  0  0  0
    0.4063   -2.0503   -1.4397 C   0  0  0  0  0  0  0  0  0  0  0  0
    1.4434   -2.7970   -0.9150 N   0  3  0  0  0  0  0  0  0  0  0  0
    2.1184   -2.4293   -0.2382 H   0  0  0  0  0  0  0  0  0  0  0  0
    1.3316   -4.0604   -1.3709 C   0  0  0  0  0  0  0  0  0  0  0  0
    1.9989   -4.8820   -1.1186 H   0  0  0  0  0  0  0  0  0  0  0  0
    0.2465   -4.1314   -2.1746 N   0  0  0  0  0  0  0  0  0  0  0  0
   -0.0855   -4.9623   -2.6572 H   0  0  0  0  0  0  0  0  0  0  0  0
   -0.3462   -2.8775   -2.2289 C   0  0  0  0  0  0  0  0  0  0  0  0
   -1.2357   -2.5967   -2.7861 H   0  0  0  0  0  0  0  0  0  0  0  0
   -0.4406    1.2529    0.5655 C   0  0  0  0  0  0  0  0  0  0  0  0
    0.3663    2.0303    0.0534 O   0  0  0  0  0  0  0  0  0  0  0  0
   -1.3683    1.6428    1.4484 N   0  0  0  0  0  0  0  0  0  0  0  0
   -1.9940    0.9378    1.8074 H   0  0  0  0  0  0  0  0  0  0  0  0
   -1.5463    3.0128    1.9390 C   0  0  0  0  0  0  0  0  0  0  0  0
   -2.3823    3.4899    1.4235 H   0  0  0  0  0  0  0  0  0  0  0  0
   -1.7593    3.0005    3.0093 H   0  0  0  0  0  0  0  0  0  0  0  0
   -0.6454    3.6067    1.7709 H   0  0  0  0  0  0  0  0  0  0  0  0
  5  6  2  0  0  0  0
  5  7  1  0  0  0  0
  2  3  1  0  0  0  0
  2  4  1  0  0  0  0
  2  5  1  0  0  0  0
  1  2  1  0  0  0  0
 23 24  2  0  0  0  0
 23 25  1  0  0  0  0
 21 22  1  0  0  0  0
 19 20  1  0  0  0  0
 19 21  1  0  0  0  0
 17 18  1  0  0  0  0
 17 19  1  0  0  0  0
 15 16  1  0  0  0  0
 15 17  2  0  0  0  0
 14 15  1  0  0  0  0
 14 21  2  0  0  0  0
 11 12  1  0  0  0  0
 11 13  1  0  0  0  0
 11 14  1  0  0  0  0
  9 10  1  0  0  0  0
  9 11  1  0  0  0  0
  9 23  1  0  0  0  0
  7  8  1  0  0  0  0
  7  9  1  0  0  0  0
 27 28  1  0  0  0  0
 27 29  1  0  0  0  0
 27 30  1  0  0  0  0
 25 26  1  0  0  0  0
 25 27  1  0  0  0  0
M  CHG  1  15   1
M  END
$$$$
default_name
  -OEChem-01062215323D

 30 30  0     1  0  0  0  0  0999 V2000
   -3.5507   -3.2183    1.8116 H   0  0  0  0  0  0  0  0  0  0  0  0
   -3.4597   -2.3913    1.1076 C   0  0  0  0  0  0  0  0  0  0  0  0
   -4.1577   -1.6043    1.3866 H   0  0  0  0  0  0  0  0  0  0  0  0
   -3.6807   -2.7523    0.1036 H   0  0  0  0  0  0  0  0  0  0  0  0
   -2.0477   -1.8543    1.1546 C   0  0  0  0  0  0  0  0  0  0  0  0
   -1.2227   -2.3443    1.9146 O   0  0  0  0  0  0  0  0  0  0  0  0
   -1.7517   -0.8483    0.3266 N   0  0  0  0  0  0  0  0  0  0  0  0
   -2.4847   -0.5123   -0.2804 H   0  0  0  0  0  0  0  0  0  0  0  0
   -0.4117   -0.2463    0.2186 C   0  0  1  0  0  0  0  0  0  0  0  0
    0.2361   -0.7228    0.9586 H   0  0  0  0  0  0  0  0  0  0  0  0
    0.1670   -0.5787   -1.1763 C   0  0  0  0  0  0  0  0  0  0  0  0
   -0.5161   -0.1934   -1.9375 H   0  0  0  0  0  0  0  0  0  0  0  0
    1.1159   -0.0529   -1.3014 H   0  0  0  0  0  0  0  0  0  0  0  0
    0.4063   -2.0503   -1.4397 C   0  0  0  0  0  0  0  0  0  0  0  0
    1.4434   -2.7970   -0.9150 N   0  3  0  0  0  0  0  0  0  0  0  0
    2.1184   -2.4293   -0.2382 H   0  0  0  0  0  0  0  0  0  0  0  0
    1.3316   -4.0604   -1.3709 C   0  0  0  0  0  0  0  0  0  0  0  0
    1.9989   -4.8820   -1.1186 H   0  0  0  0  0  0  0  0  0  0  0  0
    0.2465   -4.1314   -2.1746 N   0  0  0  0  0  0  0  0  0  0  0  0
   -0.0855   -4.9623   -2.6572 H   0  0  0  0  0  0  0  0  0  0  0  0
   -0.3462   -2.8775   -2.2289 C   0  0  0  0  0  0  0  0  0  0  0  0
   -1.2357   -2.5967   -2.7861 H   0  0  0  0  0  0  0  0  0  0  0  0
   -0.4406    1.2529    0.5655 C   0  0  0  0  0  0  0  0  0  0  0  0
    0.1640    2.0692   -0.1316 O   0  0  0  0  0  0  0  0  0  0  0  0
   -1.1372    1.5995    1.6549 N   0  0  0  0  0  0  0  0  0  0  0  0
   -1.6096    0.8641    2.1583 H   0  0  0  0  0  0  0  0  0  0  0  0
   -1.2663    2.9629    2.1781 C   0  0  0  0  0  0  0  0  0  0  0  0
   -2.2318    3.3846    1.8914 H   0  0  0  0  0  0  0  0  0  0  0  0
   -1.2017    2.9515    3.2675 H   0  0  0  0  0  0  0  0  0  0  0  0
   -0.4735    3.6057    1.7898 H   0  0  0  0  0  0  0  0  0  0  0  0
  5  6  2  0  0  0  0
  5  7  1  0  0  0  0
  2  3  1  0  0  0  0
  2  4  1  0  0  0  0
  2  5  1  0  0  0  0
  1  2  1  0  0  0  0
 23 24  2  0  0  0  0
 23 25  1  0  0  0  0
 21 22  1  0  0  0  0
 19 20  1  0  0  0  0
 19 21  1  0  0  0  0
 17 18  1  0  0  0  0
 17 19  1  0  0  0  0
 15 16  1  0  0  0  0
 15 17  2  0  0  0  0
 14 15  1  0  0  0  0
 14 21  2  0  0  0  0
 11 12  1  0  0  0  0
 11 13  1  0  0  0  0
 11 14  1  0  0  0  0
  9 10  1  0  0  0  0
  9 11  1  0  0  0  0
  9 23  1  0  0  0  0
  7  8  1  0  0  0  0
  7  9  1  0  0  0  0
 27 28  1  0  0  0  0
 27 29  1  0  0  0  0
 27 30  1  0  0  0  0
 25 26  1  0  0  0  0
 25 27  1  0  0  0  0
M  CHG  1  15   1
M  END
$$$$
default_name
  -OEChem-01062215323D

 30 30  0     1  0  0  0  0  0999 V2000
   -3.5507   -3.2183    1.8116 H   0  0  0  0  0  0  0  0  0  0  0  0
   -3.4597   -2.3913    1.1076 C   0  0  0  0  0  0  0  0  0  0  0  0
   -4.1577   -1.6043    1.3866 H   0  0  0  0  0  0  0  0  0  0  0  0
   -3.6807   -2.7523    0.1036 H   0  0  0  0  0  0  0  0  0  0  0  0
   -2.0477   -1.8543    1.1546 C   0  0  0  0  0  0  0  0  0  0  0  0
   -1.2227   -2.3443    1.9146 O   0  0  0  0  0  0  0  0  0  0  0  0
   -1.7517   -0.8483    0.3266 N   0  0  0  0  0  0  0  0  0  0  0  0
   -2.4847   -0.5123   -0.2804 H   0  0  0  0  0  0  0  0  0  0  0  0
   -0.4117   -0.2463    0.2186 C   0  0  1  0  0  0  0  0  0  0  0  0
    0.2361   -0.7228    0.9586 H   0  0  0  0  0  0  0  0  0  0  0  0
    0.1670   -0.5787   -1.1763 C   0  0  0  0  0  0  0  0  0  0  0  0
   -0.5161   -0.1934   -1.9375 H   0  0  0  0  0  0  0  0  0  0  0  0
    1.1159   -0.0529   -1.3014 H   0  0  0  0  0  0  0  0  0  0  0  0
    0.4063   -2.0503   -1.4397 C   0  0  0  0  0  0  0  0  0  0  0  0
    1.4434   -2.7970   -0.9150 N   0  3  0  0  0  0  0  0  0  0  0  0
    2.1184   -2.4293   -0.2382 H   0  0  0  0  0  0  0  0  0  0  0  0
    1.3316   -4.0604   -1.3709 C   0  0  0  0  0  0  0  0  0  0  0  0
    1.9989   -4.8820   -1.1186 H   0  0  0  0  0  0  0  0  0  0  0  0
    0.2465   -4.1314   -2.1746 N   0  0  0  0  0  0  0  0  0  0  0  0
   -0.0855   -4.9623   -2.6572 H   0  0  0  0  0  0  0  0  0  0  0  0
   -0.3462   -2.8775   -2.2289 C   0  0  0  0  0  0  0  0  0  0  0  0
   -1.2357   -2.5967   -2.7861 H   0  0  0  0  0  0  0  0  0  0  0  0
   -0.4406    1.2529    0.5655 C   0  0  0  0  0  0  0  0  0  0  0  0
   -0.0804    2.0941   -0.2594 O   0  0  0  0  0  0  0  0  0  0  0  0
   -0.8594    1.5721    1.7963 N   0  0  0  0  0  0  0  0  0  0  0  0
   -1.1456    0.8169    2.4006 H   0  0  0  0  0  0  0  0  0  0  0  0
   -0.9327    2.9322    2.3387 C   0  0  0  0  0  0  0  0  0  0  0  0
   -1.9624    3.2938    2.3060 H   0  0  0  0  0  0  0  0  0  0  0  0
   -0.5951    2.9380    3.3765 H   0  0  0  0  0  0  0  0  0  0  0  0
   -0.3026    3.6148    1.7646 H   0  0  0  0  0  0  0  0  0  0  0  0
  5  6  2  0  0  0  0
  5  7  1  0  0  0  0
  2  3  1  0  0  0  0
  2  4  1  0  0  0  0
  2  5  1  0  0  0  0
  1  2  1  0  0  0  0
 23 24  2  0  0  0  0
 23 25  1  0  0  0  0
 21 22  1  0  0  0  0
 19 20  1  0  0  0  0
 19 21  1  0  0  0  0
 17 18  1  0  0  0  0
 17 19  1  0  0  0  0
 15 16  1  0  0  0  0
 15 17  2  0  0  0  0
 14 15  1  0  0  0  0
 14 21  2  0  0  0  0
 11 12  1  0  0  0  0
 11 13  1  0  0  0  0
 11 14  1  0  0  0  0
  9 10  1  0  0  0  0
  9 11  1  0  0  0  0
  9 23  1  0  0  0  0
  7  8  1  0  0  0  0
  7  9  1  0  0  0  0
 27 28  1  0  0  0  0
 27 29  1  0  0  0  0
 27 30  1  0  0  0  0
 25 26  1  0  0  0  0
 25 27  1  0  0  0  0
M  CHG  1  15   1
M  END
$$$$
default_name
  -OEChem-01062215323D

 30 30  0     1  0  0  0  0  0999 V2000
   -3.5507   -3.2183    1.8116 H   0  0  0  0  0  0  0  0  0  0  0  0
   -3.4597   -2.3913    1.1076 C   0  0  0  0  0  0  0  0  0  0  0  0
   -4.1577   -1.6043    1.3866 H   0  0  0  0  0  0  0  0  0  0  0  0
   -3.6807   -2.7523    0.1036 H   0  0  0  0  0  0  0  0  0  0  0  0
   -2.0477   -1.8543    1.1546 C   0  0  0  0  0  0  0  0  0  0  0  0
   -1.2227   -2.3443    1.9146 O   0  0  0  0  0  0  0  0  0  0  0  0
   -1.7517   -0.8483    0.3266 N   0  0  0  0  0  0  0  0  0  0  0  0
   -2.4847   -0.5123   -0.2804 H   0  0  0  0  0  0  0  0  0  0  0  0
   -0.4117   -0.2463    0.2186 C   0  0  1  0  0  0  0  0  0  0  0  0
    0.2361   -0.7228    0.9586 H   0  0  0  0  0  0  0  0  0  0  0  0
    0.1670   -0.5787   -1.1763 C   0  0  0  0  0  0  0  0  0  0  0  0
   -0.5161   -0.1934   -1.9375 H   0  0  0  0  0  0  0  0  0  0  0  0
    1.1159   -0.0529   -1.3014 H   0  0  0  0  0  0  0  0  0  0  0  0
    0.4063   -2.0503   -1.4397 C   0  0  0  0  0  0  0  0  0  0  0  0
    1.4434   -2.7970   -0.9150 N   0  3  0  0  0  0  0  0  0  0  0  0
    2.1184   -2.4293   -0.2382 H   0  0  0  0  0  0  0  0  0  0  0  0
    1.3316   -4.0604   -1.3709 C   0  0  0  0  0  0  0  0  0  0  0  0
    1.9989   -4.8820   -1.1186 H   0  0  0  0  0  0  0  0  0  0  0  0
    0.2465   -4.1314   -2.1746 N   0  0  0  0  0  0  0  0  0  0  0  0
   -0.0855   -4.9623   -2.6572 H   0  0  0  0  0  0  0  0  0  0  0  0
   -0.3462   -2.8775   -2.2289 C   0  0  0  0  0  0  0  0  0  0  0  0
   -1.2357   -2.5967   -2.7861 H   0  0  0  0  0  0  0  0  0  0  0  0
   -0.4406    1.2529    0.5655 C   0  0  0  0  0  0  0  0  0  0  0  0
   -0.3501    2.1032   -0.3214 O   0  0  0  0  0  0  0  0  0  0  0  0
   -0.5538    1.5626    1.8630 N   0  0  0  0  0  0  0  0  0  0  0  0
   -0.6334    0.7997    2.5180 H   0  0  0  0  0  0  0  0  0  0  0  0
   -0.5682    2.9227    2.4099 C   0  0  0  0  0  0  0  0  0  0  0  0
   -1.5923    3.2239    2.6389 H   0  0  0  0  0  0  0  0  0  0  0  0
    0.0192    2.9608    3.3290 H   0  0  0  0  0  0  0  0  0  0  0  0
   -0.1444    3.6334    1.6972 H   0  0  0  0  0  0  0  0  0  0  0  0
  5  6  2  0  0  0  0
  5  7  1  0  0  0  0
  2  3  1  0  0  0  0
  2  4  1  0  0  0  0
  2  5  1  0  0  0  0
  1  2  1  0  0  0  0
 23 24  2  0  0  0  0
 23 25  1  0  0  0  0
 21 22  1  0  0  0  0
 19 20  1  0  0  0  0
 19 21  1  0  0  0  0
 17 18  1  0  0  0  0
 17 19  1  0  0  0  0
 15 16  1  0  0  0  0
 15 17  2  0  0  0  0
 14 15  1  0  0  0  0
 14 21  2  0  0  0  0
 11 12  1  0  0  0  0
 11 13  1  0  0  0  0
 11 14  1  0  0  0  0
  9 10  1  0  0  0  0
  9 11  1  0  0  0  0
  9 23  1  0  0  0  0
  7  8  1  0  0  0  0
  7  9  1  0  0  0  0
 27 28  1  0  0  0  0
 27 29  1  0  0  0  0
 27 30  1  0  0  0  0
 25 26  1  0  0  0  0
 25 27  1  0  0  0  0
M  CHG  1  15   1
M  END
$$$$
default_name
  -OEChem-01062215323D

 30 30  0     1  0  0  0  0  0999 V2000
   -3.5507   -3.2183    1.8116 H   0  0  0  0  0  0  0  0  0  0  0  0
   -3.4597   -2.3913    1.1076 C   0  0  0  0  0  0  0  0  0  0  0  0
   -4.1577   -1.6043    1.3866 H   0  0  0  0  0  0  0  0  0  0  0  0
   -3.6807   -2.7523    0.1036 H   0  0  0  0  0  0  0  0  0  0  0  0
   -2.0477   -1.8543    1.1546 C   0  0  0  0  0  0  0  0  0  0  0  0
   -1.2227   -2.3443    1.9146 O   0  0  0  0  0  0  0  0  0  0  0  0
   -1.7517   -0.8483    0.3266 N   0  0  0  0  0  0  0  0  0  0  0  0
   -2.4847   -0.5123   -0.2804 H   0  0  0  0  0  0  0  0  0  0  0  0
   -0.4117   -0.2463    0.2186 C   0  0  1  0  0  0  0  0  0  0  0  0
    0.2361   -0.7228    0.9586 H   0  0  0  0  0  0  0  0  0  0  0  0
    0.1670   -0.5787   -1.1763 C   0  0  0  0  0  0  0  0  0  0  0  0
   -0.5161   -0.1934   -1.9375 H   0  0  0  0  0  0  0  0  0  0  0  0
    1.1159   -0.0529   -1.3014 H   0  0  0  0  0  0  0  0  0  0  0  0
    0.4063   -2.0503   -1.4397 C   0  0  0  0  0  0  0  0  0  0  0  0
    1.4434   -2.7970   -0.9150 N   0  3  0  0  0  0  0  0  0  0  0  0
    2.1184   -2.4293   -0.2382 H   0  0  0  0  0  0  0  0  0  0  0  0
    1.3316   -4.0604   -1.3709 C   0  0  0  0  0  0  0  0  0  0  0  0
    1.9989   -4.8820   -1.1186 H   0  0  0  0  0  0  0  0  0  0  0  0
    0.2465   -4.1314   -2.1746 N   0  0  0  0  0  0  0  0  0  0  0  0
   -0.0855   -4.9623   -2.6572 H   0  0  0  0  0  0  0  0  0  0  0  0
   -0.3462   -2.8775   -2.2289 C   0  0  0  0  0  0  0  0  0  0  0  0
   -1.2357   -2.5967   -2.7861 H   0  0  0  0  0  0  0  0  0  0  0  0
   -0.4406    1.2529    0.5655 C   0  0  0  0  0  0  0  0  0  0  0  0
   -0.6268    2.0960   -0.3133 O   0  0  0  0  0  0  0  0  0  0  0  0
   -0.2413    1.5715    1.8504 N   0  0  0  0  0  0  0  0  0  0  0  0
   -0.1082    0.8134    2.5023 H   0  0  0  0  0  0  0  0  0  0  0  0
   -0.1975    2.9352    2.3868 C   0  0  0  0  0  0  0  0  0  0  0  0
   -1.1469    3.1796    2.8675 H   0  0  0  0  0  0  0  0  0  0  0  0
    0.5991    3.0185    3.1281 H   0  0  0  0  0  0  0  0  0  0  0  0
   -0.0097    3.6603    1.5921 H   0  0  0  0  0  0  0  0  0  0  0  0
  5  6  2  0  0  0  0
  5  7  1  0  0  0  0
  2  3  1  0  0  0  0
  2  4  1  0  0  0  0
  2  5  1  0  0  0  0
  1  2  1  0  0  0  0
 23 24  2  0  0  0  0
 23 25  1  0  0  0  0
 21 22  1  0  0  0  0
 19 20  1  0  0  0  0
 19 21  1  0  0  0  0
 17 18  1  0  0  0  0
 17 19  1  0  0  0  0
 15 16  1  0  0  0  0
 15 17  2  0  0  0  0
 14 15  1  0  0  0  0
 14 21  2  0  0  0  0
 11 12  1  0  0  0  0
 11 13  1  0  0  0  0
 11 14  1  0  0  0  0
  9 10  1  0  0  0  0
  9 11  1  0  0  0  0
  9 23  1  0  0  0  0
  7  8  1  0  0  0  0
  7  9  1  0  0  0  0
 27 28  1  0  0  0  0
 27 29  1  0  0  0  0
 27 30  1  0  0  0  0
 25 26  1  0  0  0  0
 25 27  1  0  0  0  0
M  CHG  1  15   1
M  END
$$$$
default_name
  -OEChem-01062215323D

 30 30  0     1  0  0  0  0  0999 V2000
   -3.5507   -3.2183    1.8116 H   0  0  0  0  0  0  0  0  0  0  0  0
   -3.4597   -2.3913    1.1076 C   0  0  0  0  0  0  0  0  0  0  0  0
   -4.1577   -1.6043    1.3866 H   0  0  0  0  0  0  0  0  0  0  0  0
   -3.6807   -2.7523    0.1036 H   0  0  0  0  0  0  0  0  0  0  0  0
   -2.0477   -1.8543    1.1546 C   0  0  0  0  0  0  0  0  0  0  0  0
   -1.2227   -2.3443    1.9146 O   0  0  0  0  0  0  0  0  0  0  0  0
   -1.7517   -0.8483    0.3266 N   0  0  0  0  0  0  0  0  0  0  0  0
   -2.4847   -0.5123   -0.2804 H   0  0  0  0  0  0  0  0  0  0  0  0
   -0.4117   -0.2463    0.2186 C   0  0  1  0  0  0  0  0  0  0  0  0
    0.2361   -0.7228    0.9586 H   0  0  0  0  0  0  0  0  0  0  0  0
    0.1670   -0.5787   -1.1763 C   0  0  0  0  0  0  0  0  0  0  0  0
   -0.5161   -0.1934   -1.9375 H   0  0  0  0  0  0  0  0  0  0  0  0
    1.1159   -0.0529   -1.3014 H   0  0  0  0  0  0  0  0  0  0  0  0
    0.4063   -2.0503   -1.4397 C   0  0  0  0  0  0  0  0  0  0  0  0
    1.4434   -2.7970   -0.9150 N   0  3  0  0  0  0  0  0  0  0  0  0
    2.1184   -2.4293   -0.2382 H   0  0  0  0  0  0  0  0  0  0  0  0
    1.3316   -4.0604   -1.3709 C   0  0  0  0  0  0  0  0  0  0  0  0
    1.9989   -4.8820   -1.1186 H   0  0  0  0  0  0  0  0  0  0  0  0
    0.2465   -4.1314   -2.1746 N   0  0  0  0  0  0  0  0  0  0  0  0
   -0.0855   -4.9623   -2.6572 H   0  0  0  0  0  0  0  0  0  0  0  0
   -0.3462   -2.8775   -2.2289 C   0  0  0  0  0  0  0  0  0  0  0  0
   -1.2357   -2.5967   -2.7861 H   0  0  0  0  0  0  0  0  0  0  0  0
   -0.4406    1.2529    0.5655 C   0  0  0  0  0  0  0  0  0  0  0  0
   -0.8916    2.0730   -0.2357 O   0  0  0  0  0  0  0  0  0  0  0  0
    0.0569    1.5983    1.7594 N   0  0  0  0  0  0  0  0  0  0  0  0
    0.3944    0.8573    2.3546 H   0  0  0  0  0  0  0  0  0  0  0  0
    0.1539    2.9688    2.2709 C   0  0  0  0  0  0  0  0  0  0  0  0
   -0.6564    3.1640    2.9763 H   0  0  0  0  0  0  0  0  0  0  0  0
    1.1053    3.1071    2.7875 H   0  0  0  0  0  0  0  0  0  0  0  0
    0.0924    3.6937    1.4565 H   0  0  0  0  0  0  0  0  0  0  0  0
  5  6  2  0  0  0  0
  5  7  1  0  0  0  0
  2  3  1  0  0  0  0
  2  4  1  0  0  0  0
  2  5  1  0  0  0  0
  1  2  1  0  0  0  0
 23 24  2  0  0  0  0
 23 25  1  0  0  0  0
 21 22  1  0  0  0  0
 19 20  1  0  0  0  0
 19 21  1  0  0  0  0
 17 18  1  0  0  0  0
 17 19  1  0  0  0  0
 15 16  1  0  0  0  0
 15 17  2  0  0  0  0
 14 15  1  0  0  0  0
 14 21  2  0  0  0  0
 11 12  1  0  0  0  0
 11 13  1  0  0  0  0
 11 14  1  0  0  0  0
  9 10  1  0  0  0  0
  9 11  1  0  0  0  0
  9 23  1  0  0  0  0
  7  8  1  0  0  0  0
  7  9  1  0  0  0  0
 27 28  1  0  0  0  0
 27 29  1  0  0  0  0
 27 30  1  0  0  0  0
 25 26  1  0  0  0  0
 25 27  1  0  0  0  0
M  CHG  1  15   1
M  END
$$$$
default_name
  -OEChem-01062215323D

 30 30  0     1  0  0  0  0  0999 V2000
   -3.5507   -3.2183    1.8116 H   0  0  0  0  0  0  0  0  0  0  0  0
   -3.4597   -2.3913    1.1076 C   0  0  0  0  0  0  0  0  0  0  0  0
   -4.1577   -1.6043    1.3866 H   0  0  0  0  0  0  0  0  0  0  0  0
   -3.6807   -2.7523    0.1036 H   0  0  0  0  0  0  0  0  0  0  0  0
   -2.0477   -1.8543    1.1546 C   0  0  0  0  0  0  0  0  0  0  0  0
   -1.2227   -2.3443    1.9146 O   0  0  0  0  0  0  0  0  0  0  0  0
   -1.7517   -0.8483    0.3266 N   0  0  0  0  0  0  0  0  0  0  0  0
   -2.4847   -0.5123   -0.2804 H   0  0  0  0  0  0  0  0  0  0  0  0
   -0.4117   -0.2463    0.2186 C   0  0  1  0  0  0  0  0  0  0  0  0
    0.2361   -0.7228    0.9586 H   0  0  0  0  0  0  0  0  0  0  0  0
    0.1670   -0.5787   -1.1763 C   0  0  0  0  0  0  0  0  0  0  0  0
   -0.5161   -0.1934   -1.9375 H   0  0  0  0  0  0  0  0  0  0  0  0
    1.1159   -0.0529   -1.3014 H   0  0  0  0  0  0  0  0  0  0  0  0
    0.4063   -2.0503   -1.4397 C   0  0  0  0  0  0  0  0  0  0  0  0
    1.4434   -2.7970   -0.9150 N   0  3  0  0  0  0  0  0  0  0  0  0
    2.1184   -2.4293   -0.2382 H   0  0  0  0  0  0  0  0  0  0  0  0
    1.3316   -4.0604   -1.3709 C   0  0  0  0  0  0  0  0  0  0  0  0
    1.9989   -4.8820   -1.1186 H   0  0  0  0  0  0  0  0  0  0  0  0
    0.2465   -4.1314   -2.1746 N   0  0  0  0  0  0  0  0  0  0  0  0
   -0.0855   -4.9623   -2.6572 H   0  0  0  0  0  0  0  0  0  0  0  0
   -0.3462   -2.8775   -2.2289 C   0  0  0  0  0  0  0  0  0  0  0  0
   -1.2357   -2.5967   -2.7861 H   0  0  0  0  0  0  0  0  0  0  0  0
   -0.4406    1.2529    0.5655 C   0  0  0  0  0  0  0  0  0  0  0  0
   -1.1264    2.0356   -0.0939 O   0  0  0  0  0  0  0  0  0  0  0  0
    0.3204    1.6412    1.5962 N   0  0  0  0  0  0  0  0  0  0  0  0
    0.8401    0.9283    2.0851 H   0  0  0  0  0  0  0  0  0  0  0  0
    0.4622    3.0212    2.0703 C   0  0  0  0  0  0  0  0  0  0  0  0
   -0.1542    3.1779    2.9577 H   0  0  0  0  0  0  0  0  0  0  0  0
    1.5032    3.2205    2.3306 H   0  0  0  0  0  0  0  0  0  0  0  0
    0.1548    3.7312    1.2996 H   0  0  0  0  0  0  0  0  0  0  0  0
  5  6  2  0  0  0  0
  5  7  1  0  0  0  0
  2  3  1  0  0  0  0
  2  4  1  0  0  0  0
  2  5  1  0  0  0  0
  1  2  1  0  0  0  0
 23 24  2  0  0  0  0
 23 25  1  0  0  0  0
 21 22  1  0  0  0  0
 19 20  1  0  0  0  0
 19 21  1  0  0  0  0
 17 18  1  0  0  0  0
 17 19  1  0  0  0  0
 15 16  1  0  0  0  0
 15 17  2  0  0  0  0
 14 15  1  0  0  0  0
 14 21  2  0  0  0  0
 11 12  1  0  0  0  0
 11 13  1  0  0  0  0
 11 14  1  0  0  0  0
  9 10  1  0  0  0  0
  9 11  1  0  0  0  0
  9 23  1  0  0  0  0
  7  8  1  0  0  0  0
  7  9  1  0  0  0  0
 27 28  1  0  0  0  0
 27 29  1  0  0  0  0
 27 30  1  0  0  0  0
 25 26  1  0  0  0  0
 25 27  1  0  0  0  0
M  CHG  1  15   1
M  END
$$$$
default_name
  -OEChem-01062215323D

 30 30  0     1  0  0  0  0  0999 V2000
   -3.5507   -3.2183    1.8116 H   0  0  0  0  0  0  0  0  0  0  0  0
   -3.4597   -2.3913    1.1076 C   0  0  0  0  0  0  0  0  0  0  0  0
   -4.1577   -1.6043    1.3866 H   0  0  0  0  0  0  0  0  0  0  0  0
   -3.6807   -2.7523    0.1036 H   0  0  0  0  0  0  0  0  0  0  0  0
   -2.0477   -1.8543    1.1546 C   0  0  0  0  0  0  0  0  0  0  0  0
   -1.2227   -2.3443    1.9146 O   0  0  0  0  0  0  0  0  0  0  0  0
   -1.7517   -0.8483    0.3266 N   0  0  0  0  0  0  0  0  0  0  0  0
   -2.4847   -0.5123   -0.2804 H   0  0  0  0  0  0  0  0  0  0  0  0
   -0.4117   -0.2463    0.2186 C   0  0  1  0  0  0  0  0  0  0  0  0
    0.2361   -0.7228    0.9586 H   0  0  0  0  0  0  0  0  0  0  0  0
    0.1670   -0.5787   -1.1763 C   0  0  0  0  0  0  0  0  0  0  0  0
   -0.5161   -0.1934   -1.9375 H   0  0  0  0  0  0  0  0  0  0  0  0
    1.1159   -0.0529   -1.3014 H   0  0  0  0  0  0  0  0  0  0  0  0
    0.4063   -2.0503   -1.4397 C   0  0  0  0  0  0  0  0  0  0  0  0
    1.4434   -2.7970   -0.9150 N   0  3  0  0  0  0  0  0  0  0  0  0
    2.1184   -2.4293   -0.2382 H   0  0  0  0  0  0  0  0  0  0  0  0
    1.3316   -4.0604   -1.3709 C   0  0  0  0  0  0  0  0  0  0  0  0
    1.9989   -4.8820   -1.1186 H   0  0  0  0  0  0  0  0  0  0  0  0
    0.2465   -4.1314   -2.1746 N   0  0  0  0  0  0  0  0  0  0  0  0
   -0.0855   -4.9623   -2.6572 H   0  0  0  0  0  0  0  0  0  0  0  0
   -0.3462   -2.8775   -2.2289 C   0  0  0  0  0  0  0  0  0  0  0  0
   -1.2357   -2.5967   -2.7861 H   0  0  0  0  0  0  0  0  0  0  0  0
   -0.4406    1.2529    0.5655 C   0  0  0  0  0  0  0  0  0  0  0  0
   -1.3154    1.9865    0.1025 O   0  0  0  0  0  0  0  0  0  0  0  0
    0.5313    1.6971    1.3719 N   0  0  0  0  0  0  0  0  0  0  0  0
    1.1985    1.0215    1.7120 H   0  0  0  0  0  0  0  0  0  0  0  0
    0.7064    3.0888    1.7985 C   0  0  0  0  0  0  0  0  0  0  0  0
    0.3253    3.2206    2.8132 H   0  0  0  0  0  0  0  0  0  0  0  0
    1.7657    3.3510    1.7883 H   0  0  0  0  0  0  0  0  0  0  0  0
    0.1734    3.7703    1.1322 H   0  0  0  0  0  0  0  0  0  0  0  0
  5  6  2  0  0  0  0
  5  7  1  0  0  0  0
  2  3  1  0  0  0  0
  2  4  1  0  0  0  0
  2  5  1  0  0  0  0
  1  2  1  0  0  0  0
 23 24  2  0  0  0  0
 23 25  1  0  0  0  0
 21 22  1  0  0  0  0
 19 20  1  0  0  0  0
 19 21  1  0  0  0  0
 17 18  1  0  0  0  0
 17 19  1  0  0  0  0
 15 16  1  0  0  0  0
 15 17  2  0  0  0  0
 14 15  1  0  0  0  0
 14 21  2  0  0  0  0
 11 12  1  0  0  0  0
 11 13  1  0  0  0  0
 11 14  1  0  0  0  0
  9 10  1  0  0  0  0
  9 11  1  0  0  0  0
  9 23  1  0  0  0  0
  7  8  1  0  0  0  0
  7  9  1  0  0  0  0
 27 28  1  0  0  0  0
 27 29  1  0  0  0  0
 27 30  1  0  0  0  0
 25 26  1  0  0  0  0
 25 27  1  0  0  0  0
M  CHG  1  15   1
M  END
$$$$
default_name
  -OEChem-01062215323D

 30 30  0     1  0  0  0  0  0999 V2000
   -3.5507   -3.2183    1.8116 H   0  0  0  0  0  0  0  0  0  0  0  0
   -3.4597   -2.3913    1.1076 C   0  0  0  0  0  0  0  0  0  0  0  0
   -4.1577   -1.6043    1.3866 H   0  0  0  0  0  0  0  0  0  0  0  0
   -3.6807   -2.7523    0.1036 H   0  0  0  0  0  0  0  0  0  0  0  0
   -2.0477   -1.8543    1.1546 C   0  0  0  0  0  0  0  0  0  0  0  0
   -1.2227   -2.3443    1.9146 O   0  0  0  0  0  0  0  0  0  0  0  0
   -1.7517   -0.8483    0.3266 N   0  0  0  0  0  0  0  0  0  0  0  0
   -2.4847   -0.5123   -0.2804 H   0  0  0  0  0  0  0  0  0  0  0  0
   -0.4117   -0.2463    0.2186 C   0  0  1  0  0  0  0  0  0  0  0  0
    0.2361   -0.7228    0.9586 H   0  0  0  0  0  0  0  0  0  0  0  0
    0.1670   -0.5787   -1.1763 C   0  0  0  0  0  0  0  0  0  0  0  0
   -0.5161   -0.1934   -1.9375 H   0  0  0  0  0  0  0  0  0  0  0  0
    1.1159   -0.0529   -1.3014 H   0  0  0  0  0  0  0  0  0  0  0  0
    0.4063   -2.0503   -1.4397 C   0  0  0  0  0  0  0  0  0  0  0  0
    1.4434   -2.7970   -0.9150 N   0  3  0  0  0  0  0  0  0  0  0  0
    2.1184   -2.4293   -0.2382 H   0  0  0  0  0  0  0  0  0  0  0  0
    1.3316   -4.0604   -1.3709 C   0  0  0  0  0  0  0  0  0  0  0  0
    1.9989   -4.8820   -1.1186 H   0  0  0  0  0  0  0  0  0  0  0  0
    0.2465   -4.1314   -2.1746 N   0  0  0  0  0  0  0  0  0  0  0  0
   -0.0855   -4.9623   -2.6572 H   0  0  0  0  0  0  0  0  0  0  0  0
   -0.3462   -2.8775   -2.2289 C   0  0  0  0  0  0  0  0  0  0  0  0
   -1.2357   -2.5967   -2.7861 H   0  0  0  0  0  0  0  0  0  0  0  0
   -0.4406    1.2529    0.5655 C   0  0  0  0  0  0  0  0  0  0  0  0
   -1.4455    1.9290    0.3401 O   0  0  0  0  0  0  0  0  0  0  0  0
    0.6752    1.7624    1.1018 N   0  0  0  0  0  0  0  0  0  0  0  0
    1.4452    1.1307    1.2609 H   0  0  0  0  0  0  0  0  0  0  0  0
    0.8698    3.1670    1.4741 C   0  0  0  0  0  0  0  0  0  0  0  0
    0.7495    3.2892    2.5524 H   0  0  0  0  0  0  0  0  0  0  0  0
    1.8750    3.4898    1.1977 H   0  0  0  0  0  0  0  0  0  0  0  0
    0.1469    3.8083    0.9655 H   0  0  0  0  0  0  0  0  0  0  0  0
  5  6  2  0  0  0  0
  5  7  1  0  0  0  0
  2  3  1  0  0  0  0
  2  4  1  0  0  0  0
  2  5  1  0  0  0  0
  1  2  1  0  0  0  0
 23 24  2  0  0  0  0
 23 25  1  0  0  0  0
 21 22  1  0  0  0  0
 19 20  1  0  0  0  0
 19 21  1  0  0  0  0
 17 18  1  0  0  0  0
 17 19  1  0  0  0  0
 15 16  1  0  0  0  0
 15 17  2  0  0  0  0
 14 15  1  0  0  0  0
 14 21  2  0  0  0  0
 11 12  1  0  0  0  0
 11 13  1  0  0  0  0
 11 14  1  0  0  0  0
  9 10  1  0  0  0  0
  9 11  1  0  0  0  0
  9 23  1  0  0  0  0
  7  8  1  0  0  0  0
  7  9  1  0  0  0  0
 27 28  1  0  0  0  0
 27 29  1  0  0  0  0
 27 30  1  0  0  0  0
 25 26  1  0  0  0  0
 25 27  1  0  0  0  0
M  CHG  1  15   1
M  END
$$$$
default_name
  -OEChem-01062215323D

 30 30  0     1  0  0  0  0  0999 V2000
   -3.5507   -3.2183    1.8116 H   0  0  0  0  0  0  0  0  0  0  0  0
   -3.4597   -2.3913    1.1076 C   0  0  0  0  0  0  0  0  0  0  0  0
   -4.1577   -1.6043    1.3866 H   0  0  0  0  0  0  0  0  0  0  0  0
   -3.6807   -2.7523    0.1036 H   0  0  0  0  0  0  0  0  0  0  0  0
   -2.0477   -1.8543    1.1546 C   0  0  0  0  0  0  0  0  0  0  0  0
   -1.2227   -2.3443    1.9146 O   0  0  0  0  0  0  0  0  0  0  0  0
   -1.7517   -0.8483    0.3266 N   0  0  0  0  0  0  0  0  0  0  0  0
   -2.4847   -0.5123   -0.2804 H   0  0  0  0  0  0  0  0  0  0  0  0
   -0.4117   -0.2463    0.2186 C   0  0  1  0  0  0  0  0  0  0  0  0
    0.2361   -0.7228    0.9586 H   0  0  0  0  0  0  0  0  0  0  0  0
    0.1670   -0.5787   -1.1763 C   0  0  0  0  0  0  0  0  0  0  0  0
   -0.5161   -0.1934   -1.9375 H   0  0  0  0  0  0  0  0  0  0  0  0
    1.1159   -0.0529   -1.3014 H   0  0  0  0  0  0  0  0  0  0  0  0
    0.4063   -2.0503   -1.4397 C   0  0  0  0  0  0  0  0  0  0  0  0
    1.4434   -2.7970   -0.9150 N   0  3  0  0  0  0  0  0  0  0  0  0
    2.1184   -2.4293   -0.2382 H   0  0  0  0  0  0  0  0  0  0  0  0
    1.3316   -4.0604   -1.3709 C   0  0  0  0  0  0  0  0  0  0  0  0
    1.9989   -4.8820   -1.1186 H   0  0  0  0  0  0  0  0  0  0  0  0
    0.2465   -4.1314   -2.1746 N   0  0  0  0  0  0  0  0  0  0  0  0
   -0.0855   -4.9623   -2.6572 H   0  0  0  0  0  0  0  0  0  0  0  0
   -0.3462   -2.8775   -2.2289 C   0  0  0  0  0  0  0  0  0  0  0  0
   -1.2357   -2.5967   -2.7861 H   0  0  0  0  0  0  0  0  0  0  0  0
   -0.4406    1.2529    0.5655 C   0  0  0  0  0  0  0  0  0  0  0  0
   -1.5079    1.8671    0.6026 O   0  0  0  0  0  0  0  0  0  0  0  0
    0.7423    1.8325    0.8043 N   0  0  0  0  0  0  0  0  0  0  0  0
    1.5634    1.2483    0.7624 H   0  0  0  0  0  0  0  0  0  0  0  0
    0.9412    3.2505    1.1192 C   0  0  0  0  0  0  0  0  0  0  0  0
    1.0896    3.3788    2.1933 H   0  0  0  0  0  0  0  0  0  0  0  0
    1.8235    3.6273    0.5989 H   0  0  0  0  0  0  0  0  0  0  0  0
    0.0770    3.8427    0.8111 H   0  0  0  0  0  0  0  0  0  0  0  0
  5  6  2  0  0  0  0
  5  7  1  0  0  0  0
  2  3  1  0  0  0  0
  2  4  1  0  0  0  0
  2  5  1  0  0  0  0
  1  2  1  0  0  0  0
 23 24  2  0  0  0  0
 23 25  1  0  0  0  0
 21 22  1  0  0  0  0
 19 20  1  0  0  0  0
 19 21  1  0  0  0  0
 17 18  1  0  0  0  0
 17 19  1  0  0  0  0
 15 16  1  0  0  0  0
 15 17  2  0  0  0  0
 14 15  1  0  0  0  0
 14 21  2  0  0  0  0
 11 12  1  0  0  0  0
 11 13  1  0  0  0  0
 11 14  1  0  0  0  0
  9 10  1  0  0  0  0
  9 11  1  0  0  0  0
  9 23  1  0  0  0  0
  7  8  1  0  0  0  0
  7  9  1  0  0  0  0
 27 28  1  0  0  0  0
 27 29  1  0  0  0  0
 27 30  1  0  0  0  0
 25 26  1  0  0  0  0
 25 27  1  0  0  0  0
M  CHG  1  15   1
M  END
$$$$
default_name
  -OEChem-01062215323D

 30 30  0     1  0  0  0  0  0999 V2000
   -3.5507   -3.2183    1.8116 H   0  0  0  0  0  0  0  0  0  0  0  0
   -3.4597   -2.3913    1.1076 C   0  0  0  0  0  0  0  0  0  0  0  0
   -4.1577   -1.6043    1.3866 H   0  0  0  0  0  0  0  0  0  0  0  0
   -3.6807   -2.7523    0.1036 H   0  0  0  0  0  0  0  0  0  0  0  0
   -2.0477   -1.8543    1.1546 C   0  0  0  0  0  0  0  0  0  0  0  0
   -1.2227   -2.3443    1.9146 O   0  0  0  0  0  0  0  0  0  0  0  0
   -1.7517   -0.8483    0.3266 N   0  0  0  0  0  0  0  0  0  0  0  0
   -2.4847   -0.5123   -0.2804 H   0  0  0  0  0  0  0  0  0  0  0  0
   -0.4117   -0.2463    0.2186 C   0  0  1  0  0  0  0  0  0  0  0  0
    0.2938   -0.8883    0.7519 H   0  0  0  0  0  0  0  0  0  0  0  0
    0.0086   -0.2431   -1.2695 C   0  0  0  0  0  0  0  0  0  0  0  0
   -0.7370    0.3157   -1.8407 H   0  0  0  0  0  0  0  0  0  0  0  0
    0.9557    0.2914   -1.3696 H   0  0  0  0  0  0  0  0  0  0  0  0
    0.1728   -1.6121   -1.8948 C   0  0  0  0  0  0  0  0  0  0  0  0
    1.2345   -2.4682   -1.6750 N   0  3  0  0  0  0  0  0  0  0  0  0
    1.9871   -2.2753   -1.0079 H   0  0  0  0  0  0  0  0  0  0  0  0
    1.0361   -3.5872   -2.3996 C   0  0  0  0  0  0  0  0  0  0  0  0
    1.6996   -4.4494   -2.4205 H   0  0  0  0  0  0  0  0  0  0  0  0
   -0.1281   -3.4594   -3.0754 N   0  0  0  0  0  0  0  0  0  0  0  0
   -0.5343   -4.1505   -3.7006 H   0  0  0  0  0  0  0  0  0  0  0  0
   -0.6832   -2.2245   -2.7699 C   0  0  0  0  0  0  0  0  0  0  0  0
   -1.6162   -1.8142   -3.1463 H   0  0  0  0  0  0  0  0  0  0  0  0
   -0.3571    1.1285    0.9083 C   0  0  0  0  0  0  0  0  0  0  0  0
   -1.3595    1.5990    1.4484 O   0  0  0  0  0  0  0  0  0  0  0  0
    0.8184    1.7680    0.8709 N   0  0  0  0  0  0  0  0  0  0  0  0
    1.5879    1.3007    0.4160 H   0  0  0  0  0  0  0  0  0  0  0  0
    1.0772    3.0961    1.4354 C   0  0  0  0  0  0  0  0  0  0  0  0
    1.5897    3.0022    2.3949 H   0  0  0  0  0  0  0  0  0  0  0  0
    1.7103    3.6718    0.7581 H   0  0  0  0  0  0  0  0  0  0  0  0
    0.1443    3.6429    1.5879 H   0  0  0  0  0  0  0  0  0  0  0  0
  5  6  2  0  0  0  0
  5  7  1  0  0  0  0
  2  3  1  0  0  0  0
  2  4  1  0  0  0  0
  2  5  1  0  0  0  0
  1  2  1  0  0  0  0
 23 24  2  0  0  0  0
 23 25  1  0  0  0  0
 21 22  1  0  0  0  0
 19 20  1  0  0  0  0
 19 21  1  0  0  0  0
 17 18  1  0  0  0  0
 17 19  1  0  0  0  0
 15 16  1  0  0  0  0
 15 17  2  0  0  0  0
 14 15  1  0  0  0  0
 14 21  2  0  0  0  0
 11 12  1  0  0  0  0
 11 13  1  0  0  0  0
 11 14  1  0  0  0  0
  9 10  1  0  0  0  0
  9 11  1  0  0  0  0
  9 23  1  0  0  0  0
  7  8  1  0  0  0  0
  7  9  1  0  0  0  0
 27 28  1  0  0  0  0
 27 29  1  0  0  0  0
 27 30  1  0  0  0  0
 25 26  1  0  0  0  0
 25 27  1  0  0  0  0
M  CHG  1  15   1
M  END
$$$$
default_name
  -OEChem-01062215323D

 30 30  0     1  0  0  0  0  0999 V2000
   -3.5507   -3.2183    1.8116 H   0  0  0  0  0  0  0  0  0  0  0  0
   -3.4597   -2.3913    1.1076 C   0  0  0  0  0  0  0  0  0  0  0  0
   -4.1577   -1.6043    1.3866 H   0  0  0  0  0  0  0  0  0  0  0  0
   -3.6807   -2.7523    0.1036 H   0  0  0  0  0  0  0  0  0  0  0  0
   -2.0477   -1.8543    1.1546 C   0  0  0  0  0  0  0  0  0  0  0  0
   -1.2227   -2.3443    1.9146 O   0  0  0  0  0  0  0  0  0  0  0  0
   -1.7517   -0.8483    0.3266 N   0  0  0  0  0  0  0  0  0  0  0  0
   -2.4847   -0.5123   -0.2804 H   0  0  0  0  0  0  0  0  0  0  0  0
   -0.4117   -0.2463    0.2186 C   0  0  1  0  0  0  0  0  0  0  0  0
    0.2938   -0.8883    0.7519 H   0  0  0  0  0  0  0  0  0  0  0  0
    0.0086   -0.2431   -1.2695 C   0  0  0  0  0  0  0  0  0  0  0  0
   -0.7370    0.3157   -1.8407 H   0  0  0  0  0  0  0  0  0  0  0  0
    0.9557    0.2914   -1.3696 H   0  0  0  0  0  0  0  0  0  0  0  0
    0.1728   -1.6121   -1.8948 C   0  0  0  0  0  0  0  0  0  0  0  0
    1.2345   -2.4682   -1.6750 N   0  3  0  0  0  0  0  0  0  0  0  0
    1.9871   -2.2753   -1.0079 H   0  0  0  0  0  0  0  0  0  0  0  0
    1.0361   -3.5872   -2.3996 C   0  0  0  0  0  0  0  0  0  0  0  0
    1.6996   -4.4494   -2.4205 H   0  0  0  0  0  0  0  0  0  0  0  0
   -0.1281   -3.4594   -3.0754 N   0  0  0  0  0  0  0  0  0  0  0  0
   -0.5343   -4.1505   -3.7006 H   0  0  0  0  0  0  0  0  0  0  0  0
   -0.6832   -2.2245   -2.7699 C   0  0  0  0  0  0  0  0  0  0  0  0
   -1.6162   -1.8142   -3.1463 H   0  0  0  0  0  0  0  0  0  0  0  0
   -0.3571    1.1285    0.9083 C   0  0  0  0  0  0  0  0  0  0  0  0
   -1.2543    1.4808    1.6756 O   0  0  0  0  0  0  0  0  0  0  0  0
    0.6962    1.9011    0.6154 N   0  0  0  0  0  0  0  0  0  0  0  0
    1.3878    1.5250   -0.0153 H   0  0  0  0  0  0  0  0  0  0  0  0
    0.9245    3.2528    1.1352 C   0  0  0  0  0  0  0  0  0  0  0  0
    1.6526    3.2238    1.9482 H   0  0  0  0  0  0  0  0  0  0  0  0
    1.3129    3.8957    0.3434 H   0  0  0  0  0  0  0  0  0  0  0  0
   -0.0042    3.6873    1.5111 H   0  0  0  0  0  0  0  0  0  0  0  0
  5  6  2  0  0  0  0
  5  7  1  0  0  0  0
  2  3  1  0  0  0  0
  2  4  1  0  0  0  0
  2  5  1  0  0  0  0
  1  2  1  0  0  0  0
 23 24  2  0  0  0  0
 23 25  1  0  0  0  0
 21 22  1  0  0  0  0
 19 20  1  0  0  0  0
 19 21  1  0  0  0  0
 17 18  1  0  0  0  0
 17 19  1  0  0  0  0
 15 16  1  0  0  0  0
 15 17  2  0  0  0  0
 14 15  1  0  0  0  0
 14 21  2  0  0  0  0
 11 12  1  0  0  0  0
 11 13  1  0  0  0  0
 11 14  1  0  0  0  0
  9 10  1  0  0  0  0
  9 11  1  0  0  0  0
  9 23  1  0  0  0  0
  7  8  1  0  0  0  0
  7  9  1  0  0  0  0
 27 28  1  0  0  0  0
 27 29  1  0  0  0  0
 27 30  1  0  0  0  0
 25 26  1  0  0  0  0
 25 27  1  0  0  0  0
M  CHG  1  15   1
M  END
$$$$
default_name
  -OEChem-01062215323D

 30 30  0     1  0  0  0  0  0999 V2000
   -3.5507   -3.2183    1.8116 H   0  0  0  0  0  0  0  0  0  0  0  0
   -3.4597   -2.3913    1.1076 C   0  0  0  0  0  0  0  0  0  0  0  0
   -4.1577   -1.6043    1.3866 H   0  0  0  0  0  0  0  0  0  0  0  0
   -3.6807   -2.7523    0.1036 H   0  0  0  0  0  0  0  0  0  0  0  0
   -2.0477   -1.8543    1.1546 C   0  0  0  0  0  0  0  0  0  0  0  0
   -1.2227   -2.3443    1.9146 O   0  0  0  0  0  0  0  0  0  0  0  0
   -1.7517   -0.8483    0.3266 N   0  0  0  0  0  0  0  0  0  0  0  0
   -2.4847   -0.5123   -0.2804 H   0  0  0  0  0  0  0  0  0  0  0  0
   -0.4117   -0.2463    0.2186 C   0  0  1  0  0  0  0  0  0  0  0  0
    0.2938   -0.8883    0.7519 H   0  0  0  0  0  0  0  0  0  0  0  0
    0.0086   -0.2431   -1.2695 C   0  0  0  0  0  0  0  0  0  0  0  0
   -0.7370    0.3157   -1.8407 H   0  0  0  0  0  0  0  0  0  0  0  0
    0.9557    0.2914   -1.3696 H   0  0  0  0  0  0  0  0  0  0  0  0
    0.1728   -1.6121   -1.8948 C   0  0  0  0  0  0  0  0  0  0  0  0
    1.2345   -2.4682   -1.6750 N   0  3  0  0  0  0  0  0  0  0  0  0
    1.9871   -2.2753   -1.0079 H   0  0  0  0  0  0  0  0  0  0  0  0
    1.0361   -3.5872   -2.3996 C   0  0  0  0  0  0  0  0  0  0  0  0
    1.6996   -4.4494   -2.4205 H   0  0  0  0  0  0  0  0  0  0  0  0
   -0.1281   -3.4594   -3.0754 N   0  0  0  0  0  0  0  0  0  0  0  0
   -0.5343   -4.1505   -3.7006 H   0  0  0  0  0  0  0  0  0  0  0  0
   -0.6832   -2.2245   -2.7699 C   0  0  0  0  0  0  0  0  0  0  0  0
   -1.6162   -1.8142   -3.1463 H   0  0  0  0  0  0  0  0  0  0  0  0
   -0.3571    1.1285    0.9083 C   0  0  0  0  0  0  0  0  0  0  0  0
   -1.0864    1.3768    1.8697 O   0  0  0  0  0  0  0  0  0  0  0  0
    0.5037    2.0178    0.3980 N   0  0  0  0  0  0  0  0  0  0  0  0
    1.0688    1.7224   -0.3835 H   0  0  0  0  0  0  0  0  0  0  0  0
    0.6893    3.3892    0.8819 C   0  0  0  0  0  0  0  0  0  0  0  0
    1.5845    3.4493    1.5041 H   0  0  0  0  0  0  0  0  0  0  0  0
    0.8072    4.0696    0.0367 H   0  0  0  0  0  0  0  0  0  0  0  0
   -0.1705    3.7137    1.4717 H   0  0  0  0  0  0  0  0  0  0  0  0
  5  6  2  0  0  0  0
  5  7  1  0  0  0  0
  2  3  1  0  0  0  0
  2  4  1  0  0  0  0
  2  5  1  0  0  0  0
  1  2  1  0  0  0  0
 23 24  2  0  0  0  0
 23 25  1  0  0  0  0
 21 22  1  0  0  0  0
 19 20  1  0  0  0  0
 19 21  1  0  0  0  0
 17 18  1  0  0  0  0
 17 19  1  0  0  0  0
 15 16  1  0  0  0  0
 15 17  2  0  0  0  0
 14 15  1  0  0  0  0
 14 21  2  0  0  0  0
 11 12  1  0  0  0  0
 11 13  1  0  0  0  0
 11 14  1  0  0  0  0
  9 10  1  0  0  0  0
  9 11  1  0  0  0  0
  9 23  1  0  0  0  0
  7  8  1  0  0  0  0
  7  9  1  0  0  0  0
 27 28  1  0  0  0  0
 27 29  1  0  0  0  0
 27 30  1  0  0  0  0
 25 26  1  0  0  0  0
 25 27  1  0  0  0  0
M  CHG  1  15   1
M  END
$$$$
default_name
  -OEChem-01062215323D

 30 30  0     1  0  0  0  0  0999 V2000
   -3.5507   -3.2183    1.8116 H   0  0  0  0  0  0  0  0  0  0  0  0
   -3.4597   -2.3913    1.1076 C   0  0  0  0  0  0  0  0  0  0  0  0
   -4.1577   -1.6043    1.3866 H   0  0  0  0  0  0  0  0  0  0  0  0
   -3.6807   -2.7523    0.1036 H   0  0  0  0  0  0  0  0  0  0  0  0
   -2.0477   -1.8543    1.1546 C   0  0  0  0  0  0  0  0  0  0  0  0
   -1.2227   -2.3443    1.9146 O   0  0  0  0  0  0  0  0  0  0  0  0
   -1.7517   -0.8483    0.3266 N   0  0  0  0  0  0  0  0  0  0  0  0
   -2.4847   -0.5123   -0.2804 H   0  0  0  0  0  0  0  0  0  0  0  0
   -0.4117   -0.2463    0.2186 C   0  0  1  0  0  0  0  0  0  0  0  0
    0.2938   -0.8883    0.7519 H   0  0  0  0  0  0  0  0  0  0  0  0
    0.0086   -0.2431   -1.2695 C   0  0  0  0  0  0  0  0  0  0  0  0
   -0.7370    0.3157   -1.8407 H   0  0  0  0  0  0  0  0  0  0  0  0
    0.9557    0.2914   -1.3696 H   0  0  0  0  0  0  0  0  0  0  0  0
    0.1728   -1.6121   -1.8948 C   0  0  0  0  0  0  0  0  0  0  0  0
    1.2345   -2.4682   -1.6750 N   0  3  0  0  0  0  0  0  0  0  0  0
    1.9871   -2.2753   -1.0079 H   0  0  0  0  0  0  0  0  0  0  0  0
    1.0361   -3.5872   -2.3996 C   0  0  0  0  0  0  0  0  0  0  0  0
    1.6996   -4.4494   -2.4205 H   0  0  0  0  0  0  0  0  0  0  0  0
   -0.1281   -3.4594   -3.0754 N   0  0  0  0  0  0  0  0  0  0  0  0
   -0.5343   -4.1505   -3.7006 H   0  0  0  0  0  0  0  0  0  0  0  0
   -0.6832   -2.2245   -2.7699 C   0  0  0  0  0  0  0  0  0  0  0  0
   -1.6162   -1.8142   -3.1463 H   0  0  0  0  0  0  0  0  0  0  0  0
   -0.3571    1.1285    0.9083 C   0  0  0  0  0  0  0  0  0  0  0  0
   -0.8673    1.2940    2.0174 O   0  0  0  0  0  0  0  0  0  0  0  0
    0.2540    2.1101    0.2337 N   0  0  0  0  0  0  0  0  0  0  0  0
    0.6527    1.8795   -0.6637 H   0  0  0  0  0  0  0  0  0  0  0  0
    0.3878    3.4960    0.6928 C   0  0  0  0  0  0  0  0  0  0  0  0
    1.3898    3.6632    1.0931 H   0  0  0  0  0  0  0  0  0  0  0  0
    0.2277    4.1817   -0.1410 H   0  0  0  0  0  0  0  0  0  0  0  0
   -0.3434    3.7203    1.4723 H   0  0  0  0  0  0  0  0  0  0  0  0
  5  6  2  0  0  0  0
  5  7  1  0  0  0  0
  2  3  1  0  0  0  0
  2  4  1  0  0  0  0
  2  5  1  0  0  0  0
  1  2  1  0  0  0  0
 23 24  2  0  0  0  0
 23 25  1  0  0  0  0
 21 22  1  0  0  0  0
 19 20  1  0  0  0  0
 19 21  1  0  0  0  0
 17 18  1  0  0  0  0
 17 19  1  0  0  0  0
 15 16  1  0  0  0  0
 15 17  2  0  0  0  0
 14 15  1  0  0  0  0
 14 21  2  0  0  0  0
 11 12  1  0  0  0  0
 11 13  1  0  0  0  0
 11 14  1  0  0  0  0
  9 10  1  0  0  0  0
  9 11  1  0  0  0  0
  9 23  1  0  0  0  0
  7  8  1  0  0  0  0
  7  9  1  0  0  0  0
 27 28  1  0  0  0  0
 27 29  1  0  0  0  0
 27 30  1  0  0  0  0
 25 26  1  0  0  0  0
 25 27  1  0  0  0  0
M  CHG  1  15   1
M  END
$$$$
default_name
  -OEChem-01062215323D

 30 30  0     1  0  0  0  0  0999 V2000
   -3.5507   -3.2183    1.8116 H   0  0  0  0  0  0  0  0  0  0  0  0
   -3.4597   -2.3913    1.1076 C   0  0  0  0  0  0  0  0  0  0  0  0
   -4.1577   -1.6043    1.3866 H   0  0  0  0  0  0  0  0  0  0  0  0
   -3.6807   -2.7523    0.1036 H   0  0  0  0  0  0  0  0  0  0  0  0
   -2.0477   -1.8543    1.1546 C   0  0  0  0  0  0  0  0  0  0  0  0
   -1.2227   -2.3443    1.9146 O   0  0  0  0  0  0  0  0  0  0  0  0
   -1.7517   -0.8483    0.3266 N   0  0  0  0  0  0  0  0  0  0  0  0
   -2.4847   -0.5123   -0.2804 H   0  0  0  0  0  0  0  0  0  0  0  0
   -0.4117   -0.2463    0.2186 C   0  0  1  0  0  0  0  0  0  0  0  0
    0.2938   -0.8883    0.7519 H   0  0  0  0  0  0  0  0  0  0  0  0
    0.0086   -0.2431   -1.2695 C   0  0  0  0  0  0  0  0  0  0  0  0
   -0.7370    0.3157   -1.8407 H   0  0  0  0  0  0  0  0  0  0  0  0
    0.9557    0.2914   -1.3696 H   0  0  0  0  0  0  0  0  0  0  0  0
    0.1728   -1.6121   -1.8948 C   0  0  0  0  0  0  0  0  0  0  0  0
    1.2345   -2.4682   -1.6750 N   0  3  0  0  0  0  0  0  0  0  0  0
    1.9871   -2.2753   -1.0079 H   0  0  0  0  0  0  0  0  0  0  0  0
    1.0361   -3.5872   -2.3996 C   0  0  0  0  0  0  0  0  0  0  0  0
    1.6996   -4.4494   -2.4205 H   0  0  0  0  0  0  0  0  0  0  0  0
   -0.1281   -3.4594   -3.0754 N   0  0  0  0  0  0  0  0  0  0  0  0
   -0.5343   -4.1505   -3.7006 H   0  0  0  0  0  0  0  0  0  0  0  0
   -0.6832   -2.2245   -2.7699 C   0  0  0  0  0  0  0  0  0  0  0  0
   -1.6162   -1.8142   -3.1463 H   0  0  0  0  0  0  0  0  0  0  0  0
   -0.3571    1.1285    0.9083 C   0  0  0  0  0  0  0  0  0  0  0  0
   -0.6120    1.2380    2.1087 O   0  0  0  0  0  0  0  0  0  0  0  0
   -0.0359    2.1719    0.1335 N   0  0  0  0  0  0  0  0  0  0  0  0
    0.1677    1.9855   -0.8366 H   0  0  0  0  0  0  0  0  0  0  0  0
    0.0405    3.5659    0.5809 C   0  0  0  0  0  0  0  0  0  0  0  0
    1.0819    3.8511    0.7429 H   0  0  0  0  0  0  0  0  0  0  0  0
   -0.3862    4.2245   -0.1776 H   0  0  0  0  0  0  0  0  0  0  0  0
   -0.5110    3.7065    1.5129 H   0  0  0  0  0  0  0  0  0  0  0  0
  5  6  2  0  0  0  0
  5  7  1  0  0  0  0
  2  3  1  0  0  0  0
  2  4  1  0  0  0  0
  2  5  1  0  0  0  0
  1  2  1  0  0  0  0
 23 24  2  0  0  0  0
 23 25  1  0  0  0  0
 21 22  1  0  0  0  0
 19 20  1  0  0  0  0
 19 21  1  0  0  0  0
 17 18  1  0  0  0  0
 17 19  1  0  0  0  0
 15 16  1  0  0  0  0
 15 17  2  0  0  0  0
 14 15  1  0  0  0  0
 14 21  2  0  0  0  0
 11 12  1  0  0  0  0
 11 13  1  0  0  0  0
 11 14  1  0  0  0  0
  9 10  1  0  0  0  0
  9 11  1  0  0  0  0
  9 23  1  0  0  0  0
  7  8  1  0  0  0  0
  7  9  1  0  0  0  0
 27 28  1  0  0  0  0
 27 29  1  0  0  0  0
 27 30  1  0  0  0  0
 25 26  1  0  0  0  0
 25 27  1  0  0  0  0
M  CHG  1  15   1
M  END
$$$$
default_name
  -OEChem-01062215323D

 30 30  0     1  0  0  0  0  0999 V2000
   -3.5507   -3.2183    1.8116 H   0  0  0  0  0  0  0  0  0  0  0  0
   -3.4597   -2.3913    1.1076 C   0  0  0  0  0  0  0  0  0  0  0  0
   -4.1577   -1.6043    1.3866 H   0  0  0  0  0  0  0  0  0  0  0  0
   -3.6807   -2.7523    0.1036 H   0  0  0  0  0  0  0  0  0  0  0  0
   -2.0477   -1.8543    1.1546 C   0  0  0  0  0  0  0  0  0  0  0  0
   -1.2227   -2.3443    1.9146 O   0  0  0  0  0  0  0  0  0  0  0  0
   -1.7517   -0.8483    0.3266 N   0  0  0  0  0  0  0  0  0  0  0  0
   -2.4847   -0.5123   -0.2804 H   0  0  0  0  0  0  0  0  0  0  0  0
   -0.4117   -0.2463    0.2186 C   0  0  1  0  0  0  0  0  0  0  0  0
    0.2938   -0.8883    0.7519 H   0  0  0  0  0  0  0  0  0  0  0  0
    0.0086   -0.2431   -1.2695 C   0  0  0  0  0  0  0  0  0  0  0  0
   -0.7370    0.3157   -1.8407 H   0  0  0  0  0  0  0  0  0  0  0  0
    0.9557    0.2914   -1.3696 H   0  0  0  0  0  0  0  0  0  0  0  0
    0.1728   -1.6121   -1.8948 C   0  0  0  0  0  0  0  0  0  0  0  0
    1.2345   -2.4682   -1.6750 N   0  3  0  0  0  0  0  0  0  0  0  0
    1.9871   -2.2753   -1.0079 H   0  0  0  0  0  0  0  0  0  0  0  0
    1.0361   -3.5872   -2.3996 C   0  0  0  0  0  0  0  0  0  0  0  0
    1.6996   -4.4494   -2.4205 H   0  0  0  0  0  0  0  0  0  0  0  0
   -0.1281   -3.4594   -3.0754 N   0  0  0  0  0  0  0  0  0  0  0  0
   -0.5343   -4.1505   -3.7006 H   0  0  0  0  0  0  0  0  0  0  0  0
   -0.6832   -2.2245   -2.7699 C   0  0  0  0  0  0  0  0  0  0  0  0
   -1.6162   -1.8142   -3.1463 H   0  0  0  0  0  0  0  0  0  0  0  0
   -0.3571    1.1285    0.9083 C   0  0  0  0  0  0  0  0  0  0  0  0
   -0.3377    1.2128    2.1373 O   0  0  0  0  0  0  0  0  0  0  0  0
   -0.3463    2.1988    0.1043 N   0  0  0  0  0  0  0  0  0  0  0  0
   -0.3530    2.0333   -0.8906 H   0  0  0  0  0  0  0  0  0  0  0  0
   -0.3290    3.5942    0.5537 C   0  0  0  0  0  0  0  0  0  0  0  0
    0.6818    4.0001    0.4777 H   0  0  0  0  0  0  0  0  0  0  0  0
   -0.9926    4.1949   -0.0707 H   0  0  0  0  0  0  0  0  0  0  0  0
   -0.6618    3.6735    1.5908 H   0  0  0  0  0  0  0  0  0  0  0  0
  5  6  2  0  0  0  0
  5  7  1  0  0  0  0
  2  3  1  0  0  0  0
  2  4  1  0  0  0  0
  2  5  1  0  0  0  0
  1  2  1  0  0  0  0
 23 24  2  0  0  0  0
 23 25  1  0  0  0  0
 21 22  1  0  0  0  0
 19 20  1  0  0  0  0
 19 21  1  0  0  0  0
 17 18  1  0  0  0  0
 17 19  1  0  0  0  0
 15 16  1  0  0  0  0
 15 17  2  0  0  0  0
 14 15  1  0  0  0  0
 14 21  2  0  0  0  0
 11 12  1  0  0  0  0
 11 13  1  0  0  0  0
 11 14  1  0  0  0  0
  9 10  1  0  0  0  0
  9 11  1  0  0  0  0
  9 23  1  0  0  0  0
  7  8  1  0  0  0  0
  7  9  1  0  0  0  0
 27 28  1  0  0  0  0
 27 29  1  0  0  0  0
 27 30  1  0  0  0  0
 25 26  1  0  0  0  0
 25 27  1  0  0  0  0
M  CHG  1  15   1
M  END
$$$$
default_name
  -OEChem-01062215323D

 30 30  0     1  0  0  0  0  0999 V2000
   -3.5507   -3.2183    1.8116 H   0  0  0  0  0  0  0  0  0  0  0  0
   -3.4597   -2.3913    1.1076 C   0  0  0  0  0  0  0  0  0  0  0  0
   -4.1577   -1.6043    1.3866 H   0  0  0  0  0  0  0  0  0  0  0  0
   -3.6807   -2.7523    0.1036 H   0  0  0  0  0  0  0  0  0  0  0  0
   -2.0477   -1.8543    1.1546 C   0  0  0  0  0  0  0  0  0  0  0  0
   -1.2227   -2.3443    1.9146 O   0  0  0  0  0  0  0  0  0  0  0  0
   -1.7517   -0.8483    0.3266 N   0  0  0  0  0  0  0  0  0  0  0  0
   -2.4847   -0.5123   -0.2804 H   0  0  0  0  0  0  0  0  0  0  0  0
   -0.4117   -0.2463    0.2186 C   0  0  1  0  0  0  0  0  0  0  0  0
    0.2938   -0.8883    0.7519 H   0  0  0  0  0  0  0  0  0  0  0  0
    0.0086   -0.2431   -1.2695 C   0  0  0  0  0  0  0  0  0  0  0  0
   -0.7370    0.3157   -1.8407 H   0  0  0  0  0  0  0  0  0  0  0  0
    0.9557    0.2914   -1.3696 H   0  0  0  0  0  0  0  0  0  0  0  0
    0.1728   -1.6121   -1.8948 C   0  0  0  0  0  0  0  0  0  0  0  0
    1.2345   -2.4682   -1.6750 N   0  3  0  0  0  0  0  0  0  0  0  0
    1.9871   -2.2753   -1.0079 H   0  0  0  0  0  0  0  0  0  0  0  0
    1.0361   -3.5872   -2.3996 C   0  0  0  0  0  0  0  0  0  0  0  0
    1.6996   -4.4494   -2.4205 H   0  0  0  0  0  0  0  0  0  0  0  0
   -0.1281   -3.4594   -3.0754 N   0  0  0  0  0  0  0  0  0  0  0  0
   -0.5343   -4.1505   -3.7006 H   0  0  0  0  0  0  0  0  0  0  0  0
   -0.6832   -2.2245   -2.7699 C   0  0  0  0  0  0  0  0  0  0  0  0
   -1.6162   -1.8142   -3.1463 H   0  0  0  0  0  0  0  0  0  0  0  0
   -0.3571    1.1285    0.9083 C   0  0  0  0  0  0  0  0  0  0  0  0
   -0.0633    1.2200    2.1013 O   0  0  0  0  0  0  0  0  0  0  0  0
   -0.6560    2.1892    0.1482 N   0  0  0  0  0  0  0  0  0  0  0  0
   -0.8739    2.0195   -0.8219 H   0  0  0  0  0  0  0  0  0  0  0  0
   -0.6954    3.5790    0.6132 C   0  0  0  0  0  0  0  0  0  0  0  0
    0.2167    4.1000    0.3153 H   0  0  0  0  0  0  0  0  0  0  0  0
   -1.5502    4.0950    0.1726 H   0  0  0  0  0  0  0  0  0  0  0  0
   -0.7857    3.6233    1.7006 H   0  0  0  0  0  0  0  0  0  0  0  0
  5  6  2  0  0  0  0
  5  7  1  0  0  0  0
  2  3  1  0  0  0  0
  2  4  1  0  0  0  0
  2  5  1  0  0  0  0
  1  2  1  0  0  0  0
 23 24  2  0  0  0  0
 23 25  1  0  0  0  0
 21 22  1  0  0  0  0
 19 20  1  0  0  0  0
 19 21  1  0  0  0  0
 17 18  1  0  0  0  0
 17 19  1  0  0  0  0
 15 16  1  0  0  0  0
 15 17  2  0  0  0  0
 14 15  1  0  0  0  0
 14 21  2  0  0  0  0
 11 12  1  0  0  0  0
 11 13  1  0  0  0  0
 11 14  1  0  0  0  0
  9 10  1  0  0  0  0
  9 11  1  0  0  0  0
  9 23  1  0  0  0  0
  7  8  1  0  0  0  0
  7  9  1  0  0  0  0
 27 28  1  0  0  0  0
 27 29  1  0  0  0  0
 27 30  1  0  0  0  0
 25 26  1  0  0  0  0
 25 27  1  0  0  0  0
M  CHG  1  15   1
M  END
$$$$
default_name
  -OEChem-01062215323D

 30 30  0     1  0  0  0  0  0999 V2000
   -3.5507   -3.2183    1.8116 H   0  0  0  0  0  0  0  0  0  0  0  0
   -3.4597   -2.3913    1.1076 C   0  0  0  0  0  0  0  0  0  0  0  0
   -4.1577   -1.6043    1.3866 H   0  0  0  0  0  0  0  0  0  0  0  0
   -3.6807   -2.7523    0.1036 H   0  0  0  0  0  0  0  0  0  0  0  0
   -2.0477   -1.8543    1.1546 C   0  0  0  0  0  0  0  0  0  0  0  0
   -1.2227   -2.3443    1.9146 O   0  0  0  0  0  0  0  0  0  0  0  0
   -1.7517   -0.8483    0.3266 N   0  0  0  0  0  0  0  0  0  0  0  0
   -2.4847   -0.5123   -0.2804 H   0  0  0  0  0  0  0  0  0  0  0  0
   -0.4117   -0.2463    0.2186 C   0  0  1  0  0  0  0  0  0  0  0  0
    0.2938   -0.8883    0.7519 H   0  0  0  0  0  0  0  0  0  0  0  0
    0.0086   -0.2431   -1.2695 C   0  0  0  0  0  0  0  0  0  0  0  0
   -0.7370    0.3157   -1.8407 H   0  0  0  0  0  0  0  0  0  0  0  0
    0.9557    0.2914   -1.3696 H   0  0  0  0  0  0  0  0  0  0  0  0
    0.1728   -1.6121   -1.8948 C   0  0  0  0  0  0  0  0  0  0  0  0
    1.2345   -2.4682   -1.6750 N   0  3  0  0  0  0  0  0  0  0  0  0
    1.9871   -2.2753   -1.0079 H   0  0  0  0  0  0  0  0  0  0  0  0
    1.0361   -3.5872   -2.3996 C   0  0  0  0  0  0  0  0  0  0  0  0
    1.6996   -4.4494   -2.4205 H   0  0  0  0  0  0  0  0  0  0  0  0
   -0.1281   -3.4594   -3.0754 N   0  0  0  0  0  0  0  0  0  0  0  0
   -0.5343   -4.1505   -3.7006 H   0  0  0  0  0  0  0  0  0  0  0  0
   -0.6832   -2.2245   -2.7699 C   0  0  0  0  0  0  0  0  0  0  0  0
   -1.6162   -1.8142   -3.1463 H   0  0  0  0  0  0  0  0  0  0  0  0
   -0.3571    1.1285    0.9083 C   0  0  0  0  0  0  0  0  0  0  0  0
    0.1927    1.2590    2.0031 O   0  0  0  0  0  0  0  0  0  0  0  0
   -0.9438    2.1435    0.2620 N   0  0  0  0  0  0  0  0  0  0  0  0
   -1.3597    1.9451   -0.6353 H   0  0  0  0  0  0  0  0  0  0  0  0
   -1.0339    3.5212    0.7552 C   0  0  0  0  0  0  0  0  0  0  0  0
   -0.2817    4.1440    0.2669 H   0  0  0  0  0  0  0  0  0  0  0  0
   -2.0210    3.9317    0.5355 H   0  0  0  0  0  0  0  0  0  0  0  0
   -0.8742    3.5595    1.8348 H   0  0  0  0  0  0  0  0  0  0  0  0
  5  6  2  0  0  0  0
  5  7  1  0  0  0  0
  2  3  1  0  0  0  0
  2  4  1  0  0  0  0
  2  5  1  0  0  0  0
  1  2  1  0  0  0  0
 23 24  2  0  0  0  0
 23 25  1  0  0  0  0
 21 22  1  0  0  0  0
 19 20  1  0  0  0  0
 19 21  1  0  0  0  0
 17 18  1  0  0  0  0
 17 19  1  0  0  0  0
 15 16  1  0  0  0  0
 15 17  2  0  0  0  0
 14 15  1  0  0  0  0
 14 21  2  0  0  0  0
 11 12  1  0  0  0  0
 11 13  1  0  0  0  0
 11 14  1  0  0  0  0
  9 10  1  0  0  0  0
  9 11  1  0  0  0  0
  9 23  1  0  0  0  0
  7  8  1  0  0  0  0
  7  9  1  0  0  0  0
 27 28  1  0  0  0  0
 27 29  1  0  0  0  0
 27 30  1  0  0  0  0
 25 26  1  0  0  0  0
 25 27  1  0  0  0  0
M  CHG  1  15   1
M  END
$$$$
default_name
  -OEChem-01062215323D

 30 30  0     1  0  0  0  0  0999 V2000
   -3.5507   -3.2183    1.8116 H   0  0  0  0  0  0  0  0  0  0  0  0
   -3.4597   -2.3913    1.1076 C   0  0  0  0  0  0  0  0  0  0  0  0
   -4.1577   -1.6043    1.3866 H   0  0  0  0  0  0  0  0  0  0  0  0
   -3.6807   -2.7523    0.1036 H   0  0  0  0  0  0  0  0  0  0  0  0
   -2.0477   -1.8543    1.1546 C   0  0  0  0  0  0  0  0  0  0  0  0
   -1.2227   -2.3443    1.9146 O   0  0  0  0  0  0  0  0  0  0  0  0
   -1.7517   -0.8483    0.3266 N   0  0  0  0  0  0  0  0  0  0  0  0
   -2.4847   -0.5123   -0.2804 H   0  0  0  0  0  0  0  0  0  0  0  0
   -0.4117   -0.2463    0.2186 C   0  0  1  0  0  0  0  0  0  0  0  0
    0.2938   -0.8883    0.7519 H   0  0  0  0  0  0  0  0  0  0  0  0
    0.0086   -0.2431   -1.2695 C   0  0  0  0  0  0  0  0  0  0  0  0
   -0.7370    0.3157   -1.8407 H   0  0  0  0  0  0  0  0  0  0  0  0
    0.9557    0.2914   -1.3696 H   0  0  0  0  0  0  0  0  0  0  0  0
    0.1728   -1.6121   -1.8948 C   0  0  0  0  0  0  0  0  0  0  0  0
    1.2345   -2.4682   -1.6750 N   0  3  0  0  0  0  0  0  0  0  0  0
    1.9871   -2.2753   -1.0079 H   0  0  0  0  0  0  0  0  0  0  0  0
    1.0361   -3.5872   -2.3996 C   0  0  0  0  0  0  0  0  0  0  0  0
    1.6996   -4.4494   -2.4205 H   0  0  0  0  0  0  0  0  0  0  0  0
   -0.1281   -3.4594   -3.0754 N   0  0  0  0  0  0  0  0  0  0  0  0
   -0.5343   -4.1505   -3.7006 H   0  0  0  0  0  0  0  0  0  0  0  0
   -0.6832   -2.2245   -2.7699 C   0  0  0  0  0  0  0  0  0  0  0  0
   -1.6162   -1.8142   -3.1463 H   0  0  0  0  0  0  0  0  0  0  0  0
   -0.3571    1.1285    0.9083 C   0  0  0  0  0  0  0  0  0  0  0  0
    0.4127    1.3274    1.8495 O   0  0  0  0  0  0  0  0  0  0  0  0
   -1.1903    2.0649    0.4381 N   0  0  0  0  0  0  0  0  0  0  0  0
   -1.7771    1.8153   -0.3433 H   0  0  0  0  0  0  0  0  0  0  0  0
   -1.3213    3.4248    0.9700 C   0  0  0  0  0  0  0  0  0  0  0  0
   -0.7794    4.1292    0.3358 H   0  0  0  0  0  0  0  0  0  0  0  0
   -2.3728    3.7159    0.9934 H   0  0  0  0  0  0  0  0  0  0  0  0
   -0.9213    3.4863    1.9843 H   0  0  0  0  0  0  0  0  0  0  0  0
  5  6  2  0  0  0  0
  5  7  1  0  0  0  0
  2  3  1  0  0  0  0
  2  4  1  0  0  0  0
  2  5  1  0  0  0  0
  1  2  1  0  0  0  0
 23 24  2  0  0  0  0
 23 25  1  0  0  0  0
 21 22  1  0  0  0  0
 19 20  1  0  0  0  0
 19 21  1  0  0  0  0
 17 18  1  0  0  0  0
 17 19  1  0  0  0  0
 15 16  1  0  0  0  0
 15 17  2  0  0  0  0
 14 15  1  0  0  0  0
 14 21  2  0  0  0  0
 11 12  1  0  0  0  0
 11 13  1  0  0  0  0
 11 14  1  0  0  0  0
  9 10  1  0  0  0  0
  9 11  1  0  0  0  0
  9 23  1  0  0  0  0
  7  8  1  0  0  0  0
  7  9  1  0  0  0  0
 27 28  1  0  0  0  0
 27 29  1  0  0  0  0
 27 30  1  0  0  0  0
 25 26  1  0  0  0  0
 25 27  1  0  0  0  0
M  CHG  1  15   1
M  END
$$$$
default_name
  -OEChem-01062215323D

 30 30  0     1  0  0  0  0  0999 V2000
   -3.5507   -3.2183    1.8116 H   0  0  0  0  0  0  0  0  0  0  0  0
   -3.4597   -2.3913    1.1076 C   0  0  0  0  0  0  0  0  0  0  0  0
   -4.1577   -1.6043    1.3866 H   0  0  0  0  0  0  0  0  0  0  0  0
   -3.6807   -2.7523    0.1036 H   0  0  0  0  0  0  0  0  0  0  0  0
   -2.0477   -1.8543    1.1546 C   0  0  0  0  0  0  0  0  0  0  0  0
   -1.2227   -2.3443    1.9146 O   0  0  0  0  0  0  0  0  0  0  0  0
   -1.7517   -0.8483    0.3266 N   0  0  0  0  0  0  0  0  0  0  0  0
   -2.4847   -0.5123   -0.2804 H   0  0  0  0  0  0  0  0  0  0  0  0
   -0.4117   -0.2463    0.2186 C   0  0  1  0  0  0  0  0  0  0  0  0
    0.2938   -0.8883    0.7519 H   0  0  0  0  0  0  0  0  0  0  0  0
    0.0086   -0.2431   -1.2695 C   0  0  0  0  0  0  0  0  0  0  0  0
   -0.7370    0.3157   -1.8407 H   0  0  0  0  0  0  0  0  0  0  0  0
    0.9557    0.2914   -1.3696 H   0  0  0  0  0  0  0  0  0  0  0  0
    0.1728   -1.6121   -1.8948 C   0  0  0  0  0  0  0  0  0  0  0  0
    1.2345   -2.4682   -1.6750 N   0  3  0  0  0  0  0  0  0  0  0  0
    1.9871   -2.2753   -1.0079 H   0  0  0  0  0  0  0  0  0  0  0  0
    1.0361   -3.5872   -2.3996 C   0  0  0  0  0  0  0  0  0  0  0  0
    1.6996   -4.4494   -2.4205 H   0  0  0  0  0  0  0  0  0  0  0  0
   -0.1281   -3.4594   -3.0754 N   0  0  0  0  0  0  0  0  0  0  0  0
   -0.5343   -4.1505   -3.7006 H   0  0  0  0  0  0  0  0  0  0  0  0
   -0.6832   -2.2245   -2.7699 C   0  0  0  0  0  0  0  0  0  0  0  0
   -1.6162   -1.8142   -3.1463 H   0  0  0  0  0  0  0  0  0  0  0  0
   -0.3571    1.1285    0.9083 C   0  0  0  0  0  0  0  0  0  0  0  0
    0.5817    1.4203    1.6508 O   0  0  0  0  0  0  0  0  0  0  0  0
   -1.3785    1.9588    0.6645 N   0  0  0  0  0  0  0  0  0  0  0  0
   -2.0978    1.6387    0.0340 H   0  0  0  0  0  0  0  0  0  0  0  0
   -1.5380    3.2964    1.2432 C   0  0  0  0  0  0  0  0  0  0  0  0
   -1.2425    4.0566    0.5173 H   0  0  0  0  0  0  0  0  0  0  0  0
   -2.5818    3.4625    1.5151 H   0  0  0  0  0  0  0  0  0  0  0  0
   -0.9236    3.4089    2.1390 H   0  0  0  0  0  0  0  0  0  0  0  0
  5  6  2  0  0  0  0
  5  7  1  0  0  0  0
  2  3  1  0  0  0  0
  2  4  1  0  0  0  0
  2  5  1  0  0  0  0
  1  2  1  0  0  0  0
 23 24  2  0  0  0  0
 23 25  1  0  0  0  0
 21 22  1  0  0  0  0
 19 20  1  0  0  0  0
 19 21  1  0  0  0  0
 17 18  1  0  0  0  0
 17 19  1  0  0  0  0
 15 16  1  0  0  0  0
 15 17  2  0  0  0  0
 14 15  1  0  0  0  0
 14 21  2  0  0  0  0
 11 12  1  0  0  0  0
 11 13  1  0  0  0  0
 11 14  1  0  0  0  0
  9 10  1  0  0  0  0
  9 11  1  0  0  0  0
  9 23  1  0  0  0  0
  7  8  1  0  0  0  0
  7  9  1  0  0  0  0
 27 28  1  0  0  0  0
 27 29  1  0  0  0  0
 27 30  1  0  0  0  0
 25 26  1  0  0  0  0
 25 27  1  0  0  0  0
M  CHG  1  15   1
M  END
$$$$
default_name
  -OEChem-01062215323D

 30 30  0     1  0  0  0  0  0999 V2000
   -3.5507   -3.2183    1.8116 H   0  0  0  0  0  0  0  0  0  0  0  0
   -3.4597   -2.3913    1.1076 C   0  0  0  0  0  0  0  0  0  0  0  0
   -4.1577   -1.6043    1.3866 H   0  0  0  0  0  0  0  0  0  0  0  0
   -3.6807   -2.7523    0.1036 H   0  0  0  0  0  0  0  0  0  0  0  0
   -2.0477   -1.8543    1.1546 C   0  0  0  0  0  0  0  0  0  0  0  0
   -1.2227   -2.3443    1.9146 O   0  0  0  0  0  0  0  0  0  0  0  0
   -1.7517   -0.8483    0.3266 N   0  0  0  0  0  0  0  0  0  0  0  0
   -2.4847   -0.5123   -0.2804 H   0  0  0  0  0  0  0  0  0  0  0  0
   -0.4117   -0.2463    0.2186 C   0  0  1  0  0  0  0  0  0  0  0  0
    0.2938   -0.8883    0.7519 H   0  0  0  0  0  0  0  0  0  0  0  0
    0.0086   -0.2431   -1.2695 C   0  0  0  0  0  0  0  0  0  0  0  0
   -0.7370    0.3157   -1.8407 H   0  0  0  0  0  0  0  0  0  0  0  0
    0.9557    0.2914   -1.3696 H   0  0  0  0  0  0  0  0  0  0  0  0
    0.1728   -1.6121   -1.8948 C   0  0  0  0  0  0  0  0  0  0  0  0
    1.2345   -2.4682   -1.6750 N   0  3  0  0  0  0  0  0  0  0  0  0
    1.9871   -2.2753   -1.0079 H   0  0  0  0  0  0  0  0  0  0  0  0
    1.0361   -3.5872   -2.3996 C   0  0  0  0  0  0  0  0  0  0  0  0
    1.6996   -4.4494   -2.4205 H   0  0  0  0  0  0  0  0  0  0  0  0
   -0.1281   -3.4594   -3.0754 N   0  0  0  0  0  0  0  0  0  0  0  0
   -0.5343   -4.1505   -3.7006 H   0  0  0  0  0  0  0  0  0  0  0  0
   -0.6832   -2.2245   -2.7699 C   0  0  0  0  0  0  0  0  0  0  0  0
   -1.6162   -1.8142   -3.1463 H   0  0  0  0  0  0  0  0  0  0  0  0
   -0.3571    1.1285    0.9083 C   0  0  0  0  0  0  0  0  0  0  0  0
    0.6883    1.5315    1.4207 O   0  0  0  0  0  0  0  0  0  0  0  0
   -1.4956    1.8325    0.9256 N   0  0  0  0  0  0  0  0  0  0  0  0
   -2.2998    1.4275    0.4709 H   0  0  0  0  0  0  0  0  0  0  0  0
   -1.6693    3.1447    1.5559 C   0  0  0  0  0  0  0  0  0  0  0  0
   -1.6394    3.9310    0.7990 H   0  0  0  0  0  0  0  0  0  0  0  0
   -2.6337    3.1887    2.0649 H   0  0  0  0  0  0  0  0  0  0  0  0
   -0.8812    3.3323    2.2882 H   0  0  0  0  0  0  0  0  0  0  0  0
  5  6  2  0  0  0  0
  5  7  1  0  0  0  0
  2  3  1  0  0  0  0
  2  4  1  0  0  0  0
  2  5  1  0  0  0  0
  1  2  1  0  0  0  0
 23 24  2  0  0  0  0
 23 25  1  0  0  0  0
 21 22  1  0  0  0  0
 19 20  1  0  0  0  0
 19 21  1  0  0  0  0
 17 18  1  0  0  0  0
 17 19  1  0  0  0  0
 15 16  1  0  0  0  0
 15 17  2  0  0  0  0
 14 15  1  0  0  0  0
 14 21  2  0  0  0  0
 11 12  1  0  0  0  0
 11 13  1  0  0  0  0
 11 14  1  0  0  0  0
  9 10  1  0  0  0  0
  9 11  1  0  0  0  0
  9 23  1  0  0  0  0
  7  8  1  0  0  0  0
  7  9  1  0  0  0  0
 27 28  1  0  0  0  0
 27 29  1  0  0  0  0
 27 30  1  0  0  0  0
 25 26  1  0  0  0  0
 25 27  1  0  0  0  0
M  CHG  1  15   1
M  END
$$$$
default_name
  -OEChem-01062215323D

 30 30  0     1  0  0  0  0  0999 V2000
   -3.5507   -3.2183    1.8116 H   0  0  0  0  0  0  0  0  0  0  0  0
   -3.4597   -2.3913    1.1076 C   0  0  0  0  0  0  0  0  0  0  0  0
   -4.1577   -1.6043    1.3866 H   0  0  0  0  0  0  0  0  0  0  0  0
   -3.6807   -2.7523    0.1036 H   0  0  0  0  0  0  0  0  0  0  0  0
   -2.0477   -1.8543    1.1546 C   0  0  0  0  0  0  0  0  0  0  0  0
   -1.2227   -2.3443    1.9146 O   0  0  0  0  0  0  0  0  0  0  0  0
   -1.7517   -0.8483    0.3266 N   0  0  0  0  0  0  0  0  0  0  0  0
   -2.4847   -0.5123   -0.2804 H   0  0  0  0  0  0  0  0  0  0  0  0
   -0.4117   -0.2463    0.2186 C   0  0  1  0  0  0  0  0  0  0  0  0
    0.2938   -0.8883    0.7519 H   0  0  0  0  0  0  0  0  0  0  0  0
    0.0086   -0.2431   -1.2695 C   0  0  0  0  0  0  0  0  0  0  0  0
   -0.7370    0.3157   -1.8407 H   0  0  0  0  0  0  0  0  0  0  0  0
    0.9557    0.2914   -1.3696 H   0  0  0  0  0  0  0  0  0  0  0  0
    0.1728   -1.6121   -1.8948 C   0  0  0  0  0  0  0  0  0  0  0  0
    1.2345   -2.4682   -1.6750 N   0  3  0  0  0  0  0  0  0  0  0  0
    1.9871   -2.2753   -1.0079 H   0  0  0  0  0  0  0  0  0  0  0  0
    1.0361   -3.5872   -2.3996 C   0  0  0  0  0  0  0  0  0  0  0  0
    1.6996   -4.4494   -2.4205 H   0  0  0  0  0  0  0  0  0  0  0  0
   -0.1281   -3.4594   -3.0754 N   0  0  0  0  0  0  0  0  0  0  0  0
   -0.5343   -4.1505   -3.7006 H   0  0  0  0  0  0  0  0  0  0  0  0
   -0.6832   -2.2245   -2.7699 C   0  0  0  0  0  0  0  0  0  0  0  0
   -1.6162   -1.8142   -3.1463 H   0  0  0  0  0  0  0  0  0  0  0  0
   -0.3571    1.1285    0.9083 C   0  0  0  0  0  0  0  0  0  0  0  0
    0.7252    1.6534    1.1749 O   0  0  0  0  0  0  0  0  0  0  0  0
   -1.5338    1.6944    1.2038 N   0  0  0  0  0  0  0  0  0  0  0  0
   -2.3694    1.1961    0.9377 H   0  0  0  0  0  0  0  0  0  0  0  0
   -1.7063    2.9801    1.8869 C   0  0  0  0  0  0  0  0  0  0  0  0
   -1.9432    3.7611    1.1617 H   0  0  0  0  0  0  0  0  0  0  0  0
   -2.5249    2.9132    2.6056 H   0  0  0  0  0  0  0  0  0  0  0  0
   -0.7968    3.2620    2.4218 H   0  0  0  0  0  0  0  0  0  0  0  0
  5  6  2  0  0  0  0
  5  7  1  0  0  0  0
  2  3  1  0  0  0  0
  2  4  1  0  0  0  0
  2  5  1  0  0  0  0
  1  2  1  0  0  0  0
 23 24  2  0  0  0  0
 23 25  1  0  0  0  0
 21 22  1  0  0  0  0
 19 20  1  0  0  0  0
 19 21  1  0  0  0  0
 17 18  1  0  0  0  0
 17 19  1  0  0  0  0
 15 16  1  0  0  0  0
 15 17  2  0  0  0  0
 14 15  1  0  0  0  0
 14 21  2  0  0  0  0
 11 12  1  0  0  0  0
 11 13  1  0  0  0  0
 11 14  1  0  0  0  0
  9 10  1  0  0  0  0
  9 11  1  0  0  0  0
  9 23  1  0  0  0  0
  7  8  1  0  0  0  0
  7  9  1  0  0  0  0
 27 28  1  0  0  0  0
 27 29  1  0  0  0  0
 27 30  1  0  0  0  0
 25 26  1  0  0  0  0
 25 27  1  0  0  0  0
M  CHG  1  15   1
M  END
$$$$
default_name
  -OEChem-01062215323D

 30 30  0     1  0  0  0  0  0999 V2000
   -3.5507   -3.2183    1.8116 H   0  0  0  0  0  0  0  0  0  0  0  0
   -3.4597   -2.3913    1.1076 C   0  0  0  0  0  0  0  0  0  0  0  0
   -4.1577   -1.6043    1.3866 H   0  0  0  0  0  0  0  0  0  0  0  0
   -3.6807   -2.7523    0.1036 H   0  0  0  0  0  0  0  0  0  0  0  0
   -2.0477   -1.8543    1.1546 C   0  0  0  0  0  0  0  0  0  0  0  0
   -1.2227   -2.3443    1.9146 O   0  0  0  0  0  0  0  0  0  0  0  0
   -1.7517   -0.8483    0.3266 N   0  0  0  0  0  0  0  0  0  0  0  0
   -2.4847   -0.5123   -0.2804 H   0  0  0  0  0  0  0  0  0  0  0  0
   -0.4117   -0.2463    0.2186 C   0  0  1  0  0  0  0  0  0  0  0  0
    0.2938   -0.8883    0.7519 H   0  0  0  0  0  0  0  0  0  0  0  0
    0.0086   -0.2431   -1.2695 C   0  0  0  0  0  0  0  0  0  0  0  0
   -0.7370    0.3157   -1.8407 H   0  0  0  0  0  0  0  0  0  0  0  0
    0.9557    0.2914   -1.3696 H   0  0  0  0  0  0  0  0  0  0  0  0
    0.1728   -1.6121   -1.8948 C   0  0  0  0  0  0  0  0  0  0  0  0
    1.2345   -2.4682   -1.6750 N   0  3  0  0  0  0  0  0  0  0  0  0
    1.9871   -2.2753   -1.0079 H   0  0  0  0  0  0  0  0  0  0  0  0
    1.0361   -3.5872   -2.3996 C   0  0  0  0  0  0  0  0  0  0  0  0
    1.6996   -4.4494   -2.4205 H   0  0  0  0  0  0  0  0  0  0  0  0
   -0.1281   -3.4594   -3.0754 N   0  0  0  0  0  0  0  0  0  0  0  0
   -0.5343   -4.1505   -3.7006 H   0  0  0  0  0  0  0  0  0  0  0  0
   -0.6832   -2.2245   -2.7699 C   0  0  0  0  0  0  0  0  0  0  0  0
   -1.6162   -1.8142   -3.1463 H   0  0  0  0  0  0  0  0  0  0  0  0
   -0.3571    1.1285    0.9083 C   0  0  0  0  0  0  0  0  0  0  0  0
    0.6898    1.7777    0.9299 O   0  0  0  0  0  0  0  0  0  0  0  0
   -1.4903    1.5541    1.4801 N   0  0  0  0  0  0  0  0  0  0  0  0
   -2.3019    0.9602    1.4026 H   0  0  0  0  0  0  0  0  0  0  0  0
   -1.6463    2.8138    2.2137 C   0  0  0  0  0  0  0  0  0  0  0  0
   -2.1330    3.5585    1.5807 H   0  0  0  0  0  0  0  0  0  0  0  0
   -2.2629    2.6547    3.1001 H   0  0  0  0  0  0  0  0  0  0  0  0
   -0.6763    3.2025    2.5307 H   0  0  0  0  0  0  0  0  0  0  0  0
  5  6  2  0  0  0  0
  5  7  1  0  0  0  0
  2  3  1  0  0  0  0
  2  4  1  0  0  0  0
  2  5  1  0  0  0  0
  1  2  1  0  0  0  0
 23 24  2  0  0  0  0
 23 25  1  0  0  0  0
 21 22  1  0  0  0  0
 19 20  1  0  0  0  0
 19 21  1  0  0  0  0
 17 18  1  0  0  0  0
 17 19  1  0  0  0  0
 15 16  1  0  0  0  0
 15 17  2  0  0  0  0
 14 15  1  0  0  0  0
 14 21  2  0  0  0  0
 11 12  1  0  0  0  0
 11 13  1  0  0  0  0
 11 14  1  0  0  0  0
  9 10  1  0  0  0  0
  9 11  1  0  0  0  0
  9 23  1  0  0  0  0
  7  8  1  0  0  0  0
  7  9  1  0  0  0  0
 27 28  1  0  0  0  0
 27 29  1  0  0  0  0
 27 30  1  0  0  0  0
 25 26  1  0  0  0  0
 25 27  1  0  0  0  0
M  CHG  1  15   1
M  END
$$$$
default_name
  -OEChem-01062215323D

 30 30  0     1  0  0  0  0  0999 V2000
   -3.5507   -3.2183    1.8116 H   0  0  0  0  0  0  0  0  0  0  0  0
   -3.4597   -2.3913    1.1076 C   0  0  0  0  0  0  0  0  0  0  0  0
   -4.1577   -1.6043    1.3866 H   0  0  0  0  0  0  0  0  0  0  0  0
   -3.6807   -2.7523    0.1036 H   0  0  0  0  0  0  0  0  0  0  0  0
   -2.0477   -1.8543    1.1546 C   0  0  0  0  0  0  0  0  0  0  0  0
   -1.2227   -2.3443    1.9146 O   0  0  0  0  0  0  0  0  0  0  0  0
   -1.7517   -0.8483    0.3266 N   0  0  0  0  0  0  0  0  0  0  0  0
   -2.4847   -0.5123   -0.2804 H   0  0  0  0  0  0  0  0  0  0  0  0
   -0.4117   -0.2463    0.2186 C   0  0  1  0  0  0  0  0  0  0  0  0
    0.2938   -0.8883    0.7519 H   0  0  0  0  0  0  0  0  0  0  0  0
    0.0086   -0.2431   -1.2695 C   0  0  0  0  0  0  0  0  0  0  0  0
   -0.7370    0.3157   -1.8407 H   0  0  0  0  0  0  0  0  0  0  0  0
    0.9557    0.2914   -1.3696 H   0  0  0  0  0  0  0  0  0  0  0  0
    0.1728   -1.6121   -1.8948 C   0  0  0  0  0  0  0  0  0  0  0  0
    1.2345   -2.4682   -1.6750 N   0  3  0  0  0  0  0  0  0  0  0  0
    1.9871   -2.2753   -1.0079 H   0  0  0  0  0  0  0  0  0  0  0  0
    1.0361   -3.5872   -2.3996 C   0  0  0  0  0  0  0  0  0  0  0  0
    1.6996   -4.4494   -2.4205 H   0  0  0  0  0  0  0  0  0  0  0  0
   -0.1281   -3.4594   -3.0754 N   0  0  0  0  0  0  0  0  0  0  0  0
   -0.5343   -4.1505   -3.7006 H   0  0  0  0  0  0  0  0  0  0  0  0
   -0.6832   -2.2245   -2.7699 C   0  0  0  0  0  0  0  0  0  0  0  0
   -1.6162   -1.8142   -3.1463 H   0  0  0  0  0  0  0  0  0  0  0  0
   -0.3571    1.1285    0.9083 C   0  0  0  0  0  0  0  0  0  0  0  0
    0.5846    1.8959    0.7027 O   0  0  0  0  0  0  0  0  0  0  0  0
   -1.3681    1.4210    1.7356 N   0  0  0  0  0  0  0  0  0  0  0  0
   -2.1018    0.7359    1.8339 H   0  0  0  0  0  0  0  0  0  0  0  0
   -1.4936    2.6570    2.5140 C   0  0  0  0  0  0  0  0  0  0  0  0
   -2.1959    3.3368    2.0275 H   0  0  0  0  0  0  0  0  0  0  0  0
   -1.8655    2.4308    3.5148 H   0  0  0  0  0  0  0  0  0  0  0  0
   -0.5278    3.1581    2.6074 H   0  0  0  0  0  0  0  0  0  0  0  0
  5  6  2  0  0  0  0
  5  7  1  0  0  0  0
  2  3  1  0  0  0  0
  2  4  1  0  0  0  0
  2  5  1  0  0  0  0
  1  2  1  0  0  0  0
 23 24  2  0  0  0  0
 23 25  1  0  0  0  0
 21 22  1  0  0  0  0
 19 20  1  0  0  0  0
 19 21  1  0  0  0  0
 17 18  1  0  0  0  0
 17 19  1  0  0  0  0
 15 16  1  0  0  0  0
 15 17  2  0  0  0  0
 14 15  1  0  0  0  0
 14 21  2  0  0  0  0
 11 12  1  0  0  0  0
 11 13  1  0  0  0  0
 11 14  1  0  0  0  0
  9 10  1  0  0  0  0
  9 11  1  0  0  0  0
  9 23  1  0  0  0  0
  7  8  1  0  0  0  0
  7  9  1  0  0  0  0
 27 28  1  0  0  0  0
 27 29  1  0  0  0  0
 27 30  1  0  0  0  0
 25 26  1  0  0  0  0
 25 27  1  0  0  0  0
M  CHG  1  15   1
M  END
$$$$
default_name
  -OEChem-01062215323D

 30 30  0     1  0  0  0  0  0999 V2000
   -3.5507   -3.2183    1.8116 H   0  0  0  0  0  0  0  0  0  0  0  0
   -3.4597   -2.3913    1.1076 C   0  0  0  0  0  0  0  0  0  0  0  0
   -4.1577   -1.6043    1.3866 H   0  0  0  0  0  0  0  0  0  0  0  0
   -3.6807   -2.7523    0.1036 H   0  0  0  0  0  0  0  0  0  0  0  0
   -2.0477   -1.8543    1.1546 C   0  0  0  0  0  0  0  0  0  0  0  0
   -1.2227   -2.3443    1.9146 O   0  0  0  0  0  0  0  0  0  0  0  0
   -1.7517   -0.8483    0.3266 N   0  0  0  0  0  0  0  0  0  0  0  0
   -2.4847   -0.5123   -0.2804 H   0  0  0  0  0  0  0  0  0  0  0  0
   -0.4117   -0.2463    0.2186 C   0  0  1  0  0  0  0  0  0  0  0  0
    0.2938   -0.8883    0.7519 H   0  0  0  0  0  0  0  0  0  0  0  0
    0.0086   -0.2431   -1.2695 C   0  0  0  0  0  0  0  0  0  0  0  0
   -0.7370    0.3157   -1.8407 H   0  0  0  0  0  0  0  0  0  0  0  0
    0.9557    0.2914   -1.3696 H   0  0  0  0  0  0  0  0  0  0  0  0
    0.1728   -1.6121   -1.8948 C   0  0  0  0  0  0  0  0  0  0  0  0
    1.2345   -2.4682   -1.6750 N   0  3  0  0  0  0  0  0  0  0  0  0
    1.9871   -2.2753   -1.0079 H   0  0  0  0  0  0  0  0  0  0  0  0
    1.0361   -3.5872   -2.3996 C   0  0  0  0  0  0  0  0  0  0  0  0
    1.6996   -4.4494   -2.4205 H   0  0  0  0  0  0  0  0  0  0  0  0
   -0.1281   -3.4594   -3.0754 N   0  0  0  0  0  0  0  0  0  0  0  0
   -0.5343   -4.1505   -3.7006 H   0  0  0  0  0  0  0  0  0  0  0  0
   -0.6832   -2.2245   -2.7699 C   0  0  0  0  0  0  0  0  0  0  0  0
   -1.6162   -1.8142   -3.1463 H   0  0  0  0  0  0  0  0  0  0  0  0
   -0.3571    1.1285    0.9083 C   0  0  0  0  0  0  0  0  0  0  0  0
    0.4167    1.9999    0.5086 O   0  0  0  0  0  0  0  0  0  0  0  0
   -1.1756    1.3044    1.9530 N   0  0  0  0  0  0  0  0  0  0  0  0
   -1.7828    0.5385    2.2021 H   0  0  0  0  0  0  0  0  0  0  0  0
   -1.2585    2.5206    2.7673 C   0  0  0  0  0  0  0  0  0  0  0  0
   -2.1277    3.1114    2.4715 H   0  0  0  0  0  0  0  0  0  0  0  0
   -1.3598    2.2569    3.8215 H   0  0  0  0  0  0  0  0  0  0  0  0
   -0.3614    3.1317    2.6469 H   0  0  0  0  0  0  0  0  0  0  0  0
  5  6  2  0  0  0  0
  5  7  1  0  0  0  0
  2  3  1  0  0  0  0
  2  4  1  0  0  0  0
  2  5  1  0  0  0  0
  1  2  1  0  0  0  0
 23 24  2  0  0  0  0
 23 25  1  0  0  0  0
 21 22  1  0  0  0  0
 19 20  1  0  0  0  0
 19 21  1  0  0  0  0
 17 18  1  0  0  0  0
 17 19  1  0  0  0  0
 15 16  1  0  0  0  0
 15 17  2  0  0  0  0
 14 15  1  0  0  0  0
 14 21  2  0  0  0  0
 11 12  1  0  0  0  0
 11 13  1  0  0  0  0
 11 14  1  0  0  0  0
  9 10  1  0  0  0  0
  9 11  1  0  0  0  0
  9 23  1  0  0  0  0
  7  8  1  0  0  0  0
  7  9  1  0  0  0  0
 27 28  1  0  0  0  0
 27 29  1  0  0  0  0
 27 30  1  0  0  0  0
 25 26  1  0  0  0  0
 25 27  1  0  0  0  0
M  CHG  1  15   1
M  END
$$$$
default_name
  -OEChem-01062215323D

 30 30  0     1  0  0  0  0  0999 V2000
   -3.5507   -3.2183    1.8116 H   0  0  0  0  0  0  0  0  0  0  0  0
   -3.4597   -2.3913    1.1076 C   0  0  0  0  0  0  0  0  0  0  0  0
   -4.1577   -1.6043    1.3866 H   0  0  0  0  0  0  0  0  0  0  0  0
   -3.6807   -2.7523    0.1036 H   0  0  0  0  0  0  0  0  0  0  0  0
   -2.0477   -1.8543    1.1546 C   0  0  0  0  0  0  0  0  0  0  0  0
   -1.2227   -2.3443    1.9146 O   0  0  0  0  0  0  0  0  0  0  0  0
   -1.7517   -0.8483    0.3266 N   0  0  0  0  0  0  0  0  0  0  0  0
   -2.4847   -0.5123   -0.2804 H   0  0  0  0  0  0  0  0  0  0  0  0
   -0.4117   -0.2463    0.2186 C   0  0  1  0  0  0  0  0  0  0  0  0
    0.2938   -0.8883    0.7519 H   0  0  0  0  0  0  0  0  0  0  0  0
    0.0086   -0.2431   -1.2695 C   0  0  0  0  0  0  0  0  0  0  0  0
   -0.7370    0.3157   -1.8407 H   0  0  0  0  0  0  0  0  0  0  0  0
    0.9557    0.2914   -1.3696 H   0  0  0  0  0  0  0  0  0  0  0  0
    0.1728   -1.6121   -1.8948 C   0  0  0  0  0  0  0  0  0  0  0  0
    1.2345   -2.4682   -1.6750 N   0  3  0  0  0  0  0  0  0  0  0  0
    1.9871   -2.2753   -1.0079 H   0  0  0  0  0  0  0  0  0  0  0  0
    1.0361   -3.5872   -2.3996 C   0  0  0  0  0  0  0  0  0  0  0  0
    1.6996   -4.4494   -2.4205 H   0  0  0  0  0  0  0  0  0  0  0  0
   -0.1281   -3.4594   -3.0754 N   0  0  0  0  0  0  0  0  0  0  0  0
   -0.5343   -4.1505   -3.7006 H   0  0  0  0  0  0  0  0  0  0  0  0
   -0.6832   -2.2245   -2.7699 C   0  0  0  0  0  0  0  0  0  0  0  0
   -1.6162   -1.8142   -3.1463 H   0  0  0  0  0  0  0  0  0  0  0  0
   -0.3571    1.1285    0.9083 C   0  0  0  0  0  0  0  0  0  0  0  0
    0.1976    2.0827    0.3609 O   0  0  0  0  0  0  0  0  0  0  0  0
   -0.9259    1.2120    2.1173 N   0  0  0  0  0  0  0  0  0  0  0  0
   -1.3667    0.3814    2.4823 H   0  0  0  0  0  0  0  0  0  0  0  0
   -0.9569    2.4138    2.9564 C   0  0  0  0  0  0  0  0  0  0  0  0
   -1.9331    2.8974    2.8826 H   0  0  0  0  0  0  0  0  0  0  0  0
   -0.7802    2.1447    3.9992 H   0  0  0  0  0  0  0  0  0  0  0  0
   -0.1886    3.1252    2.6462 H   0  0  0  0  0  0  0  0  0  0  0  0
  5  6  2  0  0  0  0
  5  7  1  0  0  0  0
  2  3  1  0  0  0  0
  2  4  1  0  0  0  0
  2  5  1  0  0  0  0
  1  2  1  0  0  0  0
 23 24  2  0  0  0  0
 23 25  1  0  0  0  0
 21 22  1  0  0  0  0
 19 20  1  0  0  0  0
 19 21  1  0  0  0  0
 17 18  1  0  0  0  0
 17 19  1  0  0  0  0
 15 16  1  0  0  0  0
 15 17  2  0  0  0  0
 14 15  1  0  0  0  0
 14 21  2  0  0  0  0
 11 12  1  0  0  0  0
 11 13  1  0  0  0  0
 11 14  1  0  0  0  0
  9 10  1  0  0  0  0
  9 11  1  0  0  0  0
  9 23  1  0  0  0  0
  7  8  1  0  0  0  0
  7  9  1  0  0  0  0
 27 28  1  0  0  0  0
 27 29  1  0  0  0  0
 27 30  1  0  0  0  0
 25 26  1  0  0  0  0
 25 27  1  0  0  0  0
M  CHG  1  15   1
M  END
$$$$
default_name
  -OEChem-01062215323D

 30 30  0     1  0  0  0  0  0999 V2000
   -3.5507   -3.2183    1.8116 H   0  0  0  0  0  0  0  0  0  0  0  0
   -3.4597   -2.3913    1.1076 C   0  0  0  0  0  0  0  0  0  0  0  0
   -4.1577   -1.6043    1.3866 H   0  0  0  0  0  0  0  0  0  0  0  0
   -3.6807   -2.7523    0.1036 H   0  0  0  0  0  0  0  0  0  0  0  0
   -2.0477   -1.8543    1.1546 C   0  0  0  0  0  0  0  0  0  0  0  0
   -1.2227   -2.3443    1.9146 O   0  0  0  0  0  0  0  0  0  0  0  0
   -1.7517   -0.8483    0.3266 N   0  0  0  0  0  0  0  0  0  0  0  0
   -2.4847   -0.5123   -0.2804 H   0  0  0  0  0  0  0  0  0  0  0  0
   -0.4117   -0.2463    0.2186 C   0  0  1  0  0  0  0  0  0  0  0  0
    0.2938   -0.8883    0.7519 H   0  0  0  0  0  0  0  0  0  0  0  0
    0.0086   -0.2431   -1.2695 C   0  0  0  0  0  0  0  0  0  0  0  0
   -0.7370    0.3157   -1.8407 H   0  0  0  0  0  0  0  0  0  0  0  0
    0.9557    0.2914   -1.3696 H   0  0  0  0  0  0  0  0  0  0  0  0
    0.1728   -1.6121   -1.8948 C   0  0  0  0  0  0  0  0  0  0  0  0
    1.2345   -2.4682   -1.6750 N   0  3  0  0  0  0  0  0  0  0  0  0
    1.9871   -2.2753   -1.0079 H   0  0  0  0  0  0  0  0  0  0  0  0
    1.0361   -3.5872   -2.3996 C   0  0  0  0  0  0  0  0  0  0  0  0
    1.6996   -4.4494   -2.4205 H   0  0  0  0  0  0  0  0  0  0  0  0
   -0.1281   -3.4594   -3.0754 N   0  0  0  0  0  0  0  0  0  0  0  0
   -0.5343   -4.1505   -3.7006 H   0  0  0  0  0  0  0  0  0  0  0  0
   -0.6832   -2.2245   -2.7699 C   0  0  0  0  0  0  0  0  0  0  0  0
   -1.6162   -1.8142   -3.1463 H   0  0  0  0  0  0  0  0  0  0  0  0
   -0.3571    1.1285    0.9083 C   0  0  0  0  0  0  0  0  0  0  0  0
   -0.0577    2.1386    0.2697 O   0  0  0  0  0  0  0  0  0  0  0  0
   -0.6359    1.1502    2.2175 N   0  0  0  0  0  0  0  0  0  0  0  0
   -0.8817    0.2754    2.6552 H   0  0  0  0  0  0  0  0  0  0  0  0
   -0.6096    2.3439    3.0683 C   0  0  0  0  0  0  0  0  0  0  0  0
   -1.6252    2.7095    3.2327 H   0  0  0  0  0  0  0  0  0  0  0  0
   -0.1664    2.1020    4.0358 H   0  0  0  0  0  0  0  0  0  0  0  0
   -0.0210    3.1389    2.6056 H   0  0  0  0  0  0  0  0  0  0  0  0
  5  6  2  0  0  0  0
  5  7  1  0  0  0  0
  2  3  1  0  0  0  0
  2  4  1  0  0  0  0
  2  5  1  0  0  0  0
  1  2  1  0  0  0  0
 23 24  2  0  0  0  0
 23 25  1  0  0  0  0
 21 22  1  0  0  0  0
 19 20  1  0  0  0  0
 19 21  1  0  0  0  0
 17 18  1  0  0  0  0
 17 19  1  0  0  0  0
 15 16  1  0  0  0  0
 15 17  2  0  0  0  0
 14 15  1  0  0  0  0
 14 21  2  0  0  0  0
 11 12  1  0  0  0  0
 11 13  1  0  0  0  0
 11 14  1  0  0  0  0
  9 10  1  0  0  0  0
  9 11  1  0  0  0  0
  9 23  1  0  0  0  0
  7  8  1  0  0  0  0
  7  9  1  0  0  0  0
 27 28  1  0  0  0  0
 27 29  1  0  0  0  0
 27 30  1  0  0  0  0
 25 26  1  0  0  0  0
 25 27  1  0  0  0  0
M  CHG  1  15   1
M  END
$$$$
default_name
  -OEChem-01062215323D

 30 30  0     1  0  0  0  0  0999 V2000
   -3.5507   -3.2183    1.8116 H   0  0  0  0  0  0  0  0  0  0  0  0
   -3.4597   -2.3913    1.1076 C   0  0  0  0  0  0  0  0  0  0  0  0
   -4.1577   -1.6043    1.3866 H   0  0  0  0  0  0  0  0  0  0  0  0
   -3.6807   -2.7523    0.1036 H   0  0  0  0  0  0  0  0  0  0  0  0
   -2.0477   -1.8543    1.1546 C   0  0  0  0  0  0  0  0  0  0  0  0
   -1.2227   -2.3443    1.9146 O   0  0  0  0  0  0  0  0  0  0  0  0
   -1.7517   -0.8483    0.3266 N   0  0  0  0  0  0  0  0  0  0  0  0
   -2.4847   -0.5123   -0.2804 H   0  0  0  0  0  0  0  0  0  0  0  0
   -0.4117   -0.2463    0.2186 C   0  0  1  0  0  0  0  0  0  0  0  0
    0.2938   -0.8883    0.7519 H   0  0  0  0  0  0  0  0  0  0  0  0
    0.0086   -0.2431   -1.2695 C   0  0  0  0  0  0  0  0  0  0  0  0
   -0.7370    0.3157   -1.8407 H   0  0  0  0  0  0  0  0  0  0  0  0
    0.9557    0.2914   -1.3696 H   0  0  0  0  0  0  0  0  0  0  0  0
    0.1728   -1.6121   -1.8948 C   0  0  0  0  0  0  0  0  0  0  0  0
    1.2345   -2.4682   -1.6750 N   0  3  0  0  0  0  0  0  0  0  0  0
    1.9871   -2.2753   -1.0079 H   0  0  0  0  0  0  0  0  0  0  0  0
    1.0361   -3.5872   -2.3996 C   0  0  0  0  0  0  0  0  0  0  0  0
    1.6996   -4.4494   -2.4205 H   0  0  0  0  0  0  0  0  0  0  0  0
   -0.1281   -3.4594   -3.0754 N   0  0  0  0  0  0  0  0  0  0  0  0
   -0.5343   -4.1505   -3.7006 H   0  0  0  0  0  0  0  0  0  0  0  0
   -0.6832   -2.2245   -2.7699 C   0  0  0  0  0  0  0  0  0  0  0  0
   -1.6162   -1.8142   -3.1463 H   0  0  0  0  0  0  0  0  0  0  0  0
   -0.3571    1.1285    0.9083 C   0  0  0  0  0  0  0  0  0  0  0  0
   -0.3320    2.1639    0.2411 O   0  0  0  0  0  0  0  0  0  0  0  0
   -0.3256    1.1233    2.2466 N   0  0  0  0  0  0  0  0  0  0  0  0
   -0.3610    0.2277    2.7092 H   0  0  0  0  0  0  0  0  0  0  0  0
   -0.2401    2.3156    3.0954 C   0  0  0  0  0  0  0  0  0  0  0  0
   -1.2251    2.5606    3.4980 H   0  0  0  0  0  0  0  0  0  0  0  0
    0.4400    2.1316    3.9289 H   0  0  0  0  0  0  0  0  0  0  0  0
    0.1299    3.1720    2.5277 H   0  0  0  0  0  0  0  0  0  0  0  0
  5  6  2  0  0  0  0
  5  7  1  0  0  0  0
  2  3  1  0  0  0  0
  2  4  1  0  0  0  0
  2  5  1  0  0  0  0
  1  2  1  0  0  0  0
 23 24  2  0  0  0  0
 23 25  1  0  0  0  0
 21 22  1  0  0  0  0
 19 20  1  0  0  0  0
 19 21  1  0  0  0  0
 17 18  1  0  0  0  0
 17 19  1  0  0  0  0
 15 16  1  0  0  0  0
 15 17  2  0  0  0  0
 14 15  1  0  0  0  0
 14 21  2  0  0  0  0
 11 12  1  0  0  0  0
 11 13  1  0  0  0  0
 11 14  1  0  0  0  0
  9 10  1  0  0  0  0
  9 11  1  0  0  0  0
  9 23  1  0  0  0  0
  7  8  1  0  0  0  0
  7  9  1  0  0  0  0
 27 28  1  0  0  0  0
 27 29  1  0  0  0  0
 27 30  1  0  0  0  0
 25 26  1  0  0  0  0
 25 27  1  0  0  0  0
M  CHG  1  15   1
M  END
$$$$
default_name
  -OEChem-01062215323D

 30 30  0     1  0  0  0  0  0999 V2000
   -3.5507   -3.2183    1.8116 H   0  0  0  0  0  0  0  0  0  0  0  0
   -3.4597   -2.3913    1.1076 C   0  0  0  0  0  0  0  0  0  0  0  0
   -4.1577   -1.6043    1.3866 H   0  0  0  0  0  0  0  0  0  0  0  0
   -3.6807   -2.7523    0.1036 H   0  0  0  0  0  0  0  0  0  0  0  0
   -2.0477   -1.8543    1.1546 C   0  0  0  0  0  0  0  0  0  0  0  0
   -1.2227   -2.3443    1.9146 O   0  0  0  0  0  0  0  0  0  0  0  0
   -1.7517   -0.8483    0.3266 N   0  0  0  0  0  0  0  0  0  0  0  0
   -2.4847   -0.5123   -0.2804 H   0  0  0  0  0  0  0  0  0  0  0  0
   -0.4117   -0.2463    0.2186 C   0  0  1  0  0  0  0  0  0  0  0  0
    0.2938   -0.8883    0.7519 H   0  0  0  0  0  0  0  0  0  0  0  0
    0.0086   -0.2431   -1.2695 C   0  0  0  0  0  0  0  0  0  0  0  0
   -0.7370    0.3157   -1.8407 H   0  0  0  0  0  0  0  0  0  0  0  0
    0.9557    0.2914   -1.3696 H   0  0  0  0  0  0  0  0  0  0  0  0
    0.1728   -1.6121   -1.8948 C   0  0  0  0  0  0  0  0  0  0  0  0
    1.2345   -2.4682   -1.6750 N   0  3  0  0  0  0  0  0  0  0  0  0
    1.9871   -2.2753   -1.0079 H   0  0  0  0  0  0  0  0  0  0  0  0
    1.0361   -3.5872   -2.3996 C   0  0  0  0  0  0  0  0  0  0  0  0
    1.6996   -4.4494   -2.4205 H   0  0  0  0  0  0  0  0  0  0  0  0
   -0.1281   -3.4594   -3.0754 N   0  0  0  0  0  0  0  0  0  0  0  0
   -0.5343   -4.1505   -3.7006 H   0  0  0  0  0  0  0  0  0  0  0  0
   -0.6832   -2.2245   -2.7699 C   0  0  0  0  0  0  0  0  0  0  0  0
   -1.6162   -1.8142   -3.1463 H   0  0  0  0  0  0  0  0  0  0  0  0
   -0.3571    1.1285    0.9083 C   0  0  0  0  0  0  0  0  0  0  0  0
   -0.6064    2.1567    0.2771 O   0  0  0  0  0  0  0  0  0  0  0  0
   -0.0159    1.1330    2.2028 N   0  0  0  0  0  0  0  0  0  0  0  0
    0.1599    0.2414    2.6405 H   0  0  0  0  0  0  0  0  0  0  0  0
    0.1263    2.3309    3.0360 C   0  0  0  0  0  0  0  0  0  0  0  0
   -0.7600    2.4607    3.6603 H   0  0  0  0  0  0  0  0  0  0  0  0
    0.9976    2.2315    3.6856 H   0  0  0  0  0  0  0  0  0  0  0  0
    0.2538    3.2221    2.4180 H   0  0  0  0  0  0  0  0  0  0  0  0
  5  6  2  0  0  0  0
  5  7  1  0  0  0  0
  2  3  1  0  0  0  0
  2  4  1  0  0  0  0
  2  5  1  0  0  0  0
  1  2  1  0  0  0  0
 23 24  2  0  0  0  0
 23 25  1  0  0  0  0
 21 22  1  0  0  0  0
 19 20  1  0  0  0  0
 19 21  1  0  0  0  0
 17 18  1  0  0  0  0
 17 19  1  0  0  0  0
 15 16  1  0  0  0  0
 15 17  2  0  0  0  0
 14 15  1  0  0  0  0
 14 21  2  0  0  0  0
 11 12  1  0  0  0  0
 11 13  1  0  0  0  0
 11 14  1  0  0  0  0
  9 10  1  0  0  0  0
  9 11  1  0  0  0  0
  9 23  1  0  0  0  0
  7  8  1  0  0  0  0
  7  9  1  0  0  0  0
 27 28  1  0  0  0  0
 27 29  1  0  0  0  0
 27 30  1  0  0  0  0
 25 26  1  0  0  0  0
 25 27  1  0  0  0  0
M  CHG  1  15   1
M  END
$$$$
default_name
  -OEChem-01062215323D

 30 30  0     1  0  0  0  0  0999 V2000
   -3.5507   -3.2183    1.8116 H   0  0  0  0  0  0  0  0  0  0  0  0
   -3.4597   -2.3913    1.1076 C   0  0  0  0  0  0  0  0  0  0  0  0
   -4.1577   -1.6043    1.3866 H   0  0  0  0  0  0  0  0  0  0  0  0
   -3.6807   -2.7523    0.1036 H   0  0  0  0  0  0  0  0  0  0  0  0
   -2.0477   -1.8543    1.1546 C   0  0  0  0  0  0  0  0  0  0  0  0
   -1.2227   -2.3443    1.9146 O   0  0  0  0  0  0  0  0  0  0  0  0
   -1.7517   -0.8483    0.3266 N   0  0  0  0  0  0  0  0  0  0  0  0
   -2.4847   -0.5123   -0.2804 H   0  0  0  0  0  0  0  0  0  0  0  0
   -0.4117   -0.2463    0.2186 C   0  0  1  0  0  0  0  0  0  0  0  0
    0.2938   -0.8883    0.7519 H   0  0  0  0  0  0  0  0  0  0  0  0
    0.0086   -0.2431   -1.2695 C   0  0  0  0  0  0  0  0  0  0  0  0
   -0.7370    0.3157   -1.8407 H   0  0  0  0  0  0  0  0  0  0  0  0
    0.9557    0.2914   -1.3696 H   0  0  0  0  0  0  0  0  0  0  0  0
    0.1728   -1.6121   -1.8948 C   0  0  0  0  0  0  0  0  0  0  0  0
    1.2345   -2.4682   -1.6750 N   0  3  0  0  0  0  0  0  0  0  0  0
    1.9871   -2.2753   -1.0079 H   0  0  0  0  0  0  0  0  0  0  0  0
    1.0361   -3.5872   -2.3996 C   0  0  0  0  0  0  0  0  0  0  0  0
    1.6996   -4.4494   -2.4205 H   0  0  0  0  0  0  0  0  0  0  0  0
   -0.1281   -3.4594   -3.0754 N   0  0  0  0  0  0  0  0  0  0  0  0
   -0.5343   -4.1505   -3.7006 H   0  0  0  0  0  0  0  0  0  0  0  0
   -0.6832   -2.2245   -2.7699 C   0  0  0  0  0  0  0  0  0  0  0  0
   -1.6162   -1.8142   -3.1463 H   0  0  0  0  0  0  0  0  0  0  0  0
   -0.3571    1.1285    0.9083 C   0  0  0  0  0  0  0  0  0  0  0  0
   -0.8624    2.1176    0.3752 O   0  0  0  0  0  0  0  0  0  0  0  0
    0.2720    1.1787    2.0890 N   0  0  0  0  0  0  0  0  0  0  0  0
    0.6457    0.3158    2.4539 H   0  0  0  0  0  0  0  0  0  0  0  0
    0.4648    2.3887    2.8940 C   0  0  0  0  0  0  0  0  0  0  0  0
   -0.2616    2.4166    3.7087 H   0  0  0  0  0  0  0  0  0  0  0  0
    1.4684    2.3948    3.3227 H   0  0  0  0  0  0  0  0  0  0  0  0
    0.3422    3.2860    2.2837 H   0  0  0  0  0  0  0  0  0  0  0  0
  5  6  2  0  0  0  0
  5  7  1  0  0  0  0
  2  3  1  0  0  0  0
  2  4  1  0  0  0  0
  2  5  1  0  0  0  0
  1  2  1  0  0  0  0
 23 24  2  0  0  0  0
 23 25  1  0  0  0  0
 21 22  1  0  0  0  0
 19 20  1  0  0  0  0
 19 21  1  0  0  0  0
 17 18  1  0  0  0  0
 17 19  1  0  0  0  0
 15 16  1  0  0  0  0
 15 17  2  0  0  0  0
 14 15  1  0  0  0  0
 14 21  2  0  0  0  0
 11 12  1  0  0  0  0
 11 13  1  0  0  0  0
 11 14  1  0  0  0  0
  9 10  1  0  0  0  0
  9 11  1  0  0  0  0
  9 23  1  0  0  0  0
  7  8  1  0  0  0  0
  7  9  1  0  0  0  0
 27 28  1  0  0  0  0
 27 29  1  0  0  0  0
 27 30  1  0  0  0  0
 25 26  1  0  0  0  0
 25 27  1  0  0  0  0
M  CHG  1  15   1
M  END
$$$$
default_name
  -OEChem-01062215323D

 30 30  0     1  0  0  0  0  0999 V2000
   -3.5507   -3.2183    1.8116 H   0  0  0  0  0  0  0  0  0  0  0  0
   -3.4597   -2.3913    1.1076 C   0  0  0  0  0  0  0  0  0  0  0  0
   -4.1577   -1.6043    1.3866 H   0  0  0  0  0  0  0  0  0  0  0  0
   -3.6807   -2.7523    0.1036 H   0  0  0  0  0  0  0  0  0  0  0  0
   -2.0477   -1.8543    1.1546 C   0  0  0  0  0  0  0  0  0  0  0  0
   -1.2227   -2.3443    1.9146 O   0  0  0  0  0  0  0  0  0  0  0  0
   -1.7517   -0.8483    0.3266 N   0  0  0  0  0  0  0  0  0  0  0  0
   -2.4847   -0.5123   -0.2804 H   0  0  0  0  0  0  0  0  0  0  0  0
   -0.4117   -0.2463    0.2186 C   0  0  1  0  0  0  0  0  0  0  0  0
    0.2938   -0.8883    0.7519 H   0  0  0  0  0  0  0  0  0  0  0  0
    0.0086   -0.2431   -1.2695 C   0  0  0  0  0  0  0  0  0  0  0  0
   -0.7370    0.3157   -1.8407 H   0  0  0  0  0  0  0  0  0  0  0  0
    0.9557    0.2914   -1.3696 H   0  0  0  0  0  0  0  0  0  0  0  0
    0.1728   -1.6121   -1.8948 C   0  0  0  0  0  0  0  0  0  0  0  0
    1.2345   -2.4682   -1.6750 N   0  3  0  0  0  0  0  0  0  0  0  0
    1.9871   -2.2753   -1.0079 H   0  0  0  0  0  0  0  0  0  0  0  0
    1.0361   -3.5872   -2.3996 C   0  0  0  0  0  0  0  0  0  0  0  0
    1.6996   -4.4494   -2.4205 H   0  0  0  0  0  0  0  0  0  0  0  0
   -0.1281   -3.4594   -3.0754 N   0  0  0  0  0  0  0  0  0  0  0  0
   -0.5343   -4.1505   -3.7006 H   0  0  0  0  0  0  0  0  0  0  0  0
   -0.6832   -2.2245   -2.7699 C   0  0  0  0  0  0  0  0  0  0  0  0
   -1.6162   -1.8142   -3.1463 H   0  0  0  0  0  0  0  0  0  0  0  0
   -0.3571    1.1285    0.9083 C   0  0  0  0  0  0  0  0  0  0  0  0
   -1.0824    2.0493    0.5289 O   0  0  0  0  0  0  0  0  0  0  0  0
    0.5184    1.2572    1.9129 N   0  0  0  0  0  0  0  0  0  0  0  0
    1.0631    0.4457    2.1619 H   0  0  0  0  0  0  0  0  0  0  0  0
    0.7521    2.4851    2.6791 C   0  0  0  0  0  0  0  0  0  0  0  0
    0.2361    2.4314    3.6398 H   0  0  0  0  0  0  0  0  0  0  0  0
    1.8203    2.6106    2.8648 H   0  0  0  0  0  0  0  0  0  0  0  0
    0.3893    3.3591    2.1342 H   0  0  0  0  0  0  0  0  0  0  0  0
  5  6  2  0  0  0  0
  5  7  1  0  0  0  0
  2  3  1  0  0  0  0
  2  4  1  0  0  0  0
  2  5  1  0  0  0  0
  1  2  1  0  0  0  0
 23 24  2  0  0  0  0
 23 25  1  0  0  0  0
 21 22  1  0  0  0  0
 19 20  1  0  0  0  0
 19 21  1  0  0  0  0
 17 18  1  0  0  0  0
 17 19  1  0  0  0  0
 15 16  1  0  0  0  0
 15 17  2  0  0  0  0
 14 15  1  0  0  0  0
 14 21  2  0  0  0  0
 11 12  1  0  0  0  0
 11 13  1  0  0  0  0
 11 14  1  0  0  0  0
  9 10  1  0  0  0  0
  9 11  1  0  0  0  0
  9 23  1  0  0  0  0
  7  8  1  0  0  0  0
  7  9  1  0  0  0  0
 27 28  1  0  0  0  0
 27 29  1  0  0  0  0
 27 30  1  0  0  0  0
 25 26  1  0  0  0  0
 25 27  1  0  0  0  0
M  CHG  1  15   1
M  END
$$$$
default_name
  -OEChem-01062215323D

 30 30  0     1  0  0  0  0  0999 V2000
   -3.5507   -3.2183    1.8116 H   0  0  0  0  0  0  0  0  0  0  0  0
   -3.4597   -2.3913    1.1076 C   0  0  0  0  0  0  0  0  0  0  0  0
   -4.1577   -1.6043    1.3866 H   0  0  0  0  0  0  0  0  0  0  0  0
   -3.6807   -2.7523    0.1036 H   0  0  0  0  0  0  0  0  0  0  0  0
   -2.0477   -1.8543    1.1546 C   0  0  0  0  0  0  0  0  0  0  0  0
   -1.2227   -2.3443    1.9146 O   0  0  0  0  0  0  0  0  0  0  0  0
   -1.7517   -0.8483    0.3266 N   0  0  0  0  0  0  0  0  0  0  0  0
   -2.4847   -0.5123   -0.2804 H   0  0  0  0  0  0  0  0  0  0  0  0
   -0.4117   -0.2463    0.2186 C   0  0  1  0  0  0  0  0  0  0  0  0
    0.2938   -0.8883    0.7519 H   0  0  0  0  0  0  0  0  0  0  0  0
    0.0086   -0.2431   -1.2695 C   0  0  0  0  0  0  0  0  0  0  0  0
   -0.7370    0.3157   -1.8407 H   0  0  0  0  0  0  0  0  0  0  0  0
    0.9557    0.2914   -1.3696 H   0  0  0  0  0  0  0  0  0  0  0  0
    0.1728   -1.6121   -1.8948 C   0  0  0  0  0  0  0  0  0  0  0  0
    1.2345   -2.4682   -1.6750 N   0  3  0  0  0  0  0  0  0  0  0  0
    1.9871   -2.2753   -1.0079 H   0  0  0  0  0  0  0  0  0  0  0  0
    1.0361   -3.5872   -2.3996 C   0  0  0  0  0  0  0  0  0  0  0  0
    1.6996   -4.4494   -2.4205 H   0  0  0  0  0  0  0  0  0  0  0  0
   -0.1281   -3.4594   -3.0754 N   0  0  0  0  0  0  0  0  0  0  0  0
   -0.5343   -4.1505   -3.7006 H   0  0  0  0  0  0  0  0  0  0  0  0
   -0.6832   -2.2245   -2.7699 C   0  0  0  0  0  0  0  0  0  0  0  0
   -1.6162   -1.8142   -3.1463 H   0  0  0  0  0  0  0  0  0  0  0  0
   -0.3571    1.1285    0.9083 C   0  0  0  0  0  0  0  0  0  0  0  0
   -1.2514    1.9563    0.7275 O   0  0  0  0  0  0  0  0  0  0  0  0
    0.7066    1.3633    1.6865 N   0  0  0  0  0  0  0  0  0  0  0  0
    1.3837    0.6222    1.7847 H   0  0  0  0  0  0  0  0  0  0  0  0
    0.9689    2.6135    2.4060 C   0  0  0  0  0  0  0  0  0  0  0  0
    0.6992    2.5040    3.4584 H   0  0  0  0  0  0  0  0  0  0  0  0
    2.0293    2.8640    2.3431 H   0  0  0  0  0  0  0  0  0  0  0  0
    0.3917    3.4366    1.9796 H   0  0  0  0  0  0  0  0  0  0  0  0
  5  6  2  0  0  0  0
  5  7  1  0  0  0  0
  2  3  1  0  0  0  0
  2  4  1  0  0  0  0
  2  5  1  0  0  0  0
  1  2  1  0  0  0  0
 23 24  2  0  0  0  0
 23 25  1  0  0  0  0
 21 22  1  0  0  0  0
 19 20  1  0  0  0  0
 19 21  1  0  0  0  0
 17 18  1  0  0  0  0
 17 19  1  0  0  0  0
 15 16  1  0  0  0  0
 15 17  2  0  0  0  0
 14 15  1  0  0  0  0
 14 21  2  0  0  0  0
 11 12  1  0  0  0  0
 11 13  1  0  0  0  0
 11 14  1  0  0  0  0
  9 10  1  0  0  0  0
  9 11  1  0  0  0  0
  9 23  1  0  0  0  0
  7  8  1  0  0  0  0
  7  9  1  0  0  0  0
 27 28  1  0  0  0  0
 27 29  1  0  0  0  0
 27 30  1  0  0  0  0
 25 26  1  0  0  0  0
 25 27  1  0  0  0  0
M  CHG  1  15   1
M  END
$$$$
default_name
  -OEChem-01062215323D

 30 30  0     1  0  0  0  0  0999 V2000
   -3.5507   -3.2183    1.8116 H   0  0  0  0  0  0  0  0  0  0  0  0
   -3.4597   -2.3913    1.1076 C   0  0  0  0  0  0  0  0  0  0  0  0
   -4.1577   -1.6043    1.3866 H   0  0  0  0  0  0  0  0  0  0  0  0
   -3.6807   -2.7523    0.1036 H   0  0  0  0  0  0  0  0  0  0  0  0
   -2.0477   -1.8543    1.1546 C   0  0  0  0  0  0  0  0  0  0  0  0
   -1.2227   -2.3443    1.9146 O   0  0  0  0  0  0  0  0  0  0  0  0
   -1.7517   -0.8483    0.3266 N   0  0  0  0  0  0  0  0  0  0  0  0
   -2.4847   -0.5123   -0.2804 H   0  0  0  0  0  0  0  0  0  0  0  0
   -0.4117   -0.2463    0.2186 C   0  0  1  0  0  0  0  0  0  0  0  0
    0.2938   -0.8883    0.7519 H   0  0  0  0  0  0  0  0  0  0  0  0
    0.0086   -0.2431   -1.2695 C   0  0  0  0  0  0  0  0  0  0  0  0
   -0.7370    0.3157   -1.8407 H   0  0  0  0  0  0  0  0  0  0  0  0
    0.9557    0.2914   -1.3696 H   0  0  0  0  0  0  0  0  0  0  0  0
    0.1728   -1.6121   -1.8948 C   0  0  0  0  0  0  0  0  0  0  0  0
    1.2345   -2.4682   -1.6750 N   0  3  0  0  0  0  0  0  0  0  0  0
    1.9871   -2.2753   -1.0079 H   0  0  0  0  0  0  0  0  0  0  0  0
    1.0361   -3.5872   -2.3996 C   0  0  0  0  0  0  0  0  0  0  0  0
    1.6996   -4.4494   -2.4205 H   0  0  0  0  0  0  0  0  0  0  0  0
   -0.1281   -3.4594   -3.0754 N   0  0  0  0  0  0  0  0  0  0  0  0
   -0.5343   -4.1505   -3.7006 H   0  0  0  0  0  0  0  0  0  0  0  0
   -0.6832   -2.2245   -2.7699 C   0  0  0  0  0  0  0  0  0  0  0  0
   -1.6162   -1.8142   -3.1463 H   0  0  0  0  0  0  0  0  0  0  0  0
   -0.3571    1.1285    0.9083 C   0  0  0  0  0  0  0  0  0  0  0  0
   -1.3580    1.8451    0.9576 O   0  0  0  0  0  0  0  0  0  0  0  0
    0.8238    1.4897    1.4253 N   0  0  0  0  0  0  0  0  0  0  0  0
    1.5858    0.8334    1.3477 H   0  0  0  0  0  0  0  0  0  0  0  0
    1.1002    2.7651    2.0933 C   0  0  0  0  0  0  0  0  0  0  0  0
    1.0962    2.6296    3.1767 H   0  0  0  0  0  0  0  0  0  0  0  0
    2.0811    3.1378    1.7933 H   0  0  0  0  0  0  0  0  0  0  0  0
    0.3492    3.5131    1.8304 H   0  0  0  0  0  0  0  0  0  0  0  0
  5  6  2  0  0  0  0
  5  7  1  0  0  0  0
  2  3  1  0  0  0  0
  2  4  1  0  0  0  0
  2  5  1  0  0  0  0
  1  2  1  0  0  0  0
 23 24  2  0  0  0  0
 23 25  1  0  0  0  0
 21 22  1  0  0  0  0
 19 20  1  0  0  0  0
 19 21  1  0  0  0  0
 17 18  1  0  0  0  0
 17 19  1  0  0  0  0
 15 16  1  0  0  0  0
 15 17  2  0  0  0  0
 14 15  1  0  0  0  0
 14 21  2  0  0  0  0
 11 12  1  0  0  0  0
 11 13  1  0  0  0  0
 11 14  1  0  0  0  0
  9 10  1  0  0  0  0
  9 11  1  0  0  0  0
  9 23  1  0  0  0  0
  7  8  1  0  0  0  0
  7  9  1  0  0  0  0
 27 28  1  0  0  0  0
 27 29  1  0  0  0  0
 27 30  1  0  0  0  0
 25 26  1  0  0  0  0
 25 27  1  0  0  0  0
M  CHG  1  15   1
M  END
$$$$
default_name
  -OEChem-01062215323D

 30 30  0     1  0  0  0  0  0999 V2000
   -3.5507   -3.2183    1.8116 H   0  0  0  0  0  0  0  0  0  0  0  0
   -3.4597   -2.3913    1.1076 C   0  0  0  0  0  0  0  0  0  0  0  0
   -4.1577   -1.6043    1.3866 H   0  0  0  0  0  0  0  0  0  0  0  0
   -3.6807   -2.7523    0.1036 H   0  0  0  0  0  0  0  0  0  0  0  0
   -2.0477   -1.8543    1.1546 C   0  0  0  0  0  0  0  0  0  0  0  0
   -1.2227   -2.3443    1.9146 O   0  0  0  0  0  0  0  0  0  0  0  0
   -1.7517   -0.8483    0.3266 N   0  0  0  0  0  0  0  0  0  0  0  0
   -2.4847   -0.5123   -0.2804 H   0  0  0  0  0  0  0  0  0  0  0  0
   -0.4117   -0.2463    0.2186 C   0  0  1  0  0  0  0  0  0  0  0  0
    0.2938   -0.8883    0.7519 H   0  0  0  0  0  0  0  0  0  0  0  0
    0.0086   -0.2431   -1.2695 C   0  0  0  0  0  0  0  0  0  0  0  0
   -0.7370    0.3157   -1.8407 H   0  0  0  0  0  0  0  0  0  0  0  0
    0.9557    0.2914   -1.3696 H   0  0  0  0  0  0  0  0  0  0  0  0
    0.1728   -1.6121   -1.8948 C   0  0  0  0  0  0  0  0  0  0  0  0
    1.2345   -2.4682   -1.6750 N   0  3  0  0  0  0  0  0  0  0  0  0
    1.9871   -2.2753   -1.0079 H   0  0  0  0  0  0  0  0  0  0  0  0
    1.0361   -3.5872   -2.3996 C   0  0  0  0  0  0  0  0  0  0  0  0
    1.6996   -4.4494   -2.4205 H   0  0  0  0  0  0  0  0  0  0  0  0
   -0.1281   -3.4594   -3.0754 N   0  0  0  0  0  0  0  0  0  0  0  0
   -0.5343   -4.1505   -3.7006 H   0  0  0  0  0  0  0  0  0  0  0  0
   -0.6832   -2.2245   -2.7699 C   0  0  0  0  0  0  0  0  0  0  0  0
   -1.6162   -1.8142   -3.1463 H   0  0  0  0  0  0  0  0  0  0  0  0
   -0.3571    1.1285    0.9083 C   0  0  0  0  0  0  0  0  0  0  0  0
   -1.3949    1.7232    1.2035 O   0  0  0  0  0  0  0  0  0  0  0  0
    0.8619    1.6277    1.1471 N   0  0  0  0  0  0  0  0  0  0  0  0
    1.6554    1.0648    0.8809 H   0  0  0  0  0  0  0  0  0  0  0  0
    1.1371    2.9297    1.7622 C   0  0  0  0  0  0  0  0  0  0  0  0
    1.3999    2.7995    2.8140 H   0  0  0  0  0  0  0  0  0  0  0  0
    1.9723    3.4133    1.2526 H   0  0  0  0  0  0  0  0  0  0  0  0
    0.2649    3.5835    1.6968 H   0  0  0  0  0  0  0  0  0  0  0  0
  5  6  2  0  0  0  0
  5  7  1  0  0  0  0
  2  3  1  0  0  0  0
  2  4  1  0  0  0  0
  2  5  1  0  0  0  0
  1  2  1  0  0  0  0
 23 24  2  0  0  0  0
 23 25  1  0  0  0  0
 21 22  1  0  0  0  0
 19 20  1  0  0  0  0
 19 21  1  0  0  0  0
 17 18  1  0  0  0  0
 17 19  1  0  0  0  0
 15 16  1  0  0  0  0
 15 17  2  0  0  0  0
 14 15  1  0  0  0  0
 14 21  2  0  0  0  0
 11 12  1  0  0  0  0
 11 13  1  0  0  0  0
 11 14  1  0  0  0  0
  9 10  1  0  0  0  0
  9 11  1  0  0  0  0
  9 23  1  0  0  0  0
  7  8  1  0  0  0  0
  7  9  1  0  0  0  0
 27 28  1  0  0  0  0
 27 29  1  0  0  0  0
 27 30  1  0  0  0  0
 25 26  1  0  0  0  0
 25 27  1  0  0  0  0
M  CHG  1  15   1
M  END
$$$$
default_name
  -OEChem-01062215323D

 30 30  0     1  0  0  0  0  0999 V2000
   -3.5507   -3.2183    1.8116 H   0  0  0  0  0  0  0  0  0  0  0  0
   -3.4597   -2.3913    1.1076 C   0  0  0  0  0  0  0  0  0  0  0  0
   -4.1577   -1.6043    1.3866 H   0  0  0  0  0  0  0  0  0  0  0  0
   -3.6807   -2.7523    0.1036 H   0  0  0  0  0  0  0  0  0  0  0  0
   -2.0477   -1.8543    1.1546 C   0  0  0  0  0  0  0  0  0  0  0  0
   -1.2227   -2.3443    1.9146 O   0  0  0  0  0  0  0  0  0  0  0  0
   -1.7517   -0.8483    0.3266 N   0  0  0  0  0  0  0  0  0  0  0  0
   -2.4847   -0.5123   -0.2804 H   0  0  0  0  0  0  0  0  0  0  0  0
   -0.4117   -0.2463    0.2186 C   0  0  1  0  0  0  0  0  0  0  0  0
    0.3246   -1.0006    0.5070 H   0  0  0  0  0  0  0  0  0  0  0  0
   -0.1478    0.1061   -1.2637 C   0  0  0  0  0  0  0  0  0  0  0  0
   -0.9305    0.7888   -1.6041 H   0  0  0  0  0  0  0  0  0  0  0  0
    0.8003    0.6431   -1.3375 H   0  0  0  0  0  0  0  0  0  0  0  0
   -0.0926   -1.0773   -2.2065 C   0  0  0  0  0  0  0  0  0  0  0  0
    0.9585   -1.9677   -2.3095 N   0  3  0  0  0  0  0  0  0  0  0  0
    1.7819   -1.9428   -1.7011 H   0  0  0  0  0  0  0  0  0  0  0  0
    0.6509   -2.8824   -3.2505 C   0  0  0  0  0  0  0  0  0  0  0  0
    1.2811   -3.7194   -3.5445 H   0  0  0  0  0  0  0  0  0  0  0  0
   -0.5724   -2.5910   -3.7477 N   0  0  0  0  0  0  0  0  0  0  0  0
   -1.0628   -3.1121   -4.4698 H   0  0  0  0  0  0  0  0  0  0  0  0
   -1.0536   -1.4599   -3.1030 C   0  0  0  0  0  0  0  0  0  0  0  0
   -2.0071   -0.9664   -3.2696 H   0  0  0  0  0  0  0  0  0  0  0  0
   -0.2425    0.9261    1.2014 C   0  0  0  0  0  0  0  0  0  0  0  0
   -1.1682    1.2618    1.9417 O   0  0  0  0  0  0  0  0  0  0  0  0
    0.9424    1.5489    1.1881 N   0  0  0  0  0  0  0  0  0  0  0  0
    1.6455    1.1975    0.5559 H   0  0  0  0  0  0  0  0  0  0  0  0
    1.3002    2.7041    2.0169 C   0  0  0  0  0  0  0  0  0  0  0  0
    1.9060    2.3827    2.8665 H   0  0  0  0  0  0  0  0  0  0  0  0
    1.8777    3.4197    1.4291 H   0  0  0  0  0  0  0  0  0  0  0  0
    0.4058    3.2052    2.3932 H   0  0  0  0  0  0  0  0  0  0  0  0
  5  6  2  0  0  0  0
  5  7  1  0  0  0  0
  2  3  1  0  0  0  0
  2  4  1  0  0  0  0
  2  5  1  0  0  0  0
  1  2  1  0  0  0  0
 23 24  2  0  0  0  0
 23 25  1  0  0  0  0
 21 22  1  0  0  0  0
 19 20  1  0  0  0  0
 19 21  1  0  0  0  0
 17 18  1  0  0  0  0
 17 19  1  0  0  0  0
 15 16  1  0  0  0  0
 15 17  2  0  0  0  0
 14 15  1  0  0  0  0
 14 21  2  0  0  0  0
 11 12  1  0  0  0  0
 11 13  1  0  0  0  0
 11 14  1  0  0  0  0
  9 10  1  0  0  0  0
  9 11  1  0  0  0  0
  9 23  1  0  0  0  0
  7  8  1  0  0  0  0
  7  9  1  0  0  0  0
 27 28  1  0  0  0  0
 27 29  1  0  0  0  0
 27 30  1  0  0  0  0
 25 26  1  0  0  0  0
 25 27  1  0  0  0  0
M  CHG  1  15   1
M  END
$$$$
default_name
  -OEChem-01062215323D

 30 30  0     1  0  0  0  0  0999 V2000
   -3.5507   -3.2183    1.8116 H   0  0  0  0  0  0  0  0  0  0  0  0
   -3.4597   -2.3913    1.1076 C   0  0  0  0  0  0  0  0  0  0  0  0
   -4.1577   -1.6043    1.3866 H   0  0  0  0  0  0  0  0  0  0  0  0
   -3.6807   -2.7523    0.1036 H   0  0  0  0  0  0  0  0  0  0  0  0
   -2.0477   -1.8543    1.1546 C   0  0  0  0  0  0  0  0  0  0  0  0
   -1.2227   -2.3443    1.9146 O   0  0  0  0  0  0  0  0  0  0  0  0
   -1.7517   -0.8483    0.3266 N   0  0  0  0  0  0  0  0  0  0  0  0
   -2.4847   -0.5123   -0.2804 H   0  0  0  0  0  0  0  0  0  0  0  0
   -0.4117   -0.2463    0.2186 C   0  0  1  0  0  0  0  0  0  0  0  0
    0.3246   -1.0006    0.5070 H   0  0  0  0  0  0  0  0  0  0  0  0
   -0.1478    0.1061   -1.2637 C   0  0  0  0  0  0  0  0  0  0  0  0
   -0.9305    0.7888   -1.6041 H   0  0  0  0  0  0  0  0  0  0  0  0
    0.8003    0.6431   -1.3375 H   0  0  0  0  0  0  0  0  0  0  0  0
   -0.0926   -1.0773   -2.2065 C   0  0  0  0  0  0  0  0  0  0  0  0
    0.9585   -1.9677   -2.3095 N   0  3  0  0  0  0  0  0  0  0  0  0
    1.7819   -1.9428   -1.7011 H   0  0  0  0  0  0  0  0  0  0  0  0
    0.6509   -2.8824   -3.2505 C   0  0  0  0  0  0  0  0  0  0  0  0
    1.2811   -3.7194   -3.5445 H   0  0  0  0  0  0  0  0  0  0  0  0
   -0.5724   -2.5910   -3.7477 N   0  0  0  0  0  0  0  0  0  0  0  0
   -1.0628   -3.1121   -4.4698 H   0  0  0  0  0  0  0  0  0  0  0  0
   -1.0536   -1.4599   -3.1030 C   0  0  0  0  0  0  0  0  0  0  0  0
   -2.0071   -0.9664   -3.2696 H   0  0  0  0  0  0  0  0  0  0  0  0
   -0.2425    0.9261    1.2014 C   0  0  0  0  0  0  0  0  0  0  0  0
   -1.0439    1.0925    2.1222 O   0  0  0  0  0  0  0  0  0  0  0  0
    0.7987    1.7393    0.9856 N   0  0  0  0  0  0  0  0  0  0  0  0
    1.4091    1.5187    0.2135 H   0  0  0  0  0  0  0  0  0  0  0  0
    1.1222    2.9283    1.7800 C   0  0  0  0  0  0  0  0  0  0  0  0
    1.9293    2.7033    2.4800 H   0  0  0  0  0  0  0  0  0  0  0  0
    1.4468    3.7377    1.1238 H   0  0  0  0  0  0  0  0  0  0  0  0
    0.2517    3.2675    2.3454 H   0  0  0  0  0  0  0  0  0  0  0  0
  5  6  2  0  0  0  0
  5  7  1  0  0  0  0
  2  3  1  0  0  0  0
  2  4  1  0  0  0  0
  2  5  1  0  0  0  0
  1  2  1  0  0  0  0
 23 24  2  0  0  0  0
 23 25  1  0  0  0  0
 21 22  1  0  0  0  0
 19 20  1  0  0  0  0
 19 21  1  0  0  0  0
 17 18  1  0  0  0  0
 17 19  1  0  0  0  0
 15 16  1  0  0  0  0
 15 17  2  0  0  0  0
 14 15  1  0  0  0  0
 14 21  2  0  0  0  0
 11 12  1  0  0  0  0
 11 13  1  0  0  0  0
 11 14  1  0  0  0  0
  9 10  1  0  0  0  0
  9 11  1  0  0  0  0
  9 23  1  0  0  0  0
  7  8  1  0  0  0  0
  7  9  1  0  0  0  0
 27 28  1  0  0  0  0
 27 29  1  0  0  0  0
 27 30  1  0  0  0  0
 25 26  1  0  0  0  0
 25 27  1  0  0  0  0
M  CHG  1  15   1
M  END
$$$$
default_name
  -OEChem-01062215323D

 30 30  0     1  0  0  0  0  0999 V2000
   -3.5507   -3.2183    1.8116 H   0  0  0  0  0  0  0  0  0  0  0  0
   -3.4597   -2.3913    1.1076 C   0  0  0  0  0  0  0  0  0  0  0  0
   -4.1577   -1.6043    1.3866 H   0  0  0  0  0  0  0  0  0  0  0  0
   -3.6807   -2.7523    0.1036 H   0  0  0  0  0  0  0  0  0  0  0  0
   -2.0477   -1.8543    1.1546 C   0  0  0  0  0  0  0  0  0  0  0  0
   -1.2227   -2.3443    1.9146 O   0  0  0  0  0  0  0  0  0  0  0  0
   -1.7517   -0.8483    0.3266 N   0  0  0  0  0  0  0  0  0  0  0  0
   -2.4847   -0.5123   -0.2804 H   0  0  0  0  0  0  0  0  0  0  0  0
   -0.4117   -0.2463    0.2186 C   0  0  1  0  0  0  0  0  0  0  0  0
    0.3246   -1.0006    0.5070 H   0  0  0  0  0  0  0  0  0  0  0  0
   -0.1478    0.1061   -1.2637 C   0  0  0  0  0  0  0  0  0  0  0  0
   -0.9305    0.7888   -1.6041 H   0  0  0  0  0  0  0  0  0  0  0  0
    0.8003    0.6431   -1.3375 H   0  0  0  0  0  0  0  0  0  0  0  0
   -0.0926   -1.0773   -2.2065 C   0  0  0  0  0  0  0  0  0  0  0  0
    0.9585   -1.9677   -2.3095 N   0  3  0  0  0  0  0  0  0  0  0  0
    1.7819   -1.9428   -1.7011 H   0  0  0  0  0  0  0  0  0  0  0  0
    0.6509   -2.8824   -3.2505 C   0  0  0  0  0  0  0  0  0  0  0  0
    1.2811   -3.7194   -3.5445 H   0  0  0  0  0  0  0  0  0  0  0  0
   -0.5724   -2.5910   -3.7477 N   0  0  0  0  0  0  0  0  0  0  0  0
   -1.0628   -3.1121   -4.4698 H   0  0  0  0  0  0  0  0  0  0  0  0
   -1.0536   -1.4599   -3.1030 C   0  0  0  0  0  0  0  0  0  0  0  0
   -2.0071   -0.9664   -3.2696 H   0  0  0  0  0  0  0  0  0  0  0  0
   -0.2425    0.9261    1.2014 C   0  0  0  0  0  0  0  0  0  0  0  0
   -0.8602    0.9445    2.2671 O   0  0  0  0  0  0  0  0  0  0  0  0
    0.5885    1.9053    0.8238 N   0  0  0  0  0  0  0  0  0  0  0  0
    1.0601    1.7996   -0.0616 H   0  0  0  0  0  0  0  0  0  0  0  0
    0.8666    3.1222    1.5927 C   0  0  0  0  0  0  0  0  0  0  0  0
    1.8227    3.0278    2.1112 H   0  0  0  0  0  0  0  0  0  0  0  0
    0.9178    3.9824    0.9230 H   0  0  0  0  0  0  0  0  0  0  0  0
    0.0831    3.3035    2.3315 H   0  0  0  0  0  0  0  0  0  0  0  0
  5  6  2  0  0  0  0
  5  7  1  0  0  0  0
  2  3  1  0  0  0  0
  2  4  1  0  0  0  0
  2  5  1  0  0  0  0
  1  2  1  0  0  0  0
 23 24  2  0  0  0  0
 23 25  1  0  0  0  0
 21 22  1  0  0  0  0
 19 20  1  0  0  0  0
 19 21  1  0  0  0  0
 17 18  1  0  0  0  0
 17 19  1  0  0  0  0
 15 16  1  0  0  0  0
 15 17  2  0  0  0  0
 14 15  1  0  0  0  0
 14 21  2  0  0  0  0
 11 12  1  0  0  0  0
 11 13  1  0  0  0  0
 11 14  1  0  0  0  0
  9 10  1  0  0  0  0
  9 11  1  0  0  0  0
  9 23  1  0  0  0  0
  7  8  1  0  0  0  0
  7  9  1  0  0  0  0
 27 28  1  0  0  0  0
 27 29  1  0  0  0  0
 27 30  1  0  0  0  0
 25 26  1  0  0  0  0
 25 27  1  0  0  0  0
M  CHG  1  15   1
M  END
$$$$
default_name
  -OEChem-01062215323D

 30 30  0     1  0  0  0  0  0999 V2000
   -3.5507   -3.2183    1.8116 H   0  0  0  0  0  0  0  0  0  0  0  0
   -3.4597   -2.3913    1.1076 C   0  0  0  0  0  0  0  0  0  0  0  0
   -4.1577   -1.6043    1.3866 H   0  0  0  0  0  0  0  0  0  0  0  0
   -3.6807   -2.7523    0.1036 H   0  0  0  0  0  0  0  0  0  0  0  0
   -2.0477   -1.8543    1.1546 C   0  0  0  0  0  0  0  0  0  0  0  0
   -1.2227   -2.3443    1.9146 O   0  0  0  0  0  0  0  0  0  0  0  0
   -1.7517   -0.8483    0.3266 N   0  0  0  0  0  0  0  0  0  0  0  0
   -2.4847   -0.5123   -0.2804 H   0  0  0  0  0  0  0  0  0  0  0  0
   -0.4117   -0.2463    0.2186 C   0  0  1  0  0  0  0  0  0  0  0  0
    0.3246   -1.0006    0.5070 H   0  0  0  0  0  0  0  0  0  0  0  0
   -0.1478    0.1061   -1.2637 C   0  0  0  0  0  0  0  0  0  0  0  0
   -0.9305    0.7888   -1.6041 H   0  0  0  0  0  0  0  0  0  0  0  0
    0.8003    0.6431   -1.3375 H   0  0  0  0  0  0  0  0  0  0  0  0
   -0.0926   -1.0773   -2.2065 C   0  0  0  0  0  0  0  0  0  0  0  0
    0.9585   -1.9677   -2.3095 N   0  3  0  0  0  0  0  0  0  0  0  0
    1.7819   -1.9428   -1.7011 H   0  0  0  0  0  0  0  0  0  0  0  0
    0.6509   -2.8824   -3.2505 C   0  0  0  0  0  0  0  0  0  0  0  0
    1.2811   -3.7194   -3.5445 H   0  0  0  0  0  0  0  0  0  0  0  0
   -0.5724   -2.5910   -3.7477 N   0  0  0  0  0  0  0  0  0  0  0  0
   -1.0628   -3.1121   -4.4698 H   0  0  0  0  0  0  0  0  0  0  0  0
   -1.0536   -1.4599   -3.1030 C   0  0  0  0  0  0  0  0  0  0  0  0
   -2.0071   -0.9664   -3.2696 H   0  0  0  0  0  0  0  0  0  0  0  0
   -0.2425    0.9261    1.2014 C   0  0  0  0  0  0  0  0  0  0  0  0
   -0.6297    0.8277    2.3668 O   0  0  0  0  0  0  0  0  0  0  0  0
    0.3262    2.0355    0.7137 N   0  0  0  0  0  0  0  0  0  0  0  0
    0.6224    2.0211   -0.2504 H   0  0  0  0  0  0  0  0  0  0  0  0
    0.5506    3.2726    1.4677 C   0  0  0  0  0  0  0  0  0  0  0  0
    1.5934    3.3341    1.7853 H   0  0  0  0  0  0  0  0  0  0  0  0
    0.3268    4.1371    0.8402 H   0  0  0  0  0  0  0  0  0  0  0  0
   -0.0885    3.3108    2.3523 H   0  0  0  0  0  0  0  0  0  0  0  0
  5  6  2  0  0  0  0
  5  7  1  0  0  0  0
  2  3  1  0  0  0  0
  2  4  1  0  0  0  0
  2  5  1  0  0  0  0
  1  2  1  0  0  0  0
 23 24  2  0  0  0  0
 23 25  1  0  0  0  0
 21 22  1  0  0  0  0
 19 20  1  0  0  0  0
 19 21  1  0  0  0  0
 17 18  1  0  0  0  0
 17 19  1  0  0  0  0
 15 16  1  0  0  0  0
 15 17  2  0  0  0  0
 14 15  1  0  0  0  0
 14 21  2  0  0  0  0
 11 12  1  0  0  0  0
 11 13  1  0  0  0  0
 11 14  1  0  0  0  0
  9 10  1  0  0  0  0
  9 11  1  0  0  0  0
  9 23  1  0  0  0  0
  7  8  1  0  0  0  0
  7  9  1  0  0  0  0
 27 28  1  0  0  0  0
 27 29  1  0  0  0  0
 27 30  1  0  0  0  0
 25 26  1  0  0  0  0
 25 27  1  0  0  0  0
M  CHG  1  15   1
M  END
$$$$
default_name
  -OEChem-01062215323D

 30 30  0     1  0  0  0  0  0999 V2000
   -3.5507   -3.2183    1.8116 H   0  0  0  0  0  0  0  0  0  0  0  0
   -3.4597   -2.3913    1.1076 C   0  0  0  0  0  0  0  0  0  0  0  0
   -4.1577   -1.6043    1.3866 H   0  0  0  0  0  0  0  0  0  0  0  0
   -3.6807   -2.7523    0.1036 H   0  0  0  0  0  0  0  0  0  0  0  0
   -2.0477   -1.8543    1.1546 C   0  0  0  0  0  0  0  0  0  0  0  0
   -1.2227   -2.3443    1.9146 O   0  0  0  0  0  0  0  0  0  0  0  0
   -1.7517   -0.8483    0.3266 N   0  0  0  0  0  0  0  0  0  0  0  0
   -2.4847   -0.5123   -0.2804 H   0  0  0  0  0  0  0  0  0  0  0  0
   -0.4117   -0.2463    0.2186 C   0  0  1  0  0  0  0  0  0  0  0  0
    0.3246   -1.0006    0.5070 H   0  0  0  0  0  0  0  0  0  0  0  0
   -0.1478    0.1061   -1.2637 C   0  0  0  0  0  0  0  0  0  0  0  0
   -0.9305    0.7888   -1.6041 H   0  0  0  0  0  0  0  0  0  0  0  0
    0.8003    0.6431   -1.3375 H   0  0  0  0  0  0  0  0  0  0  0  0
   -0.0926   -1.0773   -2.2065 C   0  0  0  0  0  0  0  0  0  0  0  0
    0.9585   -1.9677   -2.3095 N   0  3  0  0  0  0  0  0  0  0  0  0
    1.7819   -1.9428   -1.7011 H   0  0  0  0  0  0  0  0  0  0  0  0
    0.6509   -2.8824   -3.2505 C   0  0  0  0  0  0  0  0  0  0  0  0
    1.2811   -3.7194   -3.5445 H   0  0  0  0  0  0  0  0  0  0  0  0
   -0.5724   -2.5910   -3.7477 N   0  0  0  0  0  0  0  0  0  0  0  0
   -1.0628   -3.1121   -4.4698 H   0  0  0  0  0  0  0  0  0  0  0  0
   -1.0536   -1.4599   -3.1030 C   0  0  0  0  0  0  0  0  0  0  0  0
   -2.0071   -0.9664   -3.2696 H   0  0  0  0  0  0  0  0  0  0  0  0
   -0.2425    0.9261    1.2014 C   0  0  0  0  0  0  0  0  0  0  0  0
   -0.3682    0.7502    2.4142 O   0  0  0  0  0  0  0  0  0  0  0  0
    0.0296    2.1210    0.6627 N   0  0  0  0  0  0  0  0  0  0  0  0
    0.1257    2.1681   -0.3403 H   0  0  0  0  0  0  0  0  0  0  0  0
    0.1960    3.3692    1.4135 C   0  0  0  0  0  0  0  0  0  0  0  0
    1.2571    3.6014    1.5244 H   0  0  0  0  0  0  0  0  0  0  0  0
   -0.2859    4.1911    0.8812 H   0  0  0  0  0  0  0  0  0  0  0  0
   -0.2513    3.2889    2.4065 H   0  0  0  0  0  0  0  0  0  0  0  0
  5  6  2  0  0  0  0
  5  7  1  0  0  0  0
  2  3  1  0  0  0  0
  2  4  1  0  0  0  0
  2  5  1  0  0  0  0
  1  2  1  0  0  0  0
 23 24  2  0  0  0  0
 23 25  1  0  0  0  0
 21 22  1  0  0  0  0
 19 20  1  0  0  0  0
 19 21  1  0  0  0  0
 17 18  1  0  0  0  0
 17 19  1  0  0  0  0
 15 16  1  0  0  0  0
 15 17  2  0  0  0  0
 14 15  1  0  0  0  0
 14 21  2  0  0  0  0
 11 12  1  0  0  0  0
 11 13  1  0  0  0  0
 11 14  1  0  0  0  0
  9 10  1  0  0  0  0
  9 11  1  0  0  0  0
  9 23  1  0  0  0  0
  7  8  1  0  0  0  0
  7  9  1  0  0  0  0
 27 28  1  0  0  0  0
 27 29  1  0  0  0  0
 27 30  1  0  0  0  0
 25 26  1  0  0  0  0
 25 27  1  0  0  0  0
M  CHG  1  15   1
M  END
$$$$
default_name
  -OEChem-01062215323D

 30 30  0     1  0  0  0  0  0999 V2000
   -3.5507   -3.2183    1.8116 H   0  0  0  0  0  0  0  0  0  0  0  0
   -3.4597   -2.3913    1.1076 C   0  0  0  0  0  0  0  0  0  0  0  0
   -4.1577   -1.6043    1.3866 H   0  0  0  0  0  0  0  0  0  0  0  0
   -3.6807   -2.7523    0.1036 H   0  0  0  0  0  0  0  0  0  0  0  0
   -2.0477   -1.8543    1.1546 C   0  0  0  0  0  0  0  0  0  0  0  0
   -1.2227   -2.3443    1.9146 O   0  0  0  0  0  0  0  0  0  0  0  0
   -1.7517   -0.8483    0.3266 N   0  0  0  0  0  0  0  0  0  0  0  0
   -2.4847   -0.5123   -0.2804 H   0  0  0  0  0  0  0  0  0  0  0  0
   -0.4117   -0.2463    0.2186 C   0  0  1  0  0  0  0  0  0  0  0  0
    0.3246   -1.0006    0.5070 H   0  0  0  0  0  0  0  0  0  0  0  0
   -0.1478    0.1061   -1.2637 C   0  0  0  0  0  0  0  0  0  0  0  0
   -0.9305    0.7888   -1.6041 H   0  0  0  0  0  0  0  0  0  0  0  0
    0.8003    0.6431   -1.3375 H   0  0  0  0  0  0  0  0  0  0  0  0
   -0.0926   -1.0773   -2.2065 C   0  0  0  0  0  0  0  0  0  0  0  0
    0.9585   -1.9677   -2.3095 N   0  3  0  0  0  0  0  0  0  0  0  0
    1.7819   -1.9428   -1.7011 H   0  0  0  0  0  0  0  0  0  0  0  0
    0.6509   -2.8824   -3.2505 C   0  0  0  0  0  0  0  0  0  0  0  0
    1.2811   -3.7194   -3.5445 H   0  0  0  0  0  0  0  0  0  0  0  0
   -0.5724   -2.5910   -3.7477 N   0  0  0  0  0  0  0  0  0  0  0  0
   -1.0628   -3.1121   -4.4698 H   0  0  0  0  0  0  0  0  0  0  0  0
   -1.0536   -1.4599   -3.1030 C   0  0  0  0  0  0  0  0  0  0  0  0
   -2.0071   -0.9664   -3.2696 H   0  0  0  0  0  0  0  0  0  0  0  0
   -0.2425    0.9261    1.2014 C   0  0  0  0  0  0  0  0  0  0  0  0
   -0.0934    0.7172    2.4063 O   0  0  0  0  0  0  0  0  0  0  0  0
   -0.2812    2.1561    0.6744 N   0  0  0  0  0  0  0  0  0  0  0  0
   -0.3960    2.2305   -0.3250 H   0  0  0  0  0  0  0  0  0  0  0  0
   -0.1732    3.4055    1.4338 C   0  0  0  0  0  0  0  0  0  0  0  0
    0.8365    3.8114    1.3462 H   0  0  0  0  0  0  0  0  0  0  0  0
   -0.8786    4.1409    1.0431 H   0  0  0  0  0  0  0  0  0  0  0  0
   -0.3943    3.2393    2.4902 H   0  0  0  0  0  0  0  0  0  0  0  0
  5  6  2  0  0  0  0
  5  7  1  0  0  0  0
  2  3  1  0  0  0  0
  2  4  1  0  0  0  0
  2  5  1  0  0  0  0
  1  2  1  0  0  0  0
 23 24  2  0  0  0  0
 23 25  1  0  0  0  0
 21 22  1  0  0  0  0
 19 20  1  0  0  0  0
 19 21  1  0  0  0  0
 17 18  1  0  0  0  0
 17 19  1  0  0  0  0
 15 16  1  0  0  0  0
 15 17  2  0  0  0  0
 14 15  1  0  0  0  0
 14 21  2  0  0  0  0
 11 12  1  0  0  0  0
 11 13  1  0  0  0  0
 11 14  1  0  0  0  0
  9 10  1  0  0  0  0
  9 11  1  0  0  0  0
  9 23  1  0  0  0  0
  7  8  1  0  0  0  0
  7  9  1  0  0  0  0
 27 28  1  0  0  0  0
 27 29  1  0  0  0  0
 27 30  1  0  0  0  0
 25 26  1  0  0  0  0
 25 27  1  0  0  0  0
M  CHG  1  15   1
M  END
$$$$
default_name
  -OEChem-01062215323D

 30 30  0     1  0  0  0  0  0999 V2000
   -3.5507   -3.2183    1.8116 H   0  0  0  0  0  0  0  0  0  0  0  0
   -3.4597   -2.3913    1.1076 C   0  0  0  0  0  0  0  0  0  0  0  0
   -4.1577   -1.6043    1.3866 H   0  0  0  0  0  0  0  0  0  0  0  0
   -3.6807   -2.7523    0.1036 H   0  0  0  0  0  0  0  0  0  0  0  0
   -2.0477   -1.8543    1.1546 C   0  0  0  0  0  0  0  0  0  0  0  0
   -1.2227   -2.3443    1.9146 O   0  0  0  0  0  0  0  0  0  0  0  0
   -1.7517   -0.8483    0.3266 N   0  0  0  0  0  0  0  0  0  0  0  0
   -2.4847   -0.5123   -0.2804 H   0  0  0  0  0  0  0  0  0  0  0  0
   -0.4117   -0.2463    0.2186 C   0  0  1  0  0  0  0  0  0  0  0  0
    0.3246   -1.0006    0.5070 H   0  0  0  0  0  0  0  0  0  0  0  0
   -0.1478    0.1061   -1.2637 C   0  0  0  0  0  0  0  0  0  0  0  0
   -0.9305    0.7888   -1.6041 H   0  0  0  0  0  0  0  0  0  0  0  0
    0.8003    0.6431   -1.3375 H   0  0  0  0  0  0  0  0  0  0  0  0
   -0.0926   -1.0773   -2.2065 C   0  0  0  0  0  0  0  0  0  0  0  0
    0.9585   -1.9677   -2.3095 N   0  3  0  0  0  0  0  0  0  0  0  0
    1.7819   -1.9428   -1.7011 H   0  0  0  0  0  0  0  0  0  0  0  0
    0.6509   -2.8824   -3.2505 C   0  0  0  0  0  0  0  0  0  0  0  0
    1.2811   -3.7194   -3.5445 H   0  0  0  0  0  0  0  0  0  0  0  0
   -0.5724   -2.5910   -3.7477 N   0  0  0  0  0  0  0  0  0  0  0  0
   -1.0628   -3.1121   -4.4698 H   0  0  0  0  0  0  0  0  0  0  0  0
   -1.0536   -1.4599   -3.1030 C   0  0  0  0  0  0  0  0  0  0  0  0
   -2.0071   -0.9664   -3.2696 H   0  0  0  0  0  0  0  0  0  0  0  0
   -0.2425    0.9261    1.2014 C   0  0  0  0  0  0  0  0  0  0  0  0
    0.1760    0.7310    2.3435 O   0  0  0  0  0  0  0  0  0  0  0  0
   -0.5848    2.1382    0.7479 N   0  0  0  0  0  0  0  0  0  0  0  0
   -0.9072    2.2042   -0.2055 H   0  0  0  0  0  0  0  0  0  0  0  0
   -0.5319    3.3789    1.5272 C   0  0  0  0  0  0  0  0  0  0  0  0
    0.3605    3.9498    1.2630 H   0  0  0  0  0  0  0  0  0  0  0  0
   -1.4109    3.9899    1.3149 H   0  0  0  0  0  0  0  0  0  0  0  0
   -0.5077    3.1654    2.5979 H   0  0  0  0  0  0  0  0  0  0  0  0
  5  6  2  0  0  0  0
  5  7  1  0  0  0  0
  2  3  1  0  0  0  0
  2  4  1  0  0  0  0
  2  5  1  0  0  0  0
  1  2  1  0  0  0  0
 23 24  2  0  0  0  0
 23 25  1  0  0  0  0
 21 22  1  0  0  0  0
 19 20  1  0  0  0  0
 19 21  1  0  0  0  0
 17 18  1  0  0  0  0
 17 19  1  0  0  0  0
 15 16  1  0  0  0  0
 15 17  2  0  0  0  0
 14 15  1  0  0  0  0
 14 21  2  0  0  0  0
 11 12  1  0  0  0  0
 11 13  1  0  0  0  0
 11 14  1  0  0  0  0
  9 10  1  0  0  0  0
  9 11  1  0  0  0  0
  9 23  1  0  0  0  0
  7  8  1  0  0  0  0
  7  9  1  0  0  0  0
 27 28  1  0  0  0  0
 27 29  1  0  0  0  0
 27 30  1  0  0  0  0
 25 26  1  0  0  0  0
 25 27  1  0  0  0  0
M  CHG  1  15   1
M  END
$$$$
default_name
  -OEChem-01062215323D

 30 30  0     1  0  0  0  0  0999 V2000
   -3.5507   -3.2183    1.8116 H   0  0  0  0  0  0  0  0  0  0  0  0
   -3.4597   -2.3913    1.1076 C   0  0  0  0  0  0  0  0  0  0  0  0
   -4.1577   -1.6043    1.3866 H   0  0  0  0  0  0  0  0  0  0  0  0
   -3.6807   -2.7523    0.1036 H   0  0  0  0  0  0  0  0  0  0  0  0
   -2.0477   -1.8543    1.1546 C   0  0  0  0  0  0  0  0  0  0  0  0
   -1.2227   -2.3443    1.9146 O   0  0  0  0  0  0  0  0  0  0  0  0
   -1.7517   -0.8483    0.3266 N   0  0  0  0  0  0  0  0  0  0  0  0
   -2.4847   -0.5123   -0.2804 H   0  0  0  0  0  0  0  0  0  0  0  0
   -0.4117   -0.2463    0.2186 C   0  0  1  0  0  0  0  0  0  0  0  0
    0.3246   -1.0006    0.5070 H   0  0  0  0  0  0  0  0  0  0  0  0
   -0.1478    0.1061   -1.2637 C   0  0  0  0  0  0  0  0  0  0  0  0
   -0.9305    0.7888   -1.6041 H   0  0  0  0  0  0  0  0  0  0  0  0
    0.8003    0.6431   -1.3375 H   0  0  0  0  0  0  0  0  0  0  0  0
   -0.0926   -1.0773   -2.2065 C   0  0  0  0  0  0  0  0  0  0  0  0
    0.9585   -1.9677   -2.3095 N   0  3  0  0  0  0  0  0  0  0  0  0
    1.7819   -1.9428   -1.7011 H   0  0  0  0  0  0  0  0  0  0  0  0
    0.6509   -2.8824   -3.2505 C   0  0  0  0  0  0  0  0  0  0  0  0
    1.2811   -3.7194   -3.5445 H   0  0  0  0  0  0  0  0  0  0  0  0
   -0.5724   -2.5910   -3.7477 N   0  0  0  0  0  0  0  0  0  0  0  0
   -1.0628   -3.1121   -4.4698 H   0  0  0  0  0  0  0  0  0  0  0  0
   -1.0536   -1.4599   -3.1030 C   0  0  0  0  0  0  0  0  0  0  0  0
   -2.0071   -0.9664   -3.2696 H   0  0  0  0  0  0  0  0  0  0  0  0
   -0.2425    0.9261    1.2014 C   0  0  0  0  0  0  0  0  0  0  0  0
    0.4215    0.7905    2.2302 O   0  0  0  0  0  0  0  0  0  0  0  0
   -0.8606    2.0687    0.8783 N   0  0  0  0  0  0  0  0  0  0  0  0
   -1.3732    2.0909    0.0098 H   0  0  0  0  0  0  0  0  0  0  0  0
   -0.8555    3.2913    1.6874 C   0  0  0  0  0  0  0  0  0  0  0  0
   -0.1385    4.0072    1.2805 H   0  0  0  0  0  0  0  0  0  0  0  0
   -1.8465    3.7483    1.6781 H   0  0  0  0  0  0  0  0  0  0  0  0
   -0.5838    3.0722    2.7222 H   0  0  0  0  0  0  0  0  0  0  0  0
  5  6  2  0  0  0  0
  5  7  1  0  0  0  0
  2  3  1  0  0  0  0
  2  4  1  0  0  0  0
  2  5  1  0  0  0  0
  1  2  1  0  0  0  0
 23 24  2  0  0  0  0
 23 25  1  0  0  0  0
 21 22  1  0  0  0  0
 19 20  1  0  0  0  0
 19 21  1  0  0  0  0
 17 18  1  0  0  0  0
 17 19  1  0  0  0  0
 15 16  1  0  0  0  0
 15 17  2  0  0  0  0
 14 15  1  0  0  0  0
 14 21  2  0  0  0  0
 11 12  1  0  0  0  0
 11 13  1  0  0  0  0
 11 14  1  0  0  0  0
  9 10  1  0  0  0  0
  9 11  1  0  0  0  0
  9 23  1  0  0  0  0
  7  8  1  0  0  0  0
  7  9  1  0  0  0  0
 27 28  1  0  0  0  0
 27 29  1  0  0  0  0
 27 30  1  0  0  0  0
 25 26  1  0  0  0  0
 25 27  1  0  0  0  0
M  CHG  1  15   1
M  END
$$$$
default_name
  -OEChem-01062215323D

 30 30  0     1  0  0  0  0  0999 V2000
   -3.5507   -3.2183    1.8116 H   0  0  0  0  0  0  0  0  0  0  0  0
   -3.4597   -2.3913    1.1076 C   0  0  0  0  0  0  0  0  0  0  0  0
   -4.1577   -1.6043    1.3866 H   0  0  0  0  0  0  0  0  0  0  0  0
   -3.6807   -2.7523    0.1036 H   0  0  0  0  0  0  0  0  0  0  0  0
   -2.0477   -1.8543    1.1546 C   0  0  0  0  0  0  0  0  0  0  0  0
   -1.2227   -2.3443    1.9146 O   0  0  0  0  0  0  0  0  0  0  0  0
   -1.7517   -0.8483    0.3266 N   0  0  0  0  0  0  0  0  0  0  0  0
   -2.4847   -0.5123   -0.2804 H   0  0  0  0  0  0  0  0  0  0  0  0
   -0.4117   -0.2463    0.2186 C   0  0  1  0  0  0  0  0  0  0  0  0
    0.3246   -1.0006    0.5070 H   0  0  0  0  0  0  0  0  0  0  0  0
   -0.1478    0.1061   -1.2637 C   0  0  0  0  0  0  0  0  0  0  0  0
   -0.9305    0.7888   -1.6041 H   0  0  0  0  0  0  0  0  0  0  0  0
    0.8003    0.6431   -1.3375 H   0  0  0  0  0  0  0  0  0  0  0  0
   -0.0926   -1.0773   -2.2065 C   0  0  0  0  0  0  0  0  0  0  0  0
    0.9585   -1.9677   -2.3095 N   0  3  0  0  0  0  0  0  0  0  0  0
    1.7819   -1.9428   -1.7011 H   0  0  0  0  0  0  0  0  0  0  0  0
    0.6509   -2.8824   -3.2505 C   0  0  0  0  0  0  0  0  0  0  0  0
    1.2811   -3.7194   -3.5445 H   0  0  0  0  0  0  0  0  0  0  0  0
   -0.5724   -2.5910   -3.7477 N   0  0  0  0  0  0  0  0  0  0  0  0
   -1.0628   -3.1121   -4.4698 H   0  0  0  0  0  0  0  0  0  0  0  0
   -1.0536   -1.4599   -3.1030 C   0  0  0  0  0  0  0  0  0  0  0  0
   -2.0071   -0.9664   -3.2696 H   0  0  0  0  0  0  0  0  0  0  0  0
   -0.2425    0.9261    1.2014 C   0  0  0  0  0  0  0  0  0  0  0  0
    0.6264    0.8919    2.0740 O   0  0  0  0  0  0  0  0  0  0  0  0
   -1.0898    1.9523    1.0566 N   0  0  0  0  0  0  0  0  0  0  0  0
   -1.7620    1.8983    0.3065 H   0  0  0  0  0  0  0  0  0  0  0  0
   -1.1220    3.1486    1.9035 C   0  0  0  0  0  0  0  0  0  0  0  0
   -0.6267    3.9797    1.3974 H   0  0  0  0  0  0  0  0  0  0  0  0
   -2.1557    3.4326    2.1079 H   0  0  0  0  0  0  0  0  0  0  0  0
   -0.6174    2.9661    2.8546 H   0  0  0  0  0  0  0  0  0  0  0  0
  5  6  2  0  0  0  0
  5  7  1  0  0  0  0
  2  3  1  0  0  0  0
  2  4  1  0  0  0  0
  2  5  1  0  0  0  0
  1  2  1  0  0  0  0
 23 24  2  0  0  0  0
 23 25  1  0  0  0  0
 21 22  1  0  0  0  0
 19 20  1  0  0  0  0
 19 21  1  0  0  0  0
 17 18  1  0  0  0  0
 17 19  1  0  0  0  0
 15 16  1  0  0  0  0
 15 17  2  0  0  0  0
 14 15  1  0  0  0  0
 14 21  2  0  0  0  0
 11 12  1  0  0  0  0
 11 13  1  0  0  0  0
 11 14  1  0  0  0  0
  9 10  1  0  0  0  0
  9 11  1  0  0  0  0
  9 23  1  0  0  0  0
  7  8  1  0  0  0  0
  7  9  1  0  0  0  0
 27 28  1  0  0  0  0
 27 29  1  0  0  0  0
 27 30  1  0  0  0  0
 25 26  1  0  0  0  0
 25 27  1  0  0  0  0
M  CHG  1  15   1
M  END
$$$$
default_name
  -OEChem-01062215323D

 30 30  0     1  0  0  0  0  0999 V2000
   -3.5507   -3.2183    1.8116 H   0  0  0  0  0  0  0  0  0  0  0  0
   -3.4597   -2.3913    1.1076 C   0  0  0  0  0  0  0  0  0  0  0  0
   -4.1577   -1.6043    1.3866 H   0  0  0  0  0  0  0  0  0  0  0  0
   -3.6807   -2.7523    0.1036 H   0  0  0  0  0  0  0  0  0  0  0  0
   -2.0477   -1.8543    1.1546 C   0  0  0  0  0  0  0  0  0  0  0  0
   -1.2227   -2.3443    1.9146 O   0  0  0  0  0  0  0  0  0  0  0  0
   -1.7517   -0.8483    0.3266 N   0  0  0  0  0  0  0  0  0  0  0  0
   -2.4847   -0.5123   -0.2804 H   0  0  0  0  0  0  0  0  0  0  0  0
   -0.4117   -0.2463    0.2186 C   0  0  1  0  0  0  0  0  0  0  0  0
    0.3246   -1.0006    0.5070 H   0  0  0  0  0  0  0  0  0  0  0  0
   -0.1478    0.1061   -1.2637 C   0  0  0  0  0  0  0  0  0  0  0  0
   -0.9305    0.7888   -1.6041 H   0  0  0  0  0  0  0  0  0  0  0  0
    0.8003    0.6431   -1.3375 H   0  0  0  0  0  0  0  0  0  0  0  0
   -0.0926   -1.0773   -2.2065 C   0  0  0  0  0  0  0  0  0  0  0  0
    0.9585   -1.9677   -2.3095 N   0  3  0  0  0  0  0  0  0  0  0  0
    1.7819   -1.9428   -1.7011 H   0  0  0  0  0  0  0  0  0  0  0  0
    0.6509   -2.8824   -3.2505 C   0  0  0  0  0  0  0  0  0  0  0  0
    1.2811   -3.7194   -3.5445 H   0  0  0  0  0  0  0  0  0  0  0  0
   -0.5724   -2.5910   -3.7477 N   0  0  0  0  0  0  0  0  0  0  0  0
   -1.0628   -3.1121   -4.4698 H   0  0  0  0  0  0  0  0  0  0  0  0
   -1.0536   -1.4599   -3.1030 C   0  0  0  0  0  0  0  0  0  0  0  0
   -2.0071   -0.9664   -3.2696 H   0  0  0  0  0  0  0  0  0  0  0  0
   -0.2425    0.9261    1.2014 C   0  0  0  0  0  0  0  0  0  0  0  0
    0.7769    1.0281    1.8857 O   0  0  0  0  0  0  0  0  0  0  0  0
   -1.2569    1.7969    1.2708 N   0  0  0  0  0  0  0  0  0  0  0  0
   -2.0473    1.6395    0.6643 H   0  0  0  0  0  0  0  0  0  0  0  0
   -1.3132    2.9607    2.1606 C   0  0  0  0  0  0  0  0  0  0  0  0
   -1.0705    3.8691    1.6057 H   0  0  0  0  0  0  0  0  0  0  0  0
   -2.3175    3.0644    2.5751 H   0  0  0  0  0  0  0  0  0  0  0  0
   -0.6062    2.8542    2.9861 H   0  0  0  0  0  0  0  0  0  0  0  0
  5  6  2  0  0  0  0
  5  7  1  0  0  0  0
  2  3  1  0  0  0  0
  2  4  1  0  0  0  0
  2  5  1  0  0  0  0
  1  2  1  0  0  0  0
 23 24  2  0  0  0  0
 23 25  1  0  0  0  0
 21 22  1  0  0  0  0
 19 20  1  0  0  0  0
 19 21  1  0  0  0  0
 17 18  1  0  0  0  0
 17 19  1  0  0  0  0
 15 16  1  0  0  0  0
 15 17  2  0  0  0  0
 14 15  1  0  0  0  0
 14 21  2  0  0  0  0
 11 12  1  0  0  0  0
 11 13  1  0  0  0  0
 11 14  1  0  0  0  0
  9 10  1  0  0  0  0
  9 11  1  0  0  0  0
  9 23  1  0  0  0  0
  7  8  1  0  0  0  0
  7  9  1  0  0  0  0
 27 28  1  0  0  0  0
 27 29  1  0  0  0  0
 27 30  1  0  0  0  0
 25 26  1  0  0  0  0
 25 27  1  0  0  0  0
M  CHG  1  15   1
M  END
$$$$
default_name
  -OEChem-01062215323D

 30 30  0     1  0  0  0  0  0999 V2000
   -3.5507   -3.2183    1.8116 H   0  0  0  0  0  0  0  0  0  0  0  0
   -3.4597   -2.3913    1.1076 C   0  0  0  0  0  0  0  0  0  0  0  0
   -4.1577   -1.6043    1.3866 H   0  0  0  0  0  0  0  0  0  0  0  0
   -3.6807   -2.7523    0.1036 H   0  0  0  0  0  0  0  0  0  0  0  0
   -2.0477   -1.8543    1.1546 C   0  0  0  0  0  0  0  0  0  0  0  0
   -1.2227   -2.3443    1.9146 O   0  0  0  0  0  0  0  0  0  0  0  0
   -1.7517   -0.8483    0.3266 N   0  0  0  0  0  0  0  0  0  0  0  0
   -2.4847   -0.5123   -0.2804 H   0  0  0  0  0  0  0  0  0  0  0  0
   -0.4117   -0.2463    0.2186 C   0  0  1  0  0  0  0  0  0  0  0  0
    0.3246   -1.0006    0.5070 H   0  0  0  0  0  0  0  0  0  0  0  0
   -0.1478    0.1061   -1.2637 C   0  0  0  0  0  0  0  0  0  0  0  0
   -0.9305    0.7888   -1.6041 H   0  0  0  0  0  0  0  0  0  0  0  0
    0.8003    0.6431   -1.3375 H   0  0  0  0  0  0  0  0  0  0  0  0
   -0.0926   -1.0773   -2.2065 C   0  0  0  0  0  0  0  0  0  0  0  0
    0.9585   -1.9677   -2.3095 N   0  3  0  0  0  0  0  0  0  0  0  0
    1.7819   -1.9428   -1.7011 H   0  0  0  0  0  0  0  0  0  0  0  0
    0.6509   -2.8824   -3.2505 C   0  0  0  0  0  0  0  0  0  0  0  0
    1.2811   -3.7194   -3.5445 H   0  0  0  0  0  0  0  0  0  0  0  0
   -0.5724   -2.5910   -3.7477 N   0  0  0  0  0  0  0  0  0  0  0  0
   -1.0628   -3.1121   -4.4698 H   0  0  0  0  0  0  0  0  0  0  0  0
   -1.0536   -1.4599   -3.1030 C   0  0  0  0  0  0  0  0  0  0  0  0
   -2.0071   -0.9664   -3.2696 H   0  0  0  0  0  0  0  0  0  0  0  0
   -0.2425    0.9261    1.2014 C   0  0  0  0  0  0  0  0  0  0  0  0
    0.8625    1.1899    1.6779 O   0  0  0  0  0  0  0  0  0  0  0  0
   -1.3503    1.6131    1.5061 N   0  0  0  0  0  0  0  0  0  0  0  0
   -2.2096    1.3323    1.0588 H   0  0  0  0  0  0  0  0  0  0  0  0
   -1.4162    2.7402    2.4414 C   0  0  0  0  0  0  0  0  0  0  0  0
   -1.4400    3.6830    1.8913 H   0  0  0  0  0  0  0  0  0  0  0  0
   -2.3209    2.6686    3.0477 H   0  0  0  0  0  0  0  0  0  0  0  0
   -0.5510    2.7443    3.1077 H   0  0  0  0  0  0  0  0  0  0  0  0
  5  6  2  0  0  0  0
  5  7  1  0  0  0  0
  2  3  1  0  0  0  0
  2  4  1  0  0  0  0
  2  5  1  0  0  0  0
  1  2  1  0  0  0  0
 23 24  2  0  0  0  0
 23 25  1  0  0  0  0
 21 22  1  0  0  0  0
 19 20  1  0  0  0  0
 19 21  1  0  0  0  0
 17 18  1  0  0  0  0
 17 19  1  0  0  0  0
 15 16  1  0  0  0  0
 15 17  2  0  0  0  0
 14 15  1  0  0  0  0
 14 21  2  0  0  0  0
 11 12  1  0  0  0  0
 11 13  1  0  0  0  0
 11 14  1  0  0  0  0
  9 10  1  0  0  0  0
  9 11  1  0  0  0  0
  9 23  1  0  0  0  0
  7  8  1  0  0  0  0
  7  9  1  0  0  0  0
 27 28  1  0  0  0  0
 27 29  1  0  0  0  0
 27 30  1  0  0  0  0
 25 26  1  0  0  0  0
 25 27  1  0  0  0  0
M  CHG  1  15   1
M  END
$$$$
default_name
  -OEChem-01062215323D

 30 30  0     1  0  0  0  0  0999 V2000
   -3.5507   -3.2183    1.8116 H   0  0  0  0  0  0  0  0  0  0  0  0
   -3.4597   -2.3913    1.1076 C   0  0  0  0  0  0  0  0  0  0  0  0
   -4.1577   -1.6043    1.3866 H   0  0  0  0  0  0  0  0  0  0  0  0
   -3.6807   -2.7523    0.1036 H   0  0  0  0  0  0  0  0  0  0  0  0
   -2.0477   -1.8543    1.1546 C   0  0  0  0  0  0  0  0  0  0  0  0
   -1.2227   -2.3443    1.9146 O   0  0  0  0  0  0  0  0  0  0  0  0
   -1.7517   -0.8483    0.3266 N   0  0  0  0  0  0  0  0  0  0  0  0
   -2.4847   -0.5123   -0.2804 H   0  0  0  0  0  0  0  0  0  0  0  0
   -0.4117   -0.2463    0.2186 C   0  0  1  0  0  0  0  0  0  0  0  0
    0.3246   -1.0006    0.5070 H   0  0  0  0  0  0  0  0  0  0  0  0
   -0.1478    0.1061   -1.2637 C   0  0  0  0  0  0  0  0  0  0  0  0
   -0.9305    0.7888   -1.6041 H   0  0  0  0  0  0  0  0  0  0  0  0
    0.8003    0.6431   -1.3375 H   0  0  0  0  0  0  0  0  0  0  0  0
   -0.0926   -1.0773   -2.2065 C   0  0  0  0  0  0  0  0  0  0  0  0
    0.9585   -1.9677   -2.3095 N   0  3  0  0  0  0  0  0  0  0  0  0
    1.7819   -1.9428   -1.7011 H   0  0  0  0  0  0  0  0  0  0  0  0
    0.6509   -2.8824   -3.2505 C   0  0  0  0  0  0  0  0  0  0  0  0
    1.2811   -3.7194   -3.5445 H   0  0  0  0  0  0  0  0  0  0  0  0
   -0.5724   -2.5910   -3.7477 N   0  0  0  0  0  0  0  0  0  0  0  0
   -1.0628   -3.1121   -4.4698 H   0  0  0  0  0  0  0  0  0  0  0  0
   -1.0536   -1.4599   -3.1030 C   0  0  0  0  0  0  0  0  0  0  0  0
   -2.0071   -0.9664   -3.2696 H   0  0  0  0  0  0  0  0  0  0  0  0
   -0.2425    0.9261    1.2014 C   0  0  0  0  0  0  0  0  0  0  0  0
    0.8776    1.3662    1.4650 O   0  0  0  0  0  0  0  0  0  0  0  0
   -1.3638    1.4134    1.7466 N   0  0  0  0  0  0  0  0  0  0  0  0
   -2.2378    0.9975    1.4630 H   0  0  0  0  0  0  0  0  0  0  0  0
   -1.4239    2.5022    2.7266 C   0  0  0  0  0  0  0  0  0  0  0  0
   -1.7097    3.4340    2.2347 H   0  0  0  0  0  0  0  0  0  0  0  0
   -2.1655    2.2724    3.4937 H   0  0  0  0  0  0  0  0  0  0  0  0
   -0.4555    2.6438    3.2111 H   0  0  0  0  0  0  0  0  0  0  0  0
  5  6  2  0  0  0  0
  5  7  1  0  0  0  0
  2  3  1  0  0  0  0
  2  4  1  0  0  0  0
  2  5  1  0  0  0  0
  1  2  1  0  0  0  0
 23 24  2  0  0  0  0
 23 25  1  0  0  0  0
 21 22  1  0  0  0  0
 19 20  1  0  0  0  0
 19 21  1  0  0  0  0
 17 18  1  0  0  0  0
 17 19  1  0  0  0  0
 15 16  1  0  0  0  0
 15 17  2  0  0  0  0
 14 15  1  0  0  0  0
 14 21  2  0  0  0  0
 11 12  1  0  0  0  0
 11 13  1  0  0  0  0
 11 14  1  0  0  0  0
  9 10  1  0  0  0  0
  9 11  1  0  0  0  0
  9 23  1  0  0  0  0
  7  8  1  0  0  0  0
  7  9  1  0  0  0  0
 27 28  1  0  0  0  0
 27 29  1  0  0  0  0
 27 30  1  0  0  0  0
 25 26  1  0  0  0  0
 25 27  1  0  0  0  0
M  CHG  1  15   1
M  END
$$$$
default_name
  -OEChem-01062215323D

 30 30  0     1  0  0  0  0  0999 V2000
   -3.5507   -3.2183    1.8116 H   0  0  0  0  0  0  0  0  0  0  0  0
   -3.4597   -2.3913    1.1076 C   0  0  0  0  0  0  0  0  0  0  0  0
   -4.1577   -1.6043    1.3866 H   0  0  0  0  0  0  0  0  0  0  0  0
   -3.6807   -2.7523    0.1036 H   0  0  0  0  0  0  0  0  0  0  0  0
   -2.0477   -1.8543    1.1546 C   0  0  0  0  0  0  0  0  0  0  0  0
   -1.2227   -2.3443    1.9146 O   0  0  0  0  0  0  0  0  0  0  0  0
   -1.7517   -0.8483    0.3266 N   0  0  0  0  0  0  0  0  0  0  0  0
   -2.4847   -0.5123   -0.2804 H   0  0  0  0  0  0  0  0  0  0  0  0
   -0.4117   -0.2463    0.2186 C   0  0  1  0  0  0  0  0  0  0  0  0
    0.3246   -1.0006    0.5070 H   0  0  0  0  0  0  0  0  0  0  0  0
   -0.1478    0.1061   -1.2637 C   0  0  0  0  0  0  0  0  0  0  0  0
   -0.9305    0.7888   -1.6041 H   0  0  0  0  0  0  0  0  0  0  0  0
    0.8003    0.6431   -1.3375 H   0  0  0  0  0  0  0  0  0  0  0  0
   -0.0926   -1.0773   -2.2065 C   0  0  0  0  0  0  0  0  0  0  0  0
    0.9585   -1.9677   -2.3095 N   0  3  0  0  0  0  0  0  0  0  0  0
    1.7819   -1.9428   -1.7011 H   0  0  0  0  0  0  0  0  0  0  0  0
    0.6509   -2.8824   -3.2505 C   0  0  0  0  0  0  0  0  0  0  0  0
    1.2811   -3.7194   -3.5445 H   0  0  0  0  0  0  0  0  0  0  0  0
   -0.5724   -2.5910   -3.7477 N   0  0  0  0  0  0  0  0  0  0  0  0
   -1.0628   -3.1121   -4.4698 H   0  0  0  0  0  0  0  0  0  0  0  0
   -1.0536   -1.4599   -3.1030 C   0  0  0  0  0  0  0  0  0  0  0  0
   -2.0071   -0.9664   -3.2696 H   0  0  0  0  0  0  0  0  0  0  0  0
   -0.2425    0.9261    1.2014 C   0  0  0  0  0  0  0  0  0  0  0  0
    0.8210    1.5451    1.2613 O   0  0  0  0  0  0  0  0  0  0  0  0
   -1.2964    1.2115    1.9760 N   0  0  0  0  0  0  0  0  0  0  0  0
   -2.1300    0.6579    1.8496 H   0  0  0  0  0  0  0  0  0  0  0  0
   -1.3357    2.2629    2.9969 C   0  0  0  0  0  0  0  0  0  0  0  0
   -1.8615    3.1392    2.6125 H   0  0  0  0  0  0  0  0  0  0  0  0
   -1.8620    1.9026    3.8825 H   0  0  0  0  0  0  0  0  0  0  0  0
   -0.3263    2.5596    3.2894 H   0  0  0  0  0  0  0  0  0  0  0  0
  5  6  2  0  0  0  0
  5  7  1  0  0  0  0
  2  3  1  0  0  0  0
  2  4  1  0  0  0  0
  2  5  1  0  0  0  0
  1  2  1  0  0  0  0
 23 24  2  0  0  0  0
 23 25  1  0  0  0  0
 21 22  1  0  0  0  0
 19 20  1  0  0  0  0
 19 21  1  0  0  0  0
 17 18  1  0  0  0  0
 17 19  1  0  0  0  0
 15 16  1  0  0  0  0
 15 17  2  0  0  0  0
 14 15  1  0  0  0  0
 14 21  2  0  0  0  0
 11 12  1  0  0  0  0
 11 13  1  0  0  0  0
 11 14  1  0  0  0  0
  9 10  1  0  0  0  0
  9 11  1  0  0  0  0
  9 23  1  0  0  0  0
  7  8  1  0  0  0  0
  7  9  1  0  0  0  0
 27 28  1  0  0  0  0
 27 29  1  0  0  0  0
 27 30  1  0  0  0  0
 25 26  1  0  0  0  0
 25 27  1  0  0  0  0
M  CHG  1  15   1
M  END
$$$$
default_name
  -OEChem-01062215323D

 30 30  0     1  0  0  0  0  0999 V2000
   -3.5507   -3.2183    1.8116 H   0  0  0  0  0  0  0  0  0  0  0  0
   -3.4597   -2.3913    1.1076 C   0  0  0  0  0  0  0  0  0  0  0  0
   -4.1577   -1.6043    1.3866 H   0  0  0  0  0  0  0  0  0  0  0  0
   -3.6807   -2.7523    0.1036 H   0  0  0  0  0  0  0  0  0  0  0  0
   -2.0477   -1.8543    1.1546 C   0  0  0  0  0  0  0  0  0  0  0  0
   -1.2227   -2.3443    1.9146 O   0  0  0  0  0  0  0  0  0  0  0  0
   -1.7517   -0.8483    0.3266 N   0  0  0  0  0  0  0  0  0  0  0  0
   -2.4847   -0.5123   -0.2804 H   0  0  0  0  0  0  0  0  0  0  0  0
   -0.4117   -0.2463    0.2186 C   0  0  1  0  0  0  0  0  0  0  0  0
    0.3246   -1.0006    0.5070 H   0  0  0  0  0  0  0  0  0  0  0  0
   -0.1478    0.1061   -1.2637 C   0  0  0  0  0  0  0  0  0  0  0  0
   -0.9305    0.7888   -1.6041 H   0  0  0  0  0  0  0  0  0  0  0  0
    0.8003    0.6431   -1.3375 H   0  0  0  0  0  0  0  0  0  0  0  0
   -0.0926   -1.0773   -2.2065 C   0  0  0  0  0  0  0  0  0  0  0  0
    0.9585   -1.9677   -2.3095 N   0  3  0  0  0  0  0  0  0  0  0  0
    1.7819   -1.9428   -1.7011 H   0  0  0  0  0  0  0  0  0  0  0  0
    0.6509   -2.8824   -3.2505 C   0  0  0  0  0  0  0  0  0  0  0  0
    1.2811   -3.7194   -3.5445 H   0  0  0  0  0  0  0  0  0  0  0  0
   -0.5724   -2.5910   -3.7477 N   0  0  0  0  0  0  0  0  0  0  0  0
   -1.0628   -3.1121   -4.4698 H   0  0  0  0  0  0  0  0  0  0  0  0
   -1.0536   -1.4599   -3.1030 C   0  0  0  0  0  0  0  0  0  0  0  0
   -2.0071   -0.9664   -3.2696 H   0  0  0  0  0  0  0  0  0  0  0  0
   -0.2425    0.9261    1.2014 C   0  0  0  0  0  0  0  0  0  0  0  0
    0.6966    1.7143    1.0808 O   0  0  0  0  0  0  0  0  0  0  0  0
   -1.1527    1.0210    2.1784 N   0  0  0  0  0  0  0  0  0  0  0  0
   -1.8936    0.3367    2.1920 H   0  0  0  0  0  0  0  0  0  0  0  0
   -1.1578    2.0387    3.2338 C   0  0  0  0  0  0  0  0  0  0  0  0
   -1.8848    2.8187    2.9989 H   0  0  0  0  0  0  0  0  0  0  0  0
   -1.4311    1.5846    4.1878 H   0  0  0  0  0  0  0  0  0  0  0  0
   -0.1721    2.4973    3.3371 H   0  0  0  0  0  0  0  0  0  0  0  0
  5  6  2  0  0  0  0
  5  7  1  0  0  0  0
  2  3  1  0  0  0  0
  2  4  1  0  0  0  0
  2  5  1  0  0  0  0
  1  2  1  0  0  0  0
 23 24  2  0  0  0  0
 23 25  1  0  0  0  0
 21 22  1  0  0  0  0
 19 20  1  0  0  0  0
 19 21  1  0  0  0  0
 17 18  1  0  0  0  0
 17 19  1  0  0  0  0
 15 16  1  0  0  0  0
 15 17  2  0  0  0  0
 14 15  1  0  0  0  0
 14 21  2  0  0  0  0
 11 12  1  0  0  0  0
 11 13  1  0  0  0  0
 11 14  1  0  0  0  0
  9 10  1  0  0  0  0
  9 11  1  0  0  0  0
  9 23  1  0  0  0  0
  7  8  1  0  0  0  0
  7  9  1  0  0  0  0
 27 28  1  0  0  0  0
 27 29  1  0  0  0  0
 27 30  1  0  0  0  0
 25 26  1  0  0  0  0
 25 27  1  0  0  0  0
M  CHG  1  15   1
M  END
$$$$
default_name
  -OEChem-01062215323D

 30 30  0     1  0  0  0  0  0999 V2000
   -3.5507   -3.2183    1.8116 H   0  0  0  0  0  0  0  0  0  0  0  0
   -3.4597   -2.3913    1.1076 C   0  0  0  0  0  0  0  0  0  0  0  0
   -4.1577   -1.6043    1.3866 H   0  0  0  0  0  0  0  0  0  0  0  0
   -3.6807   -2.7523    0.1036 H   0  0  0  0  0  0  0  0  0  0  0  0
   -2.0477   -1.8543    1.1546 C   0  0  0  0  0  0  0  0  0  0  0  0
   -1.2227   -2.3443    1.9146 O   0  0  0  0  0  0  0  0  0  0  0  0
   -1.7517   -0.8483    0.3266 N   0  0  0  0  0  0  0  0  0  0  0  0
   -2.4847   -0.5123   -0.2804 H   0  0  0  0  0  0  0  0  0  0  0  0
   -0.4117   -0.2463    0.2186 C   0  0  1  0  0  0  0  0  0  0  0  0
    0.3246   -1.0006    0.5070 H   0  0  0  0  0  0  0  0  0  0  0  0
   -0.1478    0.1061   -1.2637 C   0  0  0  0  0  0  0  0  0  0  0  0
   -0.9305    0.7888   -1.6041 H   0  0  0  0  0  0  0  0  0  0  0  0
    0.8003    0.6431   -1.3375 H   0  0  0  0  0  0  0  0  0  0  0  0
   -0.0926   -1.0773   -2.2065 C   0  0  0  0  0  0  0  0  0  0  0  0
    0.9585   -1.9677   -2.3095 N   0  3  0  0  0  0  0  0  0  0  0  0
    1.7819   -1.9428   -1.7011 H   0  0  0  0  0  0  0  0  0  0  0  0
    0.6509   -2.8824   -3.2505 C   0  0  0  0  0  0  0  0  0  0  0  0
    1.2811   -3.7194   -3.5445 H   0  0  0  0  0  0  0  0  0  0  0  0
   -0.5724   -2.5910   -3.7477 N   0  0  0  0  0  0  0  0  0  0  0  0
   -1.0628   -3.1121   -4.4698 H   0  0  0  0  0  0  0  0  0  0  0  0
   -1.0536   -1.4599   -3.1030 C   0  0  0  0  0  0  0  0  0  0  0  0
   -2.0071   -0.9664   -3.2696 H   0  0  0  0  0  0  0  0  0  0  0  0
   -0.2425    0.9261    1.2014 C   0  0  0  0  0  0  0  0  0  0  0  0
    0.5129    1.8623    0.9359 O   0  0  0  0  0  0  0  0  0  0  0  0
   -0.9425    0.8551    2.3402 N   0  0  0  0  0  0  0  0  0  0  0  0
   -1.5446    0.0558    2.4670 H   0  0  0  0  0  0  0  0  0  0  0  0
   -0.9021    1.8448    3.4211 C   0  0  0  0  0  0  0  0  0  0  0  0
   -1.7782    2.4941    3.3677 H   0  0  0  0  0  0  0  0  0  0  0  0
   -0.9021    1.3399    4.3886 H   0  0  0  0  0  0  0  0  0  0  0  0
   -0.0035    2.4613    3.3510 H   0  0  0  0  0  0  0  0  0  0  0  0
  5  6  2  0  0  0  0
  5  7  1  0  0  0  0
  2  3  1  0  0  0  0
  2  4  1  0  0  0  0
  2  5  1  0  0  0  0
  1  2  1  0  0  0  0
 23 24  2  0  0  0  0
 23 25  1  0  0  0  0
 21 22  1  0  0  0  0
 19 20  1  0  0  0  0
 19 21  1  0  0  0  0
 17 18  1  0  0  0  0
 17 19  1  0  0  0  0
 15 16  1  0  0  0  0
 15 17  2  0  0  0  0
 14 15  1  0  0  0  0
 14 21  2  0  0  0  0
 11 12  1  0  0  0  0
 11 13  1  0  0  0  0
 11 14  1  0  0  0  0
  9 10  1  0  0  0  0
  9 11  1  0  0  0  0
  9 23  1  0  0  0  0
  7  8  1  0  0  0  0
  7  9  1  0  0  0  0
 27 28  1  0  0  0  0
 27 29  1  0  0  0  0
 27 30  1  0  0  0  0
 25 26  1  0  0  0  0
 25 27  1  0  0  0  0
M  CHG  1  15   1
M  END
$$$$
default_name
  -OEChem-01062215323D

 30 30  0     1  0  0  0  0  0999 V2000
   -3.5507   -3.2183    1.8116 H   0  0  0  0  0  0  0  0  0  0  0  0
   -3.4597   -2.3913    1.1076 C   0  0  0  0  0  0  0  0  0  0  0  0
   -4.1577   -1.6043    1.3866 H   0  0  0  0  0  0  0  0  0  0  0  0
   -3.6807   -2.7523    0.1036 H   0  0  0  0  0  0  0  0  0  0  0  0
   -2.0477   -1.8543    1.1546 C   0  0  0  0  0  0  0  0  0  0  0  0
   -1.2227   -2.3443    1.9146 O   0  0  0  0  0  0  0  0  0  0  0  0
   -1.7517   -0.8483    0.3266 N   0  0  0  0  0  0  0  0  0  0  0  0
   -2.4847   -0.5123   -0.2804 H   0  0  0  0  0  0  0  0  0  0  0  0
   -0.4117   -0.2463    0.2186 C   0  0  1  0  0  0  0  0  0  0  0  0
    0.3246   -1.0006    0.5070 H   0  0  0  0  0  0  0  0  0  0  0  0
   -0.1478    0.1061   -1.2637 C   0  0  0  0  0  0  0  0  0  0  0  0
   -0.9305    0.7888   -1.6041 H   0  0  0  0  0  0  0  0  0  0  0  0
    0.8003    0.6431   -1.3375 H   0  0  0  0  0  0  0  0  0  0  0  0
   -0.0926   -1.0773   -2.2065 C   0  0  0  0  0  0  0  0  0  0  0  0
    0.9585   -1.9677   -2.3095 N   0  3  0  0  0  0  0  0  0  0  0  0
    1.7819   -1.9428   -1.7011 H   0  0  0  0  0  0  0  0  0  0  0  0
    0.6509   -2.8824   -3.2505 C   0  0  0  0  0  0  0  0  0  0  0  0
    1.2811   -3.7194   -3.5445 H   0  0  0  0  0  0  0  0  0  0  0  0
   -0.5724   -2.5910   -3.7477 N   0  0  0  0  0  0  0  0  0  0  0  0
   -1.0628   -3.1121   -4.4698 H   0  0  0  0  0  0  0  0  0  0  0  0
   -1.0536   -1.4599   -3.1030 C   0  0  0  0  0  0  0  0  0  0  0  0
   -2.0071   -0.9664   -3.2696 H   0  0  0  0  0  0  0  0  0  0  0  0
   -0.2425    0.9261    1.2014 C   0  0  0  0  0  0  0  0  0  0  0  0
    0.2825    1.9791    0.8362 O   0  0  0  0  0  0  0  0  0  0  0  0
   -0.6802    0.7249    2.4504 N   0  0  0  0  0  0  0  0  0  0  0  0
   -1.1069   -0.1657    2.6559 H   0  0  0  0  0  0  0  0  0  0  0  0
   -0.5862    1.6944    3.5461 C   0  0  0  0  0  0  0  0  0  0  0  0
   -1.5489    2.1878    3.6937 H   0  0  0  0  0  0  0  0  0  0  0  0
   -0.3111    1.1852    4.4714 H   0  0  0  0  0  0  0  0  0  0  0  0
    0.1681    2.4540    3.3302 H   0  0  0  0  0  0  0  0  0  0  0  0
  5  6  2  0  0  0  0
  5  7  1  0  0  0  0
  2  3  1  0  0  0  0
  2  4  1  0  0  0  0
  2  5  1  0  0  0  0
  1  2  1  0  0  0  0
 23 24  2  0  0  0  0
 23 25  1  0  0  0  0
 21 22  1  0  0  0  0
 19 20  1  0  0  0  0
 19 21  1  0  0  0  0
 17 18  1  0  0  0  0
 17 19  1  0  0  0  0
 15 16  1  0  0  0  0
 15 17  2  0  0  0  0
 14 15  1  0  0  0  0
 14 21  2  0  0  0  0
 11 12  1  0  0  0  0
 11 13  1  0  0  0  0
 11 14  1  0  0  0  0
  9 10  1  0  0  0  0
  9 11  1  0  0  0  0
  9 23  1  0  0  0  0
  7  8  1  0  0  0  0
  7  9  1  0  0  0  0
 27 28  1  0  0  0  0
 27 29  1  0  0  0  0
 27 30  1  0  0  0  0
 25 26  1  0  0  0  0
 25 27  1  0  0  0  0
M  CHG  1  15   1
M  END
$$$$
default_name
  -OEChem-01062215323D

 30 30  0     1  0  0  0  0  0999 V2000
   -3.5507   -3.2183    1.8116 H   0  0  0  0  0  0  0  0  0  0  0  0
   -3.4597   -2.3913    1.1076 C   0  0  0  0  0  0  0  0  0  0  0  0
   -4.1577   -1.6043    1.3866 H   0  0  0  0  0  0  0  0  0  0  0  0
   -3.6807   -2.7523    0.1036 H   0  0  0  0  0  0  0  0  0  0  0  0
   -2.0477   -1.8543    1.1546 C   0  0  0  0  0  0  0  0  0  0  0  0
   -1.2227   -2.3443    1.9146 O   0  0  0  0  0  0  0  0  0  0  0  0
   -1.7517   -0.8483    0.3266 N   0  0  0  0  0  0  0  0  0  0  0  0
   -2.4847   -0.5123   -0.2804 H   0  0  0  0  0  0  0  0  0  0  0  0
   -0.4117   -0.2463    0.2186 C   0  0  1  0  0  0  0  0  0  0  0  0
    0.3246   -1.0006    0.5070 H   0  0  0  0  0  0  0  0  0  0  0  0
   -0.1478    0.1061   -1.2637 C   0  0  0  0  0  0  0  0  0  0  0  0
   -0.9305    0.7888   -1.6041 H   0  0  0  0  0  0  0  0  0  0  0  0
    0.8003    0.6431   -1.3375 H   0  0  0  0  0  0  0  0  0  0  0  0
   -0.0926   -1.0773   -2.2065 C   0  0  0  0  0  0  0  0  0  0  0  0
    0.9585   -1.9677   -2.3095 N   0  3  0  0  0  0  0  0  0  0  0  0
    1.7819   -1.9428   -1.7011 H   0  0  0  0  0  0  0  0  0  0  0  0
    0.6509   -2.8824   -3.2505 C   0  0  0  0  0  0  0  0  0  0  0  0
    1.2811   -3.7194   -3.5445 H   0  0  0  0  0  0  0  0  0  0  0  0
   -0.5724   -2.5910   -3.7477 N   0  0  0  0  0  0  0  0  0  0  0  0
   -1.0628   -3.1121   -4.4698 H   0  0  0  0  0  0  0  0  0  0  0  0
   -1.0536   -1.4599   -3.1030 C   0  0  0  0  0  0  0  0  0  0  0  0
   -2.0071   -0.9664   -3.2696 H   0  0  0  0  0  0  0  0  0  0  0  0
   -0.2425    0.9261    1.2014 C   0  0  0  0  0  0  0  0  0  0  0  0
    0.0209    2.0566    0.7888 O   0  0  0  0  0  0  0  0  0  0  0  0
   -0.3835    0.6393    2.5014 N   0  0  0  0  0  0  0  0  0  0  0  0
   -0.6103   -0.3126    2.7458 H   0  0  0  0  0  0  0  0  0  0  0  0
   -0.2315    1.5978    3.6003 C   0  0  0  0  0  0  0  0  0  0  0  0
   -1.2125    1.9205    3.9546 H   0  0  0  0  0  0  0  0  0  0  0  0
    0.3016    1.1311    4.4304 H   0  0  0  0  0  0  0  0  0  0  0  0
    0.3309    2.4759    3.2761 H   0  0  0  0  0  0  0  0  0  0  0  0
  5  6  2  0  0  0  0
  5  7  1  0  0  0  0
  2  3  1  0  0  0  0
  2  4  1  0  0  0  0
  2  5  1  0  0  0  0
  1  2  1  0  0  0  0
 23 24  2  0  0  0  0
 23 25  1  0  0  0  0
 21 22  1  0  0  0  0
 19 20  1  0  0  0  0
 19 21  1  0  0  0  0
 17 18  1  0  0  0  0
 17 19  1  0  0  0  0
 15 16  1  0  0  0  0
 15 17  2  0  0  0  0
 14 15  1  0  0  0  0
 14 21  2  0  0  0  0
 11 12  1  0  0  0  0
 11 13  1  0  0  0  0
 11 14  1  0  0  0  0
  9 10  1  0  0  0  0
  9 11  1  0  0  0  0
  9 23  1  0  0  0  0
  7  8  1  0  0  0  0
  7  9  1  0  0  0  0
 27 28  1  0  0  0  0
 27 29  1  0  0  0  0
 27 30  1  0  0  0  0
 25 26  1  0  0  0  0
 25 27  1  0  0  0  0
M  CHG  1  15   1
M  END
$$$$
default_name
  -OEChem-01062215323D

 30 30  0     1  0  0  0  0  0999 V2000
   -3.5507   -3.2183    1.8116 H   0  0  0  0  0  0  0  0  0  0  0  0
   -3.4597   -2.3913    1.1076 C   0  0  0  0  0  0  0  0  0  0  0  0
   -4.1577   -1.6043    1.3866 H   0  0  0  0  0  0  0  0  0  0  0  0
   -3.6807   -2.7523    0.1036 H   0  0  0  0  0  0  0  0  0  0  0  0
   -2.0477   -1.8543    1.1546 C   0  0  0  0  0  0  0  0  0  0  0  0
   -1.2227   -2.3443    1.9146 O   0  0  0  0  0  0  0  0  0  0  0  0
   -1.7517   -0.8483    0.3266 N   0  0  0  0  0  0  0  0  0  0  0  0
   -2.4847   -0.5123   -0.2804 H   0  0  0  0  0  0  0  0  0  0  0  0
   -0.4117   -0.2463    0.2186 C   0  0  1  0  0  0  0  0  0  0  0  0
    0.3246   -1.0006    0.5070 H   0  0  0  0  0  0  0  0  0  0  0  0
   -0.1478    0.1061   -1.2637 C   0  0  0  0  0  0  0  0  0  0  0  0
   -0.9305    0.7888   -1.6041 H   0  0  0  0  0  0  0  0  0  0  0  0
    0.8003    0.6431   -1.3375 H   0  0  0  0  0  0  0  0  0  0  0  0
   -0.0926   -1.0773   -2.2065 C   0  0  0  0  0  0  0  0  0  0  0  0
    0.9585   -1.9677   -2.3095 N   0  3  0  0  0  0  0  0  0  0  0  0
    1.7819   -1.9428   -1.7011 H   0  0  0  0  0  0  0  0  0  0  0  0
    0.6509   -2.8824   -3.2505 C   0  0  0  0  0  0  0  0  0  0  0  0
    1.2811   -3.7194   -3.5445 H   0  0  0  0  0  0  0  0  0  0  0  0
   -0.5724   -2.5910   -3.7477 N   0  0  0  0  0  0  0  0  0  0  0  0
   -1.0628   -3.1121   -4.4698 H   0  0  0  0  0  0  0  0  0  0  0  0
   -1.0536   -1.4599   -3.1030 C   0  0  0  0  0  0  0  0  0  0  0  0
   -2.0071   -0.9664   -3.2696 H   0  0  0  0  0  0  0  0  0  0  0  0
   -0.2425    0.9261    1.2014 C   0  0  0  0  0  0  0  0  0  0  0  0
   -0.2539    2.0896    0.7967 O   0  0  0  0  0  0  0  0  0  0  0  0
   -0.0728    0.6043    2.4897 N   0  0  0  0  0  0  0  0  0  0  0  0
   -0.0886   -0.3751    2.7304 H   0  0  0  0  0  0  0  0  0  0  0  0
    0.1377    1.5615    3.5800 C   0  0  0  0  0  0  0  0  0  0  0  0
   -0.7920    1.7106    4.1327 H   0  0  0  0  0  0  0  0  0  0  0  0
    0.8943    1.1813    4.2685 H   0  0  0  0  0  0  0  0  0  0  0  0
    0.4739    2.5255    3.1923 H   0  0  0  0  0  0  0  0  0  0  0  0
  5  6  2  0  0  0  0
  5  7  1  0  0  0  0
  2  3  1  0  0  0  0
  2  4  1  0  0  0  0
  2  5  1  0  0  0  0
  1  2  1  0  0  0  0
 23 24  2  0  0  0  0
 23 25  1  0  0  0  0
 21 22  1  0  0  0  0
 19 20  1  0  0  0  0
 19 21  1  0  0  0  0
 17 18  1  0  0  0  0
 17 19  1  0  0  0  0
 15 16  1  0  0  0  0
 15 17  2  0  0  0  0
 14 15  1  0  0  0  0
 14 21  2  0  0  0  0
 11 12  1  0  0  0  0
 11 13  1  0  0  0  0
 11 14  1  0  0  0  0
  9 10  1  0  0  0  0
  9 11  1  0  0  0  0
  9 23  1  0  0  0  0
  7  8  1  0  0  0  0
  7  9  1  0  0  0  0
 27 28  1  0  0  0  0
 27 29  1  0  0  0  0
 27 30  1  0  0  0  0
 25 26  1  0  0  0  0
 25 27  1  0  0  0  0
M  CHG  1  15   1
M  END
$$$$
default_name
  -OEChem-01062215323D

 30 30  0     1  0  0  0  0  0999 V2000
   -3.5507   -3.2183    1.8116 H   0  0  0  0  0  0  0  0  0  0  0  0
   -3.4597   -2.3913    1.1076 C   0  0  0  0  0  0  0  0  0  0  0  0
   -4.1577   -1.6043    1.3866 H   0  0  0  0  0  0  0  0  0  0  0  0
   -3.6807   -2.7523    0.1036 H   0  0  0  0  0  0  0  0  0  0  0  0
   -2.0477   -1.8543    1.1546 C   0  0  0  0  0  0  0  0  0  0  0  0
   -1.2227   -2.3443    1.9146 O   0  0  0  0  0  0  0  0  0  0  0  0
   -1.7517   -0.8483    0.3266 N   0  0  0  0  0  0  0  0  0  0  0  0
   -2.4847   -0.5123   -0.2804 H   0  0  0  0  0  0  0  0  0  0  0  0
   -0.4117   -0.2463    0.2186 C   0  0  1  0  0  0  0  0  0  0  0  0
    0.3246   -1.0006    0.5070 H   0  0  0  0  0  0  0  0  0  0  0  0
   -0.1478    0.1061   -1.2637 C   0  0  0  0  0  0  0  0  0  0  0  0
   -0.9305    0.7888   -1.6041 H   0  0  0  0  0  0  0  0  0  0  0  0
    0.8003    0.6431   -1.3375 H   0  0  0  0  0  0  0  0  0  0  0  0
   -0.0926   -1.0773   -2.2065 C   0  0  0  0  0  0  0  0  0  0  0  0
    0.9585   -1.9677   -2.3095 N   0  3  0  0  0  0  0  0  0  0  0  0
    1.7819   -1.9428   -1.7011 H   0  0  0  0  0  0  0  0  0  0  0  0
    0.6509   -2.8824   -3.2505 C   0  0  0  0  0  0  0  0  0  0  0  0
    1.2811   -3.7194   -3.5445 H   0  0  0  0  0  0  0  0  0  0  0  0
   -0.5724   -2.5910   -3.7477 N   0  0  0  0  0  0  0  0  0  0  0  0
   -1.0628   -3.1121   -4.4698 H   0  0  0  0  0  0  0  0  0  0  0  0
   -1.0536   -1.4599   -3.1030 C   0  0  0  0  0  0  0  0  0  0  0  0
   -2.0071   -0.9664   -3.2696 H   0  0  0  0  0  0  0  0  0  0  0  0
   -0.2425    0.9261    1.2014 C   0  0  0  0  0  0  0  0  0  0  0  0
   -0.5232    2.0759    0.8595 O   0  0  0  0  0  0  0  0  0  0  0  0
    0.2308    0.6221    2.4161 N   0  0  0  0  0  0  0  0  0  0  0  0
    0.4227   -0.3487    2.6110 H   0  0  0  0  0  0  0  0  0  0  0  0
    0.4963    1.5881    3.4865 C   0  0  0  0  0  0  0  0  0  0  0  0
   -0.3160    1.5721    4.2159 H   0  0  0  0  0  0  0  0  0  0  0  0
    1.4266    1.3324    3.9967 H   0  0  0  0  0  0  0  0  0  0  0  0
    0.5873    2.5994    3.0846 H   0  0  0  0  0  0  0  0  0  0  0  0
  5  6  2  0  0  0  0
  5  7  1  0  0  0  0
  2  3  1  0  0  0  0
  2  4  1  0  0  0  0
  2  5  1  0  0  0  0
  1  2  1  0  0  0  0
 23 24  2  0  0  0  0
 23 25  1  0  0  0  0
 21 22  1  0  0  0  0
 19 20  1  0  0  0  0
 19 21  1  0  0  0  0
 17 18  1  0  0  0  0
 17 19  1  0  0  0  0
 15 16  1  0  0  0  0
 15 17  2  0  0  0  0
 14 15  1  0  0  0  0
 14 21  2  0  0  0  0
 11 12  1  0  0  0  0
 11 13  1  0  0  0  0
 11 14  1  0  0  0  0
  9 10  1  0  0  0  0
  9 11  1  0  0  0  0
  9 23  1  0  0  0  0
  7  8  1  0  0  0  0
  7  9  1  0  0  0  0
 27 28  1  0  0  0  0
 27 29  1  0  0  0  0
 27 30  1  0  0  0  0
 25 26  1  0  0  0  0
 25 27  1  0  0  0  0
M  CHG  1  15   1
M  END
$$$$
default_name
  -OEChem-01062215323D

 30 30  0     1  0  0  0  0  0999 V2000
   -3.5507   -3.2183    1.8116 H   0  0  0  0  0  0  0  0  0  0  0  0
   -3.4597   -2.3913    1.1076 C   0  0  0  0  0  0  0  0  0  0  0  0
   -4.1577   -1.6043    1.3866 H   0  0  0  0  0  0  0  0  0  0  0  0
   -3.6807   -2.7523    0.1036 H   0  0  0  0  0  0  0  0  0  0  0  0
   -2.0477   -1.8543    1.1546 C   0  0  0  0  0  0  0  0  0  0  0  0
   -1.2227   -2.3443    1.9146 O   0  0  0  0  0  0  0  0  0  0  0  0
   -1.7517   -0.8483    0.3266 N   0  0  0  0  0  0  0  0  0  0  0  0
   -2.4847   -0.5123   -0.2804 H   0  0  0  0  0  0  0  0  0  0  0  0
   -0.4117   -0.2463    0.2186 C   0  0  1  0  0  0  0  0  0  0  0  0
    0.3246   -1.0006    0.5070 H   0  0  0  0  0  0  0  0  0  0  0  0
   -0.1478    0.1061   -1.2637 C   0  0  0  0  0  0  0  0  0  0  0  0
   -0.9305    0.7888   -1.6041 H   0  0  0  0  0  0  0  0  0  0  0  0
    0.8003    0.6431   -1.3375 H   0  0  0  0  0  0  0  0  0  0  0  0
   -0.0926   -1.0773   -2.2065 C   0  0  0  0  0  0  0  0  0  0  0  0
    0.9585   -1.9677   -2.3095 N   0  3  0  0  0  0  0  0  0  0  0  0
    1.7819   -1.9428   -1.7011 H   0  0  0  0  0  0  0  0  0  0  0  0
    0.6509   -2.8824   -3.2505 C   0  0  0  0  0  0  0  0  0  0  0  0
    1.2811   -3.7194   -3.5445 H   0  0  0  0  0  0  0  0  0  0  0  0
   -0.5724   -2.5910   -3.7477 N   0  0  0  0  0  0  0  0  0  0  0  0
   -1.0628   -3.1121   -4.4698 H   0  0  0  0  0  0  0  0  0  0  0  0
   -1.0536   -1.4599   -3.1030 C   0  0  0  0  0  0  0  0  0  0  0  0
   -2.0071   -0.9664   -3.2696 H   0  0  0  0  0  0  0  0  0  0  0  0
   -0.2425    0.9261    1.2014 C   0  0  0  0  0  0  0  0  0  0  0  0
   -0.7687    2.0163    0.9728 O   0  0  0  0  0  0  0  0  0  0  0  0
    0.5066    0.6916    2.2858 N   0  0  0  0  0  0  0  0  0  0  0  0
    0.8886   -0.2354    2.3956 H   0  0  0  0  0  0  0  0  0  0  0  0
    0.8199    1.6757    3.3263 C   0  0  0  0  0  0  0  0  0  0  0  0
    0.1831    1.5147    4.1985 H   0  0  0  0  0  0  0  0  0  0  0  0
    1.8622    1.5740    3.6335 H   0  0  0  0  0  0  0  0  0  0  0  0
    0.6633    2.6926    2.9604 H   0  0  0  0  0  0  0  0  0  0  0  0
  5  6  2  0  0  0  0
  5  7  1  0  0  0  0
  2  3  1  0  0  0  0
  2  4  1  0  0  0  0
  2  5  1  0  0  0  0
  1  2  1  0  0  0  0
 23 24  2  0  0  0  0
 23 25  1  0  0  0  0
 21 22  1  0  0  0  0
 19 20  1  0  0  0  0
 19 21  1  0  0  0  0
 17 18  1  0  0  0  0
 17 19  1  0  0  0  0
 15 16  1  0  0  0  0
 15 17  2  0  0  0  0
 14 15  1  0  0  0  0
 14 21  2  0  0  0  0
 11 12  1  0  0  0  0
 11 13  1  0  0  0  0
 11 14  1  0  0  0  0
  9 10  1  0  0  0  0
  9 11  1  0  0  0  0
  9 23  1  0  0  0  0
  7  8  1  0  0  0  0
  7  9  1  0  0  0  0
 27 28  1  0  0  0  0
 27 29  1  0  0  0  0
 27 30  1  0  0  0  0
 25 26  1  0  0  0  0
 25 27  1  0  0  0  0
M  CHG  1  15   1
M  END
$$$$
default_name
  -OEChem-01062215323D

 30 30  0     1  0  0  0  0  0999 V2000
   -3.5507   -3.2183    1.8116 H   0  0  0  0  0  0  0  0  0  0  0  0
   -3.4597   -2.3913    1.1076 C   0  0  0  0  0  0  0  0  0  0  0  0
   -4.1577   -1.6043    1.3866 H   0  0  0  0  0  0  0  0  0  0  0  0
   -3.6807   -2.7523    0.1036 H   0  0  0  0  0  0  0  0  0  0  0  0
   -2.0477   -1.8543    1.1546 C   0  0  0  0  0  0  0  0  0  0  0  0
   -1.2227   -2.3443    1.9146 O   0  0  0  0  0  0  0  0  0  0  0  0
   -1.7517   -0.8483    0.3266 N   0  0  0  0  0  0  0  0  0  0  0  0
   -2.4847   -0.5123   -0.2804 H   0  0  0  0  0  0  0  0  0  0  0  0
   -0.4117   -0.2463    0.2186 C   0  0  1  0  0  0  0  0  0  0  0  0
    0.3246   -1.0006    0.5070 H   0  0  0  0  0  0  0  0  0  0  0  0
   -0.1478    0.1061   -1.2637 C   0  0  0  0  0  0  0  0  0  0  0  0
   -0.9305    0.7888   -1.6041 H   0  0  0  0  0  0  0  0  0  0  0  0
    0.8003    0.6431   -1.3375 H   0  0  0  0  0  0  0  0  0  0  0  0
   -0.0926   -1.0773   -2.2065 C   0  0  0  0  0  0  0  0  0  0  0  0
    0.9585   -1.9677   -2.3095 N   0  3  0  0  0  0  0  0  0  0  0  0
    1.7819   -1.9428   -1.7011 H   0  0  0  0  0  0  0  0  0  0  0  0
    0.6509   -2.8824   -3.2505 C   0  0  0  0  0  0  0  0  0  0  0  0
    1.2811   -3.7194   -3.5445 H   0  0  0  0  0  0  0  0  0  0  0  0
   -0.5724   -2.5910   -3.7477 N   0  0  0  0  0  0  0  0  0  0  0  0
   -1.0628   -3.1121   -4.4698 H   0  0  0  0  0  0  0  0  0  0  0  0
   -1.0536   -1.4599   -3.1030 C   0  0  0  0  0  0  0  0  0  0  0  0
   -2.0071   -0.9664   -3.2696 H   0  0  0  0  0  0  0  0  0  0  0  0
   -0.2425    0.9261    1.2014 C   0  0  0  0  0  0  0  0  0  0  0  0
   -0.9737    1.9150    1.1290 O   0  0  0  0  0  0  0  0  0  0  0  0
    0.7359    0.8080    2.1074 N   0  0  0  0  0  0  0  0  0  0  0  0
    1.2775   -0.0428    2.0989 H   0  0  0  0  0  0  0  0  0  0  0  0
    1.0864    1.8183    3.1103 C   0  0  0  0  0  0  0  0  0  0  0  0
    0.6712    1.5423    4.0816 H   0  0  0  0  0  0  0  0  0  0  0  0
    2.1715    1.8897    3.2037 H   0  0  0  0  0  0  0  0  0  0  0  0
    0.6969    2.7987    2.8280 H   0  0  0  0  0  0  0  0  0  0  0  0
  5  6  2  0  0  0  0
  5  7  1  0  0  0  0
  2  3  1  0  0  0  0
  2  4  1  0  0  0  0
  2  5  1  0  0  0  0
  1  2  1  0  0  0  0
 23 24  2  0  0  0  0
 23 25  1  0  0  0  0
 21 22  1  0  0  0  0
 19 20  1  0  0  0  0
 19 21  1  0  0  0  0
 17 18  1  0  0  0  0
 17 19  1  0  0  0  0
 15 16  1  0  0  0  0
 15 17  2  0  0  0  0
 14 15  1  0  0  0  0
 14 21  2  0  0  0  0
 11 12  1  0  0  0  0
 11 13  1  0  0  0  0
 11 14  1  0  0  0  0
  9 10  1  0  0  0  0
  9 11  1  0  0  0  0
  9 23  1  0  0  0  0
  7  8  1  0  0  0  0
  7  9  1  0  0  0  0
 27 28  1  0  0  0  0
 27 29  1  0  0  0  0
 27 30  1  0  0  0  0
 25 26  1  0  0  0  0
 25 27  1  0  0  0  0
M  CHG  1  15   1
M  END
$$$$
default_name
  -OEChem-01062215323D

 30 30  0     1  0  0  0  0  0999 V2000
   -3.5507   -3.2183    1.8116 H   0  0  0  0  0  0  0  0  0  0  0  0
   -3.4597   -2.3913    1.1076 C   0  0  0  0  0  0  0  0  0  0  0  0
   -4.1577   -1.6043    1.3866 H   0  0  0  0  0  0  0  0  0  0  0  0
   -3.6807   -2.7523    0.1036 H   0  0  0  0  0  0  0  0  0  0  0  0
   -2.0477   -1.8543    1.1546 C   0  0  0  0  0  0  0  0  0  0  0  0
   -1.2227   -2.3443    1.9146 O   0  0  0  0  0  0  0  0  0  0  0  0
   -1.7517   -0.8483    0.3266 N   0  0  0  0  0  0  0  0  0  0  0  0
   -2.4847   -0.5123   -0.2804 H   0  0  0  0  0  0  0  0  0  0  0  0
   -0.4117   -0.2463    0.2186 C   0  0  1  0  0  0  0  0  0  0  0  0
    0.3246   -1.0006    0.5070 H   0  0  0  0  0  0  0  0  0  0  0  0
   -0.1478    0.1061   -1.2637 C   0  0  0  0  0  0  0  0  0  0  0  0
   -0.9305    0.7888   -1.6041 H   0  0  0  0  0  0  0  0  0  0  0  0
    0.8003    0.6431   -1.3375 H   0  0  0  0  0  0  0  0  0  0  0  0
   -0.0926   -1.0773   -2.2065 C   0  0  0  0  0  0  0  0  0  0  0  0
    0.9585   -1.9677   -2.3095 N   0  3  0  0  0  0  0  0  0  0  0  0
    1.7819   -1.9428   -1.7011 H   0  0  0  0  0  0  0  0  0  0  0  0
    0.6509   -2.8824   -3.2505 C   0  0  0  0  0  0  0  0  0  0  0  0
    1.2811   -3.7194   -3.5445 H   0  0  0  0  0  0  0  0  0  0  0  0
   -0.5724   -2.5910   -3.7477 N   0  0  0  0  0  0  0  0  0  0  0  0
   -1.0628   -3.1121   -4.4698 H   0  0  0  0  0  0  0  0  0  0  0  0
   -1.0536   -1.4599   -3.1030 C   0  0  0  0  0  0  0  0  0  0  0  0
   -2.0071   -0.9664   -3.2696 H   0  0  0  0  0  0  0  0  0  0  0  0
   -0.2425    0.9261    1.2014 C   0  0  0  0  0  0  0  0  0  0  0  0
   -1.1241    1.7788    1.3174 O   0  0  0  0  0  0  0  0  0  0  0  0
    0.9029    0.9634    1.8933 N   0  0  0  0  0  0  0  0  0  0  0  0
    1.5628    0.2159    1.7412 H   0  0  0  0  0  0  0  0  0  0  0  0
    1.2777    2.0063    2.8531 C   0  0  0  0  0  0  0  0  0  0  0  0
    1.1151    1.6529    3.8733 H   0  0  0  0  0  0  0  0  0  0  0  0
    2.3332    2.2579    2.7365 H   0  0  0  0  0  0  0  0  0  0  0  0
    0.6857    2.9106    2.6965 H   0  0  0  0  0  0  0  0  0  0  0  0
  5  6  2  0  0  0  0
  5  7  1  0  0  0  0
  2  3  1  0  0  0  0
  2  4  1  0  0  0  0
  2  5  1  0  0  0  0
  1  2  1  0  0  0  0
 23 24  2  0  0  0  0
 23 25  1  0  0  0  0
 21 22  1  0  0  0  0
 19 20  1  0  0  0  0
 19 21  1  0  0  0  0
 17 18  1  0  0  0  0
 17 19  1  0  0  0  0
 15 16  1  0  0  0  0
 15 17  2  0  0  0  0
 14 15  1  0  0  0  0
 14 21  2  0  0  0  0
 11 12  1  0  0  0  0
 11 13  1  0  0  0  0
 11 14  1  0  0  0  0
  9 10  1  0  0  0  0
  9 11  1  0  0  0  0
  9 23  1  0  0  0  0
  7  8  1  0  0  0  0
  7  9  1  0  0  0  0
 27 28  1  0  0  0  0
 27 29  1  0  0  0  0
 27 30  1  0  0  0  0
 25 26  1  0  0  0  0
 25 27  1  0  0  0  0
M  CHG  1  15   1
M  END
$$$$
default_name
  -OEChem-01062215323D

 30 30  0     1  0  0  0  0  0999 V2000
   -3.5507   -3.2183    1.8116 H   0  0  0  0  0  0  0  0  0  0  0  0
   -3.4597   -2.3913    1.1076 C   0  0  0  0  0  0  0  0  0  0  0  0
   -4.1577   -1.6043    1.3866 H   0  0  0  0  0  0  0  0  0  0  0  0
   -3.6807   -2.7523    0.1036 H   0  0  0  0  0  0  0  0  0  0  0  0
   -2.0477   -1.8543    1.1546 C   0  0  0  0  0  0  0  0  0  0  0  0
   -1.2227   -2.3443    1.9146 O   0  0  0  0  0  0  0  0  0  0  0  0
   -1.7517   -0.8483    0.3266 N   0  0  0  0  0  0  0  0  0  0  0  0
   -2.4847   -0.5123   -0.2804 H   0  0  0  0  0  0  0  0  0  0  0  0
   -0.4117   -0.2463    0.2186 C   0  0  1  0  0  0  0  0  0  0  0  0
    0.3246   -1.0006    0.5070 H   0  0  0  0  0  0  0  0  0  0  0  0
   -0.1478    0.1061   -1.2637 C   0  0  0  0  0  0  0  0  0  0  0  0
   -0.9305    0.7888   -1.6041 H   0  0  0  0  0  0  0  0  0  0  0  0
    0.8003    0.6431   -1.3375 H   0  0  0  0  0  0  0  0  0  0  0  0
   -0.0926   -1.0773   -2.2065 C   0  0  0  0  0  0  0  0  0  0  0  0
    0.9585   -1.9677   -2.3095 N   0  3  0  0  0  0  0  0  0  0  0  0
    1.7819   -1.9428   -1.7011 H   0  0  0  0  0  0  0  0  0  0  0  0
    0.6509   -2.8824   -3.2505 C   0  0  0  0  0  0  0  0  0  0  0  0
    1.2811   -3.7194   -3.5445 H   0  0  0  0  0  0  0  0  0  0  0  0
   -0.5724   -2.5910   -3.7477 N   0  0  0  0  0  0  0  0  0  0  0  0
   -1.0628   -3.1121   -4.4698 H   0  0  0  0  0  0  0  0  0  0  0  0
   -1.0536   -1.4599   -3.1030 C   0  0  0  0  0  0  0  0  0  0  0  0
   -2.0071   -0.9664   -3.2696 H   0  0  0  0  0  0  0  0  0  0  0  0
   -0.2425    0.9261    1.2014 C   0  0  0  0  0  0  0  0  0  0  0  0
   -1.2098    1.6170    1.5251 O   0  0  0  0  0  0  0  0  0  0  0  0
    0.9963    1.1473    1.6579 N   0  0  0  0  0  0  0  0  0  0  0  0
    1.7251    0.5231    1.3467 H   0  0  0  0  0  0  0  0  0  0  0  0
    1.3807    2.2268    2.5724 C   0  0  0  0  0  0  0  0  0  0  0  0
    1.4845    1.8390    3.5877 H   0  0  0  0  0  0  0  0  0  0  0  0
    2.3366    2.6537    2.2639 H   0  0  0  0  0  0  0  0  0  0  0  0
    0.6305    3.0205    2.5749 H   0  0  0  0  0  0  0  0  0  0  0  0
  5  6  2  0  0  0  0
  5  7  1  0  0  0  0
  2  3  1  0  0  0  0
  2  4  1  0  0  0  0
  2  5  1  0  0  0  0
  1  2  1  0  0  0  0
 23 24  2  0  0  0  0
 23 25  1  0  0  0  0
 21 22  1  0  0  0  0
 19 20  1  0  0  0  0
 19 21  1  0  0  0  0
 17 18  1  0  0  0  0
 17 19  1  0  0  0  0
 15 16  1  0  0  0  0
 15 17  2  0  0  0  0
 14 15  1  0  0  0  0
 14 21  2  0  0  0  0
 11 12  1  0  0  0  0
 11 13  1  0  0  0  0
 11 14  1  0  0  0  0
  9 10  1  0  0  0  0
  9 11  1  0  0  0  0
  9 23  1  0  0  0  0
  7  8  1  0  0  0  0
  7  9  1  0  0  0  0
 27 28  1  0  0  0  0
 27 29  1  0  0  0  0
 27 30  1  0  0  0  0
 25 26  1  0  0  0  0
 25 27  1  0  0  0  0
M  CHG  1  15   1
M  END
$$$$
default_name
  -OEChem-01062215323D

 30 30  0     1  0  0  0  0  0999 V2000
   -3.5507   -3.2183    1.8116 H   0  0  0  0  0  0  0  0  0  0  0  0
   -3.4597   -2.3913    1.1076 C   0  0  0  0  0  0  0  0  0  0  0  0
   -4.1577   -1.6043    1.3866 H   0  0  0  0  0  0  0  0  0  0  0  0
   -3.6807   -2.7523    0.1036 H   0  0  0  0  0  0  0  0  0  0  0  0
   -2.0477   -1.8543    1.1546 C   0  0  0  0  0  0  0  0  0  0  0  0
   -1.2227   -2.3443    1.9146 O   0  0  0  0  0  0  0  0  0  0  0  0
   -1.7517   -0.8483    0.3266 N   0  0  0  0  0  0  0  0  0  0  0  0
   -2.4847   -0.5123   -0.2804 H   0  0  0  0  0  0  0  0  0  0  0  0
   -0.4117   -0.2463    0.2186 C   0  0  1  0  0  0  0  0  0  0  0  0
    0.3246   -1.0006    0.5070 H   0  0  0  0  0  0  0  0  0  0  0  0
   -0.1478    0.1061   -1.2637 C   0  0  0  0  0  0  0  0  0  0  0  0
   -0.9305    0.7888   -1.6041 H   0  0  0  0  0  0  0  0  0  0  0  0
    0.8003    0.6431   -1.3375 H   0  0  0  0  0  0  0  0  0  0  0  0
   -0.0926   -1.0773   -2.2065 C   0  0  0  0  0  0  0  0  0  0  0  0
    0.9585   -1.9677   -2.3095 N   0  3  0  0  0  0  0  0  0  0  0  0
    1.7819   -1.9428   -1.7011 H   0  0  0  0  0  0  0  0  0  0  0  0
    0.6509   -2.8824   -3.2505 C   0  0  0  0  0  0  0  0  0  0  0  0
    1.2811   -3.7194   -3.5445 H   0  0  0  0  0  0  0  0  0  0  0  0
   -0.5724   -2.5910   -3.7477 N   0  0  0  0  0  0  0  0  0  0  0  0
   -1.0628   -3.1121   -4.4698 H   0  0  0  0  0  0  0  0  0  0  0  0
   -1.0536   -1.4599   -3.1030 C   0  0  0  0  0  0  0  0  0  0  0  0
   -2.0071   -0.9664   -3.2696 H   0  0  0  0  0  0  0  0  0  0  0  0
   -0.2425    0.9261    1.2014 C   0  0  0  0  0  0  0  0  0  0  0  0
   -1.2248    1.4406    1.7381 O   0  0  0  0  0  0  0  0  0  0  0  0
    1.0098    1.3469    1.4174 N   0  0  0  0  0  0  0  0  0  0  0  0
    1.7533    0.8580    0.9425 H   0  0  0  0  0  0  0  0  0  0  0  0
    1.3883    2.4648    2.2871 C   0  0  0  0  0  0  0  0  0  0  0  0
    1.7542    2.0879    3.2443 H   0  0  0  0  0  0  0  0  0  0  0  0
    2.1812    3.0499    1.8179 H   0  0  0  0  0  0  0  0  0  0  0  0
    0.5351    3.1210    2.4714 H   0  0  0  0  0  0  0  0  0  0  0  0
  5  6  2  0  0  0  0
  5  7  1  0  0  0  0
  2  3  1  0  0  0  0
  2  4  1  0  0  0  0
  2  5  1  0  0  0  0
  1  2  1  0  0  0  0
 23 24  2  0  0  0  0
 23 25  1  0  0  0  0
 21 22  1  0  0  0  0
 19 20  1  0  0  0  0
 19 21  1  0  0  0  0
 17 18  1  0  0  0  0
 17 19  1  0  0  0  0
 15 16  1  0  0  0  0
 15 17  2  0  0  0  0
 14 15  1  0  0  0  0
 14 21  2  0  0  0  0
 11 12  1  0  0  0  0
 11 13  1  0  0  0  0
 11 14  1  0  0  0  0
  9 10  1  0  0  0  0
  9 11  1  0  0  0  0
  9 23  1  0  0  0  0
  7  8  1  0  0  0  0
  7  9  1  0  0  0  0
 27 28  1  0  0  0  0
 27 29  1  0  0  0  0
 27 30  1  0  0  0  0
 25 26  1  0  0  0  0
 25 27  1  0  0  0  0
M  CHG  1  15   1
M  END
$$$$
default_name
  -OEChem-01062215323D

 30 30  0     1  0  0  0  0  0999 V2000
   -3.5507   -3.2183    1.8116 H   0  0  0  0  0  0  0  0  0  0  0  0
   -3.4597   -2.3913    1.1076 C   0  0  0  0  0  0  0  0  0  0  0  0
   -4.1577   -1.6043    1.3866 H   0  0  0  0  0  0  0  0  0  0  0  0
   -3.6807   -2.7523    0.1036 H   0  0  0  0  0  0  0  0  0  0  0  0
   -2.0477   -1.8543    1.1546 C   0  0  0  0  0  0  0  0  0  0  0  0
   -1.2227   -2.3443    1.9146 O   0  0  0  0  0  0  0  0  0  0  0  0
   -1.7517   -0.8483    0.3266 N   0  0  0  0  0  0  0  0  0  0  0  0
   -2.4847   -0.5123   -0.2804 H   0  0  0  0  0  0  0  0  0  0  0  0
   -0.4117   -0.2463    0.2186 C   0  0  1  0  0  0  0  0  0  0  0  0
    0.3262   -1.0521    0.2409 H   0  0  0  0  0  0  0  0  0  0  0  0
   -0.2916    0.4450   -1.1594 C   0  0  0  0  0  0  0  0  0  0  0  0
   -1.0834    1.1937   -1.2436 H   0  0  0  0  0  0  0  0  0  0  0  0
    0.6603    0.9782   -1.2072 H   0  0  0  0  0  0  0  0  0  0  0  0
   -0.3718   -0.4822   -2.3536 C   0  0  0  0  0  0  0  0  0  0  0  0
    0.6343   -1.3297   -2.7755 N   0  3  0  0  0  0  0  0  0  0  0  0
    1.5166   -1.4545   -2.2708 H   0  0  0  0  0  0  0  0  0  0  0  0
    0.2021   -1.9939   -3.8657 C   0  0  0  0  0  0  0  0  0  0  0  0
    0.7717   -2.7416   -4.4141 H   0  0  0  0  0  0  0  0  0  0  0  0
   -1.0562   -1.5855   -4.1456 N   0  0  0  0  0  0  0  0  0  0  0  0
   -1.6350   -1.9180   -4.9124 H   0  0  0  0  0  0  0  0  0  0  0  0
   -1.4320   -0.6359   -3.2056 C   0  0  0  0  0  0  0  0  0  0  0  0
   -2.3815   -0.1110   -3.1479 H   0  0  0  0  0  0  0  0  0  0  0  0
   -0.1047    0.6593    1.4246 C   0  0  0  0  0  0  0  0  0  0  0  0
   -0.9377    0.8163    2.3186 O   0  0  0  0  0  0  0  0  0  0  0  0
    1.0916    1.2601    1.4298 N   0  0  0  0  0  0  0  0  0  0  0  0
    1.7140    1.0638    0.6607 H   0  0  0  0  0  0  0  0  0  0  0  0
    1.5696    2.1843    2.4626 C   0  0  0  0  0  0  0  0  0  0  0  0
    2.2496    1.6673    3.1426 H   0  0  0  0  0  0  0  0  0  0  0  0
    2.1055    3.0149    2.0001 H   0  0  0  0  0  0  0  0  0  0  0  0
    0.7353    2.5879    3.0403 H   0  0  0  0  0  0  0  0  0  0  0  0
  5  6  2  0  0  0  0
  5  7  1  0  0  0  0
  2  3  1  0  0  0  0
  2  4  1  0  0  0  0
  2  5  1  0  0  0  0
  1  2  1  0  0  0  0
 23 24  2  0  0  0  0
 23 25  1  0  0  0  0
 21 22  1  0  0  0  0
 19 20  1  0  0  0  0
 19 21  1  0  0  0  0
 17 18  1  0  0  0  0
 17 19  1  0  0  0  0
 15 16  1  0  0  0  0
 15 17  2  0  0  0  0
 14 15  1  0  0  0  0
 14 21  2  0  0  0  0
 11 12  1  0  0  0  0
 11 13  1  0  0  0  0
 11 14  1  0  0  0  0
  9 10  1  0  0  0  0
  9 11  1  0  0  0  0
  9 23  1  0  0  0  0
  7  8  1  0  0  0  0
  7  9  1  0  0  0  0
 27 28  1  0  0  0  0
 27 29  1  0  0  0  0
 27 30  1  0  0  0  0
 25 26  1  0  0  0  0
 25 27  1  0  0  0  0
M  CHG  1  15   1
M  END
$$$$
default_name
  -OEChem-01062215323D

 30 30  0     1  0  0  0  0  0999 V2000
   -3.5507   -3.2183    1.8116 H   0  0  0  0  0  0  0  0  0  0  0  0
   -3.4597   -2.3913    1.1076 C   0  0  0  0  0  0  0  0  0  0  0  0
   -4.1577   -1.6043    1.3866 H   0  0  0  0  0  0  0  0  0  0  0  0
   -3.6807   -2.7523    0.1036 H   0  0  0  0  0  0  0  0  0  0  0  0
   -2.0477   -1.8543    1.1546 C   0  0  0  0  0  0  0  0  0  0  0  0
   -1.2227   -2.3443    1.9146 O   0  0  0  0  0  0  0  0  0  0  0  0
   -1.7517   -0.8483    0.3266 N   0  0  0  0  0  0  0  0  0  0  0  0
   -2.4847   -0.5123   -0.2804 H   0  0  0  0  0  0  0  0  0  0  0  0
   -0.4117   -0.2463    0.2186 C   0  0  1  0  0  0  0  0  0  0  0  0
    0.3262   -1.0521    0.2409 H   0  0  0  0  0  0  0  0  0  0  0  0
   -0.2916    0.4450   -1.1594 C   0  0  0  0  0  0  0  0  0  0  0  0
   -1.0834    1.1937   -1.2436 H   0  0  0  0  0  0  0  0  0  0  0  0
    0.6603    0.9782   -1.2072 H   0  0  0  0  0  0  0  0  0  0  0  0
   -0.3718   -0.4822   -2.3536 C   0  0  0  0  0  0  0  0  0  0  0  0
    0.6343   -1.3297   -2.7755 N   0  3  0  0  0  0  0  0  0  0  0  0
    1.5166   -1.4545   -2.2708 H   0  0  0  0  0  0  0  0  0  0  0  0
    0.2021   -1.9939   -3.8657 C   0  0  0  0  0  0  0  0  0  0  0  0
    0.7717   -2.7416   -4.4141 H   0  0  0  0  0  0  0  0  0  0  0  0
   -1.0562   -1.5855   -4.1456 N   0  0  0  0  0  0  0  0  0  0  0  0
   -1.6350   -1.9180   -4.9124 H   0  0  0  0  0  0  0  0  0  0  0  0
   -1.4320   -0.6359   -3.2056 C   0  0  0  0  0  0  0  0  0  0  0  0
   -2.3815   -0.1110   -3.1479 H   0  0  0  0  0  0  0  0  0  0  0  0
   -0.1047    0.6593    1.4246 C   0  0  0  0  0  0  0  0  0  0  0  0
   -0.8008    0.6084    2.4398 O   0  0  0  0  0  0  0  0  0  0  0  0
    0.9338    1.4940    1.2943 N   0  0  0  0  0  0  0  0  0  0  0  0
    1.4537    1.4583    0.4307 H   0  0  0  0  0  0  0  0  0  0  0  0
    1.3753    2.4593    2.3056 C   0  0  0  0  0  0  0  0  0  0  0  0
    2.2430    2.0700    2.8419 H   0  0  0  0  0  0  0  0  0  0  0  0
    1.6556    3.3989    1.8263 H   0  0  0  0  0  0  0  0  0  0  0  0
    0.5791    2.6606    3.0254 H   0  0  0  0  0  0  0  0  0  0  0  0
  5  6  2  0  0  0  0
  5  7  1  0  0  0  0
  2  3  1  0  0  0  0
  2  4  1  0  0  0  0
  2  5  1  0  0  0  0
  1  2  1  0  0  0  0
 23 24  2  0  0  0  0
 23 25  1  0  0  0  0
 21 22  1  0  0  0  0
 19 20  1  0  0  0  0
 19 21  1  0  0  0  0
 17 18  1  0  0  0  0
 17 19  1  0  0  0  0
 15 16  1  0  0  0  0
 15 17  2  0  0  0  0
 14 15  1  0  0  0  0
 14 21  2  0  0  0  0
 11 12  1  0  0  0  0
 11 13  1  0  0  0  0
 11 14  1  0  0  0  0
  9 10  1  0  0  0  0
  9 11  1  0  0  0  0
  9 23  1  0  0  0  0
  7  8  1  0  0  0  0
  7  9  1  0  0  0  0
 27 28  1  0  0  0  0
 27 29  1  0  0  0  0
 27 30  1  0  0  0  0
 25 26  1  0  0  0  0
 25 27  1  0  0  0  0
M  CHG  1  15   1
M  END
$$$$
default_name
  -OEChem-01062215323D

 30 30  0     1  0  0  0  0  0999 V2000
   -3.5507   -3.2183    1.8116 H   0  0  0  0  0  0  0  0  0  0  0  0
   -3.4597   -2.3913    1.1076 C   0  0  0  0  0  0  0  0  0  0  0  0
   -4.1577   -1.6043    1.3866 H   0  0  0  0  0  0  0  0  0  0  0  0
   -3.6807   -2.7523    0.1036 H   0  0  0  0  0  0  0  0  0  0  0  0
   -2.0477   -1.8543    1.1546 C   0  0  0  0  0  0  0  0  0  0  0  0
   -1.2227   -2.3443    1.9146 O   0  0  0  0  0  0  0  0  0  0  0  0
   -1.7517   -0.8483    0.3266 N   0  0  0  0  0  0  0  0  0  0  0  0
   -2.4847   -0.5123   -0.2804 H   0  0  0  0  0  0  0  0  0  0  0  0
   -0.4117   -0.2463    0.2186 C   0  0  1  0  0  0  0  0  0  0  0  0
    0.3262   -1.0521    0.2409 H   0  0  0  0  0  0  0  0  0  0  0  0
   -0.2916    0.4450   -1.1594 C   0  0  0  0  0  0  0  0  0  0  0  0
   -1.0834    1.1937   -1.2436 H   0  0  0  0  0  0  0  0  0  0  0  0
    0.6603    0.9782   -1.2072 H   0  0  0  0  0  0  0  0  0  0  0  0
   -0.3718   -0.4822   -2.3536 C   0  0  0  0  0  0  0  0  0  0  0  0
    0.6343   -1.3297   -2.7755 N   0  3  0  0  0  0  0  0  0  0  0  0
    1.5166   -1.4545   -2.2708 H   0  0  0  0  0  0  0  0  0  0  0  0
    0.2021   -1.9939   -3.8657 C   0  0  0  0  0  0  0  0  0  0  0  0
    0.7717   -2.7416   -4.4141 H   0  0  0  0  0  0  0  0  0  0  0  0
   -1.0562   -1.5855   -4.1456 N   0  0  0  0  0  0  0  0  0  0  0  0
   -1.6350   -1.9180   -4.9124 H   0  0  0  0  0  0  0  0  0  0  0  0
   -1.4320   -0.6359   -3.2056 C   0  0  0  0  0  0  0  0  0  0  0  0
   -2.3815   -0.1110   -3.1479 H   0  0  0  0  0  0  0  0  0  0  0  0
   -0.1047    0.6593    1.4246 C   0  0  0  0  0  0  0  0  0  0  0  0
   -0.6078    0.4291    2.5253 O   0  0  0  0  0  0  0  0  0  0  0  0
    0.7134    1.6948    1.1996 N   0  0  0  0  0  0  0  0  0  0  0  0
    1.0872    1.7985    0.2685 H   0  0  0  0  0  0  0  0  0  0  0  0
    1.1079    2.6936    2.1977 C   0  0  0  0  0  0  0  0  0  0  0  0
    2.1091    2.4732    2.5732 H   0  0  0  0  0  0  0  0  0  0  0  0
    1.1167    3.6875    1.7468 H   0  0  0  0  0  0  0  0  0  0  0  0
    0.4112    2.7000    3.0386 H   0  0  0  0  0  0  0  0  0  0  0  0
  5  6  2  0  0  0  0
  5  7  1  0  0  0  0
  2  3  1  0  0  0  0
  2  4  1  0  0  0  0
  2  5  1  0  0  0  0
  1  2  1  0  0  0  0
 23 24  2  0  0  0  0
 23 25  1  0  0  0  0
 21 22  1  0  0  0  0
 19 20  1  0  0  0  0
 19 21  1  0  0  0  0
 17 18  1  0  0  0  0
 17 19  1  0  0  0  0
 15 16  1  0  0  0  0
 15 17  2  0  0  0  0
 14 15  1  0  0  0  0
 14 21  2  0  0  0  0
 11 12  1  0  0  0  0
 11 13  1  0  0  0  0
 11 14  1  0  0  0  0
  9 10  1  0  0  0  0
  9 11  1  0  0  0  0
  9 23  1  0  0  0  0
  7  8  1  0  0  0  0
  7  9  1  0  0  0  0
 27 28  1  0  0  0  0
 27 29  1  0  0  0  0
 27 30  1  0  0  0  0
 25 26  1  0  0  0  0
 25 27  1  0  0  0  0
M  CHG  1  15   1
M  END
$$$$
default_name
  -OEChem-01062215323D

 30 30  0     1  0  0  0  0  0999 V2000
   -3.5507   -3.2183    1.8116 H   0  0  0  0  0  0  0  0  0  0  0  0
   -3.4597   -2.3913    1.1076 C   0  0  0  0  0  0  0  0  0  0  0  0
   -4.1577   -1.6043    1.3866 H   0  0  0  0  0  0  0  0  0  0  0  0
   -3.6807   -2.7523    0.1036 H   0  0  0  0  0  0  0  0  0  0  0  0
   -2.0477   -1.8543    1.1546 C   0  0  0  0  0  0  0  0  0  0  0  0
   -1.2227   -2.3443    1.9146 O   0  0  0  0  0  0  0  0  0  0  0  0
   -1.7517   -0.8483    0.3266 N   0  0  0  0  0  0  0  0  0  0  0  0
   -2.4847   -0.5123   -0.2804 H   0  0  0  0  0  0  0  0  0  0  0  0
   -0.4117   -0.2463    0.2186 C   0  0  1  0  0  0  0  0  0  0  0  0
    0.3262   -1.0521    0.2409 H   0  0  0  0  0  0  0  0  0  0  0  0
   -0.2916    0.4450   -1.1594 C   0  0  0  0  0  0  0  0  0  0  0  0
   -1.0834    1.1937   -1.2436 H   0  0  0  0  0  0  0  0  0  0  0  0
    0.6603    0.9782   -1.2072 H   0  0  0  0  0  0  0  0  0  0  0  0
   -0.3718   -0.4822   -2.3536 C   0  0  0  0  0  0  0  0  0  0  0  0
    0.6343   -1.3297   -2.7755 N   0  3  0  0  0  0  0  0  0  0  0  0
    1.5166   -1.4545   -2.2708 H   0  0  0  0  0  0  0  0  0  0  0  0
    0.2021   -1.9939   -3.8657 C   0  0  0  0  0  0  0  0  0  0  0  0
    0.7717   -2.7416   -4.4141 H   0  0  0  0  0  0  0  0  0  0  0  0
   -1.0562   -1.5855   -4.1456 N   0  0  0  0  0  0  0  0  0  0  0  0
   -1.6350   -1.9180   -4.9124 H   0  0  0  0  0  0  0  0  0  0  0  0
   -1.4320   -0.6359   -3.2056 C   0  0  0  0  0  0  0  0  0  0  0  0
   -2.3815   -0.1110   -3.1479 H   0  0  0  0  0  0  0  0  0  0  0  0
   -0.1047    0.6593    1.4246 C   0  0  0  0  0  0  0  0  0  0  0  0
   -0.3721    0.2907    2.5693 O   0  0  0  0  0  0  0  0  0  0  0  0
    0.4453    1.8490    1.1521 N   0  0  0  0  0  0  0  0  0  0  0  0
    0.6395    2.0611    0.1853 H   0  0  0  0  0  0  0  0  0  0  0  0
    0.7856    2.8713    2.1463 C   0  0  0  0  0  0  0  0  0  0  0  0
    1.8571    2.8494    2.3549 H   0  0  0  0  0  0  0  0  0  0  0  0
    0.5255    3.8610    1.7669 H   0  0  0  0  0  0  0  0  0  0  0  0
    0.2430    2.7032    3.0790 H   0  0  0  0  0  0  0  0  0  0  0  0
  5  6  2  0  0  0  0
  5  7  1  0  0  0  0
  2  3  1  0  0  0  0
  2  4  1  0  0  0  0
  2  5  1  0  0  0  0
  1  2  1  0  0  0  0
 23 24  2  0  0  0  0
 23 25  1  0  0  0  0
 21 22  1  0  0  0  0
 19 20  1  0  0  0  0
 19 21  1  0  0  0  0
 17 18  1  0  0  0  0
 17 19  1  0  0  0  0
 15 16  1  0  0  0  0
 15 17  2  0  0  0  0
 14 15  1  0  0  0  0
 14 21  2  0  0  0  0
 11 12  1  0  0  0  0
 11 13  1  0  0  0  0
 11 14  1  0  0  0  0
  9 10  1  0  0  0  0
  9 11  1  0  0  0  0
  9 23  1  0  0  0  0
  7  8  1  0  0  0  0
  7  9  1  0  0  0  0
 27 28  1  0  0  0  0
 27 29  1  0  0  0  0
 27 30  1  0  0  0  0
 25 26  1  0  0  0  0
 25 27  1  0  0  0  0
M  CHG  1  15   1
M  END
$$$$
default_name
  -OEChem-01062215323D

 30 30  0     1  0  0  0  0  0999 V2000
   -3.5507   -3.2183    1.8116 H   0  0  0  0  0  0  0  0  0  0  0  0
   -3.4597   -2.3913    1.1076 C   0  0  0  0  0  0  0  0  0  0  0  0
   -4.1577   -1.6043    1.3866 H   0  0  0  0  0  0  0  0  0  0  0  0
   -3.6807   -2.7523    0.1036 H   0  0  0  0  0  0  0  0  0  0  0  0
   -2.0477   -1.8543    1.1546 C   0  0  0  0  0  0  0  0  0  0  0  0
   -1.2227   -2.3443    1.9146 O   0  0  0  0  0  0  0  0  0  0  0  0
   -1.7517   -0.8483    0.3266 N   0  0  0  0  0  0  0  0  0  0  0  0
   -2.4847   -0.5123   -0.2804 H   0  0  0  0  0  0  0  0  0  0  0  0
   -0.4117   -0.2463    0.2186 C   0  0  1  0  0  0  0  0  0  0  0  0
    0.3262   -1.0521    0.2409 H   0  0  0  0  0  0  0  0  0  0  0  0
   -0.2916    0.4450   -1.1594 C   0  0  0  0  0  0  0  0  0  0  0  0
   -1.0834    1.1937   -1.2436 H   0  0  0  0  0  0  0  0  0  0  0  0
    0.6603    0.9782   -1.2072 H   0  0  0  0  0  0  0  0  0  0  0  0
   -0.3718   -0.4822   -2.3536 C   0  0  0  0  0  0  0  0  0  0  0  0
    0.6343   -1.3297   -2.7755 N   0  3  0  0  0  0  0  0  0  0  0  0
    1.5166   -1.4545   -2.2708 H   0  0  0  0  0  0  0  0  0  0  0  0
    0.2021   -1.9939   -3.8657 C   0  0  0  0  0  0  0  0  0  0  0  0
    0.7717   -2.7416   -4.4141 H   0  0  0  0  0  0  0  0  0  0  0  0
   -1.0562   -1.5855   -4.1456 N   0  0  0  0  0  0  0  0  0  0  0  0
   -1.6350   -1.9180   -4.9124 H   0  0  0  0  0  0  0  0  0  0  0  0
   -1.4320   -0.6359   -3.2056 C   0  0  0  0  0  0  0  0  0  0  0  0
   -2.3815   -0.1110   -3.1479 H   0  0  0  0  0  0  0  0  0  0  0  0
   -0.1047    0.6593    1.4246 C   0  0  0  0  0  0  0  0  0  0  0  0
   -0.1096    0.2025    2.5687 O   0  0  0  0  0  0  0  0  0  0  0  0
    0.1478    1.9460    1.1549 N   0  0  0  0  0  0  0  0  0  0  0  0
    0.1411    2.2283    0.1866 H   0  0  0  0  0  0  0  0  0  0  0  0
    0.4305    2.9802    2.1549 C   0  0  0  0  0  0  0  0  0  0  0  0
    1.5042    3.1729    2.2018 H   0  0  0  0  0  0  0  0  0  0  0  0
   -0.0777    3.9077    1.8854 H   0  0  0  0  0  0  0  0  0  0  0  0
    0.0861    2.6702    3.1437 H   0  0  0  0  0  0  0  0  0  0  0  0
  5  6  2  0  0  0  0
  5  7  1  0  0  0  0
  2  3  1  0  0  0  0
  2  4  1  0  0  0  0
  2  5  1  0  0  0  0
  1  2  1  0  0  0  0
 23 24  2  0  0  0  0
 23 25  1  0  0  0  0
 21 22  1  0  0  0  0
 19 20  1  0  0  0  0
 19 21  1  0  0  0  0
 17 18  1  0  0  0  0
 17 19  1  0  0  0  0
 15 16  1  0  0  0  0
 15 17  2  0  0  0  0
 14 15  1  0  0  0  0
 14 21  2  0  0  0  0
 11 12  1  0  0  0  0
 11 13  1  0  0  0  0
 11 14  1  0  0  0  0
  9 10  1  0  0  0  0
  9 11  1  0  0  0  0
  9 23  1  0  0  0  0
  7  8  1  0  0  0  0
  7  9  1  0  0  0  0
 27 28  1  0  0  0  0
 27 29  1  0  0  0  0
 27 30  1  0  0  0  0
 25 26  1  0  0  0  0
 25 27  1  0  0  0  0
M  CHG  1  15   1
M  END
$$$$
default_name
  -OEChem-01062215323D

 30 30  0     1  0  0  0  0  0999 V2000
   -3.5507   -3.2183    1.8116 H   0  0  0  0  0  0  0  0  0  0  0  0
   -3.4597   -2.3913    1.1076 C   0  0  0  0  0  0  0  0  0  0  0  0
   -4.1577   -1.6043    1.3866 H   0  0  0  0  0  0  0  0  0  0  0  0
   -3.6807   -2.7523    0.1036 H   0  0  0  0  0  0  0  0  0  0  0  0
   -2.0477   -1.8543    1.1546 C   0  0  0  0  0  0  0  0  0  0  0  0
   -1.2227   -2.3443    1.9146 O   0  0  0  0  0  0  0  0  0  0  0  0
   -1.7517   -0.8483    0.3266 N   0  0  0  0  0  0  0  0  0  0  0  0
   -2.4847   -0.5123   -0.2804 H   0  0  0  0  0  0  0  0  0  0  0  0
   -0.4117   -0.2463    0.2186 C   0  0  1  0  0  0  0  0  0  0  0  0
    0.3262   -1.0521    0.2409 H   0  0  0  0  0  0  0  0  0  0  0  0
   -0.2916    0.4450   -1.1594 C   0  0  0  0  0  0  0  0  0  0  0  0
   -1.0834    1.1937   -1.2436 H   0  0  0  0  0  0  0  0  0  0  0  0
    0.6603    0.9782   -1.2072 H   0  0  0  0  0  0  0  0  0  0  0  0
   -0.3718   -0.4822   -2.3536 C   0  0  0  0  0  0  0  0  0  0  0  0
    0.6343   -1.3297   -2.7755 N   0  3  0  0  0  0  0  0  0  0  0  0
    1.5166   -1.4545   -2.2708 H   0  0  0  0  0  0  0  0  0  0  0  0
    0.2021   -1.9939   -3.8657 C   0  0  0  0  0  0  0  0  0  0  0  0
    0.7717   -2.7416   -4.4141 H   0  0  0  0  0  0  0  0  0  0  0  0
   -1.0562   -1.5855   -4.1456 N   0  0  0  0  0  0  0  0  0  0  0  0
   -1.6350   -1.9180   -4.9124 H   0  0  0  0  0  0  0  0  0  0  0  0
   -1.4320   -0.6359   -3.2056 C   0  0  0  0  0  0  0  0  0  0  0  0
   -2.3815   -0.1110   -3.1479 H   0  0  0  0  0  0  0  0  0  0  0  0
   -0.1047    0.6593    1.4246 C   0  0  0  0  0  0  0  0  0  0  0  0
    0.1617    0.1705    2.5236 O   0  0  0  0  0  0  0  0  0  0  0  0
   -0.1587    1.9793    1.2080 N   0  0  0  0  0  0  0  0  0  0  0  0
   -0.3740    2.2887    0.2724 H   0  0  0  0  0  0  0  0  0  0  0  0
    0.0667    3.0130    2.2229 C   0  0  0  0  0  0  0  0  0  0  0  0
    1.0743    3.4217    2.1244 H   0  0  0  0  0  0  0  0  0  0  0  0
   -0.6517    3.8244    2.0941 H   0  0  0  0  0  0  0  0  0  0  0  0
   -0.0490    2.6031    3.2285 H   0  0  0  0  0  0  0  0  0  0  0  0
  5  6  2  0  0  0  0
  5  7  1  0  0  0  0
  2  3  1  0  0  0  0
  2  4  1  0  0  0  0
  2  5  1  0  0  0  0
  1  2  1  0  0  0  0
 23 24  2  0  0  0  0
 23 25  1  0  0  0  0
 21 22  1  0  0  0  0
 19 20  1  0  0  0  0
 19 21  1  0  0  0  0
 17 18  1  0  0  0  0
 17 19  1  0  0  0  0
 15 16  1  0  0  0  0
 15 17  2  0  0  0  0
 14 15  1  0  0  0  0
 14 21  2  0  0  0  0
 11 12  1  0  0  0  0
 11 13  1  0  0  0  0
 11 14  1  0  0  0  0
  9 10  1  0  0  0  0
  9 11  1  0  0  0  0
  9 23  1  0  0  0  0
  7  8  1  0  0  0  0
  7  9  1  0  0  0  0
 27 28  1  0  0  0  0
 27 29  1  0  0  0  0
 27 30  1  0  0  0  0
 25 26  1  0  0  0  0
 25 27  1  0  0  0  0
M  CHG  1  15   1
M  END
$$$$
default_name
  -OEChem-01062215323D

 30 30  0     1  0  0  0  0  0999 V2000
   -3.5507   -3.2183    1.8116 H   0  0  0  0  0  0  0  0  0  0  0  0
   -3.4597   -2.3913    1.1076 C   0  0  0  0  0  0  0  0  0  0  0  0
   -4.1577   -1.6043    1.3866 H   0  0  0  0  0  0  0  0  0  0  0  0
   -3.6807   -2.7523    0.1036 H   0  0  0  0  0  0  0  0  0  0  0  0
   -2.0477   -1.8543    1.1546 C   0  0  0  0  0  0  0  0  0  0  0  0
   -1.2227   -2.3443    1.9146 O   0  0  0  0  0  0  0  0  0  0  0  0
   -1.7517   -0.8483    0.3266 N   0  0  0  0  0  0  0  0  0  0  0  0
   -2.4847   -0.5123   -0.2804 H   0  0  0  0  0  0  0  0  0  0  0  0
   -0.4117   -0.2463    0.2186 C   0  0  1  0  0  0  0  0  0  0  0  0
    0.3262   -1.0521    0.2409 H   0  0  0  0  0  0  0  0  0  0  0  0
   -0.2916    0.4450   -1.1594 C   0  0  0  0  0  0  0  0  0  0  0  0
   -1.0834    1.1937   -1.2436 H   0  0  0  0  0  0  0  0  0  0  0  0
    0.6603    0.9782   -1.2072 H   0  0  0  0  0  0  0  0  0  0  0  0
   -0.3718   -0.4822   -2.3536 C   0  0  0  0  0  0  0  0  0  0  0  0
    0.6343   -1.3297   -2.7755 N   0  3  0  0  0  0  0  0  0  0  0  0
    1.5166   -1.4545   -2.2708 H   0  0  0  0  0  0  0  0  0  0  0  0
    0.2021   -1.9939   -3.8657 C   0  0  0  0  0  0  0  0  0  0  0  0
    0.7717   -2.7416   -4.4141 H   0  0  0  0  0  0  0  0  0  0  0  0
   -1.0562   -1.5855   -4.1456 N   0  0  0  0  0  0  0  0  0  0  0  0
   -1.6350   -1.9180   -4.9124 H   0  0  0  0  0  0  0  0  0  0  0  0
   -1.4320   -0.6359   -3.2056 C   0  0  0  0  0  0  0  0  0  0  0  0
   -2.3815   -0.1110   -3.1479 H   0  0  0  0  0  0  0  0  0  0  0  0
   -0.1047    0.6593    1.4246 C   0  0  0  0  0  0  0  0  0  0  0  0
    0.4234    0.1970    2.4371 O   0  0  0  0  0  0  0  0  0  0  0  0
   -0.4535    1.9465    1.3077 N   0  0  0  0  0  0  0  0  0  0  0  0
   -0.8707    2.2381    0.4368 H   0  0  0  0  0  0  0  0  0  0  0  0
   -0.2810    2.9673    2.3457 C   0  0  0  0  0  0  0  0  0  0  0  0
    0.5969    3.5789    2.1279 H   0  0  0  0  0  0  0  0  0  0  0  0
   -1.1575    3.6167    2.3788 H   0  0  0  0  0  0  0  0  0  0  0  0
   -0.1529    2.5065    3.3275 H   0  0  0  0  0  0  0  0  0  0  0  0
  5  6  2  0  0  0  0
  5  7  1  0  0  0  0
  2  3  1  0  0  0  0
  2  4  1  0  0  0  0
  2  5  1  0  0  0  0
  1  2  1  0  0  0  0
 23 24  2  0  0  0  0
 23 25  1  0  0  0  0
 21 22  1  0  0  0  0
 19 20  1  0  0  0  0
 19 21  1  0  0  0  0
 17 18  1  0  0  0  0
 17 19  1  0  0  0  0
 15 16  1  0  0  0  0
 15 17  2  0  0  0  0
 14 15  1  0  0  0  0
 14 21  2  0  0  0  0
 11 12  1  0  0  0  0
 11 13  1  0  0  0  0
 11 14  1  0  0  0  0
  9 10  1  0  0  0  0
  9 11  1  0  0  0  0
  9 23  1  0  0  0  0
  7  8  1  0  0  0  0
  7  9  1  0  0  0  0
 27 28  1  0  0  0  0
 27 29  1  0  0  0  0
 27 30  1  0  0  0  0
 25 26  1  0  0  0  0
 25 27  1  0  0  0  0
M  CHG  1  15   1
M  END
$$$$
default_name
  -OEChem-01062215323D

 30 30  0     1  0  0  0  0  0999 V2000
   -3.5507   -3.2183    1.8116 H   0  0  0  0  0  0  0  0  0  0  0  0
   -3.4597   -2.3913    1.1076 C   0  0  0  0  0  0  0  0  0  0  0  0
   -4.1577   -1.6043    1.3866 H   0  0  0  0  0  0  0  0  0  0  0  0
   -3.6807   -2.7523    0.1036 H   0  0  0  0  0  0  0  0  0  0  0  0
   -2.0477   -1.8543    1.1546 C   0  0  0  0  0  0  0  0  0  0  0  0
   -1.2227   -2.3443    1.9146 O   0  0  0  0  0  0  0  0  0  0  0  0
   -1.7517   -0.8483    0.3266 N   0  0  0  0  0  0  0  0  0  0  0  0
   -2.4847   -0.5123   -0.2804 H   0  0  0  0  0  0  0  0  0  0  0  0
   -0.4117   -0.2463    0.2186 C   0  0  1  0  0  0  0  0  0  0  0  0
    0.3262   -1.0521    0.2409 H   0  0  0  0  0  0  0  0  0  0  0  0
   -0.2916    0.4450   -1.1594 C   0  0  0  0  0  0  0  0  0  0  0  0
   -1.0834    1.1937   -1.2436 H   0  0  0  0  0  0  0  0  0  0  0  0
    0.6603    0.9782   -1.2072 H   0  0  0  0  0  0  0  0  0  0  0  0
   -0.3718   -0.4822   -2.3536 C   0  0  0  0  0  0  0  0  0  0  0  0
    0.6343   -1.3297   -2.7755 N   0  3  0  0  0  0  0  0  0  0  0  0
    1.5166   -1.4545   -2.2708 H   0  0  0  0  0  0  0  0  0  0  0  0
    0.2021   -1.9939   -3.8657 C   0  0  0  0  0  0  0  0  0  0  0  0
    0.7717   -2.7416   -4.4141 H   0  0  0  0  0  0  0  0  0  0  0  0
   -1.0562   -1.5855   -4.1456 N   0  0  0  0  0  0  0  0  0  0  0  0
   -1.6350   -1.9180   -4.9124 H   0  0  0  0  0  0  0  0  0  0  0  0
   -1.4320   -0.6359   -3.2056 C   0  0  0  0  0  0  0  0  0  0  0  0
   -2.3815   -0.1110   -3.1479 H   0  0  0  0  0  0  0  0  0  0  0  0
   -0.1047    0.6593    1.4246 C   0  0  0  0  0  0  0  0  0  0  0  0
    0.6576    0.2802    2.3151 O   0  0  0  0  0  0  0  0  0  0  0  0
   -0.7164    1.8499    1.4471 N   0  0  0  0  0  0  0  0  0  0  0  0
   -1.3152    2.0800    0.6687 H   0  0  0  0  0  0  0  0  0  0  0  0
   -0.5889    2.8463    2.5149 C   0  0  0  0  0  0  0  0  0  0  0  0
    0.1044    3.6336    2.2121 H   0  0  0  0  0  0  0  0  0  0  0  0
   -1.5606    3.2989    2.7201 H   0  0  0  0  0  0  0  0  0  0  0  0
   -0.2186    2.3871    3.4339 H   0  0  0  0  0  0  0  0  0  0  0  0
  5  6  2  0  0  0  0
  5  7  1  0  0  0  0
  2  3  1  0  0  0  0
  2  4  1  0  0  0  0
  2  5  1  0  0  0  0
  1  2  1  0  0  0  0
 23 24  2  0  0  0  0
 23 25  1  0  0  0  0
 21 22  1  0  0  0  0
 19 20  1  0  0  0  0
 19 21  1  0  0  0  0
 17 18  1  0  0  0  0
 17 19  1  0  0  0  0
 15 16  1  0  0  0  0
 15 17  2  0  0  0  0
 14 15  1  0  0  0  0
 14 21  2  0  0  0  0
 11 12  1  0  0  0  0
 11 13  1  0  0  0  0
 11 14  1  0  0  0  0
  9 10  1  0  0  0  0
  9 11  1  0  0  0  0
  9 23  1  0  0  0  0
  7  8  1  0  0  0  0
  7  9  1  0  0  0  0
 27 28  1  0  0  0  0
 27 29  1  0  0  0  0
 27 30  1  0  0  0  0
 25 26  1  0  0  0  0
 25 27  1  0  0  0  0
M  CHG  1  15   1
M  END
$$$$
default_name
  -OEChem-01062215323D

 30 30  0     1  0  0  0  0  0999 V2000
   -3.5507   -3.2183    1.8116 H   0  0  0  0  0  0  0  0  0  0  0  0
   -3.4597   -2.3913    1.1076 C   0  0  0  0  0  0  0  0  0  0  0  0
   -4.1577   -1.6043    1.3866 H   0  0  0  0  0  0  0  0  0  0  0  0
   -3.6807   -2.7523    0.1036 H   0  0  0  0  0  0  0  0  0  0  0  0
   -2.0477   -1.8543    1.1546 C   0  0  0  0  0  0  0  0  0  0  0  0
   -1.2227   -2.3443    1.9146 O   0  0  0  0  0  0  0  0  0  0  0  0
   -1.7517   -0.8483    0.3266 N   0  0  0  0  0  0  0  0  0  0  0  0
   -2.4847   -0.5123   -0.2804 H   0  0  0  0  0  0  0  0  0  0  0  0
   -0.4117   -0.2463    0.2186 C   0  0  1  0  0  0  0  0  0  0  0  0
    0.3262   -1.0521    0.2409 H   0  0  0  0  0  0  0  0  0  0  0  0
   -0.2916    0.4450   -1.1594 C   0  0  0  0  0  0  0  0  0  0  0  0
   -1.0834    1.1937   -1.2436 H   0  0  0  0  0  0  0  0  0  0  0  0
    0.6603    0.9782   -1.2072 H   0  0  0  0  0  0  0  0  0  0  0  0
   -0.3718   -0.4822   -2.3536 C   0  0  0  0  0  0  0  0  0  0  0  0
    0.6343   -1.3297   -2.7755 N   0  3  0  0  0  0  0  0  0  0  0  0
    1.5166   -1.4545   -2.2708 H   0  0  0  0  0  0  0  0  0  0  0  0
    0.2021   -1.9939   -3.8657 C   0  0  0  0  0  0  0  0  0  0  0  0
    0.7717   -2.7416   -4.4141 H   0  0  0  0  0  0  0  0  0  0  0  0
   -1.0562   -1.5855   -4.1456 N   0  0  0  0  0  0  0  0  0  0  0  0
   -1.6350   -1.9180   -4.9124 H   0  0  0  0  0  0  0  0  0  0  0  0
   -1.4320   -0.6359   -3.2056 C   0  0  0  0  0  0  0  0  0  0  0  0
   -2.3815   -0.1110   -3.1479 H   0  0  0  0  0  0  0  0  0  0  0  0
   -0.1047    0.6593    1.4246 C   0  0  0  0  0  0  0  0  0  0  0  0
    0.8484    0.4143    2.1658 O   0  0  0  0  0  0  0  0  0  0  0  0
   -0.9295    1.6960    1.6169 N   0  0  0  0  0  0  0  0  0  0  0  0
   -1.6771    1.8251    0.9522 H   0  0  0  0  0  0  0  0  0  0  0  0
   -0.8360    2.6583    2.7190 C   0  0  0  0  0  0  0  0  0  0  0  0
   -0.3697    3.5823    2.3713 H   0  0  0  0  0  0  0  0  0  0  0  0
   -1.8335    2.8924    3.0948 H   0  0  0  0  0  0  0  0  0  0  0  0
   -0.2417    2.2529    3.5406 H   0  0  0  0  0  0  0  0  0  0  0  0
  5  6  2  0  0  0  0
  5  7  1  0  0  0  0
  2  3  1  0  0  0  0
  2  4  1  0  0  0  0
  2  5  1  0  0  0  0
  1  2  1  0  0  0  0
 23 24  2  0  0  0  0
 23 25  1  0  0  0  0
 21 22  1  0  0  0  0
 19 20  1  0  0  0  0
 19 21  1  0  0  0  0
 17 18  1  0  0  0  0
 17 19  1  0  0  0  0
 15 16  1  0  0  0  0
 15 17  2  0  0  0  0
 14 15  1  0  0  0  0
 14 21  2  0  0  0  0
 11 12  1  0  0  0  0
 11 13  1  0  0  0  0
 11 14  1  0  0  0  0
  9 10  1  0  0  0  0
  9 11  1  0  0  0  0
  9 23  1  0  0  0  0
  7  8  1  0  0  0  0
  7  9  1  0  0  0  0
 27 28  1  0  0  0  0
 27 29  1  0  0  0  0
 27 30  1  0  0  0  0
 25 26  1  0  0  0  0
 25 27  1  0  0  0  0
M  CHG  1  15   1
M  END
$$$$
default_name
  -OEChem-01062215323D

 30 30  0     1  0  0  0  0  0999 V2000
   -3.5507   -3.2183    1.8116 H   0  0  0  0  0  0  0  0  0  0  0  0
   -3.4597   -2.3913    1.1076 C   0  0  0  0  0  0  0  0  0  0  0  0
   -4.1577   -1.6043    1.3866 H   0  0  0  0  0  0  0  0  0  0  0  0
   -3.6807   -2.7523    0.1036 H   0  0  0  0  0  0  0  0  0  0  0  0
   -2.0477   -1.8543    1.1546 C   0  0  0  0  0  0  0  0  0  0  0  0
   -1.2227   -2.3443    1.9146 O   0  0  0  0  0  0  0  0  0  0  0  0
   -1.7517   -0.8483    0.3266 N   0  0  0  0  0  0  0  0  0  0  0  0
   -2.4847   -0.5123   -0.2804 H   0  0  0  0  0  0  0  0  0  0  0  0
   -0.4117   -0.2463    0.2186 C   0  0  1  0  0  0  0  0  0  0  0  0
    0.3262   -1.0521    0.2409 H   0  0  0  0  0  0  0  0  0  0  0  0
   -0.2916    0.4450   -1.1594 C   0  0  0  0  0  0  0  0  0  0  0  0
   -1.0834    1.1937   -1.2436 H   0  0  0  0  0  0  0  0  0  0  0  0
    0.6603    0.9782   -1.2072 H   0  0  0  0  0  0  0  0  0  0  0  0
   -0.3718   -0.4822   -2.3536 C   0  0  0  0  0  0  0  0  0  0  0  0
    0.6343   -1.3297   -2.7755 N   0  3  0  0  0  0  0  0  0  0  0  0
    1.5166   -1.4545   -2.2708 H   0  0  0  0  0  0  0  0  0  0  0  0
    0.2021   -1.9939   -3.8657 C   0  0  0  0  0  0  0  0  0  0  0  0
    0.7717   -2.7416   -4.4141 H   0  0  0  0  0  0  0  0  0  0  0  0
   -1.0562   -1.5855   -4.1456 N   0  0  0  0  0  0  0  0  0  0  0  0
   -1.6350   -1.9180   -4.9124 H   0  0  0  0  0  0  0  0  0  0  0  0
   -1.4320   -0.6359   -3.2056 C   0  0  0  0  0  0  0  0  0  0  0  0
   -2.3815   -0.1110   -3.1479 H   0  0  0  0  0  0  0  0  0  0  0  0
   -0.1047    0.6593    1.4246 C   0  0  0  0  0  0  0  0  0  0  0  0
    0.9828    0.5902    1.9995 O   0  0  0  0  0  0  0  0  0  0  0  0
   -1.0783    1.4955    1.8054 N   0  0  0  0  0  0  0  0  0  0  0  0
   -1.9319    1.4909    1.2680 H   0  0  0  0  0  0  0  0  0  0  0  0
   -1.0054    2.4161    2.9440 C   0  0  0  0  0  0  0  0  0  0  0  0
   -0.7929    3.4284    2.5946 H   0  0  0  0  0  0  0  0  0  0  0  0
   -1.9577    2.4252    3.4772 H   0  0  0  0  0  0  0  0  0  0  0  0
   -0.2205    2.1130    3.6402 H   0  0  0  0  0  0  0  0  0  0  0  0
  5  6  2  0  0  0  0
  5  7  1  0  0  0  0
  2  3  1  0  0  0  0
  2  4  1  0  0  0  0
  2  5  1  0  0  0  0
  1  2  1  0  0  0  0
 23 24  2  0  0  0  0
 23 25  1  0  0  0  0
 21 22  1  0  0  0  0
 19 20  1  0  0  0  0
 19 21  1  0  0  0  0
 17 18  1  0  0  0  0
 17 19  1  0  0  0  0
 15 16  1  0  0  0  0
 15 17  2  0  0  0  0
 14 15  1  0  0  0  0
 14 21  2  0  0  0  0
 11 12  1  0  0  0  0
 11 13  1  0  0  0  0
 11 14  1  0  0  0  0
  9 10  1  0  0  0  0
  9 11  1  0  0  0  0
  9 23  1  0  0  0  0
  7  8  1  0  0  0  0
  7  9  1  0  0  0  0
 27 28  1  0  0  0  0
 27 29  1  0  0  0  0
 27 30  1  0  0  0  0
 25 26  1  0  0  0  0
 25 27  1  0  0  0  0
M  CHG  1  15   1
M  END
$$$$
default_name
  -OEChem-01062215323D

 30 30  0     1  0  0  0  0  0999 V2000
   -3.5507   -3.2183    1.8116 H   0  0  0  0  0  0  0  0  0  0  0  0
   -3.4597   -2.3913    1.1076 C   0  0  0  0  0  0  0  0  0  0  0  0
   -4.1577   -1.6043    1.3866 H   0  0  0  0  0  0  0  0  0  0  0  0
   -3.6807   -2.7523    0.1036 H   0  0  0  0  0  0  0  0  0  0  0  0
   -2.0477   -1.8543    1.1546 C   0  0  0  0  0  0  0  0  0  0  0  0
   -1.2227   -2.3443    1.9146 O   0  0  0  0  0  0  0  0  0  0  0  0
   -1.7517   -0.8483    0.3266 N   0  0  0  0  0  0  0  0  0  0  0  0
   -2.4847   -0.5123   -0.2804 H   0  0  0  0  0  0  0  0  0  0  0  0
   -0.4117   -0.2463    0.2186 C   0  0  1  0  0  0  0  0  0  0  0  0
    0.3262   -1.0521    0.2409 H   0  0  0  0  0  0  0  0  0  0  0  0
   -0.2916    0.4450   -1.1594 C   0  0  0  0  0  0  0  0  0  0  0  0
   -1.0834    1.1937   -1.2436 H   0  0  0  0  0  0  0  0  0  0  0  0
    0.6603    0.9782   -1.2072 H   0  0  0  0  0  0  0  0  0  0  0  0
   -0.3718   -0.4822   -2.3536 C   0  0  0  0  0  0  0  0  0  0  0  0
    0.6343   -1.3297   -2.7755 N   0  3  0  0  0  0  0  0  0  0  0  0
    1.5166   -1.4545   -2.2708 H   0  0  0  0  0  0  0  0  0  0  0  0
    0.2021   -1.9939   -3.8657 C   0  0  0  0  0  0  0  0  0  0  0  0
    0.7717   -2.7416   -4.4141 H   0  0  0  0  0  0  0  0  0  0  0  0
   -1.0562   -1.5855   -4.1456 N   0  0  0  0  0  0  0  0  0  0  0  0
   -1.6350   -1.9180   -4.9124 H   0  0  0  0  0  0  0  0  0  0  0  0
   -1.4320   -0.6359   -3.2056 C   0  0  0  0  0  0  0  0  0  0  0  0
   -2.3815   -0.1110   -3.1479 H   0  0  0  0  0  0  0  0  0  0  0  0
   -0.1047    0.6593    1.4246 C   0  0  0  0  0  0  0  0  0  0  0  0
    1.0515    0.7960    1.8275 O   0  0  0  0  0  0  0  0  0  0  0  0
   -1.1527    1.2618    1.9998 N   0  0  0  0  0  0  0  0  0  0  0  0
   -2.0621    1.1002    1.5946 H   0  0  0  0  0  0  0  0  0  0  0  0
   -1.0857    2.1361    3.1747 C   0  0  0  0  0  0  0  0  0  0  0  0
   -1.1364    3.1824    2.8668 H   0  0  0  0  0  0  0  0  0  0  0  0
   -1.9246    1.9289    3.8415 H   0  0  0  0  0  0  0  0  0  0  0  0
   -0.1565    1.9771    3.7259 H   0  0  0  0  0  0  0  0  0  0  0  0
  5  6  2  0  0  0  0
  5  7  1  0  0  0  0
  2  3  1  0  0  0  0
  2  4  1  0  0  0  0
  2  5  1  0  0  0  0
  1  2  1  0  0  0  0
 23 24  2  0  0  0  0
 23 25  1  0  0  0  0
 21 22  1  0  0  0  0
 19 20  1  0  0  0  0
 19 21  1  0  0  0  0
 17 18  1  0  0  0  0
 17 19  1  0  0  0  0
 15 16  1  0  0  0  0
 15 17  2  0  0  0  0
 14 15  1  0  0  0  0
 14 21  2  0  0  0  0
 11 12  1  0  0  0  0
 11 13  1  0  0  0  0
 11 14  1  0  0  0  0
  9 10  1  0  0  0  0
  9 11  1  0  0  0  0
  9 23  1  0  0  0  0
  7  8  1  0  0  0  0
  7  9  1  0  0  0  0
 27 28  1  0  0  0  0
 27 29  1  0  0  0  0
 27 30  1  0  0  0  0
 25 26  1  0  0  0  0
 25 27  1  0  0  0  0
M  CHG  1  15   1
M  END
$$$$
default_name
  -OEChem-01062215323D

 30 30  0     1  0  0  0  0  0999 V2000
   -3.5507   -3.2183    1.8116 H   0  0  0  0  0  0  0  0  0  0  0  0
   -3.4597   -2.3913    1.1076 C   0  0  0  0  0  0  0  0  0  0  0  0
   -4.1577   -1.6043    1.3866 H   0  0  0  0  0  0  0  0  0  0  0  0
   -3.6807   -2.7523    0.1036 H   0  0  0  0  0  0  0  0  0  0  0  0
   -2.0477   -1.8543    1.1546 C   0  0  0  0  0  0  0  0  0  0  0  0
   -1.2227   -2.3443    1.9146 O   0  0  0  0  0  0  0  0  0  0  0  0
   -1.7517   -0.8483    0.3266 N   0  0  0  0  0  0  0  0  0  0  0  0
   -2.4847   -0.5123   -0.2804 H   0  0  0  0  0  0  0  0  0  0  0  0
   -0.4117   -0.2463    0.2186 C   0  0  1  0  0  0  0  0  0  0  0  0
    0.3262   -1.0521    0.2409 H   0  0  0  0  0  0  0  0  0  0  0  0
   -0.2916    0.4450   -1.1594 C   0  0  0  0  0  0  0  0  0  0  0  0
   -1.0834    1.1937   -1.2436 H   0  0  0  0  0  0  0  0  0  0  0  0
    0.6603    0.9782   -1.2072 H   0  0  0  0  0  0  0  0  0  0  0  0
   -0.3718   -0.4822   -2.3536 C   0  0  0  0  0  0  0  0  0  0  0  0
    0.6343   -1.3297   -2.7755 N   0  3  0  0  0  0  0  0  0  0  0  0
    1.5166   -1.4545   -2.2708 H   0  0  0  0  0  0  0  0  0  0  0  0
    0.2021   -1.9939   -3.8657 C   0  0  0  0  0  0  0  0  0  0  0  0
    0.7717   -2.7416   -4.4141 H   0  0  0  0  0  0  0  0  0  0  0  0
   -1.0562   -1.5855   -4.1456 N   0  0  0  0  0  0  0  0  0  0  0  0
   -1.6350   -1.9180   -4.9124 H   0  0  0  0  0  0  0  0  0  0  0  0
   -1.4320   -0.6359   -3.2056 C   0  0  0  0  0  0  0  0  0  0  0  0
   -2.3815   -0.1110   -3.1479 H   0  0  0  0  0  0  0  0  0  0  0  0
   -0.1047    0.6593    1.4246 C   0  0  0  0  0  0  0  0  0  0  0  0
    1.0500    1.0176    1.6614 O   0  0  0  0  0  0  0  0  0  0  0  0
   -1.1475    1.0110    2.1868 N   0  0  0  0  0  0  0  0  0  0  0  0
   -2.0589    0.6794    1.9097 H   0  0  0  0  0  0  0  0  0  0  0  0
   -1.0714    1.8375    3.3953 C   0  0  0  0  0  0  0  0  0  0  0  0
   -1.3770    2.8610    3.1694 H   0  0  0  0  0  0  0  0  0  0  0  0
   -1.7365    1.4375    4.1626 H   0  0  0  0  0  0  0  0  0  0  0  0
   -0.0541    1.8544    3.7920 H   0  0  0  0  0  0  0  0  0  0  0  0
  5  6  2  0  0  0  0
  5  7  1  0  0  0  0
  2  3  1  0  0  0  0
  2  4  1  0  0  0  0
  2  5  1  0  0  0  0
  1  2  1  0  0  0  0
 23 24  2  0  0  0  0
 23 25  1  0  0  0  0
 21 22  1  0  0  0  0
 19 20  1  0  0  0  0
 19 21  1  0  0  0  0
 17 18  1  0  0  0  0
 17 19  1  0  0  0  0
 15 16  1  0  0  0  0
 15 17  2  0  0  0  0
 14 15  1  0  0  0  0
 14 21  2  0  0  0  0
 11 12  1  0  0  0  0
 11 13  1  0  0  0  0
 11 14  1  0  0  0  0
  9 10  1  0  0  0  0
  9 11  1  0  0  0  0
  9 23  1  0  0  0  0
  7  8  1  0  0  0  0
  7  9  1  0  0  0  0
 27 28  1  0  0  0  0
 27 29  1  0  0  0  0
 27 30  1  0  0  0  0
 25 26  1  0  0  0  0
 25 27  1  0  0  0  0
M  CHG  1  15   1
M  END
$$$$
default_name
  -OEChem-01062215323D

 30 30  0     1  0  0  0  0  0999 V2000
   -3.5507   -3.2183    1.8116 H   0  0  0  0  0  0  0  0  0  0  0  0
   -3.4597   -2.3913    1.1076 C   0  0  0  0  0  0  0  0  0  0  0  0
   -4.1577   -1.6043    1.3866 H   0  0  0  0  0  0  0  0  0  0  0  0
   -3.6807   -2.7523    0.1036 H   0  0  0  0  0  0  0  0  0  0  0  0
   -2.0477   -1.8543    1.1546 C   0  0  0  0  0  0  0  0  0  0  0  0
   -1.2227   -2.3443    1.9146 O   0  0  0  0  0  0  0  0  0  0  0  0
   -1.7517   -0.8483    0.3266 N   0  0  0  0  0  0  0  0  0  0  0  0
   -2.4847   -0.5123   -0.2804 H   0  0  0  0  0  0  0  0  0  0  0  0
   -0.4117   -0.2463    0.2186 C   0  0  1  0  0  0  0  0  0  0  0  0
    0.3262   -1.0521    0.2409 H   0  0  0  0  0  0  0  0  0  0  0  0
   -0.2916    0.4450   -1.1594 C   0  0  0  0  0  0  0  0  0  0  0  0
   -1.0834    1.1937   -1.2436 H   0  0  0  0  0  0  0  0  0  0  0  0
    0.6603    0.9782   -1.2072 H   0  0  0  0  0  0  0  0  0  0  0  0
   -0.3718   -0.4822   -2.3536 C   0  0  0  0  0  0  0  0  0  0  0  0
    0.6343   -1.3297   -2.7755 N   0  3  0  0  0  0  0  0  0  0  0  0
    1.5166   -1.4545   -2.2708 H   0  0  0  0  0  0  0  0  0  0  0  0
    0.2021   -1.9939   -3.8657 C   0  0  0  0  0  0  0  0  0  0  0  0
    0.7717   -2.7416   -4.4141 H   0  0  0  0  0  0  0  0  0  0  0  0
   -1.0562   -1.5855   -4.1456 N   0  0  0  0  0  0  0  0  0  0  0  0
   -1.6350   -1.9180   -4.9124 H   0  0  0  0  0  0  0  0  0  0  0  0
   -1.4320   -0.6359   -3.2056 C   0  0  0  0  0  0  0  0  0  0  0  0
   -2.3815   -0.1110   -3.1479 H   0  0  0  0  0  0  0  0  0  0  0  0
   -0.1047    0.6593    1.4246 C   0  0  0  0  0  0  0  0  0  0  0  0
    0.9784    1.2399    1.5127 O   0  0  0  0  0  0  0  0  0  0  0  0
   -1.0632    0.7601    2.3537 N   0  0  0  0  0  0  0  0  0  0  0  0
   -1.9225    0.2574    2.1919 H   0  0  0  0  0  0  0  0  0  0  0  0
   -0.9633    1.5405    3.5908 C   0  0  0  0  0  0  0  0  0  0  0  0
   -1.4980    2.4862    3.4817 H   0  0  0  0  0  0  0  0  0  0  0  0
   -1.4062    0.9844    4.4188 H   0  0  0  0  0  0  0  0  0  0  0  0
    0.0798    1.7532    3.8339 H   0  0  0  0  0  0  0  0  0  0  0  0
  5  6  2  0  0  0  0
  5  7  1  0  0  0  0
  2  3  1  0  0  0  0
  2  4  1  0  0  0  0
  2  5  1  0  0  0  0
  1  2  1  0  0  0  0
 23 24  2  0  0  0  0
 23 25  1  0  0  0  0
 21 22  1  0  0  0  0
 19 20  1  0  0  0  0
 19 21  1  0  0  0  0
 17 18  1  0  0  0  0
 17 19  1  0  0  0  0
 15 16  1  0  0  0  0
 15 17  2  0  0  0  0
 14 15  1  0  0  0  0
 14 21  2  0  0  0  0
 11 12  1  0  0  0  0
 11 13  1  0  0  0  0
 11 14  1  0  0  0  0
  9 10  1  0  0  0  0
  9 11  1  0  0  0  0
  9 23  1  0  0  0  0
  7  8  1  0  0  0  0
  7  9  1  0  0  0  0
 27 28  1  0  0  0  0
 27 29  1  0  0  0  0
 27 30  1  0  0  0  0
 25 26  1  0  0  0  0
 25 27  1  0  0  0  0
M  CHG  1  15   1
M  END
$$$$
default_name
  -OEChem-01062215323D

 30 30  0     1  0  0  0  0  0999 V2000
   -3.5507   -3.2183    1.8116 H   0  0  0  0  0  0  0  0  0  0  0  0
   -3.4597   -2.3913    1.1076 C   0  0  0  0  0  0  0  0  0  0  0  0
   -4.1577   -1.6043    1.3866 H   0  0  0  0  0  0  0  0  0  0  0  0
   -3.6807   -2.7523    0.1036 H   0  0  0  0  0  0  0  0  0  0  0  0
   -2.0477   -1.8543    1.1546 C   0  0  0  0  0  0  0  0  0  0  0  0
   -1.2227   -2.3443    1.9146 O   0  0  0  0  0  0  0  0  0  0  0  0
   -1.7517   -0.8483    0.3266 N   0  0  0  0  0  0  0  0  0  0  0  0
   -2.4847   -0.5123   -0.2804 H   0  0  0  0  0  0  0  0  0  0  0  0
   -0.4117   -0.2463    0.2186 C   0  0  1  0  0  0  0  0  0  0  0  0
    0.3262   -1.0521    0.2409 H   0  0  0  0  0  0  0  0  0  0  0  0
   -0.2916    0.4450   -1.1594 C   0  0  0  0  0  0  0  0  0  0  0  0
   -1.0834    1.1937   -1.2436 H   0  0  0  0  0  0  0  0  0  0  0  0
    0.6603    0.9782   -1.2072 H   0  0  0  0  0  0  0  0  0  0  0  0
   -0.3718   -0.4822   -2.3536 C   0  0  0  0  0  0  0  0  0  0  0  0
    0.6343   -1.3297   -2.7755 N   0  3  0  0  0  0  0  0  0  0  0  0
    1.5166   -1.4545   -2.2708 H   0  0  0  0  0  0  0  0  0  0  0  0
    0.2021   -1.9939   -3.8657 C   0  0  0  0  0  0  0  0  0  0  0  0
    0.7717   -2.7416   -4.4141 H   0  0  0  0  0  0  0  0  0  0  0  0
   -1.0562   -1.5855   -4.1456 N   0  0  0  0  0  0  0  0  0  0  0  0
   -1.6350   -1.9180   -4.9124 H   0  0  0  0  0  0  0  0  0  0  0  0
   -1.4320   -0.6359   -3.2056 C   0  0  0  0  0  0  0  0  0  0  0  0
   -2.3815   -0.1110   -3.1479 H   0  0  0  0  0  0  0  0  0  0  0  0
   -0.1047    0.6593    1.4246 C   0  0  0  0  0  0  0  0  0  0  0  0
    0.8414    1.4478    1.3915 O   0  0  0  0  0  0  0  0  0  0  0  0
   -0.9054    0.5263    2.4892 N   0  0  0  0  0  0  0  0  0  0  0  0
   -1.6622   -0.1371    2.4219 H   0  0  0  0  0  0  0  0  0  0  0  0
   -0.7690    1.2655    3.7478 C   0  0  0  0  0  0  0  0  0  0  0  0
   -1.4914    2.0835    3.7824 H   0  0  0  0  0  0  0  0  0  0  0  0
   -0.9563    0.6004    4.5926 H   0  0  0  0  0  0  0  0  0  0  0  0
    0.2361    1.6805    3.8487 H   0  0  0  0  0  0  0  0  0  0  0  0
  5  6  2  0  0  0  0
  5  7  1  0  0  0  0
  2  3  1  0  0  0  0
  2  4  1  0  0  0  0
  2  5  1  0  0  0  0
  1  2  1  0  0  0  0
 23 24  2  0  0  0  0
 23 25  1  0  0  0  0
 21 22  1  0  0  0  0
 19 20  1  0  0  0  0
 19 21  1  0  0  0  0
 17 18  1  0  0  0  0
 17 19  1  0  0  0  0
 15 16  1  0  0  0  0
 15 17  2  0  0  0  0
 14 15  1  0  0  0  0
 14 21  2  0  0  0  0
 11 12  1  0  0  0  0
 11 13  1  0  0  0  0
 11 14  1  0  0  0  0
  9 10  1  0  0  0  0
  9 11  1  0  0  0  0
  9 23  1  0  0  0  0
  7  8  1  0  0  0  0
  7  9  1  0  0  0  0
 27 28  1  0  0  0  0
 27 29  1  0  0  0  0
 27 30  1  0  0  0  0
 25 26  1  0  0  0  0
 25 27  1  0  0  0  0
M  CHG  1  15   1
M  END
$$$$
default_name
  -OEChem-01062215323D

 30 30  0     1  0  0  0  0  0999 V2000
   -3.5507   -3.2183    1.8116 H   0  0  0  0  0  0  0  0  0  0  0  0
   -3.4597   -2.3913    1.1076 C   0  0  0  0  0  0  0  0  0  0  0  0
   -4.1577   -1.6043    1.3866 H   0  0  0  0  0  0  0  0  0  0  0  0
   -3.6807   -2.7523    0.1036 H   0  0  0  0  0  0  0  0  0  0  0  0
   -2.0477   -1.8543    1.1546 C   0  0  0  0  0  0  0  0  0  0  0  0
   -1.2227   -2.3443    1.9146 O   0  0  0  0  0  0  0  0  0  0  0  0
   -1.7517   -0.8483    0.3266 N   0  0  0  0  0  0  0  0  0  0  0  0
   -2.4847   -0.5123   -0.2804 H   0  0  0  0  0  0  0  0  0  0  0  0
   -0.4117   -0.2463    0.2186 C   0  0  1  0  0  0  0  0  0  0  0  0
    0.3262   -1.0521    0.2409 H   0  0  0  0  0  0  0  0  0  0  0  0
   -0.2916    0.4450   -1.1594 C   0  0  0  0  0  0  0  0  0  0  0  0
   -1.0834    1.1937   -1.2436 H   0  0  0  0  0  0  0  0  0  0  0  0
    0.6603    0.9782   -1.2072 H   0  0  0  0  0  0  0  0  0  0  0  0
   -0.3718   -0.4822   -2.3536 C   0  0  0  0  0  0  0  0  0  0  0  0
    0.6343   -1.3297   -2.7755 N   0  3  0  0  0  0  0  0  0  0  0  0
    1.5166   -1.4545   -2.2708 H   0  0  0  0  0  0  0  0  0  0  0  0
    0.2021   -1.9939   -3.8657 C   0  0  0  0  0  0  0  0  0  0  0  0
    0.7717   -2.7416   -4.4141 H   0  0  0  0  0  0  0  0  0  0  0  0
   -1.0562   -1.5855   -4.1456 N   0  0  0  0  0  0  0  0  0  0  0  0
   -1.6350   -1.9180   -4.9124 H   0  0  0  0  0  0  0  0  0  0  0  0
   -1.4320   -0.6359   -3.2056 C   0  0  0  0  0  0  0  0  0  0  0  0
   -2.3815   -0.1110   -3.1479 H   0  0  0  0  0  0  0  0  0  0  0  0
   -0.1047    0.6593    1.4246 C   0  0  0  0  0  0  0  0  0  0  0  0
    0.6485    1.6270    1.3060 O   0  0  0  0  0  0  0  0  0  0  0  0
   -0.6849    0.3254    2.5839 N   0  0  0  0  0  0  0  0  0  0  0  0
   -1.2957   -0.4773    2.5841 H   0  0  0  0  0  0  0  0  0  0  0  0
   -0.5016    1.0312    3.8557 C   0  0  0  0  0  0  0  0  0  0  0  0
   -1.3575    1.6803    4.0511 H   0  0  0  0  0  0  0  0  0  0  0  0
   -0.4174    0.3118    4.6721 H   0  0  0  0  0  0  0  0  0  0  0  0
    0.4040    1.6412    3.8355 H   0  0  0  0  0  0  0  0  0  0  0  0
  5  6  2  0  0  0  0
  5  7  1  0  0  0  0
  2  3  1  0  0  0  0
  2  4  1  0  0  0  0
  2  5  1  0  0  0  0
  1  2  1  0  0  0  0
 23 24  2  0  0  0  0
 23 25  1  0  0  0  0
 21 22  1  0  0  0  0
 19 20  1  0  0  0  0
 19 21  1  0  0  0  0
 17 18  1  0  0  0  0
 17 19  1  0  0  0  0
 15 16  1  0  0  0  0
 15 17  2  0  0  0  0
 14 15  1  0  0  0  0
 14 21  2  0  0  0  0
 11 12  1  0  0  0  0
 11 13  1  0  0  0  0
 11 14  1  0  0  0  0
  9 10  1  0  0  0  0
  9 11  1  0  0  0  0
  9 23  1  0  0  0  0
  7  8  1  0  0  0  0
  7  9  1  0  0  0  0
 27 28  1  0  0  0  0
 27 29  1  0  0  0  0
 27 30  1  0  0  0  0
 25 26  1  0  0  0  0
 25 27  1  0  0  0  0
M  CHG  1  15   1
M  END
$$$$
default_name
  -OEChem-01062215323D

 30 30  0     1  0  0  0  0  0999 V2000
   -3.5507   -3.2183    1.8116 H   0  0  0  0  0  0  0  0  0  0  0  0
   -3.4597   -2.3913    1.1076 C   0  0  0  0  0  0  0  0  0  0  0  0
   -4.1577   -1.6043    1.3866 H   0  0  0  0  0  0  0  0  0  0  0  0
   -3.6807   -2.7523    0.1036 H   0  0  0  0  0  0  0  0  0  0  0  0
   -2.0477   -1.8543    1.1546 C   0  0  0  0  0  0  0  0  0  0  0  0
   -1.2227   -2.3443    1.9146 O   0  0  0  0  0  0  0  0  0  0  0  0
   -1.7517   -0.8483    0.3266 N   0  0  0  0  0  0  0  0  0  0  0  0
   -2.4847   -0.5123   -0.2804 H   0  0  0  0  0  0  0  0  0  0  0  0
   -0.4117   -0.2463    0.2186 C   0  0  1  0  0  0  0  0  0  0  0  0
    0.3262   -1.0521    0.2409 H   0  0  0  0  0  0  0  0  0  0  0  0
   -0.2916    0.4450   -1.1594 C   0  0  0  0  0  0  0  0  0  0  0  0
   -1.0834    1.1937   -1.2436 H   0  0  0  0  0  0  0  0  0  0  0  0
    0.6603    0.9782   -1.2072 H   0  0  0  0  0  0  0  0  0  0  0  0
   -0.3718   -0.4822   -2.3536 C   0  0  0  0  0  0  0  0  0  0  0  0
    0.6343   -1.3297   -2.7755 N   0  3  0  0  0  0  0  0  0  0  0  0
    1.5166   -1.4545   -2.2708 H   0  0  0  0  0  0  0  0  0  0  0  0
    0.2021   -1.9939   -3.8657 C   0  0  0  0  0  0  0  0  0  0  0  0
    0.7717   -2.7416   -4.4141 H   0  0  0  0  0  0  0  0  0  0  0  0
   -1.0562   -1.5855   -4.1456 N   0  0  0  0  0  0  0  0  0  0  0  0
   -1.6350   -1.9180   -4.9124 H   0  0  0  0  0  0  0  0  0  0  0  0
   -1.4320   -0.6359   -3.2056 C   0  0  0  0  0  0  0  0  0  0  0  0
   -2.3815   -0.1110   -3.1479 H   0  0  0  0  0  0  0  0  0  0  0  0
   -0.1047    0.6593    1.4246 C   0  0  0  0  0  0  0  0  0  0  0  0
    0.4127    1.7655    1.2620 O   0  0  0  0  0  0  0  0  0  0  0  0
   -0.4169    0.1712    2.6314 N   0  0  0  0  0  0  0  0  0  0  0  0
   -0.8480   -0.7399    2.6673 H   0  0  0  0  0  0  0  0  0  0  0  0
   -0.1793    0.8535    3.9071 C   0  0  0  0  0  0  0  0  0  0  0  0
   -1.1055    1.3041    4.2694 H   0  0  0  0  0  0  0  0  0  0  0  0
    0.1738    0.1383    4.6520 H   0  0  0  0  0  0  0  0  0  0  0  0
    0.5722    1.6379    3.7952 H   0  0  0  0  0  0  0  0  0  0  0  0
  5  6  2  0  0  0  0
  5  7  1  0  0  0  0
  2  3  1  0  0  0  0
  2  4  1  0  0  0  0
  2  5  1  0  0  0  0
  1  2  1  0  0  0  0
 23 24  2  0  0  0  0
 23 25  1  0  0  0  0
 21 22  1  0  0  0  0
 19 20  1  0  0  0  0
 19 21  1  0  0  0  0
 17 18  1  0  0  0  0
 17 19  1  0  0  0  0
 15 16  1  0  0  0  0
 15 17  2  0  0  0  0
 14 15  1  0  0  0  0
 14 21  2  0  0  0  0
 11 12  1  0  0  0  0
 11 13  1  0  0  0  0
 11 14  1  0  0  0  0
  9 10  1  0  0  0  0
  9 11  1  0  0  0  0
  9 23  1  0  0  0  0
  7  8  1  0  0  0  0
  7  9  1  0  0  0  0
 27 28  1  0  0  0  0
 27 29  1  0  0  0  0
 27 30  1  0  0  0  0
 25 26  1  0  0  0  0
 25 27  1  0  0  0  0
M  CHG  1  15   1
M  END
$$$$
default_name
  -OEChem-01062215323D

 30 30  0     1  0  0  0  0  0999 V2000
   -3.5507   -3.2183    1.8116 H   0  0  0  0  0  0  0  0  0  0  0  0
   -3.4597   -2.3913    1.1076 C   0  0  0  0  0  0  0  0  0  0  0  0
   -4.1577   -1.6043    1.3866 H   0  0  0  0  0  0  0  0  0  0  0  0
   -3.6807   -2.7523    0.1036 H   0  0  0  0  0  0  0  0  0  0  0  0
   -2.0477   -1.8543    1.1546 C   0  0  0  0  0  0  0  0  0  0  0  0
   -1.2227   -2.3443    1.9146 O   0  0  0  0  0  0  0  0  0  0  0  0
   -1.7517   -0.8483    0.3266 N   0  0  0  0  0  0  0  0  0  0  0  0
   -2.4847   -0.5123   -0.2804 H   0  0  0  0  0  0  0  0  0  0  0  0
   -0.4117   -0.2463    0.2186 C   0  0  1  0  0  0  0  0  0  0  0  0
    0.3262   -1.0521    0.2409 H   0  0  0  0  0  0  0  0  0  0  0  0
   -0.2916    0.4450   -1.1594 C   0  0  0  0  0  0  0  0  0  0  0  0
   -1.0834    1.1937   -1.2436 H   0  0  0  0  0  0  0  0  0  0  0  0
    0.6603    0.9782   -1.2072 H   0  0  0  0  0  0  0  0  0  0  0  0
   -0.3718   -0.4822   -2.3536 C   0  0  0  0  0  0  0  0  0  0  0  0
    0.6343   -1.3297   -2.7755 N   0  3  0  0  0  0  0  0  0  0  0  0
    1.5166   -1.4545   -2.2708 H   0  0  0  0  0  0  0  0  0  0  0  0
    0.2021   -1.9939   -3.8657 C   0  0  0  0  0  0  0  0  0  0  0  0
    0.7717   -2.7416   -4.4141 H   0  0  0  0  0  0  0  0  0  0  0  0
   -1.0562   -1.5855   -4.1456 N   0  0  0  0  0  0  0  0  0  0  0  0
   -1.6350   -1.9180   -4.9124 H   0  0  0  0  0  0  0  0  0  0  0  0
   -1.4320   -0.6359   -3.2056 C   0  0  0  0  0  0  0  0  0  0  0  0
   -2.3815   -0.1110   -3.1479 H   0  0  0  0  0  0  0  0  0  0  0  0
   -0.1047    0.6593    1.4246 C   0  0  0  0  0  0  0  0  0  0  0  0
    0.1503    1.8537    1.2626 O   0  0  0  0  0  0  0  0  0  0  0  0
   -0.1194    0.0742    2.6286 N   0  0  0  0  0  0  0  0  0  0  0  0
   -0.3496   -0.9071    2.6660 H   0  0  0  0  0  0  0  0  0  0  0  0
    0.1758    0.7446    3.8985 C   0  0  0  0  0  0  0  0  0  0  0  0
   -0.7526    0.9806    4.4225 H   0  0  0  0  0  0  0  0  0  0  0  0
    0.7770    0.0916    4.5335 H   0  0  0  0  0  0  0  0  0  0  0  0
    0.7291    1.6710    3.7304 H   0  0  0  0  0  0  0  0  0  0  0  0
  5  6  2  0  0  0  0
  5  7  1  0  0  0  0
  2  3  1  0  0  0  0
  2  4  1  0  0  0  0
  2  5  1  0  0  0  0
  1  2  1  0  0  0  0
 23 24  2  0  0  0  0
 23 25  1  0  0  0  0
 21 22  1  0  0  0  0
 19 20  1  0  0  0  0
 19 21  1  0  0  0  0
 17 18  1  0  0  0  0
 17 19  1  0  0  0  0
 15 16  1  0  0  0  0
 15 17  2  0  0  0  0
 14 15  1  0  0  0  0
 14 21  2  0  0  0  0
 11 12  1  0  0  0  0
 11 13  1  0  0  0  0
 11 14  1  0  0  0  0
  9 10  1  0  0  0  0
  9 11  1  0  0  0  0
  9 23  1  0  0  0  0
  7  8  1  0  0  0  0
  7  9  1  0  0  0  0
 27 28  1  0  0  0  0
 27 29  1  0  0  0  0
 27 30  1  0  0  0  0
 25 26  1  0  0  0  0
 25 27  1  0  0  0  0
M  CHG  1  15   1
M  END
$$$$
default_name
  -OEChem-01062215323D

 30 30  0     1  0  0  0  0  0999 V2000
   -3.5507   -3.2183    1.8116 H   0  0  0  0  0  0  0  0  0  0  0  0
   -3.4597   -2.3913    1.1076 C   0  0  0  0  0  0  0  0  0  0  0  0
   -4.1577   -1.6043    1.3866 H   0  0  0  0  0  0  0  0  0  0  0  0
   -3.6807   -2.7523    0.1036 H   0  0  0  0  0  0  0  0  0  0  0  0
   -2.0477   -1.8543    1.1546 C   0  0  0  0  0  0  0  0  0  0  0  0
   -1.2227   -2.3443    1.9146 O   0  0  0  0  0  0  0  0  0  0  0  0
   -1.7517   -0.8483    0.3266 N   0  0  0  0  0  0  0  0  0  0  0  0
   -2.4847   -0.5123   -0.2804 H   0  0  0  0  0  0  0  0  0  0  0  0
   -0.4117   -0.2463    0.2186 C   0  0  1  0  0  0  0  0  0  0  0  0
    0.3262   -1.0521    0.2409 H   0  0  0  0  0  0  0  0  0  0  0  0
   -0.2916    0.4450   -1.1594 C   0  0  0  0  0  0  0  0  0  0  0  0
   -1.0834    1.1937   -1.2436 H   0  0  0  0  0  0  0  0  0  0  0  0
    0.6603    0.9782   -1.2072 H   0  0  0  0  0  0  0  0  0  0  0  0
   -0.3718   -0.4822   -2.3536 C   0  0  0  0  0  0  0  0  0  0  0  0
    0.6343   -1.3297   -2.7755 N   0  3  0  0  0  0  0  0  0  0  0  0
    1.5166   -1.4545   -2.2708 H   0  0  0  0  0  0  0  0  0  0  0  0
    0.2021   -1.9939   -3.8657 C   0  0  0  0  0  0  0  0  0  0  0  0
    0.7717   -2.7416   -4.4141 H   0  0  0  0  0  0  0  0  0  0  0  0
   -1.0562   -1.5855   -4.1456 N   0  0  0  0  0  0  0  0  0  0  0  0
   -1.6350   -1.9180   -4.9124 H   0  0  0  0  0  0  0  0  0  0  0  0
   -1.4320   -0.6359   -3.2056 C   0  0  0  0  0  0  0  0  0  0  0  0
   -2.3815   -0.1110   -3.1479 H   0  0  0  0  0  0  0  0  0  0  0  0
   -0.1047    0.6593    1.4246 C   0  0  0  0  0  0  0  0  0  0  0  0
   -0.1210    1.8857    1.3077 O   0  0  0  0  0  0  0  0  0  0  0  0
    0.1872    0.0410    2.5755 N   0  0  0  0  0  0  0  0  0  0  0  0
    0.1655   -0.9674    2.5802 H   0  0  0  0  0  0  0  0  0  0  0  0
    0.5396    0.7119    3.8305 C   0  0  0  0  0  0  0  0  0  0  0  0
   -0.3227    0.7318    4.4999 H   0  0  0  0  0  0  0  0  0  0  0  0
    1.3510    0.1749    4.3248 H   0  0  0  0  0  0  0  0  0  0  0  0
    0.8642    1.7380    3.6457 H   0  0  0  0  0  0  0  0  0  0  0  0
  5  6  2  0  0  0  0
  5  7  1  0  0  0  0
  2  3  1  0  0  0  0
  2  4  1  0  0  0  0
  2  5  1  0  0  0  0
  1  2  1  0  0  0  0
 23 24  2  0  0  0  0
 23 25  1  0  0  0  0
 21 22  1  0  0  0  0
 19 20  1  0  0  0  0
 19 21  1  0  0  0  0
 17 18  1  0  0  0  0
 17 19  1  0  0  0  0
 15 16  1  0  0  0  0
 15 17  2  0  0  0  0
 14 15  1  0  0  0  0
 14 21  2  0  0  0  0
 11 12  1  0  0  0  0
 11 13  1  0  0  0  0
 11 14  1  0  0  0  0
  9 10  1  0  0  0  0
  9 11  1  0  0  0  0
  9 23  1  0  0  0  0
  7  8  1  0  0  0  0
  7  9  1  0  0  0  0
 27 28  1  0  0  0  0
 27 29  1  0  0  0  0
 27 30  1  0  0  0  0
 25 26  1  0  0  0  0
 25 27  1  0  0  0  0
M  CHG  1  15   1
M  END
$$$$
default_name
  -OEChem-01062215323D

 30 30  0     1  0  0  0  0  0999 V2000
   -3.5507   -3.2183    1.8116 H   0  0  0  0  0  0  0  0  0  0  0  0
   -3.4597   -2.3913    1.1076 C   0  0  0  0  0  0  0  0  0  0  0  0
   -4.1577   -1.6043    1.3866 H   0  0  0  0  0  0  0  0  0  0  0  0
   -3.6807   -2.7523    0.1036 H   0  0  0  0  0  0  0  0  0  0  0  0
   -2.0477   -1.8543    1.1546 C   0  0  0  0  0  0  0  0  0  0  0  0
   -1.2227   -2.3443    1.9146 O   0  0  0  0  0  0  0  0  0  0  0  0
   -1.7517   -0.8483    0.3266 N   0  0  0  0  0  0  0  0  0  0  0  0
   -2.4847   -0.5123   -0.2804 H   0  0  0  0  0  0  0  0  0  0  0  0
   -0.4117   -0.2463    0.2186 C   0  0  1  0  0  0  0  0  0  0  0  0
    0.3262   -1.0521    0.2409 H   0  0  0  0  0  0  0  0  0  0  0  0
   -0.2916    0.4450   -1.1594 C   0  0  0  0  0  0  0  0  0  0  0  0
   -1.0834    1.1937   -1.2436 H   0  0  0  0  0  0  0  0  0  0  0  0
    0.6603    0.9782   -1.2072 H   0  0  0  0  0  0  0  0  0  0  0  0
   -0.3718   -0.4822   -2.3536 C   0  0  0  0  0  0  0  0  0  0  0  0
    0.6343   -1.3297   -2.7755 N   0  3  0  0  0  0  0  0  0  0  0  0
    1.5166   -1.4545   -2.2708 H   0  0  0  0  0  0  0  0  0  0  0  0
    0.2021   -1.9939   -3.8657 C   0  0  0  0  0  0  0  0  0  0  0  0
    0.7717   -2.7416   -4.4141 H   0  0  0  0  0  0  0  0  0  0  0  0
   -1.0562   -1.5855   -4.1456 N   0  0  0  0  0  0  0  0  0  0  0  0
   -1.6350   -1.9180   -4.9124 H   0  0  0  0  0  0  0  0  0  0  0  0
   -1.4320   -0.6359   -3.2056 C   0  0  0  0  0  0  0  0  0  0  0  0
   -2.3815   -0.1110   -3.1479 H   0  0  0  0  0  0  0  0  0  0  0  0
   -0.1047    0.6593    1.4246 C   0  0  0  0  0  0  0  0  0  0  0  0
   -0.3827    1.8591    1.3942 O   0  0  0  0  0  0  0  0  0  0  0  0
    0.4820    0.0738    2.4758 N   0  0  0  0  0  0  0  0  0  0  0  0
    0.6622   -0.9168    2.4158 H   0  0  0  0  0  0  0  0  0  0  0  0
    0.8873    0.7575    3.7077 C   0  0  0  0  0  0  0  0  0  0  0  0
    0.1547    0.5747    4.4964 H   0  0  0  0  0  0  0  0  0  0  0  0
    1.8568    0.3826    4.0401 H   0  0  0  0  0  0  0  0  0  0  0  0
    0.9681    1.8346    3.5467 H   0  0  0  0  0  0  0  0  0  0  0  0
  5  6  2  0  0  0  0
  5  7  1  0  0  0  0
  2  3  1  0  0  0  0
  2  4  1  0  0  0  0
  2  5  1  0  0  0  0
  1  2  1  0  0  0  0
 23 24  2  0  0  0  0
 23 25  1  0  0  0  0
 21 22  1  0  0  0  0
 19 20  1  0  0  0  0
 19 21  1  0  0  0  0
 17 18  1  0  0  0  0
 17 19  1  0  0  0  0
 15 16  1  0  0  0  0
 15 17  2  0  0  0  0
 14 15  1  0  0  0  0
 14 21  2  0  0  0  0
 11 12  1  0  0  0  0
 11 13  1  0  0  0  0
 11 14  1  0  0  0  0
  9 10  1  0  0  0  0
  9 11  1  0  0  0  0
  9 23  1  0  0  0  0
  7  8  1  0  0  0  0
  7  9  1  0  0  0  0
 27 28  1  0  0  0  0
 27 29  1  0  0  0  0
 27 30  1  0  0  0  0
 25 26  1  0  0  0  0
 25 27  1  0  0  0  0
M  CHG  1  15   1
M  END
$$$$
default_name
  -OEChem-01062215323D

 30 30  0     1  0  0  0  0  0999 V2000
   -3.5507   -3.2183    1.8116 H   0  0  0  0  0  0  0  0  0  0  0  0
   -3.4597   -2.3913    1.1076 C   0  0  0  0  0  0  0  0  0  0  0  0
   -4.1577   -1.6043    1.3866 H   0  0  0  0  0  0  0  0  0  0  0  0
   -3.6807   -2.7523    0.1036 H   0  0  0  0  0  0  0  0  0  0  0  0
   -2.0477   -1.8543    1.1546 C   0  0  0  0  0  0  0  0  0  0  0  0
   -1.2227   -2.3443    1.9146 O   0  0  0  0  0  0  0  0  0  0  0  0
   -1.7517   -0.8483    0.3266 N   0  0  0  0  0  0  0  0  0  0  0  0
   -2.4847   -0.5123   -0.2804 H   0  0  0  0  0  0  0  0  0  0  0  0
   -0.4117   -0.2463    0.2186 C   0  0  1  0  0  0  0  0  0  0  0  0
    0.3262   -1.0521    0.2409 H   0  0  0  0  0  0  0  0  0  0  0  0
   -0.2916    0.4450   -1.1594 C   0  0  0  0  0  0  0  0  0  0  0  0
   -1.0834    1.1937   -1.2436 H   0  0  0  0  0  0  0  0  0  0  0  0
    0.6603    0.9782   -1.2072 H   0  0  0  0  0  0  0  0  0  0  0  0
   -0.3718   -0.4822   -2.3536 C   0  0  0  0  0  0  0  0  0  0  0  0
    0.6343   -1.3297   -2.7755 N   0  3  0  0  0  0  0  0  0  0  0  0
    1.5166   -1.4545   -2.2708 H   0  0  0  0  0  0  0  0  0  0  0  0
    0.2021   -1.9939   -3.8657 C   0  0  0  0  0  0  0  0  0  0  0  0
    0.7717   -2.7416   -4.4141 H   0  0  0  0  0  0  0  0  0  0  0  0
   -1.0562   -1.5855   -4.1456 N   0  0  0  0  0  0  0  0  0  0  0  0
   -1.6350   -1.9180   -4.9124 H   0  0  0  0  0  0  0  0  0  0  0  0
   -1.4320   -0.6359   -3.2056 C   0  0  0  0  0  0  0  0  0  0  0  0
   -2.3815   -0.1110   -3.1479 H   0  0  0  0  0  0  0  0  0  0  0  0
   -0.1047    0.6593    1.4246 C   0  0  0  0  0  0  0  0  0  0  0  0
   -0.6170    1.7760    1.5162 O   0  0  0  0  0  0  0  0  0  0  0  0
    0.7449    0.1704    2.3363 N   0  0  0  0  0  0  0  0  0  0  0  0
    1.1067   -0.7587    2.1839 H   0  0  0  0  0  0  0  0  0  0  0  0
    1.1952    0.8785    3.5385 C   0  0  0  0  0  0  0  0  0  0  0  0
    0.6472    0.5199    4.4122 H   0  0  0  0  0  0  0  0  0  0  0  0
    2.2599    0.7004    3.6988 H   0  0  0  0  0  0  0  0  0  0  0  0
    1.0338    1.9541    3.4403 H   0  0  0  0  0  0  0  0  0  0  0  0
  5  6  2  0  0  0  0
  5  7  1  0  0  0  0
  2  3  1  0  0  0  0
  2  4  1  0  0  0  0
  2  5  1  0  0  0  0
  1  2  1  0  0  0  0
 23 24  2  0  0  0  0
 23 25  1  0  0  0  0
 21 22  1  0  0  0  0
 19 20  1  0  0  0  0
 19 21  1  0  0  0  0
 17 18  1  0  0  0  0
 17 19  1  0  0  0  0
 15 16  1  0  0  0  0
 15 17  2  0  0  0  0
 14 15  1  0  0  0  0
 14 21  2  0  0  0  0
 11 12  1  0  0  0  0
 11 13  1  0  0  0  0
 11 14  1  0  0  0  0
  9 10  1  0  0  0  0
  9 11  1  0  0  0  0
  9 23  1  0  0  0  0
  7  8  1  0  0  0  0
  7  9  1  0  0  0  0
 27 28  1  0  0  0  0
 27 29  1  0  0  0  0
 27 30  1  0  0  0  0
 25 26  1  0  0  0  0
 25 27  1  0  0  0  0
M  CHG  1  15   1
M  END
$$$$
default_name
  -OEChem-01062215323D

 30 30  0     1  0  0  0  0  0999 V2000
   -3.5507   -3.2183    1.8116 H   0  0  0  0  0  0  0  0  0  0  0  0
   -3.4597   -2.3913    1.1076 C   0  0  0  0  0  0  0  0  0  0  0  0
   -4.1577   -1.6043    1.3866 H   0  0  0  0  0  0  0  0  0  0  0  0
   -3.6807   -2.7523    0.1036 H   0  0  0  0  0  0  0  0  0  0  0  0
   -2.0477   -1.8543    1.1546 C   0  0  0  0  0  0  0  0  0  0  0  0
   -1.2227   -2.3443    1.9146 O   0  0  0  0  0  0  0  0  0  0  0  0
   -1.7517   -0.8483    0.3266 N   0  0  0  0  0  0  0  0  0  0  0  0
   -2.4847   -0.5123   -0.2804 H   0  0  0  0  0  0  0  0  0  0  0  0
   -0.4117   -0.2463    0.2186 C   0  0  1  0  0  0  0  0  0  0  0  0
    0.3262   -1.0521    0.2409 H   0  0  0  0  0  0  0  0  0  0  0  0
   -0.2916    0.4450   -1.1594 C   0  0  0  0  0  0  0  0  0  0  0  0
   -1.0834    1.1937   -1.2436 H   0  0  0  0  0  0  0  0  0  0  0  0
    0.6603    0.9782   -1.2072 H   0  0  0  0  0  0  0  0  0  0  0  0
   -0.3718   -0.4822   -2.3536 C   0  0  0  0  0  0  0  0  0  0  0  0
    0.6343   -1.3297   -2.7755 N   0  3  0  0  0  0  0  0  0  0  0  0
    1.5166   -1.4545   -2.2708 H   0  0  0  0  0  0  0  0  0  0  0  0
    0.2021   -1.9939   -3.8657 C   0  0  0  0  0  0  0  0  0  0  0  0
    0.7717   -2.7416   -4.4141 H   0  0  0  0  0  0  0  0  0  0  0  0
   -1.0562   -1.5855   -4.1456 N   0  0  0  0  0  0  0  0  0  0  0  0
   -1.6350   -1.9180   -4.9124 H   0  0  0  0  0  0  0  0  0  0  0  0
   -1.4320   -0.6359   -3.2056 C   0  0  0  0  0  0  0  0  0  0  0  0
   -2.3815   -0.1110   -3.1479 H   0  0  0  0  0  0  0  0  0  0  0  0
   -0.1047    0.6593    1.4246 C   0  0  0  0  0  0  0  0  0  0  0  0
   -0.8078    1.6419    1.6655 O   0  0  0  0  0  0  0  0  0  0  0  0
    0.9580    0.3242    2.1666 N   0  0  0  0  0  0  0  0  0  0  0  0
    1.4686   -0.5039    1.9004 H   0  0  0  0  0  0  0  0  0  0  0  0
    1.4423    1.0665    3.3344 C   0  0  0  0  0  0  0  0  0  0  0  0
    1.1212    0.5712    4.2530 H   0  0  0  0  0  0  0  0  0  0  0  0
    2.5328    1.1069    3.3242 H   0  0  0  0  0  0  0  0  0  0  0  0
    1.0569    2.0883    3.3336 H   0  0  0  0  0  0  0  0  0  0  0  0
  5  6  2  0  0  0  0
  5  7  1  0  0  0  0
  2  3  1  0  0  0  0
  2  4  1  0  0  0  0
  2  5  1  0  0  0  0
  1  2  1  0  0  0  0
 23 24  2  0  0  0  0
 23 25  1  0  0  0  0
 21 22  1  0  0  0  0
 19 20  1  0  0  0  0
 19 21  1  0  0  0  0
 17 18  1  0  0  0  0
 17 19  1  0  0  0  0
 15 16  1  0  0  0  0
 15 17  2  0  0  0  0
 14 15  1  0  0  0  0
 14 21  2  0  0  0  0
 11 12  1  0  0  0  0
 11 13  1  0  0  0  0
 11 14  1  0  0  0  0
  9 10  1  0  0  0  0
  9 11  1  0  0  0  0
  9 23  1  0  0  0  0
  7  8  1  0  0  0  0
  7  9  1  0  0  0  0
 27 28  1  0  0  0  0
 27 29  1  0  0  0  0
 27 30  1  0  0  0  0
 25 26  1  0  0  0  0
 25 27  1  0  0  0  0
M  CHG  1  15   1
M  END
$$$$
default_name
  -OEChem-01062215323D

 30 30  0     1  0  0  0  0  0999 V2000
   -3.5507   -3.2183    1.8116 H   0  0  0  0  0  0  0  0  0  0  0  0
   -3.4597   -2.3913    1.1076 C   0  0  0  0  0  0  0  0  0  0  0  0
   -4.1577   -1.6043    1.3866 H   0  0  0  0  0  0  0  0  0  0  0  0
   -3.6807   -2.7523    0.1036 H   0  0  0  0  0  0  0  0  0  0  0  0
   -2.0477   -1.8543    1.1546 C   0  0  0  0  0  0  0  0  0  0  0  0
   -1.2227   -2.3443    1.9146 O   0  0  0  0  0  0  0  0  0  0  0  0
   -1.7517   -0.8483    0.3266 N   0  0  0  0  0  0  0  0  0  0  0  0
   -2.4847   -0.5123   -0.2804 H   0  0  0  0  0  0  0  0  0  0  0  0
   -0.4117   -0.2463    0.2186 C   0  0  1  0  0  0  0  0  0  0  0  0
    0.3262   -1.0521    0.2409 H   0  0  0  0  0  0  0  0  0  0  0  0
   -0.2916    0.4450   -1.1594 C   0  0  0  0  0  0  0  0  0  0  0  0
   -1.0834    1.1937   -1.2436 H   0  0  0  0  0  0  0  0  0  0  0  0
    0.6603    0.9782   -1.2072 H   0  0  0  0  0  0  0  0  0  0  0  0
   -0.3718   -0.4822   -2.3536 C   0  0  0  0  0  0  0  0  0  0  0  0
    0.6343   -1.3297   -2.7755 N   0  3  0  0  0  0  0  0  0  0  0  0
    1.5166   -1.4545   -2.2708 H   0  0  0  0  0  0  0  0  0  0  0  0
    0.2021   -1.9939   -3.8657 C   0  0  0  0  0  0  0  0  0  0  0  0
    0.7717   -2.7416   -4.4141 H   0  0  0  0  0  0  0  0  0  0  0  0
   -1.0562   -1.5855   -4.1456 N   0  0  0  0  0  0  0  0  0  0  0  0
   -1.6350   -1.9180   -4.9124 H   0  0  0  0  0  0  0  0  0  0  0  0
   -1.4320   -0.6359   -3.2056 C   0  0  0  0  0  0  0  0  0  0  0  0
   -2.3815   -0.1110   -3.1479 H   0  0  0  0  0  0  0  0  0  0  0  0
   -0.1047    0.6593    1.4246 C   0  0  0  0  0  0  0  0  0  0  0  0
   -0.9421    1.4660    1.8318 O   0  0  0  0  0  0  0  0  0  0  0  0
    1.1068    0.5248    1.9781 N   0  0  0  0  0  0  0  0  0  0  0  0
    1.7234   -0.1697    1.5846 H   0  0  0  0  0  0  0  0  0  0  0  0
    1.6117    1.3087    3.1094 C   0  0  0  0  0  0  0  0  0  0  0  0
    1.5445    0.7251    4.0297 H   0  0  0  0  0  0  0  0  0  0  0  0
    2.6570    1.5741    2.9417 H   0  0  0  0  0  0  0  0  0  0  0  0
    1.0357    2.2281    3.2340 H   0  0  0  0  0  0  0  0  0  0  0  0
  5  6  2  0  0  0  0
  5  7  1  0  0  0  0
  2  3  1  0  0  0  0
  2  4  1  0  0  0  0
  2  5  1  0  0  0  0
  1  2  1  0  0  0  0
 23 24  2  0  0  0  0
 23 25  1  0  0  0  0
 21 22  1  0  0  0  0
 19 20  1  0  0  0  0
 19 21  1  0  0  0  0
 17 18  1  0  0  0  0
 17 19  1  0  0  0  0
 15 16  1  0  0  0  0
 15 17  2  0  0  0  0
 14 15  1  0  0  0  0
 14 21  2  0  0  0  0
 11 12  1  0  0  0  0
 11 13  1  0  0  0  0
 11 14  1  0  0  0  0
  9 10  1  0  0  0  0
  9 11  1  0  0  0  0
  9 23  1  0  0  0  0
  7  8  1  0  0  0  0
  7  9  1  0  0  0  0
 27 28  1  0  0  0  0
 27 29  1  0  0  0  0
 27 30  1  0  0  0  0
 25 26  1  0  0  0  0
 25 27  1  0  0  0  0
M  CHG  1  15   1
M  END
$$$$
default_name
  -OEChem-01062215323D

 30 30  0     1  0  0  0  0  0999 V2000
   -3.5507   -3.2183    1.8116 H   0  0  0  0  0  0  0  0  0  0  0  0
   -3.4597   -2.3913    1.1076 C   0  0  0  0  0  0  0  0  0  0  0  0
   -4.1577   -1.6043    1.3866 H   0  0  0  0  0  0  0  0  0  0  0  0
   -3.6807   -2.7523    0.1036 H   0  0  0  0  0  0  0  0  0  0  0  0
   -2.0477   -1.8543    1.1546 C   0  0  0  0  0  0  0  0  0  0  0  0
   -1.2227   -2.3443    1.9146 O   0  0  0  0  0  0  0  0  0  0  0  0
   -1.7517   -0.8483    0.3266 N   0  0  0  0  0  0  0  0  0  0  0  0
   -2.4847   -0.5123   -0.2804 H   0  0  0  0  0  0  0  0  0  0  0  0
   -0.4117   -0.2463    0.2186 C   0  0  1  0  0  0  0  0  0  0  0  0
    0.3262   -1.0521    0.2409 H   0  0  0  0  0  0  0  0  0  0  0  0
   -0.2916    0.4450   -1.1594 C   0  0  0  0  0  0  0  0  0  0  0  0
   -1.0834    1.1937   -1.2436 H   0  0  0  0  0  0  0  0  0  0  0  0
    0.6603    0.9782   -1.2072 H   0  0  0  0  0  0  0  0  0  0  0  0
   -0.3718   -0.4822   -2.3536 C   0  0  0  0  0  0  0  0  0  0  0  0
    0.6343   -1.3297   -2.7755 N   0  3  0  0  0  0  0  0  0  0  0  0
    1.5166   -1.4545   -2.2708 H   0  0  0  0  0  0  0  0  0  0  0  0
    0.2021   -1.9939   -3.8657 C   0  0  0  0  0  0  0  0  0  0  0  0
    0.7717   -2.7416   -4.4141 H   0  0  0  0  0  0  0  0  0  0  0  0
   -1.0562   -1.5855   -4.1456 N   0  0  0  0  0  0  0  0  0  0  0  0
   -1.6350   -1.9180   -4.9124 H   0  0  0  0  0  0  0  0  0  0  0  0
   -1.4320   -0.6359   -3.2056 C   0  0  0  0  0  0  0  0  0  0  0  0
   -2.3815   -0.1110   -3.1479 H   0  0  0  0  0  0  0  0  0  0  0  0
   -0.1047    0.6593    1.4246 C   0  0  0  0  0  0  0  0  0  0  0  0
   -1.0109    1.2602    2.0039 O   0  0  0  0  0  0  0  0  0  0  0  0
    1.1811    0.7585    1.7837 N   0  0  0  0  0  0  0  0  0  0  0  0
    1.8536    0.2211    1.2580 H   0  0  0  0  0  0  0  0  0  0  0  0
    1.6920    1.5887    2.8787 C   0  0  0  0  0  0  0  0  0  0  0  0
    1.8880    0.9711    3.7575 H   0  0  0  0  0  0  0  0  0  0  0  0
    2.6239    2.0704    2.5774 H   0  0  0  0  0  0  0  0  0  0  0  0
    0.9717    2.3640    3.1482 H   0  0  0  0  0  0  0  0  0  0  0  0
  5  6  2  0  0  0  0
  5  7  1  0  0  0  0
  2  3  1  0  0  0  0
  2  4  1  0  0  0  0
  2  5  1  0  0  0  0
  1  2  1  0  0  0  0
 23 24  2  0  0  0  0
 23 25  1  0  0  0  0
 21 22  1  0  0  0  0
 19 20  1  0  0  0  0
 19 21  1  0  0  0  0
 17 18  1  0  0  0  0
 17 19  1  0  0  0  0
 15 16  1  0  0  0  0
 15 17  2  0  0  0  0
 14 15  1  0  0  0  0
 14 21  2  0  0  0  0
 11 12  1  0  0  0  0
 11 13  1  0  0  0  0
 11 14  1  0  0  0  0
  9 10  1  0  0  0  0
  9 11  1  0  0  0  0
  9 23  1  0  0  0  0
  7  8  1  0  0  0  0
  7  9  1  0  0  0  0
 27 28  1  0  0  0  0
 27 29  1  0  0  0  0
 27 30  1  0  0  0  0
 25 26  1  0  0  0  0
 25 27  1  0  0  0  0
M  CHG  1  15   1
M  END
$$$$
default_name
  -OEChem-01062215323D

 30 30  0     1  0  0  0  0  0999 V2000
   -3.5507   -3.2183    1.8116 H   0  0  0  0  0  0  0  0  0  0  0  0
   -3.4597   -2.3913    1.1076 C   0  0  0  0  0  0  0  0  0  0  0  0
   -4.1577   -1.6043    1.3866 H   0  0  0  0  0  0  0  0  0  0  0  0
   -3.6807   -2.7523    0.1036 H   0  0  0  0  0  0  0  0  0  0  0  0
   -2.0477   -1.8543    1.1546 C   0  0  0  0  0  0  0  0  0  0  0  0
   -1.2227   -2.3443    1.9146 O   0  0  0  0  0  0  0  0  0  0  0  0
   -1.7517   -0.8483    0.3266 N   0  0  0  0  0  0  0  0  0  0  0  0
   -2.4847   -0.5123   -0.2804 H   0  0  0  0  0  0  0  0  0  0  0  0
   -0.4117   -0.2463    0.2186 C   0  0  1  0  0  0  0  0  0  0  0  0
    0.3262   -1.0521    0.2409 H   0  0  0  0  0  0  0  0  0  0  0  0
   -0.2916    0.4450   -1.1594 C   0  0  0  0  0  0  0  0  0  0  0  0
   -1.0834    1.1937   -1.2436 H   0  0  0  0  0  0  0  0  0  0  0  0
    0.6603    0.9782   -1.2072 H   0  0  0  0  0  0  0  0  0  0  0  0
   -0.3718   -0.4822   -2.3536 C   0  0  0  0  0  0  0  0  0  0  0  0
    0.6343   -1.3297   -2.7755 N   0  3  0  0  0  0  0  0  0  0  0  0
    1.5166   -1.4545   -2.2708 H   0  0  0  0  0  0  0  0  0  0  0  0
    0.2021   -1.9939   -3.8657 C   0  0  0  0  0  0  0  0  0  0  0  0
    0.7717   -2.7416   -4.4141 H   0  0  0  0  0  0  0  0  0  0  0  0
   -1.0562   -1.5855   -4.1456 N   0  0  0  0  0  0  0  0  0  0  0  0
   -1.6350   -1.9180   -4.9124 H   0  0  0  0  0  0  0  0  0  0  0  0
   -1.4320   -0.6359   -3.2056 C   0  0  0  0  0  0  0  0  0  0  0  0
   -2.3815   -0.1110   -3.1479 H   0  0  0  0  0  0  0  0  0  0  0  0
   -0.1047    0.6593    1.4246 C   0  0  0  0  0  0  0  0  0  0  0  0
   -1.0094    1.0386    2.1699 O   0  0  0  0  0  0  0  0  0  0  0  0
    1.1760    1.0093    1.5967 N   0  0  0  0  0  0  0  0  0  0  0  0
    1.8504    0.6418    0.9429 H   0  0  0  0  0  0  0  0  0  0  0  0
    1.6776    1.8874    2.6581 C   0  0  0  0  0  0  0  0  0  0  0  0
    2.1286    1.2925    3.4549 H   0  0  0  0  0  0  0  0  0  0  0  0
    2.4358    2.5618    2.2563 H   0  0  0  0  0  0  0  0  0  0  0  0
    0.8692    2.4867    3.0822 H   0  0  0  0  0  0  0  0  0  0  0  0
  5  6  2  0  0  0  0
  5  7  1  0  0  0  0
  2  3  1  0  0  0  0
  2  4  1  0  0  0  0
  2  5  1  0  0  0  0
  1  2  1  0  0  0  0
 23 24  2  0  0  0  0
 23 25  1  0  0  0  0
 21 22  1  0  0  0  0
 19 20  1  0  0  0  0
 19 21  1  0  0  0  0
 17 18  1  0  0  0  0
 17 19  1  0  0  0  0
 15 16  1  0  0  0  0
 15 17  2  0  0  0  0
 14 15  1  0  0  0  0
 14 21  2  0  0  0  0
 11 12  1  0  0  0  0
 11 13  1  0  0  0  0
 11 14  1  0  0  0  0
  9 10  1  0  0  0  0
  9 11  1  0  0  0  0
  9 23  1  0  0  0  0
  7  8  1  0  0  0  0
  7  9  1  0  0  0  0
 27 28  1  0  0  0  0
 27 29  1  0  0  0  0
 27 30  1  0  0  0  0
 25 26  1  0  0  0  0
 25 27  1  0  0  0  0
M  CHG  1  15   1
M  END
$$$$
default_name
  -OEChem-01062215323D

 30 30  0     1  0  0  0  0  0999 V2000
   -3.5507   -3.2183    1.8116 H   0  0  0  0  0  0  0  0  0  0  0  0
   -3.4597   -2.3913    1.1076 C   0  0  0  0  0  0  0  0  0  0  0  0
   -4.1577   -1.6043    1.3866 H   0  0  0  0  0  0  0  0  0  0  0  0
   -3.6807   -2.7523    0.1036 H   0  0  0  0  0  0  0  0  0  0  0  0
   -2.0477   -1.8543    1.1546 C   0  0  0  0  0  0  0  0  0  0  0  0
   -1.2227   -2.3443    1.9146 O   0  0  0  0  0  0  0  0  0  0  0  0
   -1.7517   -0.8483    0.3266 N   0  0  0  0  0  0  0  0  0  0  0  0
   -2.4847   -0.5123   -0.2804 H   0  0  0  0  0  0  0  0  0  0  0  0
   -0.4117   -0.2463    0.2186 C   0  0  1  0  0  0  0  0  0  0  0  0
    0.2987   -1.0391   -0.0285 H   0  0  0  0  0  0  0  0  0  0  0  0
   -0.4131    0.7505   -0.9636 C   0  0  0  0  0  0  0  0  0  0  0  0
   -1.1852    1.5028   -0.7839 H   0  0  0  0  0  0  0  0  0  0  0  0
    0.5451    1.2739   -0.9877 H   0  0  0  0  0  0  0  0  0  0  0  0
   -0.6458    0.1325   -2.3261 C   0  0  0  0  0  0  0  0  0  0  0  0
    0.2840   -0.5975   -3.0410 N   0  3  0  0  0  0  0  0  0  0  0  0
    1.2094   -0.8437   -2.6780 H   0  0  0  0  0  0  0  0  0  0  0  0
   -0.2795   -0.9824   -4.2033 C   0  0  0  0  0  0  0  0  0  0  0  0
    0.2063   -1.5827   -4.9699 H   0  0  0  0  0  0  0  0  0  0  0  0
   -1.5465   -0.5114   -4.2420 N   0  0  0  0  0  0  0  0  0  0  0  0
   -2.2118   -0.6494   -4.9982 H   0  0  0  0  0  0  0  0  0  0  0  0
   -1.7928    0.1913   -3.0706 C   0  0  0  0  0  0  0  0  0  0  0  0
   -2.7141    0.6937   -2.7892 H   0  0  0  0  0  0  0  0  0  0  0  0
    0.0470    0.3465    1.5629 C   0  0  0  0  0  0  0  0  0  0  0  0
   -0.6837    0.2929    2.5533 O   0  0  0  0  0  0  0  0  0  0  0  0
    1.2558    0.9215    1.5794 N   0  0  0  0  0  0  0  0  0  0  0  0
    1.7887    0.9087    0.7232 H   0  0  0  0  0  0  0  0  0  0  0  0
    1.8672    1.5722    2.7423 C   0  0  0  0  0  0  0  0  0  0  0  0
    2.5972    0.9048    3.2046 H   0  0  0  0  0  0  0  0  0  0  0  0
    2.3783    2.4852    2.4322 H   0  0  0  0  0  0  0  0  0  0  0  0
    1.1103    1.8330    3.4851 H   0  0  0  0  0  0  0  0  0  0  0  0
  5  6  2  0  0  0  0
  5  7  1  0  0  0  0
  2  3  1  0  0  0  0
  2  4  1  0  0  0  0
  2  5  1  0  0  0  0
  1  2  1  0  0  0  0
 23 24  2  0  0  0  0
 23 25  1  0  0  0  0
 21 22  1  0  0  0  0
 19 20  1  0  0  0  0
 19 21  1  0  0  0  0
 17 18  1  0  0  0  0
 17 19  1  0  0  0  0
 15 16  1  0  0  0  0
 15 17  2  0  0  0  0
 14 15  1  0  0  0  0
 14 21  2  0  0  0  0
 11 12  1  0  0  0  0
 11 13  1  0  0  0  0
 11 14  1  0  0  0  0
  9 10  1  0  0  0  0
  9 11  1  0  0  0  0
  9 23  1  0  0  0  0
  7  8  1  0  0  0  0
  7  9  1  0  0  0  0
 27 28  1  0  0  0  0
 27 29  1  0  0  0  0
 27 30  1  0  0  0  0
 25 26  1  0  0  0  0
 25 27  1  0  0  0  0
M  CHG  1  15   1
M  END
$$$$
default_name
  -OEChem-01062215323D

 30 30  0     1  0  0  0  0  0999 V2000
   -3.5507   -3.2183    1.8116 H   0  0  0  0  0  0  0  0  0  0  0  0
   -3.4597   -2.3913    1.1076 C   0  0  0  0  0  0  0  0  0  0  0  0
   -4.1577   -1.6043    1.3866 H   0  0  0  0  0  0  0  0  0  0  0  0
   -3.6807   -2.7523    0.1036 H   0  0  0  0  0  0  0  0  0  0  0  0
   -2.0477   -1.8543    1.1546 C   0  0  0  0  0  0  0  0  0  0  0  0
   -1.2227   -2.3443    1.9146 O   0  0  0  0  0  0  0  0  0  0  0  0
   -1.7517   -0.8483    0.3266 N   0  0  0  0  0  0  0  0  0  0  0  0
   -2.4847   -0.5123   -0.2804 H   0  0  0  0  0  0  0  0  0  0  0  0
   -0.4117   -0.2463    0.2186 C   0  0  1  0  0  0  0  0  0  0  0  0
    0.2987   -1.0391   -0.0285 H   0  0  0  0  0  0  0  0  0  0  0  0
   -0.4131    0.7505   -0.9636 C   0  0  0  0  0  0  0  0  0  0  0  0
   -1.1852    1.5028   -0.7839 H   0  0  0  0  0  0  0  0  0  0  0  0
    0.5451    1.2739   -0.9877 H   0  0  0  0  0  0  0  0  0  0  0  0
   -0.6458    0.1325   -2.3261 C   0  0  0  0  0  0  0  0  0  0  0  0
    0.2840   -0.5975   -3.0410 N   0  3  0  0  0  0  0  0  0  0  0  0
    1.2094   -0.8437   -2.6780 H   0  0  0  0  0  0  0  0  0  0  0  0
   -0.2795   -0.9824   -4.2033 C   0  0  0  0  0  0  0  0  0  0  0  0
    0.2063   -1.5827   -4.9699 H   0  0  0  0  0  0  0  0  0  0  0  0
   -1.5465   -0.5114   -4.2420 N   0  0  0  0  0  0  0  0  0  0  0  0
   -2.2118   -0.6494   -4.9982 H   0  0  0  0  0  0  0  0  0  0  0  0
   -1.7928    0.1913   -3.0706 C   0  0  0  0  0  0  0  0  0  0  0  0
   -2.7141    0.6937   -2.7892 H   0  0  0  0  0  0  0  0  0  0  0  0
    0.0470    0.3465    1.5629 C   0  0  0  0  0  0  0  0  0  0  0  0
   -0.5415    0.0613    2.6069 O   0  0  0  0  0  0  0  0  0  0  0  0
    1.0923    1.1817    1.5205 N   0  0  0  0  0  0  0  0  0  0  0  0
    1.5186    1.3480    0.6216 H   0  0  0  0  0  0  0  0  0  0  0  0
    1.6664    1.8777    2.6760 C   0  0  0  0  0  0  0  0  0  0  0  0
    2.5722    1.3672    3.0092 H   0  0  0  0  0  0  0  0  0  0  0  0
    1.9252    2.9022    2.4030 H   0  0  0  0  0  0  0  0  0  0  0  0
    0.9558    1.9081    3.5047 H   0  0  0  0  0  0  0  0  0  0  0  0
  5  6  2  0  0  0  0
  5  7  1  0  0  0  0
  2  3  1  0  0  0  0
  2  4  1  0  0  0  0
  2  5  1  0  0  0  0
  1  2  1  0  0  0  0
 23 24  2  0  0  0  0
 23 25  1  0  0  0  0
 21 22  1  0  0  0  0
 19 20  1  0  0  0  0
 19 21  1  0  0  0  0
 17 18  1  0  0  0  0
 17 19  1  0  0  0  0
 15 16  1  0  0  0  0
 15 17  2  0  0  0  0
 14 15  1  0  0  0  0
 14 21  2  0  0  0  0
 11 12  1  0  0  0  0
 11 13  1  0  0  0  0
 11 14  1  0  0  0  0
  9 10  1  0  0  0  0
  9 11  1  0  0  0  0
  9 23  1  0  0  0  0
  7  8  1  0  0  0  0
  7  9  1  0  0  0  0
 27 28  1  0  0  0  0
 27 29  1  0  0  0  0
 27 30  1  0  0  0  0
 25 26  1  0  0  0  0
 25 27  1  0  0  0  0
M  CHG  1  15   1
M  END
$$$$
default_name
  -OEChem-01062215323D

 30 30  0     1  0  0  0  0  0999 V2000
   -3.5507   -3.2183    1.8116 H   0  0  0  0  0  0  0  0  0  0  0  0
   -3.4597   -2.3913    1.1076 C   0  0  0  0  0  0  0  0  0  0  0  0
   -4.1577   -1.6043    1.3866 H   0  0  0  0  0  0  0  0  0  0  0  0
   -3.6807   -2.7523    0.1036 H   0  0  0  0  0  0  0  0  0  0  0  0
   -2.0477   -1.8543    1.1546 C   0  0  0  0  0  0  0  0  0  0  0  0
   -1.2227   -2.3443    1.9146 O   0  0  0  0  0  0  0  0  0  0  0  0
   -1.7517   -0.8483    0.3266 N   0  0  0  0  0  0  0  0  0  0  0  0
   -2.4847   -0.5123   -0.2804 H   0  0  0  0  0  0  0  0  0  0  0  0
   -0.4117   -0.2463    0.2186 C   0  0  1  0  0  0  0  0  0  0  0  0
    0.2987   -1.0391   -0.0285 H   0  0  0  0  0  0  0  0  0  0  0  0
   -0.4131    0.7505   -0.9636 C   0  0  0  0  0  0  0  0  0  0  0  0
   -1.1852    1.5028   -0.7839 H   0  0  0  0  0  0  0  0  0  0  0  0
    0.5451    1.2739   -0.9877 H   0  0  0  0  0  0  0  0  0  0  0  0
   -0.6458    0.1325   -2.3261 C   0  0  0  0  0  0  0  0  0  0  0  0
    0.2840   -0.5975   -3.0410 N   0  3  0  0  0  0  0  0  0  0  0  0
    1.2094   -0.8437   -2.6780 H   0  0  0  0  0  0  0  0  0  0  0  0
   -0.2795   -0.9824   -4.2033 C   0  0  0  0  0  0  0  0  0  0  0  0
    0.2063   -1.5827   -4.9699 H   0  0  0  0  0  0  0  0  0  0  0  0
   -1.5465   -0.5114   -4.2420 N   0  0  0  0  0  0  0  0  0  0  0  0
   -2.2118   -0.6494   -4.9982 H   0  0  0  0  0  0  0  0  0  0  0  0
   -1.7928    0.1913   -3.0706 C   0  0  0  0  0  0  0  0  0  0  0  0
   -2.7141    0.6937   -2.7892 H   0  0  0  0  0  0  0  0  0  0  0  0
    0.0470    0.3465    1.5629 C   0  0  0  0  0  0  0  0  0  0  0  0
   -0.3466   -0.1343    2.6267 O   0  0  0  0  0  0  0  0  0  0  0  0
    0.8698    1.4007    1.4999 N   0  0  0  0  0  0  0  0  0  0  0  0
    1.1483    1.7192    0.5843 H   0  0  0  0  0  0  0  0  0  0  0  0
    1.3968    2.1326    2.6556 C   0  0  0  0  0  0  0  0  0  0  0  0
    2.4241    1.8233    2.8586 H   0  0  0  0  0  0  0  0  0  0  0  0
    1.3904    3.2048    2.4520 H   0  0  0  0  0  0  0  0  0  0  0  0
    0.7915    1.9443    3.5448 H   0  0  0  0  0  0  0  0  0  0  0  0
  5  6  2  0  0  0  0
  5  7  1  0  0  0  0
  2  3  1  0  0  0  0
  2  4  1  0  0  0  0
  2  5  1  0  0  0  0
  1  2  1  0  0  0  0
 23 24  2  0  0  0  0
 23 25  1  0  0  0  0
 21 22  1  0  0  0  0
 19 20  1  0  0  0  0
 19 21  1  0  0  0  0
 17 18  1  0  0  0  0
 17 19  1  0  0  0  0
 15 16  1  0  0  0  0
 15 17  2  0  0  0  0
 14 15  1  0  0  0  0
 14 21  2  0  0  0  0
 11 12  1  0  0  0  0
 11 13  1  0  0  0  0
 11 14  1  0  0  0  0
  9 10  1  0  0  0  0
  9 11  1  0  0  0  0
  9 23  1  0  0  0  0
  7  8  1  0  0  0  0
  7  9  1  0  0  0  0
 27 28  1  0  0  0  0
 27 29  1  0  0  0  0
 27 30  1  0  0  0  0
 25 26  1  0  0  0  0
 25 27  1  0  0  0  0
M  CHG  1  15   1
M  END
$$$$
default_name
  -OEChem-01062215323D

 30 30  0     1  0  0  0  0  0999 V2000
   -3.5507   -3.2183    1.8116 H   0  0  0  0  0  0  0  0  0  0  0  0
   -3.4597   -2.3913    1.1076 C   0  0  0  0  0  0  0  0  0  0  0  0
   -4.1577   -1.6043    1.3866 H   0  0  0  0  0  0  0  0  0  0  0  0
   -3.6807   -2.7523    0.1036 H   0  0  0  0  0  0  0  0  0  0  0  0
   -2.0477   -1.8543    1.1546 C   0  0  0  0  0  0  0  0  0  0  0  0
   -1.2227   -2.3443    1.9146 O   0  0  0  0  0  0  0  0  0  0  0  0
   -1.7517   -0.8483    0.3266 N   0  0  0  0  0  0  0  0  0  0  0  0
   -2.4847   -0.5123   -0.2804 H   0  0  0  0  0  0  0  0  0  0  0  0
   -0.4117   -0.2463    0.2186 C   0  0  1  0  0  0  0  0  0  0  0  0
    0.2987   -1.0391   -0.0285 H   0  0  0  0  0  0  0  0  0  0  0  0
   -0.4131    0.7505   -0.9636 C   0  0  0  0  0  0  0  0  0  0  0  0
   -1.1852    1.5028   -0.7839 H   0  0  0  0  0  0  0  0  0  0  0  0
    0.5451    1.2739   -0.9877 H   0  0  0  0  0  0  0  0  0  0  0  0
   -0.6458    0.1325   -2.3261 C   0  0  0  0  0  0  0  0  0  0  0  0
    0.2840   -0.5975   -3.0410 N   0  3  0  0  0  0  0  0  0  0  0  0
    1.2094   -0.8437   -2.6780 H   0  0  0  0  0  0  0  0  0  0  0  0
   -0.2795   -0.9824   -4.2033 C   0  0  0  0  0  0  0  0  0  0  0  0
    0.2063   -1.5827   -4.9699 H   0  0  0  0  0  0  0  0  0  0  0  0
   -1.5465   -0.5114   -4.2420 N   0  0  0  0  0  0  0  0  0  0  0  0
   -2.2118   -0.6494   -4.9982 H   0  0  0  0  0  0  0  0  0  0  0  0
   -1.7928    0.1913   -3.0706 C   0  0  0  0  0  0  0  0  0  0  0  0
   -2.7141    0.6937   -2.7892 H   0  0  0  0  0  0  0  0  0  0  0  0
    0.0470    0.3465    1.5629 C   0  0  0  0  0  0  0  0  0  0  0  0
   -0.1121   -0.2807    2.6112 O   0  0  0  0  0  0  0  0  0  0  0  0
    0.6032    1.5634    1.5190 N   0  0  0  0  0  0  0  0  0  0  0  0
    0.7029    1.9969    0.6138 H   0  0  0  0  0  0  0  0  0  0  0  0
    1.0768    2.3194    2.6824 C   0  0  0  0  0  0  0  0  0  0  0  0
    2.1629    2.2420    2.7631 H   0  0  0  0  0  0  0  0  0  0  0  0
    0.8103    3.3724    2.5761 H   0  0  0  0  0  0  0  0  0  0  0  0
    0.6286    1.9390    3.6028 H   0  0  0  0  0  0  0  0  0  0  0  0
  5  6  2  0  0  0  0
  5  7  1  0  0  0  0
  2  3  1  0  0  0  0
  2  4  1  0  0  0  0
  2  5  1  0  0  0  0
  1  2  1  0  0  0  0
 23 24  2  0  0  0  0
 23 25  1  0  0  0  0
 21 22  1  0  0  0  0
 19 20  1  0  0  0  0
 19 21  1  0  0  0  0
 17 18  1  0  0  0  0
 17 19  1  0  0  0  0
 15 16  1  0  0  0  0
 15 17  2  0  0  0  0
 14 15  1  0  0  0  0
 14 21  2  0  0  0  0
 11 12  1  0  0  0  0
 11 13  1  0  0  0  0
 11 14  1  0  0  0  0
  9 10  1  0  0  0  0
  9 11  1  0  0  0  0
  9 23  1  0  0  0  0
  7  8  1  0  0  0  0
  7  9  1  0  0  0  0
 27 28  1  0  0  0  0
 27 29  1  0  0  0  0
 27 30  1  0  0  0  0
 25 26  1  0  0  0  0
 25 27  1  0  0  0  0
M  CHG  1  15   1
M  END
$$$$
default_name
  -OEChem-01062215323D

 30 30  0     1  0  0  0  0  0999 V2000
   -3.5507   -3.2183    1.8116 H   0  0  0  0  0  0  0  0  0  0  0  0
   -3.4597   -2.3913    1.1076 C   0  0  0  0  0  0  0  0  0  0  0  0
   -4.1577   -1.6043    1.3866 H   0  0  0  0  0  0  0  0  0  0  0  0
   -3.6807   -2.7523    0.1036 H   0  0  0  0  0  0  0  0  0  0  0  0
   -2.0477   -1.8543    1.1546 C   0  0  0  0  0  0  0  0  0  0  0  0
   -1.2227   -2.3443    1.9146 O   0  0  0  0  0  0  0  0  0  0  0  0
   -1.7517   -0.8483    0.3266 N   0  0  0  0  0  0  0  0  0  0  0  0
   -2.4847   -0.5123   -0.2804 H   0  0  0  0  0  0  0  0  0  0  0  0
   -0.4117   -0.2463    0.2186 C   0  0  1  0  0  0  0  0  0  0  0  0
    0.2987   -1.0391   -0.0285 H   0  0  0  0  0  0  0  0  0  0  0  0
   -0.4131    0.7505   -0.9636 C   0  0  0  0  0  0  0  0  0  0  0  0
   -1.1852    1.5028   -0.7839 H   0  0  0  0  0  0  0  0  0  0  0  0
    0.5451    1.2739   -0.9877 H   0  0  0  0  0  0  0  0  0  0  0  0
   -0.6458    0.1325   -2.3261 C   0  0  0  0  0  0  0  0  0  0  0  0
    0.2840   -0.5975   -3.0410 N   0  3  0  0  0  0  0  0  0  0  0  0
    1.2094   -0.8437   -2.6780 H   0  0  0  0  0  0  0  0  0  0  0  0
   -0.2795   -0.9824   -4.2033 C   0  0  0  0  0  0  0  0  0  0  0  0
    0.2063   -1.5827   -4.9699 H   0  0  0  0  0  0  0  0  0  0  0  0
   -1.5465   -0.5114   -4.2420 N   0  0  0  0  0  0  0  0  0  0  0  0
   -2.2118   -0.6494   -4.9982 H   0  0  0  0  0  0  0  0  0  0  0  0
   -1.7928    0.1913   -3.0706 C   0  0  0  0  0  0  0  0  0  0  0  0
   -2.7141    0.6937   -2.7892 H   0  0  0  0  0  0  0  0  0  0  0  0
    0.0470    0.3465    1.5629 C   0  0  0  0  0  0  0  0  0  0  0  0
    0.1460   -0.3679    2.5616 O   0  0  0  0  0  0  0  0  0  0  0  0
    0.3108    1.6589    1.5767 N   0  0  0  0  0  0  0  0  0  0  0  0
    0.2129    2.1622    0.7081 H   0  0  0  0  0  0  0  0  0  0  0  0
    0.7281    2.4255    2.7547 C   0  0  0  0  0  0  0  0  0  0  0  0
    1.8064    2.5948    2.7291 H   0  0  0  0  0  0  0  0  0  0  0  0
    0.2244    3.3936    2.7666 H   0  0  0  0  0  0  0  0  0  0  0  0
    0.4782    1.8926    3.6745 H   0  0  0  0  0  0  0  0  0  0  0  0
  5  6  2  0  0  0  0
  5  7  1  0  0  0  0
  2  3  1  0  0  0  0
  2  4  1  0  0  0  0
  2  5  1  0  0  0  0
  1  2  1  0  0  0  0
 23 24  2  0  0  0  0
 23 25  1  0  0  0  0
 21 22  1  0  0  0  0
 19 20  1  0  0  0  0
 19 21  1  0  0  0  0
 17 18  1  0  0  0  0
 17 19  1  0  0  0  0
 15 16  1  0  0  0  0
 15 17  2  0  0  0  0
 14 15  1  0  0  0  0
 14 21  2  0  0  0  0
 11 12  1  0  0  0  0
 11 13  1  0  0  0  0
 11 14  1  0  0  0  0
  9 10  1  0  0  0  0
  9 11  1  0  0  0  0
  9 23  1  0  0  0  0
  7  8  1  0  0  0  0
  7  9  1  0  0  0  0
 27 28  1  0  0  0  0
 27 29  1  0  0  0  0
 27 30  1  0  0  0  0
 25 26  1  0  0  0  0
 25 27  1  0  0  0  0
M  CHG  1  15   1
M  END
$$$$
default_name
  -OEChem-01062215323D

 30 30  0     1  0  0  0  0  0999 V2000
   -3.5507   -3.2183    1.8116 H   0  0  0  0  0  0  0  0  0  0  0  0
   -3.4597   -2.3913    1.1076 C   0  0  0  0  0  0  0  0  0  0  0  0
   -4.1577   -1.6043    1.3866 H   0  0  0  0  0  0  0  0  0  0  0  0
   -3.6807   -2.7523    0.1036 H   0  0  0  0  0  0  0  0  0  0  0  0
   -2.0477   -1.8543    1.1546 C   0  0  0  0  0  0  0  0  0  0  0  0
   -1.2227   -2.3443    1.9146 O   0  0  0  0  0  0  0  0  0  0  0  0
   -1.7517   -0.8483    0.3266 N   0  0  0  0  0  0  0  0  0  0  0  0
   -2.4847   -0.5123   -0.2804 H   0  0  0  0  0  0  0  0  0  0  0  0
   -0.4117   -0.2463    0.2186 C   0  0  1  0  0  0  0  0  0  0  0  0
    0.2987   -1.0391   -0.0285 H   0  0  0  0  0  0  0  0  0  0  0  0
   -0.4131    0.7505   -0.9636 C   0  0  0  0  0  0  0  0  0  0  0  0
   -1.1852    1.5028   -0.7839 H   0  0  0  0  0  0  0  0  0  0  0  0
    0.5451    1.2739   -0.9877 H   0  0  0  0  0  0  0  0  0  0  0  0
   -0.6458    0.1325   -2.3261 C   0  0  0  0  0  0  0  0  0  0  0  0
    0.2840   -0.5975   -3.0410 N   0  3  0  0  0  0  0  0  0  0  0  0
    1.2094   -0.8437   -2.6780 H   0  0  0  0  0  0  0  0  0  0  0  0
   -0.2795   -0.9824   -4.2033 C   0  0  0  0  0  0  0  0  0  0  0  0
    0.2063   -1.5827   -4.9699 H   0  0  0  0  0  0  0  0  0  0  0  0
   -1.5465   -0.5114   -4.2420 N   0  0  0  0  0  0  0  0  0  0  0  0
   -2.2118   -0.6494   -4.9982 H   0  0  0  0  0  0  0  0  0  0  0  0
   -1.7928    0.1913   -3.0706 C   0  0  0  0  0  0  0  0  0  0  0  0
   -2.7141    0.6937   -2.7892 H   0  0  0  0  0  0  0  0  0  0  0  0
    0.0470    0.3465    1.5629 C   0  0  0  0  0  0  0  0  0  0  0  0
    0.4101   -0.3900    2.4813 O   0  0  0  0  0  0  0  0  0  0  0  0
    0.0126    1.6806    1.6689 N   0  0  0  0  0  0  0  0  0  0  0  0
   -0.2884    2.2038    0.8608 H   0  0  0  0  0  0  0  0  0  0  0  0
    0.3745    2.4435    2.8674 C   0  0  0  0  0  0  0  0  0  0  0  0
    1.3789    2.8576    2.7591 H   0  0  0  0  0  0  0  0  0  0  0  0
   -0.3274    3.2669    3.0108 H   0  0  0  0  0  0  0  0  0  0  0  0
    0.3506    1.8082    3.7553 H   0  0  0  0  0  0  0  0  0  0  0  0
  5  6  2  0  0  0  0
  5  7  1  0  0  0  0
  2  3  1  0  0  0  0
  2  4  1  0  0  0  0
  2  5  1  0  0  0  0
  1  2  1  0  0  0  0
 23 24  2  0  0  0  0
 23 25  1  0  0  0  0
 21 22  1  0  0  0  0
 19 20  1  0  0  0  0
 19 21  1  0  0  0  0
 17 18  1  0  0  0  0
 17 19  1  0  0  0  0
 15 16  1  0  0  0  0
 15 17  2  0  0  0  0
 14 15  1  0  0  0  0
 14 21  2  0  0  0  0
 11 12  1  0  0  0  0
 11 13  1  0  0  0  0
 11 14  1  0  0  0  0
  9 10  1  0  0  0  0
  9 11  1  0  0  0  0
  9 23  1  0  0  0  0
  7  8  1  0  0  0  0
  7  9  1  0  0  0  0
 27 28  1  0  0  0  0
 27 29  1  0  0  0  0
 27 30  1  0  0  0  0
 25 26  1  0  0  0  0
 25 27  1  0  0  0  0
M  CHG  1  15   1
M  END
$$$$
default_name
  -OEChem-01062215323D

 30 30  0     1  0  0  0  0  0999 V2000
   -3.5507   -3.2183    1.8116 H   0  0  0  0  0  0  0  0  0  0  0  0
   -3.4597   -2.3913    1.1076 C   0  0  0  0  0  0  0  0  0  0  0  0
   -4.1577   -1.6043    1.3866 H   0  0  0  0  0  0  0  0  0  0  0  0
   -3.6807   -2.7523    0.1036 H   0  0  0  0  0  0  0  0  0  0  0  0
   -2.0477   -1.8543    1.1546 C   0  0  0  0  0  0  0  0  0  0  0  0
   -1.2227   -2.3443    1.9146 O   0  0  0  0  0  0  0  0  0  0  0  0
   -1.7517   -0.8483    0.3266 N   0  0  0  0  0  0  0  0  0  0  0  0
   -2.4847   -0.5123   -0.2804 H   0  0  0  0  0  0  0  0  0  0  0  0
   -0.4117   -0.2463    0.2186 C   0  0  1  0  0  0  0  0  0  0  0  0
    0.2987   -1.0391   -0.0285 H   0  0  0  0  0  0  0  0  0  0  0  0
   -0.4131    0.7505   -0.9636 C   0  0  0  0  0  0  0  0  0  0  0  0
   -1.1852    1.5028   -0.7839 H   0  0  0  0  0  0  0  0  0  0  0  0
    0.5451    1.2739   -0.9877 H   0  0  0  0  0  0  0  0  0  0  0  0
   -0.6458    0.1325   -2.3261 C   0  0  0  0  0  0  0  0  0  0  0  0
    0.2840   -0.5975   -3.0410 N   0  3  0  0  0  0  0  0  0  0  0  0
    1.2094   -0.8437   -2.6780 H   0  0  0  0  0  0  0  0  0  0  0  0
   -0.2795   -0.9824   -4.2033 C   0  0  0  0  0  0  0  0  0  0  0  0
    0.2063   -1.5827   -4.9699 H   0  0  0  0  0  0  0  0  0  0  0  0
   -1.5465   -0.5114   -4.2420 N   0  0  0  0  0  0  0  0  0  0  0  0
   -2.2118   -0.6494   -4.9982 H   0  0  0  0  0  0  0  0  0  0  0  0
   -1.7928    0.1913   -3.0706 C   0  0  0  0  0  0  0  0  0  0  0  0
   -2.7141    0.6937   -2.7892 H   0  0  0  0  0  0  0  0  0  0  0  0
    0.0470    0.3465    1.5629 C   0  0  0  0  0  0  0  0  0  0  0  0
    0.6621   -0.3454    2.3756 O   0  0  0  0  0  0  0  0  0  0  0  0
   -0.2712    1.6270    1.7893 N   0  0  0  0  0  0  0  0  0  0  0  0
   -0.7668    2.1188    1.0614 H   0  0  0  0  0  0  0  0  0  0  0  0
    0.0401    2.3723    3.0129 C   0  0  0  0  0  0  0  0  0  0  0  0
    0.9096    3.0124    2.8510 H   0  0  0  0  0  0  0  0  0  0  0  0
   -0.8073    3.0010    3.2918 H   0  0  0  0  0  0  0  0  0  0  0  0
    0.2545    1.6916    3.8395 H   0  0  0  0  0  0  0  0  0  0  0  0
  5  6  2  0  0  0  0
  5  7  1  0  0  0  0
  2  3  1  0  0  0  0
  2  4  1  0  0  0  0
  2  5  1  0  0  0  0
  1  2  1  0  0  0  0
 23 24  2  0  0  0  0
 23 25  1  0  0  0  0
 21 22  1  0  0  0  0
 19 20  1  0  0  0  0
 19 21  1  0  0  0  0
 17 18  1  0  0  0  0
 17 19  1  0  0  0  0
 15 16  1  0  0  0  0
 15 17  2  0  0  0  0
 14 15  1  0  0  0  0
 14 21  2  0  0  0  0
 11 12  1  0  0  0  0
 11 13  1  0  0  0  0
 11 14  1  0  0  0  0
  9 10  1  0  0  0  0
  9 11  1  0  0  0  0
  9 23  1  0  0  0  0
  7  8  1  0  0  0  0
  7  9  1  0  0  0  0
 27 28  1  0  0  0  0
 27 29  1  0  0  0  0
 27 30  1  0  0  0  0
 25 26  1  0  0  0  0
 25 27  1  0  0  0  0
M  CHG  1  15   1
M  END
$$$$
default_name
  -OEChem-01062215323D

 30 30  0     1  0  0  0  0  0999 V2000
   -3.5507   -3.2183    1.8116 H   0  0  0  0  0  0  0  0  0  0  0  0
   -3.4597   -2.3913    1.1076 C   0  0  0  0  0  0  0  0  0  0  0  0
   -4.1577   -1.6043    1.3866 H   0  0  0  0  0  0  0  0  0  0  0  0
   -3.6807   -2.7523    0.1036 H   0  0  0  0  0  0  0  0  0  0  0  0
   -2.0477   -1.8543    1.1546 C   0  0  0  0  0  0  0  0  0  0  0  0
   -1.2227   -2.3443    1.9146 O   0  0  0  0  0  0  0  0  0  0  0  0
   -1.7517   -0.8483    0.3266 N   0  0  0  0  0  0  0  0  0  0  0  0
   -2.4847   -0.5123   -0.2804 H   0  0  0  0  0  0  0  0  0  0  0  0
   -0.4117   -0.2463    0.2186 C   0  0  1  0  0  0  0  0  0  0  0  0
    0.2987   -1.0391   -0.0285 H   0  0  0  0  0  0  0  0  0  0  0  0
   -0.4131    0.7505   -0.9636 C   0  0  0  0  0  0  0  0  0  0  0  0
   -1.1852    1.5028   -0.7839 H   0  0  0  0  0  0  0  0  0  0  0  0
    0.5451    1.2739   -0.9877 H   0  0  0  0  0  0  0  0  0  0  0  0
   -0.6458    0.1325   -2.3261 C   0  0  0  0  0  0  0  0  0  0  0  0
    0.2840   -0.5975   -3.0410 N   0  3  0  0  0  0  0  0  0  0  0  0
    1.2094   -0.8437   -2.6780 H   0  0  0  0  0  0  0  0  0  0  0  0
   -0.2795   -0.9824   -4.2033 C   0  0  0  0  0  0  0  0  0  0  0  0
    0.2063   -1.5827   -4.9699 H   0  0  0  0  0  0  0  0  0  0  0  0
   -1.5465   -0.5114   -4.2420 N   0  0  0  0  0  0  0  0  0  0  0  0
   -2.2118   -0.6494   -4.9982 H   0  0  0  0  0  0  0  0  0  0  0  0
   -1.7928    0.1913   -3.0706 C   0  0  0  0  0  0  0  0  0  0  0  0
   -2.7141    0.6937   -2.7892 H   0  0  0  0  0  0  0  0  0  0  0  0
    0.0470    0.3465    1.5629 C   0  0  0  0  0  0  0  0  0  0  0  0
    0.8850   -0.2373    2.2519 O   0  0  0  0  0  0  0  0  0  0  0  0
   -0.5211    1.5018    1.9298 N   0  0  0  0  0  0  0  0  0  0  0  0
   -1.1897    1.9132    1.2964 H   0  0  0  0  0  0  0  0  0  0  0  0
   -0.2523    2.2167    3.1812 C   0  0  0  0  0  0  0  0  0  0  0  0
    0.4304    3.0489    2.9984 H   0  0  0  0  0  0  0  0  0  0  0  0
   -1.1828    2.6139    3.5906 H   0  0  0  0  0  0  0  0  0  0  0  0
    0.1964    1.5508    3.9214 H   0  0  0  0  0  0  0  0  0  0  0  0
  5  6  2  0  0  0  0
  5  7  1  0  0  0  0
  2  3  1  0  0  0  0
  2  4  1  0  0  0  0
  2  5  1  0  0  0  0
  1  2  1  0  0  0  0
 23 24  2  0  0  0  0
 23 25  1  0  0  0  0
 21 22  1  0  0  0  0
 19 20  1  0  0  0  0
 19 21  1  0  0  0  0
 17 18  1  0  0  0  0
 17 19  1  0  0  0  0
 15 16  1  0  0  0  0
 15 17  2  0  0  0  0
 14 15  1  0  0  0  0
 14 21  2  0  0  0  0
 11 12  1  0  0  0  0
 11 13  1  0  0  0  0
 11 14  1  0  0  0  0
  9 10  1  0  0  0  0
  9 11  1  0  0  0  0
  9 23  1  0  0  0  0
  7  8  1  0  0  0  0
  7  9  1  0  0  0  0
 27 28  1  0  0  0  0
 27 29  1  0  0  0  0
 27 30  1  0  0  0  0
 25 26  1  0  0  0  0
 25 27  1  0  0  0  0
M  CHG  1  15   1
M  END
$$$$
default_name
  -OEChem-01062215323D

 30 30  0     1  0  0  0  0  0999 V2000
   -3.5507   -3.2183    1.8116 H   0  0  0  0  0  0  0  0  0  0  0  0
   -3.4597   -2.3913    1.1076 C   0  0  0  0  0  0  0  0  0  0  0  0
   -4.1577   -1.6043    1.3866 H   0  0  0  0  0  0  0  0  0  0  0  0
   -3.6807   -2.7523    0.1036 H   0  0  0  0  0  0  0  0  0  0  0  0
   -2.0477   -1.8543    1.1546 C   0  0  0  0  0  0  0  0  0  0  0  0
   -1.2227   -2.3443    1.9146 O   0  0  0  0  0  0  0  0  0  0  0  0
   -1.7517   -0.8483    0.3266 N   0  0  0  0  0  0  0  0  0  0  0  0
   -2.4847   -0.5123   -0.2804 H   0  0  0  0  0  0  0  0  0  0  0  0
   -0.4117   -0.2463    0.2186 C   0  0  1  0  0  0  0  0  0  0  0  0
    0.2987   -1.0391   -0.0285 H   0  0  0  0  0  0  0  0  0  0  0  0
   -0.4131    0.7505   -0.9636 C   0  0  0  0  0  0  0  0  0  0  0  0
   -1.1852    1.5028   -0.7839 H   0  0  0  0  0  0  0  0  0  0  0  0
    0.5451    1.2739   -0.9877 H   0  0  0  0  0  0  0  0  0  0  0  0
   -0.6458    0.1325   -2.3261 C   0  0  0  0  0  0  0  0  0  0  0  0
    0.2840   -0.5975   -3.0410 N   0  3  0  0  0  0  0  0  0  0  0  0
    1.2094   -0.8437   -2.6780 H   0  0  0  0  0  0  0  0  0  0  0  0
   -0.2795   -0.9824   -4.2033 C   0  0  0  0  0  0  0  0  0  0  0  0
    0.2063   -1.5827   -4.9699 H   0  0  0  0  0  0  0  0  0  0  0  0
   -1.5465   -0.5114   -4.2420 N   0  0  0  0  0  0  0  0  0  0  0  0
   -2.2118   -0.6494   -4.9982 H   0  0  0  0  0  0  0  0  0  0  0  0
   -1.7928    0.1913   -3.0706 C   0  0  0  0  0  0  0  0  0  0  0  0
   -2.7141    0.6937   -2.7892 H   0  0  0  0  0  0  0  0  0  0  0  0
    0.0470    0.3465    1.5629 C   0  0  0  0  0  0  0  0  0  0  0  0
    1.0634   -0.0729    2.1185 O   0  0  0  0  0  0  0  0  0  0  0  0
   -0.7203    1.3135    2.0808 N   0  0  0  0  0  0  0  0  0  0  0  0
   -1.5282    1.6008    1.5497 H   0  0  0  0  0  0  0  0  0  0  0  0
   -0.4828    1.9873    3.3610 C   0  0  0  0  0  0  0  0  0  0  0  0
   -0.0259    2.9643    3.1914 H   0  0  0  0  0  0  0  0  0  0  0  0
   -1.4282    2.1322    3.8867 H   0  0  0  0  0  0  0  0  0  0  0  0
    0.1802    1.3953    3.9955 H   0  0  0  0  0  0  0  0  0  0  0  0
  5  6  2  0  0  0  0
  5  7  1  0  0  0  0
  2  3  1  0  0  0  0
  2  4  1  0  0  0  0
  2  5  1  0  0  0  0
  1  2  1  0  0  0  0
 23 24  2  0  0  0  0
 23 25  1  0  0  0  0
 21 22  1  0  0  0  0
 19 20  1  0  0  0  0
 19 21  1  0  0  0  0
 17 18  1  0  0  0  0
 17 19  1  0  0  0  0
 15 16  1  0  0  0  0
 15 17  2  0  0  0  0
 14 15  1  0  0  0  0
 14 21  2  0  0  0  0
 11 12  1  0  0  0  0
 11 13  1  0  0  0  0
 11 14  1  0  0  0  0
  9 10  1  0  0  0  0
  9 11  1  0  0  0  0
  9 23  1  0  0  0  0
  7  8  1  0  0  0  0
  7  9  1  0  0  0  0
 27 28  1  0  0  0  0
 27 29  1  0  0  0  0
 27 30  1  0  0  0  0
 25 26  1  0  0  0  0
 25 27  1  0  0  0  0
M  CHG  1  15   1
M  END
$$$$
default_name
  -OEChem-01062215323D

 30 30  0     1  0  0  0  0  0999 V2000
   -3.5507   -3.2183    1.8116 H   0  0  0  0  0  0  0  0  0  0  0  0
   -3.4597   -2.3913    1.1076 C   0  0  0  0  0  0  0  0  0  0  0  0
   -4.1577   -1.6043    1.3866 H   0  0  0  0  0  0  0  0  0  0  0  0
   -3.6807   -2.7523    0.1036 H   0  0  0  0  0  0  0  0  0  0  0  0
   -2.0477   -1.8543    1.1546 C   0  0  0  0  0  0  0  0  0  0  0  0
   -1.2227   -2.3443    1.9146 O   0  0  0  0  0  0  0  0  0  0  0  0
   -1.7517   -0.8483    0.3266 N   0  0  0  0  0  0  0  0  0  0  0  0
   -2.4847   -0.5123   -0.2804 H   0  0  0  0  0  0  0  0  0  0  0  0
   -0.4117   -0.2463    0.2186 C   0  0  1  0  0  0  0  0  0  0  0  0
    0.2987   -1.0391   -0.0285 H   0  0  0  0  0  0  0  0  0  0  0  0
   -0.4131    0.7505   -0.9636 C   0  0  0  0  0  0  0  0  0  0  0  0
   -1.1852    1.5028   -0.7839 H   0  0  0  0  0  0  0  0  0  0  0  0
    0.5451    1.2739   -0.9877 H   0  0  0  0  0  0  0  0  0  0  0  0
   -0.6458    0.1325   -2.3261 C   0  0  0  0  0  0  0  0  0  0  0  0
    0.2840   -0.5975   -3.0410 N   0  3  0  0  0  0  0  0  0  0  0  0
    1.2094   -0.8437   -2.6780 H   0  0  0  0  0  0  0  0  0  0  0  0
   -0.2795   -0.9824   -4.2033 C   0  0  0  0  0  0  0  0  0  0  0  0
    0.2063   -1.5827   -4.9699 H   0  0  0  0  0  0  0  0  0  0  0  0
   -1.5465   -0.5114   -4.2420 N   0  0  0  0  0  0  0  0  0  0  0  0
   -2.2118   -0.6494   -4.9982 H   0  0  0  0  0  0  0  0  0  0  0  0
   -1.7928    0.1913   -3.0706 C   0  0  0  0  0  0  0  0  0  0  0  0
   -2.7141    0.6937   -2.7892 H   0  0  0  0  0  0  0  0  0  0  0  0
    0.0470    0.3465    1.5629 C   0  0  0  0  0  0  0  0  0  0  0  0
    1.1854    0.1365    1.9846 O   0  0  0  0  0  0  0  0  0  0  0  0
   -0.8551    1.0750    2.2320 N   0  0  0  0  0  0  0  0  0  0  0  0
   -1.7594    1.2031    1.8040 H   0  0  0  0  0  0  0  0  0  0  0  0
   -0.6356    1.6998    3.5400 C   0  0  0  0  0  0  0  0  0  0  0  0
   -0.4284    2.7647    3.4168 H   0  0  0  0  0  0  0  0  0  0  0  0
   -1.5268    1.5885    4.1601 H   0  0  0  0  0  0  0  0  0  0  0  0
    0.2072    1.2358    4.0566 H   0  0  0  0  0  0  0  0  0  0  0  0
  5  6  2  0  0  0  0
  5  7  1  0  0  0  0
  2  3  1  0  0  0  0
  2  4  1  0  0  0  0
  2  5  1  0  0  0  0
  1  2  1  0  0  0  0
 23 24  2  0  0  0  0
 23 25  1  0  0  0  0
 21 22  1  0  0  0  0
 19 20  1  0  0  0  0
 19 21  1  0  0  0  0
 17 18  1  0  0  0  0
 17 19  1  0  0  0  0
 15 16  1  0  0  0  0
 15 17  2  0  0  0  0
 14 15  1  0  0  0  0
 14 21  2  0  0  0  0
 11 12  1  0  0  0  0
 11 13  1  0  0  0  0
 11 14  1  0  0  0  0
  9 10  1  0  0  0  0
  9 11  1  0  0  0  0
  9 23  1  0  0  0  0
  7  8  1  0  0  0  0
  7  9  1  0  0  0  0
 27 28  1  0  0  0  0
 27 29  1  0  0  0  0
 27 30  1  0  0  0  0
 25 26  1  0  0  0  0
 25 27  1  0  0  0  0
M  CHG  1  15   1
M  END
$$$$
default_name
  -OEChem-01062215323D

 30 30  0     1  0  0  0  0  0999 V2000
   -3.5507   -3.2183    1.8116 H   0  0  0  0  0  0  0  0  0  0  0  0
   -3.4597   -2.3913    1.1076 C   0  0  0  0  0  0  0  0  0  0  0  0
   -4.1577   -1.6043    1.3866 H   0  0  0  0  0  0  0  0  0  0  0  0
   -3.6807   -2.7523    0.1036 H   0  0  0  0  0  0  0  0  0  0  0  0
   -2.0477   -1.8543    1.1546 C   0  0  0  0  0  0  0  0  0  0  0  0
   -1.2227   -2.3443    1.9146 O   0  0  0  0  0  0  0  0  0  0  0  0
   -1.7517   -0.8483    0.3266 N   0  0  0  0  0  0  0  0  0  0  0  0
   -2.4847   -0.5123   -0.2804 H   0  0  0  0  0  0  0  0  0  0  0  0
   -0.4117   -0.2463    0.2186 C   0  0  1  0  0  0  0  0  0  0  0  0
    0.2987   -1.0391   -0.0285 H   0  0  0  0  0  0  0  0  0  0  0  0
   -0.4131    0.7505   -0.9636 C   0  0  0  0  0  0  0  0  0  0  0  0
   -1.1852    1.5028   -0.7839 H   0  0  0  0  0  0  0  0  0  0  0  0
    0.5451    1.2739   -0.9877 H   0  0  0  0  0  0  0  0  0  0  0  0
   -0.6458    0.1325   -2.3261 C   0  0  0  0  0  0  0  0  0  0  0  0
    0.2840   -0.5975   -3.0410 N   0  3  0  0  0  0  0  0  0  0  0  0
    1.2094   -0.8437   -2.6780 H   0  0  0  0  0  0  0  0  0  0  0  0
   -0.2795   -0.9824   -4.2033 C   0  0  0  0  0  0  0  0  0  0  0  0
    0.2063   -1.5827   -4.9699 H   0  0  0  0  0  0  0  0  0  0  0  0
   -1.5465   -0.5114   -4.2420 N   0  0  0  0  0  0  0  0  0  0  0  0
   -2.2118   -0.6494   -4.9982 H   0  0  0  0  0  0  0  0  0  0  0  0
   -1.7928    0.1913   -3.0706 C   0  0  0  0  0  0  0  0  0  0  0  0
   -2.7141    0.6937   -2.7892 H   0  0  0  0  0  0  0  0  0  0  0  0
    0.0470    0.3465    1.5629 C   0  0  0  0  0  0  0  0  0  0  0  0
    1.2424    0.3767    1.8592 O   0  0  0  0  0  0  0  0  0  0  0  0
   -0.9162    0.8025    2.3730 N   0  0  0  0  0  0  0  0  0  0  0  0
   -1.8674    0.7470    2.0420 H   0  0  0  0  0  0  0  0  0  0  0  0
   -0.7004    1.3737    3.7059 C   0  0  0  0  0  0  0  0  0  0  0  0
   -0.7496    2.4634    3.6592 H   0  0  0  0  0  0  0  0  0  0  0  0
   -1.4719    1.0200    4.3921 H   0  0  0  0  0  0  0  0  0  0  0  0
    0.2754    1.0830    4.1007 H   0  0  0  0  0  0  0  0  0  0  0  0
  5  6  2  0  0  0  0
  5  7  1  0  0  0  0
  2  3  1  0  0  0  0
  2  4  1  0  0  0  0
  2  5  1  0  0  0  0
  1  2  1  0  0  0  0
 23 24  2  0  0  0  0
 23 25  1  0  0  0  0
 21 22  1  0  0  0  0
 19 20  1  0  0  0  0
 19 21  1  0  0  0  0
 17 18  1  0  0  0  0
 17 19  1  0  0  0  0
 15 16  1  0  0  0  0
 15 17  2  0  0  0  0
 14 15  1  0  0  0  0
 14 21  2  0  0  0  0
 11 12  1  0  0  0  0
 11 13  1  0  0  0  0
 11 14  1  0  0  0  0
  9 10  1  0  0  0  0
  9 11  1  0  0  0  0
  9 23  1  0  0  0  0
  7  8  1  0  0  0  0
  7  9  1  0  0  0  0
 27 28  1  0  0  0  0
 27 29  1  0  0  0  0
 27 30  1  0  0  0  0
 25 26  1  0  0  0  0
 25 27  1  0  0  0  0
M  CHG  1  15   1
M  END
$$$$
default_name
  -OEChem-01062215323D

 30 30  0     1  0  0  0  0  0999 V2000
   -3.5507   -3.2183    1.8116 H   0  0  0  0  0  0  0  0  0  0  0  0
   -3.4597   -2.3913    1.1076 C   0  0  0  0  0  0  0  0  0  0  0  0
   -4.1577   -1.6043    1.3866 H   0  0  0  0  0  0  0  0  0  0  0  0
   -3.6807   -2.7523    0.1036 H   0  0  0  0  0  0  0  0  0  0  0  0
   -2.0477   -1.8543    1.1546 C   0  0  0  0  0  0  0  0  0  0  0  0
   -1.2227   -2.3443    1.9146 O   0  0  0  0  0  0  0  0  0  0  0  0
   -1.7517   -0.8483    0.3266 N   0  0  0  0  0  0  0  0  0  0  0  0
   -2.4847   -0.5123   -0.2804 H   0  0  0  0  0  0  0  0  0  0  0  0
   -0.4117   -0.2463    0.2186 C   0  0  1  0  0  0  0  0  0  0  0  0
    0.2987   -1.0391   -0.0285 H   0  0  0  0  0  0  0  0  0  0  0  0
   -0.4131    0.7505   -0.9636 C   0  0  0  0  0  0  0  0  0  0  0  0
   -1.1852    1.5028   -0.7839 H   0  0  0  0  0  0  0  0  0  0  0  0
    0.5451    1.2739   -0.9877 H   0  0  0  0  0  0  0  0  0  0  0  0
   -0.6458    0.1325   -2.3261 C   0  0  0  0  0  0  0  0  0  0  0  0
    0.2840   -0.5975   -3.0410 N   0  3  0  0  0  0  0  0  0  0  0  0
    1.2094   -0.8437   -2.6780 H   0  0  0  0  0  0  0  0  0  0  0  0
   -0.2795   -0.9824   -4.2033 C   0  0  0  0  0  0  0  0  0  0  0  0
    0.2063   -1.5827   -4.9699 H   0  0  0  0  0  0  0  0  0  0  0  0
   -1.5465   -0.5114   -4.2420 N   0  0  0  0  0  0  0  0  0  0  0  0
   -2.2118   -0.6494   -4.9982 H   0  0  0  0  0  0  0  0  0  0  0  0
   -1.7928    0.1913   -3.0706 C   0  0  0  0  0  0  0  0  0  0  0  0
   -2.7141    0.6937   -2.7892 H   0  0  0  0  0  0  0  0  0  0  0  0
    0.0470    0.3465    1.5629 C   0  0  0  0  0  0  0  0  0  0  0  0
    1.2308    0.6313    1.7509 O   0  0  0  0  0  0  0  0  0  0  0  0
   -0.8997    0.5145    2.4944 N   0  0  0  0  0  0  0  0  0  0  0  0
   -1.8449    0.2637    2.2474 H   0  0  0  0  0  0  0  0  0  0  0  0
   -0.6728    1.0313    3.8474 C   0  0  0  0  0  0  0  0  0  0  0  0
   -0.9675    2.0811    3.9021 H   0  0  0  0  0  0  0  0  0  0  0  0
   -1.2672    0.4654    4.5668 H   0  0  0  0  0  0  0  0  0  0  0  0
    0.3802    0.9475    4.1247 H   0  0  0  0  0  0  0  0  0  0  0  0
  5  6  2  0  0  0  0
  5  7  1  0  0  0  0
  2  3  1  0  0  0  0
  2  4  1  0  0  0  0
  2  5  1  0  0  0  0
  1  2  1  0  0  0  0
 23 24  2  0  0  0  0
 23 25  1  0  0  0  0
 21 22  1  0  0  0  0
 19 20  1  0  0  0  0
 19 21  1  0  0  0  0
 17 18  1  0  0  0  0
 17 19  1  0  0  0  0
 15 16  1  0  0  0  0
 15 17  2  0  0  0  0
 14 15  1  0  0  0  0
 14 21  2  0  0  0  0
 11 12  1  0  0  0  0
 11 13  1  0  0  0  0
 11 14  1  0  0  0  0
  9 10  1  0  0  0  0
  9 11  1  0  0  0  0
  9 23  1  0  0  0  0
  7  8  1  0  0  0  0
  7  9  1  0  0  0  0
 27 28  1  0  0  0  0
 27 29  1  0  0  0  0
 27 30  1  0  0  0  0
 25 26  1  0  0  0  0
 25 27  1  0  0  0  0
M  CHG  1  15   1
M  END
$$$$
default_name
  -OEChem-01062215323D

 30 30  0     1  0  0  0  0  0999 V2000
   -3.5507   -3.2183    1.8116 H   0  0  0  0  0  0  0  0  0  0  0  0
   -3.4597   -2.3913    1.1076 C   0  0  0  0  0  0  0  0  0  0  0  0
   -4.1577   -1.6043    1.3866 H   0  0  0  0  0  0  0  0  0  0  0  0
   -3.6807   -2.7523    0.1036 H   0  0  0  0  0  0  0  0  0  0  0  0
   -2.0477   -1.8543    1.1546 C   0  0  0  0  0  0  0  0  0  0  0  0
   -1.2227   -2.3443    1.9146 O   0  0  0  0  0  0  0  0  0  0  0  0
   -1.7517   -0.8483    0.3266 N   0  0  0  0  0  0  0  0  0  0  0  0
   -2.4847   -0.5123   -0.2804 H   0  0  0  0  0  0  0  0  0  0  0  0
   -0.4117   -0.2463    0.2186 C   0  0  1  0  0  0  0  0  0  0  0  0
    0.2987   -1.0391   -0.0285 H   0  0  0  0  0  0  0  0  0  0  0  0
   -0.4131    0.7505   -0.9636 C   0  0  0  0  0  0  0  0  0  0  0  0
   -1.1852    1.5028   -0.7839 H   0  0  0  0  0  0  0  0  0  0  0  0
    0.5451    1.2739   -0.9877 H   0  0  0  0  0  0  0  0  0  0  0  0
   -0.6458    0.1325   -2.3261 C   0  0  0  0  0  0  0  0  0  0  0  0
    0.2840   -0.5975   -3.0410 N   0  3  0  0  0  0  0  0  0  0  0  0
    1.2094   -0.8437   -2.6780 H   0  0  0  0  0  0  0  0  0  0  0  0
   -0.2795   -0.9824   -4.2033 C   0  0  0  0  0  0  0  0  0  0  0  0
    0.2063   -1.5827   -4.9699 H   0  0  0  0  0  0  0  0  0  0  0  0
   -1.5465   -0.5114   -4.2420 N   0  0  0  0  0  0  0  0  0  0  0  0
   -2.2118   -0.6494   -4.9982 H   0  0  0  0  0  0  0  0  0  0  0  0
   -1.7928    0.1913   -3.0706 C   0  0  0  0  0  0  0  0  0  0  0  0
   -2.7141    0.6937   -2.7892 H   0  0  0  0  0  0  0  0  0  0  0  0
    0.0470    0.3465    1.5629 C   0  0  0  0  0  0  0  0  0  0  0  0
    1.1512    0.8829    1.6671 O   0  0  0  0  0  0  0  0  0  0  0  0
   -0.8065    0.2308    2.5877 N   0  0  0  0  0  0  0  0  0  0  0  0
   -1.6934   -0.2140    2.4064 H   0  0  0  0  0  0  0  0  0  0  0  0
   -0.5545    0.6959    3.9550 C   0  0  0  0  0  0  0  0  0  0  0  0
   -1.0674    1.6439    4.1291 H   0  0  0  0  0  0  0  0  0  0  0  0
   -0.9267   -0.0375    4.6724 H   0  0  0  0  0  0  0  0  0  0  0  0
    0.5144    0.8385    4.1270 H   0  0  0  0  0  0  0  0  0  0  0  0
  5  6  2  0  0  0  0
  5  7  1  0  0  0  0
  2  3  1  0  0  0  0
  2  4  1  0  0  0  0
  2  5  1  0  0  0  0
  1  2  1  0  0  0  0
 23 24  2  0  0  0  0
 23 25  1  0  0  0  0
 21 22  1  0  0  0  0
 19 20  1  0  0  0  0
 19 21  1  0  0  0  0
 17 18  1  0  0  0  0
 17 19  1  0  0  0  0
 15 16  1  0  0  0  0
 15 17  2  0  0  0  0
 14 15  1  0  0  0  0
 14 21  2  0  0  0  0
 11 12  1  0  0  0  0
 11 13  1  0  0  0  0
 11 14  1  0  0  0  0
  9 10  1  0  0  0  0
  9 11  1  0  0  0  0
  9 23  1  0  0  0  0
  7  8  1  0  0  0  0
  7  9  1  0  0  0  0
 27 28  1  0  0  0  0
 27 29  1  0  0  0  0
 27 30  1  0  0  0  0
 25 26  1  0  0  0  0
 25 27  1  0  0  0  0
M  CHG  1  15   1
M  END
$$$$
default_name
  -OEChem-01062215323D

 30 30  0     1  0  0  0  0  0999 V2000
   -3.5507   -3.2183    1.8116 H   0  0  0  0  0  0  0  0  0  0  0  0
   -3.4597   -2.3913    1.1076 C   0  0  0  0  0  0  0  0  0  0  0  0
   -4.1577   -1.6043    1.3866 H   0  0  0  0  0  0  0  0  0  0  0  0
   -3.6807   -2.7523    0.1036 H   0  0  0  0  0  0  0  0  0  0  0  0
   -2.0477   -1.8543    1.1546 C   0  0  0  0  0  0  0  0  0  0  0  0
   -1.2227   -2.3443    1.9146 O   0  0  0  0  0  0  0  0  0  0  0  0
   -1.7517   -0.8483    0.3266 N   0  0  0  0  0  0  0  0  0  0  0  0
   -2.4847   -0.5123   -0.2804 H   0  0  0  0  0  0  0  0  0  0  0  0
   -0.4117   -0.2463    0.2186 C   0  0  1  0  0  0  0  0  0  0  0  0
    0.2987   -1.0391   -0.0285 H   0  0  0  0  0  0  0  0  0  0  0  0
   -0.4131    0.7505   -0.9636 C   0  0  0  0  0  0  0  0  0  0  0  0
   -1.1852    1.5028   -0.7839 H   0  0  0  0  0  0  0  0  0  0  0  0
    0.5451    1.2739   -0.9877 H   0  0  0  0  0  0  0  0  0  0  0  0
   -0.6458    0.1325   -2.3261 C   0  0  0  0  0  0  0  0  0  0  0  0
    0.2840   -0.5975   -3.0410 N   0  3  0  0  0  0  0  0  0  0  0  0
    1.2094   -0.8437   -2.6780 H   0  0  0  0  0  0  0  0  0  0  0  0
   -0.2795   -0.9824   -4.2033 C   0  0  0  0  0  0  0  0  0  0  0  0
    0.2063   -1.5827   -4.9699 H   0  0  0  0  0  0  0  0  0  0  0  0
   -1.5465   -0.5114   -4.2420 N   0  0  0  0  0  0  0  0  0  0  0  0
   -2.2118   -0.6494   -4.9982 H   0  0  0  0  0  0  0  0  0  0  0  0
   -1.7928    0.1913   -3.0706 C   0  0  0  0  0  0  0  0  0  0  0  0
   -2.7141    0.6937   -2.7892 H   0  0  0  0  0  0  0  0  0  0  0  0
    0.0470    0.3465    1.5629 C   0  0  0  0  0  0  0  0  0  0  0  0
    1.0090    1.1144    1.6135 O   0  0  0  0  0  0  0  0  0  0  0  0
   -0.6430   -0.0294    2.6467 N   0  0  0  0  0  0  0  0  0  0  0  0
   -1.4233   -0.6533    2.5080 H   0  0  0  0  0  0  0  0  0  0  0  0
   -0.3538    0.3903    4.0213 C   0  0  0  0  0  0  0  0  0  0  0  0
   -1.0425    1.1814    4.3245 H   0  0  0  0  0  0  0  0  0  0  0  0
   -0.4736   -0.4545    4.7017 H   0  0  0  0  0  0  0  0  0  0  0  0
    0.6690    0.7633    4.1074 H   0  0  0  0  0  0  0  0  0  0  0  0
  5  6  2  0  0  0  0
  5  7  1  0  0  0  0
  2  3  1  0  0  0  0
  2  4  1  0  0  0  0
  2  5  1  0  0  0  0
  1  2  1  0  0  0  0
 23 24  2  0  0  0  0
 23 25  1  0  0  0  0
 21 22  1  0  0  0  0
 19 20  1  0  0  0  0
 19 21  1  0  0  0  0
 17 18  1  0  0  0  0
 17 19  1  0  0  0  0
 15 16  1  0  0  0  0
 15 17  2  0  0  0  0
 14 15  1  0  0  0  0
 14 21  2  0  0  0  0
 11 12  1  0  0  0  0
 11 13  1  0  0  0  0
 11 14  1  0  0  0  0
  9 10  1  0  0  0  0
  9 11  1  0  0  0  0
  9 23  1  0  0  0  0
  7  8  1  0  0  0  0
  7  9  1  0  0  0  0
 27 28  1  0  0  0  0
 27 29  1  0  0  0  0
 27 30  1  0  0  0  0
 25 26  1  0  0  0  0
 25 27  1  0  0  0  0
M  CHG  1  15   1
M  END
$$$$
default_name
  -OEChem-01062215323D

 30 30  0     1  0  0  0  0  0999 V2000
   -3.5507   -3.2183    1.8116 H   0  0  0  0  0  0  0  0  0  0  0  0
   -3.4597   -2.3913    1.1076 C   0  0  0  0  0  0  0  0  0  0  0  0
   -4.1577   -1.6043    1.3866 H   0  0  0  0  0  0  0  0  0  0  0  0
   -3.6807   -2.7523    0.1036 H   0  0  0  0  0  0  0  0  0  0  0  0
   -2.0477   -1.8543    1.1546 C   0  0  0  0  0  0  0  0  0  0  0  0
   -1.2227   -2.3443    1.9146 O   0  0  0  0  0  0  0  0  0  0  0  0
   -1.7517   -0.8483    0.3266 N   0  0  0  0  0  0  0  0  0  0  0  0
   -2.4847   -0.5123   -0.2804 H   0  0  0  0  0  0  0  0  0  0  0  0
   -0.4117   -0.2463    0.2186 C   0  0  1  0  0  0  0  0  0  0  0  0
    0.2987   -1.0391   -0.0285 H   0  0  0  0  0  0  0  0  0  0  0  0
   -0.4131    0.7505   -0.9636 C   0  0  0  0  0  0  0  0  0  0  0  0
   -1.1852    1.5028   -0.7839 H   0  0  0  0  0  0  0  0  0  0  0  0
    0.5451    1.2739   -0.9877 H   0  0  0  0  0  0  0  0  0  0  0  0
   -0.6458    0.1325   -2.3261 C   0  0  0  0  0  0  0  0  0  0  0  0
    0.2840   -0.5975   -3.0410 N   0  3  0  0  0  0  0  0  0  0  0  0
    1.2094   -0.8437   -2.6780 H   0  0  0  0  0  0  0  0  0  0  0  0
   -0.2795   -0.9824   -4.2033 C   0  0  0  0  0  0  0  0  0  0  0  0
    0.2063   -1.5827   -4.9699 H   0  0  0  0  0  0  0  0  0  0  0  0
   -1.5465   -0.5114   -4.2420 N   0  0  0  0  0  0  0  0  0  0  0  0
   -2.2118   -0.6494   -4.9982 H   0  0  0  0  0  0  0  0  0  0  0  0
   -1.7928    0.1913   -3.0706 C   0  0  0  0  0  0  0  0  0  0  0  0
   -2.7141    0.6937   -2.7892 H   0  0  0  0  0  0  0  0  0  0  0  0
    0.0470    0.3465    1.5629 C   0  0  0  0  0  0  0  0  0  0  0  0
    0.8141    1.3101    1.5937 O   0  0  0  0  0  0  0  0  0  0  0  0
   -0.4204   -0.2484    2.6673 N   0  0  0  0  0  0  0  0  0  0  0  0
   -1.0530   -1.0245    2.5453 H   0  0  0  0  0  0  0  0  0  0  0  0
   -0.0842    0.1354    4.0417 C   0  0  0  0  0  0  0  0  0  0  0  0
   -0.8943    0.7253    4.4751 H   0  0  0  0  0  0  0  0  0  0  0  0
    0.0613   -0.7571    4.6527 H   0  0  0  0  0  0  0  0  0  0  0  0
    0.8333    0.7272    4.0673 H   0  0  0  0  0  0  0  0  0  0  0  0
  5  6  2  0  0  0  0
  5  7  1  0  0  0  0
  2  3  1  0  0  0  0
  2  4  1  0  0  0  0
  2  5  1  0  0  0  0
  1  2  1  0  0  0  0
 23 24  2  0  0  0  0
 23 25  1  0  0  0  0
 21 22  1  0  0  0  0
 19 20  1  0  0  0  0
 19 21  1  0  0  0  0
 17 18  1  0  0  0  0
 17 19  1  0  0  0  0
 15 16  1  0  0  0  0
 15 17  2  0  0  0  0
 14 15  1  0  0  0  0
 14 21  2  0  0  0  0
 11 12  1  0  0  0  0
 11 13  1  0  0  0  0
 11 14  1  0  0  0  0
  9 10  1  0  0  0  0
  9 11  1  0  0  0  0
  9 23  1  0  0  0  0
  7  8  1  0  0  0  0
  7  9  1  0  0  0  0
 27 28  1  0  0  0  0
 27 29  1  0  0  0  0
 27 30  1  0  0  0  0
 25 26  1  0  0  0  0
 25 27  1  0  0  0  0
M  CHG  1  15   1
M  END
$$$$
default_name
  -OEChem-01062215323D

 30 30  0     1  0  0  0  0  0999 V2000
   -3.5507   -3.2183    1.8116 H   0  0  0  0  0  0  0  0  0  0  0  0
   -3.4597   -2.3913    1.1076 C   0  0  0  0  0  0  0  0  0  0  0  0
   -4.1577   -1.6043    1.3866 H   0  0  0  0  0  0  0  0  0  0  0  0
   -3.6807   -2.7523    0.1036 H   0  0  0  0  0  0  0  0  0  0  0  0
   -2.0477   -1.8543    1.1546 C   0  0  0  0  0  0  0  0  0  0  0  0
   -1.2227   -2.3443    1.9146 O   0  0  0  0  0  0  0  0  0  0  0  0
   -1.7517   -0.8483    0.3266 N   0  0  0  0  0  0  0  0  0  0  0  0
   -2.4847   -0.5123   -0.2804 H   0  0  0  0  0  0  0  0  0  0  0  0
   -0.4117   -0.2463    0.2186 C   0  0  1  0  0  0  0  0  0  0  0  0
    0.2987   -1.0391   -0.0285 H   0  0  0  0  0  0  0  0  0  0  0  0
   -0.4131    0.7505   -0.9636 C   0  0  0  0  0  0  0  0  0  0  0  0
   -1.1852    1.5028   -0.7839 H   0  0  0  0  0  0  0  0  0  0  0  0
    0.5451    1.2739   -0.9877 H   0  0  0  0  0  0  0  0  0  0  0  0
   -0.6458    0.1325   -2.3261 C   0  0  0  0  0  0  0  0  0  0  0  0
    0.2840   -0.5975   -3.0410 N   0  3  0  0  0  0  0  0  0  0  0  0
    1.2094   -0.8437   -2.6780 H   0  0  0  0  0  0  0  0  0  0  0  0
   -0.2795   -0.9824   -4.2033 C   0  0  0  0  0  0  0  0  0  0  0  0
    0.2063   -1.5827   -4.9699 H   0  0  0  0  0  0  0  0  0  0  0  0
   -1.5465   -0.5114   -4.2420 N   0  0  0  0  0  0  0  0  0  0  0  0
   -2.2118   -0.6494   -4.9982 H   0  0  0  0  0  0  0  0  0  0  0  0
   -1.7928    0.1913   -3.0706 C   0  0  0  0  0  0  0  0  0  0  0  0
   -2.7141    0.6937   -2.7892 H   0  0  0  0  0  0  0  0  0  0  0  0
    0.0470    0.3465    1.5629 C   0  0  0  0  0  0  0  0  0  0  0  0
    0.5796    1.4565    1.6092 O   0  0  0  0  0  0  0  0  0  0  0  0
   -0.1539   -0.4111    2.6481 N   0  0  0  0  0  0  0  0  0  0  0  0
   -0.6076   -1.3022    2.5158 H   0  0  0  0  0  0  0  0  0  0  0  0
    0.2359   -0.0514    4.0149 C   0  0  0  0  0  0  0  0  0  0  0  0
   -0.6331    0.3066    4.5706 H   0  0  0  0  0  0  0  0  0  0  0  0
    0.6414   -0.9247    4.5286 H   0  0  0  0  0  0  0  0  0  0  0  0
    0.9962    0.7325    4.0094 H   0  0  0  0  0  0  0  0  0  0  0  0
  5  6  2  0  0  0  0
  5  7  1  0  0  0  0
  2  3  1  0  0  0  0
  2  4  1  0  0  0  0
  2  5  1  0  0  0  0
  1  2  1  0  0  0  0
 23 24  2  0  0  0  0
 23 25  1  0  0  0  0
 21 22  1  0  0  0  0
 19 20  1  0  0  0  0
 19 21  1  0  0  0  0
 17 18  1  0  0  0  0
 17 19  1  0  0  0  0
 15 16  1  0  0  0  0
 15 17  2  0  0  0  0
 14 15  1  0  0  0  0
 14 21  2  0  0  0  0
 11 12  1  0  0  0  0
 11 13  1  0  0  0  0
 11 14  1  0  0  0  0
  9 10  1  0  0  0  0
  9 11  1  0  0  0  0
  9 23  1  0  0  0  0
  7  8  1  0  0  0  0
  7  9  1  0  0  0  0
 27 28  1  0  0  0  0
 27 29  1  0  0  0  0
 27 30  1  0  0  0  0
 25 26  1  0  0  0  0
 25 27  1  0  0  0  0
M  CHG  1  15   1
M  END
$$$$
default_name
  -OEChem-01062215323D

 30 30  0     1  0  0  0  0  0999 V2000
   -3.5507   -3.2183    1.8116 H   0  0  0  0  0  0  0  0  0  0  0  0
   -3.4597   -2.3913    1.1076 C   0  0  0  0  0  0  0  0  0  0  0  0
   -4.1577   -1.6043    1.3866 H   0  0  0  0  0  0  0  0  0  0  0  0
   -3.6807   -2.7523    0.1036 H   0  0  0  0  0  0  0  0  0  0  0  0
   -2.0477   -1.8543    1.1546 C   0  0  0  0  0  0  0  0  0  0  0  0
   -1.2227   -2.3443    1.9146 O   0  0  0  0  0  0  0  0  0  0  0  0
   -1.7517   -0.8483    0.3266 N   0  0  0  0  0  0  0  0  0  0  0  0
   -2.4847   -0.5123   -0.2804 H   0  0  0  0  0  0  0  0  0  0  0  0
   -0.4117   -0.2463    0.2186 C   0  0  1  0  0  0  0  0  0  0  0  0
    0.2987   -1.0391   -0.0285 H   0  0  0  0  0  0  0  0  0  0  0  0
   -0.4131    0.7505   -0.9636 C   0  0  0  0  0  0  0  0  0  0  0  0
   -1.1852    1.5028   -0.7839 H   0  0  0  0  0  0  0  0  0  0  0  0
    0.5451    1.2739   -0.9877 H   0  0  0  0  0  0  0  0  0  0  0  0
   -0.6458    0.1325   -2.3261 C   0  0  0  0  0  0  0  0  0  0  0  0
    0.2840   -0.5975   -3.0410 N   0  3  0  0  0  0  0  0  0  0  0  0
    1.2094   -0.8437   -2.6780 H   0  0  0  0  0  0  0  0  0  0  0  0
   -0.2795   -0.9824   -4.2033 C   0  0  0  0  0  0  0  0  0  0  0  0
    0.2063   -1.5827   -4.9699 H   0  0  0  0  0  0  0  0  0  0  0  0
   -1.5465   -0.5114   -4.2420 N   0  0  0  0  0  0  0  0  0  0  0  0
   -2.2118   -0.6494   -4.9982 H   0  0  0  0  0  0  0  0  0  0  0  0
   -1.7928    0.1913   -3.0706 C   0  0  0  0  0  0  0  0  0  0  0  0
   -2.7141    0.6937   -2.7892 H   0  0  0  0  0  0  0  0  0  0  0  0
    0.0470    0.3465    1.5629 C   0  0  0  0  0  0  0  0  0  0  0  0
    0.3215    1.5437    1.6588 O   0  0  0  0  0  0  0  0  0  0  0  0
    0.1385   -0.5066    2.5904 N   0  0  0  0  0  0  0  0  0  0  0  0
   -0.1176   -1.4675    2.4214 H   0  0  0  0  0  0  0  0  0  0  0  0
    0.5846   -0.1574    3.9426 C   0  0  0  0  0  0  0  0  0  0  0  0
   -0.2766   -0.0461    4.6045 H   0  0  0  0  0  0  0  0  0  0  0  0
    1.2273   -0.9459    4.3381 H   0  0  0  0  0  0  0  0  0  0  0  0
    1.1466    0.7789    3.9376 H   0  0  0  0  0  0  0  0  0  0  0  0
  5  6  2  0  0  0  0
  5  7  1  0  0  0  0
  2  3  1  0  0  0  0
  2  4  1  0  0  0  0
  2  5  1  0  0  0  0
  1  2  1  0  0  0  0
 23 24  2  0  0  0  0
 23 25  1  0  0  0  0
 21 22  1  0  0  0  0
 19 20  1  0  0  0  0
 19 21  1  0  0  0  0
 17 18  1  0  0  0  0
 17 19  1  0  0  0  0
 15 16  1  0  0  0  0
 15 17  2  0  0  0  0
 14 15  1  0  0  0  0
 14 21  2  0  0  0  0
 11 12  1  0  0  0  0
 11 13  1  0  0  0  0
 11 14  1  0  0  0  0
  9 10  1  0  0  0  0
  9 11  1  0  0  0  0
  9 23  1  0  0  0  0
  7  8  1  0  0  0  0
  7  9  1  0  0  0  0
 27 28  1  0  0  0  0
 27 29  1  0  0  0  0
 27 30  1  0  0  0  0
 25 26  1  0  0  0  0
 25 27  1  0  0  0  0
M  CHG  1  15   1
M  END
$$$$
default_name
  -OEChem-01062215323D

 30 30  0     1  0  0  0  0  0999 V2000
   -3.5507   -3.2183    1.8116 H   0  0  0  0  0  0  0  0  0  0  0  0
   -3.4597   -2.3913    1.1076 C   0  0  0  0  0  0  0  0  0  0  0  0
   -4.1577   -1.6043    1.3866 H   0  0  0  0  0  0  0  0  0  0  0  0
   -3.6807   -2.7523    0.1036 H   0  0  0  0  0  0  0  0  0  0  0  0
   -2.0477   -1.8543    1.1546 C   0  0  0  0  0  0  0  0  0  0  0  0
   -1.2227   -2.3443    1.9146 O   0  0  0  0  0  0  0  0  0  0  0  0
   -1.7517   -0.8483    0.3266 N   0  0  0  0  0  0  0  0  0  0  0  0
   -2.4847   -0.5123   -0.2804 H   0  0  0  0  0  0  0  0  0  0  0  0
   -0.4117   -0.2463    0.2186 C   0  0  1  0  0  0  0  0  0  0  0  0
    0.2987   -1.0391   -0.0285 H   0  0  0  0  0  0  0  0  0  0  0  0
   -0.4131    0.7505   -0.9636 C   0  0  0  0  0  0  0  0  0  0  0  0
   -1.1852    1.5028   -0.7839 H   0  0  0  0  0  0  0  0  0  0  0  0
    0.5451    1.2739   -0.9877 H   0  0  0  0  0  0  0  0  0  0  0  0
   -0.6458    0.1325   -2.3261 C   0  0  0  0  0  0  0  0  0  0  0  0
    0.2840   -0.5975   -3.0410 N   0  3  0  0  0  0  0  0  0  0  0  0
    1.2094   -0.8437   -2.6780 H   0  0  0  0  0  0  0  0  0  0  0  0
   -0.2795   -0.9824   -4.2033 C   0  0  0  0  0  0  0  0  0  0  0  0
    0.2063   -1.5827   -4.9699 H   0  0  0  0  0  0  0  0  0  0  0  0
   -1.5465   -0.5114   -4.2420 N   0  0  0  0  0  0  0  0  0  0  0  0
   -2.2118   -0.6494   -4.9982 H   0  0  0  0  0  0  0  0  0  0  0  0
   -1.7928    0.1913   -3.0706 C   0  0  0  0  0  0  0  0  0  0  0  0
   -2.7141    0.6937   -2.7892 H   0  0  0  0  0  0  0  0  0  0  0  0
    0.0470    0.3465    1.5629 C   0  0  0  0  0  0  0  0  0  0  0  0
    0.0574    1.5658    1.7391 O   0  0  0  0  0  0  0  0  0  0  0  0
    0.4367   -0.5283    2.4982 N   0  0  0  0  0  0  0  0  0  0  0  0
    0.3837   -1.5091    2.2687 H   0  0  0  0  0  0  0  0  0  0  0  0
    0.9382   -0.1755    3.8299 C   0  0  0  0  0  0  0  0  0  0  0  0
    0.1508   -0.3089    4.5745 H   0  0  0  0  0  0  0  0  0  0  0  0
    1.7790   -0.8192    4.0939 H   0  0  0  0  0  0  0  0  0  0  0  0
    1.2742    0.8633    3.8568 H   0  0  0  0  0  0  0  0  0  0  0  0
  5  6  2  0  0  0  0
  5  7  1  0  0  0  0
  2  3  1  0  0  0  0
  2  4  1  0  0  0  0
  2  5  1  0  0  0  0
  1  2  1  0  0  0  0
 23 24  2  0  0  0  0
 23 25  1  0  0  0  0
 21 22  1  0  0  0  0
 19 20  1  0  0  0  0
 19 21  1  0  0  0  0
 17 18  1  0  0  0  0
 17 19  1  0  0  0  0
 15 16  1  0  0  0  0
 15 17  2  0  0  0  0
 14 15  1  0  0  0  0
 14 21  2  0  0  0  0
 11 12  1  0  0  0  0
 11 13  1  0  0  0  0
 11 14  1  0  0  0  0
  9 10  1  0  0  0  0
  9 11  1  0  0  0  0
  9 23  1  0  0  0  0
  7  8  1  0  0  0  0
  7  9  1  0  0  0  0
 27 28  1  0  0  0  0
 27 29  1  0  0  0  0
 27 30  1  0  0  0  0
 25 26  1  0  0  0  0
 25 27  1  0  0  0  0
M  CHG  1  15   1
M  END
$$$$
default_name
  -OEChem-01062215323D

 30 30  0     1  0  0  0  0  0999 V2000
   -3.5507   -3.2183    1.8116 H   0  0  0  0  0  0  0  0  0  0  0  0
   -3.4597   -2.3913    1.1076 C   0  0  0  0  0  0  0  0  0  0  0  0
   -4.1577   -1.6043    1.3866 H   0  0  0  0  0  0  0  0  0  0  0  0
   -3.6807   -2.7523    0.1036 H   0  0  0  0  0  0  0  0  0  0  0  0
   -2.0477   -1.8543    1.1546 C   0  0  0  0  0  0  0  0  0  0  0  0
   -1.2227   -2.3443    1.9146 O   0  0  0  0  0  0  0  0  0  0  0  0
   -1.7517   -0.8483    0.3266 N   0  0  0  0  0  0  0  0  0  0  0  0
   -2.4847   -0.5123   -0.2804 H   0  0  0  0  0  0  0  0  0  0  0  0
   -0.4117   -0.2463    0.2186 C   0  0  1  0  0  0  0  0  0  0  0  0
    0.2987   -1.0391   -0.0285 H   0  0  0  0  0  0  0  0  0  0  0  0
   -0.4131    0.7505   -0.9636 C   0  0  0  0  0  0  0  0  0  0  0  0
   -1.1852    1.5028   -0.7839 H   0  0  0  0  0  0  0  0  0  0  0  0
    0.5451    1.2739   -0.9877 H   0  0  0  0  0  0  0  0  0  0  0  0
   -0.6458    0.1325   -2.3261 C   0  0  0  0  0  0  0  0  0  0  0  0
    0.2840   -0.5975   -3.0410 N   0  3  0  0  0  0  0  0  0  0  0  0
    1.2094   -0.8437   -2.6780 H   0  0  0  0  0  0  0  0  0  0  0  0
   -0.2795   -0.9824   -4.2033 C   0  0  0  0  0  0  0  0  0  0  0  0
    0.2063   -1.5827   -4.9699 H   0  0  0  0  0  0  0  0  0  0  0  0
   -1.5465   -0.5114   -4.2420 N   0  0  0  0  0  0  0  0  0  0  0  0
   -2.2118   -0.6494   -4.9982 H   0  0  0  0  0  0  0  0  0  0  0  0
   -1.7928    0.1913   -3.0706 C   0  0  0  0  0  0  0  0  0  0  0  0
   -2.7141    0.6937   -2.7892 H   0  0  0  0  0  0  0  0  0  0  0  0
    0.0470    0.3465    1.5629 C   0  0  0  0  0  0  0  0  0  0  0  0
   -0.1946    1.5212    1.8448 O   0  0  0  0  0  0  0  0  0  0  0  0
    0.7205   -0.4747    2.3778 N   0  0  0  0  0  0  0  0  0  0  0  0
    0.8621   -1.4241    2.0681 H   0  0  0  0  0  0  0  0  0  0  0  0
    1.2726   -0.1042    3.6844 C   0  0  0  0  0  0  0  0  0  0  0  0
    0.6201   -0.4638    4.4827 H   0  0  0  0  0  0  0  0  0  0  0  0
    2.2589   -0.5533    3.8129 H   0  0  0  0  0  0  0  0  0  0  0  0
    1.3703    0.9798    3.7726 H   0  0  0  0  0  0  0  0  0  0  0  0
  5  6  2  0  0  0  0
  5  7  1  0  0  0  0
  2  3  1  0  0  0  0
  2  4  1  0  0  0  0
  2  5  1  0  0  0  0
  1  2  1  0  0  0  0
 23 24  2  0  0  0  0
 23 25  1  0  0  0  0
 21 22  1  0  0  0  0
 19 20  1  0  0  0  0
 19 21  1  0  0  0  0
 17 18  1  0  0  0  0
 17 19  1  0  0  0  0
 15 16  1  0  0  0  0
 15 17  2  0  0  0  0
 14 15  1  0  0  0  0
 14 21  2  0  0  0  0
 11 12  1  0  0  0  0
 11 13  1  0  0  0  0
 11 14  1  0  0  0  0
  9 10  1  0  0  0  0
  9 11  1  0  0  0  0
  9 23  1  0  0  0  0
  7  8  1  0  0  0  0
  7  9  1  0  0  0  0
 27 28  1  0  0  0  0
 27 29  1  0  0  0  0
 27 30  1  0  0  0  0
 25 26  1  0  0  0  0
 25 27  1  0  0  0  0
M  CHG  1  15   1
M  END
$$$$
default_name
  -OEChem-01062215323D

 30 30  0     1  0  0  0  0  0999 V2000
   -3.5507   -3.2183    1.8116 H   0  0  0  0  0  0  0  0  0  0  0  0
   -3.4597   -2.3913    1.1076 C   0  0  0  0  0  0  0  0  0  0  0  0
   -4.1577   -1.6043    1.3866 H   0  0  0  0  0  0  0  0  0  0  0  0
   -3.6807   -2.7523    0.1036 H   0  0  0  0  0  0  0  0  0  0  0  0
   -2.0477   -1.8543    1.1546 C   0  0  0  0  0  0  0  0  0  0  0  0
   -1.2227   -2.3443    1.9146 O   0  0  0  0  0  0  0  0  0  0  0  0
   -1.7517   -0.8483    0.3266 N   0  0  0  0  0  0  0  0  0  0  0  0
   -2.4847   -0.5123   -0.2804 H   0  0  0  0  0  0  0  0  0  0  0  0
   -0.4117   -0.2463    0.2186 C   0  0  1  0  0  0  0  0  0  0  0  0
    0.2987   -1.0391   -0.0285 H   0  0  0  0  0  0  0  0  0  0  0  0
   -0.4131    0.7505   -0.9636 C   0  0  0  0  0  0  0  0  0  0  0  0
   -1.1852    1.5028   -0.7839 H   0  0  0  0  0  0  0  0  0  0  0  0
    0.5451    1.2739   -0.9877 H   0  0  0  0  0  0  0  0  0  0  0  0
   -0.6458    0.1325   -2.3261 C   0  0  0  0  0  0  0  0  0  0  0  0
    0.2840   -0.5975   -3.0410 N   0  3  0  0  0  0  0  0  0  0  0  0
    1.2094   -0.8437   -2.6780 H   0  0  0  0  0  0  0  0  0  0  0  0
   -0.2795   -0.9824   -4.2033 C   0  0  0  0  0  0  0  0  0  0  0  0
    0.2063   -1.5827   -4.9699 H   0  0  0  0  0  0  0  0  0  0  0  0
   -1.5465   -0.5114   -4.2420 N   0  0  0  0  0  0  0  0  0  0  0  0
   -2.2118   -0.6494   -4.9982 H   0  0  0  0  0  0  0  0  0  0  0  0
   -1.7928    0.1913   -3.0706 C   0  0  0  0  0  0  0  0  0  0  0  0
   -2.7141    0.6937   -2.7892 H   0  0  0  0  0  0  0  0  0  0  0  0
    0.0470    0.3465    1.5629 C   0  0  0  0  0  0  0  0  0  0  0  0
   -0.4175    1.4131    1.9685 O   0  0  0  0  0  0  0  0  0  0  0  0
    0.9705   -0.3495    2.2373 N   0  0  0  0  0  0  0  0  0  0  0  0
    1.2849   -1.2185    1.8331 H   0  0  0  0  0  0  0  0  0  0  0  0
    1.5649    0.0514    3.5161 C   0  0  0  0  0  0  0  0  0  0  0  0
    1.0993   -0.5002    4.3353 H   0  0  0  0  0  0  0  0  0  0  0  0
    2.6344   -0.1663    3.5141 H   0  0  0  0  0  0  0  0  0  0  0  0
    1.4284    1.1207    3.6907 H   0  0  0  0  0  0  0  0  0  0  0  0
  5  6  2  0  0  0  0
  5  7  1  0  0  0  0
  2  3  1  0  0  0  0
  2  4  1  0  0  0  0
  2  5  1  0  0  0  0
  1  2  1  0  0  0  0
 23 24  2  0  0  0  0
 23 25  1  0  0  0  0
 21 22  1  0  0  0  0
 19 20  1  0  0  0  0
 19 21  1  0  0  0  0
 17 18  1  0  0  0  0
 17 19  1  0  0  0  0
 15 16  1  0  0  0  0
 15 17  2  0  0  0  0
 14 15  1  0  0  0  0
 14 21  2  0  0  0  0
 11 12  1  0  0  0  0
 11 13  1  0  0  0  0
 11 14  1  0  0  0  0
  9 10  1  0  0  0  0
  9 11  1  0  0  0  0
  9 23  1  0  0  0  0
  7  8  1  0  0  0  0
  7  9  1  0  0  0  0
 27 28  1  0  0  0  0
 27 29  1  0  0  0  0
 27 30  1  0  0  0  0
 25 26  1  0  0  0  0
 25 27  1  0  0  0  0
M  CHG  1  15   1
M  END
$$$$
default_name
  -OEChem-01062215323D

 30 30  0     1  0  0  0  0  0999 V2000
   -3.5507   -3.2183    1.8116 H   0  0  0  0  0  0  0  0  0  0  0  0
   -3.4597   -2.3913    1.1076 C   0  0  0  0  0  0  0  0  0  0  0  0
   -4.1577   -1.6043    1.3866 H   0  0  0  0  0  0  0  0  0  0  0  0
   -3.6807   -2.7523    0.1036 H   0  0  0  0  0  0  0  0  0  0  0  0
   -2.0477   -1.8543    1.1546 C   0  0  0  0  0  0  0  0  0  0  0  0
   -1.2227   -2.3443    1.9146 O   0  0  0  0  0  0  0  0  0  0  0  0
   -1.7517   -0.8483    0.3266 N   0  0  0  0  0  0  0  0  0  0  0  0
   -2.4847   -0.5123   -0.2804 H   0  0  0  0  0  0  0  0  0  0  0  0
   -0.4117   -0.2463    0.2186 C   0  0  1  0  0  0  0  0  0  0  0  0
    0.2987   -1.0391   -0.0285 H   0  0  0  0  0  0  0  0  0  0  0  0
   -0.4131    0.7505   -0.9636 C   0  0  0  0  0  0  0  0  0  0  0  0
   -1.1852    1.5028   -0.7839 H   0  0  0  0  0  0  0  0  0  0  0  0
    0.5451    1.2739   -0.9877 H   0  0  0  0  0  0  0  0  0  0  0  0
   -0.6458    0.1325   -2.3261 C   0  0  0  0  0  0  0  0  0  0  0  0
    0.2840   -0.5975   -3.0410 N   0  3  0  0  0  0  0  0  0  0  0  0
    1.2094   -0.8437   -2.6780 H   0  0  0  0  0  0  0  0  0  0  0  0
   -0.2795   -0.9824   -4.2033 C   0  0  0  0  0  0  0  0  0  0  0  0
    0.2063   -1.5827   -4.9699 H   0  0  0  0  0  0  0  0  0  0  0  0
   -1.5465   -0.5114   -4.2420 N   0  0  0  0  0  0  0  0  0  0  0  0
   -2.2118   -0.6494   -4.9982 H   0  0  0  0  0  0  0  0  0  0  0  0
   -1.7928    0.1913   -3.0706 C   0  0  0  0  0  0  0  0  0  0  0  0
   -2.7141    0.6937   -2.7892 H   0  0  0  0  0  0  0  0  0  0  0  0
    0.0470    0.3465    1.5629 C   0  0  0  0  0  0  0  0  0  0  0  0
   -0.5959    1.2487    2.1019 O   0  0  0  0  0  0  0  0  0  0  0  0
    1.1696   -0.1612    2.0863 N   0  0  0  0  0  0  0  0  0  0  0  0
    1.6235   -0.9061    1.5798 H   0  0  0  0  0  0  0  0  0  0  0  0
    1.7954    0.2807    3.3363 C   0  0  0  0  0  0  0  0  0  0  0  0
    1.5557   -0.4157    4.1423 H   0  0  0  0  0  0  0  0  0  0  0  0
    2.8798    0.3155    3.2180 H   0  0  0  0  0  0  0  0  0  0  0  0
    1.4445    1.2761    3.6166 H   0  0  0  0  0  0  0  0  0  0  0  0
  5  6  2  0  0  0  0
  5  7  1  0  0  0  0
  2  3  1  0  0  0  0
  2  4  1  0  0  0  0
  2  5  1  0  0  0  0
  1  2  1  0  0  0  0
 23 24  2  0  0  0  0
 23 25  1  0  0  0  0
 21 22  1  0  0  0  0
 19 20  1  0  0  0  0
 19 21  1  0  0  0  0
 17 18  1  0  0  0  0
 17 19  1  0  0  0  0
 15 16  1  0  0  0  0
 15 17  2  0  0  0  0
 14 15  1  0  0  0  0
 14 21  2  0  0  0  0
 11 12  1  0  0  0  0
 11 13  1  0  0  0  0
 11 14  1  0  0  0  0
  9 10  1  0  0  0  0
  9 11  1  0  0  0  0
  9 23  1  0  0  0  0
  7  8  1  0  0  0  0
  7  9  1  0  0  0  0
 27 28  1  0  0  0  0
 27 29  1  0  0  0  0
 27 30  1  0  0  0  0
 25 26  1  0  0  0  0
 25 27  1  0  0  0  0
M  CHG  1  15   1
M  END
$$$$
default_name
  -OEChem-01062215323D

 30 30  0     1  0  0  0  0  0999 V2000
   -3.5507   -3.2183    1.8116 H   0  0  0  0  0  0  0  0  0  0  0  0
   -3.4597   -2.3913    1.1076 C   0  0  0  0  0  0  0  0  0  0  0  0
   -4.1577   -1.6043    1.3866 H   0  0  0  0  0  0  0  0  0  0  0  0
   -3.6807   -2.7523    0.1036 H   0  0  0  0  0  0  0  0  0  0  0  0
   -2.0477   -1.8543    1.1546 C   0  0  0  0  0  0  0  0  0  0  0  0
   -1.2227   -2.3443    1.9146 O   0  0  0  0  0  0  0  0  0  0  0  0
   -1.7517   -0.8483    0.3266 N   0  0  0  0  0  0  0  0  0  0  0  0
   -2.4847   -0.5123   -0.2804 H   0  0  0  0  0  0  0  0  0  0  0  0
   -0.4117   -0.2463    0.2186 C   0  0  1  0  0  0  0  0  0  0  0  0
    0.2987   -1.0391   -0.0285 H   0  0  0  0  0  0  0  0  0  0  0  0
   -0.4131    0.7505   -0.9636 C   0  0  0  0  0  0  0  0  0  0  0  0
   -1.1852    1.5028   -0.7839 H   0  0  0  0  0  0  0  0  0  0  0  0
    0.5451    1.2739   -0.9877 H   0  0  0  0  0  0  0  0  0  0  0  0
   -0.6458    0.1325   -2.3261 C   0  0  0  0  0  0  0  0  0  0  0  0
    0.2840   -0.5975   -3.0410 N   0  3  0  0  0  0  0  0  0  0  0  0
    1.2094   -0.8437   -2.6780 H   0  0  0  0  0  0  0  0  0  0  0  0
   -0.2795   -0.9824   -4.2033 C   0  0  0  0  0  0  0  0  0  0  0  0
    0.2063   -1.5827   -4.9699 H   0  0  0  0  0  0  0  0  0  0  0  0
   -1.5465   -0.5114   -4.2420 N   0  0  0  0  0  0  0  0  0  0  0  0
   -2.2118   -0.6494   -4.9982 H   0  0  0  0  0  0  0  0  0  0  0  0
   -1.7928    0.1913   -3.0706 C   0  0  0  0  0  0  0  0  0  0  0  0
   -2.7141    0.6937   -2.7892 H   0  0  0  0  0  0  0  0  0  0  0  0
    0.0470    0.3465    1.5629 C   0  0  0  0  0  0  0  0  0  0  0  0
   -0.7178    1.0392    2.2359 O   0  0  0  0  0  0  0  0  0  0  0  0
    1.3044    0.0773    1.9351 N   0  0  0  0  0  0  0  0  0  0  0  0
    1.8547   -0.5084    1.3256 H   0  0  0  0  0  0  0  0  0  0  0  0
    1.9482    0.5683    3.1573 C   0  0  0  0  0  0  0  0  0  0  0  0
    1.9582   -0.2160    3.9169 H   0  0  0  0  0  0  0  0  0  0  0  0
    2.9784    0.8592    2.9446 H   0  0  0  0  0  0  0  0  0  0  0  0
    1.4176    1.4357    3.5555 H   0  0  0  0  0  0  0  0  0  0  0  0
  5  6  2  0  0  0  0
  5  7  1  0  0  0  0
  2  3  1  0  0  0  0
  2  4  1  0  0  0  0
  2  5  1  0  0  0  0
  1  2  1  0  0  0  0
 23 24  2  0  0  0  0
 23 25  1  0  0  0  0
 21 22  1  0  0  0  0
 19 20  1  0  0  0  0
 19 21  1  0  0  0  0
 17 18  1  0  0  0  0
 17 19  1  0  0  0  0
 15 16  1  0  0  0  0
 15 17  2  0  0  0  0
 14 15  1  0  0  0  0
 14 21  2  0  0  0  0
 11 12  1  0  0  0  0
 11 13  1  0  0  0  0
 11 14  1  0  0  0  0
  9 10  1  0  0  0  0
  9 11  1  0  0  0  0
  9 23  1  0  0  0  0
  7  8  1  0  0  0  0
  7  9  1  0  0  0  0
 27 28  1  0  0  0  0
 27 29  1  0  0  0  0
 27 30  1  0  0  0  0
 25 26  1  0  0  0  0
 25 27  1  0  0  0  0
M  CHG  1  15   1
M  END
$$$$
default_name
  -OEChem-01062215323D

 30 30  0     1  0  0  0  0  0999 V2000
   -3.5507   -3.2183    1.8116 H   0  0  0  0  0  0  0  0  0  0  0  0
   -3.4597   -2.3913    1.1076 C   0  0  0  0  0  0  0  0  0  0  0  0
   -4.1577   -1.6043    1.3866 H   0  0  0  0  0  0  0  0  0  0  0  0
   -3.6807   -2.7523    0.1036 H   0  0  0  0  0  0  0  0  0  0  0  0
   -2.0477   -1.8543    1.1546 C   0  0  0  0  0  0  0  0  0  0  0  0
   -1.2227   -2.3443    1.9146 O   0  0  0  0  0  0  0  0  0  0  0  0
   -1.7517   -0.8483    0.3266 N   0  0  0  0  0  0  0  0  0  0  0  0
   -2.4847   -0.5123   -0.2804 H   0  0  0  0  0  0  0  0  0  0  0  0
   -0.4117   -0.2463    0.2186 C   0  0  1  0  0  0  0  0  0  0  0  0
    0.2987   -1.0391   -0.0285 H   0  0  0  0  0  0  0  0  0  0  0  0
   -0.4131    0.7505   -0.9636 C   0  0  0  0  0  0  0  0  0  0  0  0
   -1.1852    1.5028   -0.7839 H   0  0  0  0  0  0  0  0  0  0  0  0
    0.5451    1.2739   -0.9877 H   0  0  0  0  0  0  0  0  0  0  0  0
   -0.6458    0.1325   -2.3261 C   0  0  0  0  0  0  0  0  0  0  0  0
    0.2840   -0.5975   -3.0410 N   0  3  0  0  0  0  0  0  0  0  0  0
    1.2094   -0.8437   -2.6780 H   0  0  0  0  0  0  0  0  0  0  0  0
   -0.2795   -0.9824   -4.2033 C   0  0  0  0  0  0  0  0  0  0  0  0
    0.2063   -1.5827   -4.9699 H   0  0  0  0  0  0  0  0  0  0  0  0
   -1.5465   -0.5114   -4.2420 N   0  0  0  0  0  0  0  0  0  0  0  0
   -2.2118   -0.6494   -4.9982 H   0  0  0  0  0  0  0  0  0  0  0  0
   -1.7928    0.1913   -3.0706 C   0  0  0  0  0  0  0  0  0  0  0  0
   -2.7141    0.6937   -2.7892 H   0  0  0  0  0  0  0  0  0  0  0  0
    0.0470    0.3465    1.5629 C   0  0  0  0  0  0  0  0  0  0  0  0
   -0.7749    0.7990    2.3613 O   0  0  0  0  0  0  0  0  0  0  0  0
    1.3656    0.3498    1.7941 N   0  0  0  0  0  0  0  0  0  0  0  0
    1.9627   -0.0523    1.0876 H   0  0  0  0  0  0  0  0  0  0  0  0
    2.0130    0.8943    2.9914 C   0  0  0  0  0  0  0  0  0  0  0  0
    2.2793    0.0852    3.6744 H   0  0  0  0  0  0  0  0  0  0  0  0
    2.9235    1.4277    2.7126 H   0  0  0  0  0  0  0  0  0  0  0  0
    1.3494    1.5884    3.5114 H   0  0  0  0  0  0  0  0  0  0  0  0
  5  6  2  0  0  0  0
  5  7  1  0  0  0  0
  2  3  1  0  0  0  0
  2  4  1  0  0  0  0
  2  5  1  0  0  0  0
  1  2  1  0  0  0  0
 23 24  2  0  0  0  0
 23 25  1  0  0  0  0
 21 22  1  0  0  0  0
 19 20  1  0  0  0  0
 19 21  1  0  0  0  0
 17 18  1  0  0  0  0
 17 19  1  0  0  0  0
 15 16  1  0  0  0  0
 15 17  2  0  0  0  0
 14 15  1  0  0  0  0
 14 21  2  0  0  0  0
 11 12  1  0  0  0  0
 11 13  1  0  0  0  0
 11 14  1  0  0  0  0
  9 10  1  0  0  0  0
  9 11  1  0  0  0  0
  9 23  1  0  0  0  0
  7  8  1  0  0  0  0
  7  9  1  0  0  0  0
 27 28  1  0  0  0  0
 27 29  1  0  0  0  0
 27 30  1  0  0  0  0
 25 26  1  0  0  0  0
 25 27  1  0  0  0  0
M  CHG  1  15   1
M  END
$$$$
default_name
  -OEChem-01062215323D

 30 30  0     1  0  0  0  0  0999 V2000
   -3.5507   -3.2183    1.8116 H   0  0  0  0  0  0  0  0  0  0  0  0
   -3.4597   -2.3913    1.1076 C   0  0  0  0  0  0  0  0  0  0  0  0
   -4.1577   -1.6043    1.3866 H   0  0  0  0  0  0  0  0  0  0  0  0
   -3.6807   -2.7523    0.1036 H   0  0  0  0  0  0  0  0  0  0  0  0
   -2.0477   -1.8543    1.1546 C   0  0  0  0  0  0  0  0  0  0  0  0
   -1.2227   -2.3443    1.9146 O   0  0  0  0  0  0  0  0  0  0  0  0
   -1.7517   -0.8483    0.3266 N   0  0  0  0  0  0  0  0  0  0  0  0
   -2.4847   -0.5123   -0.2804 H   0  0  0  0  0  0  0  0  0  0  0  0
   -0.4117   -0.2463    0.2186 C   0  0  1  0  0  0  0  0  0  0  0  0
    0.2987   -1.0391   -0.0285 H   0  0  0  0  0  0  0  0  0  0  0  0
   -0.4131    0.7505   -0.9636 C   0  0  0  0  0  0  0  0  0  0  0  0
   -1.1852    1.5028   -0.7839 H   0  0  0  0  0  0  0  0  0  0  0  0
    0.5451    1.2739   -0.9877 H   0  0  0  0  0  0  0  0  0  0  0  0
   -0.6458    0.1325   -2.3261 C   0  0  0  0  0  0  0  0  0  0  0  0
    0.2840   -0.5975   -3.0410 N   0  3  0  0  0  0  0  0  0  0  0  0
    1.2094   -0.8437   -2.6780 H   0  0  0  0  0  0  0  0  0  0  0  0
   -0.2795   -0.9824   -4.2033 C   0  0  0  0  0  0  0  0  0  0  0  0
    0.2063   -1.5827   -4.9699 H   0  0  0  0  0  0  0  0  0  0  0  0
   -1.5465   -0.5114   -4.2420 N   0  0  0  0  0  0  0  0  0  0  0  0
   -2.2118   -0.6494   -4.9982 H   0  0  0  0  0  0  0  0  0  0  0  0
   -1.7928    0.1913   -3.0706 C   0  0  0  0  0  0  0  0  0  0  0  0
   -2.7141    0.6937   -2.7892 H   0  0  0  0  0  0  0  0  0  0  0  0
    0.0470    0.3465    1.5629 C   0  0  0  0  0  0  0  0  0  0  0  0
   -0.7633    0.5445    2.4696 O   0  0  0  0  0  0  0  0  0  0  0  0
    1.3490    0.6377    1.6728 N   0  0  0  0  0  0  0  0  0  0  0  0
    1.9402    0.4311    0.8821 H   0  0  0  0  0  0  0  0  0  0  0  0
    1.9854    1.2368    2.8499 C   0  0  0  0  0  0  0  0  0  0  0  0
    2.4973    0.4675    3.4315 H   0  0  0  0  0  0  0  0  0  0  0  0
    2.7188    1.9823    2.5379 H   0  0  0  0  0  0  0  0  0  0  0  0
    1.2446    1.7239    3.4874 H   0  0  0  0  0  0  0  0  0  0  0  0
  5  6  2  0  0  0  0
  5  7  1  0  0  0  0
  2  3  1  0  0  0  0
  2  4  1  0  0  0  0
  2  5  1  0  0  0  0
  1  2  1  0  0  0  0
 23 24  2  0  0  0  0
 23 25  1  0  0  0  0
 21 22  1  0  0  0  0
 19 20  1  0  0  0  0
 19 21  1  0  0  0  0
 17 18  1  0  0  0  0
 17 19  1  0  0  0  0
 15 16  1  0  0  0  0
 15 17  2  0  0  0  0
 14 15  1  0  0  0  0
 14 21  2  0  0  0  0
 11 12  1  0  0  0  0
 11 13  1  0  0  0  0
 11 14  1  0  0  0  0
  9 10  1  0  0  0  0
  9 11  1  0  0  0  0
  9 23  1  0  0  0  0
  7  8  1  0  0  0  0
  7  9  1  0  0  0  0
 27 28  1  0  0  0  0
 27 29  1  0  0  0  0
 27 30  1  0  0  0  0
 25 26  1  0  0  0  0
 25 27  1  0  0  0  0
M  CHG  1  15   1
M  END
$$$$
default_name
  -OEChem-01062215323D

 30 30  0     1  0  0  0  0  0999 V2000
   -3.5507   -3.2183    1.8116 H   0  0  0  0  0  0  0  0  0  0  0  0
   -3.4597   -2.3913    1.1076 C   0  0  0  0  0  0  0  0  0  0  0  0
   -4.1577   -1.6043    1.3866 H   0  0  0  0  0  0  0  0  0  0  0  0
   -3.6807   -2.7523    0.1036 H   0  0  0  0  0  0  0  0  0  0  0  0
   -2.0477   -1.8543    1.1546 C   0  0  0  0  0  0  0  0  0  0  0  0
   -1.2227   -2.3443    1.9146 O   0  0  0  0  0  0  0  0  0  0  0  0
   -1.7517   -0.8483    0.3266 N   0  0  0  0  0  0  0  0  0  0  0  0
   -2.4847   -0.5123   -0.2804 H   0  0  0  0  0  0  0  0  0  0  0  0
   -0.4117   -0.2463    0.2186 C   0  0  1  0  0  0  0  0  0  0  0  0
    0.2438   -0.9626   -0.2828 H   0  0  0  0  0  0  0  0  0  0  0  0
   -0.5039    1.0018   -0.6898 C   0  0  0  0  0  0  0  0  0  0  0  0
   -1.2291    1.6951   -0.2563 H   0  0  0  0  0  0  0  0  0  0  0  0
    0.4628    1.5100   -0.6938 H   0  0  0  0  0  0  0  0  0  0  0  0
   -0.8958    0.7250   -2.1257 C   0  0  0  0  0  0  0  0  0  0  0  0
   -0.0686    0.1789   -3.0880 N   0  3  0  0  0  0  0  0  0  0  0  0
    0.8811   -0.1520   -2.8951 H   0  0  0  0  0  0  0  0  0  0  0  0
   -0.7613    0.0834   -4.2403 C   0  0  0  0  0  0  0  0  0  0  0  0
   -0.3767   -0.3217   -5.1742 H   0  0  0  0  0  0  0  0  0  0  0  0
   -2.0099    0.5581   -4.0304 N   0  0  0  0  0  0  0  0  0  0  0  0
   -2.7539    0.6070   -4.7214 H   0  0  0  0  0  0  0  0  0  0  0  0
   -2.1113    0.9654   -2.7074 C   0  0  0  0  0  0  0  0  0  0  0  0
   -2.9822    1.3928   -2.2182 H   0  0  0  0  0  0  0  0  0  0  0  0
    0.2022    0.0089    1.6067 C   0  0  0  0  0  0  0  0  0  0  0  0
   -0.4233   -0.2728    2.6300 O   0  0  0  0  0  0  0  0  0  0  0  0
    1.4238    0.5560    1.6269 N   0  0  0  0  0  0  0  0  0  0  0  0
    1.8646    0.7427    0.7391 H   0  0  0  0  0  0  0  0  0  0  0  0
    2.1725    0.9094    2.8368 C   0  0  0  0  0  0  0  0  0  0  0  0
    2.9250    0.1470    3.0481 H   0  0  0  0  0  0  0  0  0  0  0  0
    2.6775    1.8666    2.6961 H   0  0  0  0  0  0  0  0  0  0  0  0
    1.5053    0.9919    3.6974 H   0  0  0  0  0  0  0  0  0  0  0  0
  5  6  2  0  0  0  0
  5  7  1  0  0  0  0
  2  3  1  0  0  0  0
  2  4  1  0  0  0  0
  2  5  1  0  0  0  0
  1  2  1  0  0  0  0
 23 24  2  0  0  0  0
 23 25  1  0  0  0  0
 21 22  1  0  0  0  0
 19 20  1  0  0  0  0
 19 21  1  0  0  0  0
 17 18  1  0  0  0  0
 17 19  1  0  0  0  0
 15 16  1  0  0  0  0
 15 17  2  0  0  0  0
 14 15  1  0  0  0  0
 14 21  2  0  0  0  0
 11 12  1  0  0  0  0
 11 13  1  0  0  0  0
 11 14  1  0  0  0  0
  9 10  1  0  0  0  0
  9 11  1  0  0  0  0
  9 23  1  0  0  0  0
  7  8  1  0  0  0  0
  7  9  1  0  0  0  0
 27 28  1  0  0  0  0
 27 29  1  0  0  0  0
 27 30  1  0  0  0  0
 25 26  1  0  0  0  0
 25 27  1  0  0  0  0
M  CHG  1  15   1
M  END
$$$$
default_name
  -OEChem-01062215323D

 30 30  0     1  0  0  0  0  0999 V2000
   -3.5507   -3.2183    1.8116 H   0  0  0  0  0  0  0  0  0  0  0  0
   -3.4597   -2.3913    1.1076 C   0  0  0  0  0  0  0  0  0  0  0  0
   -4.1577   -1.6043    1.3866 H   0  0  0  0  0  0  0  0  0  0  0  0
   -3.6807   -2.7523    0.1036 H   0  0  0  0  0  0  0  0  0  0  0  0
   -2.0477   -1.8543    1.1546 C   0  0  0  0  0  0  0  0  0  0  0  0
   -1.2227   -2.3443    1.9146 O   0  0  0  0  0  0  0  0  0  0  0  0
   -1.7517   -0.8483    0.3266 N   0  0  0  0  0  0  0  0  0  0  0  0
   -2.4847   -0.5123   -0.2804 H   0  0  0  0  0  0  0  0  0  0  0  0
   -0.4117   -0.2463    0.2186 C   0  0  1  0  0  0  0  0  0  0  0  0
    0.2438   -0.9626   -0.2828 H   0  0  0  0  0  0  0  0  0  0  0  0
   -0.5039    1.0018   -0.6898 C   0  0  0  0  0  0  0  0  0  0  0  0
   -1.2291    1.6951   -0.2563 H   0  0  0  0  0  0  0  0  0  0  0  0
    0.4628    1.5100   -0.6938 H   0  0  0  0  0  0  0  0  0  0  0  0
   -0.8958    0.7250   -2.1257 C   0  0  0  0  0  0  0  0  0  0  0  0
   -0.0686    0.1789   -3.0880 N   0  3  0  0  0  0  0  0  0  0  0  0
    0.8811   -0.1520   -2.8951 H   0  0  0  0  0  0  0  0  0  0  0  0
   -0.7613    0.0834   -4.2403 C   0  0  0  0  0  0  0  0  0  0  0  0
   -0.3767   -0.3217   -5.1742 H   0  0  0  0  0  0  0  0  0  0  0  0
   -2.0099    0.5581   -4.0304 N   0  0  0  0  0  0  0  0  0  0  0  0
   -2.7539    0.6070   -4.7214 H   0  0  0  0  0  0  0  0  0  0  0  0
   -2.1113    0.9654   -2.7074 C   0  0  0  0  0  0  0  0  0  0  0  0
   -2.9822    1.3928   -2.2182 H   0  0  0  0  0  0  0  0  0  0  0  0
    0.2022    0.0089    1.6067 C   0  0  0  0  0  0  0  0  0  0  0  0
   -0.2838   -0.5113    2.6121 O   0  0  0  0  0  0  0  0  0  0  0  0
    1.2634    0.8238    1.6486 N   0  0  0  0  0  0  0  0  0  0  0  0
    1.5994    1.1953    0.7731 H   0  0  0  0  0  0  0  0  0  0  0  0
    1.9758    1.2232    2.8662 C   0  0  0  0  0  0  0  0  0  0  0  0
    2.8946    0.6427    2.9704 H   0  0  0  0  0  0  0  0  0  0  0  0
    2.2372    2.2816    2.8145 H   0  0  0  0  0  0  0  0  0  0  0  0
    1.3561    1.0613    3.7506 H   0  0  0  0  0  0  0  0  0  0  0  0
  5  6  2  0  0  0  0
  5  7  1  0  0  0  0
  2  3  1  0  0  0  0
  2  4  1  0  0  0  0
  2  5  1  0  0  0  0
  1  2  1  0  0  0  0
 23 24  2  0  0  0  0
 23 25  1  0  0  0  0
 21 22  1  0  0  0  0
 19 20  1  0  0  0  0
 19 21  1  0  0  0  0
 17 18  1  0  0  0  0
 17 19  1  0  0  0  0
 15 16  1  0  0  0  0
 15 17  2  0  0  0  0
 14 15  1  0  0  0  0
 14 21  2  0  0  0  0
 11 12  1  0  0  0  0
 11 13  1  0  0  0  0
 11 14  1  0  0  0  0
  9 10  1  0  0  0  0
  9 11  1  0  0  0  0
  9 23  1  0  0  0  0
  7  8  1  0  0  0  0
  7  9  1  0  0  0  0
 27 28  1  0  0  0  0
 27 29  1  0  0  0  0
 27 30  1  0  0  0  0
 25 26  1  0  0  0  0
 25 27  1  0  0  0  0
M  CHG  1  15   1
M  END
$$$$
default_name
  -OEChem-01062215323D

 30 30  0     1  0  0  0  0  0999 V2000
   -3.5507   -3.2183    1.8116 H   0  0  0  0  0  0  0  0  0  0  0  0
   -3.4597   -2.3913    1.1076 C   0  0  0  0  0  0  0  0  0  0  0  0
   -4.1577   -1.6043    1.3866 H   0  0  0  0  0  0  0  0  0  0  0  0
   -3.6807   -2.7523    0.1036 H   0  0  0  0  0  0  0  0  0  0  0  0
   -2.0477   -1.8543    1.1546 C   0  0  0  0  0  0  0  0  0  0  0  0
   -1.2227   -2.3443    1.9146 O   0  0  0  0  0  0  0  0  0  0  0  0
   -1.7517   -0.8483    0.3266 N   0  0  0  0  0  0  0  0  0  0  0  0
   -2.4847   -0.5123   -0.2804 H   0  0  0  0  0  0  0  0  0  0  0  0
   -0.4117   -0.2463    0.2186 C   0  0  1  0  0  0  0  0  0  0  0  0
    0.2438   -0.9626   -0.2828 H   0  0  0  0  0  0  0  0  0  0  0  0
   -0.5039    1.0018   -0.6898 C   0  0  0  0  0  0  0  0  0  0  0  0
   -1.2291    1.6951   -0.2563 H   0  0  0  0  0  0  0  0  0  0  0  0
    0.4628    1.5100   -0.6938 H   0  0  0  0  0  0  0  0  0  0  0  0
   -0.8958    0.7250   -2.1257 C   0  0  0  0  0  0  0  0  0  0  0  0
   -0.0686    0.1789   -3.0880 N   0  3  0  0  0  0  0  0  0  0  0  0
    0.8811   -0.1520   -2.8951 H   0  0  0  0  0  0  0  0  0  0  0  0
   -0.7613    0.0834   -4.2403 C   0  0  0  0  0  0  0  0  0  0  0  0
   -0.3767   -0.3217   -5.1742 H   0  0  0  0  0  0  0  0  0  0  0  0
   -2.0099    0.5581   -4.0304 N   0  0  0  0  0  0  0  0  0  0  0  0
   -2.7539    0.6070   -4.7214 H   0  0  0  0  0  0  0  0  0  0  0  0
   -2.1113    0.9654   -2.7074 C   0  0  0  0  0  0  0  0  0  0  0  0
   -2.9822    1.3928   -2.2182 H   0  0  0  0  0  0  0  0  0  0  0  0
    0.2022    0.0089    1.6067 C   0  0  0  0  0  0  0  0  0  0  0  0
   -0.0942   -0.7073    2.5643 O   0  0  0  0  0  0  0  0  0  0  0  0
    1.0470    1.0428    1.7041 N   0  0  0  0  0  0  0  0  0  0  0  0
    1.2391    1.5671    0.8641 H   0  0  0  0  0  0  0  0  0  0  0  0
    1.7137    1.4774    2.9353 C   0  0  0  0  0  0  0  0  0  0  0  0
    2.7462    1.1224    2.9479 H   0  0  0  0  0  0  0  0  0  0  0  0
    1.7202    2.5673    2.9907 H   0  0  0  0  0  0  0  0  0  0  0  0
    1.1980    1.0880    3.8156 H   0  0  0  0  0  0  0  0  0  0  0  0
  5  6  2  0  0  0  0
  5  7  1  0  0  0  0
  2  3  1  0  0  0  0
  2  4  1  0  0  0  0
  2  5  1  0  0  0  0
  1  2  1  0  0  0  0
 23 24  2  0  0  0  0
 23 25  1  0  0  0  0
 21 22  1  0  0  0  0
 19 20  1  0  0  0  0
 19 21  1  0  0  0  0
 17 18  1  0  0  0  0
 17 19  1  0  0  0  0
 15 16  1  0  0  0  0
 15 17  2  0  0  0  0
 14 15  1  0  0  0  0
 14 21  2  0  0  0  0
 11 12  1  0  0  0  0
 11 13  1  0  0  0  0
 11 14  1  0  0  0  0
  9 10  1  0  0  0  0
  9 11  1  0  0  0  0
  9 23  1  0  0  0  0
  7  8  1  0  0  0  0
  7  9  1  0  0  0  0
 27 28  1  0  0  0  0
 27 29  1  0  0  0  0
 27 30  1  0  0  0  0
 25 26  1  0  0  0  0
 25 27  1  0  0  0  0
M  CHG  1  15   1
M  END
$$$$
default_name
  -OEChem-01062215323D

 30 30  0     1  0  0  0  0  0999 V2000
   -3.5507   -3.2183    1.8116 H   0  0  0  0  0  0  0  0  0  0  0  0
   -3.4597   -2.3913    1.1076 C   0  0  0  0  0  0  0  0  0  0  0  0
   -4.1577   -1.6043    1.3866 H   0  0  0  0  0  0  0  0  0  0  0  0
   -3.6807   -2.7523    0.1036 H   0  0  0  0  0  0  0  0  0  0  0  0
   -2.0477   -1.8543    1.1546 C   0  0  0  0  0  0  0  0  0  0  0  0
   -1.2227   -2.3443    1.9146 O   0  0  0  0  0  0  0  0  0  0  0  0
   -1.7517   -0.8483    0.3266 N   0  0  0  0  0  0  0  0  0  0  0  0
   -2.4847   -0.5123   -0.2804 H   0  0  0  0  0  0  0  0  0  0  0  0
   -0.4117   -0.2463    0.2186 C   0  0  1  0  0  0  0  0  0  0  0  0
    0.2438   -0.9626   -0.2828 H   0  0  0  0  0  0  0  0  0  0  0  0
   -0.5039    1.0018   -0.6898 C   0  0  0  0  0  0  0  0  0  0  0  0
   -1.2291    1.6951   -0.2563 H   0  0  0  0  0  0  0  0  0  0  0  0
    0.4628    1.5100   -0.6938 H   0  0  0  0  0  0  0  0  0  0  0  0
   -0.8958    0.7250   -2.1257 C   0  0  0  0  0  0  0  0  0  0  0  0
   -0.0686    0.1789   -3.0880 N   0  3  0  0  0  0  0  0  0  0  0  0
    0.8811   -0.1520   -2.8951 H   0  0  0  0  0  0  0  0  0  0  0  0
   -0.7613    0.0834   -4.2403 C   0  0  0  0  0  0  0  0  0  0  0  0
   -0.3767   -0.3217   -5.1742 H   0  0  0  0  0  0  0  0  0  0  0  0
   -2.0099    0.5581   -4.0304 N   0  0  0  0  0  0  0  0  0  0  0  0
   -2.7539    0.6070   -4.7214 H   0  0  0  0  0  0  0  0  0  0  0  0
   -2.1113    0.9654   -2.7074 C   0  0  0  0  0  0  0  0  0  0  0  0
   -2.9822    1.3928   -2.2182 H   0  0  0  0  0  0  0  0  0  0  0  0
    0.2022    0.0089    1.6067 C   0  0  0  0  0  0  0  0  0  0  0  0
    0.1327   -0.8474    2.4897 O   0  0  0  0  0  0  0  0  0  0  0  0
    0.7891    1.1981    1.7896 N   0  0  0  0  0  0  0  0  0  0  0  0
    0.8082    1.8328    1.0058 H   0  0  0  0  0  0  0  0  0  0  0  0
    1.4042    1.6546    3.0396 C   0  0  0  0  0  0  0  0  0  0  0  0
    2.4899    1.5535    2.9820 H   0  0  0  0  0  0  0  0  0  0  0  0
    1.1616    2.7045    3.2125 H   0  0  0  0  0  0  0  0  0  0  0  0
    1.0419    1.0701    3.8880 H   0  0  0  0  0  0  0  0  0  0  0  0
  5  6  2  0  0  0  0
  5  7  1  0  0  0  0
  2  3  1  0  0  0  0
  2  4  1  0  0  0  0
  2  5  1  0  0  0  0
  1  2  1  0  0  0  0
 23 24  2  0  0  0  0
 23 25  1  0  0  0  0
 21 22  1  0  0  0  0
 19 20  1  0  0  0  0
 19 21  1  0  0  0  0
 17 18  1  0  0  0  0
 17 19  1  0  0  0  0
 15 16  1  0  0  0  0
 15 17  2  0  0  0  0
 14 15  1  0  0  0  0
 14 21  2  0  0  0  0
 11 12  1  0  0  0  0
 11 13  1  0  0  0  0
 11 14  1  0  0  0  0
  9 10  1  0  0  0  0
  9 11  1  0  0  0  0
  9 23  1  0  0  0  0
  7  8  1  0  0  0  0
  7  9  1  0  0  0  0
 27 28  1  0  0  0  0
 27 29  1  0  0  0  0
 27 30  1  0  0  0  0
 25 26  1  0  0  0  0
 25 27  1  0  0  0  0
M  CHG  1  15   1
M  END
$$$$
default_name
  -OEChem-01062215323D

 30 30  0     1  0  0  0  0  0999 V2000
   -3.5507   -3.2183    1.8116 H   0  0  0  0  0  0  0  0  0  0  0  0
   -3.4597   -2.3913    1.1076 C   0  0  0  0  0  0  0  0  0  0  0  0
   -4.1577   -1.6043    1.3866 H   0  0  0  0  0  0  0  0  0  0  0  0
   -3.6807   -2.7523    0.1036 H   0  0  0  0  0  0  0  0  0  0  0  0
   -2.0477   -1.8543    1.1546 C   0  0  0  0  0  0  0  0  0  0  0  0
   -1.2227   -2.3443    1.9146 O   0  0  0  0  0  0  0  0  0  0  0  0
   -1.7517   -0.8483    0.3266 N   0  0  0  0  0  0  0  0  0  0  0  0
   -2.4847   -0.5123   -0.2804 H   0  0  0  0  0  0  0  0  0  0  0  0
   -0.4117   -0.2463    0.2186 C   0  0  1  0  0  0  0  0  0  0  0  0
    0.2438   -0.9626   -0.2828 H   0  0  0  0  0  0  0  0  0  0  0  0
   -0.5039    1.0018   -0.6898 C   0  0  0  0  0  0  0  0  0  0  0  0
   -1.2291    1.6951   -0.2563 H   0  0  0  0  0  0  0  0  0  0  0  0
    0.4628    1.5100   -0.6938 H   0  0  0  0  0  0  0  0  0  0  0  0
   -0.8958    0.7250   -2.1257 C   0  0  0  0  0  0  0  0  0  0  0  0
   -0.0686    0.1789   -3.0880 N   0  3  0  0  0  0  0  0  0  0  0  0
    0.8811   -0.1520   -2.8951 H   0  0  0  0  0  0  0  0  0  0  0  0
   -0.7613    0.0834   -4.2403 C   0  0  0  0  0  0  0  0  0  0  0  0
   -0.3767   -0.3217   -5.1742 H   0  0  0  0  0  0  0  0  0  0  0  0
   -2.0099    0.5581   -4.0304 N   0  0  0  0  0  0  0  0  0  0  0  0
   -2.7539    0.6070   -4.7214 H   0  0  0  0  0  0  0  0  0  0  0  0
   -2.1113    0.9654   -2.7074 C   0  0  0  0  0  0  0  0  0  0  0  0
   -2.9822    1.3928   -2.2182 H   0  0  0  0  0  0  0  0  0  0  0  0
    0.2022    0.0089    1.6067 C   0  0  0  0  0  0  0  0  0  0  0  0
    0.3814   -0.9220    2.3935 O   0  0  0  0  0  0  0  0  0  0  0  0
    0.5075    1.2791    1.8992 N   0  0  0  0  0  0  0  0  0  0  0  0
    0.3361    1.9741    1.1886 H   0  0  0  0  0  0  0  0  0  0  0  0
    1.0684    1.7427    3.1719 C   0  0  0  0  0  0  0  0  0  0  0  0
    2.1431    1.9065    3.0704 H   0  0  0  0  0  0  0  0  0  0  0  0
    0.5995    2.6837    3.4649 H   0  0  0  0  0  0  0  0  0  0  0  0
    0.8984    1.0090    3.9627 H   0  0  0  0  0  0  0  0  0  0  0  0
  5  6  2  0  0  0  0
  5  7  1  0  0  0  0
  2  3  1  0  0  0  0
  2  4  1  0  0  0  0
  2  5  1  0  0  0  0
  1  2  1  0  0  0  0
 23 24  2  0  0  0  0
 23 25  1  0  0  0  0
 21 22  1  0  0  0  0
 19 20  1  0  0  0  0
 19 21  1  0  0  0  0
 17 18  1  0  0  0  0
 17 19  1  0  0  0  0
 15 16  1  0  0  0  0
 15 17  2  0  0  0  0
 14 15  1  0  0  0  0
 14 21  2  0  0  0  0
 11 12  1  0  0  0  0
 11 13  1  0  0  0  0
 11 14  1  0  0  0  0
  9 10  1  0  0  0  0
  9 11  1  0  0  0  0
  9 23  1  0  0  0  0
  7  8  1  0  0  0  0
  7  9  1  0  0  0  0
 27 28  1  0  0  0  0
 27 29  1  0  0  0  0
 27 30  1  0  0  0  0
 25 26  1  0  0  0  0
 25 27  1  0  0  0  0
M  CHG  1  15   1
M  END
$$$$
default_name
  -OEChem-01062215323D

 30 30  0     1  0  0  0  0  0999 V2000
   -3.5507   -3.2183    1.8116 H   0  0  0  0  0  0  0  0  0  0  0  0
   -3.4597   -2.3913    1.1076 C   0  0  0  0  0  0  0  0  0  0  0  0
   -4.1577   -1.6043    1.3866 H   0  0  0  0  0  0  0  0  0  0  0  0
   -3.6807   -2.7523    0.1036 H   0  0  0  0  0  0  0  0  0  0  0  0
   -2.0477   -1.8543    1.1546 C   0  0  0  0  0  0  0  0  0  0  0  0
   -1.2227   -2.3443    1.9146 O   0  0  0  0  0  0  0  0  0  0  0  0
   -1.7517   -0.8483    0.3266 N   0  0  0  0  0  0  0  0  0  0  0  0
   -2.4847   -0.5123   -0.2804 H   0  0  0  0  0  0  0  0  0  0  0  0
   -0.4117   -0.2463    0.2186 C   0  0  1  0  0  0  0  0  0  0  0  0
    0.2438   -0.9626   -0.2828 H   0  0  0  0  0  0  0  0  0  0  0  0
   -0.5039    1.0018   -0.6898 C   0  0  0  0  0  0  0  0  0  0  0  0
   -1.2291    1.6951   -0.2563 H   0  0  0  0  0  0  0  0  0  0  0  0
    0.4628    1.5100   -0.6938 H   0  0  0  0  0  0  0  0  0  0  0  0
   -0.8958    0.7250   -2.1257 C   0  0  0  0  0  0  0  0  0  0  0  0
   -0.0686    0.1789   -3.0880 N   0  3  0  0  0  0  0  0  0  0  0  0
    0.8811   -0.1520   -2.8951 H   0  0  0  0  0  0  0  0  0  0  0  0
   -0.7613    0.0834   -4.2403 C   0  0  0  0  0  0  0  0  0  0  0  0
   -0.3767   -0.3217   -5.1742 H   0  0  0  0  0  0  0  0  0  0  0  0
   -2.0099    0.5581   -4.0304 N   0  0  0  0  0  0  0  0  0  0  0  0
   -2.7539    0.6070   -4.7214 H   0  0  0  0  0  0  0  0  0  0  0  0
   -2.1113    0.9654   -2.7074 C   0  0  0  0  0  0  0  0  0  0  0  0
   -2.9822    1.3928   -2.2182 H   0  0  0  0  0  0  0  0  0  0  0  0
    0.2022    0.0089    1.6067 C   0  0  0  0  0  0  0  0  0  0  0  0
    0.6349   -0.9262    2.2821 O   0  0  0  0  0  0  0  0  0  0  0  0
    0.2212    1.2803    2.0256 N   0  0  0  0  0  0  0  0  0  0  0  0
   -0.1451    1.9816    1.4001 H   0  0  0  0  0  0  0  0  0  0  0  0
    0.7291    1.7358    3.3232 C   0  0  0  0  0  0  0  0  0  0  0  0
    1.7296    2.1574    3.2072 H   0  0  0  0  0  0  0  0  0  0  0  0
    0.0723    2.5064    3.7306 H   0  0  0  0  0  0  0  0  0  0  0  0
    0.7772    0.9087    4.0347 H   0  0  0  0  0  0  0  0  0  0  0  0
  5  6  2  0  0  0  0
  5  7  1  0  0  0  0
  2  3  1  0  0  0  0
  2  4  1  0  0  0  0
  2  5  1  0  0  0  0
  1  2  1  0  0  0  0
 23 24  2  0  0  0  0
 23 25  1  0  0  0  0
 21 22  1  0  0  0  0
 19 20  1  0  0  0  0
 19 21  1  0  0  0  0
 17 18  1  0  0  0  0
 17 19  1  0  0  0  0
 15 16  1  0  0  0  0
 15 17  2  0  0  0  0
 14 15  1  0  0  0  0
 14 21  2  0  0  0  0
 11 12  1  0  0  0  0
 11 13  1  0  0  0  0
 11 14  1  0  0  0  0
  9 10  1  0  0  0  0
  9 11  1  0  0  0  0
  9 23  1  0  0  0  0
  7  8  1  0  0  0  0
  7  9  1  0  0  0  0
 27 28  1  0  0  0  0
 27 29  1  0  0  0  0
 27 30  1  0  0  0  0
 25 26  1  0  0  0  0
 25 27  1  0  0  0  0
M  CHG  1  15   1
M  END
$$$$
default_name
  -OEChem-01062215323D

 30 30  0     1  0  0  0  0  0999 V2000
   -3.5507   -3.2183    1.8116 H   0  0  0  0  0  0  0  0  0  0  0  0
   -3.4597   -2.3913    1.1076 C   0  0  0  0  0  0  0  0  0  0  0  0
   -4.1577   -1.6043    1.3866 H   0  0  0  0  0  0  0  0  0  0  0  0
   -3.6807   -2.7523    0.1036 H   0  0  0  0  0  0  0  0  0  0  0  0
   -2.0477   -1.8543    1.1546 C   0  0  0  0  0  0  0  0  0  0  0  0
   -1.2227   -2.3443    1.9146 O   0  0  0  0  0  0  0  0  0  0  0  0
   -1.7517   -0.8483    0.3266 N   0  0  0  0  0  0  0  0  0  0  0  0
   -2.4847   -0.5123   -0.2804 H   0  0  0  0  0  0  0  0  0  0  0  0
   -0.4117   -0.2463    0.2186 C   0  0  1  0  0  0  0  0  0  0  0  0
    0.2438   -0.9626   -0.2828 H   0  0  0  0  0  0  0  0  0  0  0  0
   -0.5039    1.0018   -0.6898 C   0  0  0  0  0  0  0  0  0  0  0  0
   -1.2291    1.6951   -0.2563 H   0  0  0  0  0  0  0  0  0  0  0  0
    0.4628    1.5100   -0.6938 H   0  0  0  0  0  0  0  0  0  0  0  0
   -0.8958    0.7250   -2.1257 C   0  0  0  0  0  0  0  0  0  0  0  0
   -0.0686    0.1789   -3.0880 N   0  3  0  0  0  0  0  0  0  0  0  0
    0.8811   -0.1520   -2.8951 H   0  0  0  0  0  0  0  0  0  0  0  0
   -0.7613    0.0834   -4.2403 C   0  0  0  0  0  0  0  0  0  0  0  0
   -0.3767   -0.3217   -5.1742 H   0  0  0  0  0  0  0  0  0  0  0  0
   -2.0099    0.5581   -4.0304 N   0  0  0  0  0  0  0  0  0  0  0  0
   -2.7539    0.6070   -4.7214 H   0  0  0  0  0  0  0  0  0  0  0  0
   -2.1113    0.9654   -2.7074 C   0  0  0  0  0  0  0  0  0  0  0  0
   -2.9822    1.3928   -2.2182 H   0  0  0  0  0  0  0  0  0  0  0  0
    0.2022    0.0089    1.6067 C   0  0  0  0  0  0  0  0  0  0  0  0
    0.8759   -0.8595    2.1633 O   0  0  0  0  0  0  0  0  0  0  0  0
   -0.0501    1.2015    2.1601 N   0  0  0  0  0  0  0  0  0  0  0  0
   -0.6026    1.8547    1.6257 H   0  0  0  0  0  0  0  0  0  0  0  0
    0.4095    1.6343    3.4832 C   0  0  0  0  0  0  0  0  0  0  0  0
    1.2774    2.2891    3.3829 H   0  0  0  0  0  0  0  0  0  0  0  0
   -0.3841    2.1846    3.9916 H   0  0  0  0  0  0  0  0  0  0  0  0
    0.6867    0.7762    4.0991 H   0  0  0  0  0  0  0  0  0  0  0  0
  5  6  2  0  0  0  0
  5  7  1  0  0  0  0
  2  3  1  0  0  0  0
  2  4  1  0  0  0  0
  2  5  1  0  0  0  0
  1  2  1  0  0  0  0
 23 24  2  0  0  0  0
 23 25  1  0  0  0  0
 21 22  1  0  0  0  0
 19 20  1  0  0  0  0
 19 21  1  0  0  0  0
 17 18  1  0  0  0  0
 17 19  1  0  0  0  0
 15 16  1  0  0  0  0
 15 17  2  0  0  0  0
 14 15  1  0  0  0  0
 14 21  2  0  0  0  0
 11 12  1  0  0  0  0
 11 13  1  0  0  0  0
 11 14  1  0  0  0  0
  9 10  1  0  0  0  0
  9 11  1  0  0  0  0
  9 23  1  0  0  0  0
  7  8  1  0  0  0  0
  7  9  1  0  0  0  0
 27 28  1  0  0  0  0
 27 29  1  0  0  0  0
 27 30  1  0  0  0  0
 25 26  1  0  0  0  0
 25 27  1  0  0  0  0
M  CHG  1  15   1
M  END
$$$$
default_name
  -OEChem-01062215323D

 30 30  0     1  0  0  0  0  0999 V2000
   -3.5507   -3.2183    1.8116 H   0  0  0  0  0  0  0  0  0  0  0  0
   -3.4597   -2.3913    1.1076 C   0  0  0  0  0  0  0  0  0  0  0  0
   -4.1577   -1.6043    1.3866 H   0  0  0  0  0  0  0  0  0  0  0  0
   -3.6807   -2.7523    0.1036 H   0  0  0  0  0  0  0  0  0  0  0  0
   -2.0477   -1.8543    1.1546 C   0  0  0  0  0  0  0  0  0  0  0  0
   -1.2227   -2.3443    1.9146 O   0  0  0  0  0  0  0  0  0  0  0  0
   -1.7517   -0.8483    0.3266 N   0  0  0  0  0  0  0  0  0  0  0  0
   -2.4847   -0.5123   -0.2804 H   0  0  0  0  0  0  0  0  0  0  0  0
   -0.4117   -0.2463    0.2186 C   0  0  1  0  0  0  0  0  0  0  0  0
    0.2438   -0.9626   -0.2828 H   0  0  0  0  0  0  0  0  0  0  0  0
   -0.5039    1.0018   -0.6898 C   0  0  0  0  0  0  0  0  0  0  0  0
   -1.2291    1.6951   -0.2563 H   0  0  0  0  0  0  0  0  0  0  0  0
    0.4628    1.5100   -0.6938 H   0  0  0  0  0  0  0  0  0  0  0  0
   -0.8958    0.7250   -2.1257 C   0  0  0  0  0  0  0  0  0  0  0  0
   -0.0686    0.1789   -3.0880 N   0  3  0  0  0  0  0  0  0  0  0  0
    0.8811   -0.1520   -2.8951 H   0  0  0  0  0  0  0  0  0  0  0  0
   -0.7613    0.0834   -4.2403 C   0  0  0  0  0  0  0  0  0  0  0  0
   -0.3767   -0.3217   -5.1742 H   0  0  0  0  0  0  0  0  0  0  0  0
   -2.0099    0.5581   -4.0304 N   0  0  0  0  0  0  0  0  0  0  0  0
   -2.7539    0.6070   -4.7214 H   0  0  0  0  0  0  0  0  0  0  0  0
   -2.1113    0.9654   -2.7074 C   0  0  0  0  0  0  0  0  0  0  0  0
   -2.9822    1.3928   -2.2182 H   0  0  0  0  0  0  0  0  0  0  0  0
    0.2022    0.0089    1.6067 C   0  0  0  0  0  0  0  0  0  0  0  0
    1.0881   -0.7265    2.0450 O   0  0  0  0  0  0  0  0  0  0  0  0
   -0.2881    1.0482    2.2935 N   0  0  0  0  0  0  0  0  0  0  0  0
   -1.0052    1.6019    1.8502 H   0  0  0  0  0  0  0  0  0  0  0  0
    0.1313    1.4452    3.6410 C   0  0  0  0  0  0  0  0  0  0  0  0
    0.8175    2.2927    3.5857 H   0  0  0  0  0  0  0  0  0  0  0  0
   -0.7387    1.7403    4.2301 H   0  0  0  0  0  0  0  0  0  0  0  0
    0.6329    0.6203    4.1515 H   0  0  0  0  0  0  0  0  0  0  0  0
  5  6  2  0  0  0  0
  5  7  1  0  0  0  0
  2  3  1  0  0  0  0
  2  4  1  0  0  0  0
  2  5  1  0  0  0  0
  1  2  1  0  0  0  0
 23 24  2  0  0  0  0
 23 25  1  0  0  0  0
 21 22  1  0  0  0  0
 19 20  1  0  0  0  0
 19 21  1  0  0  0  0
 17 18  1  0  0  0  0
 17 19  1  0  0  0  0
 15 16  1  0  0  0  0
 15 17  2  0  0  0  0
 14 15  1  0  0  0  0
 14 21  2  0  0  0  0
 11 12  1  0  0  0  0
 11 13  1  0  0  0  0
 11 14  1  0  0  0  0
  9 10  1  0  0  0  0
  9 11  1  0  0  0  0
  9 23  1  0  0  0  0
  7  8  1  0  0  0  0
  7  9  1  0  0  0  0
 27 28  1  0  0  0  0
 27 29  1  0  0  0  0
 27 30  1  0  0  0  0
 25 26  1  0  0  0  0
 25 27  1  0  0  0  0
M  CHG  1  15   1
M  END
$$$$
default_name
  -OEChem-01062215323D

 30 30  0     1  0  0  0  0  0999 V2000
   -3.5507   -3.2183    1.8116 H   0  0  0  0  0  0  0  0  0  0  0  0
   -3.4597   -2.3913    1.1076 C   0  0  0  0  0  0  0  0  0  0  0  0
   -4.1577   -1.6043    1.3866 H   0  0  0  0  0  0  0  0  0  0  0  0
   -3.6807   -2.7523    0.1036 H   0  0  0  0  0  0  0  0  0  0  0  0
   -2.0477   -1.8543    1.1546 C   0  0  0  0  0  0  0  0  0  0  0  0
   -1.2227   -2.3443    1.9146 O   0  0  0  0  0  0  0  0  0  0  0  0
   -1.7517   -0.8483    0.3266 N   0  0  0  0  0  0  0  0  0  0  0  0
   -2.4847   -0.5123   -0.2804 H   0  0  0  0  0  0  0  0  0  0  0  0
   -0.4117   -0.2463    0.2186 C   0  0  1  0  0  0  0  0  0  0  0  0
    0.2438   -0.9626   -0.2828 H   0  0  0  0  0  0  0  0  0  0  0  0
   -0.5039    1.0018   -0.6898 C   0  0  0  0  0  0  0  0  0  0  0  0
   -1.2291    1.6951   -0.2563 H   0  0  0  0  0  0  0  0  0  0  0  0
    0.4628    1.5100   -0.6938 H   0  0  0  0  0  0  0  0  0  0  0  0
   -0.8958    0.7250   -2.1257 C   0  0  0  0  0  0  0  0  0  0  0  0
   -0.0686    0.1789   -3.0880 N   0  3  0  0  0  0  0  0  0  0  0  0
    0.8811   -0.1520   -2.8951 H   0  0  0  0  0  0  0  0  0  0  0  0
   -0.7613    0.0834   -4.2403 C   0  0  0  0  0  0  0  0  0  0  0  0
   -0.3767   -0.3217   -5.1742 H   0  0  0  0  0  0  0  0  0  0  0  0
   -2.0099    0.5581   -4.0304 N   0  0  0  0  0  0  0  0  0  0  0  0
   -2.7539    0.6070   -4.7214 H   0  0  0  0  0  0  0  0  0  0  0  0
   -2.1113    0.9654   -2.7074 C   0  0  0  0  0  0  0  0  0  0  0  0
   -2.9822    1.3928   -2.2182 H   0  0  0  0  0  0  0  0  0  0  0  0
    0.2022    0.0089    1.6067 C   0  0  0  0  0  0  0  0  0  0  0  0
    1.2569   -0.5364    1.9354 O   0  0  0  0  0  0  0  0  0  0  0  0
   -0.4764    0.8308    2.4167 N   0  0  0  0  0  0  0  0  0  0  0  0
   -1.3254    1.2407    2.0582 H   0  0  0  0  0  0  0  0  0  0  0  0
   -0.0864    1.1813    3.7858 C   0  0  0  0  0  0  0  0  0  0  0  0
    0.3811    2.1678    3.8016 H   0  0  0  0  0  0  0  0  0  0  0  0
   -0.9673    1.2037    4.4298 H   0  0  0  0  0  0  0  0  0  0  0  0
    0.6196    0.4519    4.1884 H   0  0  0  0  0  0  0  0  0  0  0  0
  5  6  2  0  0  0  0
  5  7  1  0  0  0  0
  2  3  1  0  0  0  0
  2  4  1  0  0  0  0
  2  5  1  0  0  0  0
  1  2  1  0  0  0  0
 23 24  2  0  0  0  0
 23 25  1  0  0  0  0
 21 22  1  0  0  0  0
 19 20  1  0  0  0  0
 19 21  1  0  0  0  0
 17 18  1  0  0  0  0
 17 19  1  0  0  0  0
 15 16  1  0  0  0  0
 15 17  2  0  0  0  0
 14 15  1  0  0  0  0
 14 21  2  0  0  0  0
 11 12  1  0  0  0  0
 11 13  1  0  0  0  0
 11 14  1  0  0  0  0
  9 10  1  0  0  0  0
  9 11  1  0  0  0  0
  9 23  1  0  0  0  0
  7  8  1  0  0  0  0
  7  9  1  0  0  0  0
 27 28  1  0  0  0  0
 27 29  1  0  0  0  0
 27 30  1  0  0  0  0
 25 26  1  0  0  0  0
 25 27  1  0  0  0  0
M  CHG  1  15   1
M  END
$$$$
default_name
  -OEChem-01062215323D

 30 30  0     1  0  0  0  0  0999 V2000
   -3.5507   -3.2183    1.8116 H   0  0  0  0  0  0  0  0  0  0  0  0
   -3.4597   -2.3913    1.1076 C   0  0  0  0  0  0  0  0  0  0  0  0
   -4.1577   -1.6043    1.3866 H   0  0  0  0  0  0  0  0  0  0  0  0
   -3.6807   -2.7523    0.1036 H   0  0  0  0  0  0  0  0  0  0  0  0
   -2.0477   -1.8543    1.1546 C   0  0  0  0  0  0  0  0  0  0  0  0
   -1.2227   -2.3443    1.9146 O   0  0  0  0  0  0  0  0  0  0  0  0
   -1.7517   -0.8483    0.3266 N   0  0  0  0  0  0  0  0  0  0  0  0
   -2.4847   -0.5123   -0.2804 H   0  0  0  0  0  0  0  0  0  0  0  0
   -0.4117   -0.2463    0.2186 C   0  0  1  0  0  0  0  0  0  0  0  0
    0.2438   -0.9626   -0.2828 H   0  0  0  0  0  0  0  0  0  0  0  0
   -0.5039    1.0018   -0.6898 C   0  0  0  0  0  0  0  0  0  0  0  0
   -1.2291    1.6951   -0.2563 H   0  0  0  0  0  0  0  0  0  0  0  0
    0.4628    1.5100   -0.6938 H   0  0  0  0  0  0  0  0  0  0  0  0
   -0.8958    0.7250   -2.1257 C   0  0  0  0  0  0  0  0  0  0  0  0
   -0.0686    0.1789   -3.0880 N   0  3  0  0  0  0  0  0  0  0  0  0
    0.8811   -0.1520   -2.8951 H   0  0  0  0  0  0  0  0  0  0  0  0
   -0.7613    0.0834   -4.2403 C   0  0  0  0  0  0  0  0  0  0  0  0
   -0.3767   -0.3217   -5.1742 H   0  0  0  0  0  0  0  0  0  0  0  0
   -2.0099    0.5581   -4.0304 N   0  0  0  0  0  0  0  0  0  0  0  0
   -2.7539    0.6070   -4.7214 H   0  0  0  0  0  0  0  0  0  0  0  0
   -2.1113    0.9654   -2.7074 C   0  0  0  0  0  0  0  0  0  0  0  0
   -2.9822    1.3928   -2.2182 H   0  0  0  0  0  0  0  0  0  0  0  0
    0.2022    0.0089    1.6067 C   0  0  0  0  0  0  0  0  0  0  0  0
    1.3709   -0.3020    1.8419 O   0  0  0  0  0  0  0  0  0  0  0  0
   -0.6023    0.5642    2.5214 N   0  0  0  0  0  0  0  0  0  0  0  0
   -1.5415    0.7955    2.2356 H   0  0  0  0  0  0  0  0  0  0  0  0
   -0.2289    0.8605    3.9078 C   0  0  0  0  0  0  0  0  0  0  0  0
   -0.0020    1.9230    4.0161 H   0  0  0  0  0  0  0  0  0  0  0  0
   -1.0542    0.6114    4.5772 H   0  0  0  0  0  0  0  0  0  0  0  0
    0.6477    0.2822    4.2071 H   0  0  0  0  0  0  0  0  0  0  0  0
  5  6  2  0  0  0  0
  5  7  1  0  0  0  0
  2  3  1  0  0  0  0
  2  4  1  0  0  0  0
  2  5  1  0  0  0  0
  1  2  1  0  0  0  0
 23 24  2  0  0  0  0
 23 25  1  0  0  0  0
 21 22  1  0  0  0  0
 19 20  1  0  0  0  0
 19 21  1  0  0  0  0
 17 18  1  0  0  0  0
 17 19  1  0  0  0  0
 15 16  1  0  0  0  0
 15 17  2  0  0  0  0
 14 15  1  0  0  0  0
 14 21  2  0  0  0  0
 11 12  1  0  0  0  0
 11 13  1  0  0  0  0
 11 14  1  0  0  0  0
  9 10  1  0  0  0  0
  9 11  1  0  0  0  0
  9 23  1  0  0  0  0
  7  8  1  0  0  0  0
  7  9  1  0  0  0  0
 27 28  1  0  0  0  0
 27 29  1  0  0  0  0
 27 30  1  0  0  0  0
 25 26  1  0  0  0  0
 25 27  1  0  0  0  0
M  CHG  1  15   1
M  END
$$$$
default_name
  -OEChem-01062215323D

 30 30  0     1  0  0  0  0  0999 V2000
   -3.5507   -3.2183    1.8116 H   0  0  0  0  0  0  0  0  0  0  0  0
   -3.4597   -2.3913    1.1076 C   0  0  0  0  0  0  0  0  0  0  0  0
   -4.1577   -1.6043    1.3866 H   0  0  0  0  0  0  0  0  0  0  0  0
   -3.6807   -2.7523    0.1036 H   0  0  0  0  0  0  0  0  0  0  0  0
   -2.0477   -1.8543    1.1546 C   0  0  0  0  0  0  0  0  0  0  0  0
   -1.2227   -2.3443    1.9146 O   0  0  0  0  0  0  0  0  0  0  0  0
   -1.7517   -0.8483    0.3266 N   0  0  0  0  0  0  0  0  0  0  0  0
   -2.4847   -0.5123   -0.2804 H   0  0  0  0  0  0  0  0  0  0  0  0
   -0.4117   -0.2463    0.2186 C   0  0  1  0  0  0  0  0  0  0  0  0
    0.2438   -0.9626   -0.2828 H   0  0  0  0  0  0  0  0  0  0  0  0
   -0.5039    1.0018   -0.6898 C   0  0  0  0  0  0  0  0  0  0  0  0
   -1.2291    1.6951   -0.2563 H   0  0  0  0  0  0  0  0  0  0  0  0
    0.4628    1.5100   -0.6938 H   0  0  0  0  0  0  0  0  0  0  0  0
   -0.8958    0.7250   -2.1257 C   0  0  0  0  0  0  0  0  0  0  0  0
   -0.0686    0.1789   -3.0880 N   0  3  0  0  0  0  0  0  0  0  0  0
    0.8811   -0.1520   -2.8951 H   0  0  0  0  0  0  0  0  0  0  0  0
   -0.7613    0.0834   -4.2403 C   0  0  0  0  0  0  0  0  0  0  0  0
   -0.3767   -0.3217   -5.1742 H   0  0  0  0  0  0  0  0  0  0  0  0
   -2.0099    0.5581   -4.0304 N   0  0  0  0  0  0  0  0  0  0  0  0
   -2.7539    0.6070   -4.7214 H   0  0  0  0  0  0  0  0  0  0  0  0
   -2.1113    0.9654   -2.7074 C   0  0  0  0  0  0  0  0  0  0  0  0
   -2.9822    1.3928   -2.2182 H   0  0  0  0  0  0  0  0  0  0  0  0
    0.2022    0.0089    1.6067 C   0  0  0  0  0  0  0  0  0  0  0  0
    1.4222   -0.0393    1.7709 O   0  0  0  0  0  0  0  0  0  0  0  0
   -0.6571    0.2664    2.6004 N   0  0  0  0  0  0  0  0  0  0  0  0
   -1.6387    0.2968    2.3703 H   0  0  0  0  0  0  0  0  0  0  0  0
   -0.2865    0.5049    3.9987 C   0  0  0  0  0  0  0  0  0  0  0  0
   -0.3057    1.5750    4.2143 H   0  0  0  0  0  0  0  0  0  0  0  0
   -0.9936    0.0038    4.6621 H   0  0  0  0  0  0  0  0  0  0  0  0
    0.7152    0.1230    4.2065 H   0  0  0  0  0  0  0  0  0  0  0  0
  5  6  2  0  0  0  0
  5  7  1  0  0  0  0
  2  3  1  0  0  0  0
  2  4  1  0  0  0  0
  2  5  1  0  0  0  0
  1  2  1  0  0  0  0
 23 24  2  0  0  0  0
 23 25  1  0  0  0  0
 21 22  1  0  0  0  0
 19 20  1  0  0  0  0
 19 21  1  0  0  0  0
 17 18  1  0  0  0  0
 17 19  1  0  0  0  0
 15 16  1  0  0  0  0
 15 17  2  0  0  0  0
 14 15  1  0  0  0  0
 14 21  2  0  0  0  0
 11 12  1  0  0  0  0
 11 13  1  0  0  0  0
 11 14  1  0  0  0  0
  9 10  1  0  0  0  0
  9 11  1  0  0  0  0
  9 23  1  0  0  0  0
  7  8  1  0  0  0  0
  7  9  1  0  0  0  0
 27 28  1  0  0  0  0
 27 29  1  0  0  0  0
 27 30  1  0  0  0  0
 25 26  1  0  0  0  0
 25 27  1  0  0  0  0
M  CHG  1  15   1
M  END
$$$$
default_name
  -OEChem-01062215323D

 30 30  0     1  0  0  0  0  0999 V2000
   -3.5507   -3.2183    1.8116 H   0  0  0  0  0  0  0  0  0  0  0  0
   -3.4597   -2.3913    1.1076 C   0  0  0  0  0  0  0  0  0  0  0  0
   -4.1577   -1.6043    1.3866 H   0  0  0  0  0  0  0  0  0  0  0  0
   -3.6807   -2.7523    0.1036 H   0  0  0  0  0  0  0  0  0  0  0  0
   -2.0477   -1.8543    1.1546 C   0  0  0  0  0  0  0  0  0  0  0  0
   -1.2227   -2.3443    1.9146 O   0  0  0  0  0  0  0  0  0  0  0  0
   -1.7517   -0.8483    0.3266 N   0  0  0  0  0  0  0  0  0  0  0  0
   -2.4847   -0.5123   -0.2804 H   0  0  0  0  0  0  0  0  0  0  0  0
   -0.4117   -0.2463    0.2186 C   0  0  1  0  0  0  0  0  0  0  0  0
    0.2438   -0.9626   -0.2828 H   0  0  0  0  0  0  0  0  0  0  0  0
   -0.5039    1.0018   -0.6898 C   0  0  0  0  0  0  0  0  0  0  0  0
   -1.2291    1.6951   -0.2563 H   0  0  0  0  0  0  0  0  0  0  0  0
    0.4628    1.5100   -0.6938 H   0  0  0  0  0  0  0  0  0  0  0  0
   -0.8958    0.7250   -2.1257 C   0  0  0  0  0  0  0  0  0  0  0  0
   -0.0686    0.1789   -3.0880 N   0  3  0  0  0  0  0  0  0  0  0  0
    0.8811   -0.1520   -2.8951 H   0  0  0  0  0  0  0  0  0  0  0  0
   -0.7613    0.0834   -4.2403 C   0  0  0  0  0  0  0  0  0  0  0  0
   -0.3767   -0.3217   -5.1742 H   0  0  0  0  0  0  0  0  0  0  0  0
   -2.0099    0.5581   -4.0304 N   0  0  0  0  0  0  0  0  0  0  0  0
   -2.7539    0.6070   -4.7214 H   0  0  0  0  0  0  0  0  0  0  0  0
   -2.1113    0.9654   -2.7074 C   0  0  0  0  0  0  0  0  0  0  0  0
   -2.9822    1.3928   -2.2182 H   0  0  0  0  0  0  0  0  0  0  0  0
    0.2022    0.0089    1.6067 C   0  0  0  0  0  0  0  0  0  0  0  0
    1.4075    0.2337    1.7272 O   0  0  0  0  0  0  0  0  0  0  0  0
   -0.6372   -0.0421    2.6483 N   0  0  0  0  0  0  0  0  0  0  0  0
   -1.6104   -0.2215    2.4531 H   0  0  0  0  0  0  0  0  0  0  0  0
   -0.2552    0.1385    4.0522 C   0  0  0  0  0  0  0  0  0  0  0  0
   -0.5094    1.1475    4.3830 H   0  0  0  0  0  0  0  0  0  0  0  0
   -0.7896   -0.5776    4.6788 H   0  0  0  0  0  0  0  0  0  0  0  0
    0.8176   -0.0150    4.1866 H   0  0  0  0  0  0  0  0  0  0  0  0
  5  6  2  0  0  0  0
  5  7  1  0  0  0  0
  2  3  1  0  0  0  0
  2  4  1  0  0  0  0
  2  5  1  0  0  0  0
  1  2  1  0  0  0  0
 23 24  2  0  0  0  0
 23 25  1  0  0  0  0
 21 22  1  0  0  0  0
 19 20  1  0  0  0  0
 19 21  1  0  0  0  0
 17 18  1  0  0  0  0
 17 19  1  0  0  0  0
 15 16  1  0  0  0  0
 15 17  2  0  0  0  0
 14 15  1  0  0  0  0
 14 21  2  0  0  0  0
 11 12  1  0  0  0  0
 11 13  1  0  0  0  0
 11 14  1  0  0  0  0
  9 10  1  0  0  0  0
  9 11  1  0  0  0  0
  9 23  1  0  0  0  0
  7  8  1  0  0  0  0
  7  9  1  0  0  0  0
 27 28  1  0  0  0  0
 27 29  1  0  0  0  0
 27 30  1  0  0  0  0
 25 26  1  0  0  0  0
 25 27  1  0  0  0  0
M  CHG  1  15   1
M  END
$$$$
default_name
  -OEChem-01062215323D

 30 30  0     1  0  0  0  0  0999 V2000
   -3.5507   -3.2183    1.8116 H   0  0  0  0  0  0  0  0  0  0  0  0
   -3.4597   -2.3913    1.1076 C   0  0  0  0  0  0  0  0  0  0  0  0
   -4.1577   -1.6043    1.3866 H   0  0  0  0  0  0  0  0  0  0  0  0
   -3.6807   -2.7523    0.1036 H   0  0  0  0  0  0  0  0  0  0  0  0
   -2.0477   -1.8543    1.1546 C   0  0  0  0  0  0  0  0  0  0  0  0
   -1.2227   -2.3443    1.9146 O   0  0  0  0  0  0  0  0  0  0  0  0
   -1.7517   -0.8483    0.3266 N   0  0  0  0  0  0  0  0  0  0  0  0
   -2.4847   -0.5123   -0.2804 H   0  0  0  0  0  0  0  0  0  0  0  0
   -0.4117   -0.2463    0.2186 C   0  0  1  0  0  0  0  0  0  0  0  0
    0.2438   -0.9626   -0.2828 H   0  0  0  0  0  0  0  0  0  0  0  0
   -0.5039    1.0018   -0.6898 C   0  0  0  0  0  0  0  0  0  0  0  0
   -1.2291    1.6951   -0.2563 H   0  0  0  0  0  0  0  0  0  0  0  0
    0.4628    1.5100   -0.6938 H   0  0  0  0  0  0  0  0  0  0  0  0
   -0.8958    0.7250   -2.1257 C   0  0  0  0  0  0  0  0  0  0  0  0
   -0.0686    0.1789   -3.0880 N   0  3  0  0  0  0  0  0  0  0  0  0
    0.8811   -0.1520   -2.8951 H   0  0  0  0  0  0  0  0  0  0  0  0
   -0.7613    0.0834   -4.2403 C   0  0  0  0  0  0  0  0  0  0  0  0
   -0.3767   -0.3217   -5.1742 H   0  0  0  0  0  0  0  0  0  0  0  0
   -2.0099    0.5581   -4.0304 N   0  0  0  0  0  0  0  0  0  0  0  0
   -2.7539    0.6070   -4.7214 H   0  0  0  0  0  0  0  0  0  0  0  0
   -2.1113    0.9654   -2.7074 C   0  0  0  0  0  0  0  0  0  0  0  0
   -2.9822    1.3928   -2.2182 H   0  0  0  0  0  0  0  0  0  0  0  0
    0.2022    0.0089    1.6067 C   0  0  0  0  0  0  0  0  0  0  0  0
    1.3276    0.4985    1.7138 O   0  0  0  0  0  0  0  0  0  0  0  0
   -0.5439   -0.3405    2.6619 N   0  0  0  0  0  0  0  0  0  0  0  0
   -1.4585   -0.7241    2.4783 H   0  0  0  0  0  0  0  0  0  0  0  0
   -0.1371   -0.2135    4.0647 C   0  0  0  0  0  0  0  0  0  0  0  0
   -0.5990    0.6697    4.5105 H   0  0  0  0  0  0  0  0  0  0  0  0
   -0.4561   -1.0934    4.6261 H   0  0  0  0  0  0  0  0  0  0  0  0
    0.9479   -0.1224    4.1488 H   0  0  0  0  0  0  0  0  0  0  0  0
  5  6  2  0  0  0  0
  5  7  1  0  0  0  0
  2  3  1  0  0  0  0
  2  4  1  0  0  0  0
  2  5  1  0  0  0  0
  1  2  1  0  0  0  0
 23 24  2  0  0  0  0
 23 25  1  0  0  0  0
 21 22  1  0  0  0  0
 19 20  1  0  0  0  0
 19 21  1  0  0  0  0
 17 18  1  0  0  0  0
 17 19  1  0  0  0  0
 15 16  1  0  0  0  0
 15 17  2  0  0  0  0
 14 15  1  0  0  0  0
 14 21  2  0  0  0  0
 11 12  1  0  0  0  0
 11 13  1  0  0  0  0
 11 14  1  0  0  0  0
  9 10  1  0  0  0  0
  9 11  1  0  0  0  0
  9 23  1  0  0  0  0
  7  8  1  0  0  0  0
  7  9  1  0  0  0  0
 27 28  1  0  0  0  0
 27 29  1  0  0  0  0
 27 30  1  0  0  0  0
 25 26  1  0  0  0  0
 25 27  1  0  0  0  0
M  CHG  1  15   1
M  END
$$$$
default_name
  -OEChem-01062215323D

 30 30  0     1  0  0  0  0  0999 V2000
   -3.5507   -3.2183    1.8116 H   0  0  0  0  0  0  0  0  0  0  0  0
   -3.4597   -2.3913    1.1076 C   0  0  0  0  0  0  0  0  0  0  0  0
   -4.1577   -1.6043    1.3866 H   0  0  0  0  0  0  0  0  0  0  0  0
   -3.6807   -2.7523    0.1036 H   0  0  0  0  0  0  0  0  0  0  0  0
   -2.0477   -1.8543    1.1546 C   0  0  0  0  0  0  0  0  0  0  0  0
   -1.2227   -2.3443    1.9146 O   0  0  0  0  0  0  0  0  0  0  0  0
   -1.7517   -0.8483    0.3266 N   0  0  0  0  0  0  0  0  0  0  0  0
   -2.4847   -0.5123   -0.2804 H   0  0  0  0  0  0  0  0  0  0  0  0
   -0.4117   -0.2463    0.2186 C   0  0  1  0  0  0  0  0  0  0  0  0
    0.2438   -0.9626   -0.2828 H   0  0  0  0  0  0  0  0  0  0  0  0
   -0.5039    1.0018   -0.6898 C   0  0  0  0  0  0  0  0  0  0  0  0
   -1.2291    1.6951   -0.2563 H   0  0  0  0  0  0  0  0  0  0  0  0
    0.4628    1.5100   -0.6938 H   0  0  0  0  0  0  0  0  0  0  0  0
   -0.8958    0.7250   -2.1257 C   0  0  0  0  0  0  0  0  0  0  0  0
   -0.0686    0.1789   -3.0880 N   0  3  0  0  0  0  0  0  0  0  0  0
    0.8811   -0.1520   -2.8951 H   0  0  0  0  0  0  0  0  0  0  0  0
   -0.7613    0.0834   -4.2403 C   0  0  0  0  0  0  0  0  0  0  0  0
   -0.3767   -0.3217   -5.1742 H   0  0  0  0  0  0  0  0  0  0  0  0
   -2.0099    0.5581   -4.0304 N   0  0  0  0  0  0  0  0  0  0  0  0
   -2.7539    0.6070   -4.7214 H   0  0  0  0  0  0  0  0  0  0  0  0
   -2.1113    0.9654   -2.7074 C   0  0  0  0  0  0  0  0  0  0  0  0
   -2.9822    1.3928   -2.2182 H   0  0  0  0  0  0  0  0  0  0  0  0
    0.2022    0.0089    1.6067 C   0  0  0  0  0  0  0  0  0  0  0  0
    1.1881    0.7370    1.7317 O   0  0  0  0  0  0  0  0  0  0  0  0
   -0.3835   -0.6083    2.6402 N   0  0  0  0  0  0  0  0  0  0  0  0
   -1.1933   -1.1768    2.4443 H   0  0  0  0  0  0  0  0  0  0  0  0
    0.0596   -0.5273    4.0354 C   0  0  0  0  0  0  0  0  0  0  0  0
   -0.5686    0.1740    4.5882 H   0  0  0  0  0  0  0  0  0  0  0  0
   -0.0158   -1.5083    4.5077 H   0  0  0  0  0  0  0  0  0  0  0  0
    1.0971   -0.1918    4.0955 H   0  0  0  0  0  0  0  0  0  0  0  0
  5  6  2  0  0  0  0
  5  7  1  0  0  0  0
  2  3  1  0  0  0  0
  2  4  1  0  0  0  0
  2  5  1  0  0  0  0
  1  2  1  0  0  0  0
 23 24  2  0  0  0  0
 23 25  1  0  0  0  0
 21 22  1  0  0  0  0
 19 20  1  0  0  0  0
 19 21  1  0  0  0  0
 17 18  1  0  0  0  0
 17 19  1  0  0  0  0
 15 16  1  0  0  0  0
 15 17  2  0  0  0  0
 14 15  1  0  0  0  0
 14 21  2  0  0  0  0
 11 12  1  0  0  0  0
 11 13  1  0  0  0  0
 11 14  1  0  0  0  0
  9 10  1  0  0  0  0
  9 11  1  0  0  0  0
  9 23  1  0  0  0  0
  7  8  1  0  0  0  0
  7  9  1  0  0  0  0
 27 28  1  0  0  0  0
 27 29  1  0  0  0  0
 27 30  1  0  0  0  0
 25 26  1  0  0  0  0
 25 27  1  0  0  0  0
M  CHG  1  15   1
M  END
$$$$
default_name
  -OEChem-01062215323D

 30 30  0     1  0  0  0  0  0999 V2000
   -3.5507   -3.2183    1.8116 H   0  0  0  0  0  0  0  0  0  0  0  0
   -3.4597   -2.3913    1.1076 C   0  0  0  0  0  0  0  0  0  0  0  0
   -4.1577   -1.6043    1.3866 H   0  0  0  0  0  0  0  0  0  0  0  0
   -3.6807   -2.7523    0.1036 H   0  0  0  0  0  0  0  0  0  0  0  0
   -2.0477   -1.8543    1.1546 C   0  0  0  0  0  0  0  0  0  0  0  0
   -1.2227   -2.3443    1.9146 O   0  0  0  0  0  0  0  0  0  0  0  0
   -1.7517   -0.8483    0.3266 N   0  0  0  0  0  0  0  0  0  0  0  0
   -2.4847   -0.5123   -0.2804 H   0  0  0  0  0  0  0  0  0  0  0  0
   -0.4117   -0.2463    0.2186 C   0  0  1  0  0  0  0  0  0  0  0  0
    0.2438   -0.9626   -0.2828 H   0  0  0  0  0  0  0  0  0  0  0  0
   -0.5039    1.0018   -0.6898 C   0  0  0  0  0  0  0  0  0  0  0  0
   -1.2291    1.6951   -0.2563 H   0  0  0  0  0  0  0  0  0  0  0  0
    0.4628    1.5100   -0.6938 H   0  0  0  0  0  0  0  0  0  0  0  0
   -0.8958    0.7250   -2.1257 C   0  0  0  0  0  0  0  0  0  0  0  0
   -0.0686    0.1789   -3.0880 N   0  3  0  0  0  0  0  0  0  0  0  0
    0.8811   -0.1520   -2.8951 H   0  0  0  0  0  0  0  0  0  0  0  0
   -0.7613    0.0834   -4.2403 C   0  0  0  0  0  0  0  0  0  0  0  0
   -0.3767   -0.3217   -5.1742 H   0  0  0  0  0  0  0  0  0  0  0  0
   -2.0099    0.5581   -4.0304 N   0  0  0  0  0  0  0  0  0  0  0  0
   -2.7539    0.6070   -4.7214 H   0  0  0  0  0  0  0  0  0  0  0  0
   -2.1113    0.9654   -2.7074 C   0  0  0  0  0  0  0  0  0  0  0  0
   -2.9822    1.3928   -2.2182 H   0  0  0  0  0  0  0  0  0  0  0  0
    0.2022    0.0089    1.6067 C   0  0  0  0  0  0  0  0  0  0  0  0
    0.9985    0.9330    1.7795 O   0  0  0  0  0  0  0  0  0  0  0  0
   -0.1670   -0.8273    2.5847 N   0  0  0  0  0  0  0  0  0  0  0  0
   -0.8330   -1.5486    2.3533 H   0  0  0  0  0  0  0  0  0  0  0  0
    0.3217   -0.7815    3.9662 C   0  0  0  0  0  0  0  0  0  0  0  0
   -0.4202   -0.3058    4.6107 H   0  0  0  0  0  0  0  0  0  0  0  0
    0.5013   -1.7941    4.3315 H   0  0  0  0  0  0  0  0  0  0  0  0
    1.2552   -0.2184    4.0305 H   0  0  0  0  0  0  0  0  0  0  0  0
  5  6  2  0  0  0  0
  5  7  1  0  0  0  0
  2  3  1  0  0  0  0
  2  4  1  0  0  0  0
  2  5  1  0  0  0  0
  1  2  1  0  0  0  0
 23 24  2  0  0  0  0
 23 25  1  0  0  0  0
 21 22  1  0  0  0  0
 19 20  1  0  0  0  0
 19 21  1  0  0  0  0
 17 18  1  0  0  0  0
 17 19  1  0  0  0  0
 15 16  1  0  0  0  0
 15 17  2  0  0  0  0
 14 15  1  0  0  0  0
 14 21  2  0  0  0  0
 11 12  1  0  0  0  0
 11 13  1  0  0  0  0
 11 14  1  0  0  0  0
  9 10  1  0  0  0  0
  9 11  1  0  0  0  0
  9 23  1  0  0  0  0
  7  8  1  0  0  0  0
  7  9  1  0  0  0  0
 27 28  1  0  0  0  0
 27 29  1  0  0  0  0
 27 30  1  0  0  0  0
 25 26  1  0  0  0  0
 25 27  1  0  0  0  0
M  CHG  1  15   1
M  END
$$$$
default_name
  -OEChem-01062215323D

 30 30  0     1  0  0  0  0  0999 V2000
   -3.5507   -3.2183    1.8116 H   0  0  0  0  0  0  0  0  0  0  0  0
   -3.4597   -2.3913    1.1076 C   0  0  0  0  0  0  0  0  0  0  0  0
   -4.1577   -1.6043    1.3866 H   0  0  0  0  0  0  0  0  0  0  0  0
   -3.6807   -2.7523    0.1036 H   0  0  0  0  0  0  0  0  0  0  0  0
   -2.0477   -1.8543    1.1546 C   0  0  0  0  0  0  0  0  0  0  0  0
   -1.2227   -2.3443    1.9146 O   0  0  0  0  0  0  0  0  0  0  0  0
   -1.7517   -0.8483    0.3266 N   0  0  0  0  0  0  0  0  0  0  0  0
   -2.4847   -0.5123   -0.2804 H   0  0  0  0  0  0  0  0  0  0  0  0
   -0.4117   -0.2463    0.2186 C   0  0  1  0  0  0  0  0  0  0  0  0
    0.2438   -0.9626   -0.2828 H   0  0  0  0  0  0  0  0  0  0  0  0
   -0.5039    1.0018   -0.6898 C   0  0  0  0  0  0  0  0  0  0  0  0
   -1.2291    1.6951   -0.2563 H   0  0  0  0  0  0  0  0  0  0  0  0
    0.4628    1.5100   -0.6938 H   0  0  0  0  0  0  0  0  0  0  0  0
   -0.8958    0.7250   -2.1257 C   0  0  0  0  0  0  0  0  0  0  0  0
   -0.0686    0.1789   -3.0880 N   0  3  0  0  0  0  0  0  0  0  0  0
    0.8811   -0.1520   -2.8951 H   0  0  0  0  0  0  0  0  0  0  0  0
   -0.7613    0.0834   -4.2403 C   0  0  0  0  0  0  0  0  0  0  0  0
   -0.3767   -0.3217   -5.1742 H   0  0  0  0  0  0  0  0  0  0  0  0
   -2.0099    0.5581   -4.0304 N   0  0  0  0  0  0  0  0  0  0  0  0
   -2.7539    0.6070   -4.7214 H   0  0  0  0  0  0  0  0  0  0  0  0
   -2.1113    0.9654   -2.7074 C   0  0  0  0  0  0  0  0  0  0  0  0
   -2.9822    1.3928   -2.2182 H   0  0  0  0  0  0  0  0  0  0  0  0
    0.2022    0.0089    1.6067 C   0  0  0  0  0  0  0  0  0  0  0  0
    0.7716    1.0731    1.8541 O   0  0  0  0  0  0  0  0  0  0  0  0
    0.0909   -0.9826    2.4993 N   0  0  0  0  0  0  0  0  0  0  0  0
   -0.4021   -1.8142    2.2115 H   0  0  0  0  0  0  0  0  0  0  0  0
    0.6312   -0.9587    3.8619 C   0  0  0  0  0  0  0  0  0  0  0  0
   -0.1639   -0.7368    4.5766 H   0  0  0  0  0  0  0  0  0  0  0  0
    1.0598   -1.9313    4.1097 H   0  0  0  0  0  0  0  0  0  0  0  0
    1.4113   -0.2006    3.9582 H   0  0  0  0  0  0  0  0  0  0  0  0
  5  6  2  0  0  0  0
  5  7  1  0  0  0  0
  2  3  1  0  0  0  0
  2  4  1  0  0  0  0
  2  5  1  0  0  0  0
  1  2  1  0  0  0  0
 23 24  2  0  0  0  0
 23 25  1  0  0  0  0
 21 22  1  0  0  0  0
 19 20  1  0  0  0  0
 19 21  1  0  0  0  0
 17 18  1  0  0  0  0
 17 19  1  0  0  0  0
 15 16  1  0  0  0  0
 15 17  2  0  0  0  0
 14 15  1  0  0  0  0
 14 21  2  0  0  0  0
 11 12  1  0  0  0  0
 11 13  1  0  0  0  0
 11 14  1  0  0  0  0
  9 10  1  0  0  0  0
  9 11  1  0  0  0  0
  9 23  1  0  0  0  0
  7  8  1  0  0  0  0
  7  9  1  0  0  0  0
 27 28  1  0  0  0  0
 27 29  1  0  0  0  0
 27 30  1  0  0  0  0
 25 26  1  0  0  0  0
 25 27  1  0  0  0  0
M  CHG  1  15   1
M  END
$$$$
default_name
  -OEChem-01062215323D

 30 30  0     1  0  0  0  0  0999 V2000
   -3.5507   -3.2183    1.8116 H   0  0  0  0  0  0  0  0  0  0  0  0
   -3.4597   -2.3913    1.1076 C   0  0  0  0  0  0  0  0  0  0  0  0
   -4.1577   -1.6043    1.3866 H   0  0  0  0  0  0  0  0  0  0  0  0
   -3.6807   -2.7523    0.1036 H   0  0  0  0  0  0  0  0  0  0  0  0
   -2.0477   -1.8543    1.1546 C   0  0  0  0  0  0  0  0  0  0  0  0
   -1.2227   -2.3443    1.9146 O   0  0  0  0  0  0  0  0  0  0  0  0
   -1.7517   -0.8483    0.3266 N   0  0  0  0  0  0  0  0  0  0  0  0
   -2.4847   -0.5123   -0.2804 H   0  0  0  0  0  0  0  0  0  0  0  0
   -0.4117   -0.2463    0.2186 C   0  0  1  0  0  0  0  0  0  0  0  0
    0.2438   -0.9626   -0.2828 H   0  0  0  0  0  0  0  0  0  0  0  0
   -0.5039    1.0018   -0.6898 C   0  0  0  0  0  0  0  0  0  0  0  0
   -1.2291    1.6951   -0.2563 H   0  0  0  0  0  0  0  0  0  0  0  0
    0.4628    1.5100   -0.6938 H   0  0  0  0  0  0  0  0  0  0  0  0
   -0.8958    0.7250   -2.1257 C   0  0  0  0  0  0  0  0  0  0  0  0
   -0.0686    0.1789   -3.0880 N   0  3  0  0  0  0  0  0  0  0  0  0
    0.8811   -0.1520   -2.8951 H   0  0  0  0  0  0  0  0  0  0  0  0
   -0.7613    0.0834   -4.2403 C   0  0  0  0  0  0  0  0  0  0  0  0
   -0.3767   -0.3217   -5.1742 H   0  0  0  0  0  0  0  0  0  0  0  0
   -2.0099    0.5581   -4.0304 N   0  0  0  0  0  0  0  0  0  0  0  0
   -2.7539    0.6070   -4.7214 H   0  0  0  0  0  0  0  0  0  0  0  0
   -2.1113    0.9654   -2.7074 C   0  0  0  0  0  0  0  0  0  0  0  0
   -2.9822    1.3928   -2.2182 H   0  0  0  0  0  0  0  0  0  0  0  0
    0.2022    0.0089    1.6067 C   0  0  0  0  0  0  0  0  0  0  0  0
    0.5229    1.1477    1.9504 O   0  0  0  0  0  0  0  0  0  0  0  0
    0.3725   -1.0636    2.3896 N   0  0  0  0  0  0  0  0  0  0  0  0
    0.0700   -1.9556    2.0287 H   0  0  0  0  0  0  0  0  0  0  0  0
    0.9670   -1.0469    3.7296 C   0  0  0  0  0  0  0  0  0  0  0  0
    0.1829   -1.0898    4.4882 H   0  0  0  0  0  0  0  0  0  0  0  0
    1.6219   -1.9105    3.8573 H   0  0  0  0  0  0  0  0  0  0  0  0
    1.5548   -0.1395    3.8835 H   0  0  0  0  0  0  0  0  0  0  0  0
  5  6  2  0  0  0  0
  5  7  1  0  0  0  0
  2  3  1  0  0  0  0
  2  4  1  0  0  0  0
  2  5  1  0  0  0  0
  1  2  1  0  0  0  0
 23 24  2  0  0  0  0
 23 25  1  0  0  0  0
 21 22  1  0  0  0  0
 19 20  1  0  0  0  0
 19 21  1  0  0  0  0
 17 18  1  0  0  0  0
 17 19  1  0  0  0  0
 15 16  1  0  0  0  0
 15 17  2  0  0  0  0
 14 15  1  0  0  0  0
 14 21  2  0  0  0  0
 11 12  1  0  0  0  0
 11 13  1  0  0  0  0
 11 14  1  0  0  0  0
  9 10  1  0  0  0  0
  9 11  1  0  0  0  0
  9 23  1  0  0  0  0
  7  8  1  0  0  0  0
  7  9  1  0  0  0  0
 27 28  1  0  0  0  0
 27 29  1  0  0  0  0
 27 30  1  0  0  0  0
 25 26  1  0  0  0  0
 25 27  1  0  0  0  0
M  CHG  1  15   1
M  END
$$$$
default_name
  -OEChem-01062215323D

 30 30  0     1  0  0  0  0  0999 V2000
   -3.5507   -3.2183    1.8116 H   0  0  0  0  0  0  0  0  0  0  0  0
   -3.4597   -2.3913    1.1076 C   0  0  0  0  0  0  0  0  0  0  0  0
   -4.1577   -1.6043    1.3866 H   0  0  0  0  0  0  0  0  0  0  0  0
   -3.6807   -2.7523    0.1036 H   0  0  0  0  0  0  0  0  0  0  0  0
   -2.0477   -1.8543    1.1546 C   0  0  0  0  0  0  0  0  0  0  0  0
   -1.2227   -2.3443    1.9146 O   0  0  0  0  0  0  0  0  0  0  0  0
   -1.7517   -0.8483    0.3266 N   0  0  0  0  0  0  0  0  0  0  0  0
   -2.4847   -0.5123   -0.2804 H   0  0  0  0  0  0  0  0  0  0  0  0
   -0.4117   -0.2463    0.2186 C   0  0  1  0  0  0  0  0  0  0  0  0
    0.2438   -0.9626   -0.2828 H   0  0  0  0  0  0  0  0  0  0  0  0
   -0.5039    1.0018   -0.6898 C   0  0  0  0  0  0  0  0  0  0  0  0
   -1.2291    1.6951   -0.2563 H   0  0  0  0  0  0  0  0  0  0  0  0
    0.4628    1.5100   -0.6938 H   0  0  0  0  0  0  0  0  0  0  0  0
   -0.8958    0.7250   -2.1257 C   0  0  0  0  0  0  0  0  0  0  0  0
   -0.0686    0.1789   -3.0880 N   0  3  0  0  0  0  0  0  0  0  0  0
    0.8811   -0.1520   -2.8951 H   0  0  0  0  0  0  0  0  0  0  0  0
   -0.7613    0.0834   -4.2403 C   0  0  0  0  0  0  0  0  0  0  0  0
   -0.3767   -0.3217   -5.1742 H   0  0  0  0  0  0  0  0  0  0  0  0
   -2.0099    0.5581   -4.0304 N   0  0  0  0  0  0  0  0  0  0  0  0
   -2.7539    0.6070   -4.7214 H   0  0  0  0  0  0  0  0  0  0  0  0
   -2.1113    0.9654   -2.7074 C   0  0  0  0  0  0  0  0  0  0  0  0
   -2.9822    1.3928   -2.2182 H   0  0  0  0  0  0  0  0  0  0  0  0
    0.2022    0.0089    1.6067 C   0  0  0  0  0  0  0  0  0  0  0  0
    0.2694    1.1518    2.0617 O   0  0  0  0  0  0  0  0  0  0  0  0
    0.6587   -1.0647    2.2632 N   0  0  0  0  0  0  0  0  0  0  0  0
    0.5512   -1.9630    1.8173 H   0  0  0  0  0  0  0  0  0  0  0  0
    1.3063   -1.0400    3.5783 C   0  0  0  0  0  0  0  0  0  0  0  0
    0.5964   -1.3407    4.3514 H   0  0  0  0  0  0  0  0  0  0  0  0
    2.1491   -1.7332    3.5916 H   0  0  0  0  0  0  0  0  0  0  0  0
    1.6760   -0.0392    3.8115 H   0  0  0  0  0  0  0  0  0  0  0  0
  5  6  2  0  0  0  0
  5  7  1  0  0  0  0
  2  3  1  0  0  0  0
  2  4  1  0  0  0  0
  2  5  1  0  0  0  0
  1  2  1  0  0  0  0
 23 24  2  0  0  0  0
 23 25  1  0  0  0  0
 21 22  1  0  0  0  0
 19 20  1  0  0  0  0
 19 21  1  0  0  0  0
 17 18  1  0  0  0  0
 17 19  1  0  0  0  0
 15 16  1  0  0  0  0
 15 17  2  0  0  0  0
 14 15  1  0  0  0  0
 14 21  2  0  0  0  0
 11 12  1  0  0  0  0
 11 13  1  0  0  0  0
 11 14  1  0  0  0  0
  9 10  1  0  0  0  0
  9 11  1  0  0  0  0
  9 23  1  0  0  0  0
  7  8  1  0  0  0  0
  7  9  1  0  0  0  0
 27 28  1  0  0  0  0
 27 29  1  0  0  0  0
 27 30  1  0  0  0  0
 25 26  1  0  0  0  0
 25 27  1  0  0  0  0
M  CHG  1  15   1
M  END
$$$$
default_name
  -OEChem-01062215323D

 30 30  0     1  0  0  0  0  0999 V2000
   -3.5507   -3.2183    1.8116 H   0  0  0  0  0  0  0  0  0  0  0  0
   -3.4597   -2.3913    1.1076 C   0  0  0  0  0  0  0  0  0  0  0  0
   -4.1577   -1.6043    1.3866 H   0  0  0  0  0  0  0  0  0  0  0  0
   -3.6807   -2.7523    0.1036 H   0  0  0  0  0  0  0  0  0  0  0  0
   -2.0477   -1.8543    1.1546 C   0  0  0  0  0  0  0  0  0  0  0  0
   -1.2227   -2.3443    1.9146 O   0  0  0  0  0  0  0  0  0  0  0  0
   -1.7517   -0.8483    0.3266 N   0  0  0  0  0  0  0  0  0  0  0  0
   -2.4847   -0.5123   -0.2804 H   0  0  0  0  0  0  0  0  0  0  0  0
   -0.4117   -0.2463    0.2186 C   0  0  1  0  0  0  0  0  0  0  0  0
    0.2438   -0.9626   -0.2828 H   0  0  0  0  0  0  0  0  0  0  0  0
   -0.5039    1.0018   -0.6898 C   0  0  0  0  0  0  0  0  0  0  0  0
   -1.2291    1.6951   -0.2563 H   0  0  0  0  0  0  0  0  0  0  0  0
    0.4628    1.5100   -0.6938 H   0  0  0  0  0  0  0  0  0  0  0  0
   -0.8958    0.7250   -2.1257 C   0  0  0  0  0  0  0  0  0  0  0  0
   -0.0686    0.1789   -3.0880 N   0  3  0  0  0  0  0  0  0  0  0  0
    0.8811   -0.1520   -2.8951 H   0  0  0  0  0  0  0  0  0  0  0  0
   -0.7613    0.0834   -4.2403 C   0  0  0  0  0  0  0  0  0  0  0  0
   -0.3767   -0.3217   -5.1742 H   0  0  0  0  0  0  0  0  0  0  0  0
   -2.0099    0.5581   -4.0304 N   0  0  0  0  0  0  0  0  0  0  0  0
   -2.7539    0.6070   -4.7214 H   0  0  0  0  0  0  0  0  0  0  0  0
   -2.1113    0.9654   -2.7074 C   0  0  0  0  0  0  0  0  0  0  0  0
   -2.9822    1.3928   -2.2182 H   0  0  0  0  0  0  0  0  0  0  0  0
    0.2022    0.0089    1.6067 C   0  0  0  0  0  0  0  0  0  0  0  0
    0.0284    1.0851    2.1806 O   0  0  0  0  0  0  0  0  0  0  0  0
    0.9301   -0.9860    2.1287 N   0  0  0  0  0  0  0  0  0  0  0  0
    1.0087   -1.8361    1.5916 H   0  0  0  0  0  0  0  0  0  0  0  0
    1.6259   -0.9385    3.4183 C   0  0  0  0  0  0  0  0  0  0  0  0
    1.0485   -1.4725    4.1757 H   0  0  0  0  0  0  0  0  0  0  0  0
    2.6056   -1.4114    3.3306 H   0  0  0  0  0  0  0  0  0  0  0  0
    1.7665    0.0934    3.7471 H   0  0  0  0  0  0  0  0  0  0  0  0
  5  6  2  0  0  0  0
  5  7  1  0  0  0  0
  2  3  1  0  0  0  0
  2  4  1  0  0  0  0
  2  5  1  0  0  0  0
  1  2  1  0  0  0  0
 23 24  2  0  0  0  0
 23 25  1  0  0  0  0
 21 22  1  0  0  0  0
 19 20  1  0  0  0  0
 19 21  1  0  0  0  0
 17 18  1  0  0  0  0
 17 19  1  0  0  0  0
 15 16  1  0  0  0  0
 15 17  2  0  0  0  0
 14 15  1  0  0  0  0
 14 21  2  0  0  0  0
 11 12  1  0  0  0  0
 11 13  1  0  0  0  0
 11 14  1  0  0  0  0
  9 10  1  0  0  0  0
  9 11  1  0  0  0  0
  9 23  1  0  0  0  0
  7  8  1  0  0  0  0
  7  9  1  0  0  0  0
 27 28  1  0  0  0  0
 27 29  1  0  0  0  0
 27 30  1  0  0  0  0
 25 26  1  0  0  0  0
 25 27  1  0  0  0  0
M  CHG  1  15   1
M  END
$$$$
default_name
  -OEChem-01062215323D

 30 30  0     1  0  0  0  0  0999 V2000
   -3.5507   -3.2183    1.8116 H   0  0  0  0  0  0  0  0  0  0  0  0
   -3.4597   -2.3913    1.1076 C   0  0  0  0  0  0  0  0  0  0  0  0
   -4.1577   -1.6043    1.3866 H   0  0  0  0  0  0  0  0  0  0  0  0
   -3.6807   -2.7523    0.1036 H   0  0  0  0  0  0  0  0  0  0  0  0
   -2.0477   -1.8543    1.1546 C   0  0  0  0  0  0  0  0  0  0  0  0
   -1.2227   -2.3443    1.9146 O   0  0  0  0  0  0  0  0  0  0  0  0
   -1.7517   -0.8483    0.3266 N   0  0  0  0  0  0  0  0  0  0  0  0
   -2.4847   -0.5123   -0.2804 H   0  0  0  0  0  0  0  0  0  0  0  0
   -0.4117   -0.2463    0.2186 C   0  0  1  0  0  0  0  0  0  0  0  0
    0.2438   -0.9626   -0.2828 H   0  0  0  0  0  0  0  0  0  0  0  0
   -0.5039    1.0018   -0.6898 C   0  0  0  0  0  0  0  0  0  0  0  0
   -1.2291    1.6951   -0.2563 H   0  0  0  0  0  0  0  0  0  0  0  0
    0.4628    1.5100   -0.6938 H   0  0  0  0  0  0  0  0  0  0  0  0
   -0.8958    0.7250   -2.1257 C   0  0  0  0  0  0  0  0  0  0  0  0
   -0.0686    0.1789   -3.0880 N   0  3  0  0  0  0  0  0  0  0  0  0
    0.8811   -0.1520   -2.8951 H   0  0  0  0  0  0  0  0  0  0  0  0
   -0.7613    0.0834   -4.2403 C   0  0  0  0  0  0  0  0  0  0  0  0
   -0.3767   -0.3217   -5.1742 H   0  0  0  0  0  0  0  0  0  0  0  0
   -2.0099    0.5581   -4.0304 N   0  0  0  0  0  0  0  0  0  0  0  0
   -2.7539    0.6070   -4.7214 H   0  0  0  0  0  0  0  0  0  0  0  0
   -2.1113    0.9654   -2.7074 C   0  0  0  0  0  0  0  0  0  0  0  0
   -2.9822    1.3928   -2.2182 H   0  0  0  0  0  0  0  0  0  0  0  0
    0.2022    0.0089    1.6067 C   0  0  0  0  0  0  0  0  0  0  0  0
   -0.1838    0.9522    2.2988 O   0  0  0  0  0  0  0  0  0  0  0  0
    1.1680   -0.8327    1.9953 N   0  0  0  0  0  0  0  0  0  0  0  0
    1.4113   -1.5834    1.3671 H   0  0  0  0  0  0  0  0  0  0  0  0
    1.9040   -0.7493    3.2605 C   0  0  0  0  0  0  0  0  0  0  0  0
    1.5085   -1.4760    3.9729 H   0  0  0  0  0  0  0  0  0  0  0  0
    2.9601   -0.9670    3.0921 H   0  0  0  0  0  0  0  0  0  0  0  0
    1.8202    0.2492    3.6947 H   0  0  0  0  0  0  0  0  0  0  0  0
  5  6  2  0  0  0  0
  5  7  1  0  0  0  0
  2  3  1  0  0  0  0
  2  4  1  0  0  0  0
  2  5  1  0  0  0  0
  1  2  1  0  0  0  0
 23 24  2  0  0  0  0
 23 25  1  0  0  0  0
 21 22  1  0  0  0  0
 19 20  1  0  0  0  0
 19 21  1  0  0  0  0
 17 18  1  0  0  0  0
 17 19  1  0  0  0  0
 15 16  1  0  0  0  0
 15 17  2  0  0  0  0
 14 15  1  0  0  0  0
 14 21  2  0  0  0  0
 11 12  1  0  0  0  0
 11 13  1  0  0  0  0
 11 14  1  0  0  0  0
  9 10  1  0  0  0  0
  9 11  1  0  0  0  0
  9 23  1  0  0  0  0
  7  8  1  0  0  0  0
  7  9  1  0  0  0  0
 27 28  1  0  0  0  0
 27 29  1  0  0  0  0
 27 30  1  0  0  0  0
 25 26  1  0  0  0  0
 25 27  1  0  0  0  0
M  CHG  1  15   1
M  END
$$$$
default_name
  -OEChem-01062215323D

 30 30  0     1  0  0  0  0  0999 V2000
   -3.5507   -3.2183    1.8116 H   0  0  0  0  0  0  0  0  0  0  0  0
   -3.4597   -2.3913    1.1076 C   0  0  0  0  0  0  0  0  0  0  0  0
   -4.1577   -1.6043    1.3866 H   0  0  0  0  0  0  0  0  0  0  0  0
   -3.6807   -2.7523    0.1036 H   0  0  0  0  0  0  0  0  0  0  0  0
   -2.0477   -1.8543    1.1546 C   0  0  0  0  0  0  0  0  0  0  0  0
   -1.2227   -2.3443    1.9146 O   0  0  0  0  0  0  0  0  0  0  0  0
   -1.7517   -0.8483    0.3266 N   0  0  0  0  0  0  0  0  0  0  0  0
   -2.4847   -0.5123   -0.2804 H   0  0  0  0  0  0  0  0  0  0  0  0
   -0.4117   -0.2463    0.2186 C   0  0  1  0  0  0  0  0  0  0  0  0
    0.2438   -0.9626   -0.2828 H   0  0  0  0  0  0  0  0  0  0  0  0
   -0.5039    1.0018   -0.6898 C   0  0  0  0  0  0  0  0  0  0  0  0
   -1.2291    1.6951   -0.2563 H   0  0  0  0  0  0  0  0  0  0  0  0
    0.4628    1.5100   -0.6938 H   0  0  0  0  0  0  0  0  0  0  0  0
   -0.8958    0.7250   -2.1257 C   0  0  0  0  0  0  0  0  0  0  0  0
   -0.0686    0.1789   -3.0880 N   0  3  0  0  0  0  0  0  0  0  0  0
    0.8811   -0.1520   -2.8951 H   0  0  0  0  0  0  0  0  0  0  0  0
   -0.7613    0.0834   -4.2403 C   0  0  0  0  0  0  0  0  0  0  0  0
   -0.3767   -0.3217   -5.1742 H   0  0  0  0  0  0  0  0  0  0  0  0
   -2.0099    0.5581   -4.0304 N   0  0  0  0  0  0  0  0  0  0  0  0
   -2.7539    0.6070   -4.7214 H   0  0  0  0  0  0  0  0  0  0  0  0
   -2.1113    0.9654   -2.7074 C   0  0  0  0  0  0  0  0  0  0  0  0
   -2.9822    1.3928   -2.2182 H   0  0  0  0  0  0  0  0  0  0  0  0
    0.2022    0.0089    1.6067 C   0  0  0  0  0  0  0  0  0  0  0  0
   -0.3526    0.7620    2.4085 O   0  0  0  0  0  0  0  0  0  0  0  0
    1.3563   -0.6153    1.8721 N   0  0  0  0  0  0  0  0  0  0  0  0
    1.7315   -1.2221    1.1591 H   0  0  0  0  0  0  0  0  0  0  0  0
    2.1218   -0.4854    3.1157 C   0  0  0  0  0  0  0  0  0  0  0  0
    1.9449   -1.3511    3.7570 H   0  0  0  0  0  0  0  0  0  0  0  0
    3.1887   -0.4305    2.8924 H   0  0  0  0  0  0  0  0  0  0  0  0
    1.8335    0.4177    3.6578 H   0  0  0  0  0  0  0  0  0  0  0  0
  5  6  2  0  0  0  0
  5  7  1  0  0  0  0
  2  3  1  0  0  0  0
  2  4  1  0  0  0  0
  2  5  1  0  0  0  0
  1  2  1  0  0  0  0
 23 24  2  0  0  0  0
 23 25  1  0  0  0  0
 21 22  1  0  0  0  0
 19 20  1  0  0  0  0
 19 21  1  0  0  0  0
 17 18  1  0  0  0  0
 17 19  1  0  0  0  0
 15 16  1  0  0  0  0
 15 17  2  0  0  0  0
 14 15  1  0  0  0  0
 14 21  2  0  0  0  0
 11 12  1  0  0  0  0
 11 13  1  0  0  0  0
 11 14  1  0  0  0  0
  9 10  1  0  0  0  0
  9 11  1  0  0  0  0
  9 23  1  0  0  0  0
  7  8  1  0  0  0  0
  7  9  1  0  0  0  0
 27 28  1  0  0  0  0
 27 29  1  0  0  0  0
 27 30  1  0  0  0  0
 25 26  1  0  0  0  0
 25 27  1  0  0  0  0
M  CHG  1  15   1
M  END
$$$$
default_name
  -OEChem-01062215323D

 30 30  0     1  0  0  0  0  0999 V2000
   -3.5507   -3.2183    1.8116 H   0  0  0  0  0  0  0  0  0  0  0  0
   -3.4597   -2.3913    1.1076 C   0  0  0  0  0  0  0  0  0  0  0  0
   -4.1577   -1.6043    1.3866 H   0  0  0  0  0  0  0  0  0  0  0  0
   -3.6807   -2.7523    0.1036 H   0  0  0  0  0  0  0  0  0  0  0  0
   -2.0477   -1.8543    1.1546 C   0  0  0  0  0  0  0  0  0  0  0  0
   -1.2227   -2.3443    1.9146 O   0  0  0  0  0  0  0  0  0  0  0  0
   -1.7517   -0.8483    0.3266 N   0  0  0  0  0  0  0  0  0  0  0  0
   -2.4847   -0.5123   -0.2804 H   0  0  0  0  0  0  0  0  0  0  0  0
   -0.4117   -0.2463    0.2186 C   0  0  1  0  0  0  0  0  0  0  0  0
    0.2438   -0.9626   -0.2828 H   0  0  0  0  0  0  0  0  0  0  0  0
   -0.5039    1.0018   -0.6898 C   0  0  0  0  0  0  0  0  0  0  0  0
   -1.2291    1.6951   -0.2563 H   0  0  0  0  0  0  0  0  0  0  0  0
    0.4628    1.5100   -0.6938 H   0  0  0  0  0  0  0  0  0  0  0  0
   -0.8958    0.7250   -2.1257 C   0  0  0  0  0  0  0  0  0  0  0  0
   -0.0686    0.1789   -3.0880 N   0  3  0  0  0  0  0  0  0  0  0  0
    0.8811   -0.1520   -2.8951 H   0  0  0  0  0  0  0  0  0  0  0  0
   -0.7613    0.0834   -4.2403 C   0  0  0  0  0  0  0  0  0  0  0  0
   -0.3767   -0.3217   -5.1742 H   0  0  0  0  0  0  0  0  0  0  0  0
   -2.0099    0.5581   -4.0304 N   0  0  0  0  0  0  0  0  0  0  0  0
   -2.7539    0.6070   -4.7214 H   0  0  0  0  0  0  0  0  0  0  0  0
   -2.1113    0.9654   -2.7074 C   0  0  0  0  0  0  0  0  0  0  0  0
   -2.9822    1.3928   -2.2182 H   0  0  0  0  0  0  0  0  0  0  0  0
    0.2022    0.0089    1.6067 C   0  0  0  0  0  0  0  0  0  0  0  0
   -0.4666    0.5277    2.5020 O   0  0  0  0  0  0  0  0  0  0  0  0
    1.4822   -0.3486    1.7674 N   0  0  0  0  0  0  0  0  0  0  0  0
    1.9476   -0.7770    0.9817 H   0  0  0  0  0  0  0  0  0  0  0  0
    2.2643   -0.1647    2.9937 C   0  0  0  0  0  0  0  0  0  0  0  0
    2.3280   -1.1064    3.5426 H   0  0  0  0  0  0  0  0  0  0  0  0
    3.2756    0.1618    2.7450 H   0  0  0  0  0  0  0  0  0  0  0  0
    1.8054    0.5873    3.6390 H   0  0  0  0  0  0  0  0  0  0  0  0
  5  6  2  0  0  0  0
  5  7  1  0  0  0  0
  2  3  1  0  0  0  0
  2  4  1  0  0  0  0
  2  5  1  0  0  0  0
  1  2  1  0  0  0  0
 23 24  2  0  0  0  0
 23 25  1  0  0  0  0
 21 22  1  0  0  0  0
 19 20  1  0  0  0  0
 19 21  1  0  0  0  0
 17 18  1  0  0  0  0
 17 19  1  0  0  0  0
 15 16  1  0  0  0  0
 15 17  2  0  0  0  0
 14 15  1  0  0  0  0
 14 21  2  0  0  0  0
 11 12  1  0  0  0  0
 11 13  1  0  0  0  0
 11 14  1  0  0  0  0
  9 10  1  0  0  0  0
  9 11  1  0  0  0  0
  9 23  1  0  0  0  0
  7  8  1  0  0  0  0
  7  9  1  0  0  0  0
 27 28  1  0  0  0  0
 27 29  1  0  0  0  0
 27 30  1  0  0  0  0
 25 26  1  0  0  0  0
 25 27  1  0  0  0  0
M  CHG  1  15   1
M  END
$$$$
default_name
  -OEChem-01062215323D

 30 30  0     1  0  0  0  0  0999 V2000
   -3.5507   -3.2183    1.8116 H   0  0  0  0  0  0  0  0  0  0  0  0
   -3.4597   -2.3913    1.1076 C   0  0  0  0  0  0  0  0  0  0  0  0
   -4.1577   -1.6043    1.3866 H   0  0  0  0  0  0  0  0  0  0  0  0
   -3.6807   -2.7523    0.1036 H   0  0  0  0  0  0  0  0  0  0  0  0
   -2.0477   -1.8543    1.1546 C   0  0  0  0  0  0  0  0  0  0  0  0
   -1.2227   -2.3443    1.9146 O   0  0  0  0  0  0  0  0  0  0  0  0
   -1.7517   -0.8483    0.3266 N   0  0  0  0  0  0  0  0  0  0  0  0
   -2.4847   -0.5123   -0.2804 H   0  0  0  0  0  0  0  0  0  0  0  0
   -0.4117   -0.2463    0.2186 C   0  0  1  0  0  0  0  0  0  0  0  0
    0.2438   -0.9626   -0.2828 H   0  0  0  0  0  0  0  0  0  0  0  0
   -0.5039    1.0018   -0.6898 C   0  0  0  0  0  0  0  0  0  0  0  0
   -1.2291    1.6951   -0.2563 H   0  0  0  0  0  0  0  0  0  0  0  0
    0.4628    1.5100   -0.6938 H   0  0  0  0  0  0  0  0  0  0  0  0
   -0.8958    0.7250   -2.1257 C   0  0  0  0  0  0  0  0  0  0  0  0
   -0.0686    0.1789   -3.0880 N   0  3  0  0  0  0  0  0  0  0  0  0
    0.8811   -0.1520   -2.8951 H   0  0  0  0  0  0  0  0  0  0  0  0
   -0.7613    0.0834   -4.2403 C   0  0  0  0  0  0  0  0  0  0  0  0
   -0.3767   -0.3217   -5.1742 H   0  0  0  0  0  0  0  0  0  0  0  0
   -2.0099    0.5581   -4.0304 N   0  0  0  0  0  0  0  0  0  0  0  0
   -2.7539    0.6070   -4.7214 H   0  0  0  0  0  0  0  0  0  0  0  0
   -2.1113    0.9654   -2.7074 C   0  0  0  0  0  0  0  0  0  0  0  0
   -2.9822    1.3928   -2.2182 H   0  0  0  0  0  0  0  0  0  0  0  0
    0.2022    0.0089    1.6067 C   0  0  0  0  0  0  0  0  0  0  0  0
   -0.5179    0.2650    2.5730 O   0  0  0  0  0  0  0  0  0  0  0  0
    1.5371   -0.0509    1.6884 N   0  0  0  0  0  0  0  0  0  0  0  0
    2.0448   -0.2782    0.8470 H   0  0  0  0  0  0  0  0  0  0  0  0
    2.3219    0.1910    2.9028 C   0  0  0  0  0  0  0  0  0  0  0  0
    2.6317   -0.7584    3.3443 H   0  0  0  0  0  0  0  0  0  0  0  0
    3.2150    0.7694    2.6601 H   0  0  0  0  0  0  0  0  0  0  0  0
    1.7379    0.7466    3.6396 H   0  0  0  0  0  0  0  0  0  0  0  0
  5  6  2  0  0  0  0
  5  7  1  0  0  0  0
  2  3  1  0  0  0  0
  2  4  1  0  0  0  0
  2  5  1  0  0  0  0
  1  2  1  0  0  0  0
 23 24  2  0  0  0  0
 23 25  1  0  0  0  0
 21 22  1  0  0  0  0
 19 20  1  0  0  0  0
 19 21  1  0  0  0  0
 17 18  1  0  0  0  0
 17 19  1  0  0  0  0
 15 16  1  0  0  0  0
 15 17  2  0  0  0  0
 14 15  1  0  0  0  0
 14 21  2  0  0  0  0
 11 12  1  0  0  0  0
 11 13  1  0  0  0  0
 11 14  1  0  0  0  0
  9 10  1  0  0  0  0
  9 11  1  0  0  0  0
  9 23  1  0  0  0  0
  7  8  1  0  0  0  0
  7  9  1  0  0  0  0
 27 28  1  0  0  0  0
 27 29  1  0  0  0  0
 27 30  1  0  0  0  0
 25 26  1  0  0  0  0
 25 27  1  0  0  0  0
M  CHG  1  15   1
M  END
$$$$
default_name
  -OEChem-01062215323D

 30 30  0     1  0  0  0  0  0999 V2000
   -3.5507   -3.2183    1.8116 H   0  0  0  0  0  0  0  0  0  0  0  0
   -3.4597   -2.3913    1.1076 C   0  0  0  0  0  0  0  0  0  0  0  0
   -4.1577   -1.6043    1.3866 H   0  0  0  0  0  0  0  0  0  0  0  0
   -3.6807   -2.7523    0.1036 H   0  0  0  0  0  0  0  0  0  0  0  0
   -2.0477   -1.8543    1.1546 C   0  0  0  0  0  0  0  0  0  0  0  0
   -1.2227   -2.3443    1.9146 O   0  0  0  0  0  0  0  0  0  0  0  0
   -1.7517   -0.8483    0.3266 N   0  0  0  0  0  0  0  0  0  0  0  0
   -2.4847   -0.5123   -0.2804 H   0  0  0  0  0  0  0  0  0  0  0  0
   -0.4117   -0.2463    0.2186 C   0  0  1  0  0  0  0  0  0  0  0  0
    0.2438   -0.9626   -0.2828 H   0  0  0  0  0  0  0  0  0  0  0  0
   -0.5039    1.0018   -0.6898 C   0  0  0  0  0  0  0  0  0  0  0  0
   -1.2291    1.6951   -0.2563 H   0  0  0  0  0  0  0  0  0  0  0  0
    0.4628    1.5100   -0.6938 H   0  0  0  0  0  0  0  0  0  0  0  0
   -0.8958    0.7250   -2.1257 C   0  0  0  0  0  0  0  0  0  0  0  0
   -0.0686    0.1789   -3.0880 N   0  3  0  0  0  0  0  0  0  0  0  0
    0.8811   -0.1520   -2.8951 H   0  0  0  0  0  0  0  0  0  0  0  0
   -0.7613    0.0834   -4.2403 C   0  0  0  0  0  0  0  0  0  0  0  0
   -0.3767   -0.3217   -5.1742 H   0  0  0  0  0  0  0  0  0  0  0  0
   -2.0099    0.5581   -4.0304 N   0  0  0  0  0  0  0  0  0  0  0  0
   -2.7539    0.6070   -4.7214 H   0  0  0  0  0  0  0  0  0  0  0  0
   -2.1113    0.9654   -2.7074 C   0  0  0  0  0  0  0  0  0  0  0  0
   -2.9822    1.3928   -2.2182 H   0  0  0  0  0  0  0  0  0  0  0  0
    0.2022    0.0089    1.6067 C   0  0  0  0  0  0  0  0  0  0  0  0
   -0.5032   -0.0080    2.6166 O   0  0  0  0  0  0  0  0  0  0  0  0
    1.5171    0.2577    1.6405 N   0  0  0  0  0  0  0  0  0  0  0  0
    2.0165    0.2401    0.7643 H   0  0  0  0  0  0  0  0  0  0  0  0
    2.2906    0.5573    2.8493 C   0  0  0  0  0  0  0  0  0  0  0  0
    2.8353   -0.3309    3.1756 H   0  0  0  0  0  0  0  0  0  0  0  0
    3.0110    1.3509    2.6434 H   0  0  0  0  0  0  0  0  0  0  0  0
    1.6355    0.8846    3.6595 H   0  0  0  0  0  0  0  0  0  0  0  0
  5  6  2  0  0  0  0
  5  7  1  0  0  0  0
  2  3  1  0  0  0  0
  2  4  1  0  0  0  0
  2  5  1  0  0  0  0
  1  2  1  0  0  0  0
 23 24  2  0  0  0  0
 23 25  1  0  0  0  0
 21 22  1  0  0  0  0
 19 20  1  0  0  0  0
 19 21  1  0  0  0  0
 17 18  1  0  0  0  0
 17 19  1  0  0  0  0
 15 16  1  0  0  0  0
 15 17  2  0  0  0  0
 14 15  1  0  0  0  0
 14 21  2  0  0  0  0
 11 12  1  0  0  0  0
 11 13  1  0  0  0  0
 11 14  1  0  0  0  0
  9 10  1  0  0  0  0
  9 11  1  0  0  0  0
  9 23  1  0  0  0  0
  7  8  1  0  0  0  0
  7  9  1  0  0  0  0
 27 28  1  0  0  0  0
 27 29  1  0  0  0  0
 27 30  1  0  0  0  0
 25 26  1  0  0  0  0
 25 27  1  0  0  0  0
M  CHG  1  15   1
M  END
$$$$
default_name
  -OEChem-01062215323D

 30 30  0     1  0  0  0  0  0999 V2000
   -3.5507   -3.2183    1.8116 H   0  0  0  0  0  0  0  0  0  0  0  0
   -3.4597   -2.3913    1.1076 C   0  0  0  0  0  0  0  0  0  0  0  0
   -4.1577   -1.6043    1.3866 H   0  0  0  0  0  0  0  0  0  0  0  0
   -3.6807   -2.7523    0.1036 H   0  0  0  0  0  0  0  0  0  0  0  0
   -2.0477   -1.8543    1.1546 C   0  0  0  0  0  0  0  0  0  0  0  0
   -1.2227   -2.3443    1.9146 O   0  0  0  0  0  0  0  0  0  0  0  0
   -1.7517   -0.8483    0.3266 N   0  0  0  0  0  0  0  0  0  0  0  0
   -2.4847   -0.5123   -0.2804 H   0  0  0  0  0  0  0  0  0  0  0  0
   -0.4117   -0.2463    0.2186 C   0  0  1  0  0  0  0  0  0  0  0  0
    0.1654   -0.8279   -0.5045 H   0  0  0  0  0  0  0  0  0  0  0  0
   -0.5579    1.1817   -0.3564 C   0  0  0  0  0  0  0  0  0  0  0  0
   -1.2120    1.7575    0.3033 H   0  0  0  0  0  0  0  0  0  0  0  0
    0.4188    1.6704   -0.3456 H   0  0  0  0  0  0  0  0  0  0  0  0
   -1.1049    1.2549   -1.7663 C   0  0  0  0  0  0  0  0  0  0  0  0
   -0.3994    0.9466   -2.9134 N   0  3  0  0  0  0  0  0  0  0  0  0
    0.5542    0.5735   -2.9071 H   0  0  0  0  0  0  0  0  0  0  0  0
   -1.2103    1.1307   -3.9741 C   0  0  0  0  0  0  0  0  0  0  0  0
   -0.9375    0.9555   -5.0128 H   0  0  0  0  0  0  0  0  0  0  0  0
   -2.4148    1.5501   -3.5251 N   0  0  0  0  0  0  0  0  0  0  0  0
   -3.2245    1.7657   -4.1009 H   0  0  0  0  0  0  0  0  0  0  0  0
   -2.3658    1.6337   -2.1405 C   0  0  0  0  0  0  0  0  0  0  0  0
   -3.1674    1.9387   -1.4736 H   0  0  0  0  0  0  0  0  0  0  0  0
    0.3503   -0.3304    1.5532 C   0  0  0  0  0  0  0  0  0  0  0  0
   -0.1745   -0.8422    2.5433 O   0  0  0  0  0  0  0  0  0  0  0  0
    1.5842    0.1887    1.5689 N   0  0  0  0  0  0  0  0  0  0  0  0
    1.9364    0.5772    0.7073 H   0  0  0  0  0  0  0  0  0  0  0  0
    2.4649    0.2412    2.7398 C   0  0  0  0  0  0  0  0  0  0  0  0
    3.2107   -0.5543    2.6839 H   0  0  0  0  0  0  0  0  0  0  0  0
    2.9827    1.2013    2.7737 H   0  0  0  0  0  0  0  0  0  0  0  0
    1.8933    0.1220    3.6626 H   0  0  0  0  0  0  0  0  0  0  0  0
  5  6  2  0  0  0  0
  5  7  1  0  0  0  0
  2  3  1  0  0  0  0
  2  4  1  0  0  0  0
  2  5  1  0  0  0  0
  1  2  1  0  0  0  0
 23 24  2  0  0  0  0
 23 25  1  0  0  0  0
 21 22  1  0  0  0  0
 19 20  1  0  0  0  0
 19 21  1  0  0  0  0
 17 18  1  0  0  0  0
 17 19  1  0  0  0  0
 15 16  1  0  0  0  0
 15 17  2  0  0  0  0
 14 15  1  0  0  0  0
 14 21  2  0  0  0  0
 11 12  1  0  0  0  0
 11 13  1  0  0  0  0
 11 14  1  0  0  0  0
  9 10  1  0  0  0  0
  9 11  1  0  0  0  0
  9 23  1  0  0  0  0
  7  8  1  0  0  0  0
  7  9  1  0  0  0  0
 27 28  1  0  0  0  0
 27 29  1  0  0  0  0
 27 30  1  0  0  0  0
 25 26  1  0  0  0  0
 25 27  1  0  0  0  0
M  CHG  1  15   1
M  END
$$$$
default_name
  -OEChem-01062215323D

 30 30  0     1  0  0  0  0  0999 V2000
   -3.5507   -3.2183    1.8116 H   0  0  0  0  0  0  0  0  0  0  0  0
   -3.4597   -2.3913    1.1076 C   0  0  0  0  0  0  0  0  0  0  0  0
   -4.1577   -1.6043    1.3866 H   0  0  0  0  0  0  0  0  0  0  0  0
   -3.6807   -2.7523    0.1036 H   0  0  0  0  0  0  0  0  0  0  0  0
   -2.0477   -1.8543    1.1546 C   0  0  0  0  0  0  0  0  0  0  0  0
   -1.2227   -2.3443    1.9146 O   0  0  0  0  0  0  0  0  0  0  0  0
   -1.7517   -0.8483    0.3266 N   0  0  0  0  0  0  0  0  0  0  0  0
   -2.4847   -0.5123   -0.2804 H   0  0  0  0  0  0  0  0  0  0  0  0
   -0.4117   -0.2463    0.2186 C   0  0  1  0  0  0  0  0  0  0  0  0
    0.1654   -0.8279   -0.5045 H   0  0  0  0  0  0  0  0  0  0  0  0
   -0.5579    1.1817   -0.3564 C   0  0  0  0  0  0  0  0  0  0  0  0
   -1.2120    1.7575    0.3033 H   0  0  0  0  0  0  0  0  0  0  0  0
    0.4188    1.6704   -0.3456 H   0  0  0  0  0  0  0  0  0  0  0  0
   -1.1049    1.2549   -1.7663 C   0  0  0  0  0  0  0  0  0  0  0  0
   -0.3994    0.9466   -2.9134 N   0  3  0  0  0  0  0  0  0  0  0  0
    0.5542    0.5735   -2.9071 H   0  0  0  0  0  0  0  0  0  0  0  0
   -1.2103    1.1307   -3.9741 C   0  0  0  0  0  0  0  0  0  0  0  0
   -0.9375    0.9555   -5.0128 H   0  0  0  0  0  0  0  0  0  0  0  0
   -2.4148    1.5501   -3.5251 N   0  0  0  0  0  0  0  0  0  0  0  0
   -3.2245    1.7657   -4.1009 H   0  0  0  0  0  0  0  0  0  0  0  0
   -2.3658    1.6337   -2.1405 C   0  0  0  0  0  0  0  0  0  0  0  0
   -3.1674    1.9387   -1.4736 H   0  0  0  0  0  0  0  0  0  0  0  0
    0.3503   -0.3304    1.5532 C   0  0  0  0  0  0  0  0  0  0  0  0
   -0.0452   -1.0706    2.4551 O   0  0  0  0  0  0  0  0  0  0  0  0
    1.4355    0.4448    1.6700 N   0  0  0  0  0  0  0  0  0  0  0  0
    1.6906    1.0106    0.8750 H   0  0  0  0  0  0  0  0  0  0  0  0
    2.2823    0.5404    2.8630 C   0  0  0  0  0  0  0  0  0  0  0  0
    3.1881   -0.0541    2.7283 H   0  0  0  0  0  0  0  0  0  0  0  0
    2.5704    1.5792    3.0330 H   0  0  0  0  0  0  0  0  0  0  0  0
    1.7526    0.1778    3.7465 H   0  0  0  0  0  0  0  0  0  0  0  0
  5  6  2  0  0  0  0
  5  7  1  0  0  0  0
  2  3  1  0  0  0  0
  2  4  1  0  0  0  0
  2  5  1  0  0  0  0
  1  2  1  0  0  0  0
 23 24  2  0  0  0  0
 23 25  1  0  0  0  0
 21 22  1  0  0  0  0
 19 20  1  0  0  0  0
 19 21  1  0  0  0  0
 17 18  1  0  0  0  0
 17 19  1  0  0  0  0
 15 16  1  0  0  0  0
 15 17  2  0  0  0  0
 14 15  1  0  0  0  0
 14 21  2  0  0  0  0
 11 12  1  0  0  0  0
 11 13  1  0  0  0  0
 11 14  1  0  0  0  0
  9 10  1  0  0  0  0
  9 11  1  0  0  0  0
  9 23  1  0  0  0  0
  7  8  1  0  0  0  0
  7  9  1  0  0  0  0
 27 28  1  0  0  0  0
 27 29  1  0  0  0  0
 27 30  1  0  0  0  0
 25 26  1  0  0  0  0
 25 27  1  0  0  0  0
M  CHG  1  15   1
M  END
$$$$
default_name
  -OEChem-01062215323D

 30 30  0     1  0  0  0  0  0999 V2000
   -3.5507   -3.2183    1.8116 H   0  0  0  0  0  0  0  0  0  0  0  0
   -3.4597   -2.3913    1.1076 C   0  0  0  0  0  0  0  0  0  0  0  0
   -4.1577   -1.6043    1.3866 H   0  0  0  0  0  0  0  0  0  0  0  0
   -3.6807   -2.7523    0.1036 H   0  0  0  0  0  0  0  0  0  0  0  0
   -2.0477   -1.8543    1.1546 C   0  0  0  0  0  0  0  0  0  0  0  0
   -1.2227   -2.3443    1.9146 O   0  0  0  0  0  0  0  0  0  0  0  0
   -1.7517   -0.8483    0.3266 N   0  0  0  0  0  0  0  0  0  0  0  0
   -2.4847   -0.5123   -0.2804 H   0  0  0  0  0  0  0  0  0  0  0  0
   -0.4117   -0.2463    0.2186 C   0  0  1  0  0  0  0  0  0  0  0  0
    0.1654   -0.8279   -0.5045 H   0  0  0  0  0  0  0  0  0  0  0  0
   -0.5579    1.1817   -0.3564 C   0  0  0  0  0  0  0  0  0  0  0  0
   -1.2120    1.7575    0.3033 H   0  0  0  0  0  0  0  0  0  0  0  0
    0.4188    1.6704   -0.3456 H   0  0  0  0  0  0  0  0  0  0  0  0
   -1.1049    1.2549   -1.7663 C   0  0  0  0  0  0  0  0  0  0  0  0
   -0.3994    0.9466   -2.9134 N   0  3  0  0  0  0  0  0  0  0  0  0
    0.5542    0.5735   -2.9071 H   0  0  0  0  0  0  0  0  0  0  0  0
   -1.2103    1.1307   -3.9741 C   0  0  0  0  0  0  0  0  0  0  0  0
   -0.9375    0.9555   -5.0128 H   0  0  0  0  0  0  0  0  0  0  0  0
   -2.4148    1.5501   -3.5251 N   0  0  0  0  0  0  0  0  0  0  0  0
   -3.2245    1.7657   -4.1009 H   0  0  0  0  0  0  0  0  0  0  0  0
   -2.3658    1.6337   -2.1405 C   0  0  0  0  0  0  0  0  0  0  0  0
   -3.1674    1.9387   -1.4736 H   0  0  0  0  0  0  0  0  0  0  0  0
    0.3503   -0.3304    1.5532 C   0  0  0  0  0  0  0  0  0  0  0  0
    0.1322   -1.2509    2.3424 O   0  0  0  0  0  0  0  0  0  0  0  0
    1.2329    0.6458    1.7983 N   0  0  0  0  0  0  0  0  0  0  0  0
    1.3536    1.3526    1.0890 H   0  0  0  0  0  0  0  0  0  0  0  0
    2.0370    0.7726    3.0177 C   0  0  0  0  0  0  0  0  0  0  0  0
    3.0534    0.4183    2.8351 H   0  0  0  0  0  0  0  0  0  0  0  0
    2.0836    1.8185    3.3260 H   0  0  0  0  0  0  0  0  0  0  0  0
    1.6031    0.1893    3.8326 H   0  0  0  0  0  0  0  0  0  0  0  0
  5  6  2  0  0  0  0
  5  7  1  0  0  0  0
  2  3  1  0  0  0  0
  2  4  1  0  0  0  0
  2  5  1  0  0  0  0
  1  2  1  0  0  0  0
 23 24  2  0  0  0  0
 23 25  1  0  0  0  0
 21 22  1  0  0  0  0
 19 20  1  0  0  0  0
 19 21  1  0  0  0  0
 17 18  1  0  0  0  0
 17 19  1  0  0  0  0
 15 16  1  0  0  0  0
 15 17  2  0  0  0  0
 14 15  1  0  0  0  0
 14 21  2  0  0  0  0
 11 12  1  0  0  0  0
 11 13  1  0  0  0  0
 11 14  1  0  0  0  0
  9 10  1  0  0  0  0
  9 11  1  0  0  0  0
  9 23  1  0  0  0  0
  7  8  1  0  0  0  0
  7  9  1  0  0  0  0
 27 28  1  0  0  0  0
 27 29  1  0  0  0  0
 27 30  1  0  0  0  0
 25 26  1  0  0  0  0
 25 27  1  0  0  0  0
M  CHG  1  15   1
M  END
$$$$
default_name
  -OEChem-01062215323D

 30 30  0     1  0  0  0  0  0999 V2000
   -3.5507   -3.2183    1.8116 H   0  0  0  0  0  0  0  0  0  0  0  0
   -3.4597   -2.3913    1.1076 C   0  0  0  0  0  0  0  0  0  0  0  0
   -4.1577   -1.6043    1.3866 H   0  0  0  0  0  0  0  0  0  0  0  0
   -3.6807   -2.7523    0.1036 H   0  0  0  0  0  0  0  0  0  0  0  0
   -2.0477   -1.8543    1.1546 C   0  0  0  0  0  0  0  0  0  0  0  0
   -1.2227   -2.3443    1.9146 O   0  0  0  0  0  0  0  0  0  0  0  0
   -1.7517   -0.8483    0.3266 N   0  0  0  0  0  0  0  0  0  0  0  0
   -2.4847   -0.5123   -0.2804 H   0  0  0  0  0  0  0  0  0  0  0  0
   -0.4117   -0.2463    0.2186 C   0  0  1  0  0  0  0  0  0  0  0  0
    0.1654   -0.8279   -0.5045 H   0  0  0  0  0  0  0  0  0  0  0  0
   -0.5579    1.1817   -0.3564 C   0  0  0  0  0  0  0  0  0  0  0  0
   -1.2120    1.7575    0.3033 H   0  0  0  0  0  0  0  0  0  0  0  0
    0.4188    1.6704   -0.3456 H   0  0  0  0  0  0  0  0  0  0  0  0
   -1.1049    1.2549   -1.7663 C   0  0  0  0  0  0  0  0  0  0  0  0
   -0.3994    0.9466   -2.9134 N   0  3  0  0  0  0  0  0  0  0  0  0
    0.5542    0.5735   -2.9071 H   0  0  0  0  0  0  0  0  0  0  0  0
   -1.2103    1.1307   -3.9741 C   0  0  0  0  0  0  0  0  0  0  0  0
   -0.9375    0.9555   -5.0128 H   0  0  0  0  0  0  0  0  0  0  0  0
   -2.4148    1.5501   -3.5251 N   0  0  0  0  0  0  0  0  0  0  0  0
   -3.2245    1.7657   -4.1009 H   0  0  0  0  0  0  0  0  0  0  0  0
   -2.3658    1.6337   -2.1405 C   0  0  0  0  0  0  0  0  0  0  0  0
   -3.1674    1.9387   -1.4736 H   0  0  0  0  0  0  0  0  0  0  0  0
    0.3503   -0.3304    1.5532 C   0  0  0  0  0  0  0  0  0  0  0  0
    0.3456   -1.3708    2.2130 O   0  0  0  0  0  0  0  0  0  0  0  0
    0.9904    0.7781    1.9452 N   0  0  0  0  0  0  0  0  0  0  0  0
    0.9483    1.5799    1.3347 H   0  0  0  0  0  0  0  0  0  0  0  0
    1.7457    0.9221    3.1934 C   0  0  0  0  0  0  0  0  0  0  0  0
    2.8158    0.8306    2.9968 H   0  0  0  0  0  0  0  0  0  0  0  0
    1.5556    1.9029    3.6328 H   0  0  0  0  0  0  0  0  0  0  0  0
    1.4548    0.1559    3.9151 H   0  0  0  0  0  0  0  0  0  0  0  0
  5  6  2  0  0  0  0
  5  7  1  0  0  0  0
  2  3  1  0  0  0  0
  2  4  1  0  0  0  0
  2  5  1  0  0  0  0
  1  2  1  0  0  0  0
 23 24  2  0  0  0  0
 23 25  1  0  0  0  0
 21 22  1  0  0  0  0
 19 20  1  0  0  0  0
 19 21  1  0  0  0  0
 17 18  1  0  0  0  0
 17 19  1  0  0  0  0
 15 16  1  0  0  0  0
 15 17  2  0  0  0  0
 14 15  1  0  0  0  0
 14 21  2  0  0  0  0
 11 12  1  0  0  0  0
 11 13  1  0  0  0  0
 11 14  1  0  0  0  0
  9 10  1  0  0  0  0
  9 11  1  0  0  0  0
  9 23  1  0  0  0  0
  7  8  1  0  0  0  0
  7  9  1  0  0  0  0
 27 28  1  0  0  0  0
 27 29  1  0  0  0  0
 27 30  1  0  0  0  0
 25 26  1  0  0  0  0
 25 27  1  0  0  0  0
M  CHG  1  15   1
M  END
$$$$
default_name
  -OEChem-01062215323D

 30 30  0     1  0  0  0  0  0999 V2000
   -3.5507   -3.2183    1.8116 H   0  0  0  0  0  0  0  0  0  0  0  0
   -3.4597   -2.3913    1.1076 C   0  0  0  0  0  0  0  0  0  0  0  0
   -4.1577   -1.6043    1.3866 H   0  0  0  0  0  0  0  0  0  0  0  0
   -3.6807   -2.7523    0.1036 H   0  0  0  0  0  0  0  0  0  0  0  0
   -2.0477   -1.8543    1.1546 C   0  0  0  0  0  0  0  0  0  0  0  0
   -1.2227   -2.3443    1.9146 O   0  0  0  0  0  0  0  0  0  0  0  0
   -1.7517   -0.8483    0.3266 N   0  0  0  0  0  0  0  0  0  0  0  0
   -2.4847   -0.5123   -0.2804 H   0  0  0  0  0  0  0  0  0  0  0  0
   -0.4117   -0.2463    0.2186 C   0  0  1  0  0  0  0  0  0  0  0  0
    0.1654   -0.8279   -0.5045 H   0  0  0  0  0  0  0  0  0  0  0  0
   -0.5579    1.1817   -0.3564 C   0  0  0  0  0  0  0  0  0  0  0  0
   -1.2120    1.7575    0.3033 H   0  0  0  0  0  0  0  0  0  0  0  0
    0.4188    1.6704   -0.3456 H   0  0  0  0  0  0  0  0  0  0  0  0
   -1.1049    1.2549   -1.7663 C   0  0  0  0  0  0  0  0  0  0  0  0
   -0.3994    0.9466   -2.9134 N   0  3  0  0  0  0  0  0  0  0  0  0
    0.5542    0.5735   -2.9071 H   0  0  0  0  0  0  0  0  0  0  0  0
   -1.2103    1.1307   -3.9741 C   0  0  0  0  0  0  0  0  0  0  0  0
   -0.9375    0.9555   -5.0128 H   0  0  0  0  0  0  0  0  0  0  0  0
   -2.4148    1.5501   -3.5251 N   0  0  0  0  0  0  0  0  0  0  0  0
   -3.2245    1.7657   -4.1009 H   0  0  0  0  0  0  0  0  0  0  0  0
   -2.3658    1.6337   -2.1405 C   0  0  0  0  0  0  0  0  0  0  0  0
   -3.1674    1.9387   -1.4736 H   0  0  0  0  0  0  0  0  0  0  0  0
    0.3503   -0.3304    1.5532 C   0  0  0  0  0  0  0  0  0  0  0  0
    0.5805   -1.4222    2.0756 O   0  0  0  0  0  0  0  0  0  0  0  0
    0.7243    0.8326    2.1005 N   0  0  0  0  0  0  0  0  0  0  0  0
    0.5024    1.6770    1.5955 H   0  0  0  0  0  0  0  0  0  0  0  0
    1.4283    0.9786    3.3782 C   0  0  0  0  0  0  0  0  0  0  0  0
    2.4914    1.1549    3.2024 H   0  0  0  0  0  0  0  0  0  0  0  0
    1.0223    1.8265    3.9325 H   0  0  0  0  0  0  0  0  0  0  0  0
    1.3179    0.0797    3.9885 H   0  0  0  0  0  0  0  0  0  0  0  0
  5  6  2  0  0  0  0
  5  7  1  0  0  0  0
  2  3  1  0  0  0  0
  2  4  1  0  0  0  0
  2  5  1  0  0  0  0
  1  2  1  0  0  0  0
 23 24  2  0  0  0  0
 23 25  1  0  0  0  0
 21 22  1  0  0  0  0
 19 20  1  0  0  0  0
 19 21  1  0  0  0  0
 17 18  1  0  0  0  0
 17 19  1  0  0  0  0
 15 16  1  0  0  0  0
 15 17  2  0  0  0  0
 14 15  1  0  0  0  0
 14 21  2  0  0  0  0
 11 12  1  0  0  0  0
 11 13  1  0  0  0  0
 11 14  1  0  0  0  0
  9 10  1  0  0  0  0
  9 11  1  0  0  0  0
  9 23  1  0  0  0  0
  7  8  1  0  0  0  0
  7  9  1  0  0  0  0
 27 28  1  0  0  0  0
 27 29  1  0  0  0  0
 27 30  1  0  0  0  0
 25 26  1  0  0  0  0
 25 27  1  0  0  0  0
M  CHG  1  15   1
M  END
$$$$
default_name
  -OEChem-01062215323D

 30 30  0     1  0  0  0  0  0999 V2000
   -3.5507   -3.2183    1.8116 H   0  0  0  0  0  0  0  0  0  0  0  0
   -3.4597   -2.3913    1.1076 C   0  0  0  0  0  0  0  0  0  0  0  0
   -4.1577   -1.6043    1.3866 H   0  0  0  0  0  0  0  0  0  0  0  0
   -3.6807   -2.7523    0.1036 H   0  0  0  0  0  0  0  0  0  0  0  0
   -2.0477   -1.8543    1.1546 C   0  0  0  0  0  0  0  0  0  0  0  0
   -1.2227   -2.3443    1.9146 O   0  0  0  0  0  0  0  0  0  0  0  0
   -1.7517   -0.8483    0.3266 N   0  0  0  0  0  0  0  0  0  0  0  0
   -2.4847   -0.5123   -0.2804 H   0  0  0  0  0  0  0  0  0  0  0  0
   -0.4117   -0.2463    0.2186 C   0  0  1  0  0  0  0  0  0  0  0  0
    0.1654   -0.8279   -0.5045 H   0  0  0  0  0  0  0  0  0  0  0  0
   -0.5579    1.1817   -0.3564 C   0  0  0  0  0  0  0  0  0  0  0  0
   -1.2120    1.7575    0.3033 H   0  0  0  0  0  0  0  0  0  0  0  0
    0.4188    1.6704   -0.3456 H   0  0  0  0  0  0  0  0  0  0  0  0
   -1.1049    1.2549   -1.7663 C   0  0  0  0  0  0  0  0  0  0  0  0
   -0.3994    0.9466   -2.9134 N   0  3  0  0  0  0  0  0  0  0  0  0
    0.5542    0.5735   -2.9071 H   0  0  0  0  0  0  0  0  0  0  0  0
   -1.2103    1.1307   -3.9741 C   0  0  0  0  0  0  0  0  0  0  0  0
   -0.9375    0.9555   -5.0128 H   0  0  0  0  0  0  0  0  0  0  0  0
   -2.4148    1.5501   -3.5251 N   0  0  0  0  0  0  0  0  0  0  0  0
   -3.2245    1.7657   -4.1009 H   0  0  0  0  0  0  0  0  0  0  0  0
   -2.3658    1.6337   -2.1405 C   0  0  0  0  0  0  0  0  0  0  0  0
   -3.1674    1.9387   -1.4736 H   0  0  0  0  0  0  0  0  0  0  0  0
    0.3503   -0.3304    1.5532 C   0  0  0  0  0  0  0  0  0  0  0  0
    0.8208   -1.4014    1.9397 O   0  0  0  0  0  0  0  0  0  0  0  0
    0.4528    0.8056    2.2538 N   0  0  0  0  0  0  0  0  0  0  0  0
    0.0461    1.6373    1.8535 H   0  0  0  0  0  0  0  0  0  0  0  0
    1.1065    0.9382    3.5594 C   0  0  0  0  0  0  0  0  0  0  0  0
    2.1024    1.3690    3.4380 H   0  0  0  0  0  0  0  0  0  0  0  0
    0.5201    1.5947    4.2046 H   0  0  0  0  0  0  0  0  0  0  0  0
    1.2018   -0.0339    4.0477 H   0  0  0  0  0  0  0  0  0  0  0  0
  5  6  2  0  0  0  0
  5  7  1  0  0  0  0
  2  3  1  0  0  0  0
  2  4  1  0  0  0  0
  2  5  1  0  0  0  0
  1  2  1  0  0  0  0
 23 24  2  0  0  0  0
 23 25  1  0  0  0  0
 21 22  1  0  0  0  0
 19 20  1  0  0  0  0
 19 21  1  0  0  0  0
 17 18  1  0  0  0  0
 17 19  1  0  0  0  0
 15 16  1  0  0  0  0
 15 17  2  0  0  0  0
 14 15  1  0  0  0  0
 14 21  2  0  0  0  0
 11 12  1  0  0  0  0
 11 13  1  0  0  0  0
 11 14  1  0  0  0  0
  9 10  1  0  0  0  0
  9 11  1  0  0  0  0
  9 23  1  0  0  0  0
  7  8  1  0  0  0  0
  7  9  1  0  0  0  0
 27 28  1  0  0  0  0
 27 29  1  0  0  0  0
 27 30  1  0  0  0  0
 25 26  1  0  0  0  0
 25 27  1  0  0  0  0
M  CHG  1  15   1
M  END
$$$$
default_name
  -OEChem-01062215323D

 30 30  0     1  0  0  0  0  0999 V2000
   -3.5507   -3.2183    1.8116 H   0  0  0  0  0  0  0  0  0  0  0  0
   -3.4597   -2.3913    1.1076 C   0  0  0  0  0  0  0  0  0  0  0  0
   -4.1577   -1.6043    1.3866 H   0  0  0  0  0  0  0  0  0  0  0  0
   -3.6807   -2.7523    0.1036 H   0  0  0  0  0  0  0  0  0  0  0  0
   -2.0477   -1.8543    1.1546 C   0  0  0  0  0  0  0  0  0  0  0  0
   -1.2227   -2.3443    1.9146 O   0  0  0  0  0  0  0  0  0  0  0  0
   -1.7517   -0.8483    0.3266 N   0  0  0  0  0  0  0  0  0  0  0  0
   -2.4847   -0.5123   -0.2804 H   0  0  0  0  0  0  0  0  0  0  0  0
   -0.4117   -0.2463    0.2186 C   0  0  1  0  0  0  0  0  0  0  0  0
    0.1654   -0.8279   -0.5045 H   0  0  0  0  0  0  0  0  0  0  0  0
   -0.5579    1.1817   -0.3564 C   0  0  0  0  0  0  0  0  0  0  0  0
   -1.2120    1.7575    0.3033 H   0  0  0  0  0  0  0  0  0  0  0  0
    0.4188    1.6704   -0.3456 H   0  0  0  0  0  0  0  0  0  0  0  0
   -1.1049    1.2549   -1.7663 C   0  0  0  0  0  0  0  0  0  0  0  0
   -0.3994    0.9466   -2.9134 N   0  3  0  0  0  0  0  0  0  0  0  0
    0.5542    0.5735   -2.9071 H   0  0  0  0  0  0  0  0  0  0  0  0
   -1.2103    1.1307   -3.9741 C   0  0  0  0  0  0  0  0  0  0  0  0
   -0.9375    0.9555   -5.0128 H   0  0  0  0  0  0  0  0  0  0  0  0
   -2.4148    1.5501   -3.5251 N   0  0  0  0  0  0  0  0  0  0  0  0
   -3.2245    1.7657   -4.1009 H   0  0  0  0  0  0  0  0  0  0  0  0
   -2.3658    1.6337   -2.1405 C   0  0  0  0  0  0  0  0  0  0  0  0
   -3.1674    1.9387   -1.4736 H   0  0  0  0  0  0  0  0  0  0  0  0
    0.3503   -0.3304    1.5532 C   0  0  0  0  0  0  0  0  0  0  0  0
    1.0502   -1.3101    1.8145 O   0  0  0  0  0  0  0  0  0  0  0  0
    0.1945    0.6990    2.3946 N   0  0  0  0  0  0  0  0  0  0  0  0
   -0.3894    1.4635    2.0912 H   0  0  0  0  0  0  0  0  0  0  0  0
    0.8021    0.8038    3.7247 C   0  0  0  0  0  0  0  0  0  0  0  0
    1.6753    1.4582    3.6876 H   0  0  0  0  0  0  0  0  0  0  0  0
    0.0832    1.2232    4.4307 H   0  0  0  0  0  0  0  0  0  0  0  0
    1.1142   -0.1774    4.0886 H   0  0  0  0  0  0  0  0  0  0  0  0
  5  6  2  0  0  0  0
  5  7  1  0  0  0  0
  2  3  1  0  0  0  0
  2  4  1  0  0  0  0
  2  5  1  0  0  0  0
  1  2  1  0  0  0  0
 23 24  2  0  0  0  0
 23 25  1  0  0  0  0
 21 22  1  0  0  0  0
 19 20  1  0  0  0  0
 19 21  1  0  0  0  0
 17 18  1  0  0  0  0
 17 19  1  0  0  0  0
 15 16  1  0  0  0  0
 15 17  2  0  0  0  0
 14 15  1  0  0  0  0
 14 21  2  0  0  0  0
 11 12  1  0  0  0  0
 11 13  1  0  0  0  0
 11 14  1  0  0  0  0
  9 10  1  0  0  0  0
  9 11  1  0  0  0  0
  9 23  1  0  0  0  0
  7  8  1  0  0  0  0
  7  9  1  0  0  0  0
 27 28  1  0  0  0  0
 27 29  1  0  0  0  0
 27 30  1  0  0  0  0
 25 26  1  0  0  0  0
 25 27  1  0  0  0  0
M  CHG  1  15   1
M  END
$$$$
default_name
  -OEChem-01062215323D

 30 30  0     1  0  0  0  0  0999 V2000
   -3.5507   -3.2183    1.8116 H   0  0  0  0  0  0  0  0  0  0  0  0
   -3.4597   -2.3913    1.1076 C   0  0  0  0  0  0  0  0  0  0  0  0
   -4.1577   -1.6043    1.3866 H   0  0  0  0  0  0  0  0  0  0  0  0
   -3.6807   -2.7523    0.1036 H   0  0  0  0  0  0  0  0  0  0  0  0
   -2.0477   -1.8543    1.1546 C   0  0  0  0  0  0  0  0  0  0  0  0
   -1.2227   -2.3443    1.9146 O   0  0  0  0  0  0  0  0  0  0  0  0
   -1.7517   -0.8483    0.3266 N   0  0  0  0  0  0  0  0  0  0  0  0
   -2.4847   -0.5123   -0.2804 H   0  0  0  0  0  0  0  0  0  0  0  0
   -0.4117   -0.2463    0.2186 C   0  0  1  0  0  0  0  0  0  0  0  0
    0.1654   -0.8279   -0.5045 H   0  0  0  0  0  0  0  0  0  0  0  0
   -0.5579    1.1817   -0.3564 C   0  0  0  0  0  0  0  0  0  0  0  0
   -1.2120    1.7575    0.3033 H   0  0  0  0  0  0  0  0  0  0  0  0
    0.4188    1.6704   -0.3456 H   0  0  0  0  0  0  0  0  0  0  0  0
   -1.1049    1.2549   -1.7663 C   0  0  0  0  0  0  0  0  0  0  0  0
   -0.3994    0.9466   -2.9134 N   0  3  0  0  0  0  0  0  0  0  0  0
    0.5542    0.5735   -2.9071 H   0  0  0  0  0  0  0  0  0  0  0  0
   -1.2103    1.1307   -3.9741 C   0  0  0  0  0  0  0  0  0  0  0  0
   -0.9375    0.9555   -5.0128 H   0  0  0  0  0  0  0  0  0  0  0  0
   -2.4148    1.5501   -3.5251 N   0  0  0  0  0  0  0  0  0  0  0  0
   -3.2245    1.7657   -4.1009 H   0  0  0  0  0  0  0  0  0  0  0  0
   -2.3658    1.6337   -2.1405 C   0  0  0  0  0  0  0  0  0  0  0  0
   -3.1674    1.9387   -1.4736 H   0  0  0  0  0  0  0  0  0  0  0  0
    0.3503   -0.3304    1.5532 C   0  0  0  0  0  0  0  0  0  0  0  0
    1.2531   -1.1542    1.7085 O   0  0  0  0  0  0  0  0  0  0  0  0
   -0.0331    0.5200    2.5133 N   0  0  0  0  0  0  0  0  0  0  0  0
   -0.7743    1.1674    2.2923 H   0  0  0  0  0  0  0  0  0  0  0  0
    0.5359    0.5844    3.8629 C   0  0  0  0  0  0  0  0  0  0  0  0
    1.2391    1.4166    3.9340 H   0  0  0  0  0  0  0  0  0  0  0  0
   -0.2587    0.7373    4.5952 H   0  0  0  0  0  0  0  0  0  0  0  0
    1.0613   -0.3409    4.1085 H   0  0  0  0  0  0  0  0  0  0  0  0
  5  6  2  0  0  0  0
  5  7  1  0  0  0  0
  2  3  1  0  0  0  0
  2  4  1  0  0  0  0
  2  5  1  0  0  0  0
  1  2  1  0  0  0  0
 23 24  2  0  0  0  0
 23 25  1  0  0  0  0
 21 22  1  0  0  0  0
 19 20  1  0  0  0  0
 19 21  1  0  0  0  0
 17 18  1  0  0  0  0
 17 19  1  0  0  0  0
 15 16  1  0  0  0  0
 15 17  2  0  0  0  0
 14 15  1  0  0  0  0
 14 21  2  0  0  0  0
 11 12  1  0  0  0  0
 11 13  1  0  0  0  0
 11 14  1  0  0  0  0
  9 10  1  0  0  0  0
  9 11  1  0  0  0  0
  9 23  1  0  0  0  0
  7  8  1  0  0  0  0
  7  9  1  0  0  0  0
 27 28  1  0  0  0  0
 27 29  1  0  0  0  0
 27 30  1  0  0  0  0
 25 26  1  0  0  0  0
 25 27  1  0  0  0  0
M  CHG  1  15   1
M  END
$$$$
default_name
  -OEChem-01062215323D

 30 30  0     1  0  0  0  0  0999 V2000
   -3.5507   -3.2183    1.8116 H   0  0  0  0  0  0  0  0  0  0  0  0
   -3.4597   -2.3913    1.1076 C   0  0  0  0  0  0  0  0  0  0  0  0
   -4.1577   -1.6043    1.3866 H   0  0  0  0  0  0  0  0  0  0  0  0
   -3.6807   -2.7523    0.1036 H   0  0  0  0  0  0  0  0  0  0  0  0
   -2.0477   -1.8543    1.1546 C   0  0  0  0  0  0  0  0  0  0  0  0
   -1.2227   -2.3443    1.9146 O   0  0  0  0  0  0  0  0  0  0  0  0
   -1.7517   -0.8483    0.3266 N   0  0  0  0  0  0  0  0  0  0  0  0
   -2.4847   -0.5123   -0.2804 H   0  0  0  0  0  0  0  0  0  0  0  0
   -0.4117   -0.2463    0.2186 C   0  0  1  0  0  0  0  0  0  0  0  0
    0.1654   -0.8279   -0.5045 H   0  0  0  0  0  0  0  0  0  0  0  0
   -0.5579    1.1817   -0.3564 C   0  0  0  0  0  0  0  0  0  0  0  0
   -1.2120    1.7575    0.3033 H   0  0  0  0  0  0  0  0  0  0  0  0
    0.4188    1.6704   -0.3456 H   0  0  0  0  0  0  0  0  0  0  0  0
   -1.1049    1.2549   -1.7663 C   0  0  0  0  0  0  0  0  0  0  0  0
   -0.3994    0.9466   -2.9134 N   0  3  0  0  0  0  0  0  0  0  0  0
    0.5542    0.5735   -2.9071 H   0  0  0  0  0  0  0  0  0  0  0  0
   -1.2103    1.1307   -3.9741 C   0  0  0  0  0  0  0  0  0  0  0  0
   -0.9375    0.9555   -5.0128 H   0  0  0  0  0  0  0  0  0  0  0  0
   -2.4148    1.5501   -3.5251 N   0  0  0  0  0  0  0  0  0  0  0  0
   -3.2245    1.7657   -4.1009 H   0  0  0  0  0  0  0  0  0  0  0  0
   -2.3658    1.6337   -2.1405 C   0  0  0  0  0  0  0  0  0  0  0  0
   -3.1674    1.9387   -1.4736 H   0  0  0  0  0  0  0  0  0  0  0  0
    0.3503   -0.3304    1.5532 C   0  0  0  0  0  0  0  0  0  0  0  0
    1.4156   -0.9446    1.6289 O   0  0  0  0  0  0  0  0  0  0  0  0
   -0.2144    0.2809    2.6017 N   0  0  0  0  0  0  0  0  0  0  0  0
   -1.0826    0.7692    2.4432 H   0  0  0  0  0  0  0  0  0  0  0  0
    0.3261    0.2951    3.9645 C   0  0  0  0  0  0  0  0  0  0  0  0
    0.8237    1.2470    4.1605 H   0  0  0  0  0  0  0  0  0  0  0  0
   -0.4822    0.1702    4.6871 H   0  0  0  0  0  0  0  0  0  0  0  0
    1.0466   -0.5132    4.1061 H   0  0  0  0  0  0  0  0  0  0  0  0
  5  6  2  0  0  0  0
  5  7  1  0  0  0  0
  2  3  1  0  0  0  0
  2  4  1  0  0  0  0
  2  5  1  0  0  0  0
  1  2  1  0  0  0  0
 23 24  2  0  0  0  0
 23 25  1  0  0  0  0
 21 22  1  0  0  0  0
 19 20  1  0  0  0  0
 19 21  1  0  0  0  0
 17 18  1  0  0  0  0
 17 19  1  0  0  0  0
 15 16  1  0  0  0  0
 15 17  2  0  0  0  0
 14 15  1  0  0  0  0
 14 21  2  0  0  0  0
 11 12  1  0  0  0  0
 11 13  1  0  0  0  0
 11 14  1  0  0  0  0
  9 10  1  0  0  0  0
  9 11  1  0  0  0  0
  9 23  1  0  0  0  0
  7  8  1  0  0  0  0
  7  9  1  0  0  0  0
 27 28  1  0  0  0  0
 27 29  1  0  0  0  0
 27 30  1  0  0  0  0
 25 26  1  0  0  0  0
 25 27  1  0  0  0  0
M  CHG  1  15   1
M  END
$$$$
default_name
  -OEChem-01062215323D

 30 30  0     1  0  0  0  0  0999 V2000
   -3.5507   -3.2183    1.8116 H   0  0  0  0  0  0  0  0  0  0  0  0
   -3.4597   -2.3913    1.1076 C   0  0  0  0  0  0  0  0  0  0  0  0
   -4.1577   -1.6043    1.3866 H   0  0  0  0  0  0  0  0  0  0  0  0
   -3.6807   -2.7523    0.1036 H   0  0  0  0  0  0  0  0  0  0  0  0
   -2.0477   -1.8543    1.1546 C   0  0  0  0  0  0  0  0  0  0  0  0
   -1.2227   -2.3443    1.9146 O   0  0  0  0  0  0  0  0  0  0  0  0
   -1.7517   -0.8483    0.3266 N   0  0  0  0  0  0  0  0  0  0  0  0
   -2.4847   -0.5123   -0.2804 H   0  0  0  0  0  0  0  0  0  0  0  0
   -0.4117   -0.2463    0.2186 C   0  0  1  0  0  0  0  0  0  0  0  0
    0.1654   -0.8279   -0.5045 H   0  0  0  0  0  0  0  0  0  0  0  0
   -0.5579    1.1817   -0.3564 C   0  0  0  0  0  0  0  0  0  0  0  0
   -1.2120    1.7575    0.3033 H   0  0  0  0  0  0  0  0  0  0  0  0
    0.4188    1.6704   -0.3456 H   0  0  0  0  0  0  0  0  0  0  0  0
   -1.1049    1.2549   -1.7663 C   0  0  0  0  0  0  0  0  0  0  0  0
   -0.3994    0.9466   -2.9134 N   0  3  0  0  0  0  0  0  0  0  0  0
    0.5542    0.5735   -2.9071 H   0  0  0  0  0  0  0  0  0  0  0  0
   -1.2103    1.1307   -3.9741 C   0  0  0  0  0  0  0  0  0  0  0  0
   -0.9375    0.9555   -5.0128 H   0  0  0  0  0  0  0  0  0  0  0  0
   -2.4148    1.5501   -3.5251 N   0  0  0  0  0  0  0  0  0  0  0  0
   -3.2245    1.7657   -4.1009 H   0  0  0  0  0  0  0  0  0  0  0  0
   -2.3658    1.6337   -2.1405 C   0  0  0  0  0  0  0  0  0  0  0  0
   -3.1674    1.9387   -1.4736 H   0  0  0  0  0  0  0  0  0  0  0  0
    0.3503   -0.3304    1.5532 C   0  0  0  0  0  0  0  0  0  0  0  0
    1.5267   -0.6955    1.5812 O   0  0  0  0  0  0  0  0  0  0  0  0
   -0.3371   -0.0022    2.6539 N   0  0  0  0  0  0  0  0  0  0  0  0
   -1.2931    0.2961    2.5336 H   0  0  0  0  0  0  0  0  0  0  0  0
    0.1869   -0.0444    4.0225 C   0  0  0  0  0  0  0  0  0  0  0  0
    0.4573    0.9609    4.3516 H   0  0  0  0  0  0  0  0  0  0  0  0
   -0.5721   -0.4395    4.6999 H   0  0  0  0  0  0  0  0  0  0  0  0
    1.0710   -0.6826    4.0814 H   0  0  0  0  0  0  0  0  0  0  0  0
  5  6  2  0  0  0  0
  5  7  1  0  0  0  0
  2  3  1  0  0  0  0
  2  4  1  0  0  0  0
  2  5  1  0  0  0  0
  1  2  1  0  0  0  0
 23 24  2  0  0  0  0
 23 25  1  0  0  0  0
 21 22  1  0  0  0  0
 19 20  1  0  0  0  0
 19 21  1  0  0  0  0
 17 18  1  0  0  0  0
 17 19  1  0  0  0  0
 15 16  1  0  0  0  0
 15 17  2  0  0  0  0
 14 15  1  0  0  0  0
 14 21  2  0  0  0  0
 11 12  1  0  0  0  0
 11 13  1  0  0  0  0
 11 14  1  0  0  0  0
  9 10  1  0  0  0  0
  9 11  1  0  0  0  0
  9 23  1  0  0  0  0
  7  8  1  0  0  0  0
  7  9  1  0  0  0  0
 27 28  1  0  0  0  0
 27 29  1  0  0  0  0
 27 30  1  0  0  0  0
 25 26  1  0  0  0  0
 25 27  1  0  0  0  0
M  CHG  1  15   1
M  END
$$$$
default_name
  -OEChem-01062215323D

 30 30  0     1  0  0  0  0  0999 V2000
   -3.5507   -3.2183    1.8116 H   0  0  0  0  0  0  0  0  0  0  0  0
   -3.4597   -2.3913    1.1076 C   0  0  0  0  0  0  0  0  0  0  0  0
   -4.1577   -1.6043    1.3866 H   0  0  0  0  0  0  0  0  0  0  0  0
   -3.6807   -2.7523    0.1036 H   0  0  0  0  0  0  0  0  0  0  0  0
   -2.0477   -1.8543    1.1546 C   0  0  0  0  0  0  0  0  0  0  0  0
   -1.2227   -2.3443    1.9146 O   0  0  0  0  0  0  0  0  0  0  0  0
   -1.7517   -0.8483    0.3266 N   0  0  0  0  0  0  0  0  0  0  0  0
   -2.4847   -0.5123   -0.2804 H   0  0  0  0  0  0  0  0  0  0  0  0
   -0.4117   -0.2463    0.2186 C   0  0  1  0  0  0  0  0  0  0  0  0
    0.1654   -0.8279   -0.5045 H   0  0  0  0  0  0  0  0  0  0  0  0
   -0.5579    1.1817   -0.3564 C   0  0  0  0  0  0  0  0  0  0  0  0
   -1.2120    1.7575    0.3033 H   0  0  0  0  0  0  0  0  0  0  0  0
    0.4188    1.6704   -0.3456 H   0  0  0  0  0  0  0  0  0  0  0  0
   -1.1049    1.2549   -1.7663 C   0  0  0  0  0  0  0  0  0  0  0  0
   -0.3994    0.9466   -2.9134 N   0  3  0  0  0  0  0  0  0  0  0  0
    0.5542    0.5735   -2.9071 H   0  0  0  0  0  0  0  0  0  0  0  0
   -1.2103    1.1307   -3.9741 C   0  0  0  0  0  0  0  0  0  0  0  0
   -0.9375    0.9555   -5.0128 H   0  0  0  0  0  0  0  0  0  0  0  0
   -2.4148    1.5501   -3.5251 N   0  0  0  0  0  0  0  0  0  0  0  0
   -3.2245    1.7657   -4.1009 H   0  0  0  0  0  0  0  0  0  0  0  0
   -2.3658    1.6337   -2.1405 C   0  0  0  0  0  0  0  0  0  0  0  0
   -3.1674    1.9387   -1.4736 H   0  0  0  0  0  0  0  0  0  0  0  0
    0.3503   -0.3304    1.5532 C   0  0  0  0  0  0  0  0  0  0  0  0
    1.5787   -0.4238    1.5686 O   0  0  0  0  0  0  0  0  0  0  0  0
   -0.3929   -0.3098    2.6664 N   0  0  0  0  0  0  0  0  0  0  0  0
   -1.3916   -0.2197    2.5573 H   0  0  0  0  0  0  0  0  0  0  0  0
    0.1278   -0.4111    4.0331 C   0  0  0  0  0  0  0  0  0  0  0  0
    0.1649    0.5778    4.4945 H   0  0  0  0  0  0  0  0  0  0  0  0
   -0.5223   -1.0503    4.6330 H   0  0  0  0  0  0  0  0  0  0  0  0
    1.1331   -0.8377    4.0362 H   0  0  0  0  0  0  0  0  0  0  0  0
  5  6  2  0  0  0  0
  5  7  1  0  0  0  0
  2  3  1  0  0  0  0
  2  4  1  0  0  0  0
  2  5  1  0  0  0  0
  1  2  1  0  0  0  0
 23 24  2  0  0  0  0
 23 25  1  0  0  0  0
 21 22  1  0  0  0  0
 19 20  1  0  0  0  0
 19 21  1  0  0  0  0
 17 18  1  0  0  0  0
 17 19  1  0  0  0  0
 15 16  1  0  0  0  0
 15 17  2  0  0  0  0
 14 15  1  0  0  0  0
 14 21  2  0  0  0  0
 11 12  1  0  0  0  0
 11 13  1  0  0  0  0
 11 14  1  0  0  0  0
  9 10  1  0  0  0  0
  9 11  1  0  0  0  0
  9 23  1  0  0  0  0
  7  8  1  0  0  0  0
  7  9  1  0  0  0  0
 27 28  1  0  0  0  0
 27 29  1  0  0  0  0
 27 30  1  0  0  0  0
 25 26  1  0  0  0  0
 25 27  1  0  0  0  0
M  CHG  1  15   1
M  END
$$$$
default_name
  -OEChem-01062215323D

 30 30  0     1  0  0  0  0  0999 V2000
   -3.5507   -3.2183    1.8116 H   0  0  0  0  0  0  0  0  0  0  0  0
   -3.4597   -2.3913    1.1076 C   0  0  0  0  0  0  0  0  0  0  0  0
   -4.1577   -1.6043    1.3866 H   0  0  0  0  0  0  0  0  0  0  0  0
   -3.6807   -2.7523    0.1036 H   0  0  0  0  0  0  0  0  0  0  0  0
   -2.0477   -1.8543    1.1546 C   0  0  0  0  0  0  0  0  0  0  0  0
   -1.2227   -2.3443    1.9146 O   0  0  0  0  0  0  0  0  0  0  0  0
   -1.7517   -0.8483    0.3266 N   0  0  0  0  0  0  0  0  0  0  0  0
   -2.4847   -0.5123   -0.2804 H   0  0  0  0  0  0  0  0  0  0  0  0
   -0.4117   -0.2463    0.2186 C   0  0  1  0  0  0  0  0  0  0  0  0
    0.1654   -0.8279   -0.5045 H   0  0  0  0  0  0  0  0  0  0  0  0
   -0.5579    1.1817   -0.3564 C   0  0  0  0  0  0  0  0  0  0  0  0
   -1.2120    1.7575    0.3033 H   0  0  0  0  0  0  0  0  0  0  0  0
    0.4188    1.6704   -0.3456 H   0  0  0  0  0  0  0  0  0  0  0  0
   -1.1049    1.2549   -1.7663 C   0  0  0  0  0  0  0  0  0  0  0  0
   -0.3994    0.9466   -2.9134 N   0  3  0  0  0  0  0  0  0  0  0  0
    0.5542    0.5735   -2.9071 H   0  0  0  0  0  0  0  0  0  0  0  0
   -1.2103    1.1307   -3.9741 C   0  0  0  0  0  0  0  0  0  0  0  0
   -0.9375    0.9555   -5.0128 H   0  0  0  0  0  0  0  0  0  0  0  0
   -2.4148    1.5501   -3.5251 N   0  0  0  0  0  0  0  0  0  0  0  0
   -3.2245    1.7657   -4.1009 H   0  0  0  0  0  0  0  0  0  0  0  0
   -2.3658    1.6337   -2.1405 C   0  0  0  0  0  0  0  0  0  0  0  0
   -3.1674    1.9387   -1.4736 H   0  0  0  0  0  0  0  0  0  0  0  0
    0.3503   -0.3304    1.5532 C   0  0  0  0  0  0  0  0  0  0  0  0
    1.5681   -0.1481    1.5920 O   0  0  0  0  0  0  0  0  0  0  0  0
   -0.3779   -0.6211    2.6382 N   0  0  0  0  0  0  0  0  0  0  0  0
   -1.3713   -0.7431    2.5127 H   0  0  0  0  0  0  0  0  0  0  0  0
    0.1529   -0.7799    3.9955 C   0  0  0  0  0  0  0  0  0  0  0  0
   -0.0336    0.1238    4.5792 H   0  0  0  0  0  0  0  0  0  0  0  0
   -0.3362   -1.6206    4.4907 H   0  0  0  0  0  0  0  0  0  0  0  0
    1.2284   -0.9677    3.9735 H   0  0  0  0  0  0  0  0  0  0  0  0
  5  6  2  0  0  0  0
  5  7  1  0  0  0  0
  2  3  1  0  0  0  0
  2  4  1  0  0  0  0
  2  5  1  0  0  0  0
  1  2  1  0  0  0  0
 23 24  2  0  0  0  0
 23 25  1  0  0  0  0
 21 22  1  0  0  0  0
 19 20  1  0  0  0  0
 19 21  1  0  0  0  0
 17 18  1  0  0  0  0
 17 19  1  0  0  0  0
 15 16  1  0  0  0  0
 15 17  2  0  0  0  0
 14 15  1  0  0  0  0
 14 21  2  0  0  0  0
 11 12  1  0  0  0  0
 11 13  1  0  0  0  0
 11 14  1  0  0  0  0
  9 10  1  0  0  0  0
  9 11  1  0  0  0  0
  9 23  1  0  0  0  0
  7  8  1  0  0  0  0
  7  9  1  0  0  0  0
 27 28  1  0  0  0  0
 27 29  1  0  0  0  0
 27 30  1  0  0  0  0
 25 26  1  0  0  0  0
 25 27  1  0  0  0  0
M  CHG  1  15   1
M  END
$$$$
default_name
  -OEChem-01062215323D

 30 30  0     1  0  0  0  0  0999 V2000
   -3.5507   -3.2183    1.8116 H   0  0  0  0  0  0  0  0  0  0  0  0
   -3.4597   -2.3913    1.1076 C   0  0  0  0  0  0  0  0  0  0  0  0
   -4.1577   -1.6043    1.3866 H   0  0  0  0  0  0  0  0  0  0  0  0
   -3.6807   -2.7523    0.1036 H   0  0  0  0  0  0  0  0  0  0  0  0
   -2.0477   -1.8543    1.1546 C   0  0  0  0  0  0  0  0  0  0  0  0
   -1.2227   -2.3443    1.9146 O   0  0  0  0  0  0  0  0  0  0  0  0
   -1.7517   -0.8483    0.3266 N   0  0  0  0  0  0  0  0  0  0  0  0
   -2.4847   -0.5123   -0.2804 H   0  0  0  0  0  0  0  0  0  0  0  0
   -0.4117   -0.2463    0.2186 C   0  0  1  0  0  0  0  0  0  0  0  0
    0.1654   -0.8279   -0.5045 H   0  0  0  0  0  0  0  0  0  0  0  0
   -0.5579    1.1817   -0.3564 C   0  0  0  0  0  0  0  0  0  0  0  0
   -1.2120    1.7575    0.3033 H   0  0  0  0  0  0  0  0  0  0  0  0
    0.4188    1.6704   -0.3456 H   0  0  0  0  0  0  0  0  0  0  0  0
   -1.1049    1.2549   -1.7663 C   0  0  0  0  0  0  0  0  0  0  0  0
   -0.3994    0.9466   -2.9134 N   0  3  0  0  0  0  0  0  0  0  0  0
    0.5542    0.5735   -2.9071 H   0  0  0  0  0  0  0  0  0  0  0  0
   -1.2103    1.1307   -3.9741 C   0  0  0  0  0  0  0  0  0  0  0  0
   -0.9375    0.9555   -5.0128 H   0  0  0  0  0  0  0  0  0  0  0  0
   -2.4148    1.5501   -3.5251 N   0  0  0  0  0  0  0  0  0  0  0  0
   -3.2245    1.7657   -4.1009 H   0  0  0  0  0  0  0  0  0  0  0  0
   -2.3658    1.6337   -2.1405 C   0  0  0  0  0  0  0  0  0  0  0  0
   -3.1674    1.9387   -1.4736 H   0  0  0  0  0  0  0  0  0  0  0  0
    0.3503   -0.3304    1.5532 C   0  0  0  0  0  0  0  0  0  0  0  0
    1.4958    0.1128    1.6498 O   0  0  0  0  0  0  0  0  0  0  0  0
   -0.2932   -0.9148    2.5713 N   0  0  0  0  0  0  0  0  0  0  0  0
   -1.2335   -1.2383    2.4028 H   0  0  0  0  0  0  0  0  0  0  0  0
    0.2604   -1.1257    3.9123 C   0  0  0  0  0  0  0  0  0  0  0  0
   -0.1247   -0.3701    4.6000 H   0  0  0  0  0  0  0  0  0  0  0  0
   -0.0264   -2.1114    4.2829 H   0  0  0  0  0  0  0  0  0  0  0  0
    1.3506   -1.0638    3.8977 H   0  0  0  0  0  0  0  0  0  0  0  0
  5  6  2  0  0  0  0
  5  7  1  0  0  0  0
  2  3  1  0  0  0  0
  2  4  1  0  0  0  0
  2  5  1  0  0  0  0
  1  2  1  0  0  0  0
 23 24  2  0  0  0  0
 23 25  1  0  0  0  0
 21 22  1  0  0  0  0
 19 20  1  0  0  0  0
 19 21  1  0  0  0  0
 17 18  1  0  0  0  0
 17 19  1  0  0  0  0
 15 16  1  0  0  0  0
 15 17  2  0  0  0  0
 14 15  1  0  0  0  0
 14 21  2  0  0  0  0
 11 12  1  0  0  0  0
 11 13  1  0  0  0  0
 11 14  1  0  0  0  0
  9 10  1  0  0  0  0
  9 11  1  0  0  0  0
  9 23  1  0  0  0  0
  7  8  1  0  0  0  0
  7  9  1  0  0  0  0
 27 28  1  0  0  0  0
 27 29  1  0  0  0  0
 27 30  1  0  0  0  0
 25 26  1  0  0  0  0
 25 27  1  0  0  0  0
M  CHG  1  15   1
M  END
$$$$
default_name
  -OEChem-01062215323D

 30 30  0     1  0  0  0  0  0999 V2000
   -3.5507   -3.2183    1.8116 H   0  0  0  0  0  0  0  0  0  0  0  0
   -3.4597   -2.3913    1.1076 C   0  0  0  0  0  0  0  0  0  0  0  0
   -4.1577   -1.6043    1.3866 H   0  0  0  0  0  0  0  0  0  0  0  0
   -3.6807   -2.7523    0.1036 H   0  0  0  0  0  0  0  0  0  0  0  0
   -2.0477   -1.8543    1.1546 C   0  0  0  0  0  0  0  0  0  0  0  0
   -1.2227   -2.3443    1.9146 O   0  0  0  0  0  0  0  0  0  0  0  0
   -1.7517   -0.8483    0.3266 N   0  0  0  0  0  0  0  0  0  0  0  0
   -2.4847   -0.5123   -0.2804 H   0  0  0  0  0  0  0  0  0  0  0  0
   -0.4117   -0.2463    0.2186 C   0  0  1  0  0  0  0  0  0  0  0  0
    0.1654   -0.8279   -0.5045 H   0  0  0  0  0  0  0  0  0  0  0  0
   -0.5579    1.1817   -0.3564 C   0  0  0  0  0  0  0  0  0  0  0  0
   -1.2120    1.7575    0.3033 H   0  0  0  0  0  0  0  0  0  0  0  0
    0.4188    1.6704   -0.3456 H   0  0  0  0  0  0  0  0  0  0  0  0
   -1.1049    1.2549   -1.7663 C   0  0  0  0  0  0  0  0  0  0  0  0
   -0.3994    0.9466   -2.9134 N   0  3  0  0  0  0  0  0  0  0  0  0
    0.5542    0.5735   -2.9071 H   0  0  0  0  0  0  0  0  0  0  0  0
   -1.2103    1.1307   -3.9741 C   0  0  0  0  0  0  0  0  0  0  0  0
   -0.9375    0.9555   -5.0128 H   0  0  0  0  0  0  0  0  0  0  0  0
   -2.4148    1.5501   -3.5251 N   0  0  0  0  0  0  0  0  0  0  0  0
   -3.2245    1.7657   -4.1009 H   0  0  0  0  0  0  0  0  0  0  0  0
   -2.3658    1.6337   -2.1405 C   0  0  0  0  0  0  0  0  0  0  0  0
   -3.1674    1.9387   -1.4736 H   0  0  0  0  0  0  0  0  0  0  0  0
    0.3503   -0.3304    1.5532 C   0  0  0  0  0  0  0  0  0  0  0  0
    1.3665    0.3412    1.7381 O   0  0  0  0  0  0  0  0  0  0  0  0
   -0.1445   -1.1708    2.4702 N   0  0  0  0  0  0  0  0  0  0  0  0
   -0.9878   -1.6717    2.2351 H   0  0  0  0  0  0  0  0  0  0  0  0
    0.4430   -1.4249    3.7892 C   0  0  0  0  0  0  0  0  0  0  0  0
   -0.1021   -0.8703    4.5556 H   0  0  0  0  0  0  0  0  0  0  0  0
    0.3859   -2.4893    4.0237 H   0  0  0  0  0  0  0  0  0  0  0  0
    1.4912   -1.1196    3.8139 H   0  0  0  0  0  0  0  0  0  0  0  0
  5  6  2  0  0  0  0
  5  7  1  0  0  0  0
  2  3  1  0  0  0  0
  2  4  1  0  0  0  0
  2  5  1  0  0  0  0
  1  2  1  0  0  0  0
 23 24  2  0  0  0  0
 23 25  1  0  0  0  0
 21 22  1  0  0  0  0
 19 20  1  0  0  0  0
 19 21  1  0  0  0  0
 17 18  1  0  0  0  0
 17 19  1  0  0  0  0
 15 16  1  0  0  0  0
 15 17  2  0  0  0  0
 14 15  1  0  0  0  0
 14 21  2  0  0  0  0
 11 12  1  0  0  0  0
 11 13  1  0  0  0  0
 11 14  1  0  0  0  0
  9 10  1  0  0  0  0
  9 11  1  0  0  0  0
  9 23  1  0  0  0  0
  7  8  1  0  0  0  0
  7  9  1  0  0  0  0
 27 28  1  0  0  0  0
 27 29  1  0  0  0  0
 27 30  1  0  0  0  0
 25 26  1  0  0  0  0
 25 27  1  0  0  0  0
M  CHG  1  15   1
M  END
$$$$
default_name
  -OEChem-01062215323D

 30 30  0     1  0  0  0  0  0999 V2000
   -3.5507   -3.2183    1.8116 H   0  0  0  0  0  0  0  0  0  0  0  0
   -3.4597   -2.3913    1.1076 C   0  0  0  0  0  0  0  0  0  0  0  0
   -4.1577   -1.6043    1.3866 H   0  0  0  0  0  0  0  0  0  0  0  0
   -3.6807   -2.7523    0.1036 H   0  0  0  0  0  0  0  0  0  0  0  0
   -2.0477   -1.8543    1.1546 C   0  0  0  0  0  0  0  0  0  0  0  0
   -1.2227   -2.3443    1.9146 O   0  0  0  0  0  0  0  0  0  0  0  0
   -1.7517   -0.8483    0.3266 N   0  0  0  0  0  0  0  0  0  0  0  0
   -2.4847   -0.5123   -0.2804 H   0  0  0  0  0  0  0  0  0  0  0  0
   -0.4117   -0.2463    0.2186 C   0  0  1  0  0  0  0  0  0  0  0  0
    0.1654   -0.8279   -0.5045 H   0  0  0  0  0  0  0  0  0  0  0  0
   -0.5579    1.1817   -0.3564 C   0  0  0  0  0  0  0  0  0  0  0  0
   -1.2120    1.7575    0.3033 H   0  0  0  0  0  0  0  0  0  0  0  0
    0.4188    1.6704   -0.3456 H   0  0  0  0  0  0  0  0  0  0  0  0
   -1.1049    1.2549   -1.7663 C   0  0  0  0  0  0  0  0  0  0  0  0
   -0.3994    0.9466   -2.9134 N   0  3  0  0  0  0  0  0  0  0  0  0
    0.5542    0.5735   -2.9071 H   0  0  0  0  0  0  0  0  0  0  0  0
   -1.2103    1.1307   -3.9741 C   0  0  0  0  0  0  0  0  0  0  0  0
   -0.9375    0.9555   -5.0128 H   0  0  0  0  0  0  0  0  0  0  0  0
   -2.4148    1.5501   -3.5251 N   0  0  0  0  0  0  0  0  0  0  0  0
   -3.2245    1.7657   -4.1009 H   0  0  0  0  0  0  0  0  0  0  0  0
   -2.3658    1.6337   -2.1405 C   0  0  0  0  0  0  0  0  0  0  0  0
   -3.1674    1.9387   -1.4736 H   0  0  0  0  0  0  0  0  0  0  0  0
    0.3503   -0.3304    1.5532 C   0  0  0  0  0  0  0  0  0  0  0  0
    1.1891    0.5215    1.8507 O   0  0  0  0  0  0  0  0  0  0  0  0
    0.0581   -1.3719    2.3419 N   0  0  0  0  0  0  0  0  0  0  0  0
   -0.6508   -2.0137    2.0211 H   0  0  0  0  0  0  0  0  0  0  0  0
    0.6883   -1.6572    3.6345 C   0  0  0  0  0  0  0  0  0  0  0  0
    0.0326   -1.3426    4.4488 H   0  0  0  0  0  0  0  0  0  0  0  0
    0.8726   -2.7286    3.7306 H   0  0  0  0  0  0  0  0  0  0  0  0
    1.6408   -1.1312    3.7278 H   0  0  0  0  0  0  0  0  0  0  0  0
  5  6  2  0  0  0  0
  5  7  1  0  0  0  0
  2  3  1  0  0  0  0
  2  4  1  0  0  0  0
  2  5  1  0  0  0  0
  1  2  1  0  0  0  0
 23 24  2  0  0  0  0
 23 25  1  0  0  0  0
 21 22  1  0  0  0  0
 19 20  1  0  0  0  0
 19 21  1  0  0  0  0
 17 18  1  0  0  0  0
 17 19  1  0  0  0  0
 15 16  1  0  0  0  0
 15 17  2  0  0  0  0
 14 15  1  0  0  0  0
 14 21  2  0  0  0  0
 11 12  1  0  0  0  0
 11 13  1  0  0  0  0
 11 14  1  0  0  0  0
  9 10  1  0  0  0  0
  9 11  1  0  0  0  0
  9 23  1  0  0  0  0
  7  8  1  0  0  0  0
  7  9  1  0  0  0  0
 27 28  1  0  0  0  0
 27 29  1  0  0  0  0
 27 30  1  0  0  0  0
 25 26  1  0  0  0  0
 25 27  1  0  0  0  0
M  CHG  1  15   1
M  END
$$$$
default_name
  -OEChem-01062215323D

 30 30  0     1  0  0  0  0  0999 V2000
   -3.5507   -3.2183    1.8116 H   0  0  0  0  0  0  0  0  0  0  0  0
   -3.4597   -2.3913    1.1076 C   0  0  0  0  0  0  0  0  0  0  0  0
   -4.1577   -1.6043    1.3866 H   0  0  0  0  0  0  0  0  0  0  0  0
   -3.6807   -2.7523    0.1036 H   0  0  0  0  0  0  0  0  0  0  0  0
   -2.0477   -1.8543    1.1546 C   0  0  0  0  0  0  0  0  0  0  0  0
   -1.2227   -2.3443    1.9146 O   0  0  0  0  0  0  0  0  0  0  0  0
   -1.7517   -0.8483    0.3266 N   0  0  0  0  0  0  0  0  0  0  0  0
   -2.4847   -0.5123   -0.2804 H   0  0  0  0  0  0  0  0  0  0  0  0
   -0.4117   -0.2463    0.2186 C   0  0  1  0  0  0  0  0  0  0  0  0
    0.1654   -0.8279   -0.5045 H   0  0  0  0  0  0  0  0  0  0  0  0
   -0.5579    1.1817   -0.3564 C   0  0  0  0  0  0  0  0  0  0  0  0
   -1.2120    1.7575    0.3033 H   0  0  0  0  0  0  0  0  0  0  0  0
    0.4188    1.6704   -0.3456 H   0  0  0  0  0  0  0  0  0  0  0  0
   -1.1049    1.2549   -1.7663 C   0  0  0  0  0  0  0  0  0  0  0  0
   -0.3994    0.9466   -2.9134 N   0  3  0  0  0  0  0  0  0  0  0  0
    0.5542    0.5735   -2.9071 H   0  0  0  0  0  0  0  0  0  0  0  0
   -1.2103    1.1307   -3.9741 C   0  0  0  0  0  0  0  0  0  0  0  0
   -0.9375    0.9555   -5.0128 H   0  0  0  0  0  0  0  0  0  0  0  0
   -2.4148    1.5501   -3.5251 N   0  0  0  0  0  0  0  0  0  0  0  0
   -3.2245    1.7657   -4.1009 H   0  0  0  0  0  0  0  0  0  0  0  0
   -2.3658    1.6337   -2.1405 C   0  0  0  0  0  0  0  0  0  0  0  0
   -3.1674    1.9387   -1.4736 H   0  0  0  0  0  0  0  0  0  0  0  0
    0.3503   -0.3304    1.5532 C   0  0  0  0  0  0  0  0  0  0  0  0
    0.9756    0.6414    1.9802 O   0  0  0  0  0  0  0  0  0  0  0  0
    0.3007   -1.5042    2.1950 N   0  0  0  0  0  0  0  0  0  0  0  0
   -0.2455   -2.2410    1.7754 H   0  0  0  0  0  0  0  0  0  0  0  0
    0.9796   -1.8066    3.4587 C   0  0  0  0  0  0  0  0  0  0  0  0
    0.2702   -1.7550    4.2872 H   0  0  0  0  0  0  0  0  0  0  0  0
    1.4006   -2.8129    3.4238 H   0  0  0  0  0  0  0  0  0  0  0  0
    1.7891   -1.0977    3.6452 H   0  0  0  0  0  0  0  0  0  0  0  0
  5  6  2  0  0  0  0
  5  7  1  0  0  0  0
  2  3  1  0  0  0  0
  2  4  1  0  0  0  0
  2  5  1  0  0  0  0
  1  2  1  0  0  0  0
 23 24  2  0  0  0  0
 23 25  1  0  0  0  0
 21 22  1  0  0  0  0
 19 20  1  0  0  0  0
 19 21  1  0  0  0  0
 17 18  1  0  0  0  0
 17 19  1  0  0  0  0
 15 16  1  0  0  0  0
 15 17  2  0  0  0  0
 14 15  1  0  0  0  0
 14 21  2  0  0  0  0
 11 12  1  0  0  0  0
 11 13  1  0  0  0  0
 11 14  1  0  0  0  0
  9 10  1  0  0  0  0
  9 11  1  0  0  0  0
  9 23  1  0  0  0  0
  7  8  1  0  0  0  0
  7  9  1  0  0  0  0
 27 28  1  0  0  0  0
 27 29  1  0  0  0  0
 27 30  1  0  0  0  0
 25 26  1  0  0  0  0
 25 27  1  0  0  0  0
M  CHG  1  15   1
M  END
$$$$
default_name
  -OEChem-01062215323D

 30 30  0     1  0  0  0  0  0999 V2000
   -3.5507   -3.2183    1.8116 H   0  0  0  0  0  0  0  0  0  0  0  0
   -3.4597   -2.3913    1.1076 C   0  0  0  0  0  0  0  0  0  0  0  0
   -4.1577   -1.6043    1.3866 H   0  0  0  0  0  0  0  0  0  0  0  0
   -3.6807   -2.7523    0.1036 H   0  0  0  0  0  0  0  0  0  0  0  0
   -2.0477   -1.8543    1.1546 C   0  0  0  0  0  0  0  0  0  0  0  0
   -1.2227   -2.3443    1.9146 O   0  0  0  0  0  0  0  0  0  0  0  0
   -1.7517   -0.8483    0.3266 N   0  0  0  0  0  0  0  0  0  0  0  0
   -2.4847   -0.5123   -0.2804 H   0  0  0  0  0  0  0  0  0  0  0  0
   -0.4117   -0.2463    0.2186 C   0  0  1  0  0  0  0  0  0  0  0  0
    0.1654   -0.8279   -0.5045 H   0  0  0  0  0  0  0  0  0  0  0  0
   -0.5579    1.1817   -0.3564 C   0  0  0  0  0  0  0  0  0  0  0  0
   -1.2120    1.7575    0.3033 H   0  0  0  0  0  0  0  0  0  0  0  0
    0.4188    1.6704   -0.3456 H   0  0  0  0  0  0  0  0  0  0  0  0
   -1.1049    1.2549   -1.7663 C   0  0  0  0  0  0  0  0  0  0  0  0
   -0.3994    0.9466   -2.9134 N   0  3  0  0  0  0  0  0  0  0  0  0
    0.5542    0.5735   -2.9071 H   0  0  0  0  0  0  0  0  0  0  0  0
   -1.2103    1.1307   -3.9741 C   0  0  0  0  0  0  0  0  0  0  0  0
   -0.9375    0.9555   -5.0128 H   0  0  0  0  0  0  0  0  0  0  0  0
   -2.4148    1.5501   -3.5251 N   0  0  0  0  0  0  0  0  0  0  0  0
   -3.2245    1.7657   -4.1009 H   0  0  0  0  0  0  0  0  0  0  0  0
   -2.3658    1.6337   -2.1405 C   0  0  0  0  0  0  0  0  0  0  0  0
   -3.1674    1.9387   -1.4736 H   0  0  0  0  0  0  0  0  0  0  0  0
    0.3503   -0.3304    1.5532 C   0  0  0  0  0  0  0  0  0  0  0  0
    0.7408    0.6927    2.1175 O   0  0  0  0  0  0  0  0  0  0  0  0
    0.5667   -1.5587    2.0397 N   0  0  0  0  0  0  0  0  0  0  0  0
    0.2005   -2.3381    1.5146 H   0  0  0  0  0  0  0  0  0  0  0  0
    1.2970   -1.8631    3.2740 C   0  0  0  0  0  0  0  0  0  0  0  0
    0.5946   -2.0793    4.0815 H   0  0  0  0  0  0  0  0  0  0  0  0
    1.9339   -2.7366    3.1241 H   0  0  0  0  0  0  0  0  0  0  0  0
    1.9260   -1.0215    3.5719 H   0  0  0  0  0  0  0  0  0  0  0  0
  5  6  2  0  0  0  0
  5  7  1  0  0  0  0
  2  3  1  0  0  0  0
  2  4  1  0  0  0  0
  2  5  1  0  0  0  0
  1  2  1  0  0  0  0
 23 24  2  0  0  0  0
 23 25  1  0  0  0  0
 21 22  1  0  0  0  0
 19 20  1  0  0  0  0
 19 21  1  0  0  0  0
 17 18  1  0  0  0  0
 17 19  1  0  0  0  0
 15 16  1  0  0  0  0
 15 17  2  0  0  0  0
 14 15  1  0  0  0  0
 14 21  2  0  0  0  0
 11 12  1  0  0  0  0
 11 13  1  0  0  0  0
 11 14  1  0  0  0  0
  9 10  1  0  0  0  0
  9 11  1  0  0  0  0
  9 23  1  0  0  0  0
  7  8  1  0  0  0  0
  7  9  1  0  0  0  0
 27 28  1  0  0  0  0
 27 29  1  0  0  0  0
 27 30  1  0  0  0  0
 25 26  1  0  0  0  0
 25 27  1  0  0  0  0
M  CHG  1  15   1
M  END
$$$$
default_name
  -OEChem-01062215323D

 30 30  0     1  0  0  0  0  0999 V2000
   -3.5507   -3.2183    1.8116 H   0  0  0  0  0  0  0  0  0  0  0  0
   -3.4597   -2.3913    1.1076 C   0  0  0  0  0  0  0  0  0  0  0  0
   -4.1577   -1.6043    1.3866 H   0  0  0  0  0  0  0  0  0  0  0  0
   -3.6807   -2.7523    0.1036 H   0  0  0  0  0  0  0  0  0  0  0  0
   -2.0477   -1.8543    1.1546 C   0  0  0  0  0  0  0  0  0  0  0  0
   -1.2227   -2.3443    1.9146 O   0  0  0  0  0  0  0  0  0  0  0  0
   -1.7517   -0.8483    0.3266 N   0  0  0  0  0  0  0  0  0  0  0  0
   -2.4847   -0.5123   -0.2804 H   0  0  0  0  0  0  0  0  0  0  0  0
   -0.4117   -0.2463    0.2186 C   0  0  1  0  0  0  0  0  0  0  0  0
    0.1654   -0.8279   -0.5045 H   0  0  0  0  0  0  0  0  0  0  0  0
   -0.5579    1.1817   -0.3564 C   0  0  0  0  0  0  0  0  0  0  0  0
   -1.2120    1.7575    0.3033 H   0  0  0  0  0  0  0  0  0  0  0  0
    0.4188    1.6704   -0.3456 H   0  0  0  0  0  0  0  0  0  0  0  0
   -1.1049    1.2549   -1.7663 C   0  0  0  0  0  0  0  0  0  0  0  0
   -0.3994    0.9466   -2.9134 N   0  3  0  0  0  0  0  0  0  0  0  0
    0.5542    0.5735   -2.9071 H   0  0  0  0  0  0  0  0  0  0  0  0
   -1.2103    1.1307   -3.9741 C   0  0  0  0  0  0  0  0  0  0  0  0
   -0.9375    0.9555   -5.0128 H   0  0  0  0  0  0  0  0  0  0  0  0
   -2.4148    1.5501   -3.5251 N   0  0  0  0  0  0  0  0  0  0  0  0
   -3.2245    1.7657   -4.1009 H   0  0  0  0  0  0  0  0  0  0  0  0
   -2.3658    1.6337   -2.1405 C   0  0  0  0  0  0  0  0  0  0  0  0
   -3.1674    1.9387   -1.4736 H   0  0  0  0  0  0  0  0  0  0  0  0
    0.3503   -0.3304    1.5532 C   0  0  0  0  0  0  0  0  0  0  0  0
    0.5004    0.6720    2.2534 O   0  0  0  0  0  0  0  0  0  0  0  0
    0.8382   -1.5317    1.8864 N   0  0  0  0  0  0  0  0  0  0  0  0
    0.6567   -2.2984    1.2566 H   0  0  0  0  0  0  0  0  0  0  0  0
    1.6188   -1.8227    3.0927 C   0  0  0  0  0  0  0  0  0  0  0  0
    0.9836   -2.2933    3.8459 H   0  0  0  0  0  0  0  0  0  0  0  0
    2.4361   -2.5047    2.8520 H   0  0  0  0  0  0  0  0  0  0  0  0
    2.0421   -0.9079    3.5127 H   0  0  0  0  0  0  0  0  0  0  0  0
  5  6  2  0  0  0  0
  5  7  1  0  0  0  0
  2  3  1  0  0  0  0
  2  4  1  0  0  0  0
  2  5  1  0  0  0  0
  1  2  1  0  0  0  0
 23 24  2  0  0  0  0
 23 25  1  0  0  0  0
 21 22  1  0  0  0  0
 19 20  1  0  0  0  0
 19 21  1  0  0  0  0
 17 18  1  0  0  0  0
 17 19  1  0  0  0  0
 15 16  1  0  0  0  0
 15 17  2  0  0  0  0
 14 15  1  0  0  0  0
 14 21  2  0  0  0  0
 11 12  1  0  0  0  0
 11 13  1  0  0  0  0
 11 14  1  0  0  0  0
  9 10  1  0  0  0  0
  9 11  1  0  0  0  0
  9 23  1  0  0  0  0
  7  8  1  0  0  0  0
  7  9  1  0  0  0  0
 27 28  1  0  0  0  0
 27 29  1  0  0  0  0
 27 30  1  0  0  0  0
 25 26  1  0  0  0  0
 25 27  1  0  0  0  0
M  CHG  1  15   1
M  END
$$$$
default_name
  -OEChem-01062215323D

 30 30  0     1  0  0  0  0  0999 V2000
   -3.5507   -3.2183    1.8116 H   0  0  0  0  0  0  0  0  0  0  0  0
   -3.4597   -2.3913    1.1076 C   0  0  0  0  0  0  0  0  0  0  0  0
   -4.1577   -1.6043    1.3866 H   0  0  0  0  0  0  0  0  0  0  0  0
   -3.6807   -2.7523    0.1036 H   0  0  0  0  0  0  0  0  0  0  0  0
   -2.0477   -1.8543    1.1546 C   0  0  0  0  0  0  0  0  0  0  0  0
   -1.2227   -2.3443    1.9146 O   0  0  0  0  0  0  0  0  0  0  0  0
   -1.7517   -0.8483    0.3266 N   0  0  0  0  0  0  0  0  0  0  0  0
   -2.4847   -0.5123   -0.2804 H   0  0  0  0  0  0  0  0  0  0  0  0
   -0.4117   -0.2463    0.2186 C   0  0  1  0  0  0  0  0  0  0  0  0
    0.1654   -0.8279   -0.5045 H   0  0  0  0  0  0  0  0  0  0  0  0
   -0.5579    1.1817   -0.3564 C   0  0  0  0  0  0  0  0  0  0  0  0
   -1.2120    1.7575    0.3033 H   0  0  0  0  0  0  0  0  0  0  0  0
    0.4188    1.6704   -0.3456 H   0  0  0  0  0  0  0  0  0  0  0  0
   -1.1049    1.2549   -1.7663 C   0  0  0  0  0  0  0  0  0  0  0  0
   -0.3994    0.9466   -2.9134 N   0  3  0  0  0  0  0  0  0  0  0  0
    0.5542    0.5735   -2.9071 H   0  0  0  0  0  0  0  0  0  0  0  0
   -1.2103    1.1307   -3.9741 C   0  0  0  0  0  0  0  0  0  0  0  0
   -0.9375    0.9555   -5.0128 H   0  0  0  0  0  0  0  0  0  0  0  0
   -2.4148    1.5501   -3.5251 N   0  0  0  0  0  0  0  0  0  0  0  0
   -3.2245    1.7657   -4.1009 H   0  0  0  0  0  0  0  0  0  0  0  0
   -2.3658    1.6337   -2.1405 C   0  0  0  0  0  0  0  0  0  0  0  0
   -3.1674    1.9387   -1.4736 H   0  0  0  0  0  0  0  0  0  0  0  0
    0.3503   -0.3304    1.5532 C   0  0  0  0  0  0  0  0  0  0  0  0
    0.2710    0.5806    2.3787 O   0  0  0  0  0  0  0  0  0  0  0  0
    1.0965   -1.4251    1.7456 N   0  0  0  0  0  0  0  0  0  0  0  0
    1.0922   -2.1246    1.0189 H   0  0  0  0  0  0  0  0  0  0  0  0
    1.9232   -1.6883    2.9274 C   0  0  0  0  0  0  0  0  0  0  0  0
    1.4107   -2.3826    3.5963 H   0  0  0  0  0  0  0  0  0  0  0  0
    2.8731   -2.1332    2.6260 H   0  0  0  0  0  0  0  0  0  0  0  0
    2.1297   -0.7644    3.4718 H   0  0  0  0  0  0  0  0  0  0  0  0
  5  6  2  0  0  0  0
  5  7  1  0  0  0  0
  2  3  1  0  0  0  0
  2  4  1  0  0  0  0
  2  5  1  0  0  0  0
  1  2  1  0  0  0  0
 23 24  2  0  0  0  0
 23 25  1  0  0  0  0
 21 22  1  0  0  0  0
 19 20  1  0  0  0  0
 19 21  1  0  0  0  0
 17 18  1  0  0  0  0
 17 19  1  0  0  0  0
 15 16  1  0  0  0  0
 15 17  2  0  0  0  0
 14 15  1  0  0  0  0
 14 21  2  0  0  0  0
 11 12  1  0  0  0  0
 11 13  1  0  0  0  0
 11 14  1  0  0  0  0
  9 10  1  0  0  0  0
  9 11  1  0  0  0  0
  9 23  1  0  0  0  0
  7  8  1  0  0  0  0
  7  9  1  0  0  0  0
 27 28  1  0  0  0  0
 27 29  1  0  0  0  0
 27 30  1  0  0  0  0
 25 26  1  0  0  0  0
 25 27  1  0  0  0  0
M  CHG  1  15   1
M  END
$$$$
default_name
  -OEChem-01062215323D

 30 30  0     1  0  0  0  0  0999 V2000
   -3.5507   -3.2183    1.8116 H   0  0  0  0  0  0  0  0  0  0  0  0
   -3.4597   -2.3913    1.1076 C   0  0  0  0  0  0  0  0  0  0  0  0
   -4.1577   -1.6043    1.3866 H   0  0  0  0  0  0  0  0  0  0  0  0
   -3.6807   -2.7523    0.1036 H   0  0  0  0  0  0  0  0  0  0  0  0
   -2.0477   -1.8543    1.1546 C   0  0  0  0  0  0  0  0  0  0  0  0
   -1.2227   -2.3443    1.9146 O   0  0  0  0  0  0  0  0  0  0  0  0
   -1.7517   -0.8483    0.3266 N   0  0  0  0  0  0  0  0  0  0  0  0
   -2.4847   -0.5123   -0.2804 H   0  0  0  0  0  0  0  0  0  0  0  0
   -0.4117   -0.2463    0.2186 C   0  0  1  0  0  0  0  0  0  0  0  0
    0.1654   -0.8279   -0.5045 H   0  0  0  0  0  0  0  0  0  0  0  0
   -0.5579    1.1817   -0.3564 C   0  0  0  0  0  0  0  0  0  0  0  0
   -1.2120    1.7575    0.3033 H   0  0  0  0  0  0  0  0  0  0  0  0
    0.4188    1.6704   -0.3456 H   0  0  0  0  0  0  0  0  0  0  0  0
   -1.1049    1.2549   -1.7663 C   0  0  0  0  0  0  0  0  0  0  0  0
   -0.3994    0.9466   -2.9134 N   0  3  0  0  0  0  0  0  0  0  0  0
    0.5542    0.5735   -2.9071 H   0  0  0  0  0  0  0  0  0  0  0  0
   -1.2103    1.1307   -3.9741 C   0  0  0  0  0  0  0  0  0  0  0  0
   -0.9375    0.9555   -5.0128 H   0  0  0  0  0  0  0  0  0  0  0  0
   -2.4148    1.5501   -3.5251 N   0  0  0  0  0  0  0  0  0  0  0  0
   -3.2245    1.7657   -4.1009 H   0  0  0  0  0  0  0  0  0  0  0  0
   -2.3658    1.6337   -2.1405 C   0  0  0  0  0  0  0  0  0  0  0  0
   -3.1674    1.9387   -1.4736 H   0  0  0  0  0  0  0  0  0  0  0  0
    0.3503   -0.3304    1.5532 C   0  0  0  0  0  0  0  0  0  0  0  0
    0.0681    0.4248    2.4847 O   0  0  0  0  0  0  0  0  0  0  0  0
    1.3241   -1.2461    1.6270 N   0  0  0  0  0  0  0  0  0  0  0  0
    1.4772   -1.8285    0.8178 H   0  0  0  0  0  0  0  0  0  0  0  0
    2.1894   -1.4690    2.7893 C   0  0  0  0  0  0  0  0  0  0  0  0
    1.8469   -2.3410    3.3499 H   0  0  0  0  0  0  0  0  0  0  0  0
    3.2149   -1.6474    2.4614 H   0  0  0  0  0  0  0  0  0  0  0  0
    2.1826   -0.6009    3.4519 H   0  0  0  0  0  0  0  0  0  0  0  0
  5  6  2  0  0  0  0
  5  7  1  0  0  0  0
  2  3  1  0  0  0  0
  2  4  1  0  0  0  0
  2  5  1  0  0  0  0
  1  2  1  0  0  0  0
 23 24  2  0  0  0  0
 23 25  1  0  0  0  0
 21 22  1  0  0  0  0
 19 20  1  0  0  0  0
 19 21  1  0  0  0  0
 17 18  1  0  0  0  0
 17 19  1  0  0  0  0
 15 16  1  0  0  0  0
 15 17  2  0  0  0  0
 14 15  1  0  0  0  0
 14 21  2  0  0  0  0
 11 12  1  0  0  0  0
 11 13  1  0  0  0  0
 11 14  1  0  0  0  0
  9 10  1  0  0  0  0
  9 11  1  0  0  0  0
  9 23  1  0  0  0  0
  7  8  1  0  0  0  0
  7  9  1  0  0  0  0
 27 28  1  0  0  0  0
 27 29  1  0  0  0  0
 27 30  1  0  0  0  0
 25 26  1  0  0  0  0
 25 27  1  0  0  0  0
M  CHG  1  15   1
M  END
$$$$
default_name
  -OEChem-01062215323D

 30 30  0     1  0  0  0  0  0999 V2000
   -3.5507   -3.2183    1.8116 H   0  0  0  0  0  0  0  0  0  0  0  0
   -3.4597   -2.3913    1.1076 C   0  0  0  0  0  0  0  0  0  0  0  0
   -4.1577   -1.6043    1.3866 H   0  0  0  0  0  0  0  0  0  0  0  0
   -3.6807   -2.7523    0.1036 H   0  0  0  0  0  0  0  0  0  0  0  0
   -2.0477   -1.8543    1.1546 C   0  0  0  0  0  0  0  0  0  0  0  0
   -1.2227   -2.3443    1.9146 O   0  0  0  0  0  0  0  0  0  0  0  0
   -1.7517   -0.8483    0.3266 N   0  0  0  0  0  0  0  0  0  0  0  0
   -2.4847   -0.5123   -0.2804 H   0  0  0  0  0  0  0  0  0  0  0  0
   -0.4117   -0.2463    0.2186 C   0  0  1  0  0  0  0  0  0  0  0  0
    0.1654   -0.8279   -0.5045 H   0  0  0  0  0  0  0  0  0  0  0  0
   -0.5579    1.1817   -0.3564 C   0  0  0  0  0  0  0  0  0  0  0  0
   -1.2120    1.7575    0.3033 H   0  0  0  0  0  0  0  0  0  0  0  0
    0.4188    1.6704   -0.3456 H   0  0  0  0  0  0  0  0  0  0  0  0
   -1.1049    1.2549   -1.7663 C   0  0  0  0  0  0  0  0  0  0  0  0
   -0.3994    0.9466   -2.9134 N   0  3  0  0  0  0  0  0  0  0  0  0
    0.5542    0.5735   -2.9071 H   0  0  0  0  0  0  0  0  0  0  0  0
   -1.2103    1.1307   -3.9741 C   0  0  0  0  0  0  0  0  0  0  0  0
   -0.9375    0.9555   -5.0128 H   0  0  0  0  0  0  0  0  0  0  0  0
   -2.4148    1.5501   -3.5251 N   0  0  0  0  0  0  0  0  0  0  0  0
   -3.2245    1.7657   -4.1009 H   0  0  0  0  0  0  0  0  0  0  0  0
   -2.3658    1.6337   -2.1405 C   0  0  0  0  0  0  0  0  0  0  0  0
   -3.1674    1.9387   -1.4736 H   0  0  0  0  0  0  0  0  0  0  0  0
    0.3503   -0.3304    1.5532 C   0  0  0  0  0  0  0  0  0  0  0  0
   -0.0944    0.2152    2.5642 O   0  0  0  0  0  0  0  0  0  0  0  0
    1.5054   -1.0070    1.5385 N   0  0  0  0  0  0  0  0  0  0  0  0
    1.7854   -1.4304    0.6669 H   0  0  0  0  0  0  0  0  0  0  0  0
    2.3992   -1.1797    2.6877 C   0  0  0  0  0  0  0  0  0  0  0  0
    2.2623   -2.1714    3.1234 H   0  0  0  0  0  0  0  0  0  0  0  0
    3.4385   -1.0802    2.3695 H   0  0  0  0  0  0  0  0  0  0  0  0
    2.1973   -0.4286    3.4543 H   0  0  0  0  0  0  0  0  0  0  0  0
  5  6  2  0  0  0  0
  5  7  1  0  0  0  0
  2  3  1  0  0  0  0
  2  4  1  0  0  0  0
  2  5  1  0  0  0  0
  1  2  1  0  0  0  0
 23 24  2  0  0  0  0
 23 25  1  0  0  0  0
 21 22  1  0  0  0  0
 19 20  1  0  0  0  0
 19 21  1  0  0  0  0
 17 18  1  0  0  0  0
 17 19  1  0  0  0  0
 15 16  1  0  0  0  0
 15 17  2  0  0  0  0
 14 15  1  0  0  0  0
 14 21  2  0  0  0  0
 11 12  1  0  0  0  0
 11 13  1  0  0  0  0
 11 14  1  0  0  0  0
  9 10  1  0  0  0  0
  9 11  1  0  0  0  0
  9 23  1  0  0  0  0
  7  8  1  0  0  0  0
  7  9  1  0  0  0  0
 27 28  1  0  0  0  0
 27 29  1  0  0  0  0
 27 30  1  0  0  0  0
 25 26  1  0  0  0  0
 25 27  1  0  0  0  0
M  CHG  1  15   1
M  END
$$$$
default_name
  -OEChem-01062215323D

 30 30  0     1  0  0  0  0  0999 V2000
   -3.5507   -3.2183    1.8116 H   0  0  0  0  0  0  0  0  0  0  0  0
   -3.4597   -2.3913    1.1076 C   0  0  0  0  0  0  0  0  0  0  0  0
   -4.1577   -1.6043    1.3866 H   0  0  0  0  0  0  0  0  0  0  0  0
   -3.6807   -2.7523    0.1036 H   0  0  0  0  0  0  0  0  0  0  0  0
   -2.0477   -1.8543    1.1546 C   0  0  0  0  0  0  0  0  0  0  0  0
   -1.2227   -2.3443    1.9146 O   0  0  0  0  0  0  0  0  0  0  0  0
   -1.7517   -0.8483    0.3266 N   0  0  0  0  0  0  0  0  0  0  0  0
   -2.4847   -0.5123   -0.2804 H   0  0  0  0  0  0  0  0  0  0  0  0
   -0.4117   -0.2463    0.2186 C   0  0  1  0  0  0  0  0  0  0  0  0
    0.1654   -0.8279   -0.5045 H   0  0  0  0  0  0  0  0  0  0  0  0
   -0.5579    1.1817   -0.3564 C   0  0  0  0  0  0  0  0  0  0  0  0
   -1.2120    1.7575    0.3033 H   0  0  0  0  0  0  0  0  0  0  0  0
    0.4188    1.6704   -0.3456 H   0  0  0  0  0  0  0  0  0  0  0  0
   -1.1049    1.2549   -1.7663 C   0  0  0  0  0  0  0  0  0  0  0  0
   -0.3994    0.9466   -2.9134 N   0  3  0  0  0  0  0  0  0  0  0  0
    0.5542    0.5735   -2.9071 H   0  0  0  0  0  0  0  0  0  0  0  0
   -1.2103    1.1307   -3.9741 C   0  0  0  0  0  0  0  0  0  0  0  0
   -0.9375    0.9555   -5.0128 H   0  0  0  0  0  0  0  0  0  0  0  0
   -2.4148    1.5501   -3.5251 N   0  0  0  0  0  0  0  0  0  0  0  0
   -3.2245    1.7657   -4.1009 H   0  0  0  0  0  0  0  0  0  0  0  0
   -2.3658    1.6337   -2.1405 C   0  0  0  0  0  0  0  0  0  0  0  0
   -3.1674    1.9387   -1.4736 H   0  0  0  0  0  0  0  0  0  0  0  0
    0.3503   -0.3304    1.5532 C   0  0  0  0  0  0  0  0  0  0  0  0
   -0.2054   -0.0339    2.6119 O   0  0  0  0  0  0  0  0  0  0  0  0
    1.6281   -0.7239    1.4863 N   0  0  0  0  0  0  0  0  0  0  0  0
    1.9960   -0.9573    0.5765 H   0  0  0  0  0  0  0  0  0  0  0  0
    2.5384   -0.8401    2.6296 C   0  0  0  0  0  0  0  0  0  0  0  0
    2.6287   -1.8853    2.9323 H   0  0  0  0  0  0  0  0  0  0  0  0
    3.5284   -0.4705    2.3567 H   0  0  0  0  0  0  0  0  0  0  0  0
    2.1728   -0.2592    3.4790 H   0  0  0  0  0  0  0  0  0  0  0  0
  5  6  2  0  0  0  0
  5  7  1  0  0  0  0
  2  3  1  0  0  0  0
  2  4  1  0  0  0  0
  2  5  1  0  0  0  0
  1  2  1  0  0  0  0
 23 24  2  0  0  0  0
 23 25  1  0  0  0  0
 21 22  1  0  0  0  0
 19 20  1  0  0  0  0
 19 21  1  0  0  0  0
 17 18  1  0  0  0  0
 17 19  1  0  0  0  0
 15 16  1  0  0  0  0
 15 17  2  0  0  0  0
 14 15  1  0  0  0  0
 14 21  2  0  0  0  0
 11 12  1  0  0  0  0
 11 13  1  0  0  0  0
 11 14  1  0  0  0  0
  9 10  1  0  0  0  0
  9 11  1  0  0  0  0
  9 23  1  0  0  0  0
  7  8  1  0  0  0  0
  7  9  1  0  0  0  0
 27 28  1  0  0  0  0
 27 29  1  0  0  0  0
 27 30  1  0  0  0  0
 25 26  1  0  0  0  0
 25 27  1  0  0  0  0
M  CHG  1  15   1
M  END
$$$$
default_name
  -OEChem-01062215323D

 30 30  0     1  0  0  0  0  0999 V2000
   -3.5507   -3.2183    1.8116 H   0  0  0  0  0  0  0  0  0  0  0  0
   -3.4597   -2.3913    1.1076 C   0  0  0  0  0  0  0  0  0  0  0  0
   -4.1577   -1.6043    1.3866 H   0  0  0  0  0  0  0  0  0  0  0  0
   -3.6807   -2.7523    0.1036 H   0  0  0  0  0  0  0  0  0  0  0  0
   -2.0477   -1.8543    1.1546 C   0  0  0  0  0  0  0  0  0  0  0  0
   -1.2227   -2.3443    1.9146 O   0  0  0  0  0  0  0  0  0  0  0  0
   -1.7517   -0.8483    0.3266 N   0  0  0  0  0  0  0  0  0  0  0  0
   -2.4847   -0.5123   -0.2804 H   0  0  0  0  0  0  0  0  0  0  0  0
   -0.4117   -0.2463    0.2186 C   0  0  1  0  0  0  0  0  0  0  0  0
    0.1654   -0.8279   -0.5045 H   0  0  0  0  0  0  0  0  0  0  0  0
   -0.5579    1.1817   -0.3564 C   0  0  0  0  0  0  0  0  0  0  0  0
   -1.2120    1.7575    0.3033 H   0  0  0  0  0  0  0  0  0  0  0  0
    0.4188    1.6704   -0.3456 H   0  0  0  0  0  0  0  0  0  0  0  0
   -1.1049    1.2549   -1.7663 C   0  0  0  0  0  0  0  0  0  0  0  0
   -0.3994    0.9466   -2.9134 N   0  3  0  0  0  0  0  0  0  0  0  0
    0.5542    0.5735   -2.9071 H   0  0  0  0  0  0  0  0  0  0  0  0
   -1.2103    1.1307   -3.9741 C   0  0  0  0  0  0  0  0  0  0  0  0
   -0.9375    0.9555   -5.0128 H   0  0  0  0  0  0  0  0  0  0  0  0
   -2.4148    1.5501   -3.5251 N   0  0  0  0  0  0  0  0  0  0  0  0
   -3.2245    1.7657   -4.1009 H   0  0  0  0  0  0  0  0  0  0  0  0
   -2.3658    1.6337   -2.1405 C   0  0  0  0  0  0  0  0  0  0  0  0
   -3.1674    1.9387   -1.4736 H   0  0  0  0  0  0  0  0  0  0  0  0
    0.3503   -0.3304    1.5532 C   0  0  0  0  0  0  0  0  0  0  0  0
   -0.2574   -0.3056    2.6245 O   0  0  0  0  0  0  0  0  0  0  0  0
    1.6839   -0.4163    1.4738 N   0  0  0  0  0  0  0  0  0  0  0  0
    2.0944   -0.4414    0.5528 H   0  0  0  0  0  0  0  0  0  0  0  0
    2.5975   -0.4734    2.6190 C   0  0  0  0  0  0  0  0  0  0  0  0
    2.9212   -1.5022    2.7895 H   0  0  0  0  0  0  0  0  0  0  0  0
    3.4786    0.1403    2.4236 H   0  0  0  0  0  0  0  0  0  0  0  0
    2.1108   -0.1041    3.5242 H   0  0  0  0  0  0  0  0  0  0  0  0
  5  6  2  0  0  0  0
  5  7  1  0  0  0  0
  2  3  1  0  0  0  0
  2  4  1  0  0  0  0
  2  5  1  0  0  0  0
  1  2  1  0  0  0  0
 23 24  2  0  0  0  0
 23 25  1  0  0  0  0
 21 22  1  0  0  0  0
 19 20  1  0  0  0  0
 19 21  1  0  0  0  0
 17 18  1  0  0  0  0
 17 19  1  0  0  0  0
 15 16  1  0  0  0  0
 15 17  2  0  0  0  0
 14 15  1  0  0  0  0
 14 21  2  0  0  0  0
 11 12  1  0  0  0  0
 11 13  1  0  0  0  0
 11 14  1  0  0  0  0
  9 10  1  0  0  0  0
  9 11  1  0  0  0  0
  9 23  1  0  0  0  0
  7  8  1  0  0  0  0
  7  9  1  0  0  0  0
 27 28  1  0  0  0  0
 27 29  1  0  0  0  0
 27 30  1  0  0  0  0
 25 26  1  0  0  0  0
 25 27  1  0  0  0  0
M  CHG  1  15   1
M  END
$$$$
default_name
  -OEChem-01062215323D

 30 30  0     1  0  0  0  0  0999 V2000
   -3.5507   -3.2183    1.8116 H   0  0  0  0  0  0  0  0  0  0  0  0
   -3.4597   -2.3913    1.1076 C   0  0  0  0  0  0  0  0  0  0  0  0
   -4.1577   -1.6043    1.3866 H   0  0  0  0  0  0  0  0  0  0  0  0
   -3.6807   -2.7523    0.1036 H   0  0  0  0  0  0  0  0  0  0  0  0
   -2.0477   -1.8543    1.1546 C   0  0  0  0  0  0  0  0  0  0  0  0
   -1.2227   -2.3443    1.9146 O   0  0  0  0  0  0  0  0  0  0  0  0
   -1.7517   -0.8483    0.3266 N   0  0  0  0  0  0  0  0  0  0  0  0
   -2.4847   -0.5123   -0.2804 H   0  0  0  0  0  0  0  0  0  0  0  0
   -0.4117   -0.2463    0.2186 C   0  0  1  0  0  0  0  0  0  0  0  0
    0.1654   -0.8279   -0.5045 H   0  0  0  0  0  0  0  0  0  0  0  0
   -0.5579    1.1817   -0.3564 C   0  0  0  0  0  0  0  0  0  0  0  0
   -1.2120    1.7575    0.3033 H   0  0  0  0  0  0  0  0  0  0  0  0
    0.4188    1.6704   -0.3456 H   0  0  0  0  0  0  0  0  0  0  0  0
   -1.1049    1.2549   -1.7663 C   0  0  0  0  0  0  0  0  0  0  0  0
   -0.3994    0.9466   -2.9134 N   0  3  0  0  0  0  0  0  0  0  0  0
    0.5542    0.5735   -2.9071 H   0  0  0  0  0  0  0  0  0  0  0  0
   -1.2103    1.1307   -3.9741 C   0  0  0  0  0  0  0  0  0  0  0  0
   -0.9375    0.9555   -5.0128 H   0  0  0  0  0  0  0  0  0  0  0  0
   -2.4148    1.5501   -3.5251 N   0  0  0  0  0  0  0  0  0  0  0  0
   -3.2245    1.7657   -4.1009 H   0  0  0  0  0  0  0  0  0  0  0  0
   -2.3658    1.6337   -2.1405 C   0  0  0  0  0  0  0  0  0  0  0  0
   -3.1674    1.9387   -1.4736 H   0  0  0  0  0  0  0  0  0  0  0  0
    0.3503   -0.3304    1.5532 C   0  0  0  0  0  0  0  0  0  0  0  0
   -0.2469   -0.5813    2.6011 O   0  0  0  0  0  0  0  0  0  0  0  0
    1.6689   -0.1050    1.5020 N   0  0  0  0  0  0  0  0  0  0  0  0
    2.0741    0.0819    0.5974 H   0  0  0  0  0  0  0  0  0  0  0  0
    2.5724   -0.1046    2.6566 C   0  0  0  0  0  0  0  0  0  0  0  0
    3.1197   -1.0482    2.7047 H   0  0  0  0  0  0  0  0  0  0  0  0
    3.2924    0.7105    2.5659 H   0  0  0  0  0  0  0  0  0  0  0  0
    2.0155    0.0259    3.5868 H   0  0  0  0  0  0  0  0  0  0  0  0
  5  6  2  0  0  0  0
  5  7  1  0  0  0  0
  2  3  1  0  0  0  0
  2  4  1  0  0  0  0
  2  5  1  0  0  0  0
  1  2  1  0  0  0  0
 23 24  2  0  0  0  0
 23 25  1  0  0  0  0
 21 22  1  0  0  0  0
 19 20  1  0  0  0  0
 19 21  1  0  0  0  0
 17 18  1  0  0  0  0
 17 19  1  0  0  0  0
 15 16  1  0  0  0  0
 15 17  2  0  0  0  0
 14 15  1  0  0  0  0
 14 21  2  0  0  0  0
 11 12  1  0  0  0  0
 11 13  1  0  0  0  0
 11 14  1  0  0  0  0
  9 10  1  0  0  0  0
  9 11  1  0  0  0  0
  9 23  1  0  0  0  0
  7  8  1  0  0  0  0
  7  9  1  0  0  0  0
 27 28  1  0  0  0  0
 27 29  1  0  0  0  0
 27 30  1  0  0  0  0
 25 26  1  0  0  0  0
 25 27  1  0  0  0  0
M  CHG  1  15   1
M  END
$$$$
default_name
  -OEChem-01062215323D

 30 30  0     1  0  0  0  0  0999 V2000
   -3.5507   -3.2183    1.8116 H   0  0  0  0  0  0  0  0  0  0  0  0
   -3.4597   -2.3913    1.1076 C   0  0  0  0  0  0  0  0  0  0  0  0
   -4.1577   -1.6043    1.3866 H   0  0  0  0  0  0  0  0  0  0  0  0
   -3.6807   -2.7523    0.1036 H   0  0  0  0  0  0  0  0  0  0  0  0
   -2.0477   -1.8543    1.1546 C   0  0  0  0  0  0  0  0  0  0  0  0
   -1.2227   -2.3443    1.9146 O   0  0  0  0  0  0  0  0  0  0  0  0
   -1.7517   -0.8483    0.3266 N   0  0  0  0  0  0  0  0  0  0  0  0
   -2.4847   -0.5123   -0.2804 H   0  0  0  0  0  0  0  0  0  0  0  0
   -0.4117   -0.2463    0.2186 C   0  0  1  0  0  0  0  0  0  0  0  0
    0.0688   -0.6440   -0.6787 H   0  0  0  0  0  0  0  0  0  0  0  0
   -0.5713    1.2781    0.0136 C   0  0  0  0  0  0  0  0  0  0  0  0
   -1.1351    1.6857    0.8566 H   0  0  0  0  0  0  0  0  0  0  0  0
    0.4161    1.7442    0.0331 H   0  0  0  0  0  0  0  0  0  0  0  0
   -1.2587    1.6860   -1.2722 C   0  0  0  0  0  0  0  0  0  0  0  0
   -0.6859    1.6533   -2.5289 N   0  3  0  0  0  0  0  0  0  0  0  0
    0.2510    1.2833   -2.7134 H   0  0  0  0  0  0  0  0  0  0  0  0
   -1.5960    2.0881   -3.4230 C   0  0  0  0  0  0  0  0  0  0  0  0
   -1.4378    2.1618   -4.4970 H   0  0  0  0  0  0  0  0  0  0  0  0
   -2.7337    2.3971   -2.7607 N   0  0  0  0  0  0  0  0  0  0  0  0
   -3.5914    2.7478   -3.1789 H   0  0  0  0  0  0  0  0  0  0  0  0
   -2.5390    2.1505   -1.4087 C   0  0  0  0  0  0  0  0  0  0  0  0
   -3.2573    2.2942   -0.6062 H   0  0  0  0  0  0  0  0  0  0  0  0
    0.4813   -0.6484    1.4059 C   0  0  0  0  0  0  0  0  0  0  0  0
    0.0458   -1.3765    2.2992 O   0  0  0  0  0  0  0  0  0  0  0  0
    1.7260   -0.1556    1.4095 N   0  0  0  0  0  0  0  0  0  0  0  0
    1.9992    0.4235    0.6301 H   0  0  0  0  0  0  0  0  0  0  0  0
    2.7244   -0.3870    2.4578 C   0  0  0  0  0  0  0  0  0  0  0  0
    3.4349   -1.1514    2.1367 H   0  0  0  0  0  0  0  0  0  0  0  0
    3.2730    0.5346    2.6597 H   0  0  0  0  0  0  0  0  0  0  0  0
    2.2479   -0.7174    3.3832 H   0  0  0  0  0  0  0  0  0  0  0  0
  5  6  2  0  0  0  0
  5  7  1  0  0  0  0
  2  3  1  0  0  0  0
  2  4  1  0  0  0  0
  2  5  1  0  0  0  0
  1  2  1  0  0  0  0
 23 24  2  0  0  0  0
 23 25  1  0  0  0  0
 21 22  1  0  0  0  0
 19 20  1  0  0  0  0
 19 21  1  0  0  0  0
 17 18  1  0  0  0  0
 17 19  1  0  0  0  0
 15 16  1  0  0  0  0
 15 17  2  0  0  0  0
 14 15  1  0  0  0  0
 14 21  2  0  0  0  0
 11 12  1  0  0  0  0
 11 13  1  0  0  0  0
 11 14  1  0  0  0  0
  9 10  1  0  0  0  0
  9 11  1  0  0  0  0
  9 23  1  0  0  0  0
  7  8  1  0  0  0  0
  7  9  1  0  0  0  0
 27 28  1  0  0  0  0
 27 29  1  0  0  0  0
 27 30  1  0  0  0  0
 25 26  1  0  0  0  0
 25 27  1  0  0  0  0
M  CHG  1  15   1
M  END
$$$$
default_name
  -OEChem-01062215323D

 30 30  0     1  0  0  0  0  0999 V2000
   -3.5507   -3.2183    1.8116 H   0  0  0  0  0  0  0  0  0  0  0  0
   -3.4597   -2.3913    1.1076 C   0  0  0  0  0  0  0  0  0  0  0  0
   -4.1577   -1.6043    1.3866 H   0  0  0  0  0  0  0  0  0  0  0  0
   -3.6807   -2.7523    0.1036 H   0  0  0  0  0  0  0  0  0  0  0  0
   -2.0477   -1.8543    1.1546 C   0  0  0  0  0  0  0  0  0  0  0  0
   -1.2227   -2.3443    1.9146 O   0  0  0  0  0  0  0  0  0  0  0  0
   -1.7517   -0.8483    0.3266 N   0  0  0  0  0  0  0  0  0  0  0  0
   -2.4847   -0.5123   -0.2804 H   0  0  0  0  0  0  0  0  0  0  0  0
   -0.4117   -0.2463    0.2186 C   0  0  1  0  0  0  0  0  0  0  0  0
    0.0688   -0.6440   -0.6787 H   0  0  0  0  0  0  0  0  0  0  0  0
   -0.5713    1.2781    0.0136 C   0  0  0  0  0  0  0  0  0  0  0  0
   -1.1351    1.6857    0.8566 H   0  0  0  0  0  0  0  0  0  0  0  0
    0.4161    1.7442    0.0331 H   0  0  0  0  0  0  0  0  0  0  0  0
   -1.2587    1.6860   -1.2722 C   0  0  0  0  0  0  0  0  0  0  0  0
   -0.6859    1.6533   -2.5289 N   0  3  0  0  0  0  0  0  0  0  0  0
    0.2510    1.2833   -2.7134 H   0  0  0  0  0  0  0  0  0  0  0  0
   -1.5960    2.0881   -3.4230 C   0  0  0  0  0  0  0  0  0  0  0  0
   -1.4378    2.1618   -4.4970 H   0  0  0  0  0  0  0  0  0  0  0  0
   -2.7337    2.3971   -2.7607 N   0  0  0  0  0  0  0  0  0  0  0  0
   -3.5914    2.7478   -3.1789 H   0  0  0  0  0  0  0  0  0  0  0  0
   -2.5390    2.1505   -1.4087 C   0  0  0  0  0  0  0  0  0  0  0  0
   -3.2573    2.2942   -0.6062 H   0  0  0  0  0  0  0  0  0  0  0  0
    0.4813   -0.6484    1.4059 C   0  0  0  0  0  0  0  0  0  0  0  0
    0.1580   -1.5784    2.1464 O   0  0  0  0  0  0  0  0  0  0  0  0
    1.5967    0.0703    1.5832 N   0  0  0  0  0  0  0  0  0  0  0  0
    1.7860    0.8065    0.9202 H   0  0  0  0  0  0  0  0  0  0  0  0
    2.5650   -0.1243    2.6667 C   0  0  0  0  0  0  0  0  0  0  0  0
    3.4328   -0.6758    2.2994 H   0  0  0  0  0  0  0  0  0  0  0  0
    2.9019    0.8431    3.0433 H   0  0  0  0  0  0  0  0  0  0  0  0
    2.1185   -0.6821    3.4925 H   0  0  0  0  0  0  0  0  0  0  0  0
  5  6  2  0  0  0  0
  5  7  1  0  0  0  0
  2  3  1  0  0  0  0
  2  4  1  0  0  0  0
  2  5  1  0  0  0  0
  1  2  1  0  0  0  0
 23 24  2  0  0  0  0
 23 25  1  0  0  0  0
 21 22  1  0  0  0  0
 19 20  1  0  0  0  0
 19 21  1  0  0  0  0
 17 18  1  0  0  0  0
 17 19  1  0  0  0  0
 15 16  1  0  0  0  0
 15 17  2  0  0  0  0
 14 15  1  0  0  0  0
 14 21  2  0  0  0  0
 11 12  1  0  0  0  0
 11 13  1  0  0  0  0
 11 14  1  0  0  0  0
  9 10  1  0  0  0  0
  9 11  1  0  0  0  0
  9 23  1  0  0  0  0
  7  8  1  0  0  0  0
  7  9  1  0  0  0  0
 27 28  1  0  0  0  0
 27 29  1  0  0  0  0
 27 30  1  0  0  0  0
 25 26  1  0  0  0  0
 25 27  1  0  0  0  0
M  CHG  1  15   1
M  END
$$$$
default_name
  -OEChem-01062215323D

 30 30  0     1  0  0  0  0  0999 V2000
   -3.5507   -3.2183    1.8116 H   0  0  0  0  0  0  0  0  0  0  0  0
   -3.4597   -2.3913    1.1076 C   0  0  0  0  0  0  0  0  0  0  0  0
   -4.1577   -1.6043    1.3866 H   0  0  0  0  0  0  0  0  0  0  0  0
   -3.6807   -2.7523    0.1036 H   0  0  0  0  0  0  0  0  0  0  0  0
   -2.0477   -1.8543    1.1546 C   0  0  0  0  0  0  0  0  0  0  0  0
   -1.2227   -2.3443    1.9146 O   0  0  0  0  0  0  0  0  0  0  0  0
   -1.7517   -0.8483    0.3266 N   0  0  0  0  0  0  0  0  0  0  0  0
   -2.4847   -0.5123   -0.2804 H   0  0  0  0  0  0  0  0  0  0  0  0
   -0.4117   -0.2463    0.2186 C   0  0  1  0  0  0  0  0  0  0  0  0
    0.0688   -0.6440   -0.6787 H   0  0  0  0  0  0  0  0  0  0  0  0
   -0.5713    1.2781    0.0136 C   0  0  0  0  0  0  0  0  0  0  0  0
   -1.1351    1.6857    0.8566 H   0  0  0  0  0  0  0  0  0  0  0  0
    0.4161    1.7442    0.0331 H   0  0  0  0  0  0  0  0  0  0  0  0
   -1.2587    1.6860   -1.2722 C   0  0  0  0  0  0  0  0  0  0  0  0
   -0.6859    1.6533   -2.5289 N   0  3  0  0  0  0  0  0  0  0  0  0
    0.2510    1.2833   -2.7134 H   0  0  0  0  0  0  0  0  0  0  0  0
   -1.5960    2.0881   -3.4230 C   0  0  0  0  0  0  0  0  0  0  0  0
   -1.4378    2.1618   -4.4970 H   0  0  0  0  0  0  0  0  0  0  0  0
   -2.7337    2.3971   -2.7607 N   0  0  0  0  0  0  0  0  0  0  0  0
   -3.5914    2.7478   -3.1789 H   0  0  0  0  0  0  0  0  0  0  0  0
   -2.5390    2.1505   -1.4087 C   0  0  0  0  0  0  0  0  0  0  0  0
   -3.2573    2.2942   -0.6062 H   0  0  0  0  0  0  0  0  0  0  0  0
    0.4813   -0.6484    1.4059 C   0  0  0  0  0  0  0  0  0  0  0  0
    0.3170   -1.7281    1.9761 O   0  0  0  0  0  0  0  0  0  0  0  0
    1.4150    0.2365    1.7762 N   0  0  0  0  0  0  0  0  0  0  0  0
    1.4839    1.0903    1.2435 H   0  0  0  0  0  0  0  0  0  0  0  0
    2.3445    0.0664    2.8971 C   0  0  0  0  0  0  0  0  0  0  0  0
    3.3249   -0.2412    2.5278 H   0  0  0  0  0  0  0  0  0  0  0  0
    2.4559    1.0094    3.4351 H   0  0  0  0  0  0  0  0  0  0  0  0
    1.9791   -0.6903    3.5945 H   0  0  0  0  0  0  0  0  0  0  0  0
  5  6  2  0  0  0  0
  5  7  1  0  0  0  0
  2  3  1  0  0  0  0
  2  4  1  0  0  0  0
  2  5  1  0  0  0  0
  1  2  1  0  0  0  0
 23 24  2  0  0  0  0
 23 25  1  0  0  0  0
 21 22  1  0  0  0  0
 19 20  1  0  0  0  0
 19 21  1  0  0  0  0
 17 18  1  0  0  0  0
 17 19  1  0  0  0  0
 15 16  1  0  0  0  0
 15 17  2  0  0  0  0
 14 15  1  0  0  0  0
 14 21  2  0  0  0  0
 11 12  1  0  0  0  0
 11 13  1  0  0  0  0
 11 14  1  0  0  0  0
  9 10  1  0  0  0  0
  9 11  1  0  0  0  0
  9 23  1  0  0  0  0
  7  8  1  0  0  0  0
  7  9  1  0  0  0  0
 27 28  1  0  0  0  0
 27 29  1  0  0  0  0
 27 30  1  0  0  0  0
 25 26  1  0  0  0  0
 25 27  1  0  0  0  0
M  CHG  1  15   1
M  END
$$$$
default_name
  -OEChem-01062215323D

 30 30  0     1  0  0  0  0  0999 V2000
   -3.5507   -3.2183    1.8116 H   0  0  0  0  0  0  0  0  0  0  0  0
   -3.4597   -2.3913    1.1076 C   0  0  0  0  0  0  0  0  0  0  0  0
   -4.1577   -1.6043    1.3866 H   0  0  0  0  0  0  0  0  0  0  0  0
   -3.6807   -2.7523    0.1036 H   0  0  0  0  0  0  0  0  0  0  0  0
   -2.0477   -1.8543    1.1546 C   0  0  0  0  0  0  0  0  0  0  0  0
   -1.2227   -2.3443    1.9146 O   0  0  0  0  0  0  0  0  0  0  0  0
   -1.7517   -0.8483    0.3266 N   0  0  0  0  0  0  0  0  0  0  0  0
   -2.4847   -0.5123   -0.2804 H   0  0  0  0  0  0  0  0  0  0  0  0
   -0.4117   -0.2463    0.2186 C   0  0  1  0  0  0  0  0  0  0  0  0
    0.0688   -0.6440   -0.6787 H   0  0  0  0  0  0  0  0  0  0  0  0
   -0.5713    1.2781    0.0136 C   0  0  0  0  0  0  0  0  0  0  0  0
   -1.1351    1.6857    0.8566 H   0  0  0  0  0  0  0  0  0  0  0  0
    0.4161    1.7442    0.0331 H   0  0  0  0  0  0  0  0  0  0  0  0
   -1.2587    1.6860   -1.2722 C   0  0  0  0  0  0  0  0  0  0  0  0
   -0.6859    1.6533   -2.5289 N   0  3  0  0  0  0  0  0  0  0  0  0
    0.2510    1.2833   -2.7134 H   0  0  0  0  0  0  0  0  0  0  0  0
   -1.5960    2.0881   -3.4230 C   0  0  0  0  0  0  0  0  0  0  0  0
   -1.4378    2.1618   -4.4970 H   0  0  0  0  0  0  0  0  0  0  0  0
   -2.7337    2.3971   -2.7607 N   0  0  0  0  0  0  0  0  0  0  0  0
   -3.5914    2.7478   -3.1789 H   0  0  0  0  0  0  0  0  0  0  0  0
   -2.5390    2.1505   -1.4087 C   0  0  0  0  0  0  0  0  0  0  0  0
   -3.2573    2.2942   -0.6062 H   0  0  0  0  0  0  0  0  0  0  0  0
    0.4813   -0.6484    1.4059 C   0  0  0  0  0  0  0  0  0  0  0  0
    0.5120   -1.8153    1.7999 O   0  0  0  0  0  0  0  0  0  0  0  0
    1.1932    0.3319    1.9753 N   0  0  0  0  0  0  0  0  0  0  0  0
    1.1137    1.2556    1.5781 H   0  0  0  0  0  0  0  0  0  0  0  0
    2.0779    0.1719    3.1334 C   0  0  0  0  0  0  0  0  0  0  0  0
    3.1185    0.1228    2.8063 H   0  0  0  0  0  0  0  0  0  0  0  0
    1.9654    1.0221    3.8083 H   0  0  0  0  0  0  0  0  0  0  0  0
    1.8392   -0.7414    3.6825 H   0  0  0  0  0  0  0  0  0  0  0  0
  5  6  2  0  0  0  0
  5  7  1  0  0  0  0
  2  3  1  0  0  0  0
  2  4  1  0  0  0  0
  2  5  1  0  0  0  0
  1  2  1  0  0  0  0
 23 24  2  0  0  0  0
 23 25  1  0  0  0  0
 21 22  1  0  0  0  0
 19 20  1  0  0  0  0
 19 21  1  0  0  0  0
 17 18  1  0  0  0  0
 17 19  1  0  0  0  0
 15 16  1  0  0  0  0
 15 17  2  0  0  0  0
 14 15  1  0  0  0  0
 14 21  2  0  0  0  0
 11 12  1  0  0  0  0
 11 13  1  0  0  0  0
 11 14  1  0  0  0  0
  9 10  1  0  0  0  0
  9 11  1  0  0  0  0
  9 23  1  0  0  0  0
  7  8  1  0  0  0  0
  7  9  1  0  0  0  0
 27 28  1  0  0  0  0
 27 29  1  0  0  0  0
 27 30  1  0  0  0  0
 25 26  1  0  0  0  0
 25 27  1  0  0  0  0
M  CHG  1  15   1
M  END
$$$$
default_name
  -OEChem-01062215323D

 30 30  0     1  0  0  0  0  0999 V2000
   -3.5507   -3.2183    1.8116 H   0  0  0  0  0  0  0  0  0  0  0  0
   -3.4597   -2.3913    1.1076 C   0  0  0  0  0  0  0  0  0  0  0  0
   -4.1577   -1.6043    1.3866 H   0  0  0  0  0  0  0  0  0  0  0  0
   -3.6807   -2.7523    0.1036 H   0  0  0  0  0  0  0  0  0  0  0  0
   -2.0477   -1.8543    1.1546 C   0  0  0  0  0  0  0  0  0  0  0  0
   -1.2227   -2.3443    1.9146 O   0  0  0  0  0  0  0  0  0  0  0  0
   -1.7517   -0.8483    0.3266 N   0  0  0  0  0  0  0  0  0  0  0  0
   -2.4847   -0.5123   -0.2804 H   0  0  0  0  0  0  0  0  0  0  0  0
   -0.4117   -0.2463    0.2186 C   0  0  1  0  0  0  0  0  0  0  0  0
    0.0688   -0.6440   -0.6787 H   0  0  0  0  0  0  0  0  0  0  0  0
   -0.5713    1.2781    0.0136 C   0  0  0  0  0  0  0  0  0  0  0  0
   -1.1351    1.6857    0.8566 H   0  0  0  0  0  0  0  0  0  0  0  0
    0.4161    1.7442    0.0331 H   0  0  0  0  0  0  0  0  0  0  0  0
   -1.2587    1.6860   -1.2722 C   0  0  0  0  0  0  0  0  0  0  0  0
   -0.6859    1.6533   -2.5289 N   0  3  0  0  0  0  0  0  0  0  0  0
    0.2510    1.2833   -2.7134 H   0  0  0  0  0  0  0  0  0  0  0  0
   -1.5960    2.0881   -3.4230 C   0  0  0  0  0  0  0  0  0  0  0  0
   -1.4378    2.1618   -4.4970 H   0  0  0  0  0  0  0  0  0  0  0  0
   -2.7337    2.3971   -2.7607 N   0  0  0  0  0  0  0  0  0  0  0  0
   -3.5914    2.7478   -3.1789 H   0  0  0  0  0  0  0  0  0  0  0  0
   -2.5390    2.1505   -1.4087 C   0  0  0  0  0  0  0  0  0  0  0  0
   -3.2573    2.2942   -0.6062 H   0  0  0  0  0  0  0  0  0  0  0  0
    0.4813   -0.6484    1.4059 C   0  0  0  0  0  0  0  0  0  0  0  0
    0.7296   -1.8342    1.6298 O   0  0  0  0  0  0  0  0  0  0  0  0
    0.9465    0.3498    2.1669 N   0  0  0  0  0  0  0  0  0  0  0  0
    0.7004    1.2911    1.9009 H   0  0  0  0  0  0  0  0  0  0  0  0
    1.7833    0.1850    3.3594 C   0  0  0  0  0  0  0  0  0  0  0  0
    2.8275    0.3912    3.1161 H   0  0  0  0  0  0  0  0  0  0  0  0
    1.4639    0.8804    4.1376 H   0  0  0  0  0  0  0  0  0  0  0  0
    1.7083   -0.8319    3.7503 H   0  0  0  0  0  0  0  0  0  0  0  0
  5  6  2  0  0  0  0
  5  7  1  0  0  0  0
  2  3  1  0  0  0  0
  2  4  1  0  0  0  0
  2  5  1  0  0  0  0
  1  2  1  0  0  0  0
 23 24  2  0  0  0  0
 23 25  1  0  0  0  0
 21 22  1  0  0  0  0
 19 20  1  0  0  0  0
 19 21  1  0  0  0  0
 17 18  1  0  0  0  0
 17 19  1  0  0  0  0
 15 16  1  0  0  0  0
 15 17  2  0  0  0  0
 14 15  1  0  0  0  0
 14 21  2  0  0  0  0
 11 12  1  0  0  0  0
 11 13  1  0  0  0  0
 11 14  1  0  0  0  0
  9 10  1  0  0  0  0
  9 11  1  0  0  0  0
  9 23  1  0  0  0  0
  7  8  1  0  0  0  0
  7  9  1  0  0  0  0
 27 28  1  0  0  0  0
 27 29  1  0  0  0  0
 27 30  1  0  0  0  0
 25 26  1  0  0  0  0
 25 27  1  0  0  0  0
M  CHG  1  15   1
M  END
$$$$
default_name
  -OEChem-01062215323D

 30 30  0     1  0  0  0  0  0999 V2000
   -3.5507   -3.2183    1.8116 H   0  0  0  0  0  0  0  0  0  0  0  0
   -3.4597   -2.3913    1.1076 C   0  0  0  0  0  0  0  0  0  0  0  0
   -4.1577   -1.6043    1.3866 H   0  0  0  0  0  0  0  0  0  0  0  0
   -3.6807   -2.7523    0.1036 H   0  0  0  0  0  0  0  0  0  0  0  0
   -2.0477   -1.8543    1.1546 C   0  0  0  0  0  0  0  0  0  0  0  0
   -1.2227   -2.3443    1.9146 O   0  0  0  0  0  0  0  0  0  0  0  0
   -1.7517   -0.8483    0.3266 N   0  0  0  0  0  0  0  0  0  0  0  0
   -2.4847   -0.5123   -0.2804 H   0  0  0  0  0  0  0  0  0  0  0  0
   -0.4117   -0.2463    0.2186 C   0  0  1  0  0  0  0  0  0  0  0  0
    0.0688   -0.6440   -0.6787 H   0  0  0  0  0  0  0  0  0  0  0  0
   -0.5713    1.2781    0.0136 C   0  0  0  0  0  0  0  0  0  0  0  0
   -1.1351    1.6857    0.8566 H   0  0  0  0  0  0  0  0  0  0  0  0
    0.4161    1.7442    0.0331 H   0  0  0  0  0  0  0  0  0  0  0  0
   -1.2587    1.6860   -1.2722 C   0  0  0  0  0  0  0  0  0  0  0  0
   -0.6859    1.6533   -2.5289 N   0  3  0  0  0  0  0  0  0  0  0  0
    0.2510    1.2833   -2.7134 H   0  0  0  0  0  0  0  0  0  0  0  0
   -1.5960    2.0881   -3.4230 C   0  0  0  0  0  0  0  0  0  0  0  0
   -1.4378    2.1618   -4.4970 H   0  0  0  0  0  0  0  0  0  0  0  0
   -2.7337    2.3971   -2.7607 N   0  0  0  0  0  0  0  0  0  0  0  0
   -3.5914    2.7478   -3.1789 H   0  0  0  0  0  0  0  0  0  0  0  0
   -2.5390    2.1505   -1.4087 C   0  0  0  0  0  0  0  0  0  0  0  0
   -3.2573    2.2942   -0.6062 H   0  0  0  0  0  0  0  0  0  0  0  0
    0.4813   -0.6484    1.4059 C   0  0  0  0  0  0  0  0  0  0  0  0
    0.9552   -1.7834    1.4774 O   0  0  0  0  0  0  0  0  0  0  0  0
    0.6917    0.2891    2.3380 N   0  0  0  0  0  0  0  0  0  0  0  0
    0.2722    1.1944    2.1902 H   0  0  0  0  0  0  0  0  0  0  0  0
    1.4808    0.1050    3.5598 C   0  0  0  0  0  0  0  0  0  0  0  0
    2.4720    0.5460    3.4359 H   0  0  0  0  0  0  0  0  0  0  0  0
    0.9855    0.5940    4.4004 H   0  0  0  0  0  0  0  0  0  0  0  0
    1.5953   -0.9556    3.7933 H   0  0  0  0  0  0  0  0  0  0  0  0
  5  6  2  0  0  0  0
  5  7  1  0  0  0  0
  2  3  1  0  0  0  0
  2  4  1  0  0  0  0
  2  5  1  0  0  0  0
  1  2  1  0  0  0  0
 23 24  2  0  0  0  0
 23 25  1  0  0  0  0
 21 22  1  0  0  0  0
 19 20  1  0  0  0  0
 19 21  1  0  0  0  0
 17 18  1  0  0  0  0
 17 19  1  0  0  0  0
 15 16  1  0  0  0  0
 15 17  2  0  0  0  0
 14 15  1  0  0  0  0
 14 21  2  0  0  0  0
 11 12  1  0  0  0  0
 11 13  1  0  0  0  0
 11 14  1  0  0  0  0
  9 10  1  0  0  0  0
  9 11  1  0  0  0  0
  9 23  1  0  0  0  0
  7  8  1  0  0  0  0
  7  9  1  0  0  0  0
 27 28  1  0  0  0  0
 27 29  1  0  0  0  0
 27 30  1  0  0  0  0
 25 26  1  0  0  0  0
 25 27  1  0  0  0  0
M  CHG  1  15   1
M  END
$$$$
default_name
  -OEChem-01062215323D

 30 30  0     1  0  0  0  0  0999 V2000
   -3.5507   -3.2183    1.8116 H   0  0  0  0  0  0  0  0  0  0  0  0
   -3.4597   -2.3913    1.1076 C   0  0  0  0  0  0  0  0  0  0  0  0
   -4.1577   -1.6043    1.3866 H   0  0  0  0  0  0  0  0  0  0  0  0
   -3.6807   -2.7523    0.1036 H   0  0  0  0  0  0  0  0  0  0  0  0
   -2.0477   -1.8543    1.1546 C   0  0  0  0  0  0  0  0  0  0  0  0
   -1.2227   -2.3443    1.9146 O   0  0  0  0  0  0  0  0  0  0  0  0
   -1.7517   -0.8483    0.3266 N   0  0  0  0  0  0  0  0  0  0  0  0
   -2.4847   -0.5123   -0.2804 H   0  0  0  0  0  0  0  0  0  0  0  0
   -0.4117   -0.2463    0.2186 C   0  0  1  0  0  0  0  0  0  0  0  0
    0.0688   -0.6440   -0.6787 H   0  0  0  0  0  0  0  0  0  0  0  0
   -0.5713    1.2781    0.0136 C   0  0  0  0  0  0  0  0  0  0  0  0
   -1.1351    1.6857    0.8566 H   0  0  0  0  0  0  0  0  0  0  0  0
    0.4161    1.7442    0.0331 H   0  0  0  0  0  0  0  0  0  0  0  0
   -1.2587    1.6860   -1.2722 C   0  0  0  0  0  0  0  0  0  0  0  0
   -0.6859    1.6533   -2.5289 N   0  3  0  0  0  0  0  0  0  0  0  0
    0.2510    1.2833   -2.7134 H   0  0  0  0  0  0  0  0  0  0  0  0
   -1.5960    2.0881   -3.4230 C   0  0  0  0  0  0  0  0  0  0  0  0
   -1.4378    2.1618   -4.4970 H   0  0  0  0  0  0  0  0  0  0  0  0
   -2.7337    2.3971   -2.7607 N   0  0  0  0  0  0  0  0  0  0  0  0
   -3.5914    2.7478   -3.1789 H   0  0  0  0  0  0  0  0  0  0  0  0
   -2.5390    2.1505   -1.4087 C   0  0  0  0  0  0  0  0  0  0  0  0
   -3.2573    2.2942   -0.6062 H   0  0  0  0  0  0  0  0  0  0  0  0
    0.4813   -0.6484    1.4059 C   0  0  0  0  0  0  0  0  0  0  0  0
    1.1732   -1.6665    1.3530 O   0  0  0  0  0  0  0  0  0  0  0  0
    0.4461    0.1538    2.4770 N   0  0  0  0  0  0  0  0  0  0  0  0
   -0.1416    0.9720    2.4261 H   0  0  0  0  0  0  0  0  0  0  0  0
    1.1911   -0.0628    3.7209 C   0  0  0  0  0  0  0  0  0  0  0  0
    2.0760    0.5764    3.7441 H   0  0  0  0  0  0  0  0  0  0  0  0
    0.5627    0.1823    4.5789 H   0  0  0  0  0  0  0  0  0  0  0  0
    1.5080   -1.1041    3.8087 H   0  0  0  0  0  0  0  0  0  0  0  0
  5  6  2  0  0  0  0
  5  7  1  0  0  0  0
  2  3  1  0  0  0  0
  2  4  1  0  0  0  0
  2  5  1  0  0  0  0
  1  2  1  0  0  0  0
 23 24  2  0  0  0  0
 23 25  1  0  0  0  0
 21 22  1  0  0  0  0
 19 20  1  0  0  0  0
 19 21  1  0  0  0  0
 17 18  1  0  0  0  0
 17 19  1  0  0  0  0
 15 16  1  0  0  0  0
 15 17  2  0  0  0  0
 14 15  1  0  0  0  0
 14 21  2  0  0  0  0
 11 12  1  0  0  0  0
 11 13  1  0  0  0  0
 11 14  1  0  0  0  0
  9 10  1  0  0  0  0
  9 11  1  0  0  0  0
  9 23  1  0  0  0  0
  7  8  1  0  0  0  0
  7  9  1  0  0  0  0
 27 28  1  0  0  0  0
 27 29  1  0  0  0  0
 27 30  1  0  0  0  0
 25 26  1  0  0  0  0
 25 27  1  0  0  0  0
M  CHG  1  15   1
M  END
$$$$
default_name
  -OEChem-01062215323D

 30 30  0     1  0  0  0  0  0999 V2000
   -3.5507   -3.2183    1.8116 H   0  0  0  0  0  0  0  0  0  0  0  0
   -3.4597   -2.3913    1.1076 C   0  0  0  0  0  0  0  0  0  0  0  0
   -4.1577   -1.6043    1.3866 H   0  0  0  0  0  0  0  0  0  0  0  0
   -3.6807   -2.7523    0.1036 H   0  0  0  0  0  0  0  0  0  0  0  0
   -2.0477   -1.8543    1.1546 C   0  0  0  0  0  0  0  0  0  0  0  0
   -1.2227   -2.3443    1.9146 O   0  0  0  0  0  0  0  0  0  0  0  0
   -1.7517   -0.8483    0.3266 N   0  0  0  0  0  0  0  0  0  0  0  0
   -2.4847   -0.5123   -0.2804 H   0  0  0  0  0  0  0  0  0  0  0  0
   -0.4117   -0.2463    0.2186 C   0  0  1  0  0  0  0  0  0  0  0  0
    0.0688   -0.6440   -0.6787 H   0  0  0  0  0  0  0  0  0  0  0  0
   -0.5713    1.2781    0.0136 C   0  0  0  0  0  0  0  0  0  0  0  0
   -1.1351    1.6857    0.8566 H   0  0  0  0  0  0  0  0  0  0  0  0
    0.4161    1.7442    0.0331 H   0  0  0  0  0  0  0  0  0  0  0  0
   -1.2587    1.6860   -1.2722 C   0  0  0  0  0  0  0  0  0  0  0  0
   -0.6859    1.6533   -2.5289 N   0  3  0  0  0  0  0  0  0  0  0  0
    0.2510    1.2833   -2.7134 H   0  0  0  0  0  0  0  0  0  0  0  0
   -1.5960    2.0881   -3.4230 C   0  0  0  0  0  0  0  0  0  0  0  0
   -1.4378    2.1618   -4.4970 H   0  0  0  0  0  0  0  0  0  0  0  0
   -2.7337    2.3971   -2.7607 N   0  0  0  0  0  0  0  0  0  0  0  0
   -3.5914    2.7478   -3.1789 H   0  0  0  0  0  0  0  0  0  0  0  0
   -2.5390    2.1505   -1.4087 C   0  0  0  0  0  0  0  0  0  0  0  0
   -3.2573    2.2942   -0.6062 H   0  0  0  0  0  0  0  0  0  0  0  0
    0.4813   -0.6484    1.4059 C   0  0  0  0  0  0  0  0  0  0  0  0
    1.3688   -1.4913    1.2652 O   0  0  0  0  0  0  0  0  0  0  0  0
    0.2265   -0.0467    2.5742 N   0  0  0  0  0  0  0  0  0  0  0  0
   -0.5128    0.6392    2.5926 H   0  0  0  0  0  0  0  0  0  0  0  0
    0.9338   -0.3069    3.8317 C   0  0  0  0  0  0  0  0  0  0  0  0
    1.6666    0.4805    4.0195 H   0  0  0  0  0  0  0  0  0  0  0  0
    0.2245   -0.3265    4.6609 H   0  0  0  0  0  0  0  0  0  0  0  0
    1.4523   -1.2673    3.7953 H   0  0  0  0  0  0  0  0  0  0  0  0
  5  6  2  0  0  0  0
  5  7  1  0  0  0  0
  2  3  1  0  0  0  0
  2  4  1  0  0  0  0
  2  5  1  0  0  0  0
  1  2  1  0  0  0  0
 23 24  2  0  0  0  0
 23 25  1  0  0  0  0
 21 22  1  0  0  0  0
 19 20  1  0  0  0  0
 19 21  1  0  0  0  0
 17 18  1  0  0  0  0
 17 19  1  0  0  0  0
 15 16  1  0  0  0  0
 15 17  2  0  0  0  0
 14 15  1  0  0  0  0
 14 21  2  0  0  0  0
 11 12  1  0  0  0  0
 11 13  1  0  0  0  0
 11 14  1  0  0  0  0
  9 10  1  0  0  0  0
  9 11  1  0  0  0  0
  9 23  1  0  0  0  0
  7  8  1  0  0  0  0
  7  9  1  0  0  0  0
 27 28  1  0  0  0  0
 27 29  1  0  0  0  0
 27 30  1  0  0  0  0
 25 26  1  0  0  0  0
 25 27  1  0  0  0  0
M  CHG  1  15   1
M  END
$$$$
default_name
  -OEChem-01062215323D

 30 30  0     1  0  0  0  0  0999 V2000
   -3.5507   -3.2183    1.8116 H   0  0  0  0  0  0  0  0  0  0  0  0
   -3.4597   -2.3913    1.1076 C   0  0  0  0  0  0  0  0  0  0  0  0
   -4.1577   -1.6043    1.3866 H   0  0  0  0  0  0  0  0  0  0  0  0
   -3.6807   -2.7523    0.1036 H   0  0  0  0  0  0  0  0  0  0  0  0
   -2.0477   -1.8543    1.1546 C   0  0  0  0  0  0  0  0  0  0  0  0
   -1.2227   -2.3443    1.9146 O   0  0  0  0  0  0  0  0  0  0  0  0
   -1.7517   -0.8483    0.3266 N   0  0  0  0  0  0  0  0  0  0  0  0
   -2.4847   -0.5123   -0.2804 H   0  0  0  0  0  0  0  0  0  0  0  0
   -0.4117   -0.2463    0.2186 C   0  0  1  0  0  0  0  0  0  0  0  0
    0.0688   -0.6440   -0.6787 H   0  0  0  0  0  0  0  0  0  0  0  0
   -0.5713    1.2781    0.0136 C   0  0  0  0  0  0  0  0  0  0  0  0
   -1.1351    1.6857    0.8566 H   0  0  0  0  0  0  0  0  0  0  0  0
    0.4161    1.7442    0.0331 H   0  0  0  0  0  0  0  0  0  0  0  0
   -1.2587    1.6860   -1.2722 C   0  0  0  0  0  0  0  0  0  0  0  0
   -0.6859    1.6533   -2.5289 N   0  3  0  0  0  0  0  0  0  0  0  0
    0.2510    1.2833   -2.7134 H   0  0  0  0  0  0  0  0  0  0  0  0
   -1.5960    2.0881   -3.4230 C   0  0  0  0  0  0  0  0  0  0  0  0
   -1.4378    2.1618   -4.4970 H   0  0  0  0  0  0  0  0  0  0  0  0
   -2.7337    2.3971   -2.7607 N   0  0  0  0  0  0  0  0  0  0  0  0
   -3.5914    2.7478   -3.1789 H   0  0  0  0  0  0  0  0  0  0  0  0
   -2.5390    2.1505   -1.4087 C   0  0  0  0  0  0  0  0  0  0  0  0
   -3.2573    2.2942   -0.6062 H   0  0  0  0  0  0  0  0  0  0  0  0
    0.4813   -0.6484    1.4059 C   0  0  0  0  0  0  0  0  0  0  0  0
    1.5287   -1.2698    1.2199 O   0  0  0  0  0  0  0  0  0  0  0  0
    0.0478   -0.2989    2.6232 N   0  0  0  0  0  0  0  0  0  0  0  0
   -0.8163    0.2186    2.6784 H   0  0  0  0  0  0  0  0  0  0  0  0
    0.7266   -0.6107    3.8847 C   0  0  0  0  0  0  0  0  0  0  0  0
    1.2717    0.2647    4.2435 H   0  0  0  0  0  0  0  0  0  0  0  0
   -0.0061   -0.8979    4.6409 H   0  0  0  0  0  0  0  0  0  0  0  0
    1.4319   -1.4341    3.7542 H   0  0  0  0  0  0  0  0  0  0  0  0
  5  6  2  0  0  0  0
  5  7  1  0  0  0  0
  2  3  1  0  0  0  0
  2  4  1  0  0  0  0
  2  5  1  0  0  0  0
  1  2  1  0  0  0  0
 23 24  2  0  0  0  0
 23 25  1  0  0  0  0
 21 22  1  0  0  0  0
 19 20  1  0  0  0  0
 19 21  1  0  0  0  0
 17 18  1  0  0  0  0
 17 19  1  0  0  0  0
 15 16  1  0  0  0  0
 15 17  2  0  0  0  0
 14 15  1  0  0  0  0
 14 21  2  0  0  0  0
 11 12  1  0  0  0  0
 11 13  1  0  0  0  0
 11 14  1  0  0  0  0
  9 10  1  0  0  0  0
  9 11  1  0  0  0  0
  9 23  1  0  0  0  0
  7  8  1  0  0  0  0
  7  9  1  0  0  0  0
 27 28  1  0  0  0  0
 27 29  1  0  0  0  0
 27 30  1  0  0  0  0
 25 26  1  0  0  0  0
 25 27  1  0  0  0  0
M  CHG  1  15   1
M  END
$$$$
default_name
  -OEChem-01062215323D

 30 30  0     1  0  0  0  0  0999 V2000
   -3.5507   -3.2183    1.8116 H   0  0  0  0  0  0  0  0  0  0  0  0
   -3.4597   -2.3913    1.1076 C   0  0  0  0  0  0  0  0  0  0  0  0
   -4.1577   -1.6043    1.3866 H   0  0  0  0  0  0  0  0  0  0  0  0
   -3.6807   -2.7523    0.1036 H   0  0  0  0  0  0  0  0  0  0  0  0
   -2.0477   -1.8543    1.1546 C   0  0  0  0  0  0  0  0  0  0  0  0
   -1.2227   -2.3443    1.9146 O   0  0  0  0  0  0  0  0  0  0  0  0
   -1.7517   -0.8483    0.3266 N   0  0  0  0  0  0  0  0  0  0  0  0
   -2.4847   -0.5123   -0.2804 H   0  0  0  0  0  0  0  0  0  0  0  0
   -0.4117   -0.2463    0.2186 C   0  0  1  0  0  0  0  0  0  0  0  0
    0.0688   -0.6440   -0.6787 H   0  0  0  0  0  0  0  0  0  0  0  0
   -0.5713    1.2781    0.0136 C   0  0  0  0  0  0  0  0  0  0  0  0
   -1.1351    1.6857    0.8566 H   0  0  0  0  0  0  0  0  0  0  0  0
    0.4161    1.7442    0.0331 H   0  0  0  0  0  0  0  0  0  0  0  0
   -1.2587    1.6860   -1.2722 C   0  0  0  0  0  0  0  0  0  0  0  0
   -0.6859    1.6533   -2.5289 N   0  3  0  0  0  0  0  0  0  0  0  0
    0.2510    1.2833   -2.7134 H   0  0  0  0  0  0  0  0  0  0  0  0
   -1.5960    2.0881   -3.4230 C   0  0  0  0  0  0  0  0  0  0  0  0
   -1.4378    2.1618   -4.4970 H   0  0  0  0  0  0  0  0  0  0  0  0
   -2.7337    2.3971   -2.7607 N   0  0  0  0  0  0  0  0  0  0  0  0
   -3.5914    2.7478   -3.1789 H   0  0  0  0  0  0  0  0  0  0  0  0
   -2.5390    2.1505   -1.4087 C   0  0  0  0  0  0  0  0  0  0  0  0
   -3.2573    2.2942   -0.6062 H   0  0  0  0  0  0  0  0  0  0  0  0
    0.4813   -0.6484    1.4059 C   0  0  0  0  0  0  0  0  0  0  0  0
    1.6421   -1.0172    1.2203 O   0  0  0  0  0  0  0  0  0  0  0  0
   -0.0778   -0.5855    2.6206 N   0  0  0  0  0  0  0  0  0  0  0  0
   -1.0312   -0.2611    2.6775 H   0  0  0  0  0  0  0  0  0  0  0  0
    0.5835   -0.9535    3.8763 C   0  0  0  0  0  0  0  0  0  0  0  0
    0.9182   -0.0562    4.4007 H   0  0  0  0  0  0  0  0  0  0  0  0
   -0.1135   -1.4928    4.5201 H   0  0  0  0  0  0  0  0  0  0  0  0
    1.4483   -1.5931    3.6880 H   0  0  0  0  0  0  0  0  0  0  0  0
  5  6  2  0  0  0  0
  5  7  1  0  0  0  0
  2  3  1  0  0  0  0
  2  4  1  0  0  0  0
  2  5  1  0  0  0  0
  1  2  1  0  0  0  0
 23 24  2  0  0  0  0
 23 25  1  0  0  0  0
 21 22  1  0  0  0  0
 19 20  1  0  0  0  0
 19 21  1  0  0  0  0
 17 18  1  0  0  0  0
 17 19  1  0  0  0  0
 15 16  1  0  0  0  0
 15 17  2  0  0  0  0
 14 15  1  0  0  0  0
 14 21  2  0  0  0  0
 11 12  1  0  0  0  0
 11 13  1  0  0  0  0
 11 14  1  0  0  0  0
  9 10  1  0  0  0  0
  9 11  1  0  0  0  0
  9 23  1  0  0  0  0
  7  8  1  0  0  0  0
  7  9  1  0  0  0  0
 27 28  1  0  0  0  0
 27 29  1  0  0  0  0
 27 30  1  0  0  0  0
 25 26  1  0  0  0  0
 25 27  1  0  0  0  0
M  CHG  1  15   1
M  END
$$$$
default_name
  -OEChem-01062215323D

 30 30  0     1  0  0  0  0  0999 V2000
   -3.5507   -3.2183    1.8116 H   0  0  0  0  0  0  0  0  0  0  0  0
   -3.4597   -2.3913    1.1076 C   0  0  0  0  0  0  0  0  0  0  0  0
   -4.1577   -1.6043    1.3866 H   0  0  0  0  0  0  0  0  0  0  0  0
   -3.6807   -2.7523    0.1036 H   0  0  0  0  0  0  0  0  0  0  0  0
   -2.0477   -1.8543    1.1546 C   0  0  0  0  0  0  0  0  0  0  0  0
   -1.2227   -2.3443    1.9146 O   0  0  0  0  0  0  0  0  0  0  0  0
   -1.7517   -0.8483    0.3266 N   0  0  0  0  0  0  0  0  0  0  0  0
   -2.4847   -0.5123   -0.2804 H   0  0  0  0  0  0  0  0  0  0  0  0
   -0.4117   -0.2463    0.2186 C   0  0  1  0  0  0  0  0  0  0  0  0
    0.0688   -0.6440   -0.6787 H   0  0  0  0  0  0  0  0  0  0  0  0
   -0.5713    1.2781    0.0136 C   0  0  0  0  0  0  0  0  0  0  0  0
   -1.1351    1.6857    0.8566 H   0  0  0  0  0  0  0  0  0  0  0  0
    0.4161    1.7442    0.0331 H   0  0  0  0  0  0  0  0  0  0  0  0
   -1.2587    1.6860   -1.2722 C   0  0  0  0  0  0  0  0  0  0  0  0
   -0.6859    1.6533   -2.5289 N   0  3  0  0  0  0  0  0  0  0  0  0
    0.2510    1.2833   -2.7134 H   0  0  0  0  0  0  0  0  0  0  0  0
   -1.5960    2.0881   -3.4230 C   0  0  0  0  0  0  0  0  0  0  0  0
   -1.4378    2.1618   -4.4970 H   0  0  0  0  0  0  0  0  0  0  0  0
   -2.7337    2.3971   -2.7607 N   0  0  0  0  0  0  0  0  0  0  0  0
   -3.5914    2.7478   -3.1789 H   0  0  0  0  0  0  0  0  0  0  0  0
   -2.5390    2.1505   -1.4087 C   0  0  0  0  0  0  0  0  0  0  0  0
   -3.2573    2.2942   -0.6062 H   0  0  0  0  0  0  0  0  0  0  0  0
    0.4813   -0.6484    1.4059 C   0  0  0  0  0  0  0  0  0  0  0  0
    1.7011   -0.7506    1.2662 O   0  0  0  0  0  0  0  0  0  0  0  0
   -0.1417   -0.8870    2.5665 N   0  0  0  0  0  0  0  0  0  0  0  0
   -1.1429   -0.7673    2.5901 H   0  0  0  0  0  0  0  0  0  0  0  0
    0.5142   -1.3119    3.8069 C   0  0  0  0  0  0  0  0  0  0  0  0
    0.6301   -0.4603    4.4804 H   0  0  0  0  0  0  0  0  0  0  0  0
   -0.0902   -2.0707    4.3068 H   0  0  0  0  0  0  0  0  0  0  0  0
    1.5004   -1.7334    3.6013 H   0  0  0  0  0  0  0  0  0  0  0  0
  5  6  2  0  0  0  0
  5  7  1  0  0  0  0
  2  3  1  0  0  0  0
  2  4  1  0  0  0  0
  2  5  1  0  0  0  0
  1  2  1  0  0  0  0
 23 24  2  0  0  0  0
 23 25  1  0  0  0  0
 21 22  1  0  0  0  0
 19 20  1  0  0  0  0
 19 21  1  0  0  0  0
 17 18  1  0  0  0  0
 17 19  1  0  0  0  0
 15 16  1  0  0  0  0
 15 17  2  0  0  0  0
 14 15  1  0  0  0  0
 14 21  2  0  0  0  0
 11 12  1  0  0  0  0
 11 13  1  0  0  0  0
 11 14  1  0  0  0  0
  9 10  1  0  0  0  0
  9 11  1  0  0  0  0
  9 23  1  0  0  0  0
  7  8  1  0  0  0  0
  7  9  1  0  0  0  0
 27 28  1  0  0  0  0
 27 29  1  0  0  0  0
 27 30  1  0  0  0  0
 25 26  1  0  0  0  0
 25 27  1  0  0  0  0
M  CHG  1  15   1
M  END
$$$$
default_name
  -OEChem-01062215323D

 30 30  0     1  0  0  0  0  0999 V2000
   -3.5507   -3.2183    1.8116 H   0  0  0  0  0  0  0  0  0  0  0  0
   -3.4597   -2.3913    1.1076 C   0  0  0  0  0  0  0  0  0  0  0  0
   -4.1577   -1.6043    1.3866 H   0  0  0  0  0  0  0  0  0  0  0  0
   -3.6807   -2.7523    0.1036 H   0  0  0  0  0  0  0  0  0  0  0  0
   -2.0477   -1.8543    1.1546 C   0  0  0  0  0  0  0  0  0  0  0  0
   -1.2227   -2.3443    1.9146 O   0  0  0  0  0  0  0  0  0  0  0  0
   -1.7517   -0.8483    0.3266 N   0  0  0  0  0  0  0  0  0  0  0  0
   -2.4847   -0.5123   -0.2804 H   0  0  0  0  0  0  0  0  0  0  0  0
   -0.4117   -0.2463    0.2186 C   0  0  1  0  0  0  0  0  0  0  0  0
    0.0688   -0.6440   -0.6787 H   0  0  0  0  0  0  0  0  0  0  0  0
   -0.5713    1.2781    0.0136 C   0  0  0  0  0  0  0  0  0  0  0  0
   -1.1351    1.6857    0.8566 H   0  0  0  0  0  0  0  0  0  0  0  0
    0.4161    1.7442    0.0331 H   0  0  0  0  0  0  0  0  0  0  0  0
   -1.2587    1.6860   -1.2722 C   0  0  0  0  0  0  0  0  0  0  0  0
   -0.6859    1.6533   -2.5289 N   0  3  0  0  0  0  0  0  0  0  0  0
    0.2510    1.2833   -2.7134 H   0  0  0  0  0  0  0  0  0  0  0  0
   -1.5960    2.0881   -3.4230 C   0  0  0  0  0  0  0  0  0  0  0  0
   -1.4378    2.1618   -4.4970 H   0  0  0  0  0  0  0  0  0  0  0  0
   -2.7337    2.3971   -2.7607 N   0  0  0  0  0  0  0  0  0  0  0  0
   -3.5914    2.7478   -3.1789 H   0  0  0  0  0  0  0  0  0  0  0  0
   -2.5390    2.1505   -1.4087 C   0  0  0  0  0  0  0  0  0  0  0  0
   -3.2573    2.2942   -0.6062 H   0  0  0  0  0  0  0  0  0  0  0  0
    0.4813   -0.6484    1.4059 C   0  0  0  0  0  0  0  0  0  0  0  0
    1.7018   -0.4882    1.3546 O   0  0  0  0  0  0  0  0  0  0  0  0
   -0.1395   -1.1828    2.4647 N   0  0  0  0  0  0  0  0  0  0  0  0
   -1.1439   -1.2654    2.4221 H   0  0  0  0  0  0  0  0  0  0  0  0
    0.5236   -1.6615    3.6814 C   0  0  0  0  0  0  0  0  0  0  0  0
    0.4272   -0.9202    4.4773 H   0  0  0  0  0  0  0  0  0  0  0  0
    0.0620   -2.5923    4.0156 H   0  0  0  0  0  0  0  0  0  0  0  0
    1.5846   -1.8455    3.5000 H   0  0  0  0  0  0  0  0  0  0  0  0
  5  6  2  0  0  0  0
  5  7  1  0  0  0  0
  2  3  1  0  0  0  0
  2  4  1  0  0  0  0
  2  5  1  0  0  0  0
  1  2  1  0  0  0  0
 23 24  2  0  0  0  0
 23 25  1  0  0  0  0
 21 22  1  0  0  0  0
 19 20  1  0  0  0  0
 19 21  1  0  0  0  0
 17 18  1  0  0  0  0
 17 19  1  0  0  0  0
 15 16  1  0  0  0  0
 15 17  2  0  0  0  0
 14 15  1  0  0  0  0
 14 21  2  0  0  0  0
 11 12  1  0  0  0  0
 11 13  1  0  0  0  0
 11 14  1  0  0  0  0
  9 10  1  0  0  0  0
  9 11  1  0  0  0  0
  9 23  1  0  0  0  0
  7  8  1  0  0  0  0
  7  9  1  0  0  0  0
 27 28  1  0  0  0  0
 27 29  1  0  0  0  0
 27 30  1  0  0  0  0
 25 26  1  0  0  0  0
 25 27  1  0  0  0  0
M  CHG  1  15   1
M  END
$$$$
default_name
  -OEChem-01062215323D

 30 30  0     1  0  0  0  0  0999 V2000
   -3.5507   -3.2183    1.8116 H   0  0  0  0  0  0  0  0  0  0  0  0
   -3.4597   -2.3913    1.1076 C   0  0  0  0  0  0  0  0  0  0  0  0
   -4.1577   -1.6043    1.3866 H   0  0  0  0  0  0  0  0  0  0  0  0
   -3.6807   -2.7523    0.1036 H   0  0  0  0  0  0  0  0  0  0  0  0
   -2.0477   -1.8543    1.1546 C   0  0  0  0  0  0  0  0  0  0  0  0
   -1.2227   -2.3443    1.9146 O   0  0  0  0  0  0  0  0  0  0  0  0
   -1.7517   -0.8483    0.3266 N   0  0  0  0  0  0  0  0  0  0  0  0
   -2.4847   -0.5123   -0.2804 H   0  0  0  0  0  0  0  0  0  0  0  0
   -0.4117   -0.2463    0.2186 C   0  0  1  0  0  0  0  0  0  0  0  0
    0.0688   -0.6440   -0.6787 H   0  0  0  0  0  0  0  0  0  0  0  0
   -0.5713    1.2781    0.0136 C   0  0  0  0  0  0  0  0  0  0  0  0
   -1.1351    1.6857    0.8566 H   0  0  0  0  0  0  0  0  0  0  0  0
    0.4161    1.7442    0.0331 H   0  0  0  0  0  0  0  0  0  0  0  0
   -1.2587    1.6860   -1.2722 C   0  0  0  0  0  0  0  0  0  0  0  0
   -0.6859    1.6533   -2.5289 N   0  3  0  0  0  0  0  0  0  0  0  0
    0.2510    1.2833   -2.7134 H   0  0  0  0  0  0  0  0  0  0  0  0
   -1.5960    2.0881   -3.4230 C   0  0  0  0  0  0  0  0  0  0  0  0
   -1.4378    2.1618   -4.4970 H   0  0  0  0  0  0  0  0  0  0  0  0
   -2.7337    2.3971   -2.7607 N   0  0  0  0  0  0  0  0  0  0  0  0
   -3.5914    2.7478   -3.1789 H   0  0  0  0  0  0  0  0  0  0  0  0
   -2.5390    2.1505   -1.4087 C   0  0  0  0  0  0  0  0  0  0  0  0
   -3.2573    2.2942   -0.6062 H   0  0  0  0  0  0  0  0  0  0  0  0
    0.4813   -0.6484    1.4059 C   0  0  0  0  0  0  0  0  0  0  0  0
    1.6440   -0.2479    1.4794 O   0  0  0  0  0  0  0  0  0  0  0  0
   -0.0715   -1.4529    2.3220 N   0  0  0  0  0  0  0  0  0  0  0  0
   -1.0340   -1.7215    2.1850 H   0  0  0  0  0  0  0  0  0  0  0  0
    0.6109   -1.9784    3.5084 C   0  0  0  0  0  0  0  0  0  0  0  0
    0.3232   -1.4045    4.3915 H   0  0  0  0  0  0  0  0  0  0  0  0
    0.3330   -3.0219    3.6663 H   0  0  0  0  0  0  0  0  0  0  0  0
    1.6952   -1.9218    3.3910 H   0  0  0  0  0  0  0  0  0  0  0  0
  5  6  2  0  0  0  0
  5  7  1  0  0  0  0
  2  3  1  0  0  0  0
  2  4  1  0  0  0  0
  2  5  1  0  0  0  0
  1  2  1  0  0  0  0
 23 24  2  0  0  0  0
 23 25  1  0  0  0  0
 21 22  1  0  0  0  0
 19 20  1  0  0  0  0
 19 21  1  0  0  0  0
 17 18  1  0  0  0  0
 17 19  1  0  0  0  0
 15 16  1  0  0  0  0
 15 17  2  0  0  0  0
 14 15  1  0  0  0  0
 14 21  2  0  0  0  0
 11 12  1  0  0  0  0
 11 13  1  0  0  0  0
 11 14  1  0  0  0  0
  9 10  1  0  0  0  0
  9 11  1  0  0  0  0
  9 23  1  0  0  0  0
  7  8  1  0  0  0  0
  7  9  1  0  0  0  0
 27 28  1  0  0  0  0
 27 29  1  0  0  0  0
 27 30  1  0  0  0  0
 25 26  1  0  0  0  0
 25 27  1  0  0  0  0
M  CHG  1  15   1
M  END
$$$$
default_name
  -OEChem-01062215323D

 30 30  0     1  0  0  0  0  0999 V2000
   -3.5507   -3.2183    1.8116 H   0  0  0  0  0  0  0  0  0  0  0  0
   -3.4597   -2.3913    1.1076 C   0  0  0  0  0  0  0  0  0  0  0  0
   -4.1577   -1.6043    1.3866 H   0  0  0  0  0  0  0  0  0  0  0  0
   -3.6807   -2.7523    0.1036 H   0  0  0  0  0  0  0  0  0  0  0  0
   -2.0477   -1.8543    1.1546 C   0  0  0  0  0  0  0  0  0  0  0  0
   -1.2227   -2.3443    1.9146 O   0  0  0  0  0  0  0  0  0  0  0  0
   -1.7517   -0.8483    0.3266 N   0  0  0  0  0  0  0  0  0  0  0  0
   -2.4847   -0.5123   -0.2804 H   0  0  0  0  0  0  0  0  0  0  0  0
   -0.4117   -0.2463    0.2186 C   0  0  1  0  0  0  0  0  0  0  0  0
    0.0688   -0.6440   -0.6787 H   0  0  0  0  0  0  0  0  0  0  0  0
   -0.5713    1.2781    0.0136 C   0  0  0  0  0  0  0  0  0  0  0  0
   -1.1351    1.6857    0.8566 H   0  0  0  0  0  0  0  0  0  0  0  0
    0.4161    1.7442    0.0331 H   0  0  0  0  0  0  0  0  0  0  0  0
   -1.2587    1.6860   -1.2722 C   0  0  0  0  0  0  0  0  0  0  0  0
   -0.6859    1.6533   -2.5289 N   0  3  0  0  0  0  0  0  0  0  0  0
    0.2510    1.2833   -2.7134 H   0  0  0  0  0  0  0  0  0  0  0  0
   -1.5960    2.0881   -3.4230 C   0  0  0  0  0  0  0  0  0  0  0  0
   -1.4378    2.1618   -4.4970 H   0  0  0  0  0  0  0  0  0  0  0  0
   -2.7337    2.3971   -2.7607 N   0  0  0  0  0  0  0  0  0  0  0  0
   -3.5914    2.7478   -3.1789 H   0  0  0  0  0  0  0  0  0  0  0  0
   -2.5390    2.1505   -1.4087 C   0  0  0  0  0  0  0  0  0  0  0  0
   -3.2573    2.2942   -0.6062 H   0  0  0  0  0  0  0  0  0  0  0  0
    0.4813   -0.6484    1.4059 C   0  0  0  0  0  0  0  0  0  0  0  0
    1.5319   -0.0460    1.6322 O   0  0  0  0  0  0  0  0  0  0  0  0
    0.0578   -1.6787    2.1483 N   0  0  0  0  0  0  0  0  0  0  0  0
   -0.8208   -2.1045    1.8949 H   0  0  0  0  0  0  0  0  0  0  0  0
    0.7703   -2.2412    3.2995 C   0  0  0  0  0  0  0  0  0  0  0  0
    0.3252   -1.8801    4.2288 H   0  0  0  0  0  0  0  0  0  0  0  0
    0.7041   -3.3304    3.2827 H   0  0  0  0  0  0  0  0  0  0  0  0
    1.8245   -1.9570    3.2817 H   0  0  0  0  0  0  0  0  0  0  0  0
  5  6  2  0  0  0  0
  5  7  1  0  0  0  0
  2  3  1  0  0  0  0
  2  4  1  0  0  0  0
  2  5  1  0  0  0  0
  1  2  1  0  0  0  0
 23 24  2  0  0  0  0
 23 25  1  0  0  0  0
 21 22  1  0  0  0  0
 19 20  1  0  0  0  0
 19 21  1  0  0  0  0
 17 18  1  0  0  0  0
 17 19  1  0  0  0  0
 15 16  1  0  0  0  0
 15 17  2  0  0  0  0
 14 15  1  0  0  0  0
 14 21  2  0  0  0  0
 11 12  1  0  0  0  0
 11 13  1  0  0  0  0
 11 14  1  0  0  0  0
  9 10  1  0  0  0  0
  9 11  1  0  0  0  0
  9 23  1  0  0  0  0
  7  8  1  0  0  0  0
  7  9  1  0  0  0  0
 27 28  1  0  0  0  0
 27 29  1  0  0  0  0
 27 30  1  0  0  0  0
 25 26  1  0  0  0  0
 25 27  1  0  0  0  0
M  CHG  1  15   1
M  END
$$$$
default_name
  -OEChem-01062215323D

 30 30  0     1  0  0  0  0  0999 V2000
   -3.5507   -3.2183    1.8116 H   0  0  0  0  0  0  0  0  0  0  0  0
   -3.4597   -2.3913    1.1076 C   0  0  0  0  0  0  0  0  0  0  0  0
   -4.1577   -1.6043    1.3866 H   0  0  0  0  0  0  0  0  0  0  0  0
   -3.6807   -2.7523    0.1036 H   0  0  0  0  0  0  0  0  0  0  0  0
   -2.0477   -1.8543    1.1546 C   0  0  0  0  0  0  0  0  0  0  0  0
   -1.2227   -2.3443    1.9146 O   0  0  0  0  0  0  0  0  0  0  0  0
   -1.7517   -0.8483    0.3266 N   0  0  0  0  0  0  0  0  0  0  0  0
   -2.4847   -0.5123   -0.2804 H   0  0  0  0  0  0  0  0  0  0  0  0
   -0.4117   -0.2463    0.2186 C   0  0  1  0  0  0  0  0  0  0  0  0
    0.0688   -0.6440   -0.6787 H   0  0  0  0  0  0  0  0  0  0  0  0
   -0.5713    1.2781    0.0136 C   0  0  0  0  0  0  0  0  0  0  0  0
   -1.1351    1.6857    0.8566 H   0  0  0  0  0  0  0  0  0  0  0  0
    0.4161    1.7442    0.0331 H   0  0  0  0  0  0  0  0  0  0  0  0
   -1.2587    1.6860   -1.2722 C   0  0  0  0  0  0  0  0  0  0  0  0
   -0.6859    1.6533   -2.5289 N   0  3  0  0  0  0  0  0  0  0  0  0
    0.2510    1.2833   -2.7134 H   0  0  0  0  0  0  0  0  0  0  0  0
   -1.5960    2.0881   -3.4230 C   0  0  0  0  0  0  0  0  0  0  0  0
   -1.4378    2.1618   -4.4970 H   0  0  0  0  0  0  0  0  0  0  0  0
   -2.7337    2.3971   -2.7607 N   0  0  0  0  0  0  0  0  0  0  0  0
   -3.5914    2.7478   -3.1789 H   0  0  0  0  0  0  0  0  0  0  0  0
   -2.5390    2.1505   -1.4087 C   0  0  0  0  0  0  0  0  0  0  0  0
   -3.2573    2.2942   -0.6062 H   0  0  0  0  0  0  0  0  0  0  0  0
    0.4813   -0.6484    1.4059 C   0  0  0  0  0  0  0  0  0  0  0  0
    1.3729    0.1037    1.8025 O   0  0  0  0  0  0  0  0  0  0  0  0
    0.2395   -1.8450    1.9553 N   0  0  0  0  0  0  0  0  0  0  0  0
   -0.5188   -2.3883    1.5715 H   0  0  0  0  0  0  0  0  0  0  0  0
    0.9908   -2.4318    3.0691 C   0  0  0  0  0  0  0  0  0  0  0  0
    0.4331   -2.3147    4.0005 H   0  0  0  0  0  0  0  0  0  0  0  0
    1.1500   -3.4967    2.8909 H   0  0  0  0  0  0  0  0  0  0  0  0
    1.9639   -1.9488    3.1796 H   0  0  0  0  0  0  0  0  0  0  0  0
  5  6  2  0  0  0  0
  5  7  1  0  0  0  0
  2  3  1  0  0  0  0
  2  4  1  0  0  0  0
  2  5  1  0  0  0  0
  1  2  1  0  0  0  0
 23 24  2  0  0  0  0
 23 25  1  0  0  0  0
 21 22  1  0  0  0  0
 19 20  1  0  0  0  0
 19 21  1  0  0  0  0
 17 18  1  0  0  0  0
 17 19  1  0  0  0  0
 15 16  1  0  0  0  0
 15 17  2  0  0  0  0
 14 15  1  0  0  0  0
 14 21  2  0  0  0  0
 11 12  1  0  0  0  0
 11 13  1  0  0  0  0
 11 14  1  0  0  0  0
  9 10  1  0  0  0  0
  9 11  1  0  0  0  0
  9 23  1  0  0  0  0
  7  8  1  0  0  0  0
  7  9  1  0  0  0  0
 27 28  1  0  0  0  0
 27 29  1  0  0  0  0
 27 30  1  0  0  0  0
 25 26  1  0  0  0  0
 25 27  1  0  0  0  0
M  CHG  1  15   1
M  END
$$$$
default_name
  -OEChem-01062215323D

 30 30  0     1  0  0  0  0  0999 V2000
   -3.5507   -3.2183    1.8116 H   0  0  0  0  0  0  0  0  0  0  0  0
   -3.4597   -2.3913    1.1076 C   0  0  0  0  0  0  0  0  0  0  0  0
   -4.1577   -1.6043    1.3866 H   0  0  0  0  0  0  0  0  0  0  0  0
   -3.6807   -2.7523    0.1036 H   0  0  0  0  0  0  0  0  0  0  0  0
   -2.0477   -1.8543    1.1546 C   0  0  0  0  0  0  0  0  0  0  0  0
   -1.2227   -2.3443    1.9146 O   0  0  0  0  0  0  0  0  0  0  0  0
   -1.7517   -0.8483    0.3266 N   0  0  0  0  0  0  0  0  0  0  0  0
   -2.4847   -0.5123   -0.2804 H   0  0  0  0  0  0  0  0  0  0  0  0
   -0.4117   -0.2463    0.2186 C   0  0  1  0  0  0  0  0  0  0  0  0
    0.0688   -0.6440   -0.6787 H   0  0  0  0  0  0  0  0  0  0  0  0
   -0.5713    1.2781    0.0136 C   0  0  0  0  0  0  0  0  0  0  0  0
   -1.1351    1.6857    0.8566 H   0  0  0  0  0  0  0  0  0  0  0  0
    0.4161    1.7442    0.0331 H   0  0  0  0  0  0  0  0  0  0  0  0
   -1.2587    1.6860   -1.2722 C   0  0  0  0  0  0  0  0  0  0  0  0
   -0.6859    1.6533   -2.5289 N   0  3  0  0  0  0  0  0  0  0  0  0
    0.2510    1.2833   -2.7134 H   0  0  0  0  0  0  0  0  0  0  0  0
   -1.5960    2.0881   -3.4230 C   0  0  0  0  0  0  0  0  0  0  0  0
   -1.4378    2.1618   -4.4970 H   0  0  0  0  0  0  0  0  0  0  0  0
   -2.7337    2.3971   -2.7607 N   0  0  0  0  0  0  0  0  0  0  0  0
   -3.5914    2.7478   -3.1789 H   0  0  0  0  0  0  0  0  0  0  0  0
   -2.5390    2.1505   -1.4087 C   0  0  0  0  0  0  0  0  0  0  0  0
   -3.2573    2.2942   -0.6062 H   0  0  0  0  0  0  0  0  0  0  0  0
    0.4813   -0.6484    1.4059 C   0  0  0  0  0  0  0  0  0  0  0  0
    1.1779    0.1909    1.9787 O   0  0  0  0  0  0  0  0  0  0  0  0
    0.4612   -1.9403    1.7562 N   0  0  0  0  0  0  0  0  0  0  0  0
   -0.1485   -2.5536    1.2370 H   0  0  0  0  0  0  0  0  0  0  0  0
    1.2574   -2.5373    2.8328 C   0  0  0  0  0  0  0  0  0  0  0  0
    0.6396   -2.6786    3.7219 H   0  0  0  0  0  0  0  0  0  0  0  0
    1.6405   -3.5094    2.5177 H   0  0  0  0  0  0  0  0  0  0  0  0
    2.1039   -1.8977    3.0917 H   0  0  0  0  0  0  0  0  0  0  0  0
  5  6  2  0  0  0  0
  5  7  1  0  0  0  0
  2  3  1  0  0  0  0
  2  4  1  0  0  0  0
  2  5  1  0  0  0  0
  1  2  1  0  0  0  0
 23 24  2  0  0  0  0
 23 25  1  0  0  0  0
 21 22  1  0  0  0  0
 19 20  1  0  0  0  0
 19 21  1  0  0  0  0
 17 18  1  0  0  0  0
 17 19  1  0  0  0  0
 15 16  1  0  0  0  0
 15 17  2  0  0  0  0
 14 15  1  0  0  0  0
 14 21  2  0  0  0  0
 11 12  1  0  0  0  0
 11 13  1  0  0  0  0
 11 14  1  0  0  0  0
  9 10  1  0  0  0  0
  9 11  1  0  0  0  0
  9 23  1  0  0  0  0
  7  8  1  0  0  0  0
  7  9  1  0  0  0  0
 27 28  1  0  0  0  0
 27 29  1  0  0  0  0
 27 30  1  0  0  0  0
 25 26  1  0  0  0  0
 25 27  1  0  0  0  0
M  CHG  1  15   1
M  END
$$$$
default_name
  -OEChem-01062215323D

 30 30  0     1  0  0  0  0  0999 V2000
   -3.5507   -3.2183    1.8116 H   0  0  0  0  0  0  0  0  0  0  0  0
   -3.4597   -2.3913    1.1076 C   0  0  0  0  0  0  0  0  0  0  0  0
   -4.1577   -1.6043    1.3866 H   0  0  0  0  0  0  0  0  0  0  0  0
   -3.6807   -2.7523    0.1036 H   0  0  0  0  0  0  0  0  0  0  0  0
   -2.0477   -1.8543    1.1546 C   0  0  0  0  0  0  0  0  0  0  0  0
   -1.2227   -2.3443    1.9146 O   0  0  0  0  0  0  0  0  0  0  0  0
   -1.7517   -0.8483    0.3266 N   0  0  0  0  0  0  0  0  0  0  0  0
   -2.4847   -0.5123   -0.2804 H   0  0  0  0  0  0  0  0  0  0  0  0
   -0.4117   -0.2463    0.2186 C   0  0  1  0  0  0  0  0  0  0  0  0
    0.0688   -0.6440   -0.6787 H   0  0  0  0  0  0  0  0  0  0  0  0
   -0.5713    1.2781    0.0136 C   0  0  0  0  0  0  0  0  0  0  0  0
   -1.1351    1.6857    0.8566 H   0  0  0  0  0  0  0  0  0  0  0  0
    0.4161    1.7442    0.0331 H   0  0  0  0  0  0  0  0  0  0  0  0
   -1.2587    1.6860   -1.2722 C   0  0  0  0  0  0  0  0  0  0  0  0
   -0.6859    1.6533   -2.5289 N   0  3  0  0  0  0  0  0  0  0  0  0
    0.2510    1.2833   -2.7134 H   0  0  0  0  0  0  0  0  0  0  0  0
   -1.5960    2.0881   -3.4230 C   0  0  0  0  0  0  0  0  0  0  0  0
   -1.4378    2.1618   -4.4970 H   0  0  0  0  0  0  0  0  0  0  0  0
   -2.7337    2.3971   -2.7607 N   0  0  0  0  0  0  0  0  0  0  0  0
   -3.5914    2.7478   -3.1789 H   0  0  0  0  0  0  0  0  0  0  0  0
   -2.5390    2.1505   -1.4087 C   0  0  0  0  0  0  0  0  0  0  0  0
   -3.2573    2.2942   -0.6062 H   0  0  0  0  0  0  0  0  0  0  0  0
    0.4813   -0.6484    1.4059 C   0  0  0  0  0  0  0  0  0  0  0  0
    0.9602    0.2098    2.1488 O   0  0  0  0  0  0  0  0  0  0  0  0
    0.7079   -1.9582    1.5646 N   0  0  0  0  0  0  0  0  0  0  0  0
    0.2648   -2.5891    0.9142 H   0  0  0  0  0  0  0  0  0  0  0  0
    1.5520   -2.5505    2.6068 C   0  0  0  0  0  0  0  0  0  0  0  0
    0.9305   -2.9471    3.4121 H   0  0  0  0  0  0  0  0  0  0  0  0
    2.1421   -3.3678    2.1884 H   0  0  0  0  0  0  0  0  0  0  0  0
    2.2348   -1.8072    3.0239 H   0  0  0  0  0  0  0  0  0  0  0  0
  5  6  2  0  0  0  0
  5  7  1  0  0  0  0
  2  3  1  0  0  0  0
  2  4  1  0  0  0  0
  2  5  1  0  0  0  0
  1  2  1  0  0  0  0
 23 24  2  0  0  0  0
 23 25  1  0  0  0  0
 21 22  1  0  0  0  0
 19 20  1  0  0  0  0
 19 21  1  0  0  0  0
 17 18  1  0  0  0  0
 17 19  1  0  0  0  0
 15 16  1  0  0  0  0
 15 17  2  0  0  0  0
 14 15  1  0  0  0  0
 14 21  2  0  0  0  0
 11 12  1  0  0  0  0
 11 13  1  0  0  0  0
 11 14  1  0  0  0  0
  9 10  1  0  0  0  0
  9 11  1  0  0  0  0
  9 23  1  0  0  0  0
  7  8  1  0  0  0  0
  7  9  1  0  0  0  0
 27 28  1  0  0  0  0
 27 29  1  0  0  0  0
 27 30  1  0  0  0  0
 25 26  1  0  0  0  0
 25 27  1  0  0  0  0
M  CHG  1  15   1
M  END
$$$$
default_name
  -OEChem-01062215323D

 30 30  0     1  0  0  0  0  0999 V2000
   -3.5507   -3.2183    1.8116 H   0  0  0  0  0  0  0  0  0  0  0  0
   -3.4597   -2.3913    1.1076 C   0  0  0  0  0  0  0  0  0  0  0  0
   -4.1577   -1.6043    1.3866 H   0  0  0  0  0  0  0  0  0  0  0  0
   -3.6807   -2.7523    0.1036 H   0  0  0  0  0  0  0  0  0  0  0  0
   -2.0477   -1.8543    1.1546 C   0  0  0  0  0  0  0  0  0  0  0  0
   -1.2227   -2.3443    1.9146 O   0  0  0  0  0  0  0  0  0  0  0  0
   -1.7517   -0.8483    0.3266 N   0  0  0  0  0  0  0  0  0  0  0  0
   -2.4847   -0.5123   -0.2804 H   0  0  0  0  0  0  0  0  0  0  0  0
   -0.4117   -0.2463    0.2186 C   0  0  1  0  0  0  0  0  0  0  0  0
    0.0688   -0.6440   -0.6787 H   0  0  0  0  0  0  0  0  0  0  0  0
   -0.5713    1.2781    0.0136 C   0  0  0  0  0  0  0  0  0  0  0  0
   -1.1351    1.6857    0.8566 H   0  0  0  0  0  0  0  0  0  0  0  0
    0.4161    1.7442    0.0331 H   0  0  0  0  0  0  0  0  0  0  0  0
   -1.2587    1.6860   -1.2722 C   0  0  0  0  0  0  0  0  0  0  0  0
   -0.6859    1.6533   -2.5289 N   0  3  0  0  0  0  0  0  0  0  0  0
    0.2510    1.2833   -2.7134 H   0  0  0  0  0  0  0  0  0  0  0  0
   -1.5960    2.0881   -3.4230 C   0  0  0  0  0  0  0  0  0  0  0  0
   -1.4378    2.1618   -4.4970 H   0  0  0  0  0  0  0  0  0  0  0  0
   -2.7337    2.3971   -2.7607 N   0  0  0  0  0  0  0  0  0  0  0  0
   -3.5914    2.7478   -3.1789 H   0  0  0  0  0  0  0  0  0  0  0  0
   -2.5390    2.1505   -1.4087 C   0  0  0  0  0  0  0  0  0  0  0  0
   -3.2573    2.2942   -0.6062 H   0  0  0  0  0  0  0  0  0  0  0  0
    0.4813   -0.6484    1.4059 C   0  0  0  0  0  0  0  0  0  0  0  0
    0.7347    0.1590    2.3012 O   0  0  0  0  0  0  0  0  0  0  0  0
    0.9628   -1.8975    1.3935 N   0  0  0  0  0  0  0  0  0  0  0  0
    0.6929   -2.4924    0.6249 H   0  0  0  0  0  0  0  0  0  0  0  0
    1.8545   -2.4705    2.4064 C   0  0  0  0  0  0  0  0  0  0  0  0
    1.2861   -3.1018    3.0923 H   0  0  0  0  0  0  0  0  0  0  0  0
    2.6205   -3.0813    1.9256 H   0  0  0  0  0  0  0  0  0  0  0  0
    2.3477   -1.6835    2.9808 H   0  0  0  0  0  0  0  0  0  0  0  0
  5  6  2  0  0  0  0
  5  7  1  0  0  0  0
  2  3  1  0  0  0  0
  2  4  1  0  0  0  0
  2  5  1  0  0  0  0
  1  2  1  0  0  0  0
 23 24  2  0  0  0  0
 23 25  1  0  0  0  0
 21 22  1  0  0  0  0
 19 20  1  0  0  0  0
 19 21  1  0  0  0  0
 17 18  1  0  0  0  0
 17 19  1  0  0  0  0
 15 16  1  0  0  0  0
 15 17  2  0  0  0  0
 14 15  1  0  0  0  0
 14 21  2  0  0  0  0
 11 12  1  0  0  0  0
 11 13  1  0  0  0  0
 11 14  1  0  0  0  0
  9 10  1  0  0  0  0
  9 11  1  0  0  0  0
  9 23  1  0  0  0  0
  7  8  1  0  0  0  0
  7  9  1  0  0  0  0
 27 28  1  0  0  0  0
 27 29  1  0  0  0  0
 27 30  1  0  0  0  0
 25 26  1  0  0  0  0
 25 27  1  0  0  0  0
M  CHG  1  15   1
M  END
$$$$
default_name
  -OEChem-01062215323D

 30 30  0     1  0  0  0  0  0999 V2000
   -3.5507   -3.2183    1.8116 H   0  0  0  0  0  0  0  0  0  0  0  0
   -3.4597   -2.3913    1.1076 C   0  0  0  0  0  0  0  0  0  0  0  0
   -4.1577   -1.6043    1.3866 H   0  0  0  0  0  0  0  0  0  0  0  0
   -3.6807   -2.7523    0.1036 H   0  0  0  0  0  0  0  0  0  0  0  0
   -2.0477   -1.8543    1.1546 C   0  0  0  0  0  0  0  0  0  0  0  0
   -1.2227   -2.3443    1.9146 O   0  0  0  0  0  0  0  0  0  0  0  0
   -1.7517   -0.8483    0.3266 N   0  0  0  0  0  0  0  0  0  0  0  0
   -2.4847   -0.5123   -0.2804 H   0  0  0  0  0  0  0  0  0  0  0  0
   -0.4117   -0.2463    0.2186 C   0  0  1  0  0  0  0  0  0  0  0  0
    0.0688   -0.6440   -0.6787 H   0  0  0  0  0  0  0  0  0  0  0  0
   -0.5713    1.2781    0.0136 C   0  0  0  0  0  0  0  0  0  0  0  0
   -1.1351    1.6857    0.8566 H   0  0  0  0  0  0  0  0  0  0  0  0
    0.4161    1.7442    0.0331 H   0  0  0  0  0  0  0  0  0  0  0  0
   -1.2587    1.6860   -1.2722 C   0  0  0  0  0  0  0  0  0  0  0  0
   -0.6859    1.6533   -2.5289 N   0  3  0  0  0  0  0  0  0  0  0  0
    0.2510    1.2833   -2.7134 H   0  0  0  0  0  0  0  0  0  0  0  0
   -1.5960    2.0881   -3.4230 C   0  0  0  0  0  0  0  0  0  0  0  0
   -1.4378    2.1618   -4.4970 H   0  0  0  0  0  0  0  0  0  0  0  0
   -2.7337    2.3971   -2.7607 N   0  0  0  0  0  0  0  0  0  0  0  0
   -3.5914    2.7478   -3.1789 H   0  0  0  0  0  0  0  0  0  0  0  0
   -2.5390    2.1505   -1.4087 C   0  0  0  0  0  0  0  0  0  0  0  0
   -3.2573    2.2942   -0.6062 H   0  0  0  0  0  0  0  0  0  0  0  0
    0.4813   -0.6484    1.4059 C   0  0  0  0  0  0  0  0  0  0  0  0
    0.5167    0.0421    2.4256 O   0  0  0  0  0  0  0  0  0  0  0  0
    1.2084   -1.7623    1.2545 N   0  0  0  0  0  0  0  0  0  0  0  0
    1.1067   -2.2700    0.3890 H   0  0  0  0  0  0  0  0  0  0  0  0
    2.1442   -2.3027    2.2453 C   0  0  0  0  0  0  0  0  0  0  0  0
    1.6820   -3.1322    2.7841 H   0  0  0  0  0  0  0  0  0  0  0  0
    3.0432   -2.6697    1.7471 H   0  0  0  0  0  0  0  0  0  0  0  0
    2.4350   -1.5350    2.9655 H   0  0  0  0  0  0  0  0  0  0  0  0
  5  6  2  0  0  0  0
  5  7  1  0  0  0  0
  2  3  1  0  0  0  0
  2  4  1  0  0  0  0
  2  5  1  0  0  0  0
  1  2  1  0  0  0  0
 23 24  2  0  0  0  0
 23 25  1  0  0  0  0
 21 22  1  0  0  0  0
 19 20  1  0  0  0  0
 19 21  1  0  0  0  0
 17 18  1  0  0  0  0
 17 19  1  0  0  0  0
 15 16  1  0  0  0  0
 15 17  2  0  0  0  0
 14 15  1  0  0  0  0
 14 21  2  0  0  0  0
 11 12  1  0  0  0  0
 11 13  1  0  0  0  0
 11 14  1  0  0  0  0
  9 10  1  0  0  0  0
  9 11  1  0  0  0  0
  9 23  1  0  0  0  0
  7  8  1  0  0  0  0
  7  9  1  0  0  0  0
 27 28  1  0  0  0  0
 27 29  1  0  0  0  0
 27 30  1  0  0  0  0
 25 26  1  0  0  0  0
 25 27  1  0  0  0  0
M  CHG  1  15   1
M  END
$$$$
default_name
  -OEChem-01062215323D

 30 30  0     1  0  0  0  0  0999 V2000
   -3.5507   -3.2183    1.8116 H   0  0  0  0  0  0  0  0  0  0  0  0
   -3.4597   -2.3913    1.1076 C   0  0  0  0  0  0  0  0  0  0  0  0
   -4.1577   -1.6043    1.3866 H   0  0  0  0  0  0  0  0  0  0  0  0
   -3.6807   -2.7523    0.1036 H   0  0  0  0  0  0  0  0  0  0  0  0
   -2.0477   -1.8543    1.1546 C   0  0  0  0  0  0  0  0  0  0  0  0
   -1.2227   -2.3443    1.9146 O   0  0  0  0  0  0  0  0  0  0  0  0
   -1.7517   -0.8483    0.3266 N   0  0  0  0  0  0  0  0  0  0  0  0
   -2.4847   -0.5123   -0.2804 H   0  0  0  0  0  0  0  0  0  0  0  0
   -0.4117   -0.2463    0.2186 C   0  0  1  0  0  0  0  0  0  0  0  0
    0.0688   -0.6440   -0.6787 H   0  0  0  0  0  0  0  0  0  0  0  0
   -0.5713    1.2781    0.0136 C   0  0  0  0  0  0  0  0  0  0  0  0
   -1.1351    1.6857    0.8566 H   0  0  0  0  0  0  0  0  0  0  0  0
    0.4161    1.7442    0.0331 H   0  0  0  0  0  0  0  0  0  0  0  0
   -1.2587    1.6860   -1.2722 C   0  0  0  0  0  0  0  0  0  0  0  0
   -0.6859    1.6533   -2.5289 N   0  3  0  0  0  0  0  0  0  0  0  0
    0.2510    1.2833   -2.7134 H   0  0  0  0  0  0  0  0  0  0  0  0
   -1.5960    2.0881   -3.4230 C   0  0  0  0  0  0  0  0  0  0  0  0
   -1.4378    2.1618   -4.4970 H   0  0  0  0  0  0  0  0  0  0  0  0
   -2.7337    2.3971   -2.7607 N   0  0  0  0  0  0  0  0  0  0  0  0
   -3.5914    2.7478   -3.1789 H   0  0  0  0  0  0  0  0  0  0  0  0
   -2.5390    2.1505   -1.4087 C   0  0  0  0  0  0  0  0  0  0  0  0
   -3.2573    2.2942   -0.6062 H   0  0  0  0  0  0  0  0  0  0  0  0
    0.4813   -0.6484    1.4059 C   0  0  0  0  0  0  0  0  0  0  0  0
    0.3211   -0.1331    2.5134 O   0  0  0  0  0  0  0  0  0  0  0  0
    1.4280   -1.5617    1.1573 N   0  0  0  0  0  0  0  0  0  0  0  0
    1.4780   -1.9372    0.2225 H   0  0  0  0  0  0  0  0  0  0  0  0
    2.4015   -2.0586    2.1345 C   0  0  0  0  0  0  0  0  0  0  0  0
    2.0914   -3.0363    2.5087 H   0  0  0  0  0  0  0  0  0  0  0  0
    3.3814   -2.1608    1.6651 H   0  0  0  0  0  0  0  0  0  0  0  0
    2.4908   -1.3718    2.9788 H   0  0  0  0  0  0  0  0  0  0  0  0
  5  6  2  0  0  0  0
  5  7  1  0  0  0  0
  2  3  1  0  0  0  0
  2  4  1  0  0  0  0
  2  5  1  0  0  0  0
  1  2  1  0  0  0  0
 23 24  2  0  0  0  0
 23 25  1  0  0  0  0
 21 22  1  0  0  0  0
 19 20  1  0  0  0  0
 19 21  1  0  0  0  0
 17 18  1  0  0  0  0
 17 19  1  0  0  0  0
 15 16  1  0  0  0  0
 15 17  2  0  0  0  0
 14 15  1  0  0  0  0
 14 21  2  0  0  0  0
 11 12  1  0  0  0  0
 11 13  1  0  0  0  0
 11 14  1  0  0  0  0
  9 10  1  0  0  0  0
  9 11  1  0  0  0  0
  9 23  1  0  0  0  0
  7  8  1  0  0  0  0
  7  9  1  0  0  0  0
 27 28  1  0  0  0  0
 27 29  1  0  0  0  0
 27 30  1  0  0  0  0
 25 26  1  0  0  0  0
 25 27  1  0  0  0  0
M  CHG  1  15   1
M  END
$$$$
default_name
  -OEChem-01062215323D

 30 30  0     1  0  0  0  0  0999 V2000
   -3.5507   -3.2183    1.8116 H   0  0  0  0  0  0  0  0  0  0  0  0
   -3.4597   -2.3913    1.1076 C   0  0  0  0  0  0  0  0  0  0  0  0
   -4.1577   -1.6043    1.3866 H   0  0  0  0  0  0  0  0  0  0  0  0
   -3.6807   -2.7523    0.1036 H   0  0  0  0  0  0  0  0  0  0  0  0
   -2.0477   -1.8543    1.1546 C   0  0  0  0  0  0  0  0  0  0  0  0
   -1.2227   -2.3443    1.9146 O   0  0  0  0  0  0  0  0  0  0  0  0
   -1.7517   -0.8483    0.3266 N   0  0  0  0  0  0  0  0  0  0  0  0
   -2.4847   -0.5123   -0.2804 H   0  0  0  0  0  0  0  0  0  0  0  0
   -0.4117   -0.2463    0.2186 C   0  0  1  0  0  0  0  0  0  0  0  0
    0.0688   -0.6440   -0.6787 H   0  0  0  0  0  0  0  0  0  0  0  0
   -0.5713    1.2781    0.0136 C   0  0  0  0  0  0  0  0  0  0  0  0
   -1.1351    1.6857    0.8566 H   0  0  0  0  0  0  0  0  0  0  0  0
    0.4161    1.7442    0.0331 H   0  0  0  0  0  0  0  0  0  0  0  0
   -1.2587    1.6860   -1.2722 C   0  0  0  0  0  0  0  0  0  0  0  0
   -0.6859    1.6533   -2.5289 N   0  3  0  0  0  0  0  0  0  0  0  0
    0.2510    1.2833   -2.7134 H   0  0  0  0  0  0  0  0  0  0  0  0
   -1.5960    2.0881   -3.4230 C   0  0  0  0  0  0  0  0  0  0  0  0
   -1.4378    2.1618   -4.4970 H   0  0  0  0  0  0  0  0  0  0  0  0
   -2.7337    2.3971   -2.7607 N   0  0  0  0  0  0  0  0  0  0  0  0
   -3.5914    2.7478   -3.1789 H   0  0  0  0  0  0  0  0  0  0  0  0
   -2.5390    2.1505   -1.4087 C   0  0  0  0  0  0  0  0  0  0  0  0
   -3.2573    2.2942   -0.6062 H   0  0  0  0  0  0  0  0  0  0  0  0
    0.4813   -0.6484    1.4059 C   0  0  0  0  0  0  0  0  0  0  0  0
    0.1611   -0.3546    2.5587 O   0  0  0  0  0  0  0  0  0  0  0  0
    1.6067   -1.3096    1.1083 N   0  0  0  0  0  0  0  0  0  0  0  0
    1.7814   -1.5166    0.1367 H   0  0  0  0  0  0  0  0  0  0  0  0
    2.6087   -1.7548    2.0815 C   0  0  0  0  0  0  0  0  0  0  0  0
    2.4863   -2.8205    2.2848 H   0  0  0  0  0  0  0  0  0  0  0  0
    3.6121   -1.5895    1.6851 H   0  0  0  0  0  0  0  0  0  0  0  0
    2.5111   -1.2050    3.0200 H   0  0  0  0  0  0  0  0  0  0  0  0
  5  6  2  0  0  0  0
  5  7  1  0  0  0  0
  2  3  1  0  0  0  0
  2  4  1  0  0  0  0
  2  5  1  0  0  0  0
  1  2  1  0  0  0  0
 23 24  2  0  0  0  0
 23 25  1  0  0  0  0
 21 22  1  0  0  0  0
 19 20  1  0  0  0  0
 19 21  1  0  0  0  0
 17 18  1  0  0  0  0
 17 19  1  0  0  0  0
 15 16  1  0  0  0  0
 15 17  2  0  0  0  0
 14 15  1  0  0  0  0
 14 21  2  0  0  0  0
 11 12  1  0  0  0  0
 11 13  1  0  0  0  0
 11 14  1  0  0  0  0
  9 10  1  0  0  0  0
  9 11  1  0  0  0  0
  9 23  1  0  0  0  0
  7  8  1  0  0  0  0
  7  9  1  0  0  0  0
 27 28  1  0  0  0  0
 27 29  1  0  0  0  0
 27 30  1  0  0  0  0
 25 26  1  0  0  0  0
 25 27  1  0  0  0  0
M  CHG  1  15   1
M  END
$$$$
default_name
  -OEChem-01062215323D

 30 30  0     1  0  0  0  0  0999 V2000
   -3.5507   -3.2183    1.8116 H   0  0  0  0  0  0  0  0  0  0  0  0
   -3.4597   -2.3913    1.1076 C   0  0  0  0  0  0  0  0  0  0  0  0
   -4.1577   -1.6043    1.3866 H   0  0  0  0  0  0  0  0  0  0  0  0
   -3.6807   -2.7523    0.1036 H   0  0  0  0  0  0  0  0  0  0  0  0
   -2.0477   -1.8543    1.1546 C   0  0  0  0  0  0  0  0  0  0  0  0
   -1.2227   -2.3443    1.9146 O   0  0  0  0  0  0  0  0  0  0  0  0
   -1.7517   -0.8483    0.3266 N   0  0  0  0  0  0  0  0  0  0  0  0
   -2.4847   -0.5123   -0.2804 H   0  0  0  0  0  0  0  0  0  0  0  0
   -0.4117   -0.2463    0.2186 C   0  0  1  0  0  0  0  0  0  0  0  0
    0.0688   -0.6440   -0.6787 H   0  0  0  0  0  0  0  0  0  0  0  0
   -0.5713    1.2781    0.0136 C   0  0  0  0  0  0  0  0  0  0  0  0
   -1.1351    1.6857    0.8566 H   0  0  0  0  0  0  0  0  0  0  0  0
    0.4161    1.7442    0.0331 H   0  0  0  0  0  0  0  0  0  0  0  0
   -1.2587    1.6860   -1.2722 C   0  0  0  0  0  0  0  0  0  0  0  0
   -0.6859    1.6533   -2.5289 N   0  3  0  0  0  0  0  0  0  0  0  0
    0.2510    1.2833   -2.7134 H   0  0  0  0  0  0  0  0  0  0  0  0
   -1.5960    2.0881   -3.4230 C   0  0  0  0  0  0  0  0  0  0  0  0
   -1.4378    2.1618   -4.4970 H   0  0  0  0  0  0  0  0  0  0  0  0
   -2.7337    2.3971   -2.7607 N   0  0  0  0  0  0  0  0  0  0  0  0
   -3.5914    2.7478   -3.1789 H   0  0  0  0  0  0  0  0  0  0  0  0
   -2.5390    2.1505   -1.4087 C   0  0  0  0  0  0  0  0  0  0  0  0
   -3.2573    2.2942   -0.6062 H   0  0  0  0  0  0  0  0  0  0  0  0
    0.4813   -0.6484    1.4059 C   0  0  0  0  0  0  0  0  0  0  0  0
    0.0478   -0.6072    2.5583 O   0  0  0  0  0  0  0  0  0  0  0  0
    1.7323   -1.0230    1.1109 N   0  0  0  0  0  0  0  0  0  0  0  0
    1.9964   -1.0369    0.1376 H   0  0  0  0  0  0  0  0  0  0  0  0
    2.7519   -1.4120    2.0899 C   0  0  0  0  0  0  0  0  0  0  0  0
    2.8399   -2.4996    2.1275 H   0  0  0  0  0  0  0  0  0  0  0  0
    3.7194   -0.9946    1.8059 H   0  0  0  0  0  0  0  0  0  0  0  0
    2.4947   -1.0461    3.0862 H   0  0  0  0  0  0  0  0  0  0  0  0
  5  6  2  0  0  0  0
  5  7  1  0  0  0  0
  2  3  1  0  0  0  0
  2  4  1  0  0  0  0
  2  5  1  0  0  0  0
  1  2  1  0  0  0  0
 23 24  2  0  0  0  0
 23 25  1  0  0  0  0
 21 22  1  0  0  0  0
 19 20  1  0  0  0  0
 19 21  1  0  0  0  0
 17 18  1  0  0  0  0
 17 19  1  0  0  0  0
 15 16  1  0  0  0  0
 15 17  2  0  0  0  0
 14 15  1  0  0  0  0
 14 21  2  0  0  0  0
 11 12  1  0  0  0  0
 11 13  1  0  0  0  0
 11 14  1  0  0  0  0
  9 10  1  0  0  0  0
  9 11  1  0  0  0  0
  9 23  1  0  0  0  0
  7  8  1  0  0  0  0
  7  9  1  0  0  0  0
 27 28  1  0  0  0  0
 27 29  1  0  0  0  0
 27 30  1  0  0  0  0
 25 26  1  0  0  0  0
 25 27  1  0  0  0  0
M  CHG  1  15   1
M  END
$$$$
default_name
  -OEChem-01062215323D

 30 30  0     1  0  0  0  0  0999 V2000
   -3.5507   -3.2183    1.8116 H   0  0  0  0  0  0  0  0  0  0  0  0
   -3.4597   -2.3913    1.1076 C   0  0  0  0  0  0  0  0  0  0  0  0
   -4.1577   -1.6043    1.3866 H   0  0  0  0  0  0  0  0  0  0  0  0
   -3.6807   -2.7523    0.1036 H   0  0  0  0  0  0  0  0  0  0  0  0
   -2.0477   -1.8543    1.1546 C   0  0  0  0  0  0  0  0  0  0  0  0
   -1.2227   -2.3443    1.9146 O   0  0  0  0  0  0  0  0  0  0  0  0
   -1.7517   -0.8483    0.3266 N   0  0  0  0  0  0  0  0  0  0  0  0
   -2.4847   -0.5123   -0.2804 H   0  0  0  0  0  0  0  0  0  0  0  0
   -0.4117   -0.2463    0.2186 C   0  0  1  0  0  0  0  0  0  0  0  0
    0.0688   -0.6440   -0.6787 H   0  0  0  0  0  0  0  0  0  0  0  0
   -0.5713    1.2781    0.0136 C   0  0  0  0  0  0  0  0  0  0  0  0
   -1.1351    1.6857    0.8566 H   0  0  0  0  0  0  0  0  0  0  0  0
    0.4161    1.7442    0.0331 H   0  0  0  0  0  0  0  0  0  0  0  0
   -1.2587    1.6860   -1.2722 C   0  0  0  0  0  0  0  0  0  0  0  0
   -0.6859    1.6533   -2.5289 N   0  3  0  0  0  0  0  0  0  0  0  0
    0.2510    1.2833   -2.7134 H   0  0  0  0  0  0  0  0  0  0  0  0
   -1.5960    2.0881   -3.4230 C   0  0  0  0  0  0  0  0  0  0  0  0
   -1.4378    2.1618   -4.4970 H   0  0  0  0  0  0  0  0  0  0  0  0
   -2.7337    2.3971   -2.7607 N   0  0  0  0  0  0  0  0  0  0  0  0
   -3.5914    2.7478   -3.1789 H   0  0  0  0  0  0  0  0  0  0  0  0
   -2.5390    2.1505   -1.4087 C   0  0  0  0  0  0  0  0  0  0  0  0
   -3.2573    2.2942   -0.6062 H   0  0  0  0  0  0  0  0  0  0  0  0
    0.4813   -0.6484    1.4059 C   0  0  0  0  0  0  0  0  0  0  0  0
   -0.0112   -0.8738    2.5124 O   0  0  0  0  0  0  0  0  0  0  0  0
    1.7961   -0.7215    1.1650 N   0  0  0  0  0  0  0  0  0  0  0  0
    2.1081   -0.5307    0.2250 H   0  0  0  0  0  0  0  0  0  0  0  0
    2.8211   -1.0536    2.1593 C   0  0  0  0  0  0  0  0  0  0  0  0
    3.1279   -2.0955    2.0478 H   0  0  0  0  0  0  0  0  0  0  0  0
    3.6962   -0.4166    2.0192 H   0  0  0  0  0  0  0  0  0  0  0  0
    2.4426   -0.9058    3.1729 H   0  0  0  0  0  0  0  0  0  0  0  0
  5  6  2  0  0  0  0
  5  7  1  0  0  0  0
  2  3  1  0  0  0  0
  2  4  1  0  0  0  0
  2  5  1  0  0  0  0
  1  2  1  0  0  0  0
 23 24  2  0  0  0  0
 23 25  1  0  0  0  0
 21 22  1  0  0  0  0
 19 20  1  0  0  0  0
 19 21  1  0  0  0  0
 17 18  1  0  0  0  0
 17 19  1  0  0  0  0
 15 16  1  0  0  0  0
 15 17  2  0  0  0  0
 14 15  1  0  0  0  0
 14 21  2  0  0  0  0
 11 12  1  0  0  0  0
 11 13  1  0  0  0  0
 11 14  1  0  0  0  0
  9 10  1  0  0  0  0
  9 11  1  0  0  0  0
  9 23  1  0  0  0  0
  7  8  1  0  0  0  0
  7  9  1  0  0  0  0
 27 28  1  0  0  0  0
 27 29  1  0  0  0  0
 27 30  1  0  0  0  0
 25 26  1  0  0  0  0
 25 27  1  0  0  0  0
M  CHG  1  15   1
M  END
$$$$
default_name
  -OEChem-01062215323D

 30 30  0     1  0  0  0  0  0999 V2000
   -3.5507   -3.2183    1.8116 H   0  0  0  0  0  0  0  0  0  0  0  0
   -3.4597   -2.3913    1.1076 C   0  0  0  0  0  0  0  0  0  0  0  0
   -4.1577   -1.6043    1.3866 H   0  0  0  0  0  0  0  0  0  0  0  0
   -3.6807   -2.7523    0.1036 H   0  0  0  0  0  0  0  0  0  0  0  0
   -2.0477   -1.8543    1.1546 C   0  0  0  0  0  0  0  0  0  0  0  0
   -1.2227   -2.3443    1.9146 O   0  0  0  0  0  0  0  0  0  0  0  0
   -1.7517   -0.8483    0.3266 N   0  0  0  0  0  0  0  0  0  0  0  0
   -2.4847   -0.5123   -0.2804 H   0  0  0  0  0  0  0  0  0  0  0  0
   -0.4117   -0.2463    0.2186 C   0  0  1  0  0  0  0  0  0  0  0  0
    0.0688   -0.6440   -0.6787 H   0  0  0  0  0  0  0  0  0  0  0  0
   -0.5713    1.2781    0.0136 C   0  0  0  0  0  0  0  0  0  0  0  0
   -1.1351    1.6857    0.8566 H   0  0  0  0  0  0  0  0  0  0  0  0
    0.4161    1.7442    0.0331 H   0  0  0  0  0  0  0  0  0  0  0  0
   -1.2587    1.6860   -1.2722 C   0  0  0  0  0  0  0  0  0  0  0  0
   -0.6859    1.6533   -2.5289 N   0  3  0  0  0  0  0  0  0  0  0  0
    0.2510    1.2833   -2.7134 H   0  0  0  0  0  0  0  0  0  0  0  0
   -1.5960    2.0881   -3.4230 C   0  0  0  0  0  0  0  0  0  0  0  0
   -1.4378    2.1618   -4.4970 H   0  0  0  0  0  0  0  0  0  0  0  0
   -2.7337    2.3971   -2.7607 N   0  0  0  0  0  0  0  0  0  0  0  0
   -3.5914    2.7478   -3.1789 H   0  0  0  0  0  0  0  0  0  0  0  0
   -2.5390    2.1505   -1.4087 C   0  0  0  0  0  0  0  0  0  0  0  0
   -3.2573    2.2942   -0.6062 H   0  0  0  0  0  0  0  0  0  0  0  0
    0.4813   -0.6484    1.4059 C   0  0  0  0  0  0  0  0  0  0  0  0
   -0.0119   -1.1362    2.4240 O   0  0  0  0  0  0  0  0  0  0  0  0
    1.7940   -0.4256    1.2668 N   0  0  0  0  0  0  0  0  0  0  0  0
    2.1091   -0.0326    0.3930 H   0  0  0  0  0  0  0  0  0  0  0  0
    2.8117   -0.7040    2.2847 C   0  0  0  0  0  0  0  0  0  0  0  0
    3.3309   -1.6356    2.0509 H   0  0  0  0  0  0  0  0  0  0  0  0
    3.5439    0.1049    2.3104 H   0  0  0  0  0  0  0  0  0  0  0  0
    2.3584   -0.7937    3.2742 H   0  0  0  0  0  0  0  0  0  0  0  0
  5  6  2  0  0  0  0
  5  7  1  0  0  0  0
  2  3  1  0  0  0  0
  2  4  1  0  0  0  0
  2  5  1  0  0  0  0
  1  2  1  0  0  0  0
 23 24  2  0  0  0  0
 23 25  1  0  0  0  0
 21 22  1  0  0  0  0
 19 20  1  0  0  0  0
 19 21  1  0  0  0  0
 17 18  1  0  0  0  0
 17 19  1  0  0  0  0
 15 16  1  0  0  0  0
 15 17  2  0  0  0  0
 14 15  1  0  0  0  0
 14 21  2  0  0  0  0
 11 12  1  0  0  0  0
 11 13  1  0  0  0  0
 11 14  1  0  0  0  0
  9 10  1  0  0  0  0
  9 11  1  0  0  0  0
  9 23  1  0  0  0  0
  7  8  1  0  0  0  0
  7  9  1  0  0  0  0
 27 28  1  0  0  0  0
 27 29  1  0  0  0  0
 27 30  1  0  0  0  0
 25 26  1  0  0  0  0
 25 27  1  0  0  0  0
M  CHG  1  15   1
M  END
$$$$
default_name
  -OEChem-01062215323D

 30 30  0     1  0  0  0  0  0999 V2000
   -3.5507   -3.2183    1.8116 H   0  0  0  0  0  0  0  0  0  0  0  0
   -3.4597   -2.3913    1.1076 C   0  0  0  0  0  0  0  0  0  0  0  0
   -4.1577   -1.6043    1.3866 H   0  0  0  0  0  0  0  0  0  0  0  0
   -3.6807   -2.7523    0.1036 H   0  0  0  0  0  0  0  0  0  0  0  0
   -2.0477   -1.8543    1.1546 C   0  0  0  0  0  0  0  0  0  0  0  0
   -1.2227   -2.3443    1.9146 O   0  0  0  0  0  0  0  0  0  0  0  0
   -1.7517   -0.8483    0.3266 N   0  0  0  0  0  0  0  0  0  0  0  0
   -2.4847   -0.5123   -0.2804 H   0  0  0  0  0  0  0  0  0  0  0  0
   -0.4117   -0.2463    0.2186 C   0  0  1  0  0  0  0  0  0  0  0  0
   -0.0395   -0.4235   -0.7935 H   0  0  0  0  0  0  0  0  0  0  0  0
   -0.5434    1.2843    0.3952 C   0  0  0  0  0  0  0  0  0  0  0  0
   -1.0037    1.4845    1.3661 H   0  0  0  0  0  0  0  0  0  0  0  0
    0.4551    1.7263    0.4166 H   0  0  0  0  0  0  0  0  0  0  0  0
   -1.3469    1.9891   -0.6772 C   0  0  0  0  0  0  0  0  0  0  0  0
   -0.9086    2.2509   -1.9608 N   0  3  0  0  0  0  0  0  0  0  0  0
   -0.0080    1.9291   -2.3270 H   0  0  0  0  0  0  0  0  0  0  0  0
   -1.8921    2.8905   -2.6243 C   0  0  0  0  0  0  0  0  0  0  0  0
   -1.8437    3.2151   -3.6618 H   0  0  0  0  0  0  0  0  0  0  0  0
   -2.9448    3.0412   -1.7891 N   0  0  0  0  0  0  0  0  0  0  0  0
   -3.8296    3.4863   -2.0182 H   0  0  0  0  0  0  0  0  0  0  0  0
   -2.6191    2.4807   -0.5618 C   0  0  0  0  0  0  0  0  0  0  0  0
   -3.2455    2.4351    0.3248 H   0  0  0  0  0  0  0  0  0  0  0  0
    0.5862   -0.9234    1.1749 C   0  0  0  0  0  0  0  0  0  0  0  0
    0.2227   -1.8393    1.9143 O   0  0  0  0  0  0  0  0  0  0  0  0
    1.8396   -0.4532    1.1594 N   0  0  0  0  0  0  0  0  0  0  0  0
    2.0488    0.2919    0.5127 H   0  0  0  0  0  0  0  0  0  0  0  0
    2.9333   -0.9323    2.0101 C   0  0  0  0  0  0  0  0  0  0  0  0
    3.5822   -1.6035    1.4439 H   0  0  0  0  0  0  0  0  0  0  0  0
    3.5287   -0.0880    2.3619 H   0  0  0  0  0  0  0  0  0  0  0  0
    2.5449   -1.4691    2.8782 H   0  0  0  0  0  0  0  0  0  0  0  0
  5  6  2  0  0  0  0
  5  7  1  0  0  0  0
  2  3  1  0  0  0  0
  2  4  1  0  0  0  0
  2  5  1  0  0  0  0
  1  2  1  0  0  0  0
 23 24  2  0  0  0  0
 23 25  1  0  0  0  0
 21 22  1  0  0  0  0
 19 20  1  0  0  0  0
 19 21  1  0  0  0  0
 17 18  1  0  0  0  0
 17 19  1  0  0  0  0
 15 16  1  0  0  0  0
 15 17  2  0  0  0  0
 14 15  1  0  0  0  0
 14 21  2  0  0  0  0
 11 12  1  0  0  0  0
 11 13  1  0  0  0  0
 11 14  1  0  0  0  0
  9 10  1  0  0  0  0
  9 11  1  0  0  0  0
  9 23  1  0  0  0  0
  7  8  1  0  0  0  0
  7  9  1  0  0  0  0
 27 28  1  0  0  0  0
 27 29  1  0  0  0  0
 27 30  1  0  0  0  0
 25 26  1  0  0  0  0
 25 27  1  0  0  0  0
M  CHG  1  15   1
M  END
$$$$
default_name
  -OEChem-01062215323D

 30 30  0     1  0  0  0  0  0999 V2000
   -3.5507   -3.2183    1.8116 H   0  0  0  0  0  0  0  0  0  0  0  0
   -3.4597   -2.3913    1.1076 C   0  0  0  0  0  0  0  0  0  0  0  0
   -4.1577   -1.6043    1.3866 H   0  0  0  0  0  0  0  0  0  0  0  0
   -3.6807   -2.7523    0.1036 H   0  0  0  0  0  0  0  0  0  0  0  0
   -2.0477   -1.8543    1.1546 C   0  0  0  0  0  0  0  0  0  0  0  0
   -1.2227   -2.3443    1.9146 O   0  0  0  0  0  0  0  0  0  0  0  0
   -1.7517   -0.8483    0.3266 N   0  0  0  0  0  0  0  0  0  0  0  0
   -2.4847   -0.5123   -0.2804 H   0  0  0  0  0  0  0  0  0  0  0  0
   -0.4117   -0.2463    0.2186 C   0  0  1  0  0  0  0  0  0  0  0  0
   -0.0395   -0.4235   -0.7935 H   0  0  0  0  0  0  0  0  0  0  0  0
   -0.5434    1.2843    0.3952 C   0  0  0  0  0  0  0  0  0  0  0  0
   -1.0037    1.4845    1.3661 H   0  0  0  0  0  0  0  0  0  0  0  0
    0.4551    1.7263    0.4166 H   0  0  0  0  0  0  0  0  0  0  0  0
   -1.3469    1.9891   -0.6772 C   0  0  0  0  0  0  0  0  0  0  0  0
   -0.9086    2.2509   -1.9608 N   0  3  0  0  0  0  0  0  0  0  0  0
   -0.0080    1.9291   -2.3270 H   0  0  0  0  0  0  0  0  0  0  0  0
   -1.8921    2.8905   -2.6243 C   0  0  0  0  0  0  0  0  0  0  0  0
   -1.8437    3.2151   -3.6618 H   0  0  0  0  0  0  0  0  0  0  0  0
   -2.9448    3.0412   -1.7891 N   0  0  0  0  0  0  0  0  0  0  0  0
   -3.8296    3.4863   -2.0182 H   0  0  0  0  0  0  0  0  0  0  0  0
   -2.6191    2.4807   -0.5618 C   0  0  0  0  0  0  0  0  0  0  0  0
   -3.2455    2.4351    0.3248 H   0  0  0  0  0  0  0  0  0  0  0  0
    0.5862   -0.9234    1.1749 C   0  0  0  0  0  0  0  0  0  0  0  0
    0.3121   -2.0001    1.7072 O   0  0  0  0  0  0  0  0  0  0  0  0
    1.7362   -0.2741    1.3942 N   0  0  0  0  0  0  0  0  0  0  0  0
    1.8790    0.5968    0.9058 H   0  0  0  0  0  0  0  0  0  0  0  0
    2.8048   -0.7254    2.2907 C   0  0  0  0  0  0  0  0  0  0  0  0
    3.6120   -1.1799    1.7128 H   0  0  0  0  0  0  0  0  0  0  0  0
    3.2093    0.1233    2.8449 H   0  0  0  0  0  0  0  0  0  0  0  0
    2.4287   -1.4599    3.0059 H   0  0  0  0  0  0  0  0  0  0  0  0
  5  6  2  0  0  0  0
  5  7  1  0  0  0  0
  2  3  1  0  0  0  0
  2  4  1  0  0  0  0
  2  5  1  0  0  0  0
  1  2  1  0  0  0  0
 23 24  2  0  0  0  0
 23 25  1  0  0  0  0
 21 22  1  0  0  0  0
 19 20  1  0  0  0  0
 19 21  1  0  0  0  0
 17 18  1  0  0  0  0
 17 19  1  0  0  0  0
 15 16  1  0  0  0  0
 15 17  2  0  0  0  0
 14 15  1  0  0  0  0
 14 21  2  0  0  0  0
 11 12  1  0  0  0  0
 11 13  1  0  0  0  0
 11 14  1  0  0  0  0
  9 10  1  0  0  0  0
  9 11  1  0  0  0  0
  9 23  1  0  0  0  0
  7  8  1  0  0  0  0
  7  9  1  0  0  0  0
 27 28  1  0  0  0  0
 27 29  1  0  0  0  0
 27 30  1  0  0  0  0
 25 26  1  0  0  0  0
 25 27  1  0  0  0  0
M  CHG  1  15   1
M  END
$$$$
default_name
  -OEChem-01062215323D

 30 30  0     1  0  0  0  0  0999 V2000
   -3.5507   -3.2183    1.8116 H   0  0  0  0  0  0  0  0  0  0  0  0
   -3.4597   -2.3913    1.1076 C   0  0  0  0  0  0  0  0  0  0  0  0
   -4.1577   -1.6043    1.3866 H   0  0  0  0  0  0  0  0  0  0  0  0
   -3.6807   -2.7523    0.1036 H   0  0  0  0  0  0  0  0  0  0  0  0
   -2.0477   -1.8543    1.1546 C   0  0  0  0  0  0  0  0  0  0  0  0
   -1.2227   -2.3443    1.9146 O   0  0  0  0  0  0  0  0  0  0  0  0
   -1.7517   -0.8483    0.3266 N   0  0  0  0  0  0  0  0  0  0  0  0
   -2.4847   -0.5123   -0.2804 H   0  0  0  0  0  0  0  0  0  0  0  0
   -0.4117   -0.2463    0.2186 C   0  0  1  0  0  0  0  0  0  0  0  0
   -0.0395   -0.4235   -0.7935 H   0  0  0  0  0  0  0  0  0  0  0  0
   -0.5434    1.2843    0.3952 C   0  0  0  0  0  0  0  0  0  0  0  0
   -1.0037    1.4845    1.3661 H   0  0  0  0  0  0  0  0  0  0  0  0
    0.4551    1.7263    0.4166 H   0  0  0  0  0  0  0  0  0  0  0  0
   -1.3469    1.9891   -0.6772 C   0  0  0  0  0  0  0  0  0  0  0  0
   -0.9086    2.2509   -1.9608 N   0  3  0  0  0  0  0  0  0  0  0  0
   -0.0080    1.9291   -2.3270 H   0  0  0  0  0  0  0  0  0  0  0  0
   -1.8921    2.8905   -2.6243 C   0  0  0  0  0  0  0  0  0  0  0  0
   -1.8437    3.2151   -3.6618 H   0  0  0  0  0  0  0  0  0  0  0  0
   -2.9448    3.0412   -1.7891 N   0  0  0  0  0  0  0  0  0  0  0  0
   -3.8296    3.4863   -2.0182 H   0  0  0  0  0  0  0  0  0  0  0  0
   -2.6191    2.4807   -0.5618 C   0  0  0  0  0  0  0  0  0  0  0  0
   -3.2455    2.4351    0.3248 H   0  0  0  0  0  0  0  0  0  0  0  0
    0.5862   -0.9234    1.1749 C   0  0  0  0  0  0  0  0  0  0  0  0
    0.4478   -2.1062    1.4905 O   0  0  0  0  0  0  0  0  0  0  0  0
    1.5808   -0.1570    1.6392 N   0  0  0  0  0  0  0  0  0  0  0  0
    1.6212    0.7980    1.3173 H   0  0  0  0  0  0  0  0  0  0  0  0
    2.6155   -0.5933    2.5818 C   0  0  0  0  0  0  0  0  0  0  0  0
    3.5421   -0.8109    2.0470 H   0  0  0  0  0  0  0  0  0  0  0  0
    2.8117    0.1950    3.3106 H   0  0  0  0  0  0  0  0  0  0  0  0
    2.3004   -1.4911    3.1177 H   0  0  0  0  0  0  0  0  0  0  0  0
  5  6  2  0  0  0  0
  5  7  1  0  0  0  0
  2  3  1  0  0  0  0
  2  4  1  0  0  0  0
  2  5  1  0  0  0  0
  1  2  1  0  0  0  0
 23 24  2  0  0  0  0
 23 25  1  0  0  0  0
 21 22  1  0  0  0  0
 19 20  1  0  0  0  0
 19 21  1  0  0  0  0
 17 18  1  0  0  0  0
 17 19  1  0  0  0  0
 15 16  1  0  0  0  0
 15 17  2  0  0  0  0
 14 15  1  0  0  0  0
 14 21  2  0  0  0  0
 11 12  1  0  0  0  0
 11 13  1  0  0  0  0
 11 14  1  0  0  0  0
  9 10  1  0  0  0  0
  9 11  1  0  0  0  0
  9 23  1  0  0  0  0
  7  8  1  0  0  0  0
  7  9  1  0  0  0  0
 27 28  1  0  0  0  0
 27 29  1  0  0  0  0
 27 30  1  0  0  0  0
 25 26  1  0  0  0  0
 25 27  1  0  0  0  0
M  CHG  1  15   1
M  END
$$$$
default_name
  -OEChem-01062215323D

 30 30  0     1  0  0  0  0  0999 V2000
   -3.5507   -3.2183    1.8116 H   0  0  0  0  0  0  0  0  0  0  0  0
   -3.4597   -2.3913    1.1076 C   0  0  0  0  0  0  0  0  0  0  0  0
   -4.1577   -1.6043    1.3866 H   0  0  0  0  0  0  0  0  0  0  0  0
   -3.6807   -2.7523    0.1036 H   0  0  0  0  0  0  0  0  0  0  0  0
   -2.0477   -1.8543    1.1546 C   0  0  0  0  0  0  0  0  0  0  0  0
   -1.2227   -2.3443    1.9146 O   0  0  0  0  0  0  0  0  0  0  0  0
   -1.7517   -0.8483    0.3266 N   0  0  0  0  0  0  0  0  0  0  0  0
   -2.4847   -0.5123   -0.2804 H   0  0  0  0  0  0  0  0  0  0  0  0
   -0.4117   -0.2463    0.2186 C   0  0  1  0  0  0  0  0  0  0  0  0
   -0.0395   -0.4235   -0.7935 H   0  0  0  0  0  0  0  0  0  0  0  0
   -0.5434    1.2843    0.3952 C   0  0  0  0  0  0  0  0  0  0  0  0
   -1.0037    1.4845    1.3661 H   0  0  0  0  0  0  0  0  0  0  0  0
    0.4551    1.7263    0.4166 H   0  0  0  0  0  0  0  0  0  0  0  0
   -1.3469    1.9891   -0.6772 C   0  0  0  0  0  0  0  0  0  0  0  0
   -0.9086    2.2509   -1.9608 N   0  3  0  0  0  0  0  0  0  0  0  0
   -0.0080    1.9291   -2.3270 H   0  0  0  0  0  0  0  0  0  0  0  0
   -1.8921    2.8905   -2.6243 C   0  0  0  0  0  0  0  0  0  0  0  0
   -1.8437    3.2151   -3.6618 H   0  0  0  0  0  0  0  0  0  0  0  0
   -2.9448    3.0412   -1.7891 N   0  0  0  0  0  0  0  0  0  0  0  0
   -3.8296    3.4863   -2.0182 H   0  0  0  0  0  0  0  0  0  0  0  0
   -2.6191    2.4807   -0.5618 C   0  0  0  0  0  0  0  0  0  0  0  0
   -3.2455    2.4351    0.3248 H   0  0  0  0  0  0  0  0  0  0  0  0
    0.5862   -0.9234    1.1749 C   0  0  0  0  0  0  0  0  0  0  0  0
    0.6206   -2.1505    1.2787 O   0  0  0  0  0  0  0  0  0  0  0  0
    1.3839   -0.1101    1.8779 N   0  0  0  0  0  0  0  0  0  0  0  0
    1.2929    0.8819    1.7193 H   0  0  0  0  0  0  0  0  0  0  0  0
    2.3782   -0.5450    2.8636 C   0  0  0  0  0  0  0  0  0  0  0  0
    3.3772   -0.5219    2.4237 H   0  0  0  0  0  0  0  0  0  0  0  0
    2.3632    0.1222    3.7272 H   0  0  0  0  0  0  0  0  0  0  0  0
    2.1688   -1.5607    3.2058 H   0  0  0  0  0  0  0  0  0  0  0  0
  5  6  2  0  0  0  0
  5  7  1  0  0  0  0
  2  3  1  0  0  0  0
  2  4  1  0  0  0  0
  2  5  1  0  0  0  0
  1  2  1  0  0  0  0
 23 24  2  0  0  0  0
 23 25  1  0  0  0  0
 21 22  1  0  0  0  0
 19 20  1  0  0  0  0
 19 21  1  0  0  0  0
 17 18  1  0  0  0  0
 17 19  1  0  0  0  0
 15 16  1  0  0  0  0
 15 17  2  0  0  0  0
 14 15  1  0  0  0  0
 14 21  2  0  0  0  0
 11 12  1  0  0  0  0
 11 13  1  0  0  0  0
 11 14  1  0  0  0  0
  9 10  1  0  0  0  0
  9 11  1  0  0  0  0
  9 23  1  0  0  0  0
  7  8  1  0  0  0  0
  7  9  1  0  0  0  0
 27 28  1  0  0  0  0
 27 29  1  0  0  0  0
 27 30  1  0  0  0  0
 25 26  1  0  0  0  0
 25 27  1  0  0  0  0
M  CHG  1  15   1
M  END
$$$$
default_name
  -OEChem-01062215323D

 30 30  0     1  0  0  0  0  0999 V2000
   -3.5507   -3.2183    1.8116 H   0  0  0  0  0  0  0  0  0  0  0  0
   -3.4597   -2.3913    1.1076 C   0  0  0  0  0  0  0  0  0  0  0  0
   -4.1577   -1.6043    1.3866 H   0  0  0  0  0  0  0  0  0  0  0  0
   -3.6807   -2.7523    0.1036 H   0  0  0  0  0  0  0  0  0  0  0  0
   -2.0477   -1.8543    1.1546 C   0  0  0  0  0  0  0  0  0  0  0  0
   -1.2227   -2.3443    1.9146 O   0  0  0  0  0  0  0  0  0  0  0  0
   -1.7517   -0.8483    0.3266 N   0  0  0  0  0  0  0  0  0  0  0  0
   -2.4847   -0.5123   -0.2804 H   0  0  0  0  0  0  0  0  0  0  0  0
   -0.4117   -0.2463    0.2186 C   0  0  1  0  0  0  0  0  0  0  0  0
   -0.0395   -0.4235   -0.7935 H   0  0  0  0  0  0  0  0  0  0  0  0
   -0.5434    1.2843    0.3952 C   0  0  0  0  0  0  0  0  0  0  0  0
   -1.0037    1.4845    1.3661 H   0  0  0  0  0  0  0  0  0  0  0  0
    0.4551    1.7263    0.4166 H   0  0  0  0  0  0  0  0  0  0  0  0
   -1.3469    1.9891   -0.6772 C   0  0  0  0  0  0  0  0  0  0  0  0
   -0.9086    2.2509   -1.9608 N   0  3  0  0  0  0  0  0  0  0  0  0
   -0.0080    1.9291   -2.3270 H   0  0  0  0  0  0  0  0  0  0  0  0
   -1.8921    2.8905   -2.6243 C   0  0  0  0  0  0  0  0  0  0  0  0
   -1.8437    3.2151   -3.6618 H   0  0  0  0  0  0  0  0  0  0  0  0
   -2.9448    3.0412   -1.7891 N   0  0  0  0  0  0  0  0  0  0  0  0
   -3.8296    3.4863   -2.0182 H   0  0  0  0  0  0  0  0  0  0  0  0
   -2.6191    2.4807   -0.5618 C   0  0  0  0  0  0  0  0  0  0  0  0
   -3.2455    2.4351    0.3248 H   0  0  0  0  0  0  0  0  0  0  0  0
    0.5862   -0.9234    1.1749 C   0  0  0  0  0  0  0  0  0  0  0  0
    0.8188   -2.1300    1.0864 O   0  0  0  0  0  0  0  0  0  0  0  0
    1.1591   -0.1364    2.0939 N   0  0  0  0  0  0  0  0  0  0  0  0
    0.9166    0.8426    2.0842 H   0  0  0  0  0  0  0  0  0  0  0  0
    2.1092   -0.5838    3.1169 C   0  0  0  0  0  0  0  0  0  0  0  0
    3.1286   -0.3325    2.8173 H   0  0  0  0  0  0  0  0  0  0  0  0
    1.8942   -0.0901    4.0662 H   0  0  0  0  0  0  0  0  0  0  0  0
    2.0428   -1.6638    3.2642 H   0  0  0  0  0  0  0  0  0  0  0  0
  5  6  2  0  0  0  0
  5  7  1  0  0  0  0
  2  3  1  0  0  0  0
  2  4  1  0  0  0  0
  2  5  1  0  0  0  0
  1  2  1  0  0  0  0
 23 24  2  0  0  0  0
 23 25  1  0  0  0  0
 21 22  1  0  0  0  0
 19 20  1  0  0  0  0
 19 21  1  0  0  0  0
 17 18  1  0  0  0  0
 17 19  1  0  0  0  0
 15 16  1  0  0  0  0
 15 17  2  0  0  0  0
 14 15  1  0  0  0  0
 14 21  2  0  0  0  0
 11 12  1  0  0  0  0
 11 13  1  0  0  0  0
 11 14  1  0  0  0  0
  9 10  1  0  0  0  0
  9 11  1  0  0  0  0
  9 23  1  0  0  0  0
  7  8  1  0  0  0  0
  7  9  1  0  0  0  0
 27 28  1  0  0  0  0
 27 29  1  0  0  0  0
 27 30  1  0  0  0  0
 25 26  1  0  0  0  0
 25 27  1  0  0  0  0
M  CHG  1  15   1
M  END
$$$$
default_name
  -OEChem-01062215323D

 30 30  0     1  0  0  0  0  0999 V2000
   -3.5507   -3.2183    1.8116 H   0  0  0  0  0  0  0  0  0  0  0  0
   -3.4597   -2.3913    1.1076 C   0  0  0  0  0  0  0  0  0  0  0  0
   -4.1577   -1.6043    1.3866 H   0  0  0  0  0  0  0  0  0  0  0  0
   -3.6807   -2.7523    0.1036 H   0  0  0  0  0  0  0  0  0  0  0  0
   -2.0477   -1.8543    1.1546 C   0  0  0  0  0  0  0  0  0  0  0  0
   -1.2227   -2.3443    1.9146 O   0  0  0  0  0  0  0  0  0  0  0  0
   -1.7517   -0.8483    0.3266 N   0  0  0  0  0  0  0  0  0  0  0  0
   -2.4847   -0.5123   -0.2804 H   0  0  0  0  0  0  0  0  0  0  0  0
   -0.4117   -0.2463    0.2186 C   0  0  1  0  0  0  0  0  0  0  0  0
   -0.0395   -0.4235   -0.7935 H   0  0  0  0  0  0  0  0  0  0  0  0
   -0.5434    1.2843    0.3952 C   0  0  0  0  0  0  0  0  0  0  0  0
   -1.0037    1.4845    1.3661 H   0  0  0  0  0  0  0  0  0  0  0  0
    0.4551    1.7263    0.4166 H   0  0  0  0  0  0  0  0  0  0  0  0
   -1.3469    1.9891   -0.6772 C   0  0  0  0  0  0  0  0  0  0  0  0
   -0.9086    2.2509   -1.9608 N   0  3  0  0  0  0  0  0  0  0  0  0
   -0.0080    1.9291   -2.3270 H   0  0  0  0  0  0  0  0  0  0  0  0
   -1.8921    2.8905   -2.6243 C   0  0  0  0  0  0  0  0  0  0  0  0
   -1.8437    3.2151   -3.6618 H   0  0  0  0  0  0  0  0  0  0  0  0
   -2.9448    3.0412   -1.7891 N   0  0  0  0  0  0  0  0  0  0  0  0
   -3.8296    3.4863   -2.0182 H   0  0  0  0  0  0  0  0  0  0  0  0
   -2.6191    2.4807   -0.5618 C   0  0  0  0  0  0  0  0  0  0  0  0
   -3.2455    2.4351    0.3248 H   0  0  0  0  0  0  0  0  0  0  0  0
    0.5862   -0.9234    1.1749 C   0  0  0  0  0  0  0  0  0  0  0  0
    1.0288   -2.0461    0.9267 O   0  0  0  0  0  0  0  0  0  0  0  0
    0.9215   -0.2343    2.2725 N   0  0  0  0  0  0  0  0  0  0  0  0
    0.5179    0.6829    2.3872 H   0  0  0  0  0  0  0  0  0  0  0  0
    1.8267   -0.7070    3.3245 C   0  0  0  0  0  0  0  0  0  0  0  0
    2.8131   -0.2555    3.2010 H   0  0  0  0  0  0  0  0  0  0  0  0
    1.4367   -0.4275    4.3047 H   0  0  0  0  0  0  0  0  0  0  0  0
    1.9311   -1.7935    3.2890 H   0  0  0  0  0  0  0  0  0  0  0  0
  5  6  2  0  0  0  0
  5  7  1  0  0  0  0
  2  3  1  0  0  0  0
  2  4  1  0  0  0  0
  2  5  1  0  0  0  0
  1  2  1  0  0  0  0
 23 24  2  0  0  0  0
 23 25  1  0  0  0  0
 21 22  1  0  0  0  0
 19 20  1  0  0  0  0
 19 21  1  0  0  0  0
 17 18  1  0  0  0  0
 17 19  1  0  0  0  0
 15 16  1  0  0  0  0
 15 17  2  0  0  0  0
 14 15  1  0  0  0  0
 14 21  2  0  0  0  0
 11 12  1  0  0  0  0
 11 13  1  0  0  0  0
 11 14  1  0  0  0  0
  9 10  1  0  0  0  0
  9 11  1  0  0  0  0
  9 23  1  0  0  0  0
  7  8  1  0  0  0  0
  7  9  1  0  0  0  0
 27 28  1  0  0  0  0
 27 29  1  0  0  0  0
 27 30  1  0  0  0  0
 25 26  1  0  0  0  0
 25 27  1  0  0  0  0
M  CHG  1  15   1
M  END
$$$$
default_name
  -OEChem-01062215323D

 30 30  0     1  0  0  0  0  0999 V2000
   -3.5507   -3.2183    1.8116 H   0  0  0  0  0  0  0  0  0  0  0  0
   -3.4597   -2.3913    1.1076 C   0  0  0  0  0  0  0  0  0  0  0  0
   -4.1577   -1.6043    1.3866 H   0  0  0  0  0  0  0  0  0  0  0  0
   -3.6807   -2.7523    0.1036 H   0  0  0  0  0  0  0  0  0  0  0  0
   -2.0477   -1.8543    1.1546 C   0  0  0  0  0  0  0  0  0  0  0  0
   -1.2227   -2.3443    1.9146 O   0  0  0  0  0  0  0  0  0  0  0  0
   -1.7517   -0.8483    0.3266 N   0  0  0  0  0  0  0  0  0  0  0  0
   -2.4847   -0.5123   -0.2804 H   0  0  0  0  0  0  0  0  0  0  0  0
   -0.4117   -0.2463    0.2186 C   0  0  1  0  0  0  0  0  0  0  0  0
   -0.0395   -0.4235   -0.7935 H   0  0  0  0  0  0  0  0  0  0  0  0
   -0.5434    1.2843    0.3952 C   0  0  0  0  0  0  0  0  0  0  0  0
   -1.0037    1.4845    1.3661 H   0  0  0  0  0  0  0  0  0  0  0  0
    0.4551    1.7263    0.4166 H   0  0  0  0  0  0  0  0  0  0  0  0
   -1.3469    1.9891   -0.6772 C   0  0  0  0  0  0  0  0  0  0  0  0
   -0.9086    2.2509   -1.9608 N   0  3  0  0  0  0  0  0  0  0  0  0
   -0.0080    1.9291   -2.3270 H   0  0  0  0  0  0  0  0  0  0  0  0
   -1.8921    2.8905   -2.6243 C   0  0  0  0  0  0  0  0  0  0  0  0
   -1.8437    3.2151   -3.6618 H   0  0  0  0  0  0  0  0  0  0  0  0
   -2.9448    3.0412   -1.7891 N   0  0  0  0  0  0  0  0  0  0  0  0
   -3.8296    3.4863   -2.0182 H   0  0  0  0  0  0  0  0  0  0  0  0
   -2.6191    2.4807   -0.5618 C   0  0  0  0  0  0  0  0  0  0  0  0
   -3.2455    2.4351    0.3248 H   0  0  0  0  0  0  0  0  0  0  0  0
    0.5862   -0.9234    1.1749 C   0  0  0  0  0  0  0  0  0  0  0  0
    1.2363   -1.9044    0.8104 O   0  0  0  0  0  0  0  0  0  0  0  0
    0.6875   -0.3970    2.4015 N   0  0  0  0  0  0  0  0  0  0  0  0
    0.1239    0.4137    2.6077 H   0  0  0  0  0  0  0  0  0  0  0  0
    1.5500   -0.9063    3.4721 C   0  0  0  0  0  0  0  0  0  0  0  0
    2.4523   -0.2963    3.5487 H   0  0  0  0  0  0  0  0  0  0  0  0
    1.0219   -0.8671    4.4263 H   0  0  0  0  0  0  0  0  0  0  0  0
    1.8412   -1.9409    3.2785 H   0  0  0  0  0  0  0  0  0  0  0  0
  5  6  2  0  0  0  0
  5  7  1  0  0  0  0
  2  3  1  0  0  0  0
  2  4  1  0  0  0  0
  2  5  1  0  0  0  0
  1  2  1  0  0  0  0
 23 24  2  0  0  0  0
 23 25  1  0  0  0  0
 21 22  1  0  0  0  0
 19 20  1  0  0  0  0
 19 21  1  0  0  0  0
 17 18  1  0  0  0  0
 17 19  1  0  0  0  0
 15 16  1  0  0  0  0
 15 17  2  0  0  0  0
 14 15  1  0  0  0  0
 14 21  2  0  0  0  0
 11 12  1  0  0  0  0
 11 13  1  0  0  0  0
 11 14  1  0  0  0  0
  9 10  1  0  0  0  0
  9 11  1  0  0  0  0
  9 23  1  0  0  0  0
  7  8  1  0  0  0  0
  7  9  1  0  0  0  0
 27 28  1  0  0  0  0
 27 29  1  0  0  0  0
 27 30  1  0  0  0  0
 25 26  1  0  0  0  0
 25 27  1  0  0  0  0
M  CHG  1  15   1
M  END
$$$$
default_name
  -OEChem-01062215323D

 30 30  0     1  0  0  0  0  0999 V2000
   -3.5507   -3.2183    1.8116 H   0  0  0  0  0  0  0  0  0  0  0  0
   -3.4597   -2.3913    1.1076 C   0  0  0  0  0  0  0  0  0  0  0  0
   -4.1577   -1.6043    1.3866 H   0  0  0  0  0  0  0  0  0  0  0  0
   -3.6807   -2.7523    0.1036 H   0  0  0  0  0  0  0  0  0  0  0  0
   -2.0477   -1.8543    1.1546 C   0  0  0  0  0  0  0  0  0  0  0  0
   -1.2227   -2.3443    1.9146 O   0  0  0  0  0  0  0  0  0  0  0  0
   -1.7517   -0.8483    0.3266 N   0  0  0  0  0  0  0  0  0  0  0  0
   -2.4847   -0.5123   -0.2804 H   0  0  0  0  0  0  0  0  0  0  0  0
   -0.4117   -0.2463    0.2186 C   0  0  1  0  0  0  0  0  0  0  0  0
   -0.0395   -0.4235   -0.7935 H   0  0  0  0  0  0  0  0  0  0  0  0
   -0.5434    1.2843    0.3952 C   0  0  0  0  0  0  0  0  0  0  0  0
   -1.0037    1.4845    1.3661 H   0  0  0  0  0  0  0  0  0  0  0  0
    0.4551    1.7263    0.4166 H   0  0  0  0  0  0  0  0  0  0  0  0
   -1.3469    1.9891   -0.6772 C   0  0  0  0  0  0  0  0  0  0  0  0
   -0.9086    2.2509   -1.9608 N   0  3  0  0  0  0  0  0  0  0  0  0
   -0.0080    1.9291   -2.3270 H   0  0  0  0  0  0  0  0  0  0  0  0
   -1.8921    2.8905   -2.6243 C   0  0  0  0  0  0  0  0  0  0  0  0
   -1.8437    3.2151   -3.6618 H   0  0  0  0  0  0  0  0  0  0  0  0
   -2.9448    3.0412   -1.7891 N   0  0  0  0  0  0  0  0  0  0  0  0
   -3.8296    3.4863   -2.0182 H   0  0  0  0  0  0  0  0  0  0  0  0
   -2.6191    2.4807   -0.5618 C   0  0  0  0  0  0  0  0  0  0  0  0
   -3.2455    2.4351    0.3248 H   0  0  0  0  0  0  0  0  0  0  0  0
    0.5862   -0.9234    1.1749 C   0  0  0  0  0  0  0  0  0  0  0  0
    1.4273   -1.7147    0.7455 O   0  0  0  0  0  0  0  0  0  0  0  0
    0.4729   -0.6134    2.4722 N   0  0  0  0  0  0  0  0  0  0  0  0
   -0.2385    0.0533    2.7307 H   0  0  0  0  0  0  0  0  0  0  0  0
    1.2980   -1.1681    3.5497 C   0  0  0  0  0  0  0  0  0  0  0  0
    2.0708   -0.4521    3.8365 H   0  0  0  0  0  0  0  0  0  0  0  0
    0.6780   -1.3787    4.4228 H   0  0  0  0  0  0  0  0  0  0  0  0
    1.7792   -2.0959    3.2334 H   0  0  0  0  0  0  0  0  0  0  0  0
  5  6  2  0  0  0  0
  5  7  1  0  0  0  0
  2  3  1  0  0  0  0
  2  4  1  0  0  0  0
  2  5  1  0  0  0  0
  1  2  1  0  0  0  0
 23 24  2  0  0  0  0
 23 25  1  0  0  0  0
 21 22  1  0  0  0  0
 19 20  1  0  0  0  0
 19 21  1  0  0  0  0
 17 18  1  0  0  0  0
 17 19  1  0  0  0  0
 15 16  1  0  0  0  0
 15 17  2  0  0  0  0
 14 15  1  0  0  0  0
 14 21  2  0  0  0  0
 11 12  1  0  0  0  0
 11 13  1  0  0  0  0
 11 14  1  0  0  0  0
  9 10  1  0  0  0  0
  9 11  1  0  0  0  0
  9 23  1  0  0  0  0
  7  8  1  0  0  0  0
  7  9  1  0  0  0  0
 27 28  1  0  0  0  0
 27 29  1  0  0  0  0
 27 30  1  0  0  0  0
 25 26  1  0  0  0  0
 25 27  1  0  0  0  0
M  CHG  1  15   1
M  END
$$$$
default_name
  -OEChem-01062215323D

 30 30  0     1  0  0  0  0  0999 V2000
   -3.5507   -3.2183    1.8116 H   0  0  0  0  0  0  0  0  0  0  0  0
   -3.4597   -2.3913    1.1076 C   0  0  0  0  0  0  0  0  0  0  0  0
   -4.1577   -1.6043    1.3866 H   0  0  0  0  0  0  0  0  0  0  0  0
   -3.6807   -2.7523    0.1036 H   0  0  0  0  0  0  0  0  0  0  0  0
   -2.0477   -1.8543    1.1546 C   0  0  0  0  0  0  0  0  0  0  0  0
   -1.2227   -2.3443    1.9146 O   0  0  0  0  0  0  0  0  0  0  0  0
   -1.7517   -0.8483    0.3266 N   0  0  0  0  0  0  0  0  0  0  0  0
   -2.4847   -0.5123   -0.2804 H   0  0  0  0  0  0  0  0  0  0  0  0
   -0.4117   -0.2463    0.2186 C   0  0  1  0  0  0  0  0  0  0  0  0
   -0.0395   -0.4235   -0.7935 H   0  0  0  0  0  0  0  0  0  0  0  0
   -0.5434    1.2843    0.3952 C   0  0  0  0  0  0  0  0  0  0  0  0
   -1.0037    1.4845    1.3661 H   0  0  0  0  0  0  0  0  0  0  0  0
    0.4551    1.7263    0.4166 H   0  0  0  0  0  0  0  0  0  0  0  0
   -1.3469    1.9891   -0.6772 C   0  0  0  0  0  0  0  0  0  0  0  0
   -0.9086    2.2509   -1.9608 N   0  3  0  0  0  0  0  0  0  0  0  0
   -0.0080    1.9291   -2.3270 H   0  0  0  0  0  0  0  0  0  0  0  0
   -1.8921    2.8905   -2.6243 C   0  0  0  0  0  0  0  0  0  0  0  0
   -1.8437    3.2151   -3.6618 H   0  0  0  0  0  0  0  0  0  0  0  0
   -2.9448    3.0412   -1.7891 N   0  0  0  0  0  0  0  0  0  0  0  0
   -3.8296    3.4863   -2.0182 H   0  0  0  0  0  0  0  0  0  0  0  0
   -2.6191    2.4807   -0.5618 C   0  0  0  0  0  0  0  0  0  0  0  0
   -3.2455    2.4351    0.3248 H   0  0  0  0  0  0  0  0  0  0  0  0
    0.5862   -0.9234    1.1749 C   0  0  0  0  0  0  0  0  0  0  0  0
    1.5886   -1.4898    0.7364 O   0  0  0  0  0  0  0  0  0  0  0  0
    0.2923   -0.8689    2.4798 N   0  0  0  0  0  0  0  0  0  0  0  0
   -0.5446   -0.3737    2.7477 H   0  0  0  0  0  0  0  0  0  0  0  0
    1.0878   -1.4744    3.5520 C   0  0  0  0  0  0  0  0  0  0  0  0
    1.6946   -0.7122    4.0450 H   0  0  0  0  0  0  0  0  0  0  0  0
    0.4286   -1.9277    4.2944 H   0  0  0  0  0  0  0  0  0  0  0  0
    1.7494   -2.2481    3.1567 H   0  0  0  0  0  0  0  0  0  0  0  0
  5  6  2  0  0  0  0
  5  7  1  0  0  0  0
  2  3  1  0  0  0  0
  2  4  1  0  0  0  0
  2  5  1  0  0  0  0
  1  2  1  0  0  0  0
 23 24  2  0  0  0  0
 23 25  1  0  0  0  0
 21 22  1  0  0  0  0
 19 20  1  0  0  0  0
 19 21  1  0  0  0  0
 17 18  1  0  0  0  0
 17 19  1  0  0  0  0
 15 16  1  0  0  0  0
 15 17  2  0  0  0  0
 14 15  1  0  0  0  0
 14 21  2  0  0  0  0
 11 12  1  0  0  0  0
 11 13  1  0  0  0  0
 11 14  1  0  0  0  0
  9 10  1  0  0  0  0
  9 11  1  0  0  0  0
  9 23  1  0  0  0  0
  7  8  1  0  0  0  0
  7  9  1  0  0  0  0
 27 28  1  0  0  0  0
 27 29  1  0  0  0  0
 27 30  1  0  0  0  0
 25 26  1  0  0  0  0
 25 27  1  0  0  0  0
M  CHG  1  15   1
M  END
$$$$
default_name
  -OEChem-01062215323D

 30 30  0     1  0  0  0  0  0999 V2000
   -3.5507   -3.2183    1.8116 H   0  0  0  0  0  0  0  0  0  0  0  0
   -3.4597   -2.3913    1.1076 C   0  0  0  0  0  0  0  0  0  0  0  0
   -4.1577   -1.6043    1.3866 H   0  0  0  0  0  0  0  0  0  0  0  0
   -3.6807   -2.7523    0.1036 H   0  0  0  0  0  0  0  0  0  0  0  0
   -2.0477   -1.8543    1.1546 C   0  0  0  0  0  0  0  0  0  0  0  0
   -1.2227   -2.3443    1.9146 O   0  0  0  0  0  0  0  0  0  0  0  0
   -1.7517   -0.8483    0.3266 N   0  0  0  0  0  0  0  0  0  0  0  0
   -2.4847   -0.5123   -0.2804 H   0  0  0  0  0  0  0  0  0  0  0  0
   -0.4117   -0.2463    0.2186 C   0  0  1  0  0  0  0  0  0  0  0  0
   -0.0395   -0.4235   -0.7935 H   0  0  0  0  0  0  0  0  0  0  0  0
   -0.5434    1.2843    0.3952 C   0  0  0  0  0  0  0  0  0  0  0  0
   -1.0037    1.4845    1.3661 H   0  0  0  0  0  0  0  0  0  0  0  0
    0.4551    1.7263    0.4166 H   0  0  0  0  0  0  0  0  0  0  0  0
   -1.3469    1.9891   -0.6772 C   0  0  0  0  0  0  0  0  0  0  0  0
   -0.9086    2.2509   -1.9608 N   0  3  0  0  0  0  0  0  0  0  0  0
   -0.0080    1.9291   -2.3270 H   0  0  0  0  0  0  0  0  0  0  0  0
   -1.8921    2.8905   -2.6243 C   0  0  0  0  0  0  0  0  0  0  0  0
   -1.8437    3.2151   -3.6618 H   0  0  0  0  0  0  0  0  0  0  0  0
   -2.9448    3.0412   -1.7891 N   0  0  0  0  0  0  0  0  0  0  0  0
   -3.8296    3.4863   -2.0182 H   0  0  0  0  0  0  0  0  0  0  0  0
   -2.6191    2.4807   -0.5618 C   0  0  0  0  0  0  0  0  0  0  0  0
   -3.2455    2.4351    0.3248 H   0  0  0  0  0  0  0  0  0  0  0  0
    0.5862   -0.9234    1.1749 C   0  0  0  0  0  0  0  0  0  0  0  0
    1.7093   -1.2451    0.7837 O   0  0  0  0  0  0  0  0  0  0  0  0
    0.1581   -1.1459    2.4236 N   0  0  0  0  0  0  0  0  0  0  0  0
   -0.7735   -0.8383    2.6577 H   0  0  0  0  0  0  0  0  0  0  0  0
    0.9338   -1.8046    3.4790 C   0  0  0  0  0  0  0  0  0  0  0  0
    1.3492   -1.0589    4.1598 H   0  0  0  0  0  0  0  0  0  0  0  0
    0.2906   -2.4765    4.0499 H   0  0  0  0  0  0  0  0  0  0  0  0
    1.7539   -2.3870    3.0537 H   0  0  0  0  0  0  0  0  0  0  0  0
  5  6  2  0  0  0  0
  5  7  1  0  0  0  0
  2  3  1  0  0  0  0
  2  4  1  0  0  0  0
  2  5  1  0  0  0  0
  1  2  1  0  0  0  0
 23 24  2  0  0  0  0
 23 25  1  0  0  0  0
 21 22  1  0  0  0  0
 19 20  1  0  0  0  0
 19 21  1  0  0  0  0
 17 18  1  0  0  0  0
 17 19  1  0  0  0  0
 15 16  1  0  0  0  0
 15 17  2  0  0  0  0
 14 15  1  0  0  0  0
 14 21  2  0  0  0  0
 11 12  1  0  0  0  0
 11 13  1  0  0  0  0
 11 14  1  0  0  0  0
  9 10  1  0  0  0  0
  9 11  1  0  0  0  0
  9 23  1  0  0  0  0
  7  8  1  0  0  0  0
  7  9  1  0  0  0  0
 27 28  1  0  0  0  0
 27 29  1  0  0  0  0
 27 30  1  0  0  0  0
 25 26  1  0  0  0  0
 25 27  1  0  0  0  0
M  CHG  1  15   1
M  END
$$$$
default_name
  -OEChem-01062215323D

 30 30  0     1  0  0  0  0  0999 V2000
   -3.5507   -3.2183    1.8116 H   0  0  0  0  0  0  0  0  0  0  0  0
   -3.4597   -2.3913    1.1076 C   0  0  0  0  0  0  0  0  0  0  0  0
   -4.1577   -1.6043    1.3866 H   0  0  0  0  0  0  0  0  0  0  0  0
   -3.6807   -2.7523    0.1036 H   0  0  0  0  0  0  0  0  0  0  0  0
   -2.0477   -1.8543    1.1546 C   0  0  0  0  0  0  0  0  0  0  0  0
   -1.2227   -2.3443    1.9146 O   0  0  0  0  0  0  0  0  0  0  0  0
   -1.7517   -0.8483    0.3266 N   0  0  0  0  0  0  0  0  0  0  0  0
   -2.4847   -0.5123   -0.2804 H   0  0  0  0  0  0  0  0  0  0  0  0
   -0.4117   -0.2463    0.2186 C   0  0  1  0  0  0  0  0  0  0  0  0
   -0.0395   -0.4235   -0.7935 H   0  0  0  0  0  0  0  0  0  0  0  0
   -0.5434    1.2843    0.3952 C   0  0  0  0  0  0  0  0  0  0  0  0
   -1.0037    1.4845    1.3661 H   0  0  0  0  0  0  0  0  0  0  0  0
    0.4551    1.7263    0.4166 H   0  0  0  0  0  0  0  0  0  0  0  0
   -1.3469    1.9891   -0.6772 C   0  0  0  0  0  0  0  0  0  0  0  0
   -0.9086    2.2509   -1.9608 N   0  3  0  0  0  0  0  0  0  0  0  0
   -0.0080    1.9291   -2.3270 H   0  0  0  0  0  0  0  0  0  0  0  0
   -1.8921    2.8905   -2.6243 C   0  0  0  0  0  0  0  0  0  0  0  0
   -1.8437    3.2151   -3.6618 H   0  0  0  0  0  0  0  0  0  0  0  0
   -2.9448    3.0412   -1.7891 N   0  0  0  0  0  0  0  0  0  0  0  0
   -3.8296    3.4863   -2.0182 H   0  0  0  0  0  0  0  0  0  0  0  0
   -2.6191    2.4807   -0.5618 C   0  0  0  0  0  0  0  0  0  0  0  0
   -3.2455    2.4351    0.3248 H   0  0  0  0  0  0  0  0  0  0  0  0
    0.5862   -0.9234    1.1749 C   0  0  0  0  0  0  0  0  0  0  0  0
    1.7812   -0.9973    0.8842 O   0  0  0  0  0  0  0  0  0  0  0  0
    0.0795   -1.4257    2.3076 N   0  0  0  0  0  0  0  0  0  0  0  0
   -0.9097   -1.3087    2.4666 H   0  0  0  0  0  0  0  0  0  0  0  0
    0.8465   -2.1360    3.3355 C   0  0  0  0  0  0  0  0  0  0  0  0
    1.0583   -1.4687    4.1732 H   0  0  0  0  0  0  0  0  0  0  0  0
    0.2733   -2.9877    3.7058 H   0  0  0  0  0  0  0  0  0  0  0  0
    1.7922   -2.5031    2.9314 H   0  0  0  0  0  0  0  0  0  0  0  0
  5  6  2  0  0  0  0
  5  7  1  0  0  0  0
  2  3  1  0  0  0  0
  2  4  1  0  0  0  0
  2  5  1  0  0  0  0
  1  2  1  0  0  0  0
 23 24  2  0  0  0  0
 23 25  1  0  0  0  0
 21 22  1  0  0  0  0
 19 20  1  0  0  0  0
 19 21  1  0  0  0  0
 17 18  1  0  0  0  0
 17 19  1  0  0  0  0
 15 16  1  0  0  0  0
 15 17  2  0  0  0  0
 14 15  1  0  0  0  0
 14 21  2  0  0  0  0
 11 12  1  0  0  0  0
 11 13  1  0  0  0  0
 11 14  1  0  0  0  0
  9 10  1  0  0  0  0
  9 11  1  0  0  0  0
  9 23  1  0  0  0  0
  7  8  1  0  0  0  0
  7  9  1  0  0  0  0
 27 28  1  0  0  0  0
 27 29  1  0  0  0  0
 27 30  1  0  0  0  0
 25 26  1  0  0  0  0
 25 27  1  0  0  0  0
M  CHG  1  15   1
M  END
$$$$
default_name
  -OEChem-01062215323D

 30 30  0     1  0  0  0  0  0999 V2000
   -3.5507   -3.2183    1.8116 H   0  0  0  0  0  0  0  0  0  0  0  0
   -3.4597   -2.3913    1.1076 C   0  0  0  0  0  0  0  0  0  0  0  0
   -4.1577   -1.6043    1.3866 H   0  0  0  0  0  0  0  0  0  0  0  0
   -3.6807   -2.7523    0.1036 H   0  0  0  0  0  0  0  0  0  0  0  0
   -2.0477   -1.8543    1.1546 C   0  0  0  0  0  0  0  0  0  0  0  0
   -1.2227   -2.3443    1.9146 O   0  0  0  0  0  0  0  0  0  0  0  0
   -1.7517   -0.8483    0.3266 N   0  0  0  0  0  0  0  0  0  0  0  0
   -2.4847   -0.5123   -0.2804 H   0  0  0  0  0  0  0  0  0  0  0  0
   -0.4117   -0.2463    0.2186 C   0  0  1  0  0  0  0  0  0  0  0  0
   -0.0395   -0.4235   -0.7935 H   0  0  0  0  0  0  0  0  0  0  0  0
   -0.5434    1.2843    0.3952 C   0  0  0  0  0  0  0  0  0  0  0  0
   -1.0037    1.4845    1.3661 H   0  0  0  0  0  0  0  0  0  0  0  0
    0.4551    1.7263    0.4166 H   0  0  0  0  0  0  0  0  0  0  0  0
   -1.3469    1.9891   -0.6772 C   0  0  0  0  0  0  0  0  0  0  0  0
   -0.9086    2.2509   -1.9608 N   0  3  0  0  0  0  0  0  0  0  0  0
   -0.0080    1.9291   -2.3270 H   0  0  0  0  0  0  0  0  0  0  0  0
   -1.8921    2.8905   -2.6243 C   0  0  0  0  0  0  0  0  0  0  0  0
   -1.8437    3.2151   -3.6618 H   0  0  0  0  0  0  0  0  0  0  0  0
   -2.9448    3.0412   -1.7891 N   0  0  0  0  0  0  0  0  0  0  0  0
   -3.8296    3.4863   -2.0182 H   0  0  0  0  0  0  0  0  0  0  0  0
   -2.6191    2.4807   -0.5618 C   0  0  0  0  0  0  0  0  0  0  0  0
   -3.2455    2.4351    0.3248 H   0  0  0  0  0  0  0  0  0  0  0  0
    0.5862   -0.9234    1.1749 C   0  0  0  0  0  0  0  0  0  0  0  0
    1.7993   -0.7633    1.0310 O   0  0  0  0  0  0  0  0  0  0  0  0
    0.0617   -1.6891    2.1396 N   0  0  0  0  0  0  0  0  0  0  0  0
   -0.9438   -1.7529    2.1877 H   0  0  0  0  0  0  0  0  0  0  0  0
    0.8317   -2.4461    3.1313 C   0  0  0  0  0  0  0  0  0  0  0  0
    0.8417   -1.9134    4.0843 H   0  0  0  0  0  0  0  0  0  0  0  0
    0.3780   -3.4266    3.2858 H   0  0  0  0  0  0  0  0  0  0  0  0
    1.8619   -2.5886    2.7981 H   0  0  0  0  0  0  0  0  0  0  0  0
  5  6  2  0  0  0  0
  5  7  1  0  0  0  0
  2  3  1  0  0  0  0
  2  4  1  0  0  0  0
  2  5  1  0  0  0  0
  1  2  1  0  0  0  0
 23 24  2  0  0  0  0
 23 25  1  0  0  0  0
 21 22  1  0  0  0  0
 19 20  1  0  0  0  0
 19 21  1  0  0  0  0
 17 18  1  0  0  0  0
 17 19  1  0  0  0  0
 15 16  1  0  0  0  0
 15 17  2  0  0  0  0
 14 15  1  0  0  0  0
 14 21  2  0  0  0  0
 11 12  1  0  0  0  0
 11 13  1  0  0  0  0
 11 14  1  0  0  0  0
  9 10  1  0  0  0  0
  9 11  1  0  0  0  0
  9 23  1  0  0  0  0
  7  8  1  0  0  0  0
  7  9  1  0  0  0  0
 27 28  1  0  0  0  0
 27 29  1  0  0  0  0
 27 30  1  0  0  0  0
 25 26  1  0  0  0  0
 25 27  1  0  0  0  0
M  CHG  1  15   1
M  END
$$$$
default_name
  -OEChem-01062215323D

 30 30  0     1  0  0  0  0  0999 V2000
   -3.5507   -3.2183    1.8116 H   0  0  0  0  0  0  0  0  0  0  0  0
   -3.4597   -2.3913    1.1076 C   0  0  0  0  0  0  0  0  0  0  0  0
   -4.1577   -1.6043    1.3866 H   0  0  0  0  0  0  0  0  0  0  0  0
   -3.6807   -2.7523    0.1036 H   0  0  0  0  0  0  0  0  0  0  0  0
   -2.0477   -1.8543    1.1546 C   0  0  0  0  0  0  0  0  0  0  0  0
   -1.2227   -2.3443    1.9146 O   0  0  0  0  0  0  0  0  0  0  0  0
   -1.7517   -0.8483    0.3266 N   0  0  0  0  0  0  0  0  0  0  0  0
   -2.4847   -0.5123   -0.2804 H   0  0  0  0  0  0  0  0  0  0  0  0
   -0.4117   -0.2463    0.2186 C   0  0  1  0  0  0  0  0  0  0  0  0
   -0.0395   -0.4235   -0.7935 H   0  0  0  0  0  0  0  0  0  0  0  0
   -0.5434    1.2843    0.3952 C   0  0  0  0  0  0  0  0  0  0  0  0
   -1.0037    1.4845    1.3661 H   0  0  0  0  0  0  0  0  0  0  0  0
    0.4551    1.7263    0.4166 H   0  0  0  0  0  0  0  0  0  0  0  0
   -1.3469    1.9891   -0.6772 C   0  0  0  0  0  0  0  0  0  0  0  0
   -0.9086    2.2509   -1.9608 N   0  3  0  0  0  0  0  0  0  0  0  0
   -0.0080    1.9291   -2.3270 H   0  0  0  0  0  0  0  0  0  0  0  0
   -1.8921    2.8905   -2.6243 C   0  0  0  0  0  0  0  0  0  0  0  0
   -1.8437    3.2151   -3.6618 H   0  0  0  0  0  0  0  0  0  0  0  0
   -2.9448    3.0412   -1.7891 N   0  0  0  0  0  0  0  0  0  0  0  0
   -3.8296    3.4863   -2.0182 H   0  0  0  0  0  0  0  0  0  0  0  0
   -2.6191    2.4807   -0.5618 C   0  0  0  0  0  0  0  0  0  0  0  0
   -3.2455    2.4351    0.3248 H   0  0  0  0  0  0  0  0  0  0  0  0
    0.5862   -0.9234    1.1749 C   0  0  0  0  0  0  0  0  0  0  0  0
    1.7624   -0.5589    1.2142 O   0  0  0  0  0  0  0  0  0  0  0  0
    0.1060   -1.9182    1.9311 N   0  0  0  0  0  0  0  0  0  0  0  0
   -0.8735   -2.1407    1.8398 H   0  0  0  0  0  0  0  0  0  0  0  0
    0.8906   -2.7137    2.8803 C   0  0  0  0  0  0  0  0  0  0  0  0
    0.7141   -2.3630    3.8991 H   0  0  0  0  0  0  0  0  0  0  0  0
    0.5976   -3.7631    2.8183 H   0  0  0  0  0  0  0  0  0  0  0  0
    1.9581   -2.6377    2.6630 H   0  0  0  0  0  0  0  0  0  0  0  0
  5  6  2  0  0  0  0
  5  7  1  0  0  0  0
  2  3  1  0  0  0  0
  2  4  1  0  0  0  0
  2  5  1  0  0  0  0
  1  2  1  0  0  0  0
 23 24  2  0  0  0  0
 23 25  1  0  0  0  0
 21 22  1  0  0  0  0
 19 20  1  0  0  0  0
 19 21  1  0  0  0  0
 17 18  1  0  0  0  0
 17 19  1  0  0  0  0
 15 16  1  0  0  0  0
 15 17  2  0  0  0  0
 14 15  1  0  0  0  0
 14 21  2  0  0  0  0
 11 12  1  0  0  0  0
 11 13  1  0  0  0  0
 11 14  1  0  0  0  0
  9 10  1  0  0  0  0
  9 11  1  0  0  0  0
  9 23  1  0  0  0  0
  7  8  1  0  0  0  0
  7  9  1  0  0  0  0
 27 28  1  0  0  0  0
 27 29  1  0  0  0  0
 27 30  1  0  0  0  0
 25 26  1  0  0  0  0
 25 27  1  0  0  0  0
M  CHG  1  15   1
M  END
$$$$
default_name
  -OEChem-01062215323D

 30 30  0     1  0  0  0  0  0999 V2000
   -3.5507   -3.2183    1.8116 H   0  0  0  0  0  0  0  0  0  0  0  0
   -3.4597   -2.3913    1.1076 C   0  0  0  0  0  0  0  0  0  0  0  0
   -4.1577   -1.6043    1.3866 H   0  0  0  0  0  0  0  0  0  0  0  0
   -3.6807   -2.7523    0.1036 H   0  0  0  0  0  0  0  0  0  0  0  0
   -2.0477   -1.8543    1.1546 C   0  0  0  0  0  0  0  0  0  0  0  0
   -1.2227   -2.3443    1.9146 O   0  0  0  0  0  0  0  0  0  0  0  0
   -1.7517   -0.8483    0.3266 N   0  0  0  0  0  0  0  0  0  0  0  0
   -2.4847   -0.5123   -0.2804 H   0  0  0  0  0  0  0  0  0  0  0  0
   -0.4117   -0.2463    0.2186 C   0  0  1  0  0  0  0  0  0  0  0  0
   -0.0395   -0.4235   -0.7935 H   0  0  0  0  0  0  0  0  0  0  0  0
   -0.5434    1.2843    0.3952 C   0  0  0  0  0  0  0  0  0  0  0  0
   -1.0037    1.4845    1.3661 H   0  0  0  0  0  0  0  0  0  0  0  0
    0.4551    1.7263    0.4166 H   0  0  0  0  0  0  0  0  0  0  0  0
   -1.3469    1.9891   -0.6772 C   0  0  0  0  0  0  0  0  0  0  0  0
   -0.9086    2.2509   -1.9608 N   0  3  0  0  0  0  0  0  0  0  0  0
   -0.0080    1.9291   -2.3270 H   0  0  0  0  0  0  0  0  0  0  0  0
   -1.8921    2.8905   -2.6243 C   0  0  0  0  0  0  0  0  0  0  0  0
   -1.8437    3.2151   -3.6618 H   0  0  0  0  0  0  0  0  0  0  0  0
   -2.9448    3.0412   -1.7891 N   0  0  0  0  0  0  0  0  0  0  0  0
   -3.8296    3.4863   -2.0182 H   0  0  0  0  0  0  0  0  0  0  0  0
   -2.6191    2.4807   -0.5618 C   0  0  0  0  0  0  0  0  0  0  0  0
   -3.2455    2.4351    0.3248 H   0  0  0  0  0  0  0  0  0  0  0  0
    0.5862   -0.9234    1.1749 C   0  0  0  0  0  0  0  0  0  0  0  0
    1.6731   -0.3982    1.4212 O   0  0  0  0  0  0  0  0  0  0  0  0
    0.2094   -2.0974    1.6964 N   0  0  0  0  0  0  0  0  0  0  0  0
   -0.7037   -2.4456    1.4467 H   0  0  0  0  0  0  0  0  0  0  0  0
    1.0191   -2.9206    2.5997 C   0  0  0  0  0  0  0  0  0  0  0  0
    0.6843   -2.7867    3.6303 H   0  0  0  0  0  0  0  0  0  0  0  0
    0.9170   -3.9745    2.3353 H   0  0  0  0  0  0  0  0  0  0  0  0
    2.0743   -2.6469    2.5352 H   0  0  0  0  0  0  0  0  0  0  0  0
  5  6  2  0  0  0  0
  5  7  1  0  0  0  0
  2  3  1  0  0  0  0
  2  4  1  0  0  0  0
  2  5  1  0  0  0  0
  1  2  1  0  0  0  0
 23 24  2  0  0  0  0
 23 25  1  0  0  0  0
 21 22  1  0  0  0  0
 19 20  1  0  0  0  0
 19 21  1  0  0  0  0
 17 18  1  0  0  0  0
 17 19  1  0  0  0  0
 15 16  1  0  0  0  0
 15 17  2  0  0  0  0
 14 15  1  0  0  0  0
 14 21  2  0  0  0  0
 11 12  1  0  0  0  0
 11 13  1  0  0  0  0
 11 14  1  0  0  0  0
  9 10  1  0  0  0  0
  9 11  1  0  0  0  0
  9 23  1  0  0  0  0
  7  8  1  0  0  0  0
  7  9  1  0  0  0  0
 27 28  1  0  0  0  0
 27 29  1  0  0  0  0
 27 30  1  0  0  0  0
 25 26  1  0  0  0  0
 25 27  1  0  0  0  0
M  CHG  1  15   1
M  END
$$$$
default_name
  -OEChem-01062215323D

 30 30  0     1  0  0  0  0  0999 V2000
   -3.5507   -3.2183    1.8116 H   0  0  0  0  0  0  0  0  0  0  0  0
   -3.4597   -2.3913    1.1076 C   0  0  0  0  0  0  0  0  0  0  0  0
   -4.1577   -1.6043    1.3866 H   0  0  0  0  0  0  0  0  0  0  0  0
   -3.6807   -2.7523    0.1036 H   0  0  0  0  0  0  0  0  0  0  0  0
   -2.0477   -1.8543    1.1546 C   0  0  0  0  0  0  0  0  0  0  0  0
   -1.2227   -2.3443    1.9146 O   0  0  0  0  0  0  0  0  0  0  0  0
   -1.7517   -0.8483    0.3266 N   0  0  0  0  0  0  0  0  0  0  0  0
   -2.4847   -0.5123   -0.2804 H   0  0  0  0  0  0  0  0  0  0  0  0
   -0.4117   -0.2463    0.2186 C   0  0  1  0  0  0  0  0  0  0  0  0
   -0.0395   -0.4235   -0.7935 H   0  0  0  0  0  0  0  0  0  0  0  0
   -0.5434    1.2843    0.3952 C   0  0  0  0  0  0  0  0  0  0  0  0
   -1.0037    1.4845    1.3661 H   0  0  0  0  0  0  0  0  0  0  0  0
    0.4551    1.7263    0.4166 H   0  0  0  0  0  0  0  0  0  0  0  0
   -1.3469    1.9891   -0.6772 C   0  0  0  0  0  0  0  0  0  0  0  0
   -0.9086    2.2509   -1.9608 N   0  3  0  0  0  0  0  0  0  0  0  0
   -0.0080    1.9291   -2.3270 H   0  0  0  0  0  0  0  0  0  0  0  0
   -1.8921    2.8905   -2.6243 C   0  0  0  0  0  0  0  0  0  0  0  0
   -1.8437    3.2151   -3.6618 H   0  0  0  0  0  0  0  0  0  0  0  0
   -2.9448    3.0412   -1.7891 N   0  0  0  0  0  0  0  0  0  0  0  0
   -3.8296    3.4863   -2.0182 H   0  0  0  0  0  0  0  0  0  0  0  0
   -2.6191    2.4807   -0.5618 C   0  0  0  0  0  0  0  0  0  0  0  0
   -3.2455    2.4351    0.3248 H   0  0  0  0  0  0  0  0  0  0  0  0
    0.5862   -0.9234    1.1749 C   0  0  0  0  0  0  0  0  0  0  0  0
    1.5374   -0.2921    1.6380 O   0  0  0  0  0  0  0  0  0  0  0  0
    0.3648   -2.2144    1.4513 N   0  0  0  0  0  0  0  0  0  0  0  0
   -0.4459   -2.6468    1.0351 H   0  0  0  0  0  0  0  0  0  0  0  0
    1.2084   -3.0527    2.3086 C   0  0  0  0  0  0  0  0  0  0  0  0
    0.7542   -3.1556    3.2961 H   0  0  0  0  0  0  0  0  0  0  0  0
    1.3146   -4.0462    1.8696 H   0  0  0  0  0  0  0  0  0  0  0  0
    2.2026   -2.6157    2.4235 H   0  0  0  0  0  0  0  0  0  0  0  0
  5  6  2  0  0  0  0
  5  7  1  0  0  0  0
  2  3  1  0  0  0  0
  2  4  1  0  0  0  0
  2  5  1  0  0  0  0
  1  2  1  0  0  0  0
 23 24  2  0  0  0  0
 23 25  1  0  0  0  0
 21 22  1  0  0  0  0
 19 20  1  0  0  0  0
 19 21  1  0  0  0  0
 17 18  1  0  0  0  0
 17 19  1  0  0  0  0
 15 16  1  0  0  0  0
 15 17  2  0  0  0  0
 14 15  1  0  0  0  0
 14 21  2  0  0  0  0
 11 12  1  0  0  0  0
 11 13  1  0  0  0  0
 11 14  1  0  0  0  0
  9 10  1  0  0  0  0
  9 11  1  0  0  0  0
  9 23  1  0  0  0  0
  7  8  1  0  0  0  0
  7  9  1  0  0  0  0
 27 28  1  0  0  0  0
 27 29  1  0  0  0  0
 27 30  1  0  0  0  0
 25 26  1  0  0  0  0
 25 27  1  0  0  0  0
M  CHG  1  15   1
M  END
$$$$
default_name
  -OEChem-01062215323D

 30 30  0     1  0  0  0  0  0999 V2000
   -3.5507   -3.2183    1.8116 H   0  0  0  0  0  0  0  0  0  0  0  0
   -3.4597   -2.3913    1.1076 C   0  0  0  0  0  0  0  0  0  0  0  0
   -4.1577   -1.6043    1.3866 H   0  0  0  0  0  0  0  0  0  0  0  0
   -3.6807   -2.7523    0.1036 H   0  0  0  0  0  0  0  0  0  0  0  0
   -2.0477   -1.8543    1.1546 C   0  0  0  0  0  0  0  0  0  0  0  0
   -1.2227   -2.3443    1.9146 O   0  0  0  0  0  0  0  0  0  0  0  0
   -1.7517   -0.8483    0.3266 N   0  0  0  0  0  0  0  0  0  0  0  0
   -2.4847   -0.5123   -0.2804 H   0  0  0  0  0  0  0  0  0  0  0  0
   -0.4117   -0.2463    0.2186 C   0  0  1  0  0  0  0  0  0  0  0  0
   -0.0395   -0.4235   -0.7935 H   0  0  0  0  0  0  0  0  0  0  0  0
   -0.5434    1.2843    0.3952 C   0  0  0  0  0  0  0  0  0  0  0  0
   -1.0037    1.4845    1.3661 H   0  0  0  0  0  0  0  0  0  0  0  0
    0.4551    1.7263    0.4166 H   0  0  0  0  0  0  0  0  0  0  0  0
   -1.3469    1.9891   -0.6772 C   0  0  0  0  0  0  0  0  0  0  0  0
   -0.9086    2.2509   -1.9608 N   0  3  0  0  0  0  0  0  0  0  0  0
   -0.0080    1.9291   -2.3270 H   0  0  0  0  0  0  0  0  0  0  0  0
   -1.8921    2.8905   -2.6243 C   0  0  0  0  0  0  0  0  0  0  0  0
   -1.8437    3.2151   -3.6618 H   0  0  0  0  0  0  0  0  0  0  0  0
   -2.9448    3.0412   -1.7891 N   0  0  0  0  0  0  0  0  0  0  0  0
   -3.8296    3.4863   -2.0182 H   0  0  0  0  0  0  0  0  0  0  0  0
   -2.6191    2.4807   -0.5618 C   0  0  0  0  0  0  0  0  0  0  0  0
   -3.2455    2.4351    0.3248 H   0  0  0  0  0  0  0  0  0  0  0  0
    0.5862   -0.9234    1.1749 C   0  0  0  0  0  0  0  0  0  0  0  0
    1.3646   -0.2477    1.8497 O   0  0  0  0  0  0  0  0  0  0  0  0
    0.5616   -2.2613    1.2126 N   0  0  0  0  0  0  0  0  0  0  0  0
   -0.1176   -2.7306    0.6332 H   0  0  0  0  0  0  0  0  0  0  0  0
    1.4457   -3.1010    2.0268 C   0  0  0  0  0  0  0  0  0  0  0  0
    0.9191   -3.4446    2.9194 H   0  0  0  0  0  0  0  0  0  0  0  0
    1.7632   -3.9734    1.4530 H   0  0  0  0  0  0  0  0  0  0  0  0
    2.3342   -2.5461    2.3354 H   0  0  0  0  0  0  0  0  0  0  0  0
  5  6  2  0  0  0  0
  5  7  1  0  0  0  0
  2  3  1  0  0  0  0
  2  4  1  0  0  0  0
  2  5  1  0  0  0  0
  1  2  1  0  0  0  0
 23 24  2  0  0  0  0
 23 25  1  0  0  0  0
 21 22  1  0  0  0  0
 19 20  1  0  0  0  0
 19 21  1  0  0  0  0
 17 18  1  0  0  0  0
 17 19  1  0  0  0  0
 15 16  1  0  0  0  0
 15 17  2  0  0  0  0
 14 15  1  0  0  0  0
 14 21  2  0  0  0  0
 11 12  1  0  0  0  0
 11 13  1  0  0  0  0
 11 14  1  0  0  0  0
  9 10  1  0  0  0  0
  9 11  1  0  0  0  0
  9 23  1  0  0  0  0
  7  8  1  0  0  0  0
  7  9  1  0  0  0  0
 27 28  1  0  0  0  0
 27 29  1  0  0  0  0
 27 30  1  0  0  0  0
 25 26  1  0  0  0  0
 25 27  1  0  0  0  0
M  CHG  1  15   1
M  END
$$$$
default_name
  -OEChem-01062215323D

 30 30  0     1  0  0  0  0  0999 V2000
   -3.5507   -3.2183    1.8116 H   0  0  0  0  0  0  0  0  0  0  0  0
   -3.4597   -2.3913    1.1076 C   0  0  0  0  0  0  0  0  0  0  0  0
   -4.1577   -1.6043    1.3866 H   0  0  0  0  0  0  0  0  0  0  0  0
   -3.6807   -2.7523    0.1036 H   0  0  0  0  0  0  0  0  0  0  0  0
   -2.0477   -1.8543    1.1546 C   0  0  0  0  0  0  0  0  0  0  0  0
   -1.2227   -2.3443    1.9146 O   0  0  0  0  0  0  0  0  0  0  0  0
   -1.7517   -0.8483    0.3266 N   0  0  0  0  0  0  0  0  0  0  0  0
   -2.4847   -0.5123   -0.2804 H   0  0  0  0  0  0  0  0  0  0  0  0
   -0.4117   -0.2463    0.2186 C   0  0  1  0  0  0  0  0  0  0  0  0
   -0.0395   -0.4235   -0.7935 H   0  0  0  0  0  0  0  0  0  0  0  0
   -0.5434    1.2843    0.3952 C   0  0  0  0  0  0  0  0  0  0  0  0
   -1.0037    1.4845    1.3661 H   0  0  0  0  0  0  0  0  0  0  0  0
    0.4551    1.7263    0.4166 H   0  0  0  0  0  0  0  0  0  0  0  0
   -1.3469    1.9891   -0.6772 C   0  0  0  0  0  0  0  0  0  0  0  0
   -0.9086    2.2509   -1.9608 N   0  3  0  0  0  0  0  0  0  0  0  0
   -0.0080    1.9291   -2.3270 H   0  0  0  0  0  0  0  0  0  0  0  0
   -1.8921    2.8905   -2.6243 C   0  0  0  0  0  0  0  0  0  0  0  0
   -1.8437    3.2151   -3.6618 H   0  0  0  0  0  0  0  0  0  0  0  0
   -2.9448    3.0412   -1.7891 N   0  0  0  0  0  0  0  0  0  0  0  0
   -3.8296    3.4863   -2.0182 H   0  0  0  0  0  0  0  0  0  0  0  0
   -2.6191    2.4807   -0.5618 C   0  0  0  0  0  0  0  0  0  0  0  0
   -3.2455    2.4351    0.3248 H   0  0  0  0  0  0  0  0  0  0  0  0
    0.5862   -0.9234    1.1749 C   0  0  0  0  0  0  0  0  0  0  0  0
    1.1664   -0.2682    2.0420 O   0  0  0  0  0  0  0  0  0  0  0  0
    0.7865   -2.2350    0.9966 N   0  0  0  0  0  0  0  0  0  0  0  0
    0.2587   -2.6913    0.2683 H   0  0  0  0  0  0  0  0  0  0  0  0
    1.7147   -3.0622    1.7735 C   0  0  0  0  0  0  0  0  0  0  0  0
    1.1677   -3.6340    2.5257 H   0  0  0  0  0  0  0  0  0  0  0  0
    2.2322   -3.7611    1.1140 H   0  0  0  0  0  0  0  0  0  0  0  0
    2.4602   -2.4430    2.2769 H   0  0  0  0  0  0  0  0  0  0  0  0
  5  6  2  0  0  0  0
  5  7  1  0  0  0  0
  2  3  1  0  0  0  0
  2  4  1  0  0  0  0
  2  5  1  0  0  0  0
  1  2  1  0  0  0  0
 23 24  2  0  0  0  0
 23 25  1  0  0  0  0
 21 22  1  0  0  0  0
 19 20  1  0  0  0  0
 19 21  1  0  0  0  0
 17 18  1  0  0  0  0
 17 19  1  0  0  0  0
 15 16  1  0  0  0  0
 15 17  2  0  0  0  0
 14 15  1  0  0  0  0
 14 21  2  0  0  0  0
 11 12  1  0  0  0  0
 11 13  1  0  0  0  0
 11 14  1  0  0  0  0
  9 10  1  0  0  0  0
  9 11  1  0  0  0  0
  9 23  1  0  0  0  0
  7  8  1  0  0  0  0
  7  9  1  0  0  0  0
 27 28  1  0  0  0  0
 27 29  1  0  0  0  0
 27 30  1  0  0  0  0
 25 26  1  0  0  0  0
 25 27  1  0  0  0  0
M  CHG  1  15   1
M  END
$$$$
default_name
  -OEChem-01062215323D

 30 30  0     1  0  0  0  0  0999 V2000
   -3.5507   -3.2183    1.8116 H   0  0  0  0  0  0  0  0  0  0  0  0
   -3.4597   -2.3913    1.1076 C   0  0  0  0  0  0  0  0  0  0  0  0
   -4.1577   -1.6043    1.3866 H   0  0  0  0  0  0  0  0  0  0  0  0
   -3.6807   -2.7523    0.1036 H   0  0  0  0  0  0  0  0  0  0  0  0
   -2.0477   -1.8543    1.1546 C   0  0  0  0  0  0  0  0  0  0  0  0
   -1.2227   -2.3443    1.9146 O   0  0  0  0  0  0  0  0  0  0  0  0
   -1.7517   -0.8483    0.3266 N   0  0  0  0  0  0  0  0  0  0  0  0
   -2.4847   -0.5123   -0.2804 H   0  0  0  0  0  0  0  0  0  0  0  0
   -0.4117   -0.2463    0.2186 C   0  0  1  0  0  0  0  0  0  0  0  0
   -0.0395   -0.4235   -0.7935 H   0  0  0  0  0  0  0  0  0  0  0  0
   -0.5434    1.2843    0.3952 C   0  0  0  0  0  0  0  0  0  0  0  0
   -1.0037    1.4845    1.3661 H   0  0  0  0  0  0  0  0  0  0  0  0
    0.4551    1.7263    0.4166 H   0  0  0  0  0  0  0  0  0  0  0  0
   -1.3469    1.9891   -0.6772 C   0  0  0  0  0  0  0  0  0  0  0  0
   -0.9086    2.2509   -1.9608 N   0  3  0  0  0  0  0  0  0  0  0  0
   -0.0080    1.9291   -2.3270 H   0  0  0  0  0  0  0  0  0  0  0  0
   -1.8921    2.8905   -2.6243 C   0  0  0  0  0  0  0  0  0  0  0  0
   -1.8437    3.2151   -3.6618 H   0  0  0  0  0  0  0  0  0  0  0  0
   -2.9448    3.0412   -1.7891 N   0  0  0  0  0  0  0  0  0  0  0  0
   -3.8296    3.4863   -2.0182 H   0  0  0  0  0  0  0  0  0  0  0  0
   -2.6191    2.4807   -0.5618 C   0  0  0  0  0  0  0  0  0  0  0  0
   -3.2455    2.4351    0.3248 H   0  0  0  0  0  0  0  0  0  0  0  0
    0.5862   -0.9234    1.1749 C   0  0  0  0  0  0  0  0  0  0  0  0
    0.9564   -0.3522    2.2018 O   0  0  0  0  0  0  0  0  0  0  0  0
    1.0240   -2.1371    0.8180 N   0  0  0  0  0  0  0  0  0  0  0  0
    0.6574   -2.5317   -0.0348 H   0  0  0  0  0  0  0  0  0  0  0  0
    1.9972   -2.9390    1.5659 C   0  0  0  0  0  0  0  0  0  0  0  0
    1.4832   -3.7110    2.1420 H   0  0  0  0  0  0  0  0  0  0  0  0
    2.6896   -3.4236    0.8755 H   0  0  0  0  0  0  0  0  0  0  0  0
    2.5719   -2.3133    2.2521 H   0  0  0  0  0  0  0  0  0  0  0  0
  5  6  2  0  0  0  0
  5  7  1  0  0  0  0
  2  3  1  0  0  0  0
  2  4  1  0  0  0  0
  2  5  1  0  0  0  0
  1  2  1  0  0  0  0
 23 24  2  0  0  0  0
 23 25  1  0  0  0  0
 21 22  1  0  0  0  0
 19 20  1  0  0  0  0
 19 21  1  0  0  0  0
 17 18  1  0  0  0  0
 17 19  1  0  0  0  0
 15 16  1  0  0  0  0
 15 17  2  0  0  0  0
 14 15  1  0  0  0  0
 14 21  2  0  0  0  0
 11 12  1  0  0  0  0
 11 13  1  0  0  0  0
 11 14  1  0  0  0  0
  9 10  1  0  0  0  0
  9 11  1  0  0  0  0
  9 23  1  0  0  0  0
  7  8  1  0  0  0  0
  7  9  1  0  0  0  0
 27 28  1  0  0  0  0
 27 29  1  0  0  0  0
 27 30  1  0  0  0  0
 25 26  1  0  0  0  0
 25 27  1  0  0  0  0
M  CHG  1  15   1
M  END
$$$$
default_name
  -OEChem-01062215323D

 30 30  0     1  0  0  0  0  0999 V2000
   -3.5507   -3.2183    1.8116 H   0  0  0  0  0  0  0  0  0  0  0  0
   -3.4597   -2.3913    1.1076 C   0  0  0  0  0  0  0  0  0  0  0  0
   -4.1577   -1.6043    1.3866 H   0  0  0  0  0  0  0  0  0  0  0  0
   -3.6807   -2.7523    0.1036 H   0  0  0  0  0  0  0  0  0  0  0  0
   -2.0477   -1.8543    1.1546 C   0  0  0  0  0  0  0  0  0  0  0  0
   -1.2227   -2.3443    1.9146 O   0  0  0  0  0  0  0  0  0  0  0  0
   -1.7517   -0.8483    0.3266 N   0  0  0  0  0  0  0  0  0  0  0  0
   -2.4847   -0.5123   -0.2804 H   0  0  0  0  0  0  0  0  0  0  0  0
   -0.4117   -0.2463    0.2186 C   0  0  1  0  0  0  0  0  0  0  0  0
   -0.0395   -0.4235   -0.7935 H   0  0  0  0  0  0  0  0  0  0  0  0
   -0.5434    1.2843    0.3952 C   0  0  0  0  0  0  0  0  0  0  0  0
   -1.0037    1.4845    1.3661 H   0  0  0  0  0  0  0  0  0  0  0  0
    0.4551    1.7263    0.4166 H   0  0  0  0  0  0  0  0  0  0  0  0
   -1.3469    1.9891   -0.6772 C   0  0  0  0  0  0  0  0  0  0  0  0
   -0.9086    2.2509   -1.9608 N   0  3  0  0  0  0  0  0  0  0  0  0
   -0.0080    1.9291   -2.3270 H   0  0  0  0  0  0  0  0  0  0  0  0
   -1.8921    2.8905   -2.6243 C   0  0  0  0  0  0  0  0  0  0  0  0
   -1.8437    3.2151   -3.6618 H   0  0  0  0  0  0  0  0  0  0  0  0
   -2.9448    3.0412   -1.7891 N   0  0  0  0  0  0  0  0  0  0  0  0
   -3.8296    3.4863   -2.0182 H   0  0  0  0  0  0  0  0  0  0  0  0
   -2.6191    2.4807   -0.5618 C   0  0  0  0  0  0  0  0  0  0  0  0
   -3.2455    2.4351    0.3248 H   0  0  0  0  0  0  0  0  0  0  0  0
    0.5862   -0.9234    1.1749 C   0  0  0  0  0  0  0  0  0  0  0  0
    0.7488   -0.4939    2.3180 O   0  0  0  0  0  0  0  0  0  0  0  0
    1.2581   -1.9744    0.6890 N   0  0  0  0  0  0  0  0  0  0  0  0
    1.0514   -2.2624   -0.2553 H   0  0  0  0  0  0  0  0  0  0  0  0
    2.2739   -2.7397    1.4183 C   0  0  0  0  0  0  0  0  0  0  0  0
    1.8440   -3.6702    1.7944 H   0  0  0  0  0  0  0  0  0  0  0  0
    3.1044   -2.9841    0.7539 H   0  0  0  0  0  0  0  0  0  0  0  0
    2.6619   -2.1659    2.2627 H   0  0  0  0  0  0  0  0  0  0  0  0
  5  6  2  0  0  0  0
  5  7  1  0  0  0  0
  2  3  1  0  0  0  0
  2  4  1  0  0  0  0
  2  5  1  0  0  0  0
  1  2  1  0  0  0  0
 23 24  2  0  0  0  0
 23 25  1  0  0  0  0
 21 22  1  0  0  0  0
 19 20  1  0  0  0  0
 19 21  1  0  0  0  0
 17 18  1  0  0  0  0
 17 19  1  0  0  0  0
 15 16  1  0  0  0  0
 15 17  2  0  0  0  0
 14 15  1  0  0  0  0
 14 21  2  0  0  0  0
 11 12  1  0  0  0  0
 11 13  1  0  0  0  0
 11 14  1  0  0  0  0
  9 10  1  0  0  0  0
  9 11  1  0  0  0  0
  9 23  1  0  0  0  0
  7  8  1  0  0  0  0
  7  9  1  0  0  0  0
 27 28  1  0  0  0  0
 27 29  1  0  0  0  0
 27 30  1  0  0  0  0
 25 26  1  0  0  0  0
 25 27  1  0  0  0  0
M  CHG  1  15   1
M  END
$$$$
default_name
  -OEChem-01062215323D

 30 30  0     1  0  0  0  0  0999 V2000
   -3.5507   -3.2183    1.8116 H   0  0  0  0  0  0  0  0  0  0  0  0
   -3.4597   -2.3913    1.1076 C   0  0  0  0  0  0  0  0  0  0  0  0
   -4.1577   -1.6043    1.3866 H   0  0  0  0  0  0  0  0  0  0  0  0
   -3.6807   -2.7523    0.1036 H   0  0  0  0  0  0  0  0  0  0  0  0
   -2.0477   -1.8543    1.1546 C   0  0  0  0  0  0  0  0  0  0  0  0
   -1.2227   -2.3443    1.9146 O   0  0  0  0  0  0  0  0  0  0  0  0
   -1.7517   -0.8483    0.3266 N   0  0  0  0  0  0  0  0  0  0  0  0
   -2.4847   -0.5123   -0.2804 H   0  0  0  0  0  0  0  0  0  0  0  0
   -0.4117   -0.2463    0.2186 C   0  0  1  0  0  0  0  0  0  0  0  0
   -0.0395   -0.4235   -0.7935 H   0  0  0  0  0  0  0  0  0  0  0  0
   -0.5434    1.2843    0.3952 C   0  0  0  0  0  0  0  0  0  0  0  0
   -1.0037    1.4845    1.3661 H   0  0  0  0  0  0  0  0  0  0  0  0
    0.4551    1.7263    0.4166 H   0  0  0  0  0  0  0  0  0  0  0  0
   -1.3469    1.9891   -0.6772 C   0  0  0  0  0  0  0  0  0  0  0  0
   -0.9086    2.2509   -1.9608 N   0  3  0  0  0  0  0  0  0  0  0  0
   -0.0080    1.9291   -2.3270 H   0  0  0  0  0  0  0  0  0  0  0  0
   -1.8921    2.8905   -2.6243 C   0  0  0  0  0  0  0  0  0  0  0  0
   -1.8437    3.2151   -3.6618 H   0  0  0  0  0  0  0  0  0  0  0  0
   -2.9448    3.0412   -1.7891 N   0  0  0  0  0  0  0  0  0  0  0  0
   -3.8296    3.4863   -2.0182 H   0  0  0  0  0  0  0  0  0  0  0  0
   -2.6191    2.4807   -0.5618 C   0  0  0  0  0  0  0  0  0  0  0  0
   -3.2455    2.4351    0.3248 H   0  0  0  0  0  0  0  0  0  0  0  0
    0.5862   -0.9234    1.1749 C   0  0  0  0  0  0  0  0  0  0  0  0
    0.5579   -0.6836    2.3829 O   0  0  0  0  0  0  0  0  0  0  0  0
    1.4727   -1.7580    0.6183 N   0  0  0  0  0  0  0  0  0  0  0  0
    1.4138   -1.9020   -0.3783 H   0  0  0  0  0  0  0  0  0  0  0  0
    2.5259   -2.4779    1.3407 C   0  0  0  0  0  0  0  0  0  0  0  0
    2.2255   -3.5144    1.5066 H   0  0  0  0  0  0  0  0  0  0  0  0
    3.4483   -2.4725    0.7574 H   0  0  0  0  0  0  0  0  0  0  0  0
    2.7238   -2.0109    2.3078 H   0  0  0  0  0  0  0  0  0  0  0  0
  5  6  2  0  0  0  0
  5  7  1  0  0  0  0
  2  3  1  0  0  0  0
  2  4  1  0  0  0  0
  2  5  1  0  0  0  0
  1  2  1  0  0  0  0
 23 24  2  0  0  0  0
 23 25  1  0  0  0  0
 21 22  1  0  0  0  0
 19 20  1  0  0  0  0
 19 21  1  0  0  0  0
 17 18  1  0  0  0  0
 17 19  1  0  0  0  0
 15 16  1  0  0  0  0
 15 17  2  0  0  0  0
 14 15  1  0  0  0  0
 14 21  2  0  0  0  0
 11 12  1  0  0  0  0
 11 13  1  0  0  0  0
 11 14  1  0  0  0  0
  9 10  1  0  0  0  0
  9 11  1  0  0  0  0
  9 23  1  0  0  0  0
  7  8  1  0  0  0  0
  7  9  1  0  0  0  0
 27 28  1  0  0  0  0
 27 29  1  0  0  0  0
 27 30  1  0  0  0  0
 25 26  1  0  0  0  0
 25 27  1  0  0  0  0
M  CHG  1  15   1
M  END
$$$$
default_name
  -OEChem-01062215323D

 30 30  0     1  0  0  0  0  0999 V2000
   -3.5507   -3.2183    1.8116 H   0  0  0  0  0  0  0  0  0  0  0  0
   -3.4597   -2.3913    1.1076 C   0  0  0  0  0  0  0  0  0  0  0  0
   -4.1577   -1.6043    1.3866 H   0  0  0  0  0  0  0  0  0  0  0  0
   -3.6807   -2.7523    0.1036 H   0  0  0  0  0  0  0  0  0  0  0  0
   -2.0477   -1.8543    1.1546 C   0  0  0  0  0  0  0  0  0  0  0  0
   -1.2227   -2.3443    1.9146 O   0  0  0  0  0  0  0  0  0  0  0  0
   -1.7517   -0.8483    0.3266 N   0  0  0  0  0  0  0  0  0  0  0  0
   -2.4847   -0.5123   -0.2804 H   0  0  0  0  0  0  0  0  0  0  0  0
   -0.4117   -0.2463    0.2186 C   0  0  1  0  0  0  0  0  0  0  0  0
   -0.0395   -0.4235   -0.7935 H   0  0  0  0  0  0  0  0  0  0  0  0
   -0.5434    1.2843    0.3952 C   0  0  0  0  0  0  0  0  0  0  0  0
   -1.0037    1.4845    1.3661 H   0  0  0  0  0  0  0  0  0  0  0  0
    0.4551    1.7263    0.4166 H   0  0  0  0  0  0  0  0  0  0  0  0
   -1.3469    1.9891   -0.6772 C   0  0  0  0  0  0  0  0  0  0  0  0
   -0.9086    2.2509   -1.9608 N   0  3  0  0  0  0  0  0  0  0  0  0
   -0.0080    1.9291   -2.3270 H   0  0  0  0  0  0  0  0  0  0  0  0
   -1.8921    2.8905   -2.6243 C   0  0  0  0  0  0  0  0  0  0  0  0
   -1.8437    3.2151   -3.6618 H   0  0  0  0  0  0  0  0  0  0  0  0
   -2.9448    3.0412   -1.7891 N   0  0  0  0  0  0  0  0  0  0  0  0
   -3.8296    3.4863   -2.0182 H   0  0  0  0  0  0  0  0  0  0  0  0
   -2.6191    2.4807   -0.5618 C   0  0  0  0  0  0  0  0  0  0  0  0
   -3.2455    2.4351    0.3248 H   0  0  0  0  0  0  0  0  0  0  0  0
    0.5862   -0.9234    1.1749 C   0  0  0  0  0  0  0  0  0  0  0  0
    0.3966   -0.9085    2.3921 O   0  0  0  0  0  0  0  0  0  0  0  0
    1.6533   -1.5025    0.6108 N   0  0  0  0  0  0  0  0  0  0  0  0
    1.7199   -1.4750   -0.3953 H   0  0  0  0  0  0  0  0  0  0  0  0
    2.7361   -2.1715    1.3383 C   0  0  0  0  0  0  0  0  0  0  0  0
    2.6017   -3.2543    1.2981 H   0  0  0  0  0  0  0  0  0  0  0  0
    3.6977   -1.9235    0.8858 H   0  0  0  0  0  0  0  0  0  0  0  0
    2.7536   -1.8587    2.3845 H   0  0  0  0  0  0  0  0  0  0  0  0
  5  6  2  0  0  0  0
  5  7  1  0  0  0  0
  2  3  1  0  0  0  0
  2  4  1  0  0  0  0
  2  5  1  0  0  0  0
  1  2  1  0  0  0  0
 23 24  2  0  0  0  0
 23 25  1  0  0  0  0
 21 22  1  0  0  0  0
 19 20  1  0  0  0  0
 19 21  1  0  0  0  0
 17 18  1  0  0  0  0
 17 19  1  0  0  0  0
 15 16  1  0  0  0  0
 15 17  2  0  0  0  0
 14 15  1  0  0  0  0
 14 21  2  0  0  0  0
 11 12  1  0  0  0  0
 11 13  1  0  0  0  0
 11 14  1  0  0  0  0
  9 10  1  0  0  0  0
  9 11  1  0  0  0  0
  9 23  1  0  0  0  0
  7  8  1  0  0  0  0
  7  9  1  0  0  0  0
 27 28  1  0  0  0  0
 27 29  1  0  0  0  0
 27 30  1  0  0  0  0
 25 26  1  0  0  0  0
 25 27  1  0  0  0  0
M  CHG  1  15   1
M  END
$$$$
default_name
  -OEChem-01062215323D

 30 30  0     1  0  0  0  0  0999 V2000
   -3.5507   -3.2183    1.8116 H   0  0  0  0  0  0  0  0  0  0  0  0
   -3.4597   -2.3913    1.1076 C   0  0  0  0  0  0  0  0  0  0  0  0
   -4.1577   -1.6043    1.3866 H   0  0  0  0  0  0  0  0  0  0  0  0
   -3.6807   -2.7523    0.1036 H   0  0  0  0  0  0  0  0  0  0  0  0
   -2.0477   -1.8543    1.1546 C   0  0  0  0  0  0  0  0  0  0  0  0
   -1.2227   -2.3443    1.9146 O   0  0  0  0  0  0  0  0  0  0  0  0
   -1.7517   -0.8483    0.3266 N   0  0  0  0  0  0  0  0  0  0  0  0
   -2.4847   -0.5123   -0.2804 H   0  0  0  0  0  0  0  0  0  0  0  0
   -0.4117   -0.2463    0.2186 C   0  0  1  0  0  0  0  0  0  0  0  0
   -0.0395   -0.4235   -0.7935 H   0  0  0  0  0  0  0  0  0  0  0  0
   -0.5434    1.2843    0.3952 C   0  0  0  0  0  0  0  0  0  0  0  0
   -1.0037    1.4845    1.3661 H   0  0  0  0  0  0  0  0  0  0  0  0
    0.4551    1.7263    0.4166 H   0  0  0  0  0  0  0  0  0  0  0  0
   -1.3469    1.9891   -0.6772 C   0  0  0  0  0  0  0  0  0  0  0  0
   -0.9086    2.2509   -1.9608 N   0  3  0  0  0  0  0  0  0  0  0  0
   -0.0080    1.9291   -2.3270 H   0  0  0  0  0  0  0  0  0  0  0  0
   -1.8921    2.8905   -2.6243 C   0  0  0  0  0  0  0  0  0  0  0  0
   -1.8437    3.2151   -3.6618 H   0  0  0  0  0  0  0  0  0  0  0  0
   -2.9448    3.0412   -1.7891 N   0  0  0  0  0  0  0  0  0  0  0  0
   -3.8296    3.4863   -2.0182 H   0  0  0  0  0  0  0  0  0  0  0  0
   -2.6191    2.4807   -0.5618 C   0  0  0  0  0  0  0  0  0  0  0  0
   -3.2455    2.4351    0.3248 H   0  0  0  0  0  0  0  0  0  0  0  0
    0.5862   -0.9234    1.1749 C   0  0  0  0  0  0  0  0  0  0  0  0
    0.2759   -1.1531    2.3448 O   0  0  0  0  0  0  0  0  0  0  0  0
    1.7874   -1.2255    0.6669 N   0  0  0  0  0  0  0  0  0  0  0  0
    1.9488   -1.0105   -0.3052 H   0  0  0  0  0  0  0  0  0  0  0  0
    2.8901   -1.8414    1.4114 C   0  0  0  0  0  0  0  0  0  0  0  0
    2.9470   -2.9076    1.1833 H   0  0  0  0  0  0  0  0  0  0  0  0
    3.8358   -1.3747    1.1303 H   0  0  0  0  0  0  0  0  0  0  0  0
    2.7491   -1.7198    2.4875 H   0  0  0  0  0  0  0  0  0  0  0  0
  5  6  2  0  0  0  0
  5  7  1  0  0  0  0
  2  3  1  0  0  0  0
  2  4  1  0  0  0  0
  2  5  1  0  0  0  0
  1  2  1  0  0  0  0
 23 24  2  0  0  0  0
 23 25  1  0  0  0  0
 21 22  1  0  0  0  0
 19 20  1  0  0  0  0
 19 21  1  0  0  0  0
 17 18  1  0  0  0  0
 17 19  1  0  0  0  0
 15 16  1  0  0  0  0
 15 17  2  0  0  0  0
 14 15  1  0  0  0  0
 14 21  2  0  0  0  0
 11 12  1  0  0  0  0
 11 13  1  0  0  0  0
 11 14  1  0  0  0  0
  9 10  1  0  0  0  0
  9 11  1  0  0  0  0
  9 23  1  0  0  0  0
  7  8  1  0  0  0  0
  7  9  1  0  0  0  0
 27 28  1  0  0  0  0
 27 29  1  0  0  0  0
 27 30  1  0  0  0  0
 25 26  1  0  0  0  0
 25 27  1  0  0  0  0
M  CHG  1  15   1
M  END
$$$$
default_name
  -OEChem-01062215323D

 30 30  0     1  0  0  0  0  0999 V2000
   -3.5507   -3.2183    1.8116 H   0  0  0  0  0  0  0  0  0  0  0  0
   -3.4597   -2.3913    1.1076 C   0  0  0  0  0  0  0  0  0  0  0  0
   -4.1577   -1.6043    1.3866 H   0  0  0  0  0  0  0  0  0  0  0  0
   -3.6807   -2.7523    0.1036 H   0  0  0  0  0  0  0  0  0  0  0  0
   -2.0477   -1.8543    1.1546 C   0  0  0  0  0  0  0  0  0  0  0  0
   -1.2227   -2.3443    1.9146 O   0  0  0  0  0  0  0  0  0  0  0  0
   -1.7517   -0.8483    0.3266 N   0  0  0  0  0  0  0  0  0  0  0  0
   -2.4847   -0.5123   -0.2804 H   0  0  0  0  0  0  0  0  0  0  0  0
   -0.4117   -0.2463    0.2186 C   0  0  1  0  0  0  0  0  0  0  0  0
   -0.0395   -0.4235   -0.7935 H   0  0  0  0  0  0  0  0  0  0  0  0
   -0.5434    1.2843    0.3952 C   0  0  0  0  0  0  0  0  0  0  0  0
   -1.0037    1.4845    1.3661 H   0  0  0  0  0  0  0  0  0  0  0  0
    0.4551    1.7263    0.4166 H   0  0  0  0  0  0  0  0  0  0  0  0
   -1.3469    1.9891   -0.6772 C   0  0  0  0  0  0  0  0  0  0  0  0
   -0.9086    2.2509   -1.9608 N   0  3  0  0  0  0  0  0  0  0  0  0
   -0.0080    1.9291   -2.3270 H   0  0  0  0  0  0  0  0  0  0  0  0
   -1.8921    2.8905   -2.6243 C   0  0  0  0  0  0  0  0  0  0  0  0
   -1.8437    3.2151   -3.6618 H   0  0  0  0  0  0  0  0  0  0  0  0
   -2.9448    3.0412   -1.7891 N   0  0  0  0  0  0  0  0  0  0  0  0
   -3.8296    3.4863   -2.0182 H   0  0  0  0  0  0  0  0  0  0  0  0
   -2.6191    2.4807   -0.5618 C   0  0  0  0  0  0  0  0  0  0  0  0
   -3.2455    2.4351    0.3248 H   0  0  0  0  0  0  0  0  0  0  0  0
    0.5862   -0.9234    1.1749 C   0  0  0  0  0  0  0  0  0  0  0  0
    0.2040   -1.4009    2.2443 O   0  0  0  0  0  0  0  0  0  0  0  0
    1.8661   -0.9457    0.7830 N   0  0  0  0  0  0  0  0  0  0  0  0
    2.0850   -0.5400   -0.1142 H   0  0  0  0  0  0  0  0  0  0  0  0
    2.9774   -1.5100    1.5549 C   0  0  0  0  0  0  0  0  0  0  0  0
    3.2379   -2.4979    1.1698 H   0  0  0  0  0  0  0  0  0  0  0  0
    3.8530   -0.8635    1.4744 H   0  0  0  0  0  0  0  0  0  0  0  0
    2.7108   -1.6037    2.6098 H   0  0  0  0  0  0  0  0  0  0  0  0
  5  6  2  0  0  0  0
  5  7  1  0  0  0  0
  2  3  1  0  0  0  0
  2  4  1  0  0  0  0
  2  5  1  0  0  0  0
  1  2  1  0  0  0  0
 23 24  2  0  0  0  0
 23 25  1  0  0  0  0
 21 22  1  0  0  0  0
 19 20  1  0  0  0  0
 19 21  1  0  0  0  0
 17 18  1  0  0  0  0
 17 19  1  0  0  0  0
 15 16  1  0  0  0  0
 15 17  2  0  0  0  0
 14 15  1  0  0  0  0
 14 21  2  0  0  0  0
 11 12  1  0  0  0  0
 11 13  1  0  0  0  0
 11 14  1  0  0  0  0
  9 10  1  0  0  0  0
  9 11  1  0  0  0  0
  9 23  1  0  0  0  0
  7  8  1  0  0  0  0
  7  9  1  0  0  0  0
 27 28  1  0  0  0  0
 27 29  1  0  0  0  0
 27 30  1  0  0  0  0
 25 26  1  0  0  0  0
 25 27  1  0  0  0  0
M  CHG  1  15   1
M  END
$$$$
default_name
  -OEChem-01062215323D

 30 30  0     1  0  0  0  0  0999 V2000
   -3.5507   -3.2183    1.8116 H   0  0  0  0  0  0  0  0  0  0  0  0
   -3.4597   -2.3913    1.1076 C   0  0  0  0  0  0  0  0  0  0  0  0
   -4.1577   -1.6043    1.3866 H   0  0  0  0  0  0  0  0  0  0  0  0
   -3.6807   -2.7523    0.1036 H   0  0  0  0  0  0  0  0  0  0  0  0
   -2.0477   -1.8543    1.1546 C   0  0  0  0  0  0  0  0  0  0  0  0
   -1.2227   -2.3443    1.9146 O   0  0  0  0  0  0  0  0  0  0  0  0
   -1.7517   -0.8483    0.3266 N   0  0  0  0  0  0  0  0  0  0  0  0
   -2.4847   -0.5123   -0.2804 H   0  0  0  0  0  0  0  0  0  0  0  0
   -0.4117   -0.2463    0.2186 C   0  0  1  0  0  0  0  0  0  0  0  0
   -0.0395   -0.4235   -0.7935 H   0  0  0  0  0  0  0  0  0  0  0  0
   -0.5434    1.2843    0.3952 C   0  0  0  0  0  0  0  0  0  0  0  0
   -1.0037    1.4845    1.3661 H   0  0  0  0  0  0  0  0  0  0  0  0
    0.4551    1.7263    0.4166 H   0  0  0  0  0  0  0  0  0  0  0  0
   -1.3469    1.9891   -0.6772 C   0  0  0  0  0  0  0  0  0  0  0  0
   -0.9086    2.2509   -1.9608 N   0  3  0  0  0  0  0  0  0  0  0  0
   -0.0080    1.9291   -2.3270 H   0  0  0  0  0  0  0  0  0  0  0  0
   -1.8921    2.8905   -2.6243 C   0  0  0  0  0  0  0  0  0  0  0  0
   -1.8437    3.2151   -3.6618 H   0  0  0  0  0  0  0  0  0  0  0  0
   -2.9448    3.0412   -1.7891 N   0  0  0  0  0  0  0  0  0  0  0  0
   -3.8296    3.4863   -2.0182 H   0  0  0  0  0  0  0  0  0  0  0  0
   -2.6191    2.4807   -0.5618 C   0  0  0  0  0  0  0  0  0  0  0  0
   -3.2455    2.4351    0.3248 H   0  0  0  0  0  0  0  0  0  0  0  0
    0.5862   -0.9234    1.1749 C   0  0  0  0  0  0  0  0  0  0  0  0
    0.1859   -1.6350    2.0974 O   0  0  0  0  0  0  0  0  0  0  0  0
    1.8839   -0.6823    0.9509 N   0  0  0  0  0  0  0  0  0  0  0  0
    2.1191   -0.0958    0.1648 H   0  0  0  0  0  0  0  0  0  0  0  0
    2.9922   -1.1999    1.7591 C   0  0  0  0  0  0  0  0  0  0  0  0
    3.4546   -2.0531    1.2587 H   0  0  0  0  0  0  0  0  0  0  0  0
    3.7483   -0.4246    1.8944 H   0  0  0  0  0  0  0  0  0  0  0  0
    2.6411   -1.5182    2.7430 H   0  0  0  0  0  0  0  0  0  0  0  0
  5  6  2  0  0  0  0
  5  7  1  0  0  0  0
  2  3  1  0  0  0  0
  2  4  1  0  0  0  0
  2  5  1  0  0  0  0
  1  2  1  0  0  0  0
 23 24  2  0  0  0  0
 23 25  1  0  0  0  0
 21 22  1  0  0  0  0
 19 20  1  0  0  0  0
 19 21  1  0  0  0  0
 17 18  1  0  0  0  0
 17 19  1  0  0  0  0
 15 16  1  0  0  0  0
 15 17  2  0  0  0  0
 14 15  1  0  0  0  0
 14 21  2  0  0  0  0
 11 12  1  0  0  0  0
 11 13  1  0  0  0  0
 11 14  1  0  0  0  0
  9 10  1  0  0  0  0
  9 11  1  0  0  0  0
  9 23  1  0  0  0  0
  7  8  1  0  0  0  0
  7  9  1  0  0  0  0
 27 28  1  0  0  0  0
 27 29  1  0  0  0  0
 27 30  1  0  0  0  0
 25 26  1  0  0  0  0
 25 27  1  0  0  0  0
M  CHG  1  15   1
M  END
$$$$
default_name
  -OEChem-01062215323D

 30 30  0     1  0  0  0  0  0999 V2000
   -3.5507   -3.2183    1.8116 H   0  0  0  0  0  0  0  0  0  0  0  0
   -3.4597   -2.3913    1.1076 C   0  0  0  0  0  0  0  0  0  0  0  0
   -4.1577   -1.6043    1.3866 H   0  0  0  0  0  0  0  0  0  0  0  0
   -3.6807   -2.7523    0.1036 H   0  0  0  0  0  0  0  0  0  0  0  0
   -2.0477   -1.8543    1.1546 C   0  0  0  0  0  0  0  0  0  0  0  0
   -1.2227   -2.3443    1.9146 O   0  0  0  0  0  0  0  0  0  0  0  0
   -1.7517   -0.8483    0.3266 N   0  0  0  0  0  0  0  0  0  0  0  0
   -2.4847   -0.5123   -0.2804 H   0  0  0  0  0  0  0  0  0  0  0  0
   -0.4117   -0.2463    0.2186 C   0  0  1  0  0  0  0  0  0  0  0  0
   -0.1521   -0.1815   -0.8409 H   0  0  0  0  0  0  0  0  0  0  0  0
   -0.4759    1.2000    0.7623 C   0  0  0  0  0  0  0  0  0  0  0  0
   -0.8267    1.1678    1.7969 H   0  0  0  0  0  0  0  0  0  0  0  0
    0.5329    1.6181    0.7786 H   0  0  0  0  0  0  0  0  0  0  0  0
   -1.3634    2.1433   -0.0217 C   0  0  0  0  0  0  0  0  0  0  0  0
   -1.0522    2.6985   -1.2478 N   0  3  0  0  0  0  0  0  0  0  0  0
   -0.2050    2.4668   -1.7744 H   0  0  0  0  0  0  0  0  0  0  0  0
   -2.0784    3.4830   -1.6327 C   0  0  0  0  0  0  0  0  0  0  0  0
   -2.1274    4.0435   -2.5641 H   0  0  0  0  0  0  0  0  0  0  0  0
   -3.0337    3.4387   -0.6767 N   0  0  0  0  0  0  0  0  0  0  0  0
   -3.9229    3.9309   -0.6981 H   0  0  0  0  0  0  0  0  0  0  0  0
   -2.6006    2.6018    0.3425 C   0  0  0  0  0  0  0  0  0  0  0  0
   -3.1330    2.3518    1.2560 H   0  0  0  0  0  0  0  0  0  0  0  0
    0.6579   -1.1366    0.8759 C   0  0  0  0  0  0  0  0  0  0  0  0
    0.3441   -2.1991    1.4148 O   0  0  0  0  0  0  0  0  0  0  0  0
    1.9172   -0.6840    0.8358 N   0  0  0  0  0  0  0  0  0  0  0  0
    2.0818    0.1916    0.3630 H   0  0  0  0  0  0  0  0  0  0  0  0
    3.0773   -1.3576    1.4271 C   0  0  0  0  0  0  0  0  0  0  0  0
    3.6426   -1.8800    0.6527 H   0  0  0  0  0  0  0  0  0  0  0  0
    3.7324   -0.6242    1.9006 H   0  0  0  0  0  0  0  0  0  0  0  0
    2.7641   -2.0820    2.1819 H   0  0  0  0  0  0  0  0  0  0  0  0
  5  6  2  0  0  0  0
  5  7  1  0  0  0  0
  2  3  1  0  0  0  0
  2  4  1  0  0  0  0
  2  5  1  0  0  0  0
  1  2  1  0  0  0  0
 23 24  2  0  0  0  0
 23 25  1  0  0  0  0
 21 22  1  0  0  0  0
 19 20  1  0  0  0  0
 19 21  1  0  0  0  0
 17 18  1  0  0  0  0
 17 19  1  0  0  0  0
 15 16  1  0  0  0  0
 15 17  2  0  0  0  0
 14 15  1  0  0  0  0
 14 21  2  0  0  0  0
 11 12  1  0  0  0  0
 11 13  1  0  0  0  0
 11 14  1  0  0  0  0
  9 10  1  0  0  0  0
  9 11  1  0  0  0  0
  9 23  1  0  0  0  0
  7  8  1  0  0  0  0
  7  9  1  0  0  0  0
 27 28  1  0  0  0  0
 27 29  1  0  0  0  0
 27 30  1  0  0  0  0
 25 26  1  0  0  0  0
 25 27  1  0  0  0  0
M  CHG  1  15   1
M  END
$$$$
default_name
  -OEChem-01062215323D

 30 30  0     1  0  0  0  0  0999 V2000
   -3.5507   -3.2183    1.8116 H   0  0  0  0  0  0  0  0  0  0  0  0
   -3.4597   -2.3913    1.1076 C   0  0  0  0  0  0  0  0  0  0  0  0
   -4.1577   -1.6043    1.3866 H   0  0  0  0  0  0  0  0  0  0  0  0
   -3.6807   -2.7523    0.1036 H   0  0  0  0  0  0  0  0  0  0  0  0
   -2.0477   -1.8543    1.1546 C   0  0  0  0  0  0  0  0  0  0  0  0
   -1.2227   -2.3443    1.9146 O   0  0  0  0  0  0  0  0  0  0  0  0
   -1.7517   -0.8483    0.3266 N   0  0  0  0  0  0  0  0  0  0  0  0
   -2.4847   -0.5123   -0.2804 H   0  0  0  0  0  0  0  0  0  0  0  0
   -0.4117   -0.2463    0.2186 C   0  0  1  0  0  0  0  0  0  0  0  0
   -0.1521   -0.1815   -0.8409 H   0  0  0  0  0  0  0  0  0  0  0  0
   -0.4759    1.2000    0.7623 C   0  0  0  0  0  0  0  0  0  0  0  0
   -0.8267    1.1678    1.7969 H   0  0  0  0  0  0  0  0  0  0  0  0
    0.5329    1.6181    0.7786 H   0  0  0  0  0  0  0  0  0  0  0  0
   -1.3634    2.1433   -0.0217 C   0  0  0  0  0  0  0  0  0  0  0  0
   -1.0522    2.6985   -1.2478 N   0  3  0  0  0  0  0  0  0  0  0  0
   -0.2050    2.4668   -1.7744 H   0  0  0  0  0  0  0  0  0  0  0  0
   -2.0784    3.4830   -1.6327 C   0  0  0  0  0  0  0  0  0  0  0  0
   -2.1274    4.0435   -2.5641 H   0  0  0  0  0  0  0  0  0  0  0  0
   -3.0337    3.4387   -0.6767 N   0  0  0  0  0  0  0  0  0  0  0  0
   -3.9229    3.9309   -0.6981 H   0  0  0  0  0  0  0  0  0  0  0  0
   -2.6006    2.6018    0.3425 C   0  0  0  0  0  0  0  0  0  0  0  0
   -3.1330    2.3518    1.2560 H   0  0  0  0  0  0  0  0  0  0  0  0
    0.6579   -1.1366    0.8759 C   0  0  0  0  0  0  0  0  0  0  0  0
    0.4064   -2.3069    1.1674 O   0  0  0  0  0  0  0  0  0  0  0  0
    1.8444   -0.5648    1.1157 N   0  0  0  0  0  0  0  0  0  0  0  0
    1.9634    0.3960    0.8326 H   0  0  0  0  0  0  0  0  0  0  0  0
    2.9852   -1.2221    1.7606 C   0  0  0  0  0  0  0  0  0  0  0  0
    3.7135   -1.5321    1.0085 H   0  0  0  0  0  0  0  0  0  0  0  0
    3.4715   -0.5311    2.4513 H   0  0  0  0  0  0  0  0  0  0  0  0
    2.6621   -2.1025    2.3201 H   0  0  0  0  0  0  0  0  0  0  0  0
  5  6  2  0  0  0  0
  5  7  1  0  0  0  0
  2  3  1  0  0  0  0
  2  4  1  0  0  0  0
  2  5  1  0  0  0  0
  1  2  1  0  0  0  0
 23 24  2  0  0  0  0
 23 25  1  0  0  0  0
 21 22  1  0  0  0  0
 19 20  1  0  0  0  0
 19 21  1  0  0  0  0
 17 18  1  0  0  0  0
 17 19  1  0  0  0  0
 15 16  1  0  0  0  0
 15 17  2  0  0  0  0
 14 15  1  0  0  0  0
 14 21  2  0  0  0  0
 11 12  1  0  0  0  0
 11 13  1  0  0  0  0
 11 14  1  0  0  0  0
  9 10  1  0  0  0  0
  9 11  1  0  0  0  0
  9 23  1  0  0  0  0
  7  8  1  0  0  0  0
  7  9  1  0  0  0  0
 27 28  1  0  0  0  0
 27 29  1  0  0  0  0
 27 30  1  0  0  0  0
 25 26  1  0  0  0  0
 25 27  1  0  0  0  0
M  CHG  1  15   1
M  END
$$$$
default_name
  -OEChem-01062215323D

 30 30  0     1  0  0  0  0  0999 V2000
   -3.5507   -3.2183    1.8116 H   0  0  0  0  0  0  0  0  0  0  0  0
   -3.4597   -2.3913    1.1076 C   0  0  0  0  0  0  0  0  0  0  0  0
   -4.1577   -1.6043    1.3866 H   0  0  0  0  0  0  0  0  0  0  0  0
   -3.6807   -2.7523    0.1036 H   0  0  0  0  0  0  0  0  0  0  0  0
   -2.0477   -1.8543    1.1546 C   0  0  0  0  0  0  0  0  0  0  0  0
   -1.2227   -2.3443    1.9146 O   0  0  0  0  0  0  0  0  0  0  0  0
   -1.7517   -0.8483    0.3266 N   0  0  0  0  0  0  0  0  0  0  0  0
   -2.4847   -0.5123   -0.2804 H   0  0  0  0  0  0  0  0  0  0  0  0
   -0.4117   -0.2463    0.2186 C   0  0  1  0  0  0  0  0  0  0  0  0
   -0.1521   -0.1815   -0.8409 H   0  0  0  0  0  0  0  0  0  0  0  0
   -0.4759    1.2000    0.7623 C   0  0  0  0  0  0  0  0  0  0  0  0
   -0.8267    1.1678    1.7969 H   0  0  0  0  0  0  0  0  0  0  0  0
    0.5329    1.6181    0.7786 H   0  0  0  0  0  0  0  0  0  0  0  0
   -1.3634    2.1433   -0.0217 C   0  0  0  0  0  0  0  0  0  0  0  0
   -1.0522    2.6985   -1.2478 N   0  3  0  0  0  0  0  0  0  0  0  0
   -0.2050    2.4668   -1.7744 H   0  0  0  0  0  0  0  0  0  0  0  0
   -2.0784    3.4830   -1.6327 C   0  0  0  0  0  0  0  0  0  0  0  0
   -2.1274    4.0435   -2.5641 H   0  0  0  0  0  0  0  0  0  0  0  0
   -3.0337    3.4387   -0.6767 N   0  0  0  0  0  0  0  0  0  0  0  0
   -3.9229    3.9309   -0.6981 H   0  0  0  0  0  0  0  0  0  0  0  0
   -2.6006    2.6018    0.3425 C   0  0  0  0  0  0  0  0  0  0  0  0
   -3.1330    2.3518    1.2560 H   0  0  0  0  0  0  0  0  0  0  0  0
    0.6579   -1.1366    0.8759 C   0  0  0  0  0  0  0  0  0  0  0  0
    0.5155   -2.3596    0.9185 O   0  0  0  0  0  0  0  0  0  0  0  0
    1.7189   -0.5081    1.3967 N   0  0  0  0  0  0  0  0  0  0  0  0
    1.7560    0.4958    1.3053 H   0  0  0  0  0  0  0  0  0  0  0  0
    2.8313   -1.1614    2.0933 C   0  0  0  0  0  0  0  0  0  0  0  0
    3.6903   -1.2522    1.4254 H   0  0  0  0  0  0  0  0  0  0  0  0
    3.1268   -0.5690    2.9610 H   0  0  0  0  0  0  0  0  0  0  0  0
    2.5452   -2.1585    2.4346 H   0  0  0  0  0  0  0  0  0  0  0  0
  5  6  2  0  0  0  0
  5  7  1  0  0  0  0
  2  3  1  0  0  0  0
  2  4  1  0  0  0  0
  2  5  1  0  0  0  0
  1  2  1  0  0  0  0
 23 24  2  0  0  0  0
 23 25  1  0  0  0  0
 21 22  1  0  0  0  0
 19 20  1  0  0  0  0
 19 21  1  0  0  0  0
 17 18  1  0  0  0  0
 17 19  1  0  0  0  0
 15 16  1  0  0  0  0
 15 17  2  0  0  0  0
 14 15  1  0  0  0  0
 14 21  2  0  0  0  0
 11 12  1  0  0  0  0
 11 13  1  0  0  0  0
 11 14  1  0  0  0  0
  9 10  1  0  0  0  0
  9 11  1  0  0  0  0
  9 23  1  0  0  0  0
  7  8  1  0  0  0  0
  7  9  1  0  0  0  0
 27 28  1  0  0  0  0
 27 29  1  0  0  0  0
 27 30  1  0  0  0  0
 25 26  1  0  0  0  0
 25 27  1  0  0  0  0
M  CHG  1  15   1
M  END
$$$$
default_name
  -OEChem-01062215323D

 30 30  0     1  0  0  0  0  0999 V2000
   -3.5507   -3.2183    1.8116 H   0  0  0  0  0  0  0  0  0  0  0  0
   -3.4597   -2.3913    1.1076 C   0  0  0  0  0  0  0  0  0  0  0  0
   -4.1577   -1.6043    1.3866 H   0  0  0  0  0  0  0  0  0  0  0  0
   -3.6807   -2.7523    0.1036 H   0  0  0  0  0  0  0  0  0  0  0  0
   -2.0477   -1.8543    1.1546 C   0  0  0  0  0  0  0  0  0  0  0  0
   -1.2227   -2.3443    1.9146 O   0  0  0  0  0  0  0  0  0  0  0  0
   -1.7517   -0.8483    0.3266 N   0  0  0  0  0  0  0  0  0  0  0  0
   -2.4847   -0.5123   -0.2804 H   0  0  0  0  0  0  0  0  0  0  0  0
   -0.4117   -0.2463    0.2186 C   0  0  1  0  0  0  0  0  0  0  0  0
   -0.1521   -0.1815   -0.8409 H   0  0  0  0  0  0  0  0  0  0  0  0
   -0.4759    1.2000    0.7623 C   0  0  0  0  0  0  0  0  0  0  0  0
   -0.8267    1.1678    1.7969 H   0  0  0  0  0  0  0  0  0  0  0  0
    0.5329    1.6181    0.7786 H   0  0  0  0  0  0  0  0  0  0  0  0
   -1.3634    2.1433   -0.0217 C   0  0  0  0  0  0  0  0  0  0  0  0
   -1.0522    2.6985   -1.2478 N   0  3  0  0  0  0  0  0  0  0  0  0
   -0.2050    2.4668   -1.7744 H   0  0  0  0  0  0  0  0  0  0  0  0
   -2.0784    3.4830   -1.6327 C   0  0  0  0  0  0  0  0  0  0  0  0
   -2.1274    4.0435   -2.5641 H   0  0  0  0  0  0  0  0  0  0  0  0
   -3.0337    3.4387   -0.6767 N   0  0  0  0  0  0  0  0  0  0  0  0
   -3.9229    3.9309   -0.6981 H   0  0  0  0  0  0  0  0  0  0  0  0
   -2.6006    2.6018    0.3425 C   0  0  0  0  0  0  0  0  0  0  0  0
   -3.1330    2.3518    1.2560 H   0  0  0  0  0  0  0  0  0  0  0  0
    0.6579   -1.1366    0.8759 C   0  0  0  0  0  0  0  0  0  0  0  0
    0.6640   -2.3537    0.6848 O   0  0  0  0  0  0  0  0  0  0  0  0
    1.5494   -0.5176    1.6596 N   0  0  0  0  0  0  0  0  0  0  0  0
    1.4739    0.4842    1.7487 H   0  0  0  0  0  0  0  0  0  0  0  0
    2.6261   -1.1796    2.4025 C   0  0  0  0  0  0  0  0  0  0  0  0
    3.5745   -1.0594    1.8750 H   0  0  0  0  0  0  0  0  0  0  0  0
    2.7217   -0.7354    3.3948 H   0  0  0  0  0  0  0  0  0  0  0  0
    2.4212   -2.2460    2.5176 H   0  0  0  0  0  0  0  0  0  0  0  0
  5  6  2  0  0  0  0
  5  7  1  0  0  0  0
  2  3  1  0  0  0  0
  2  4  1  0  0  0  0
  2  5  1  0  0  0  0
  1  2  1  0  0  0  0
 23 24  2  0  0  0  0
 23 25  1  0  0  0  0
 21 22  1  0  0  0  0
 19 20  1  0  0  0  0
 19 21  1  0  0  0  0
 17 18  1  0  0  0  0
 17 19  1  0  0  0  0
 15 16  1  0  0  0  0
 15 17  2  0  0  0  0
 14 15  1  0  0  0  0
 14 21  2  0  0  0  0
 11 12  1  0  0  0  0
 11 13  1  0  0  0  0
 11 14  1  0  0  0  0
  9 10  1  0  0  0  0
  9 11  1  0  0  0  0
  9 23  1  0  0  0  0
  7  8  1  0  0  0  0
  7  9  1  0  0  0  0
 27 28  1  0  0  0  0
 27 29  1  0  0  0  0
 27 30  1  0  0  0  0
 25 26  1  0  0  0  0
 25 27  1  0  0  0  0
M  CHG  1  15   1
M  END
$$$$
default_name
  -OEChem-01062215323D

 30 30  0     1  0  0  0  0  0999 V2000
   -3.5507   -3.2183    1.8116 H   0  0  0  0  0  0  0  0  0  0  0  0
   -3.4597   -2.3913    1.1076 C   0  0  0  0  0  0  0  0  0  0  0  0
   -4.1577   -1.6043    1.3866 H   0  0  0  0  0  0  0  0  0  0  0  0
   -3.6807   -2.7523    0.1036 H   0  0  0  0  0  0  0  0  0  0  0  0
   -2.0477   -1.8543    1.1546 C   0  0  0  0  0  0  0  0  0  0  0  0
   -1.2227   -2.3443    1.9146 O   0  0  0  0  0  0  0  0  0  0  0  0
   -1.7517   -0.8483    0.3266 N   0  0  0  0  0  0  0  0  0  0  0  0
   -2.4847   -0.5123   -0.2804 H   0  0  0  0  0  0  0  0  0  0  0  0
   -0.4117   -0.2463    0.2186 C   0  0  1  0  0  0  0  0  0  0  0  0
   -0.1521   -0.1815   -0.8409 H   0  0  0  0  0  0  0  0  0  0  0  0
   -0.4759    1.2000    0.7623 C   0  0  0  0  0  0  0  0  0  0  0  0
   -0.8267    1.1678    1.7969 H   0  0  0  0  0  0  0  0  0  0  0  0
    0.5329    1.6181    0.7786 H   0  0  0  0  0  0  0  0  0  0  0  0
   -1.3634    2.1433   -0.0217 C   0  0  0  0  0  0  0  0  0  0  0  0
   -1.0522    2.6985   -1.2478 N   0  3  0  0  0  0  0  0  0  0  0  0
   -0.2050    2.4668   -1.7744 H   0  0  0  0  0  0  0  0  0  0  0  0
   -2.0784    3.4830   -1.6327 C   0  0  0  0  0  0  0  0  0  0  0  0
   -2.1274    4.0435   -2.5641 H   0  0  0  0  0  0  0  0  0  0  0  0
   -3.0337    3.4387   -0.6767 N   0  0  0  0  0  0  0  0  0  0  0  0
   -3.9229    3.9309   -0.6981 H   0  0  0  0  0  0  0  0  0  0  0  0
   -2.6006    2.6018    0.3425 C   0  0  0  0  0  0  0  0  0  0  0  0
   -3.1330    2.3518    1.2560 H   0  0  0  0  0  0  0  0  0  0  0  0
    0.6579   -1.1366    0.8759 C   0  0  0  0  0  0  0  0  0  0  0  0
    0.8417   -2.2895    0.4825 O   0  0  0  0  0  0  0  0  0  0  0  0
    1.3474   -0.5929    1.8864 N   0  0  0  0  0  0  0  0  0  0  0  0
    1.1364    0.3622    2.1327 H   0  0  0  0  0  0  0  0  0  0  0  0
    2.3837   -1.2755    2.6672 C   0  0  0  0  0  0  0  0  0  0  0  0
    3.3740   -0.9669    2.3265 H   0  0  0  0  0  0  0  0  0  0  0  0
    2.2838   -1.0190    3.7233 H   0  0  0  0  0  0  0  0  0  0  0  0
    2.2988   -2.3593    2.5635 H   0  0  0  0  0  0  0  0  0  0  0  0
  5  6  2  0  0  0  0
  5  7  1  0  0  0  0
  2  3  1  0  0  0  0
  2  4  1  0  0  0  0
  2  5  1  0  0  0  0
  1  2  1  0  0  0  0
 23 24  2  0  0  0  0
 23 25  1  0  0  0  0
 21 22  1  0  0  0  0
 19 20  1  0  0  0  0
 19 21  1  0  0  0  0
 17 18  1  0  0  0  0
 17 19  1  0  0  0  0
 15 16  1  0  0  0  0
 15 17  2  0  0  0  0
 14 15  1  0  0  0  0
 14 21  2  0  0  0  0
 11 12  1  0  0  0  0
 11 13  1  0  0  0  0
 11 14  1  0  0  0  0
  9 10  1  0  0  0  0
  9 11  1  0  0  0  0
  9 23  1  0  0  0  0
  7  8  1  0  0  0  0
  7  9  1  0  0  0  0
 27 28  1  0  0  0  0
 27 29  1  0  0  0  0
 27 30  1  0  0  0  0
 25 26  1  0  0  0  0
 25 27  1  0  0  0  0
M  CHG  1  15   1
M  END
$$$$
default_name
  -OEChem-01062215323D

 30 30  0     1  0  0  0  0  0999 V2000
   -3.5507   -3.2183    1.8116 H   0  0  0  0  0  0  0  0  0  0  0  0
   -3.4597   -2.3913    1.1076 C   0  0  0  0  0  0  0  0  0  0  0  0
   -4.1577   -1.6043    1.3866 H   0  0  0  0  0  0  0  0  0  0  0  0
   -3.6807   -2.7523    0.1036 H   0  0  0  0  0  0  0  0  0  0  0  0
   -2.0477   -1.8543    1.1546 C   0  0  0  0  0  0  0  0  0  0  0  0
   -1.2227   -2.3443    1.9146 O   0  0  0  0  0  0  0  0  0  0  0  0
   -1.7517   -0.8483    0.3266 N   0  0  0  0  0  0  0  0  0  0  0  0
   -2.4847   -0.5123   -0.2804 H   0  0  0  0  0  0  0  0  0  0  0  0
   -0.4117   -0.2463    0.2186 C   0  0  1  0  0  0  0  0  0  0  0  0
   -0.1521   -0.1815   -0.8409 H   0  0  0  0  0  0  0  0  0  0  0  0
   -0.4759    1.2000    0.7623 C   0  0  0  0  0  0  0  0  0  0  0  0
   -0.8267    1.1678    1.7969 H   0  0  0  0  0  0  0  0  0  0  0  0
    0.5329    1.6181    0.7786 H   0  0  0  0  0  0  0  0  0  0  0  0
   -1.3634    2.1433   -0.0217 C   0  0  0  0  0  0  0  0  0  0  0  0
   -1.0522    2.6985   -1.2478 N   0  3  0  0  0  0  0  0  0  0  0  0
   -0.2050    2.4668   -1.7744 H   0  0  0  0  0  0  0  0  0  0  0  0
   -2.0784    3.4830   -1.6327 C   0  0  0  0  0  0  0  0  0  0  0  0
   -2.1274    4.0435   -2.5641 H   0  0  0  0  0  0  0  0  0  0  0  0
   -3.0337    3.4387   -0.6767 N   0  0  0  0  0  0  0  0  0  0  0  0
   -3.9229    3.9309   -0.6981 H   0  0  0  0  0  0  0  0  0  0  0  0
   -2.6006    2.6018    0.3425 C   0  0  0  0  0  0  0  0  0  0  0  0
   -3.1330    2.3518    1.2560 H   0  0  0  0  0  0  0  0  0  0  0  0
    0.6579   -1.1366    0.8759 C   0  0  0  0  0  0  0  0  0  0  0  0
    1.0366   -2.1715    0.3251 O   0  0  0  0  0  0  0  0  0  0  0  0
    1.1267   -0.7287    2.0616 N   0  0  0  0  0  0  0  0  0  0  0  0
    0.7663    0.1379    2.4311 H   0  0  0  0  0  0  0  0  0  0  0  0
    2.1204   -1.4425    2.8693 C   0  0  0  0  0  0  0  0  0  0  0  0
    3.1026   -0.9809    2.7494 H   0  0  0  0  0  0  0  0  0  0  0  0
    1.8430   -1.4003    3.9240 H   0  0  0  0  0  0  0  0  0  0  0  0
    2.1862   -2.4904    2.5691 H   0  0  0  0  0  0  0  0  0  0  0  0
  5  6  2  0  0  0  0
  5  7  1  0  0  0  0
  2  3  1  0  0  0  0
  2  4  1  0  0  0  0
  2  5  1  0  0  0  0
  1  2  1  0  0  0  0
 23 24  2  0  0  0  0
 23 25  1  0  0  0  0
 21 22  1  0  0  0  0
 19 20  1  0  0  0  0
 19 21  1  0  0  0  0
 17 18  1  0  0  0  0
 17 19  1  0  0  0  0
 15 16  1  0  0  0  0
 15 17  2  0  0  0  0
 14 15  1  0  0  0  0
 14 21  2  0  0  0  0
 11 12  1  0  0  0  0
 11 13  1  0  0  0  0
 11 14  1  0  0  0  0
  9 10  1  0  0  0  0
  9 11  1  0  0  0  0
  9 23  1  0  0  0  0
  7  8  1  0  0  0  0
  7  9  1  0  0  0  0
 27 28  1  0  0  0  0
 27 29  1  0  0  0  0
 27 30  1  0  0  0  0
 25 26  1  0  0  0  0
 25 27  1  0  0  0  0
M  CHG  1  15   1
M  END
$$$$
default_name
  -OEChem-01062215323D

 30 30  0     1  0  0  0  0  0999 V2000
   -3.5507   -3.2183    1.8116 H   0  0  0  0  0  0  0  0  0  0  0  0
   -3.4597   -2.3913    1.1076 C   0  0  0  0  0  0  0  0  0  0  0  0
   -4.1577   -1.6043    1.3866 H   0  0  0  0  0  0  0  0  0  0  0  0
   -3.6807   -2.7523    0.1036 H   0  0  0  0  0  0  0  0  0  0  0  0
   -2.0477   -1.8543    1.1546 C   0  0  0  0  0  0  0  0  0  0  0  0
   -1.2227   -2.3443    1.9146 O   0  0  0  0  0  0  0  0  0  0  0  0
   -1.7517   -0.8483    0.3266 N   0  0  0  0  0  0  0  0  0  0  0  0
   -2.4847   -0.5123   -0.2804 H   0  0  0  0  0  0  0  0  0  0  0  0
   -0.4117   -0.2463    0.2186 C   0  0  1  0  0  0  0  0  0  0  0  0
   -0.1521   -0.1815   -0.8409 H   0  0  0  0  0  0  0  0  0  0  0  0
   -0.4759    1.2000    0.7623 C   0  0  0  0  0  0  0  0  0  0  0  0
   -0.8267    1.1678    1.7969 H   0  0  0  0  0  0  0  0  0  0  0  0
    0.5329    1.6181    0.7786 H   0  0  0  0  0  0  0  0  0  0  0  0
   -1.3634    2.1433   -0.0217 C   0  0  0  0  0  0  0  0  0  0  0  0
   -1.0522    2.6985   -1.2478 N   0  3  0  0  0  0  0  0  0  0  0  0
   -0.2050    2.4668   -1.7744 H   0  0  0  0  0  0  0  0  0  0  0  0
   -2.0784    3.4830   -1.6327 C   0  0  0  0  0  0  0  0  0  0  0  0
   -2.1274    4.0435   -2.5641 H   0  0  0  0  0  0  0  0  0  0  0  0
   -3.0337    3.4387   -0.6767 N   0  0  0  0  0  0  0  0  0  0  0  0
   -3.9229    3.9309   -0.6981 H   0  0  0  0  0  0  0  0  0  0  0  0
   -2.6006    2.6018    0.3425 C   0  0  0  0  0  0  0  0  0  0  0  0
   -3.1330    2.3518    1.2560 H   0  0  0  0  0  0  0  0  0  0  0  0
    0.6579   -1.1366    0.8759 C   0  0  0  0  0  0  0  0  0  0  0  0
    1.2354   -2.0077    0.2236 O   0  0  0  0  0  0  0  0  0  0  0  0
    0.9022   -0.9159    2.1735 N   0  0  0  0  0  0  0  0  0  0  0  0
    0.3889   -0.1734    2.6236 H   0  0  0  0  0  0  0  0  0  0  0  0
    1.8543   -1.6693    2.9951 C   0  0  0  0  0  0  0  0  0  0  0  0
    2.7786   -1.1004    3.1146 H   0  0  0  0  0  0  0  0  0  0  0  0
    1.4293   -1.8535    3.9833 H   0  0  0  0  0  0  0  0  0  0  0  0
    2.0910   -2.6306    2.5341 H   0  0  0  0  0  0  0  0  0  0  0  0
  5  6  2  0  0  0  0
  5  7  1  0  0  0  0
  2  3  1  0  0  0  0
  2  4  1  0  0  0  0
  2  5  1  0  0  0  0
  1  2  1  0  0  0  0
 23 24  2  0  0  0  0
 23 25  1  0  0  0  0
 21 22  1  0  0  0  0
 19 20  1  0  0  0  0
 19 21  1  0  0  0  0
 17 18  1  0  0  0  0
 17 19  1  0  0  0  0
 15 16  1  0  0  0  0
 15 17  2  0  0  0  0
 14 15  1  0  0  0  0
 14 21  2  0  0  0  0
 11 12  1  0  0  0  0
 11 13  1  0  0  0  0
 11 14  1  0  0  0  0
  9 10  1  0  0  0  0
  9 11  1  0  0  0  0
  9 23  1  0  0  0  0
  7  8  1  0  0  0  0
  7  9  1  0  0  0  0
 27 28  1  0  0  0  0
 27 29  1  0  0  0  0
 27 30  1  0  0  0  0
 25 26  1  0  0  0  0
 25 27  1  0  0  0  0
M  CHG  1  15   1
M  END
$$$$
default_name
  -OEChem-01062215323D

 30 30  0     1  0  0  0  0  0999 V2000
   -3.5507   -3.2183    1.8116 H   0  0  0  0  0  0  0  0  0  0  0  0
   -3.4597   -2.3913    1.1076 C   0  0  0  0  0  0  0  0  0  0  0  0
   -4.1577   -1.6043    1.3866 H   0  0  0  0  0  0  0  0  0  0  0  0
   -3.6807   -2.7523    0.1036 H   0  0  0  0  0  0  0  0  0  0  0  0
   -2.0477   -1.8543    1.1546 C   0  0  0  0  0  0  0  0  0  0  0  0
   -1.2227   -2.3443    1.9146 O   0  0  0  0  0  0  0  0  0  0  0  0
   -1.7517   -0.8483    0.3266 N   0  0  0  0  0  0  0  0  0  0  0  0
   -2.4847   -0.5123   -0.2804 H   0  0  0  0  0  0  0  0  0  0  0  0
   -0.4117   -0.2463    0.2186 C   0  0  1  0  0  0  0  0  0  0  0  0
   -0.1521   -0.1815   -0.8409 H   0  0  0  0  0  0  0  0  0  0  0  0
   -0.4759    1.2000    0.7623 C   0  0  0  0  0  0  0  0  0  0  0  0
   -0.8267    1.1678    1.7969 H   0  0  0  0  0  0  0  0  0  0  0  0
    0.5329    1.6181    0.7786 H   0  0  0  0  0  0  0  0  0  0  0  0
   -1.3634    2.1433   -0.0217 C   0  0  0  0  0  0  0  0  0  0  0  0
   -1.0522    2.6985   -1.2478 N   0  3  0  0  0  0  0  0  0  0  0  0
   -0.2050    2.4668   -1.7744 H   0  0  0  0  0  0  0  0  0  0  0  0
   -2.0784    3.4830   -1.6327 C   0  0  0  0  0  0  0  0  0  0  0  0
   -2.1274    4.0435   -2.5641 H   0  0  0  0  0  0  0  0  0  0  0  0
   -3.0337    3.4387   -0.6767 N   0  0  0  0  0  0  0  0  0  0  0  0
   -3.9229    3.9309   -0.6981 H   0  0  0  0  0  0  0  0  0  0  0  0
   -2.6006    2.6018    0.3425 C   0  0  0  0  0  0  0  0  0  0  0  0
   -3.1330    2.3518    1.2560 H   0  0  0  0  0  0  0  0  0  0  0  0
    0.6579   -1.1366    0.8759 C   0  0  0  0  0  0  0  0  0  0  0  0
    1.4245   -1.8092    0.1847 O   0  0  0  0  0  0  0  0  0  0  0  0
    0.6893   -1.1415    2.2142 N   0  0  0  0  0  0  0  0  0  0  0  0
    0.0300   -0.5503    2.6971 H   0  0  0  0  0  0  0  0  0  0  0  0
    1.6036   -1.9404    3.0360 C   0  0  0  0  0  0  0  0  0  0  0  0
    2.4242   -1.3174    3.3974 H   0  0  0  0  0  0  0  0  0  0  0  0
    1.0710   -2.3477    3.8971 H   0  0  0  0  0  0  0  0  0  0  0  0
    2.0198   -2.7701    2.4608 H   0  0  0  0  0  0  0  0  0  0  0  0
  5  6  2  0  0  0  0
  5  7  1  0  0  0  0
  2  3  1  0  0  0  0
  2  4  1  0  0  0  0
  2  5  1  0  0  0  0
  1  2  1  0  0  0  0
 23 24  2  0  0  0  0
 23 25  1  0  0  0  0
 21 22  1  0  0  0  0
 19 20  1  0  0  0  0
 19 21  1  0  0  0  0
 17 18  1  0  0  0  0
 17 19  1  0  0  0  0
 15 16  1  0  0  0  0
 15 17  2  0  0  0  0
 14 15  1  0  0  0  0
 14 21  2  0  0  0  0
 11 12  1  0  0  0  0
 11 13  1  0  0  0  0
 11 14  1  0  0  0  0
  9 10  1  0  0  0  0
  9 11  1  0  0  0  0
  9 23  1  0  0  0  0
  7  8  1  0  0  0  0
  7  9  1  0  0  0  0
 27 28  1  0  0  0  0
 27 29  1  0  0  0  0
 27 30  1  0  0  0  0
 25 26  1  0  0  0  0
 25 27  1  0  0  0  0
M  CHG  1  15   1
M  END
$$$$
default_name
  -OEChem-01062215323D

 30 30  0     1  0  0  0  0  0999 V2000
   -3.5507   -3.2183    1.8116 H   0  0  0  0  0  0  0  0  0  0  0  0
   -3.4597   -2.3913    1.1076 C   0  0  0  0  0  0  0  0  0  0  0  0
   -4.1577   -1.6043    1.3866 H   0  0  0  0  0  0  0  0  0  0  0  0
   -3.6807   -2.7523    0.1036 H   0  0  0  0  0  0  0  0  0  0  0  0
   -2.0477   -1.8543    1.1546 C   0  0  0  0  0  0  0  0  0  0  0  0
   -1.2227   -2.3443    1.9146 O   0  0  0  0  0  0  0  0  0  0  0  0
   -1.7517   -0.8483    0.3266 N   0  0  0  0  0  0  0  0  0  0  0  0
   -2.4847   -0.5123   -0.2804 H   0  0  0  0  0  0  0  0  0  0  0  0
   -0.4117   -0.2463    0.2186 C   0  0  1  0  0  0  0  0  0  0  0  0
   -0.1521   -0.1815   -0.8409 H   0  0  0  0  0  0  0  0  0  0  0  0
   -0.4759    1.2000    0.7623 C   0  0  0  0  0  0  0  0  0  0  0  0
   -0.8267    1.1678    1.7969 H   0  0  0  0  0  0  0  0  0  0  0  0
    0.5329    1.6181    0.7786 H   0  0  0  0  0  0  0  0  0  0  0  0
   -1.3634    2.1433   -0.0217 C   0  0  0  0  0  0  0  0  0  0  0  0
   -1.0522    2.6985   -1.2478 N   0  3  0  0  0  0  0  0  0  0  0  0
   -0.2050    2.4668   -1.7744 H   0  0  0  0  0  0  0  0  0  0  0  0
   -2.0784    3.4830   -1.6327 C   0  0  0  0  0  0  0  0  0  0  0  0
   -2.1274    4.0435   -2.5641 H   0  0  0  0  0  0  0  0  0  0  0  0
   -3.0337    3.4387   -0.6767 N   0  0  0  0  0  0  0  0  0  0  0  0
   -3.9229    3.9309   -0.6981 H   0  0  0  0  0  0  0  0  0  0  0  0
   -2.6006    2.6018    0.3425 C   0  0  0  0  0  0  0  0  0  0  0  0
   -3.1330    2.3518    1.2560 H   0  0  0  0  0  0  0  0  0  0  0  0
    0.6579   -1.1366    0.8759 C   0  0  0  0  0  0  0  0  0  0  0  0
    1.5911   -1.5896    0.2112 O   0  0  0  0  0  0  0  0  0  0  0  0
    0.5025   -1.3904    2.1811 N   0  0  0  0  0  0  0  0  0  0  0  0
   -0.2860   -0.9673    2.6465 H   0  0  0  0  0  0  0  0  0  0  0  0
    1.3852   -2.2373    2.9891 C   0  0  0  0  0  0  0  0  0  0  0  0
    2.0635   -1.6171    3.5785 H   0  0  0  0  0  0  0  0  0  0  0  0
    0.7923   -2.8491    3.6713 H   0  0  0  0  0  0  0  0  0  0  0  0
    1.9775   -2.8997    2.3543 H   0  0  0  0  0  0  0  0  0  0  0  0
  5  6  2  0  0  0  0
  5  7  1  0  0  0  0
  2  3  1  0  0  0  0
  2  4  1  0  0  0  0
  2  5  1  0  0  0  0
  1  2  1  0  0  0  0
 23 24  2  0  0  0  0
 23 25  1  0  0  0  0
 21 22  1  0  0  0  0
 19 20  1  0  0  0  0
 19 21  1  0  0  0  0
 17 18  1  0  0  0  0
 17 19  1  0  0  0  0
 15 16  1  0  0  0  0
 15 17  2  0  0  0  0
 14 15  1  0  0  0  0
 14 21  2  0  0  0  0
 11 12  1  0  0  0  0
 11 13  1  0  0  0  0
 11 14  1  0  0  0  0
  9 10  1  0  0  0  0
  9 11  1  0  0  0  0
  9 23  1  0  0  0  0
  7  8  1  0  0  0  0
  7  9  1  0  0  0  0
 27 28  1  0  0  0  0
 27 29  1  0  0  0  0
 27 30  1  0  0  0  0
 25 26  1  0  0  0  0
 25 27  1  0  0  0  0
M  CHG  1  15   1
M  END
$$$$
default_name
  -OEChem-01062215323D

 30 30  0     1  0  0  0  0  0999 V2000
   -3.5507   -3.2183    1.8116 H   0  0  0  0  0  0  0  0  0  0  0  0
   -3.4597   -2.3913    1.1076 C   0  0  0  0  0  0  0  0  0  0  0  0
   -4.1577   -1.6043    1.3866 H   0  0  0  0  0  0  0  0  0  0  0  0
   -3.6807   -2.7523    0.1036 H   0  0  0  0  0  0  0  0  0  0  0  0
   -2.0477   -1.8543    1.1546 C   0  0  0  0  0  0  0  0  0  0  0  0
   -1.2227   -2.3443    1.9146 O   0  0  0  0  0  0  0  0  0  0  0  0
   -1.7517   -0.8483    0.3266 N   0  0  0  0  0  0  0  0  0  0  0  0
   -2.4847   -0.5123   -0.2804 H   0  0  0  0  0  0  0  0  0  0  0  0
   -0.4117   -0.2463    0.2186 C   0  0  1  0  0  0  0  0  0  0  0  0
   -0.1521   -0.1815   -0.8409 H   0  0  0  0  0  0  0  0  0  0  0  0
   -0.4759    1.2000    0.7623 C   0  0  0  0  0  0  0  0  0  0  0  0
   -0.8267    1.1678    1.7969 H   0  0  0  0  0  0  0  0  0  0  0  0
    0.5329    1.6181    0.7786 H   0  0  0  0  0  0  0  0  0  0  0  0
   -1.3634    2.1433   -0.0217 C   0  0  0  0  0  0  0  0  0  0  0  0
   -1.0522    2.6985   -1.2478 N   0  3  0  0  0  0  0  0  0  0  0  0
   -0.2050    2.4668   -1.7744 H   0  0  0  0  0  0  0  0  0  0  0  0
   -2.0784    3.4830   -1.6327 C   0  0  0  0  0  0  0  0  0  0  0  0
   -2.1274    4.0435   -2.5641 H   0  0  0  0  0  0  0  0  0  0  0  0
   -3.0337    3.4387   -0.6767 N   0  0  0  0  0  0  0  0  0  0  0  0
   -3.9229    3.9309   -0.6981 H   0  0  0  0  0  0  0  0  0  0  0  0
   -2.6006    2.6018    0.3425 C   0  0  0  0  0  0  0  0  0  0  0  0
   -3.1330    2.3518    1.2560 H   0  0  0  0  0  0  0  0  0  0  0  0
    0.6579   -1.1366    0.8759 C   0  0  0  0  0  0  0  0  0  0  0  0
    1.7237   -1.3638    0.3012 O   0  0  0  0  0  0  0  0  0  0  0  0
    0.3545   -1.6454    2.0764 N   0  0  0  0  0  0  0  0  0  0  0  0
   -0.5377   -1.3959    2.4753 H   0  0  0  0  0  0  0  0  0  0  0  0
    1.2141   -2.5398    2.8578 C   0  0  0  0  0  0  0  0  0  0  0  0
    1.7211   -1.9790    3.6455 H   0  0  0  0  0  0  0  0  0  0  0  0
    0.6124   -3.3236    3.3213 H   0  0  0  0  0  0  0  0  0  0  0  0
    1.9669   -3.0103    2.2218 H   0  0  0  0  0  0  0  0  0  0  0  0
  5  6  2  0  0  0  0
  5  7  1  0  0  0  0
  2  3  1  0  0  0  0
  2  4  1  0  0  0  0
  2  5  1  0  0  0  0
  1  2  1  0  0  0  0
 23 24  2  0  0  0  0
 23 25  1  0  0  0  0
 21 22  1  0  0  0  0
 19 20  1  0  0  0  0
 19 21  1  0  0  0  0
 17 18  1  0  0  0  0
 17 19  1  0  0  0  0
 15 16  1  0  0  0  0
 15 17  2  0  0  0  0
 14 15  1  0  0  0  0
 14 21  2  0  0  0  0
 11 12  1  0  0  0  0
 11 13  1  0  0  0  0
 11 14  1  0  0  0  0
  9 10  1  0  0  0  0
  9 11  1  0  0  0  0
  9 23  1  0  0  0  0
  7  8  1  0  0  0  0
  7  9  1  0  0  0  0
 27 28  1  0  0  0  0
 27 29  1  0  0  0  0
 27 30  1  0  0  0  0
 25 26  1  0  0  0  0
 25 27  1  0  0  0  0
M  CHG  1  15   1
M  END
$$$$
default_name
  -OEChem-01062215323D

 30 30  0     1  0  0  0  0  0999 V2000
   -3.5507   -3.2183    1.8116 H   0  0  0  0  0  0  0  0  0  0  0  0
   -3.4597   -2.3913    1.1076 C   0  0  0  0  0  0  0  0  0  0  0  0
   -4.1577   -1.6043    1.3866 H   0  0  0  0  0  0  0  0  0  0  0  0
   -3.6807   -2.7523    0.1036 H   0  0  0  0  0  0  0  0  0  0  0  0
   -2.0477   -1.8543    1.1546 C   0  0  0  0  0  0  0  0  0  0  0  0
   -1.2227   -2.3443    1.9146 O   0  0  0  0  0  0  0  0  0  0  0  0
   -1.7517   -0.8483    0.3266 N   0  0  0  0  0  0  0  0  0  0  0  0
   -2.4847   -0.5123   -0.2804 H   0  0  0  0  0  0  0  0  0  0  0  0
   -0.4117   -0.2463    0.2186 C   0  0  1  0  0  0  0  0  0  0  0  0
   -0.1521   -0.1815   -0.8409 H   0  0  0  0  0  0  0  0  0  0  0  0
   -0.4759    1.2000    0.7623 C   0  0  0  0  0  0  0  0  0  0  0  0
   -0.8267    1.1678    1.7969 H   0  0  0  0  0  0  0  0  0  0  0  0
    0.5329    1.6181    0.7786 H   0  0  0  0  0  0  0  0  0  0  0  0
   -1.3634    2.1433   -0.0217 C   0  0  0  0  0  0  0  0  0  0  0  0
   -1.0522    2.6985   -1.2478 N   0  3  0  0  0  0  0  0  0  0  0  0
   -0.2050    2.4668   -1.7744 H   0  0  0  0  0  0  0  0  0  0  0  0
   -2.0784    3.4830   -1.6327 C   0  0  0  0  0  0  0  0  0  0  0  0
   -2.1274    4.0435   -2.5641 H   0  0  0  0  0  0  0  0  0  0  0  0
   -3.0337    3.4387   -0.6767 N   0  0  0  0  0  0  0  0  0  0  0  0
   -3.9229    3.9309   -0.6981 H   0  0  0  0  0  0  0  0  0  0  0  0
   -2.6006    2.6018    0.3425 C   0  0  0  0  0  0  0  0  0  0  0  0
   -3.1330    2.3518    1.2560 H   0  0  0  0  0  0  0  0  0  0  0  0
    0.6579   -1.1366    0.8759 C   0  0  0  0  0  0  0  0  0  0  0  0
    1.8134   -1.1472    0.4486 O   0  0  0  0  0  0  0  0  0  0  0  0
    0.2555   -1.8893    1.9072 N   0  0  0  0  0  0  0  0  0  0  0  0
   -0.7077   -1.8070    2.1952 H   0  0  0  0  0  0  0  0  0  0  0  0
    1.1019   -2.8273    2.6509 C   0  0  0  0  0  0  0  0  0  0  0  0
    1.4204   -2.3784    3.5938 H   0  0  0  0  0  0  0  0  0  0  0  0
    0.5435   -3.7388    2.8710 H   0  0  0  0  0  0  0  0  0  0  0  0
    1.9887   -3.0945    2.0722 H   0  0  0  0  0  0  0  0  0  0  0  0
  5  6  2  0  0  0  0
  5  7  1  0  0  0  0
  2  3  1  0  0  0  0
  2  4  1  0  0  0  0
  2  5  1  0  0  0  0
  1  2  1  0  0  0  0
 23 24  2  0  0  0  0
 23 25  1  0  0  0  0
 21 22  1  0  0  0  0
 19 20  1  0  0  0  0
 19 21  1  0  0  0  0
 17 18  1  0  0  0  0
 17 19  1  0  0  0  0
 15 16  1  0  0  0  0
 15 17  2  0  0  0  0
 14 15  1  0  0  0  0
 14 21  2  0  0  0  0
 11 12  1  0  0  0  0
 11 13  1  0  0  0  0
 11 14  1  0  0  0  0
  9 10  1  0  0  0  0
  9 11  1  0  0  0  0
  9 23  1  0  0  0  0
  7  8  1  0  0  0  0
  7  9  1  0  0  0  0
 27 28  1  0  0  0  0
 27 29  1  0  0  0  0
 27 30  1  0  0  0  0
 25 26  1  0  0  0  0
 25 27  1  0  0  0  0
M  CHG  1  15   1
M  END
$$$$
default_name
  -OEChem-01062215323D

 30 30  0     1  0  0  0  0  0999 V2000
   -3.5507   -3.2183    1.8116 H   0  0  0  0  0  0  0  0  0  0  0  0
   -3.4597   -2.3913    1.1076 C   0  0  0  0  0  0  0  0  0  0  0  0
   -4.1577   -1.6043    1.3866 H   0  0  0  0  0  0  0  0  0  0  0  0
   -3.6807   -2.7523    0.1036 H   0  0  0  0  0  0  0  0  0  0  0  0
   -2.0477   -1.8543    1.1546 C   0  0  0  0  0  0  0  0  0  0  0  0
   -1.2227   -2.3443    1.9146 O   0  0  0  0  0  0  0  0  0  0  0  0
   -1.7517   -0.8483    0.3266 N   0  0  0  0  0  0  0  0  0  0  0  0
   -2.4847   -0.5123   -0.2804 H   0  0  0  0  0  0  0  0  0  0  0  0
   -0.4117   -0.2463    0.2186 C   0  0  1  0  0  0  0  0  0  0  0  0
   -0.1521   -0.1815   -0.8409 H   0  0  0  0  0  0  0  0  0  0  0  0
   -0.4759    1.2000    0.7623 C   0  0  0  0  0  0  0  0  0  0  0  0
   -0.8267    1.1678    1.7969 H   0  0  0  0  0  0  0  0  0  0  0  0
    0.5329    1.6181    0.7786 H   0  0  0  0  0  0  0  0  0  0  0  0
   -1.3634    2.1433   -0.0217 C   0  0  0  0  0  0  0  0  0  0  0  0
   -1.0522    2.6985   -1.2478 N   0  3  0  0  0  0  0  0  0  0  0  0
   -0.2050    2.4668   -1.7744 H   0  0  0  0  0  0  0  0  0  0  0  0
   -2.0784    3.4830   -1.6327 C   0  0  0  0  0  0  0  0  0  0  0  0
   -2.1274    4.0435   -2.5641 H   0  0  0  0  0  0  0  0  0  0  0  0
   -3.0337    3.4387   -0.6767 N   0  0  0  0  0  0  0  0  0  0  0  0
   -3.9229    3.9309   -0.6981 H   0  0  0  0  0  0  0  0  0  0  0  0
   -2.6006    2.6018    0.3425 C   0  0  0  0  0  0  0  0  0  0  0  0
   -3.1330    2.3518    1.2560 H   0  0  0  0  0  0  0  0  0  0  0  0
    0.6579   -1.1366    0.8759 C   0  0  0  0  0  0  0  0  0  0  0  0
    1.8540   -0.9547    0.6434 O   0  0  0  0  0  0  0  0  0  0  0  0
    0.2121   -2.1054    1.6851 N   0  0  0  0  0  0  0  0  0  0  0  0
   -0.7845   -2.1724    1.8252 H   0  0  0  0  0  0  0  0  0  0  0  0
    1.0563   -3.0802    2.3825 C   0  0  0  0  0  0  0  0  0  0  0  0
    1.1817   -2.7882    3.4271 H   0  0  0  0  0  0  0  0  0  0  0  0
    0.5902   -4.0666    2.3509 H   0  0  0  0  0  0  0  0  0  0  0  0
    2.0414   -3.1465    1.9159 H   0  0  0  0  0  0  0  0  0  0  0  0
  5  6  2  0  0  0  0
  5  7  1  0  0  0  0
  2  3  1  0  0  0  0
  2  4  1  0  0  0  0
  2  5  1  0  0  0  0
  1  2  1  0  0  0  0
 23 24  2  0  0  0  0
 23 25  1  0  0  0  0
 21 22  1  0  0  0  0
 19 20  1  0  0  0  0
 19 21  1  0  0  0  0
 17 18  1  0  0  0  0
 17 19  1  0  0  0  0
 15 16  1  0  0  0  0
 15 17  2  0  0  0  0
 14 15  1  0  0  0  0
 14 21  2  0  0  0  0
 11 12  1  0  0  0  0
 11 13  1  0  0  0  0
 11 14  1  0  0  0  0
  9 10  1  0  0  0  0
  9 11  1  0  0  0  0
  9 23  1  0  0  0  0
  7  8  1  0  0  0  0
  7  9  1  0  0  0  0
 27 28  1  0  0  0  0
 27 29  1  0  0  0  0
 27 30  1  0  0  0  0
 25 26  1  0  0  0  0
 25 27  1  0  0  0  0
M  CHG  1  15   1
M  END
$$$$
default_name
  -OEChem-01062215323D

 30 30  0     1  0  0  0  0  0999 V2000
   -3.5507   -3.2183    1.8116 H   0  0  0  0  0  0  0  0  0  0  0  0
   -3.4597   -2.3913    1.1076 C   0  0  0  0  0  0  0  0  0  0  0  0
   -4.1577   -1.6043    1.3866 H   0  0  0  0  0  0  0  0  0  0  0  0
   -3.6807   -2.7523    0.1036 H   0  0  0  0  0  0  0  0  0  0  0  0
   -2.0477   -1.8543    1.1546 C   0  0  0  0  0  0  0  0  0  0  0  0
   -1.2227   -2.3443    1.9146 O   0  0  0  0  0  0  0  0  0  0  0  0
   -1.7517   -0.8483    0.3266 N   0  0  0  0  0  0  0  0  0  0  0  0
   -2.4847   -0.5123   -0.2804 H   0  0  0  0  0  0  0  0  0  0  0  0
   -0.4117   -0.2463    0.2186 C   0  0  1  0  0  0  0  0  0  0  0  0
   -0.1521   -0.1815   -0.8409 H   0  0  0  0  0  0  0  0  0  0  0  0
   -0.4759    1.2000    0.7623 C   0  0  0  0  0  0  0  0  0  0  0  0
   -0.8267    1.1678    1.7969 H   0  0  0  0  0  0  0  0  0  0  0  0
    0.5329    1.6181    0.7786 H   0  0  0  0  0  0  0  0  0  0  0  0
   -1.3634    2.1433   -0.0217 C   0  0  0  0  0  0  0  0  0  0  0  0
   -1.0522    2.6985   -1.2478 N   0  3  0  0  0  0  0  0  0  0  0  0
   -0.2050    2.4668   -1.7744 H   0  0  0  0  0  0  0  0  0  0  0  0
   -2.0784    3.4830   -1.6327 C   0  0  0  0  0  0  0  0  0  0  0  0
   -2.1274    4.0435   -2.5641 H   0  0  0  0  0  0  0  0  0  0  0  0
   -3.0337    3.4387   -0.6767 N   0  0  0  0  0  0  0  0  0  0  0  0
   -3.9229    3.9309   -0.6981 H   0  0  0  0  0  0  0  0  0  0  0  0
   -2.6006    2.6018    0.3425 C   0  0  0  0  0  0  0  0  0  0  0  0
   -3.1330    2.3518    1.2560 H   0  0  0  0  0  0  0  0  0  0  0  0
    0.6579   -1.1366    0.8759 C   0  0  0  0  0  0  0  0  0  0  0  0
    1.8428   -0.7992    0.8722 O   0  0  0  0  0  0  0  0  0  0  0  0
    0.2273   -2.2789    1.4252 N   0  0  0  0  0  0  0  0  0  0  0  0
   -0.7630   -2.4674    1.3906 H   0  0  0  0  0  0  0  0  0  0  0  0
    1.0804   -3.2813    2.0710 C   0  0  0  0  0  0  0  0  0  0  0  0
    1.0215   -3.1804    3.1565 H   0  0  0  0  0  0  0  0  0  0  0  0
    0.7495   -4.2844    1.7967 H   0  0  0  0  0  0  0  0  0  0  0  0
    2.1215   -3.1628    1.7635 H   0  0  0  0  0  0  0  0  0  0  0  0
  5  6  2  0  0  0  0
  5  7  1  0  0  0  0
  2  3  1  0  0  0  0
  2  4  1  0  0  0  0
  2  5  1  0  0  0  0
  1  2  1  0  0  0  0
 23 24  2  0  0  0  0
 23 25  1  0  0  0  0
 21 22  1  0  0  0  0
 19 20  1  0  0  0  0
 19 21  1  0  0  0  0
 17 18  1  0  0  0  0
 17 19  1  0  0  0  0
 15 16  1  0  0  0  0
 15 17  2  0  0  0  0
 14 15  1  0  0  0  0
 14 21  2  0  0  0  0
 11 12  1  0  0  0  0
 11 13  1  0  0  0  0
 11 14  1  0  0  0  0
  9 10  1  0  0  0  0
  9 11  1  0  0  0  0
  9 23  1  0  0  0  0
  7  8  1  0  0  0  0
  7  9  1  0  0  0  0
 27 28  1  0  0  0  0
 27 29  1  0  0  0  0
 27 30  1  0  0  0  0
 25 26  1  0  0  0  0
 25 27  1  0  0  0  0
M  CHG  1  15   1
M  END
$$$$
default_name
  -OEChem-01062215323D

 30 30  0     1  0  0  0  0  0999 V2000
   -3.5507   -3.2183    1.8116 H   0  0  0  0  0  0  0  0  0  0  0  0
   -3.4597   -2.3913    1.1076 C   0  0  0  0  0  0  0  0  0  0  0  0
   -4.1577   -1.6043    1.3866 H   0  0  0  0  0  0  0  0  0  0  0  0
   -3.6807   -2.7523    0.1036 H   0  0  0  0  0  0  0  0  0  0  0  0
   -2.0477   -1.8543    1.1546 C   0  0  0  0  0  0  0  0  0  0  0  0
   -1.2227   -2.3443    1.9146 O   0  0  0  0  0  0  0  0  0  0  0  0
   -1.7517   -0.8483    0.3266 N   0  0  0  0  0  0  0  0  0  0  0  0
   -2.4847   -0.5123   -0.2804 H   0  0  0  0  0  0  0  0  0  0  0  0
   -0.4117   -0.2463    0.2186 C   0  0  1  0  0  0  0  0  0  0  0  0
   -0.1521   -0.1815   -0.8409 H   0  0  0  0  0  0  0  0  0  0  0  0
   -0.4759    1.2000    0.7623 C   0  0  0  0  0  0  0  0  0  0  0  0
   -0.8267    1.1678    1.7969 H   0  0  0  0  0  0  0  0  0  0  0  0
    0.5329    1.6181    0.7786 H   0  0  0  0  0  0  0  0  0  0  0  0
   -1.3634    2.1433   -0.0217 C   0  0  0  0  0  0  0  0  0  0  0  0
   -1.0522    2.6985   -1.2478 N   0  3  0  0  0  0  0  0  0  0  0  0
   -0.2050    2.4668   -1.7744 H   0  0  0  0  0  0  0  0  0  0  0  0
   -2.0784    3.4830   -1.6327 C   0  0  0  0  0  0  0  0  0  0  0  0
   -2.1274    4.0435   -2.5641 H   0  0  0  0  0  0  0  0  0  0  0  0
   -3.0337    3.4387   -0.6767 N   0  0  0  0  0  0  0  0  0  0  0  0
   -3.9229    3.9309   -0.6981 H   0  0  0  0  0  0  0  0  0  0  0  0
   -2.6006    2.6018    0.3425 C   0  0  0  0  0  0  0  0  0  0  0  0
   -3.1330    2.3518    1.2560 H   0  0  0  0  0  0  0  0  0  0  0  0
    0.6579   -1.1366    0.8759 C   0  0  0  0  0  0  0  0  0  0  0  0
    1.7805   -0.6914    1.1196 O   0  0  0  0  0  0  0  0  0  0  0  0
    0.3001   -2.3982    1.1452 N   0  0  0  0  0  0  0  0  0  0  0  0
   -0.6445   -2.6717    0.9210 H   0  0  0  0  0  0  0  0  0  0  0  0
    1.1725   -3.4168    1.7375 C   0  0  0  0  0  0  0  0  0  0  0  0
    0.9506   -3.5282    2.8007 H   0  0  0  0  0  0  0  0  0  0  0  0
    1.0103   -4.3776    1.2459 H   0  0  0  0  0  0  0  0  0  0  0  0
    2.2235   -3.1423    1.6253 H   0  0  0  0  0  0  0  0  0  0  0  0
  5  6  2  0  0  0  0
  5  7  1  0  0  0  0
  2  3  1  0  0  0  0
  2  4  1  0  0  0  0
  2  5  1  0  0  0  0
  1  2  1  0  0  0  0
 23 24  2  0  0  0  0
 23 25  1  0  0  0  0
 21 22  1  0  0  0  0
 19 20  1  0  0  0  0
 19 21  1  0  0  0  0
 17 18  1  0  0  0  0
 17 19  1  0  0  0  0
 15 16  1  0  0  0  0
 15 17  2  0  0  0  0
 14 15  1  0  0  0  0
 14 21  2  0  0  0  0
 11 12  1  0  0  0  0
 11 13  1  0  0  0  0
 11 14  1  0  0  0  0
  9 10  1  0  0  0  0
  9 11  1  0  0  0  0
  9 23  1  0  0  0  0
  7  8  1  0  0  0  0
  7  9  1  0  0  0  0
 27 28  1  0  0  0  0
 27 29  1  0  0  0  0
 27 30  1  0  0  0  0
 25 26  1  0  0  0  0
 25 27  1  0  0  0  0
M  CHG  1  15   1
M  END
$$$$
default_name
  -OEChem-01062215323D

 30 30  0     1  0  0  0  0  0999 V2000
   -3.5507   -3.2183    1.8116 H   0  0  0  0  0  0  0  0  0  0  0  0
   -3.4597   -2.3913    1.1076 C   0  0  0  0  0  0  0  0  0  0  0  0
   -4.1577   -1.6043    1.3866 H   0  0  0  0  0  0  0  0  0  0  0  0
   -3.6807   -2.7523    0.1036 H   0  0  0  0  0  0  0  0  0  0  0  0
   -2.0477   -1.8543    1.1546 C   0  0  0  0  0  0  0  0  0  0  0  0
   -1.2227   -2.3443    1.9146 O   0  0  0  0  0  0  0  0  0  0  0  0
   -1.7517   -0.8483    0.3266 N   0  0  0  0  0  0  0  0  0  0  0  0
   -2.4847   -0.5123   -0.2804 H   0  0  0  0  0  0  0  0  0  0  0  0
   -0.4117   -0.2463    0.2186 C   0  0  1  0  0  0  0  0  0  0  0  0
   -0.1521   -0.1815   -0.8409 H   0  0  0  0  0  0  0  0  0  0  0  0
   -0.4759    1.2000    0.7623 C   0  0  0  0  0  0  0  0  0  0  0  0
   -0.8267    1.1678    1.7969 H   0  0  0  0  0  0  0  0  0  0  0  0
    0.5329    1.6181    0.7786 H   0  0  0  0  0  0  0  0  0  0  0  0
   -1.3634    2.1433   -0.0217 C   0  0  0  0  0  0  0  0  0  0  0  0
   -1.0522    2.6985   -1.2478 N   0  3  0  0  0  0  0  0  0  0  0  0
   -0.2050    2.4668   -1.7744 H   0  0  0  0  0  0  0  0  0  0  0  0
   -2.0784    3.4830   -1.6327 C   0  0  0  0  0  0  0  0  0  0  0  0
   -2.1274    4.0435   -2.5641 H   0  0  0  0  0  0  0  0  0  0  0  0
   -3.0337    3.4387   -0.6767 N   0  0  0  0  0  0  0  0  0  0  0  0
   -3.9229    3.9309   -0.6981 H   0  0  0  0  0  0  0  0  0  0  0  0
   -2.6006    2.6018    0.3425 C   0  0  0  0  0  0  0  0  0  0  0  0
   -3.1330    2.3518    1.2560 H   0  0  0  0  0  0  0  0  0  0  0  0
    0.6579   -1.1366    0.8759 C   0  0  0  0  0  0  0  0  0  0  0  0
    1.6714   -0.6387    1.3686 O   0  0  0  0  0  0  0  0  0  0  0  0
    0.4255   -2.4549    0.8642 N   0  0  0  0  0  0  0  0  0  0  0  0
   -0.4371   -2.7715    0.4484 H   0  0  0  0  0  0  0  0  0  0  0  0
    1.3264   -3.4775    1.4048 C   0  0  0  0  0  0  0  0  0  0  0  0
    0.9738   -3.8081    2.3838 H   0  0  0  0  0  0  0  0  0  0  0  0
    1.3551   -4.3397    0.7363 H   0  0  0  0  0  0  0  0  0  0  0  0
    2.3405   -3.0863    1.5108 H   0  0  0  0  0  0  0  0  0  0  0  0
  5  6  2  0  0  0  0
  5  7  1  0  0  0  0
  2  3  1  0  0  0  0
  2  4  1  0  0  0  0
  2  5  1  0  0  0  0
  1  2  1  0  0  0  0
 23 24  2  0  0  0  0
 23 25  1  0  0  0  0
 21 22  1  0  0  0  0
 19 20  1  0  0  0  0
 19 21  1  0  0  0  0
 17 18  1  0  0  0  0
 17 19  1  0  0  0  0
 15 16  1  0  0  0  0
 15 17  2  0  0  0  0
 14 15  1  0  0  0  0
 14 21  2  0  0  0  0
 11 12  1  0  0  0  0
 11 13  1  0  0  0  0
 11 14  1  0  0  0  0
  9 10  1  0  0  0  0
  9 11  1  0  0  0  0
  9 23  1  0  0  0  0
  7  8  1  0  0  0  0
  7  9  1  0  0  0  0
 27 28  1  0  0  0  0
 27 29  1  0  0  0  0
 27 30  1  0  0  0  0
 25 26  1  0  0  0  0
 25 27  1  0  0  0  0
M  CHG  1  15   1
M  END
$$$$
default_name
  -OEChem-01062215323D

 30 30  0     1  0  0  0  0  0999 V2000
   -3.5507   -3.2183    1.8116 H   0  0  0  0  0  0  0  0  0  0  0  0
   -3.4597   -2.3913    1.1076 C   0  0  0  0  0  0  0  0  0  0  0  0
   -4.1577   -1.6043    1.3866 H   0  0  0  0  0  0  0  0  0  0  0  0
   -3.6807   -2.7523    0.1036 H   0  0  0  0  0  0  0  0  0  0  0  0
   -2.0477   -1.8543    1.1546 C   0  0  0  0  0  0  0  0  0  0  0  0
   -1.2227   -2.3443    1.9146 O   0  0  0  0  0  0  0  0  0  0  0  0
   -1.7517   -0.8483    0.3266 N   0  0  0  0  0  0  0  0  0  0  0  0
   -2.4847   -0.5123   -0.2804 H   0  0  0  0  0  0  0  0  0  0  0  0
   -0.4117   -0.2463    0.2186 C   0  0  1  0  0  0  0  0  0  0  0  0
   -0.1521   -0.1815   -0.8409 H   0  0  0  0  0  0  0  0  0  0  0  0
   -0.4759    1.2000    0.7623 C   0  0  0  0  0  0  0  0  0  0  0  0
   -0.8267    1.1678    1.7969 H   0  0  0  0  0  0  0  0  0  0  0  0
    0.5329    1.6181    0.7786 H   0  0  0  0  0  0  0  0  0  0  0  0
   -1.3634    2.1433   -0.0217 C   0  0  0  0  0  0  0  0  0  0  0  0
   -1.0522    2.6985   -1.2478 N   0  3  0  0  0  0  0  0  0  0  0  0
   -0.2050    2.4668   -1.7744 H   0  0  0  0  0  0  0  0  0  0  0  0
   -2.0784    3.4830   -1.6327 C   0  0  0  0  0  0  0  0  0  0  0  0
   -2.1274    4.0435   -2.5641 H   0  0  0  0  0  0  0  0  0  0  0  0
   -3.0337    3.4387   -0.6767 N   0  0  0  0  0  0  0  0  0  0  0  0
   -3.9229    3.9309   -0.6981 H   0  0  0  0  0  0  0  0  0  0  0  0
   -2.6006    2.6018    0.3425 C   0  0  0  0  0  0  0  0  0  0  0  0
   -3.1330    2.3518    1.2560 H   0  0  0  0  0  0  0  0  0  0  0  0
    0.6579   -1.1366    0.8759 C   0  0  0  0  0  0  0  0  0  0  0  0
    1.5229   -0.6446    1.6022 O   0  0  0  0  0  0  0  0  0  0  0  0
    0.5950   -2.4453    0.6014 N   0  0  0  0  0  0  0  0  0  0  0  0
   -0.1551   -2.7600    0.0050 H   0  0  0  0  0  0  0  0  0  0  0  0
    1.5316   -3.4593    1.0956 C   0  0  0  0  0  0  0  0  0  0  0  0
    1.0896   -4.0009    1.9343 H   0  0  0  0  0  0  0  0  0  0  0  0
    1.7602   -4.1733    0.3024 H   0  0  0  0  0  0  0  0  0  0  0  0
    2.4644   -2.9987    1.4278 H   0  0  0  0  0  0  0  0  0  0  0  0
  5  6  2  0  0  0  0
  5  7  1  0  0  0  0
  2  3  1  0  0  0  0
  2  4  1  0  0  0  0
  2  5  1  0  0  0  0
  1  2  1  0  0  0  0
 23 24  2  0  0  0  0
 23 25  1  0  0  0  0
 21 22  1  0  0  0  0
 19 20  1  0  0  0  0
 19 21  1  0  0  0  0
 17 18  1  0  0  0  0
 17 19  1  0  0  0  0
 15 16  1  0  0  0  0
 15 17  2  0  0  0  0
 14 15  1  0  0  0  0
 14 21  2  0  0  0  0
 11 12  1  0  0  0  0
 11 13  1  0  0  0  0
 11 14  1  0  0  0  0
  9 10  1  0  0  0  0
  9 11  1  0  0  0  0
  9 23  1  0  0  0  0
  7  8  1  0  0  0  0
  7  9  1  0  0  0  0
 27 28  1  0  0  0  0
 27 29  1  0  0  0  0
 27 30  1  0  0  0  0
 25 26  1  0  0  0  0
 25 27  1  0  0  0  0
M  CHG  1  15   1
M  END
$$$$
default_name
  -OEChem-01062215323D

 30 30  0     1  0  0  0  0  0999 V2000
   -3.5507   -3.2183    1.8116 H   0  0  0  0  0  0  0  0  0  0  0  0
   -3.4597   -2.3913    1.1076 C   0  0  0  0  0  0  0  0  0  0  0  0
   -4.1577   -1.6043    1.3866 H   0  0  0  0  0  0  0  0  0  0  0  0
   -3.6807   -2.7523    0.1036 H   0  0  0  0  0  0  0  0  0  0  0  0
   -2.0477   -1.8543    1.1546 C   0  0  0  0  0  0  0  0  0  0  0  0
   -1.2227   -2.3443    1.9146 O   0  0  0  0  0  0  0  0  0  0  0  0
   -1.7517   -0.8483    0.3266 N   0  0  0  0  0  0  0  0  0  0  0  0
   -2.4847   -0.5123   -0.2804 H   0  0  0  0  0  0  0  0  0  0  0  0
   -0.4117   -0.2463    0.2186 C   0  0  1  0  0  0  0  0  0  0  0  0
   -0.1521   -0.1815   -0.8409 H   0  0  0  0  0  0  0  0  0  0  0  0
   -0.4759    1.2000    0.7623 C   0  0  0  0  0  0  0  0  0  0  0  0
   -0.8267    1.1678    1.7969 H   0  0  0  0  0  0  0  0  0  0  0  0
    0.5329    1.6181    0.7786 H   0  0  0  0  0  0  0  0  0  0  0  0
   -1.3634    2.1433   -0.0217 C   0  0  0  0  0  0  0  0  0  0  0  0
   -1.0522    2.6985   -1.2478 N   0  3  0  0  0  0  0  0  0  0  0  0
   -0.2050    2.4668   -1.7744 H   0  0  0  0  0  0  0  0  0  0  0  0
   -2.0784    3.4830   -1.6327 C   0  0  0  0  0  0  0  0  0  0  0  0
   -2.1274    4.0435   -2.5641 H   0  0  0  0  0  0  0  0  0  0  0  0
   -3.0337    3.4387   -0.6767 N   0  0  0  0  0  0  0  0  0  0  0  0
   -3.9229    3.9309   -0.6981 H   0  0  0  0  0  0  0  0  0  0  0  0
   -2.6006    2.6018    0.3425 C   0  0  0  0  0  0  0  0  0  0  0  0
   -3.1330    2.3518    1.2560 H   0  0  0  0  0  0  0  0  0  0  0  0
    0.6579   -1.1366    0.8759 C   0  0  0  0  0  0  0  0  0  0  0  0
    1.3452   -0.7088    1.8046 O   0  0  0  0  0  0  0  0  0  0  0  0
    0.7971   -2.3701    0.3746 N   0  0  0  0  0  0  0  0  0  0  0  0
    0.1825   -2.6379   -0.3791 H   0  0  0  0  0  0  0  0  0  0  0  0
    1.7741   -3.3634    0.8309 C   0  0  0  0  0  0  0  0  0  0  0  0
    1.2900   -4.0934    1.4827 H   0  0  0  0  0  0  0  0  0  0  0  0
    2.1981   -3.8897   -0.0260 H   0  0  0  0  0  0  0  0  0  0  0  0
    2.5868   -2.8855    1.3819 H   0  0  0  0  0  0  0  0  0  0  0  0
  5  6  2  0  0  0  0
  5  7  1  0  0  0  0
  2  3  1  0  0  0  0
  2  4  1  0  0  0  0
  2  5  1  0  0  0  0
  1  2  1  0  0  0  0
 23 24  2  0  0  0  0
 23 25  1  0  0  0  0
 21 22  1  0  0  0  0
 19 20  1  0  0  0  0
 19 21  1  0  0  0  0
 17 18  1  0  0  0  0
 17 19  1  0  0  0  0
 15 16  1  0  0  0  0
 15 17  2  0  0  0  0
 14 15  1  0  0  0  0
 14 21  2  0  0  0  0
 11 12  1  0  0  0  0
 11 13  1  0  0  0  0
 11 14  1  0  0  0  0
  9 10  1  0  0  0  0
  9 11  1  0  0  0  0
  9 23  1  0  0  0  0
  7  8  1  0  0  0  0
  7  9  1  0  0  0  0
 27 28  1  0  0  0  0
 27 29  1  0  0  0  0
 27 30  1  0  0  0  0
 25 26  1  0  0  0  0
 25 27  1  0  0  0  0
M  CHG  1  15   1
M  END
$$$$
default_name
  -OEChem-01062215323D

 30 30  0     1  0  0  0  0  0999 V2000
   -3.5507   -3.2183    1.8116 H   0  0  0  0  0  0  0  0  0  0  0  0
   -3.4597   -2.3913    1.1076 C   0  0  0  0  0  0  0  0  0  0  0  0
   -4.1577   -1.6043    1.3866 H   0  0  0  0  0  0  0  0  0  0  0  0
   -3.6807   -2.7523    0.1036 H   0  0  0  0  0  0  0  0  0  0  0  0
   -2.0477   -1.8543    1.1546 C   0  0  0  0  0  0  0  0  0  0  0  0
   -1.2227   -2.3443    1.9146 O   0  0  0  0  0  0  0  0  0  0  0  0
   -1.7517   -0.8483    0.3266 N   0  0  0  0  0  0  0  0  0  0  0  0
   -2.4847   -0.5123   -0.2804 H   0  0  0  0  0  0  0  0  0  0  0  0
   -0.4117   -0.2463    0.2186 C   0  0  1  0  0  0  0  0  0  0  0  0
   -0.1521   -0.1815   -0.8409 H   0  0  0  0  0  0  0  0  0  0  0  0
   -0.4759    1.2000    0.7623 C   0  0  0  0  0  0  0  0  0  0  0  0
   -0.8267    1.1678    1.7969 H   0  0  0  0  0  0  0  0  0  0  0  0
    0.5329    1.6181    0.7786 H   0  0  0  0  0  0  0  0  0  0  0  0
   -1.3634    2.1433   -0.0217 C   0  0  0  0  0  0  0  0  0  0  0  0
   -1.0522    2.6985   -1.2478 N   0  3  0  0  0  0  0  0  0  0  0  0
   -0.2050    2.4668   -1.7744 H   0  0  0  0  0  0  0  0  0  0  0  0
   -2.0784    3.4830   -1.6327 C   0  0  0  0  0  0  0  0  0  0  0  0
   -2.1274    4.0435   -2.5641 H   0  0  0  0  0  0  0  0  0  0  0  0
   -3.0337    3.4387   -0.6767 N   0  0  0  0  0  0  0  0  0  0  0  0
   -3.9229    3.9309   -0.6981 H   0  0  0  0  0  0  0  0  0  0  0  0
   -2.6006    2.6018    0.3425 C   0  0  0  0  0  0  0  0  0  0  0  0
   -3.1330    2.3518    1.2560 H   0  0  0  0  0  0  0  0  0  0  0  0
    0.6579   -1.1366    0.8759 C   0  0  0  0  0  0  0  0  0  0  0  0
    1.1502   -0.8268    1.9619 O   0  0  0  0  0  0  0  0  0  0  0  0
    1.0178   -2.2343    0.1993 N   0  0  0  0  0  0  0  0  0  0  0  0
    0.5526   -2.4136   -0.6775 H   0  0  0  0  0  0  0  0  0  0  0  0
    2.0373   -3.1963    0.6287 C   0  0  0  0  0  0  0  0  0  0  0  0
    1.5615   -4.0794    1.0599 H   0  0  0  0  0  0  0  0  0  0  0  0
    2.6389   -3.5084   -0.2268 H   0  0  0  0  0  0  0  0  0  0  0  0
    2.6995   -2.7544    1.3762 H   0  0  0  0  0  0  0  0  0  0  0  0
  5  6  2  0  0  0  0
  5  7  1  0  0  0  0
  2  3  1  0  0  0  0
  2  4  1  0  0  0  0
  2  5  1  0  0  0  0
  1  2  1  0  0  0  0
 23 24  2  0  0  0  0
 23 25  1  0  0  0  0
 21 22  1  0  0  0  0
 19 20  1  0  0  0  0
 19 21  1  0  0  0  0
 17 18  1  0  0  0  0
 17 19  1  0  0  0  0
 15 16  1  0  0  0  0
 15 17  2  0  0  0  0
 14 15  1  0  0  0  0
 14 21  2  0  0  0  0
 11 12  1  0  0  0  0
 11 13  1  0  0  0  0
 11 14  1  0  0  0  0
  9 10  1  0  0  0  0
  9 11  1  0  0  0  0
  9 23  1  0  0  0  0
  7  8  1  0  0  0  0
  7  9  1  0  0  0  0
 27 28  1  0  0  0  0
 27 29  1  0  0  0  0
 27 30  1  0  0  0  0
 25 26  1  0  0  0  0
 25 27  1  0  0  0  0
M  CHG  1  15   1
M  END
$$$$
default_name
  -OEChem-01062215323D

 30 30  0     1  0  0  0  0  0999 V2000
   -3.5507   -3.2183    1.8116 H   0  0  0  0  0  0  0  0  0  0  0  0
   -3.4597   -2.3913    1.1076 C   0  0  0  0  0  0  0  0  0  0  0  0
   -4.1577   -1.6043    1.3866 H   0  0  0  0  0  0  0  0  0  0  0  0
   -3.6807   -2.7523    0.1036 H   0  0  0  0  0  0  0  0  0  0  0  0
   -2.0477   -1.8543    1.1546 C   0  0  0  0  0  0  0  0  0  0  0  0
   -1.2227   -2.3443    1.9146 O   0  0  0  0  0  0  0  0  0  0  0  0
   -1.7517   -0.8483    0.3266 N   0  0  0  0  0  0  0  0  0  0  0  0
   -2.4847   -0.5123   -0.2804 H   0  0  0  0  0  0  0  0  0  0  0  0
   -0.4117   -0.2463    0.2186 C   0  0  1  0  0  0  0  0  0  0  0  0
   -0.1521   -0.1815   -0.8409 H   0  0  0  0  0  0  0  0  0  0  0  0
   -0.4759    1.2000    0.7623 C   0  0  0  0  0  0  0  0  0  0  0  0
   -0.8267    1.1678    1.7969 H   0  0  0  0  0  0  0  0  0  0  0  0
    0.5329    1.6181    0.7786 H   0  0  0  0  0  0  0  0  0  0  0  0
   -1.3634    2.1433   -0.0217 C   0  0  0  0  0  0  0  0  0  0  0  0
   -1.0522    2.6985   -1.2478 N   0  3  0  0  0  0  0  0  0  0  0  0
   -0.2050    2.4668   -1.7744 H   0  0  0  0  0  0  0  0  0  0  0  0
   -2.0784    3.4830   -1.6327 C   0  0  0  0  0  0  0  0  0  0  0  0
   -2.1274    4.0435   -2.5641 H   0  0  0  0  0  0  0  0  0  0  0  0
   -3.0337    3.4387   -0.6767 N   0  0  0  0  0  0  0  0  0  0  0  0
   -3.9229    3.9309   -0.6981 H   0  0  0  0  0  0  0  0  0  0  0  0
   -2.6006    2.6018    0.3425 C   0  0  0  0  0  0  0  0  0  0  0  0
   -3.1330    2.3518    1.2560 H   0  0  0  0  0  0  0  0  0  0  0  0
    0.6579   -1.1366    0.8759 C   0  0  0  0  0  0  0  0  0  0  0  0
    0.9515   -0.9906    2.0635 O   0  0  0  0  0  0  0  0  0  0  0  0
    1.2423   -2.0471    0.0875 N   0  0  0  0  0  0  0  0  0  0  0  0
    0.9300   -2.1024   -0.8700 H   0  0  0  0  0  0  0  0  0  0  0  0
    2.3034   -2.9695    0.5030 C   0  0  0  0  0  0  0  0  0  0  0  0
    1.8855   -3.9599    0.6946 H   0  0  0  0  0  0  0  0  0  0  0  0
    3.0525   -3.0552   -0.2860 H   0  0  0  0  0  0  0  0  0  0  0  0
    2.7946   -2.6142    1.4113 H   0  0  0  0  0  0  0  0  0  0  0  0
  5  6  2  0  0  0  0
  5  7  1  0  0  0  0
  2  3  1  0  0  0  0
  2  4  1  0  0  0  0
  2  5  1  0  0  0  0
  1  2  1  0  0  0  0
 23 24  2  0  0  0  0
 23 25  1  0  0  0  0
 21 22  1  0  0  0  0
 19 20  1  0  0  0  0
 19 21  1  0  0  0  0
 17 18  1  0  0  0  0
 17 19  1  0  0  0  0
 15 16  1  0  0  0  0
 15 17  2  0  0  0  0
 14 15  1  0  0  0  0
 14 21  2  0  0  0  0
 11 12  1  0  0  0  0
 11 13  1  0  0  0  0
 11 14  1  0  0  0  0
  9 10  1  0  0  0  0
  9 11  1  0  0  0  0
  9 23  1  0  0  0  0
  7  8  1  0  0  0  0
  7  9  1  0  0  0  0
 27 28  1  0  0  0  0
 27 29  1  0  0  0  0
 27 30  1  0  0  0  0
 25 26  1  0  0  0  0
 25 27  1  0  0  0  0
M  CHG  1  15   1
M  END
$$$$
default_name
  -OEChem-01062215323D

 30 30  0     1  0  0  0  0  0999 V2000
   -3.5507   -3.2183    1.8116 H   0  0  0  0  0  0  0  0  0  0  0  0
   -3.4597   -2.3913    1.1076 C   0  0  0  0  0  0  0  0  0  0  0  0
   -4.1577   -1.6043    1.3866 H   0  0  0  0  0  0  0  0  0  0  0  0
   -3.6807   -2.7523    0.1036 H   0  0  0  0  0  0  0  0  0  0  0  0
   -2.0477   -1.8543    1.1546 C   0  0  0  0  0  0  0  0  0  0  0  0
   -1.2227   -2.3443    1.9146 O   0  0  0  0  0  0  0  0  0  0  0  0
   -1.7517   -0.8483    0.3266 N   0  0  0  0  0  0  0  0  0  0  0  0
   -2.4847   -0.5123   -0.2804 H   0  0  0  0  0  0  0  0  0  0  0  0
   -0.4117   -0.2463    0.2186 C   0  0  1  0  0  0  0  0  0  0  0  0
   -0.1521   -0.1815   -0.8409 H   0  0  0  0  0  0  0  0  0  0  0  0
   -0.4759    1.2000    0.7623 C   0  0  0  0  0  0  0  0  0  0  0  0
   -0.8267    1.1678    1.7969 H   0  0  0  0  0  0  0  0  0  0  0  0
    0.5329    1.6181    0.7786 H   0  0  0  0  0  0  0  0  0  0  0  0
   -1.3634    2.1433   -0.0217 C   0  0  0  0  0  0  0  0  0  0  0  0
   -1.0522    2.6985   -1.2478 N   0  3  0  0  0  0  0  0  0  0  0  0
   -0.2050    2.4668   -1.7744 H   0  0  0  0  0  0  0  0  0  0  0  0
   -2.0784    3.4830   -1.6327 C   0  0  0  0  0  0  0  0  0  0  0  0
   -2.1274    4.0435   -2.5641 H   0  0  0  0  0  0  0  0  0  0  0  0
   -3.0337    3.4387   -0.6767 N   0  0  0  0  0  0  0  0  0  0  0  0
   -3.9229    3.9309   -0.6981 H   0  0  0  0  0  0  0  0  0  0  0  0
   -2.6006    2.6018    0.3425 C   0  0  0  0  0  0  0  0  0  0  0  0
   -3.1330    2.3518    1.2560 H   0  0  0  0  0  0  0  0  0  0  0  0
    0.6579   -1.1366    0.8759 C   0  0  0  0  0  0  0  0  0  0  0  0
    0.7624   -1.1891    2.1023 O   0  0  0  0  0  0  0  0  0  0  0  0
    1.4552   -1.8215    0.0468 N   0  0  0  0  0  0  0  0  0  0  0  0
    1.2889   -1.7254   -0.9435 H   0  0  0  0  0  0  0  0  0  0  0  0
    2.5542   -2.6984    0.4621 C   0  0  0  0  0  0  0  0  0  0  0  0
    2.2399   -3.7429    0.4118 H   0  0  0  0  0  0  0  0  0  0  0  0
    3.4109   -2.5610   -0.1999 H   0  0  0  0  0  0  0  0  0  0  0  0
    2.8658   -2.4746    1.4845 H   0  0  0  0  0  0  0  0  0  0  0  0
  5  6  2  0  0  0  0
  5  7  1  0  0  0  0
  2  3  1  0  0  0  0
  2  4  1  0  0  0  0
  2  5  1  0  0  0  0
  1  2  1  0  0  0  0
 23 24  2  0  0  0  0
 23 25  1  0  0  0  0
 21 22  1  0  0  0  0
 19 20  1  0  0  0  0
 19 21  1  0  0  0  0
 17 18  1  0  0  0  0
 17 19  1  0  0  0  0
 15 16  1  0  0  0  0
 15 17  2  0  0  0  0
 14 15  1  0  0  0  0
 14 21  2  0  0  0  0
 11 12  1  0  0  0  0
 11 13  1  0  0  0  0
 11 14  1  0  0  0  0
  9 10  1  0  0  0  0
  9 11  1  0  0  0  0
  9 23  1  0  0  0  0
  7  8  1  0  0  0  0
  7  9  1  0  0  0  0
 27 28  1  0  0  0  0
 27 29  1  0  0  0  0
 27 30  1  0  0  0  0
 25 26  1  0  0  0  0
 25 27  1  0  0  0  0
M  CHG  1  15   1
M  END
$$$$
default_name
  -OEChem-01062215323D

 30 30  0     1  0  0  0  0  0999 V2000
   -3.5507   -3.2183    1.8116 H   0  0  0  0  0  0  0  0  0  0  0  0
   -3.4597   -2.3913    1.1076 C   0  0  0  0  0  0  0  0  0  0  0  0
   -4.1577   -1.6043    1.3866 H   0  0  0  0  0  0  0  0  0  0  0  0
   -3.6807   -2.7523    0.1036 H   0  0  0  0  0  0  0  0  0  0  0  0
   -2.0477   -1.8543    1.1546 C   0  0  0  0  0  0  0  0  0  0  0  0
   -1.2227   -2.3443    1.9146 O   0  0  0  0  0  0  0  0  0  0  0  0
   -1.7517   -0.8483    0.3266 N   0  0  0  0  0  0  0  0  0  0  0  0
   -2.4847   -0.5123   -0.2804 H   0  0  0  0  0  0  0  0  0  0  0  0
   -0.4117   -0.2463    0.2186 C   0  0  1  0  0  0  0  0  0  0  0  0
   -0.1521   -0.1815   -0.8409 H   0  0  0  0  0  0  0  0  0  0  0  0
   -0.4759    1.2000    0.7623 C   0  0  0  0  0  0  0  0  0  0  0  0
   -0.8267    1.1678    1.7969 H   0  0  0  0  0  0  0  0  0  0  0  0
    0.5329    1.6181    0.7786 H   0  0  0  0  0  0  0  0  0  0  0  0
   -1.3634    2.1433   -0.0217 C   0  0  0  0  0  0  0  0  0  0  0  0
   -1.0522    2.6985   -1.2478 N   0  3  0  0  0  0  0  0  0  0  0  0
   -0.2050    2.4668   -1.7744 H   0  0  0  0  0  0  0  0  0  0  0  0
   -2.0784    3.4830   -1.6327 C   0  0  0  0  0  0  0  0  0  0  0  0
   -2.1274    4.0435   -2.5641 H   0  0  0  0  0  0  0  0  0  0  0  0
   -3.0337    3.4387   -0.6767 N   0  0  0  0  0  0  0  0  0  0  0  0
   -3.9229    3.9309   -0.6981 H   0  0  0  0  0  0  0  0  0  0  0  0
   -2.6006    2.6018    0.3425 C   0  0  0  0  0  0  0  0  0  0  0  0
   -3.1330    2.3518    1.2560 H   0  0  0  0  0  0  0  0  0  0  0  0
    0.6579   -1.1366    0.8759 C   0  0  0  0  0  0  0  0  0  0  0  0
    0.5958   -1.4087    2.0758 O   0  0  0  0  0  0  0  0  0  0  0  0
    1.6420   -1.5726    0.0799 N   0  0  0  0  0  0  0  0  0  0  0  0
    1.6049   -1.3084   -0.8929 H   0  0  0  0  0  0  0  0  0  0  0  0
    2.7725   -2.4015    0.5089 C   0  0  0  0  0  0  0  0  0  0  0  0
    2.6006   -3.4432    0.2307 H   0  0  0  0  0  0  0  0  0  0  0  0
    3.6896   -2.0596    0.0259 H   0  0  0  0  0  0  0  0  0  0  0  0
    2.9081   -2.3451    1.5911 H   0  0  0  0  0  0  0  0  0  0  0  0
  5  6  2  0  0  0  0
  5  7  1  0  0  0  0
  2  3  1  0  0  0  0
  2  4  1  0  0  0  0
  2  5  1  0  0  0  0
  1  2  1  0  0  0  0
 23 24  2  0  0  0  0
 23 25  1  0  0  0  0
 21 22  1  0  0  0  0
 19 20  1  0  0  0  0
 19 21  1  0  0  0  0
 17 18  1  0  0  0  0
 17 19  1  0  0  0  0
 15 16  1  0  0  0  0
 15 17  2  0  0  0  0
 14 15  1  0  0  0  0
 14 21  2  0  0  0  0
 11 12  1  0  0  0  0
 11 13  1  0  0  0  0
 11 14  1  0  0  0  0
  9 10  1  0  0  0  0
  9 11  1  0  0  0  0
  9 23  1  0  0  0  0
  7  8  1  0  0  0  0
  7  9  1  0  0  0  0
 27 28  1  0  0  0  0
 27 29  1  0  0  0  0
 27 30  1  0  0  0  0
 25 26  1  0  0  0  0
 25 27  1  0  0  0  0
M  CHG  1  15   1
M  END
$$$$
default_name
  -OEChem-01062215323D

 30 30  0     1  0  0  0  0  0999 V2000
   -3.5507   -3.2183    1.8116 H   0  0  0  0  0  0  0  0  0  0  0  0
   -3.4597   -2.3913    1.1076 C   0  0  0  0  0  0  0  0  0  0  0  0
   -4.1577   -1.6043    1.3866 H   0  0  0  0  0  0  0  0  0  0  0  0
   -3.6807   -2.7523    0.1036 H   0  0  0  0  0  0  0  0  0  0  0  0
   -2.0477   -1.8543    1.1546 C   0  0  0  0  0  0  0  0  0  0  0  0
   -1.2227   -2.3443    1.9146 O   0  0  0  0  0  0  0  0  0  0  0  0
   -1.7517   -0.8483    0.3266 N   0  0  0  0  0  0  0  0  0  0  0  0
   -2.4847   -0.5123   -0.2804 H   0  0  0  0  0  0  0  0  0  0  0  0
   -0.4117   -0.2463    0.2186 C   0  0  1  0  0  0  0  0  0  0  0  0
   -0.1521   -0.1815   -0.8409 H   0  0  0  0  0  0  0  0  0  0  0  0
   -0.4759    1.2000    0.7623 C   0  0  0  0  0  0  0  0  0  0  0  0
   -0.8267    1.1678    1.7969 H   0  0  0  0  0  0  0  0  0  0  0  0
    0.5329    1.6181    0.7786 H   0  0  0  0  0  0  0  0  0  0  0  0
   -1.3634    2.1433   -0.0217 C   0  0  0  0  0  0  0  0  0  0  0  0
   -1.0522    2.6985   -1.2478 N   0  3  0  0  0  0  0  0  0  0  0  0
   -0.2050    2.4668   -1.7744 H   0  0  0  0  0  0  0  0  0  0  0  0
   -2.0784    3.4830   -1.6327 C   0  0  0  0  0  0  0  0  0  0  0  0
   -2.1274    4.0435   -2.5641 H   0  0  0  0  0  0  0  0  0  0  0  0
   -3.0337    3.4387   -0.6767 N   0  0  0  0  0  0  0  0  0  0  0  0
   -3.9229    3.9309   -0.6981 H   0  0  0  0  0  0  0  0  0  0  0  0
   -2.6006    2.6018    0.3425 C   0  0  0  0  0  0  0  0  0  0  0  0
   -3.1330    2.3518    1.2560 H   0  0  0  0  0  0  0  0  0  0  0  0
    0.6579   -1.1366    0.8759 C   0  0  0  0  0  0  0  0  0  0  0  0
    0.4632   -1.6345    1.9858 O   0  0  0  0  0  0  0  0  0  0  0  0
    1.7899   -1.3176    0.1846 N   0  0  0  0  0  0  0  0  0  0  0  0
    1.8565   -0.8798   -0.7217 H   0  0  0  0  0  0  0  0  0  0  0  0
    2.9437   -2.0990    0.6403 C   0  0  0  0  0  0  0  0  0  0  0  0
    2.9429   -3.0814    0.1637 H   0  0  0  0  0  0  0  0  0  0  0  0
    3.8695   -1.5851    0.3759 H   0  0  0  0  0  0  0  0  0  0  0  0
    2.9188   -2.2345    1.7236 H   0  0  0  0  0  0  0  0  0  0  0  0
  5  6  2  0  0  0  0
  5  7  1  0  0  0  0
  2  3  1  0  0  0  0
  2  4  1  0  0  0  0
  2  5  1  0  0  0  0
  1  2  1  0  0  0  0
 23 24  2  0  0  0  0
 23 25  1  0  0  0  0
 21 22  1  0  0  0  0
 19 20  1  0  0  0  0
 19 21  1  0  0  0  0
 17 18  1  0  0  0  0
 17 19  1  0  0  0  0
 15 16  1  0  0  0  0
 15 17  2  0  0  0  0
 14 15  1  0  0  0  0
 14 21  2  0  0  0  0
 11 12  1  0  0  0  0
 11 13  1  0  0  0  0
 11 14  1  0  0  0  0
  9 10  1  0  0  0  0
  9 11  1  0  0  0  0
  9 23  1  0  0  0  0
  7  8  1  0  0  0  0
  7  9  1  0  0  0  0
 27 28  1  0  0  0  0
 27 29  1  0  0  0  0
 27 30  1  0  0  0  0
 25 26  1  0  0  0  0
 25 27  1  0  0  0  0
M  CHG  1  15   1
M  END
$$$$
default_name
  -OEChem-01062215323D

 30 30  0     1  0  0  0  0  0999 V2000
   -3.5507   -3.2183    1.8116 H   0  0  0  0  0  0  0  0  0  0  0  0
   -3.4597   -2.3913    1.1076 C   0  0  0  0  0  0  0  0  0  0  0  0
   -4.1577   -1.6043    1.3866 H   0  0  0  0  0  0  0  0  0  0  0  0
   -3.6807   -2.7523    0.1036 H   0  0  0  0  0  0  0  0  0  0  0  0
   -2.0477   -1.8543    1.1546 C   0  0  0  0  0  0  0  0  0  0  0  0
   -1.2227   -2.3443    1.9146 O   0  0  0  0  0  0  0  0  0  0  0  0
   -1.7517   -0.8483    0.3266 N   0  0  0  0  0  0  0  0  0  0  0  0
   -2.4847   -0.5123   -0.2804 H   0  0  0  0  0  0  0  0  0  0  0  0
   -0.4117   -0.2463    0.2186 C   0  0  1  0  0  0  0  0  0  0  0  0
   -0.1521   -0.1815   -0.8409 H   0  0  0  0  0  0  0  0  0  0  0  0
   -0.4759    1.2000    0.7623 C   0  0  0  0  0  0  0  0  0  0  0  0
   -0.8267    1.1678    1.7969 H   0  0  0  0  0  0  0  0  0  0  0  0
    0.5329    1.6181    0.7786 H   0  0  0  0  0  0  0  0  0  0  0  0
   -1.3634    2.1433   -0.0217 C   0  0  0  0  0  0  0  0  0  0  0  0
   -1.0522    2.6985   -1.2478 N   0  3  0  0  0  0  0  0  0  0  0  0
   -0.2050    2.4668   -1.7744 H   0  0  0  0  0  0  0  0  0  0  0  0
   -2.0784    3.4830   -1.6327 C   0  0  0  0  0  0  0  0  0  0  0  0
   -2.1274    4.0435   -2.5641 H   0  0  0  0  0  0  0  0  0  0  0  0
   -3.0337    3.4387   -0.6767 N   0  0  0  0  0  0  0  0  0  0  0  0
   -3.9229    3.9309   -0.6981 H   0  0  0  0  0  0  0  0  0  0  0  0
   -2.6006    2.6018    0.3425 C   0  0  0  0  0  0  0  0  0  0  0  0
   -3.1330    2.3518    1.2560 H   0  0  0  0  0  0  0  0  0  0  0  0
    0.6579   -1.1366    0.8759 C   0  0  0  0  0  0  0  0  0  0  0  0
    0.3735   -1.8511    1.8384 O   0  0  0  0  0  0  0  0  0  0  0  0
    1.8890   -1.0737    0.3537 N   0  0  0  0  0  0  0  0  0  0  0  0
    2.0265   -0.4688   -0.4416 H   0  0  0  0  0  0  0  0  0  0  0  0
    3.0558   -1.8115    0.8472 C   0  0  0  0  0  0  0  0  0  0  0  0
    3.2437   -2.6819    0.2154 H   0  0  0  0  0  0  0  0  0  0  0  0
    3.9384   -1.1698    0.8263 H   0  0  0  0  0  0  0  0  0  0  0  0
    2.8970   -2.1503    1.8731 H   0  0  0  0  0  0  0  0  0  0  0  0
  5  6  2  0  0  0  0
  5  7  1  0  0  0  0
  2  3  1  0  0  0  0
  2  4  1  0  0  0  0
  2  5  1  0  0  0  0
  1  2  1  0  0  0  0
 23 24  2  0  0  0  0
 23 25  1  0  0  0  0
 21 22  1  0  0  0  0
 19 20  1  0  0  0  0
 19 21  1  0  0  0  0
 17 18  1  0  0  0  0
 17 19  1  0  0  0  0
 15 16  1  0  0  0  0
 15 17  2  0  0  0  0
 14 15  1  0  0  0  0
 14 21  2  0  0  0  0
 11 12  1  0  0  0  0
 11 13  1  0  0  0  0
 11 14  1  0  0  0  0
  9 10  1  0  0  0  0
  9 11  1  0  0  0  0
  9 23  1  0  0  0  0
  7  8  1  0  0  0  0
  7  9  1  0  0  0  0
 27 28  1  0  0  0  0
 27 29  1  0  0  0  0
 27 30  1  0  0  0  0
 25 26  1  0  0  0  0
 25 27  1  0  0  0  0
M  CHG  1  15   1
M  END
$$$$
default_name
  -OEChem-01062215323D

 30 30  0     1  0  0  0  0  0999 V2000
   -3.5507   -3.2183    1.8116 H   0  0  0  0  0  0  0  0  0  0  0  0
   -3.4597   -2.3913    1.1076 C   0  0  0  0  0  0  0  0  0  0  0  0
   -4.1577   -1.6043    1.3866 H   0  0  0  0  0  0  0  0  0  0  0  0
   -3.6807   -2.7523    0.1036 H   0  0  0  0  0  0  0  0  0  0  0  0
   -2.0477   -1.8543    1.1546 C   0  0  0  0  0  0  0  0  0  0  0  0
   -1.2227   -2.3443    1.9146 O   0  0  0  0  0  0  0  0  0  0  0  0
   -1.7517   -0.8483    0.3266 N   0  0  0  0  0  0  0  0  0  0  0  0
   -2.4847   -0.5123   -0.2804 H   0  0  0  0  0  0  0  0  0  0  0  0
   -0.4117   -0.2463    0.2186 C   0  0  1  0  0  0  0  0  0  0  0  0
   -0.1521   -0.1815   -0.8409 H   0  0  0  0  0  0  0  0  0  0  0  0
   -0.4759    1.2000    0.7623 C   0  0  0  0  0  0  0  0  0  0  0  0
   -0.8267    1.1678    1.7969 H   0  0  0  0  0  0  0  0  0  0  0  0
    0.5329    1.6181    0.7786 H   0  0  0  0  0  0  0  0  0  0  0  0
   -1.3634    2.1433   -0.0217 C   0  0  0  0  0  0  0  0  0  0  0  0
   -1.0522    2.6985   -1.2478 N   0  3  0  0  0  0  0  0  0  0  0  0
   -0.2050    2.4668   -1.7744 H   0  0  0  0  0  0  0  0  0  0  0  0
   -2.0784    3.4830   -1.6327 C   0  0  0  0  0  0  0  0  0  0  0  0
   -2.1274    4.0435   -2.5641 H   0  0  0  0  0  0  0  0  0  0  0  0
   -3.0337    3.4387   -0.6767 N   0  0  0  0  0  0  0  0  0  0  0  0
   -3.9229    3.9309   -0.6981 H   0  0  0  0  0  0  0  0  0  0  0  0
   -2.6006    2.6018    0.3425 C   0  0  0  0  0  0  0  0  0  0  0  0
   -3.1330    2.3518    1.2560 H   0  0  0  0  0  0  0  0  0  0  0  0
    0.6579   -1.1366    0.8759 C   0  0  0  0  0  0  0  0  0  0  0  0
    0.3329   -2.0436    1.6436 O   0  0  0  0  0  0  0  0  0  0  0  0
    1.9324   -0.8576    0.5759 N   0  0  0  0  0  0  0  0  0  0  0  0
    2.1034   -0.1033   -0.0716 H   0  0  0  0  0  0  0  0  0  0  0  0
    3.1014   -1.5586    1.1156 C   0  0  0  0  0  0  0  0  0  0  0  0
    3.4823   -2.2721    0.3822 H   0  0  0  0  0  0  0  0  0  0  0  0
    3.8917   -0.8421    1.3463 H   0  0  0  0  0  0  0  0  0  0  0  0
    2.8442   -2.0983    2.0294 H   0  0  0  0  0  0  0  0  0  0  0  0
  5  6  2  0  0  0  0
  5  7  1  0  0  0  0
  2  3  1  0  0  0  0
  2  4  1  0  0  0  0
  2  5  1  0  0  0  0
  1  2  1  0  0  0  0
 23 24  2  0  0  0  0
 23 25  1  0  0  0  0
 21 22  1  0  0  0  0
 19 20  1  0  0  0  0
 19 21  1  0  0  0  0
 17 18  1  0  0  0  0
 17 19  1  0  0  0  0
 15 16  1  0  0  0  0
 15 17  2  0  0  0  0
 14 15  1  0  0  0  0
 14 21  2  0  0  0  0
 11 12  1  0  0  0  0
 11 13  1  0  0  0  0
 11 14  1  0  0  0  0
  9 10  1  0  0  0  0
  9 11  1  0  0  0  0
  9 23  1  0  0  0  0
  7  8  1  0  0  0  0
  7  9  1  0  0  0  0
 27 28  1  0  0  0  0
 27 29  1  0  0  0  0
 27 30  1  0  0  0  0
 25 26  1  0  0  0  0
 25 27  1  0  0  0  0
M  CHG  1  15   1
M  END
$$$$
default_name
  -OEChem-01062215323D

 30 30  0     1  0  0  0  0  0999 V2000
   -3.5507   -3.2183    1.8116 H   0  0  0  0  0  0  0  0  0  0  0  0
   -3.4597   -2.3913    1.1076 C   0  0  0  0  0  0  0  0  0  0  0  0
   -4.1577   -1.6043    1.3866 H   0  0  0  0  0  0  0  0  0  0  0  0
   -3.6807   -2.7523    0.1036 H   0  0  0  0  0  0  0  0  0  0  0  0
   -2.0477   -1.8543    1.1546 C   0  0  0  0  0  0  0  0  0  0  0  0
   -1.2227   -2.3443    1.9146 O   0  0  0  0  0  0  0  0  0  0  0  0
   -1.7517   -0.8483    0.3266 N   0  0  0  0  0  0  0  0  0  0  0  0
   -2.4847   -0.5123   -0.2804 H   0  0  0  0  0  0  0  0  0  0  0  0
   -0.4117   -0.2463    0.2186 C   0  0  1  0  0  0  0  0  0  0  0  0
   -0.2612    0.0656   -0.8179 H   0  0  0  0  0  0  0  0  0  0  0  0
   -0.3735    1.0308    1.0898 C   0  0  0  0  0  0  0  0  0  0  0  0
   -0.6161    0.7571    2.1197 H   0  0  0  0  0  0  0  0  0  0  0  0
    0.6443    1.4268    1.0947 H   0  0  0  0  0  0  0  0  0  0  0  0
   -1.3071    2.1384    0.6495 C   0  0  0  0  0  0  0  0  0  0  0  0
   -1.1071    2.9657   -0.4386 N   0  3  0  0  0  0  0  0  0  0  0  0
   -0.3267    2.8597   -1.0931 H   0  0  0  0  0  0  0  0  0  0  0  0
   -2.1422    3.8255   -0.5155 C   0  0  0  0  0  0  0  0  0  0  0  0
   -2.2696    4.5906   -1.2787 H   0  0  0  0  0  0  0  0  0  0  0  0
   -2.9944    3.5623    0.5008 N   0  0  0  0  0  0  0  0  0  0  0  0
   -3.8650    4.0513    0.6916 H   0  0  0  0  0  0  0  0  0  0  0  0
   -2.4848    2.5055    1.2425 C   0  0  0  0  0  0  0  0  0  0  0  0
   -2.9275    2.0499    2.1239 H   0  0  0  0  0  0  0  0  0  0  0  0
    0.6915   -1.2735    0.5293 C   0  0  0  0  0  0  0  0  0  0  0  0
    0.4017   -2.4313    0.8348 O   0  0  0  0  0  0  0  0  0  0  0  0
    1.9535   -0.8322    0.4606 N   0  0  0  0  0  0  0  0  0  0  0  0
    2.0960    0.1293    0.1913 H   0  0  0  0  0  0  0  0  0  0  0  0
    3.1468   -1.6338    0.7486 C   0  0  0  0  0  0  0  0  0  0  0  0
    3.6120   -1.9618   -0.1831 H   0  0  0  0  0  0  0  0  0  0  0  0
    3.8702   -1.0374    1.3072 H   0  0  0  0  0  0  0  0  0  0  0  0
    2.8906   -2.5142    1.3419 H   0  0  0  0  0  0  0  0  0  0  0  0
  5  6  2  0  0  0  0
  5  7  1  0  0  0  0
  2  3  1  0  0  0  0
  2  4  1  0  0  0  0
  2  5  1  0  0  0  0
  1  2  1  0  0  0  0
 23 24  2  0  0  0  0
 23 25  1  0  0  0  0
 21 22  1  0  0  0  0
 19 20  1  0  0  0  0
 19 21  1  0  0  0  0
 17 18  1  0  0  0  0
 17 19  1  0  0  0  0
 15 16  1  0  0  0  0
 15 17  2  0  0  0  0
 14 15  1  0  0  0  0
 14 21  2  0  0  0  0
 11 12  1  0  0  0  0
 11 13  1  0  0  0  0
 11 14  1  0  0  0  0
  9 10  1  0  0  0  0
  9 11  1  0  0  0  0
  9 23  1  0  0  0  0
  7  8  1  0  0  0  0
  7  9  1  0  0  0  0
 27 28  1  0  0  0  0
 27 29  1  0  0  0  0
 27 30  1  0  0  0  0
 25 26  1  0  0  0  0
 25 27  1  0  0  0  0
M  CHG  1  15   1
M  END
$$$$
default_name
  -OEChem-01062215323D

 30 30  0     1  0  0  0  0  0999 V2000
   -3.5507   -3.2183    1.8116 H   0  0  0  0  0  0  0  0  0  0  0  0
   -3.4597   -2.3913    1.1076 C   0  0  0  0  0  0  0  0  0  0  0  0
   -4.1577   -1.6043    1.3866 H   0  0  0  0  0  0  0  0  0  0  0  0
   -3.6807   -2.7523    0.1036 H   0  0  0  0  0  0  0  0  0  0  0  0
   -2.0477   -1.8543    1.1546 C   0  0  0  0  0  0  0  0  0  0  0  0
   -1.2227   -2.3443    1.9146 O   0  0  0  0  0  0  0  0  0  0  0  0
   -1.7517   -0.8483    0.3266 N   0  0  0  0  0  0  0  0  0  0  0  0
   -2.4847   -0.5123   -0.2804 H   0  0  0  0  0  0  0  0  0  0  0  0
   -0.4117   -0.2463    0.2186 C   0  0  1  0  0  0  0  0  0  0  0  0
   -0.2612    0.0656   -0.8179 H   0  0  0  0  0  0  0  0  0  0  0  0
   -0.3735    1.0308    1.0898 C   0  0  0  0  0  0  0  0  0  0  0  0
   -0.6161    0.7571    2.1197 H   0  0  0  0  0  0  0  0  0  0  0  0
    0.6443    1.4268    1.0947 H   0  0  0  0  0  0  0  0  0  0  0  0
   -1.3071    2.1384    0.6495 C   0  0  0  0  0  0  0  0  0  0  0  0
   -1.1071    2.9657   -0.4386 N   0  3  0  0  0  0  0  0  0  0  0  0
   -0.3267    2.8597   -1.0931 H   0  0  0  0  0  0  0  0  0  0  0  0
   -2.1422    3.8255   -0.5155 C   0  0  0  0  0  0  0  0  0  0  0  0
   -2.2696    4.5906   -1.2787 H   0  0  0  0  0  0  0  0  0  0  0  0
   -2.9944    3.5623    0.5008 N   0  0  0  0  0  0  0  0  0  0  0  0
   -3.8650    4.0513    0.6916 H   0  0  0  0  0  0  0  0  0  0  0  0
   -2.4848    2.5055    1.2425 C   0  0  0  0  0  0  0  0  0  0  0  0
   -2.9275    2.0499    2.1239 H   0  0  0  0  0  0  0  0  0  0  0  0
    0.6915   -1.2735    0.5293 C   0  0  0  0  0  0  0  0  0  0  0  0
    0.4346   -2.4779    0.5638 O   0  0  0  0  0  0  0  0  0  0  0  0
    1.9139   -0.7821    0.7669 N   0  0  0  0  0  0  0  0  0  0  0  0
    2.0333    0.2175    0.7057 H   0  0  0  0  0  0  0  0  0  0  0  0
    3.0940   -1.5804    1.1125 C   0  0  0  0  0  0  0  0  0  0  0  0
    3.7303   -1.7084    0.2346 H   0  0  0  0  0  0  0  0  0  0  0  0
    3.6708   -1.0755    1.8893 H   0  0  0  0  0  0  0  0  0  0  0  0
    2.8028   -2.5661    1.4816 H   0  0  0  0  0  0  0  0  0  0  0  0
  5  6  2  0  0  0  0
  5  7  1  0  0  0  0
  2  3  1  0  0  0  0
  2  4  1  0  0  0  0
  2  5  1  0  0  0  0
  1  2  1  0  0  0  0
 23 24  2  0  0  0  0
 23 25  1  0  0  0  0
 21 22  1  0  0  0  0
 19 20  1  0  0  0  0
 19 21  1  0  0  0  0
 17 18  1  0  0  0  0
 17 19  1  0  0  0  0
 15 16  1  0  0  0  0
 15 17  2  0  0  0  0
 14 15  1  0  0  0  0
 14 21  2  0  0  0  0
 11 12  1  0  0  0  0
 11 13  1  0  0  0  0
 11 14  1  0  0  0  0
  9 10  1  0  0  0  0
  9 11  1  0  0  0  0
  9 23  1  0  0  0  0
  7  8  1  0  0  0  0
  7  9  1  0  0  0  0
 27 28  1  0  0  0  0
 27 29  1  0  0  0  0
 27 30  1  0  0  0  0
 25 26  1  0  0  0  0
 25 27  1  0  0  0  0
M  CHG  1  15   1
M  END
$$$$
default_name
  -OEChem-01062215323D

 30 30  0     1  0  0  0  0  0999 V2000
   -3.5507   -3.2183    1.8116 H   0  0  0  0  0  0  0  0  0  0  0  0
   -3.4597   -2.3913    1.1076 C   0  0  0  0  0  0  0  0  0  0  0  0
   -4.1577   -1.6043    1.3866 H   0  0  0  0  0  0  0  0  0  0  0  0
   -3.6807   -2.7523    0.1036 H   0  0  0  0  0  0  0  0  0  0  0  0
   -2.0477   -1.8543    1.1546 C   0  0  0  0  0  0  0  0  0  0  0  0
   -1.2227   -2.3443    1.9146 O   0  0  0  0  0  0  0  0  0  0  0  0
   -1.7517   -0.8483    0.3266 N   0  0  0  0  0  0  0  0  0  0  0  0
   -2.4847   -0.5123   -0.2804 H   0  0  0  0  0  0  0  0  0  0  0  0
   -0.4117   -0.2463    0.2186 C   0  0  1  0  0  0  0  0  0  0  0  0
   -0.2612    0.0656   -0.8179 H   0  0  0  0  0  0  0  0  0  0  0  0
   -0.3735    1.0308    1.0898 C   0  0  0  0  0  0  0  0  0  0  0  0
   -0.6161    0.7571    2.1197 H   0  0  0  0  0  0  0  0  0  0  0  0
    0.6443    1.4268    1.0947 H   0  0  0  0  0  0  0  0  0  0  0  0
   -1.3071    2.1384    0.6495 C   0  0  0  0  0  0  0  0  0  0  0  0
   -1.1071    2.9657   -0.4386 N   0  3  0  0  0  0  0  0  0  0  0  0
   -0.3267    2.8597   -1.0931 H   0  0  0  0  0  0  0  0  0  0  0  0
   -2.1422    3.8255   -0.5155 C   0  0  0  0  0  0  0  0  0  0  0  0
   -2.2696    4.5906   -1.2787 H   0  0  0  0  0  0  0  0  0  0  0  0
   -2.9944    3.5623    0.5008 N   0  0  0  0  0  0  0  0  0  0  0  0
   -3.8650    4.0513    0.6916 H   0  0  0  0  0  0  0  0  0  0  0  0
   -2.4848    2.5055    1.2425 C   0  0  0  0  0  0  0  0  0  0  0  0
   -2.9275    2.0499    2.1239 H   0  0  0  0  0  0  0  0  0  0  0  0
    0.6915   -1.2735    0.5293 C   0  0  0  0  0  0  0  0  0  0  0  0
    0.5156   -2.4710    0.2991 O   0  0  0  0  0  0  0  0  0  0  0  0
    1.8201   -0.7927    1.0652 N   0  0  0  0  0  0  0  0  0  0  0  0
    1.8792    0.2041    1.2082 H   0  0  0  0  0  0  0  0  0  0  0  0
    2.9773   -1.5991    1.4648 C   0  0  0  0  0  0  0  0  0  0  0  0
    3.7592   -1.5349    0.7055 H   0  0  0  0  0  0  0  0  0  0  0  0
    3.3796   -1.2307    2.4100 H   0  0  0  0  0  0  0  0  0  0  0  0
    2.6966   -2.6469    1.5917 H   0  0  0  0  0  0  0  0  0  0  0  0
  5  6  2  0  0  0  0
  5  7  1  0  0  0  0
  2  3  1  0  0  0  0
  2  4  1  0  0  0  0
  2  5  1  0  0  0  0
  1  2  1  0  0  0  0
 23 24  2  0  0  0  0
 23 25  1  0  0  0  0
 21 22  1  0  0  0  0
 19 20  1  0  0  0  0
 19 21  1  0  0  0  0
 17 18  1  0  0  0  0
 17 19  1  0  0  0  0
 15 16  1  0  0  0  0
 15 17  2  0  0  0  0
 14 15  1  0  0  0  0
 14 21  2  0  0  0  0
 11 12  1  0  0  0  0
 11 13  1  0  0  0  0
 11 14  1  0  0  0  0
  9 10  1  0  0  0  0
  9 11  1  0  0  0  0
  9 23  1  0  0  0  0
  7  8  1  0  0  0  0
  7  9  1  0  0  0  0
 27 28  1  0  0  0  0
 27 29  1  0  0  0  0
 27 30  1  0  0  0  0
 25 26  1  0  0  0  0
 25 27  1  0  0  0  0
M  CHG  1  15   1
M  END
$$$$
default_name
  -OEChem-01062215323D

 30 30  0     1  0  0  0  0  0999 V2000
   -3.5507   -3.2183    1.8116 H   0  0  0  0  0  0  0  0  0  0  0  0
   -3.4597   -2.3913    1.1076 C   0  0  0  0  0  0  0  0  0  0  0  0
   -4.1577   -1.6043    1.3866 H   0  0  0  0  0  0  0  0  0  0  0  0
   -3.6807   -2.7523    0.1036 H   0  0  0  0  0  0  0  0  0  0  0  0
   -2.0477   -1.8543    1.1546 C   0  0  0  0  0  0  0  0  0  0  0  0
   -1.2227   -2.3443    1.9146 O   0  0  0  0  0  0  0  0  0  0  0  0
   -1.7517   -0.8483    0.3266 N   0  0  0  0  0  0  0  0  0  0  0  0
   -2.4847   -0.5123   -0.2804 H   0  0  0  0  0  0  0  0  0  0  0  0
   -0.4117   -0.2463    0.2186 C   0  0  1  0  0  0  0  0  0  0  0  0
   -0.2612    0.0656   -0.8179 H   0  0  0  0  0  0  0  0  0  0  0  0
   -0.3735    1.0308    1.0898 C   0  0  0  0  0  0  0  0  0  0  0  0
   -0.6161    0.7571    2.1197 H   0  0  0  0  0  0  0  0  0  0  0  0
    0.6443    1.4268    1.0947 H   0  0  0  0  0  0  0  0  0  0  0  0
   -1.3071    2.1384    0.6495 C   0  0  0  0  0  0  0  0  0  0  0  0
   -1.1071    2.9657   -0.4386 N   0  3  0  0  0  0  0  0  0  0  0  0
   -0.3267    2.8597   -1.0931 H   0  0  0  0  0  0  0  0  0  0  0  0
   -2.1422    3.8255   -0.5155 C   0  0  0  0  0  0  0  0  0  0  0  0
   -2.2696    4.5906   -1.2787 H   0  0  0  0  0  0  0  0  0  0  0  0
   -2.9944    3.5623    0.5008 N   0  0  0  0  0  0  0  0  0  0  0  0
   -3.8650    4.0513    0.6916 H   0  0  0  0  0  0  0  0  0  0  0  0
   -2.4848    2.5055    1.2425 C   0  0  0  0  0  0  0  0  0  0  0  0
   -2.9275    2.0499    2.1239 H   0  0  0  0  0  0  0  0  0  0  0  0
    0.6915   -1.2735    0.5293 C   0  0  0  0  0  0  0  0  0  0  0  0
    0.6392   -2.4109    0.0588 O   0  0  0  0  0  0  0  0  0  0  0  0
    1.6785   -0.8631    1.3352 N   0  0  0  0  0  0  0  0  0  0  0  0
    1.6444    0.0898    1.6643 H   0  0  0  0  0  0  0  0  0  0  0  0
    2.8048   -1.6887    1.7815 C   0  0  0  0  0  0  0  0  0  0  0  0
    3.6968   -1.4532    1.1975 H   0  0  0  0  0  0  0  0  0  0  0  0
    3.0165   -1.4924    2.8339 H   0  0  0  0  0  0  0  0  0  0  0  0
    2.5793   -2.7508    1.6648 H   0  0  0  0  0  0  0  0  0  0  0  0
  5  6  2  0  0  0  0
  5  7  1  0  0  0  0
  2  3  1  0  0  0  0
  2  4  1  0  0  0  0
  2  5  1  0  0  0  0
  1  2  1  0  0  0  0
 23 24  2  0  0  0  0
 23 25  1  0  0  0  0
 21 22  1  0  0  0  0
 19 20  1  0  0  0  0
 19 21  1  0  0  0  0
 17 18  1  0  0  0  0
 17 19  1  0  0  0  0
 15 16  1  0  0  0  0
 15 17  2  0  0  0  0
 14 15  1  0  0  0  0
 14 21  2  0  0  0  0
 11 12  1  0  0  0  0
 11 13  1  0  0  0  0
 11 14  1  0  0  0  0
  9 10  1  0  0  0  0
  9 11  1  0  0  0  0
  9 23  1  0  0  0  0
  7  8  1  0  0  0  0
  7  9  1  0  0  0  0
 27 28  1  0  0  0  0
 27 29  1  0  0  0  0
 27 30  1  0  0  0  0
 25 26  1  0  0  0  0
 25 27  1  0  0  0  0
M  CHG  1  15   1
M  END
$$$$
default_name
  -OEChem-01062215323D

 30 30  0     1  0  0  0  0  0999 V2000
   -3.5507   -3.2183    1.8116 H   0  0  0  0  0  0  0  0  0  0  0  0
   -3.4597   -2.3913    1.1076 C   0  0  0  0  0  0  0  0  0  0  0  0
   -4.1577   -1.6043    1.3866 H   0  0  0  0  0  0  0  0  0  0  0  0
   -3.6807   -2.7523    0.1036 H   0  0  0  0  0  0  0  0  0  0  0  0
   -2.0477   -1.8543    1.1546 C   0  0  0  0  0  0  0  0  0  0  0  0
   -1.2227   -2.3443    1.9146 O   0  0  0  0  0  0  0  0  0  0  0  0
   -1.7517   -0.8483    0.3266 N   0  0  0  0  0  0  0  0  0  0  0  0
   -2.4847   -0.5123   -0.2804 H   0  0  0  0  0  0  0  0  0  0  0  0
   -0.4117   -0.2463    0.2186 C   0  0  1  0  0  0  0  0  0  0  0  0
   -0.2612    0.0656   -0.8179 H   0  0  0  0  0  0  0  0  0  0  0  0
   -0.3735    1.0308    1.0898 C   0  0  0  0  0  0  0  0  0  0  0  0
   -0.6161    0.7571    2.1197 H   0  0  0  0  0  0  0  0  0  0  0  0
    0.6443    1.4268    1.0947 H   0  0  0  0  0  0  0  0  0  0  0  0
   -1.3071    2.1384    0.6495 C   0  0  0  0  0  0  0  0  0  0  0  0
   -1.1071    2.9657   -0.4386 N   0  3  0  0  0  0  0  0  0  0  0  0
   -0.3267    2.8597   -1.0931 H   0  0  0  0  0  0  0  0  0  0  0  0
   -2.1422    3.8255   -0.5155 C   0  0  0  0  0  0  0  0  0  0  0  0
   -2.2696    4.5906   -1.2787 H   0  0  0  0  0  0  0  0  0  0  0  0
   -2.9944    3.5623    0.5008 N   0  0  0  0  0  0  0  0  0  0  0  0
   -3.8650    4.0513    0.6916 H   0  0  0  0  0  0  0  0  0  0  0  0
   -2.4848    2.5055    1.2425 C   0  0  0  0  0  0  0  0  0  0  0  0
   -2.9275    2.0499    2.1239 H   0  0  0  0  0  0  0  0  0  0  0  0
    0.6915   -1.2735    0.5293 C   0  0  0  0  0  0  0  0  0  0  0  0
    0.7970   -2.3018   -0.1409 O   0  0  0  0  0  0  0  0  0  0  0  0
    1.4987   -0.9885    1.5585 N   0  0  0  0  0  0  0  0  0  0  0  0
    1.3446   -0.1175    2.0432 H   0  0  0  0  0  0  0  0  0  0  0  0
    2.5881   -1.8429    2.0409 C   0  0  0  0  0  0  0  0  0  0  0  0
    3.5472   -1.4688    1.6771 H   0  0  0  0  0  0  0  0  0  0  0  0
    2.6063   -1.8428    3.1321 H   0  0  0  0  0  0  0  0  0  0  0  0
    2.4587   -2.8709    1.6958 H   0  0  0  0  0  0  0  0  0  0  0  0
  5  6  2  0  0  0  0
  5  7  1  0  0  0  0
  2  3  1  0  0  0  0
  2  4  1  0  0  0  0
  2  5  1  0  0  0  0
  1  2  1  0  0  0  0
 23 24  2  0  0  0  0
 23 25  1  0  0  0  0
 21 22  1  0  0  0  0
 19 20  1  0  0  0  0
 19 21  1  0  0  0  0
 17 18  1  0  0  0  0
 17 19  1  0  0  0  0
 15 16  1  0  0  0  0
 15 17  2  0  0  0  0
 14 15  1  0  0  0  0
 14 21  2  0  0  0  0
 11 12  1  0  0  0  0
 11 13  1  0  0  0  0
 11 14  1  0  0  0  0
  9 10  1  0  0  0  0
  9 11  1  0  0  0  0
  9 23  1  0  0  0  0
  7  8  1  0  0  0  0
  7  9  1  0  0  0  0
 27 28  1  0  0  0  0
 27 29  1  0  0  0  0
 27 30  1  0  0  0  0
 25 26  1  0  0  0  0
 25 27  1  0  0  0  0
M  CHG  1  15   1
M  END
$$$$
default_name
  -OEChem-01062215323D

 30 30  0     1  0  0  0  0  0999 V2000
   -3.5507   -3.2183    1.8116 H   0  0  0  0  0  0  0  0  0  0  0  0
   -3.4597   -2.3913    1.1076 C   0  0  0  0  0  0  0  0  0  0  0  0
   -4.1577   -1.6043    1.3866 H   0  0  0  0  0  0  0  0  0  0  0  0
   -3.6807   -2.7523    0.1036 H   0  0  0  0  0  0  0  0  0  0  0  0
   -2.0477   -1.8543    1.1546 C   0  0  0  0  0  0  0  0  0  0  0  0
   -1.2227   -2.3443    1.9146 O   0  0  0  0  0  0  0  0  0  0  0  0
   -1.7517   -0.8483    0.3266 N   0  0  0  0  0  0  0  0  0  0  0  0
   -2.4847   -0.5123   -0.2804 H   0  0  0  0  0  0  0  0  0  0  0  0
   -0.4117   -0.2463    0.2186 C   0  0  1  0  0  0  0  0  0  0  0  0
   -0.2612    0.0656   -0.8179 H   0  0  0  0  0  0  0  0  0  0  0  0
   -0.3735    1.0308    1.0898 C   0  0  0  0  0  0  0  0  0  0  0  0
   -0.6161    0.7571    2.1197 H   0  0  0  0  0  0  0  0  0  0  0  0
    0.6443    1.4268    1.0947 H   0  0  0  0  0  0  0  0  0  0  0  0
   -1.3071    2.1384    0.6495 C   0  0  0  0  0  0  0  0  0  0  0  0
   -1.1071    2.9657   -0.4386 N   0  3  0  0  0  0  0  0  0  0  0  0
   -0.3267    2.8597   -1.0931 H   0  0  0  0  0  0  0  0  0  0  0  0
   -2.1422    3.8255   -0.5155 C   0  0  0  0  0  0  0  0  0  0  0  0
   -2.2696    4.5906   -1.2787 H   0  0  0  0  0  0  0  0  0  0  0  0
   -2.9944    3.5623    0.5008 N   0  0  0  0  0  0  0  0  0  0  0  0
   -3.8650    4.0513    0.6916 H   0  0  0  0  0  0  0  0  0  0  0  0
   -2.4848    2.5055    1.2425 C   0  0  0  0  0  0  0  0  0  0  0  0
   -2.9275    2.0499    2.1239 H   0  0  0  0  0  0  0  0  0  0  0  0
    0.6915   -1.2735    0.5293 C   0  0  0  0  0  0  0  0  0  0  0  0
    0.9782   -2.1512   -0.2863 O   0  0  0  0  0  0  0  0  0  0  0  0
    1.2931   -1.1606    1.7199 N   0  0  0  0  0  0  0  0  0  0  0  0
    1.0005   -0.4037    2.3189 H   0  0  0  0  0  0  0  0  0  0  0  0
    2.3420   -2.0513    2.2255 C   0  0  0  0  0  0  0  0  0  0  0  0
    3.3206   -1.5806    2.1117 H   0  0  0  0  0  0  0  0  0  0  0  0
    2.1768   -2.2580    3.2843 H   0  0  0  0  0  0  0  0  0  0  0  0
    2.3432   -2.9989    1.6827 H   0  0  0  0  0  0  0  0  0  0  0  0
  5  6  2  0  0  0  0
  5  7  1  0  0  0  0
  2  3  1  0  0  0  0
  2  4  1  0  0  0  0
  2  5  1  0  0  0  0
  1  2  1  0  0  0  0
 23 24  2  0  0  0  0
 23 25  1  0  0  0  0
 21 22  1  0  0  0  0
 19 20  1  0  0  0  0
 19 21  1  0  0  0  0
 17 18  1  0  0  0  0
 17 19  1  0  0  0  0
 15 16  1  0  0  0  0
 15 17  2  0  0  0  0
 14 15  1  0  0  0  0
 14 21  2  0  0  0  0
 11 12  1  0  0  0  0
 11 13  1  0  0  0  0
 11 14  1  0  0  0  0
  9 10  1  0  0  0  0
  9 11  1  0  0  0  0
  9 23  1  0  0  0  0
  7  8  1  0  0  0  0
  7  9  1  0  0  0  0
 27 28  1  0  0  0  0
 27 29  1  0  0  0  0
 27 30  1  0  0  0  0
 25 26  1  0  0  0  0
 25 27  1  0  0  0  0
M  CHG  1  15   1
M  END
$$$$
default_name
  -OEChem-01062215323D

 30 30  0     1  0  0  0  0  0999 V2000
   -3.5507   -3.2183    1.8116 H   0  0  0  0  0  0  0  0  0  0  0  0
   -3.4597   -2.3913    1.1076 C   0  0  0  0  0  0  0  0  0  0  0  0
   -4.1577   -1.6043    1.3866 H   0  0  0  0  0  0  0  0  0  0  0  0
   -3.6807   -2.7523    0.1036 H   0  0  0  0  0  0  0  0  0  0  0  0
   -2.0477   -1.8543    1.1546 C   0  0  0  0  0  0  0  0  0  0  0  0
   -1.2227   -2.3443    1.9146 O   0  0  0  0  0  0  0  0  0  0  0  0
   -1.7517   -0.8483    0.3266 N   0  0  0  0  0  0  0  0  0  0  0  0
   -2.4847   -0.5123   -0.2804 H   0  0  0  0  0  0  0  0  0  0  0  0
   -0.4117   -0.2463    0.2186 C   0  0  1  0  0  0  0  0  0  0  0  0
   -0.2612    0.0656   -0.8179 H   0  0  0  0  0  0  0  0  0  0  0  0
   -0.3735    1.0308    1.0898 C   0  0  0  0  0  0  0  0  0  0  0  0
   -0.6161    0.7571    2.1197 H   0  0  0  0  0  0  0  0  0  0  0  0
    0.6443    1.4268    1.0947 H   0  0  0  0  0  0  0  0  0  0  0  0
   -1.3071    2.1384    0.6495 C   0  0  0  0  0  0  0  0  0  0  0  0
   -1.1071    2.9657   -0.4386 N   0  3  0  0  0  0  0  0  0  0  0  0
   -0.3267    2.8597   -1.0931 H   0  0  0  0  0  0  0  0  0  0  0  0
   -2.1422    3.8255   -0.5155 C   0  0  0  0  0  0  0  0  0  0  0  0
   -2.2696    4.5906   -1.2787 H   0  0  0  0  0  0  0  0  0  0  0  0
   -2.9944    3.5623    0.5008 N   0  0  0  0  0  0  0  0  0  0  0  0
   -3.8650    4.0513    0.6916 H   0  0  0  0  0  0  0  0  0  0  0  0
   -2.4848    2.5055    1.2425 C   0  0  0  0  0  0  0  0  0  0  0  0
   -2.9275    2.0499    2.1239 H   0  0  0  0  0  0  0  0  0  0  0  0
    0.6915   -1.2735    0.5293 C   0  0  0  0  0  0  0  0  0  0  0  0
    1.1705   -1.9692   -0.3675 O   0  0  0  0  0  0  0  0  0  0  0  0
    1.0756   -1.3674    1.8083 N   0  0  0  0  0  0  0  0  0  0  0  0
    0.6354   -0.7492    2.4727 H   0  0  0  0  0  0  0  0  0  0  0  0
    2.0834   -2.2998    2.3226 C   0  0  0  0  0  0  0  0  0  0  0  0
    3.0326   -1.7812    2.4715 H   0  0  0  0  0  0  0  0  0  0  0  0
    1.7573   -2.7098    3.2800 H   0  0  0  0  0  0  0  0  0  0  0  0
    2.2405   -3.1262    1.6263 H   0  0  0  0  0  0  0  0  0  0  0  0
  5  6  2  0  0  0  0
  5  7  1  0  0  0  0
  2  3  1  0  0  0  0
  2  4  1  0  0  0  0
  2  5  1  0  0  0  0
  1  2  1  0  0  0  0
 23 24  2  0  0  0  0
 23 25  1  0  0  0  0
 21 22  1  0  0  0  0
 19 20  1  0  0  0  0
 19 21  1  0  0  0  0
 17 18  1  0  0  0  0
 17 19  1  0  0  0  0
 15 16  1  0  0  0  0
 15 17  2  0  0  0  0
 14 15  1  0  0  0  0
 14 21  2  0  0  0  0
 11 12  1  0  0  0  0
 11 13  1  0  0  0  0
 11 14  1  0  0  0  0
  9 10  1  0  0  0  0
  9 11  1  0  0  0  0
  9 23  1  0  0  0  0
  7  8  1  0  0  0  0
  7  9  1  0  0  0  0
 27 28  1  0  0  0  0
 27 29  1  0  0  0  0
 27 30  1  0  0  0  0
 25 26  1  0  0  0  0
 25 27  1  0  0  0  0
M  CHG  1  15   1
M  END
$$$$
default_name
  -OEChem-01062215323D

 30 30  0     1  0  0  0  0  0999 V2000
   -3.5507   -3.2183    1.8116 H   0  0  0  0  0  0  0  0  0  0  0  0
   -3.4597   -2.3913    1.1076 C   0  0  0  0  0  0  0  0  0  0  0  0
   -4.1577   -1.6043    1.3866 H   0  0  0  0  0  0  0  0  0  0  0  0
   -3.6807   -2.7523    0.1036 H   0  0  0  0  0  0  0  0  0  0  0  0
   -2.0477   -1.8543    1.1546 C   0  0  0  0  0  0  0  0  0  0  0  0
   -1.2227   -2.3443    1.9146 O   0  0  0  0  0  0  0  0  0  0  0  0
   -1.7517   -0.8483    0.3266 N   0  0  0  0  0  0  0  0  0  0  0  0
   -2.4847   -0.5123   -0.2804 H   0  0  0  0  0  0  0  0  0  0  0  0
   -0.4117   -0.2463    0.2186 C   0  0  1  0  0  0  0  0  0  0  0  0
   -0.2612    0.0656   -0.8179 H   0  0  0  0  0  0  0  0  0  0  0  0
   -0.3735    1.0308    1.0898 C   0  0  0  0  0  0  0  0  0  0  0  0
   -0.6161    0.7571    2.1197 H   0  0  0  0  0  0  0  0  0  0  0  0
    0.6443    1.4268    1.0947 H   0  0  0  0  0  0  0  0  0  0  0  0
   -1.3071    2.1384    0.6495 C   0  0  0  0  0  0  0  0  0  0  0  0
   -1.1071    2.9657   -0.4386 N   0  3  0  0  0  0  0  0  0  0  0  0
   -0.3267    2.8597   -1.0931 H   0  0  0  0  0  0  0  0  0  0  0  0
   -2.1422    3.8255   -0.5155 C   0  0  0  0  0  0  0  0  0  0  0  0
   -2.2696    4.5906   -1.2787 H   0  0  0  0  0  0  0  0  0  0  0  0
   -2.9944    3.5623    0.5008 N   0  0  0  0  0  0  0  0  0  0  0  0
   -3.8650    4.0513    0.6916 H   0  0  0  0  0  0  0  0  0  0  0  0
   -2.4848    2.5055    1.2425 C   0  0  0  0  0  0  0  0  0  0  0  0
   -2.9275    2.0499    2.1239 H   0  0  0  0  0  0  0  0  0  0  0  0
    0.6915   -1.2735    0.5293 C   0  0  0  0  0  0  0  0  0  0  0  0
    1.3608   -1.7684   -0.3789 O   0  0  0  0  0  0  0  0  0  0  0  0
    0.8611   -1.5950    1.8177 N   0  0  0  0  0  0  0  0  0  0  0  0
    0.2743   -1.1306    2.4941 H   0  0  0  0  0  0  0  0  0  0  0  0
    1.8297   -2.5712    2.3256 C   0  0  0  0  0  0  0  0  0  0  0  0
    2.7026   -2.0566    2.7321 H   0  0  0  0  0  0  0  0  0  0  0  0
    1.3765   -3.1672    3.1196 H   0  0  0  0  0  0  0  0  0  0  0  0
    2.1578   -3.2441    1.5304 H   0  0  0  0  0  0  0  0  0  0  0  0
  5  6  2  0  0  0  0
  5  7  1  0  0  0  0
  2  3  1  0  0  0  0
  2  4  1  0  0  0  0
  2  5  1  0  0  0  0
  1  2  1  0  0  0  0
 23 24  2  0  0  0  0
 23 25  1  0  0  0  0
 21 22  1  0  0  0  0
 19 20  1  0  0  0  0
 19 21  1  0  0  0  0
 17 18  1  0  0  0  0
 17 19  1  0  0  0  0
 15 16  1  0  0  0  0
 15 17  2  0  0  0  0
 14 15  1  0  0  0  0
 14 21  2  0  0  0  0
 11 12  1  0  0  0  0
 11 13  1  0  0  0  0
 11 14  1  0  0  0  0
  9 10  1  0  0  0  0
  9 11  1  0  0  0  0
  9 23  1  0  0  0  0
  7  8  1  0  0  0  0
  7  9  1  0  0  0  0
 27 28  1  0  0  0  0
 27 29  1  0  0  0  0
 27 30  1  0  0  0  0
 25 26  1  0  0  0  0
 25 27  1  0  0  0  0
M  CHG  1  15   1
M  END
$$$$
default_name
  -OEChem-01062215323D

 30 30  0     1  0  0  0  0  0999 V2000
   -3.5507   -3.2183    1.8116 H   0  0  0  0  0  0  0  0  0  0  0  0
   -3.4597   -2.3913    1.1076 C   0  0  0  0  0  0  0  0  0  0  0  0
   -4.1577   -1.6043    1.3866 H   0  0  0  0  0  0  0  0  0  0  0  0
   -3.6807   -2.7523    0.1036 H   0  0  0  0  0  0  0  0  0  0  0  0
   -2.0477   -1.8543    1.1546 C   0  0  0  0  0  0  0  0  0  0  0  0
   -1.2227   -2.3443    1.9146 O   0  0  0  0  0  0  0  0  0  0  0  0
   -1.7517   -0.8483    0.3266 N   0  0  0  0  0  0  0  0  0  0  0  0
   -2.4847   -0.5123   -0.2804 H   0  0  0  0  0  0  0  0  0  0  0  0
   -0.4117   -0.2463    0.2186 C   0  0  1  0  0  0  0  0  0  0  0  0
   -0.2612    0.0656   -0.8179 H   0  0  0  0  0  0  0  0  0  0  0  0
   -0.3735    1.0308    1.0898 C   0  0  0  0  0  0  0  0  0  0  0  0
   -0.6161    0.7571    2.1197 H   0  0  0  0  0  0  0  0  0  0  0  0
    0.6443    1.4268    1.0947 H   0  0  0  0  0  0  0  0  0  0  0  0
   -1.3071    2.1384    0.6495 C   0  0  0  0  0  0  0  0  0  0  0  0
   -1.1071    2.9657   -0.4386 N   0  3  0  0  0  0  0  0  0  0  0  0
   -0.3267    2.8597   -1.0931 H   0  0  0  0  0  0  0  0  0  0  0  0
   -2.1422    3.8255   -0.5155 C   0  0  0  0  0  0  0  0  0  0  0  0
   -2.2696    4.5906   -1.2787 H   0  0  0  0  0  0  0  0  0  0  0  0
   -2.9944    3.5623    0.5008 N   0  0  0  0  0  0  0  0  0  0  0  0
   -3.8650    4.0513    0.6916 H   0  0  0  0  0  0  0  0  0  0  0  0
   -2.4848    2.5055    1.2425 C   0  0  0  0  0  0  0  0  0  0  0  0
   -2.9275    2.0499    2.1239 H   0  0  0  0  0  0  0  0  0  0  0  0
    0.6915   -1.2735    0.5293 C   0  0  0  0  0  0  0  0  0  0  0  0
    1.5360   -1.5623   -0.3199 O   0  0  0  0  0  0  0  0  0  0  0  0
    0.6641   -1.8277    1.7476 N   0  0  0  0  0  0  0  0  0  0  0  0
   -0.0583   -1.5218    2.3816 H   0  0  0  0  0  0  0  0  0  0  0  0
    1.5984   -2.8473    2.2343 C   0  0  0  0  0  0  0  0  0  0  0  0
    2.3533   -2.3883    2.8758 H   0  0  0  0  0  0  0  0  0  0  0  0
    1.0603   -3.5993    2.8140 H   0  0  0  0  0  0  0  0  0  0  0  0
    2.1005   -3.3445    1.4017 H   0  0  0  0  0  0  0  0  0  0  0  0
  5  6  2  0  0  0  0
  5  7  1  0  0  0  0
  2  3  1  0  0  0  0
  2  4  1  0  0  0  0
  2  5  1  0  0  0  0
  1  2  1  0  0  0  0
 23 24  2  0  0  0  0
 23 25  1  0  0  0  0
 21 22  1  0  0  0  0
 19 20  1  0  0  0  0
 19 21  1  0  0  0  0
 17 18  1  0  0  0  0
 17 19  1  0  0  0  0
 15 16  1  0  0  0  0
 15 17  2  0  0  0  0
 14 15  1  0  0  0  0
 14 21  2  0  0  0  0
 11 12  1  0  0  0  0
 11 13  1  0  0  0  0
 11 14  1  0  0  0  0
  9 10  1  0  0  0  0
  9 11  1  0  0  0  0
  9 23  1  0  0  0  0
  7  8  1  0  0  0  0
  7  9  1  0  0  0  0
 27 28  1  0  0  0  0
 27 29  1  0  0  0  0
 27 30  1  0  0  0  0
 25 26  1  0  0  0  0
 25 27  1  0  0  0  0
M  CHG  1  15   1
M  END
$$$$
default_name
  -OEChem-01062215323D

 30 30  0     1  0  0  0  0  0999 V2000
   -3.5507   -3.2183    1.8116 H   0  0  0  0  0  0  0  0  0  0  0  0
   -3.4597   -2.3913    1.1076 C   0  0  0  0  0  0  0  0  0  0  0  0
   -4.1577   -1.6043    1.3866 H   0  0  0  0  0  0  0  0  0  0  0  0
   -3.6807   -2.7523    0.1036 H   0  0  0  0  0  0  0  0  0  0  0  0
   -2.0477   -1.8543    1.1546 C   0  0  0  0  0  0  0  0  0  0  0  0
   -1.2227   -2.3443    1.9146 O   0  0  0  0  0  0  0  0  0  0  0  0
   -1.7517   -0.8483    0.3266 N   0  0  0  0  0  0  0  0  0  0  0  0
   -2.4847   -0.5123   -0.2804 H   0  0  0  0  0  0  0  0  0  0  0  0
   -0.4117   -0.2463    0.2186 C   0  0  1  0  0  0  0  0  0  0  0  0
   -0.2612    0.0656   -0.8179 H   0  0  0  0  0  0  0  0  0  0  0  0
   -0.3735    1.0308    1.0898 C   0  0  0  0  0  0  0  0  0  0  0  0
   -0.6161    0.7571    2.1197 H   0  0  0  0  0  0  0  0  0  0  0  0
    0.6443    1.4268    1.0947 H   0  0  0  0  0  0  0  0  0  0  0  0
   -1.3071    2.1384    0.6495 C   0  0  0  0  0  0  0  0  0  0  0  0
   -1.1071    2.9657   -0.4386 N   0  3  0  0  0  0  0  0  0  0  0  0
   -0.3267    2.8597   -1.0931 H   0  0  0  0  0  0  0  0  0  0  0  0
   -2.1422    3.8255   -0.5155 C   0  0  0  0  0  0  0  0  0  0  0  0
   -2.2696    4.5906   -1.2787 H   0  0  0  0  0  0  0  0  0  0  0  0
   -2.9944    3.5623    0.5008 N   0  0  0  0  0  0  0  0  0  0  0  0
   -3.8650    4.0513    0.6916 H   0  0  0  0  0  0  0  0  0  0  0  0
   -2.4848    2.5055    1.2425 C   0  0  0  0  0  0  0  0  0  0  0  0
   -2.9275    2.0499    2.1239 H   0  0  0  0  0  0  0  0  0  0  0  0
    0.6915   -1.2735    0.5293 C   0  0  0  0  0  0  0  0  0  0  0  0
    1.6844   -1.3651   -0.1943 O   0  0  0  0  0  0  0  0  0  0  0  0
    0.4981   -2.0498    1.6026 N   0  0  0  0  0  0  0  0  0  0  0  0
   -0.3397   -1.8962    2.1429 H   0  0  0  0  0  0  0  0  0  0  0  0
    1.4051   -3.1091    2.0550 C   0  0  0  0  0  0  0  0  0  0  0  0
    2.0084   -2.7536    2.8927 H   0  0  0  0  0  0  0  0  0  0  0  0
    0.8302   -3.9764    2.3841 H   0  0  0  0  0  0  0  0  0  0  0  0
    2.0728   -3.4205    1.2489 H   0  0  0  0  0  0  0  0  0  0  0  0
  5  6  2  0  0  0  0
  5  7  1  0  0  0  0
  2  3  1  0  0  0  0
  2  4  1  0  0  0  0
  2  5  1  0  0  0  0
  1  2  1  0  0  0  0
 23 24  2  0  0  0  0
 23 25  1  0  0  0  0
 21 22  1  0  0  0  0
 19 20  1  0  0  0  0
 19 21  1  0  0  0  0
 17 18  1  0  0  0  0
 17 19  1  0  0  0  0
 15 16  1  0  0  0  0
 15 17  2  0  0  0  0
 14 15  1  0  0  0  0
 14 21  2  0  0  0  0
 11 12  1  0  0  0  0
 11 13  1  0  0  0  0
 11 14  1  0  0  0  0
  9 10  1  0  0  0  0
  9 11  1  0  0  0  0
  9 23  1  0  0  0  0
  7  8  1  0  0  0  0
  7  9  1  0  0  0  0
 27 28  1  0  0  0  0
 27 29  1  0  0  0  0
 27 30  1  0  0  0  0
 25 26  1  0  0  0  0
 25 27  1  0  0  0  0
M  CHG  1  15   1
M  END
$$$$
default_name
  -OEChem-01062215323D

 30 30  0     1  0  0  0  0  0999 V2000
   -3.5507   -3.2183    1.8116 H   0  0  0  0  0  0  0  0  0  0  0  0
   -3.4597   -2.3913    1.1076 C   0  0  0  0  0  0  0  0  0  0  0  0
   -4.1577   -1.6043    1.3866 H   0  0  0  0  0  0  0  0  0  0  0  0
   -3.6807   -2.7523    0.1036 H   0  0  0  0  0  0  0  0  0  0  0  0
   -2.0477   -1.8543    1.1546 C   0  0  0  0  0  0  0  0  0  0  0  0
   -1.2227   -2.3443    1.9146 O   0  0  0  0  0  0  0  0  0  0  0  0
   -1.7517   -0.8483    0.3266 N   0  0  0  0  0  0  0  0  0  0  0  0
   -2.4847   -0.5123   -0.2804 H   0  0  0  0  0  0  0  0  0  0  0  0
   -0.4117   -0.2463    0.2186 C   0  0  1  0  0  0  0  0  0  0  0  0
   -0.2612    0.0656   -0.8179 H   0  0  0  0  0  0  0  0  0  0  0  0
   -0.3735    1.0308    1.0898 C   0  0  0  0  0  0  0  0  0  0  0  0
   -0.6161    0.7571    2.1197 H   0  0  0  0  0  0  0  0  0  0  0  0
    0.6443    1.4268    1.0947 H   0  0  0  0  0  0  0  0  0  0  0  0
   -1.3071    2.1384    0.6495 C   0  0  0  0  0  0  0  0  0  0  0  0
   -1.1071    2.9657   -0.4386 N   0  3  0  0  0  0  0  0  0  0  0  0
   -0.3267    2.8597   -1.0931 H   0  0  0  0  0  0  0  0  0  0  0  0
   -2.1422    3.8255   -0.5155 C   0  0  0  0  0  0  0  0  0  0  0  0
   -2.2696    4.5906   -1.2787 H   0  0  0  0  0  0  0  0  0  0  0  0
   -2.9944    3.5623    0.5008 N   0  0  0  0  0  0  0  0  0  0  0  0
   -3.8650    4.0513    0.6916 H   0  0  0  0  0  0  0  0  0  0  0  0
   -2.4848    2.5055    1.2425 C   0  0  0  0  0  0  0  0  0  0  0  0
   -2.9275    2.0499    2.1239 H   0  0  0  0  0  0  0  0  0  0  0  0
    0.6915   -1.2735    0.5293 C   0  0  0  0  0  0  0  0  0  0  0  0
    1.7956   -1.1901   -0.0108 O   0  0  0  0  0  0  0  0  0  0  0  0
    0.3744   -2.2462    1.3927 N   0  0  0  0  0  0  0  0  0  0  0  0
   -0.5507   -2.2282    1.7943 H   0  0  0  0  0  0  0  0  0  0  0  0
    1.2631   -3.3388    1.7998 C   0  0  0  0  0  0  0  0  0  0  0  0
    1.6915   -3.1276    2.7816 H   0  0  0  0  0  0  0  0  0  0  0  0
    0.7019   -4.2730    1.8591 H   0  0  0  0  0  0  0  0  0  0  0  0
    2.0763   -3.4671    1.0823 H   0  0  0  0  0  0  0  0  0  0  0  0
  5  6  2  0  0  0  0
  5  7  1  0  0  0  0
  2  3  1  0  0  0  0
  2  4  1  0  0  0  0
  2  5  1  0  0  0  0
  1  2  1  0  0  0  0
 23 24  2  0  0  0  0
 23 25  1  0  0  0  0
 21 22  1  0  0  0  0
 19 20  1  0  0  0  0
 19 21  1  0  0  0  0
 17 18  1  0  0  0  0
 17 19  1  0  0  0  0
 15 16  1  0  0  0  0
 15 17  2  0  0  0  0
 14 15  1  0  0  0  0
 14 21  2  0  0  0  0
 11 12  1  0  0  0  0
 11 13  1  0  0  0  0
 11 14  1  0  0  0  0
  9 10  1  0  0  0  0
  9 11  1  0  0  0  0
  9 23  1  0  0  0  0
  7  8  1  0  0  0  0
  7  9  1  0  0  0  0
 27 28  1  0  0  0  0
 27 29  1  0  0  0  0
 27 30  1  0  0  0  0
 25 26  1  0  0  0  0
 25 27  1  0  0  0  0
M  CHG  1  15   1
M  END
$$$$
default_name
  -OEChem-01062215323D

 30 30  0     1  0  0  0  0  0999 V2000
   -3.5507   -3.2183    1.8116 H   0  0  0  0  0  0  0  0  0  0  0  0
   -3.4597   -2.3913    1.1076 C   0  0  0  0  0  0  0  0  0  0  0  0
   -4.1577   -1.6043    1.3866 H   0  0  0  0  0  0  0  0  0  0  0  0
   -3.6807   -2.7523    0.1036 H   0  0  0  0  0  0  0  0  0  0  0  0
   -2.0477   -1.8543    1.1546 C   0  0  0  0  0  0  0  0  0  0  0  0
   -1.2227   -2.3443    1.9146 O   0  0  0  0  0  0  0  0  0  0  0  0
   -1.7517   -0.8483    0.3266 N   0  0  0  0  0  0  0  0  0  0  0  0
   -2.4847   -0.5123   -0.2804 H   0  0  0  0  0  0  0  0  0  0  0  0
   -0.4117   -0.2463    0.2186 C   0  0  1  0  0  0  0  0  0  0  0  0
   -0.2612    0.0656   -0.8179 H   0  0  0  0  0  0  0  0  0  0  0  0
   -0.3735    1.0308    1.0898 C   0  0  0  0  0  0  0  0  0  0  0  0
   -0.6161    0.7571    2.1197 H   0  0  0  0  0  0  0  0  0  0  0  0
    0.6443    1.4268    1.0947 H   0  0  0  0  0  0  0  0  0  0  0  0
   -1.3071    2.1384    0.6495 C   0  0  0  0  0  0  0  0  0  0  0  0
   -1.1071    2.9657   -0.4386 N   0  3  0  0  0  0  0  0  0  0  0  0
   -0.3267    2.8597   -1.0931 H   0  0  0  0  0  0  0  0  0  0  0  0
   -2.1422    3.8255   -0.5155 C   0  0  0  0  0  0  0  0  0  0  0  0
   -2.2696    4.5906   -1.2787 H   0  0  0  0  0  0  0  0  0  0  0  0
   -2.9944    3.5623    0.5008 N   0  0  0  0  0  0  0  0  0  0  0  0
   -3.8650    4.0513    0.6916 H   0  0  0  0  0  0  0  0  0  0  0  0
   -2.4848    2.5055    1.2425 C   0  0  0  0  0  0  0  0  0  0  0  0
   -2.9275    2.0499    2.1239 H   0  0  0  0  0  0  0  0  0  0  0  0
    0.6915   -1.2735    0.5293 C   0  0  0  0  0  0  0  0  0  0  0  0
    1.8622   -1.0493    0.2181 O   0  0  0  0  0  0  0  0  0  0  0  0
    0.3014   -2.4033    1.1322 N   0  0  0  0  0  0  0  0  0  0  0  0
   -0.6770   -2.4953    1.3595 H   0  0  0  0  0  0  0  0  0  0  0  0
    1.1819   -3.5208    1.4862 C   0  0  0  0  0  0  0  0  0  0  0  0
    1.4240   -3.4848    2.5502 H   0  0  0  0  0  0  0  0  0  0  0  0
    0.6841   -4.4687    1.2748 H   0  0  0  0  0  0  0  0  0  0  0  0
    2.1109   -3.4810    0.9134 H   0  0  0  0  0  0  0  0  0  0  0  0
  5  6  2  0  0  0  0
  5  7  1  0  0  0  0
  2  3  1  0  0  0  0
  2  4  1  0  0  0  0
  2  5  1  0  0  0  0
  1  2  1  0  0  0  0
 23 24  2  0  0  0  0
 23 25  1  0  0  0  0
 21 22  1  0  0  0  0
 19 20  1  0  0  0  0
 19 21  1  0  0  0  0
 17 18  1  0  0  0  0
 17 19  1  0  0  0  0
 15 16  1  0  0  0  0
 15 17  2  0  0  0  0
 14 15  1  0  0  0  0
 14 21  2  0  0  0  0
 11 12  1  0  0  0  0
 11 13  1  0  0  0  0
 11 14  1  0  0  0  0
  9 10  1  0  0  0  0
  9 11  1  0  0  0  0
  9 23  1  0  0  0  0
  7  8  1  0  0  0  0
  7  9  1  0  0  0  0
 27 28  1  0  0  0  0
 27 29  1  0  0  0  0
 27 30  1  0  0  0  0
 25 26  1  0  0  0  0
 25 27  1  0  0  0  0
M  CHG  1  15   1
M  END
$$$$
default_name
  -OEChem-01062215323D

 30 30  0     1  0  0  0  0  0999 V2000
   -3.5507   -3.2183    1.8116 H   0  0  0  0  0  0  0  0  0  0  0  0
   -3.4597   -2.3913    1.1076 C   0  0  0  0  0  0  0  0  0  0  0  0
   -4.1577   -1.6043    1.3866 H   0  0  0  0  0  0  0  0  0  0  0  0
   -3.6807   -2.7523    0.1036 H   0  0  0  0  0  0  0  0  0  0  0  0
   -2.0477   -1.8543    1.1546 C   0  0  0  0  0  0  0  0  0  0  0  0
   -1.2227   -2.3443    1.9146 O   0  0  0  0  0  0  0  0  0  0  0  0
   -1.7517   -0.8483    0.3266 N   0  0  0  0  0  0  0  0  0  0  0  0
   -2.4847   -0.5123   -0.2804 H   0  0  0  0  0  0  0  0  0  0  0  0
   -0.4117   -0.2463    0.2186 C   0  0  1  0  0  0  0  0  0  0  0  0
   -0.2612    0.0656   -0.8179 H   0  0  0  0  0  0  0  0  0  0  0  0
   -0.3735    1.0308    1.0898 C   0  0  0  0  0  0  0  0  0  0  0  0
   -0.6161    0.7571    2.1197 H   0  0  0  0  0  0  0  0  0  0  0  0
    0.6443    1.4268    1.0947 H   0  0  0  0  0  0  0  0  0  0  0  0
   -1.3071    2.1384    0.6495 C   0  0  0  0  0  0  0  0  0  0  0  0
   -1.1071    2.9657   -0.4386 N   0  3  0  0  0  0  0  0  0  0  0  0
   -0.3267    2.8597   -1.0931 H   0  0  0  0  0  0  0  0  0  0  0  0
   -2.1422    3.8255   -0.5155 C   0  0  0  0  0  0  0  0  0  0  0  0
   -2.2696    4.5906   -1.2787 H   0  0  0  0  0  0  0  0  0  0  0  0
   -2.9944    3.5623    0.5008 N   0  0  0  0  0  0  0  0  0  0  0  0
   -3.8650    4.0513    0.6916 H   0  0  0  0  0  0  0  0  0  0  0  0
   -2.4848    2.5055    1.2425 C   0  0  0  0  0  0  0  0  0  0  0  0
   -2.9275    2.0499    2.1239 H   0  0  0  0  0  0  0  0  0  0  0  0
    0.6915   -1.2735    0.5293 C   0  0  0  0  0  0  0  0  0  0  0  0
    1.8797   -0.9523    0.4769 O   0  0  0  0  0  0  0  0  0  0  0  0
    0.2841   -2.5106    0.8387 N   0  0  0  0  0  0  0  0  0  0  0  0
   -0.7099   -2.6792    0.8682 H   0  0  0  0  0  0  0  0  0  0  0  0
    1.1673   -3.6426    1.1355 C   0  0  0  0  0  0  0  0  0  0  0  0
    1.2243   -3.8009    2.2143 H   0  0  0  0  0  0  0  0  0  0  0  0
    0.7782   -4.5503    0.6710 H   0  0  0  0  0  0  0  0  0  0  0  0
    2.1742   -3.4613    0.7537 H   0  0  0  0  0  0  0  0  0  0  0  0
  5  6  2  0  0  0  0
  5  7  1  0  0  0  0
  2  3  1  0  0  0  0
  2  4  1  0  0  0  0
  2  5  1  0  0  0  0
  1  2  1  0  0  0  0
 23 24  2  0  0  0  0
 23 25  1  0  0  0  0
 21 22  1  0  0  0  0
 19 20  1  0  0  0  0
 19 21  1  0  0  0  0
 17 18  1  0  0  0  0
 17 19  1  0  0  0  0
 15 16  1  0  0  0  0
 15 17  2  0  0  0  0
 14 15  1  0  0  0  0
 14 21  2  0  0  0  0
 11 12  1  0  0  0  0
 11 13  1  0  0  0  0
 11 14  1  0  0  0  0
  9 10  1  0  0  0  0
  9 11  1  0  0  0  0
  9 23  1  0  0  0  0
  7  8  1  0  0  0  0
  7  9  1  0  0  0  0
 27 28  1  0  0  0  0
 27 29  1  0  0  0  0
 27 30  1  0  0  0  0
 25 26  1  0  0  0  0
 25 27  1  0  0  0  0
M  CHG  1  15   1
M  END
$$$$
default_name
  -OEChem-01062215323D

 30 30  0     1  0  0  0  0  0999 V2000
   -3.5507   -3.2183    1.8116 H   0  0  0  0  0  0  0  0  0  0  0  0
   -3.4597   -2.3913    1.1076 C   0  0  0  0  0  0  0  0  0  0  0  0
   -4.1577   -1.6043    1.3866 H   0  0  0  0  0  0  0  0  0  0  0  0
   -3.6807   -2.7523    0.1036 H   0  0  0  0  0  0  0  0  0  0  0  0
   -2.0477   -1.8543    1.1546 C   0  0  0  0  0  0  0  0  0  0  0  0
   -1.2227   -2.3443    1.9146 O   0  0  0  0  0  0  0  0  0  0  0  0
   -1.7517   -0.8483    0.3266 N   0  0  0  0  0  0  0  0  0  0  0  0
   -2.4847   -0.5123   -0.2804 H   0  0  0  0  0  0  0  0  0  0  0  0
   -0.4117   -0.2463    0.2186 C   0  0  1  0  0  0  0  0  0  0  0  0
   -0.2612    0.0656   -0.8179 H   0  0  0  0  0  0  0  0  0  0  0  0
   -0.3735    1.0308    1.0898 C   0  0  0  0  0  0  0  0  0  0  0  0
   -0.6161    0.7571    2.1197 H   0  0  0  0  0  0  0  0  0  0  0  0
    0.6443    1.4268    1.0947 H   0  0  0  0  0  0  0  0  0  0  0  0
   -1.3071    2.1384    0.6495 C   0  0  0  0  0  0  0  0  0  0  0  0
   -1.1071    2.9657   -0.4386 N   0  3  0  0  0  0  0  0  0  0  0  0
   -0.3267    2.8597   -1.0931 H   0  0  0  0  0  0  0  0  0  0  0  0
   -2.1422    3.8255   -0.5155 C   0  0  0  0  0  0  0  0  0  0  0  0
   -2.2696    4.5906   -1.2787 H   0  0  0  0  0  0  0  0  0  0  0  0
   -2.9944    3.5623    0.5008 N   0  0  0  0  0  0  0  0  0  0  0  0
   -3.8650    4.0513    0.6916 H   0  0  0  0  0  0  0  0  0  0  0  0
   -2.4848    2.5055    1.2425 C   0  0  0  0  0  0  0  0  0  0  0  0
   -2.9275    2.0499    2.1239 H   0  0  0  0  0  0  0  0  0  0  0  0
    0.6915   -1.2735    0.5293 C   0  0  0  0  0  0  0  0  0  0  0  0
    1.8468   -0.9057    0.7478 O   0  0  0  0  0  0  0  0  0  0  0  0
    0.3238   -2.5607    0.5324 N   0  0  0  0  0  0  0  0  0  0  0  0
   -0.6472   -2.7675    0.3538 H   0  0  0  0  0  0  0  0  0  0  0  0
    1.2201   -3.6959    0.7716 C   0  0  0  0  0  0  0  0  0  0  0  0
    1.1060   -4.0543    1.7966 H   0  0  0  0  0  0  0  0  0  0  0  0
    0.9776   -4.5122    0.0890 H   0  0  0  0  0  0  0  0  0  0  0  0
    2.2620   -3.4093    0.6140 H   0  0  0  0  0  0  0  0  0  0  0  0
  5  6  2  0  0  0  0
  5  7  1  0  0  0  0
  2  3  1  0  0  0  0
  2  4  1  0  0  0  0
  2  5  1  0  0  0  0
  1  2  1  0  0  0  0
 23 24  2  0  0  0  0
 23 25  1  0  0  0  0
 21 22  1  0  0  0  0
 19 20  1  0  0  0  0
 19 21  1  0  0  0  0
 17 18  1  0  0  0  0
 17 19  1  0  0  0  0
 15 16  1  0  0  0  0
 15 17  2  0  0  0  0
 14 15  1  0  0  0  0
 14 21  2  0  0  0  0
 11 12  1  0  0  0  0
 11 13  1  0  0  0  0
 11 14  1  0  0  0  0
  9 10  1  0  0  0  0
  9 11  1  0  0  0  0
  9 23  1  0  0  0  0
  7  8  1  0  0  0  0
  7  9  1  0  0  0  0
 27 28  1  0  0  0  0
 27 29  1  0  0  0  0
 27 30  1  0  0  0  0
 25 26  1  0  0  0  0
 25 27  1  0  0  0  0
M  CHG  1  15   1
M  END
$$$$
default_name
  -OEChem-01062215323D

 30 30  0     1  0  0  0  0  0999 V2000
   -3.5507   -3.2183    1.8116 H   0  0  0  0  0  0  0  0  0  0  0  0
   -3.4597   -2.3913    1.1076 C   0  0  0  0  0  0  0  0  0  0  0  0
   -4.1577   -1.6043    1.3866 H   0  0  0  0  0  0  0  0  0  0  0  0
   -3.6807   -2.7523    0.1036 H   0  0  0  0  0  0  0  0  0  0  0  0
   -2.0477   -1.8543    1.1546 C   0  0  0  0  0  0  0  0  0  0  0  0
   -1.2227   -2.3443    1.9146 O   0  0  0  0  0  0  0  0  0  0  0  0
   -1.7517   -0.8483    0.3266 N   0  0  0  0  0  0  0  0  0  0  0  0
   -2.4847   -0.5123   -0.2804 H   0  0  0  0  0  0  0  0  0  0  0  0
   -0.4117   -0.2463    0.2186 C   0  0  1  0  0  0  0  0  0  0  0  0
   -0.2612    0.0656   -0.8179 H   0  0  0  0  0  0  0  0  0  0  0  0
   -0.3735    1.0308    1.0898 C   0  0  0  0  0  0  0  0  0  0  0  0
   -0.6161    0.7571    2.1197 H   0  0  0  0  0  0  0  0  0  0  0  0
    0.6443    1.4268    1.0947 H   0  0  0  0  0  0  0  0  0  0  0  0
   -1.3071    2.1384    0.6495 C   0  0  0  0  0  0  0  0  0  0  0  0
   -1.1071    2.9657   -0.4386 N   0  3  0  0  0  0  0  0  0  0  0  0
   -0.3267    2.8597   -1.0931 H   0  0  0  0  0  0  0  0  0  0  0  0
   -2.1422    3.8255   -0.5155 C   0  0  0  0  0  0  0  0  0  0  0  0
   -2.2696    4.5906   -1.2787 H   0  0  0  0  0  0  0  0  0  0  0  0
   -2.9944    3.5623    0.5008 N   0  0  0  0  0  0  0  0  0  0  0  0
   -3.8650    4.0513    0.6916 H   0  0  0  0  0  0  0  0  0  0  0  0
   -2.4848    2.5055    1.2425 C   0  0  0  0  0  0  0  0  0  0  0  0
   -2.9275    2.0499    2.1239 H   0  0  0  0  0  0  0  0  0  0  0  0
    0.6915   -1.2735    0.5293 C   0  0  0  0  0  0  0  0  0  0  0  0
    1.7658   -0.9126    1.0125 O   0  0  0  0  0  0  0  0  0  0  0  0
    0.4176   -2.5502    0.2341 N   0  0  0  0  0  0  0  0  0  0  0  0
   -0.4931   -2.7540   -0.1486 H   0  0  0  0  0  0  0  0  0  0  0  0
    1.3367   -3.6772    0.4193 C   0  0  0  0  0  0  0  0  0  0  0  0
    1.0770   -4.2278    1.3257 H   0  0  0  0  0  0  0  0  0  0  0  0
    1.2687   -4.3570   -0.4318 H   0  0  0  0  0  0  0  0  0  0  0  0
    2.3682   -3.3286    0.5038 H   0  0  0  0  0  0  0  0  0  0  0  0
  5  6  2  0  0  0  0
  5  7  1  0  0  0  0
  2  3  1  0  0  0  0
  2  4  1  0  0  0  0
  2  5  1  0  0  0  0
  1  2  1  0  0  0  0
 23 24  2  0  0  0  0
 23 25  1  0  0  0  0
 21 22  1  0  0  0  0
 19 20  1  0  0  0  0
 19 21  1  0  0  0  0
 17 18  1  0  0  0  0
 17 19  1  0  0  0  0
 15 16  1  0  0  0  0
 15 17  2  0  0  0  0
 14 15  1  0  0  0  0
 14 21  2  0  0  0  0
 11 12  1  0  0  0  0
 11 13  1  0  0  0  0
 11 14  1  0  0  0  0
  9 10  1  0  0  0  0
  9 11  1  0  0  0  0
  9 23  1  0  0  0  0
  7  8  1  0  0  0  0
  7  9  1  0  0  0  0
 27 28  1  0  0  0  0
 27 29  1  0  0  0  0
 27 30  1  0  0  0  0
 25 26  1  0  0  0  0
 25 27  1  0  0  0  0
M  CHG  1  15   1
M  END
$$$$
default_name
  -OEChem-01062215323D

 30 30  0     1  0  0  0  0  0999 V2000
   -3.5507   -3.2183    1.8116 H   0  0  0  0  0  0  0  0  0  0  0  0
   -3.4597   -2.3913    1.1076 C   0  0  0  0  0  0  0  0  0  0  0  0
   -4.1577   -1.6043    1.3866 H   0  0  0  0  0  0  0  0  0  0  0  0
   -3.6807   -2.7523    0.1036 H   0  0  0  0  0  0  0  0  0  0  0  0
   -2.0477   -1.8543    1.1546 C   0  0  0  0  0  0  0  0  0  0  0  0
   -1.2227   -2.3443    1.9146 O   0  0  0  0  0  0  0  0  0  0  0  0
   -1.7517   -0.8483    0.3266 N   0  0  0  0  0  0  0  0  0  0  0  0
   -2.4847   -0.5123   -0.2804 H   0  0  0  0  0  0  0  0  0  0  0  0
   -0.4117   -0.2463    0.2186 C   0  0  1  0  0  0  0  0  0  0  0  0
   -0.2612    0.0656   -0.8179 H   0  0  0  0  0  0  0  0  0  0  0  0
   -0.3735    1.0308    1.0898 C   0  0  0  0  0  0  0  0  0  0  0  0
   -0.6161    0.7571    2.1197 H   0  0  0  0  0  0  0  0  0  0  0  0
    0.6443    1.4268    1.0947 H   0  0  0  0  0  0  0  0  0  0  0  0
   -1.3071    2.1384    0.6495 C   0  0  0  0  0  0  0  0  0  0  0  0
   -1.1071    2.9657   -0.4386 N   0  3  0  0  0  0  0  0  0  0  0  0
   -0.3267    2.8597   -1.0931 H   0  0  0  0  0  0  0  0  0  0  0  0
   -2.1422    3.8255   -0.5155 C   0  0  0  0  0  0  0  0  0  0  0  0
   -2.2696    4.5906   -1.2787 H   0  0  0  0  0  0  0  0  0  0  0  0
   -2.9944    3.5623    0.5008 N   0  0  0  0  0  0  0  0  0  0  0  0
   -3.8650    4.0513    0.6916 H   0  0  0  0  0  0  0  0  0  0  0  0
   -2.4848    2.5055    1.2425 C   0  0  0  0  0  0  0  0  0  0  0  0
   -2.9275    2.0499    2.1239 H   0  0  0  0  0  0  0  0  0  0  0  0
    0.6915   -1.2735    0.5293 C   0  0  0  0  0  0  0  0  0  0  0  0
    1.6422   -0.9727    1.2529 O   0  0  0  0  0  0  0  0  0  0  0  0
    0.5591   -2.4798   -0.0359 N   0  0  0  0  0  0  0  0  0  0  0  0
   -0.2582   -2.6397   -0.6048 H   0  0  0  0  0  0  0  0  0  0  0  0
    1.5093   -3.5877    0.1027 C   0  0  0  0  0  0  0  0  0  0  0  0
    1.1395   -4.3095    0.8337 H   0  0  0  0  0  0  0  0  0  0  0  0
    1.6318   -4.0953   -0.8557 H   0  0  0  0  0  0  0  0  0  0  0  0
    2.4855   -3.2247    0.4308 H   0  0  0  0  0  0  0  0  0  0  0  0
  5  6  2  0  0  0  0
  5  7  1  0  0  0  0
  2  3  1  0  0  0  0
  2  4  1  0  0  0  0
  2  5  1  0  0  0  0
  1  2  1  0  0  0  0
 23 24  2  0  0  0  0
 23 25  1  0  0  0  0
 21 22  1  0  0  0  0
 19 20  1  0  0  0  0
 19 21  1  0  0  0  0
 17 18  1  0  0  0  0
 17 19  1  0  0  0  0
 15 16  1  0  0  0  0
 15 17  2  0  0  0  0
 14 15  1  0  0  0  0
 14 21  2  0  0  0  0
 11 12  1  0  0  0  0
 11 13  1  0  0  0  0
 11 14  1  0  0  0  0
  9 10  1  0  0  0  0
  9 11  1  0  0  0  0
  9 23  1  0  0  0  0
  7  8  1  0  0  0  0
  7  9  1  0  0  0  0
 27 28  1  0  0  0  0
 27 29  1  0  0  0  0
 27 30  1  0  0  0  0
 25 26  1  0  0  0  0
 25 27  1  0  0  0  0
M  CHG  1  15   1
M  END
$$$$
default_name
  -OEChem-01062215323D

 30 30  0     1  0  0  0  0  0999 V2000
   -3.5507   -3.2183    1.8116 H   0  0  0  0  0  0  0  0  0  0  0  0
   -3.4597   -2.3913    1.1076 C   0  0  0  0  0  0  0  0  0  0  0  0
   -4.1577   -1.6043    1.3866 H   0  0  0  0  0  0  0  0  0  0  0  0
   -3.6807   -2.7523    0.1036 H   0  0  0  0  0  0  0  0  0  0  0  0
   -2.0477   -1.8543    1.1546 C   0  0  0  0  0  0  0  0  0  0  0  0
   -1.2227   -2.3443    1.9146 O   0  0  0  0  0  0  0  0  0  0  0  0
   -1.7517   -0.8483    0.3266 N   0  0  0  0  0  0  0  0  0  0  0  0
   -2.4847   -0.5123   -0.2804 H   0  0  0  0  0  0  0  0  0  0  0  0
   -0.4117   -0.2463    0.2186 C   0  0  1  0  0  0  0  0  0  0  0  0
   -0.2612    0.0656   -0.8179 H   0  0  0  0  0  0  0  0  0  0  0  0
   -0.3735    1.0308    1.0898 C   0  0  0  0  0  0  0  0  0  0  0  0
   -0.6161    0.7571    2.1197 H   0  0  0  0  0  0  0  0  0  0  0  0
    0.6443    1.4268    1.0947 H   0  0  0  0  0  0  0  0  0  0  0  0
   -1.3071    2.1384    0.6495 C   0  0  0  0  0  0  0  0  0  0  0  0
   -1.1071    2.9657   -0.4386 N   0  3  0  0  0  0  0  0  0  0  0  0
   -0.3267    2.8597   -1.0931 H   0  0  0  0  0  0  0  0  0  0  0  0
   -2.1422    3.8255   -0.5155 C   0  0  0  0  0  0  0  0  0  0  0  0
   -2.2696    4.5906   -1.2787 H   0  0  0  0  0  0  0  0  0  0  0  0
   -2.9944    3.5623    0.5008 N   0  0  0  0  0  0  0  0  0  0  0  0
   -3.8650    4.0513    0.6916 H   0  0  0  0  0  0  0  0  0  0  0  0
   -2.4848    2.5055    1.2425 C   0  0  0  0  0  0  0  0  0  0  0  0
   -2.9275    2.0499    2.1239 H   0  0  0  0  0  0  0  0  0  0  0  0
    0.6915   -1.2735    0.5293 C   0  0  0  0  0  0  0  0  0  0  0  0
    1.4844   -1.0818    1.4526 O   0  0  0  0  0  0  0  0  0  0  0  0
    0.7389   -2.3543   -0.2592 N   0  0  0  0  0  0  0  0  0  0  0  0
    0.0415   -2.4324   -0.9837 H   0  0  0  0  0  0  0  0  0  0  0  0
    1.7259   -3.4335   -0.1568 C   0  0  0  0  0  0  0  0  0  0  0  0
    1.2891   -4.2939    0.3541 H   0  0  0  0  0  0  0  0  0  0  0  0
    2.0421   -3.7449   -1.1539 H   0  0  0  0  0  0  0  0  0  0  0  0
    2.6061   -3.1046    0.3997 H   0  0  0  0  0  0  0  0  0  0  0  0
  5  6  2  0  0  0  0
  5  7  1  0  0  0  0
  2  3  1  0  0  0  0
  2  4  1  0  0  0  0
  2  5  1  0  0  0  0
  1  2  1  0  0  0  0
 23 24  2  0  0  0  0
 23 25  1  0  0  0  0
 21 22  1  0  0  0  0
 19 20  1  0  0  0  0
 19 21  1  0  0  0  0
 17 18  1  0  0  0  0
 17 19  1  0  0  0  0
 15 16  1  0  0  0  0
 15 17  2  0  0  0  0
 14 15  1  0  0  0  0
 14 21  2  0  0  0  0
 11 12  1  0  0  0  0
 11 13  1  0  0  0  0
 11 14  1  0  0  0  0
  9 10  1  0  0  0  0
  9 11  1  0  0  0  0
  9 23  1  0  0  0  0
  7  8  1  0  0  0  0
  7  9  1  0  0  0  0
 27 28  1  0  0  0  0
 27 29  1  0  0  0  0
 27 30  1  0  0  0  0
 25 26  1  0  0  0  0
 25 27  1  0  0  0  0
M  CHG  1  15   1
M  END
$$$$
default_name
  -OEChem-01062215323D

 30 30  0     1  0  0  0  0  0999 V2000
   -3.5507   -3.2183    1.8116 H   0  0  0  0  0  0  0  0  0  0  0  0
   -3.4597   -2.3913    1.1076 C   0  0  0  0  0  0  0  0  0  0  0  0
   -4.1577   -1.6043    1.3866 H   0  0  0  0  0  0  0  0  0  0  0  0
   -3.6807   -2.7523    0.1036 H   0  0  0  0  0  0  0  0  0  0  0  0
   -2.0477   -1.8543    1.1546 C   0  0  0  0  0  0  0  0  0  0  0  0
   -1.2227   -2.3443    1.9146 O   0  0  0  0  0  0  0  0  0  0  0  0
   -1.7517   -0.8483    0.3266 N   0  0  0  0  0  0  0  0  0  0  0  0
   -2.4847   -0.5123   -0.2804 H   0  0  0  0  0  0  0  0  0  0  0  0
   -0.4117   -0.2463    0.2186 C   0  0  1  0  0  0  0  0  0  0  0  0
   -0.2612    0.0656   -0.8179 H   0  0  0  0  0  0  0  0  0  0  0  0
   -0.3735    1.0308    1.0898 C   0  0  0  0  0  0  0  0  0  0  0  0
   -0.6161    0.7571    2.1197 H   0  0  0  0  0  0  0  0  0  0  0  0
    0.6443    1.4268    1.0947 H   0  0  0  0  0  0  0  0  0  0  0  0
   -1.3071    2.1384    0.6495 C   0  0  0  0  0  0  0  0  0  0  0  0
   -1.1071    2.9657   -0.4386 N   0  3  0  0  0  0  0  0  0  0  0  0
   -0.3267    2.8597   -1.0931 H   0  0  0  0  0  0  0  0  0  0  0  0
   -2.1422    3.8255   -0.5155 C   0  0  0  0  0  0  0  0  0  0  0  0
   -2.2696    4.5906   -1.2787 H   0  0  0  0  0  0  0  0  0  0  0  0
   -2.9944    3.5623    0.5008 N   0  0  0  0  0  0  0  0  0  0  0  0
   -3.8650    4.0513    0.6916 H   0  0  0  0  0  0  0  0  0  0  0  0
   -2.4848    2.5055    1.2425 C   0  0  0  0  0  0  0  0  0  0  0  0
   -2.9275    2.0499    2.1239 H   0  0  0  0  0  0  0  0  0  0  0  0
    0.6915   -1.2735    0.5293 C   0  0  0  0  0  0  0  0  0  0  0  0
    1.3031   -1.2324    1.5980 O   0  0  0  0  0  0  0  0  0  0  0  0
    0.9445   -2.1823   -0.4205 N   0  0  0  0  0  0  0  0  0  0  0  0
    0.3856   -2.1463   -1.2594 H   0  0  0  0  0  0  0  0  0  0  0  0
    1.9720   -3.2250   -0.3414 C   0  0  0  0  0  0  0  0  0  0  0  0
    1.5157   -4.1820   -0.0805 H   0  0  0  0  0  0  0  0  0  0  0  0
    2.4716   -3.3297   -1.3060 H   0  0  0  0  0  0  0  0  0  0  0  0
    2.7216   -2.9765    0.4129 H   0  0  0  0  0  0  0  0  0  0  0  0
  5  6  2  0  0  0  0
  5  7  1  0  0  0  0
  2  3  1  0  0  0  0
  2  4  1  0  0  0  0
  2  5  1  0  0  0  0
  1  2  1  0  0  0  0
 23 24  2  0  0  0  0
 23 25  1  0  0  0  0
 21 22  1  0  0  0  0
 19 20  1  0  0  0  0
 19 21  1  0  0  0  0
 17 18  1  0  0  0  0
 17 19  1  0  0  0  0
 15 16  1  0  0  0  0
 15 17  2  0  0  0  0
 14 15  1  0  0  0  0
 14 21  2  0  0  0  0
 11 12  1  0  0  0  0
 11 13  1  0  0  0  0
 11 14  1  0  0  0  0
  9 10  1  0  0  0  0
  9 11  1  0  0  0  0
  9 23  1  0  0  0  0
  7  8  1  0  0  0  0
  7  9  1  0  0  0  0
 27 28  1  0  0  0  0
 27 29  1  0  0  0  0
 27 30  1  0  0  0  0
 25 26  1  0  0  0  0
 25 27  1  0  0  0  0
M  CHG  1  15   1
M  END
$$$$
default_name
  -OEChem-01062215323D

 30 30  0     1  0  0  0  0  0999 V2000
   -3.5507   -3.2183    1.8116 H   0  0  0  0  0  0  0  0  0  0  0  0
   -3.4597   -2.3913    1.1076 C   0  0  0  0  0  0  0  0  0  0  0  0
   -4.1577   -1.6043    1.3866 H   0  0  0  0  0  0  0  0  0  0  0  0
   -3.6807   -2.7523    0.1036 H   0  0  0  0  0  0  0  0  0  0  0  0
   -2.0477   -1.8543    1.1546 C   0  0  0  0  0  0  0  0  0  0  0  0
   -1.2227   -2.3443    1.9146 O   0  0  0  0  0  0  0  0  0  0  0  0
   -1.7517   -0.8483    0.3266 N   0  0  0  0  0  0  0  0  0  0  0  0
   -2.4847   -0.5123   -0.2804 H   0  0  0  0  0  0  0  0  0  0  0  0
   -0.4117   -0.2463    0.2186 C   0  0  1  0  0  0  0  0  0  0  0  0
   -0.2612    0.0656   -0.8179 H   0  0  0  0  0  0  0  0  0  0  0  0
   -0.3735    1.0308    1.0898 C   0  0  0  0  0  0  0  0  0  0  0  0
   -0.6161    0.7571    2.1197 H   0  0  0  0  0  0  0  0  0  0  0  0
    0.6443    1.4268    1.0947 H   0  0  0  0  0  0  0  0  0  0  0  0
   -1.3071    2.1384    0.6495 C   0  0  0  0  0  0  0  0  0  0  0  0
   -1.1071    2.9657   -0.4386 N   0  3  0  0  0  0  0  0  0  0  0  0
   -0.3267    2.8597   -1.0931 H   0  0  0  0  0  0  0  0  0  0  0  0
   -2.1422    3.8255   -0.5155 C   0  0  0  0  0  0  0  0  0  0  0  0
   -2.2696    4.5906   -1.2787 H   0  0  0  0  0  0  0  0  0  0  0  0
   -2.9944    3.5623    0.5008 N   0  0  0  0  0  0  0  0  0  0  0  0
   -3.8650    4.0513    0.6916 H   0  0  0  0  0  0  0  0  0  0  0  0
   -2.4848    2.5055    1.2425 C   0  0  0  0  0  0  0  0  0  0  0  0
   -2.9275    2.0499    2.1239 H   0  0  0  0  0  0  0  0  0  0  0  0
    0.6915   -1.2735    0.5293 C   0  0  0  0  0  0  0  0  0  0  0  0
    1.1108   -1.4143    1.6791 O   0  0  0  0  0  0  0  0  0  0  0  0
    1.1620   -1.9754   -0.5090 N   0  0  0  0  0  0  0  0  0  0  0  0
    0.7507   -1.8007   -1.4132 H   0  0  0  0  0  0  0  0  0  0  0  0
    2.2307   -2.9766   -0.4385 C   0  0  0  0  0  0  0  0  0  0  0  0
    1.8037   -3.9815   -0.4403 H   0  0  0  0  0  0  0  0  0  0  0  0
    2.8911   -2.8779   -1.3017 H   0  0  0  0  0  0  0  0  0  0  0  0
    2.8243   -2.8492    0.4693 H   0  0  0  0  0  0  0  0  0  0  0  0
  5  6  2  0  0  0  0
  5  7  1  0  0  0  0
  2  3  1  0  0  0  0
  2  4  1  0  0  0  0
  2  5  1  0  0  0  0
  1  2  1  0  0  0  0
 23 24  2  0  0  0  0
 23 25  1  0  0  0  0
 21 22  1  0  0  0  0
 19 20  1  0  0  0  0
 19 21  1  0  0  0  0
 17 18  1  0  0  0  0
 17 19  1  0  0  0  0
 15 16  1  0  0  0  0
 15 17  2  0  0  0  0
 14 15  1  0  0  0  0
 14 21  2  0  0  0  0
 11 12  1  0  0  0  0
 11 13  1  0  0  0  0
 11 14  1  0  0  0  0
  9 10  1  0  0  0  0
  9 11  1  0  0  0  0
  9 23  1  0  0  0  0
  7  8  1  0  0  0  0
  7  9  1  0  0  0  0
 27 28  1  0  0  0  0
 27 29  1  0  0  0  0
 27 30  1  0  0  0  0
 25 26  1  0  0  0  0
 25 27  1  0  0  0  0
M  CHG  1  15   1
M  END
$$$$
default_name
  -OEChem-01062215323D

 30 30  0     1  0  0  0  0  0999 V2000
   -3.5507   -3.2183    1.8116 H   0  0  0  0  0  0  0  0  0  0  0  0
   -3.4597   -2.3913    1.1076 C   0  0  0  0  0  0  0  0  0  0  0  0
   -4.1577   -1.6043    1.3866 H   0  0  0  0  0  0  0  0  0  0  0  0
   -3.6807   -2.7523    0.1036 H   0  0  0  0  0  0  0  0  0  0  0  0
   -2.0477   -1.8543    1.1546 C   0  0  0  0  0  0  0  0  0  0  0  0
   -1.2227   -2.3443    1.9146 O   0  0  0  0  0  0  0  0  0  0  0  0
   -1.7517   -0.8483    0.3266 N   0  0  0  0  0  0  0  0  0  0  0  0
   -2.4847   -0.5123   -0.2804 H   0  0  0  0  0  0  0  0  0  0  0  0
   -0.4117   -0.2463    0.2186 C   0  0  1  0  0  0  0  0  0  0  0  0
   -0.2612    0.0656   -0.8179 H   0  0  0  0  0  0  0  0  0  0  0  0
   -0.3735    1.0308    1.0898 C   0  0  0  0  0  0  0  0  0  0  0  0
   -0.6161    0.7571    2.1197 H   0  0  0  0  0  0  0  0  0  0  0  0
    0.6443    1.4268    1.0947 H   0  0  0  0  0  0  0  0  0  0  0  0
   -1.3071    2.1384    0.6495 C   0  0  0  0  0  0  0  0  0  0  0  0
   -1.1071    2.9657   -0.4386 N   0  3  0  0  0  0  0  0  0  0  0  0
   -0.3267    2.8597   -1.0931 H   0  0  0  0  0  0  0  0  0  0  0  0
   -2.1422    3.8255   -0.5155 C   0  0  0  0  0  0  0  0  0  0  0  0
   -2.2696    4.5906   -1.2787 H   0  0  0  0  0  0  0  0  0  0  0  0
   -2.9944    3.5623    0.5008 N   0  0  0  0  0  0  0  0  0  0  0  0
   -3.8650    4.0513    0.6916 H   0  0  0  0  0  0  0  0  0  0  0  0
   -2.4848    2.5055    1.2425 C   0  0  0  0  0  0  0  0  0  0  0  0
   -2.9275    2.0499    2.1239 H   0  0  0  0  0  0  0  0  0  0  0  0
    0.6915   -1.2735    0.5293 C   0  0  0  0  0  0  0  0  0  0  0  0
    0.9206   -1.6152    1.6906 O   0  0  0  0  0  0  0  0  0  0  0  0
    1.3766   -1.7479   -0.5184 N   0  0  0  0  0  0  0  0  0  0  0  0
    1.1118   -1.4194   -1.4346 H   0  0  0  0  0  0  0  0  0  0  0  0
    2.4843   -2.7051   -0.4415 C   0  0  0  0  0  0  0  0  0  0  0  0
    2.1336   -3.7060   -0.7010 H   0  0  0  0  0  0  0  0  0  0  0  0
    3.2719   -2.4205   -1.1414 H   0  0  0  0  0  0  0  0  0  0  0  0
    2.9070   -2.7314    0.5651 H   0  0  0  0  0  0  0  0  0  0  0  0
  5  6  2  0  0  0  0
  5  7  1  0  0  0  0
  2  3  1  0  0  0  0
  2  4  1  0  0  0  0
  2  5  1  0  0  0  0
  1  2  1  0  0  0  0
 23 24  2  0  0  0  0
 23 25  1  0  0  0  0
 21 22  1  0  0  0  0
 19 20  1  0  0  0  0
 19 21  1  0  0  0  0
 17 18  1  0  0  0  0
 17 19  1  0  0  0  0
 15 16  1  0  0  0  0
 15 17  2  0  0  0  0
 14 15  1  0  0  0  0
 14 21  2  0  0  0  0
 11 12  1  0  0  0  0
 11 13  1  0  0  0  0
 11 14  1  0  0  0  0
  9 10  1  0  0  0  0
  9 11  1  0  0  0  0
  9 23  1  0  0  0  0
  7  8  1  0  0  0  0
  7  9  1  0  0  0  0
 27 28  1  0  0  0  0
 27 29  1  0  0  0  0
 27 30  1  0  0  0  0
 25 26  1  0  0  0  0
 25 27  1  0  0  0  0
M  CHG  1  15   1
M  END
$$$$
default_name
  -OEChem-01062215323D

 30 30  0     1  0  0  0  0  0999 V2000
   -3.5507   -3.2183    1.8116 H   0  0  0  0  0  0  0  0  0  0  0  0
   -3.4597   -2.3913    1.1076 C   0  0  0  0  0  0  0  0  0  0  0  0
   -4.1577   -1.6043    1.3866 H   0  0  0  0  0  0  0  0  0  0  0  0
   -3.6807   -2.7523    0.1036 H   0  0  0  0  0  0  0  0  0  0  0  0
   -2.0477   -1.8543    1.1546 C   0  0  0  0  0  0  0  0  0  0  0  0
   -1.2227   -2.3443    1.9146 O   0  0  0  0  0  0  0  0  0  0  0  0
   -1.7517   -0.8483    0.3266 N   0  0  0  0  0  0  0  0  0  0  0  0
   -2.4847   -0.5123   -0.2804 H   0  0  0  0  0  0  0  0  0  0  0  0
   -0.4117   -0.2463    0.2186 C   0  0  1  0  0  0  0  0  0  0  0  0
   -0.2612    0.0656   -0.8179 H   0  0  0  0  0  0  0  0  0  0  0  0
   -0.3735    1.0308    1.0898 C   0  0  0  0  0  0  0  0  0  0  0  0
   -0.6161    0.7571    2.1197 H   0  0  0  0  0  0  0  0  0  0  0  0
    0.6443    1.4268    1.0947 H   0  0  0  0  0  0  0  0  0  0  0  0
   -1.3071    2.1384    0.6495 C   0  0  0  0  0  0  0  0  0  0  0  0
   -1.1071    2.9657   -0.4386 N   0  3  0  0  0  0  0  0  0  0  0  0
   -0.3267    2.8597   -1.0931 H   0  0  0  0  0  0  0  0  0  0  0  0
   -2.1422    3.8255   -0.5155 C   0  0  0  0  0  0  0  0  0  0  0  0
   -2.2696    4.5906   -1.2787 H   0  0  0  0  0  0  0  0  0  0  0  0
   -2.9944    3.5623    0.5008 N   0  0  0  0  0  0  0  0  0  0  0  0
   -3.8650    4.0513    0.6916 H   0  0  0  0  0  0  0  0  0  0  0  0
   -2.4848    2.5055    1.2425 C   0  0  0  0  0  0  0  0  0  0  0  0
   -2.9275    2.0499    2.1239 H   0  0  0  0  0  0  0  0  0  0  0  0
    0.6915   -1.2735    0.5293 C   0  0  0  0  0  0  0  0  0  0  0  0
    0.7453   -1.8213    1.6315 O   0  0  0  0  0  0  0  0  0  0  0  0
    1.5736   -1.5151   -0.4483 N   0  0  0  0  0  0  0  0  0  0  0  0
    1.4444   -1.0282   -1.3221 H   0  0  0  0  0  0  0  0  0  0  0  0
    2.7157   -2.4291   -0.3502 C   0  0  0  0  0  0  0  0  0  0  0  0
    2.4829   -3.3743   -0.8446 H   0  0  0  0  0  0  0  0  0  0  0  0
    3.5881   -1.9884   -0.8358 H   0  0  0  0  0  0  0  0  0  0  0  0
    2.9643   -2.6310    0.6938 H   0  0  0  0  0  0  0  0  0  0  0  0
  5  6  2  0  0  0  0
  5  7  1  0  0  0  0
  2  3  1  0  0  0  0
  2  4  1  0  0  0  0
  2  5  1  0  0  0  0
  1  2  1  0  0  0  0
 23 24  2  0  0  0  0
 23 25  1  0  0  0  0
 21 22  1  0  0  0  0
 19 20  1  0  0  0  0
 19 21  1  0  0  0  0
 17 18  1  0  0  0  0
 17 19  1  0  0  0  0
 15 16  1  0  0  0  0
 15 17  2  0  0  0  0
 14 15  1  0  0  0  0
 14 21  2  0  0  0  0
 11 12  1  0  0  0  0
 11 13  1  0  0  0  0
 11 14  1  0  0  0  0
  9 10  1  0  0  0  0
  9 11  1  0  0  0  0
  9 23  1  0  0  0  0
  7  8  1  0  0  0  0
  7  9  1  0  0  0  0
 27 28  1  0  0  0  0
 27 29  1  0  0  0  0
 27 30  1  0  0  0  0
 25 26  1  0  0  0  0
 25 27  1  0  0  0  0
M  CHG  1  15   1
M  END
$$$$
default_name
  -OEChem-01062215323D

 30 30  0     1  0  0  0  0  0999 V2000
   -3.5507   -3.2183    1.8116 H   0  0  0  0  0  0  0  0  0  0  0  0
   -3.4597   -2.3913    1.1076 C   0  0  0  0  0  0  0  0  0  0  0  0
   -4.1577   -1.6043    1.3866 H   0  0  0  0  0  0  0  0  0  0  0  0
   -3.6807   -2.7523    0.1036 H   0  0  0  0  0  0  0  0  0  0  0  0
   -2.0477   -1.8543    1.1546 C   0  0  0  0  0  0  0  0  0  0  0  0
   -1.2227   -2.3443    1.9146 O   0  0  0  0  0  0  0  0  0  0  0  0
   -1.7517   -0.8483    0.3266 N   0  0  0  0  0  0  0  0  0  0  0  0
   -2.4847   -0.5123   -0.2804 H   0  0  0  0  0  0  0  0  0  0  0  0
   -0.4117   -0.2463    0.2186 C   0  0  1  0  0  0  0  0  0  0  0  0
   -0.2612    0.0656   -0.8179 H   0  0  0  0  0  0  0  0  0  0  0  0
   -0.3735    1.0308    1.0898 C   0  0  0  0  0  0  0  0  0  0  0  0
   -0.6161    0.7571    2.1197 H   0  0  0  0  0  0  0  0  0  0  0  0
    0.6443    1.4268    1.0947 H   0  0  0  0  0  0  0  0  0  0  0  0
   -1.3071    2.1384    0.6495 C   0  0  0  0  0  0  0  0  0  0  0  0
   -1.1071    2.9657   -0.4386 N   0  3  0  0  0  0  0  0  0  0  0  0
   -0.3267    2.8597   -1.0931 H   0  0  0  0  0  0  0  0  0  0  0  0
   -2.1422    3.8255   -0.5155 C   0  0  0  0  0  0  0  0  0  0  0  0
   -2.2696    4.5906   -1.2787 H   0  0  0  0  0  0  0  0  0  0  0  0
   -2.9944    3.5623    0.5008 N   0  0  0  0  0  0  0  0  0  0  0  0
   -3.8650    4.0513    0.6916 H   0  0  0  0  0  0  0  0  0  0  0  0
   -2.4848    2.5055    1.2425 C   0  0  0  0  0  0  0  0  0  0  0  0
   -2.9275    2.0499    2.1239 H   0  0  0  0  0  0  0  0  0  0  0  0
    0.6915   -1.2735    0.5293 C   0  0  0  0  0  0  0  0  0  0  0  0
    0.5970   -2.0185    1.5060 O   0  0  0  0  0  0  0  0  0  0  0  0
    1.7396   -1.2930   -0.3033 N   0  0  0  0  0  0  0  0  0  0  0  0
    1.7258   -0.6538   -1.0834 H   0  0  0  0  0  0  0  0  0  0  0  0
    2.9090   -2.1673   -0.1709 C   0  0  0  0  0  0  0  0  0  0  0  0
    2.8278   -3.0091   -0.8615 H   0  0  0  0  0  0  0  0  0  0  0  0
    3.8182   -1.6113   -0.4058 H   0  0  0  0  0  0  0  0  0  0  0  0
    2.9921   -2.5549    0.8467 H   0  0  0  0  0  0  0  0  0  0  0  0
  5  6  2  0  0  0  0
  5  7  1  0  0  0  0
  2  3  1  0  0  0  0
  2  4  1  0  0  0  0
  2  5  1  0  0  0  0
  1  2  1  0  0  0  0
 23 24  2  0  0  0  0
 23 25  1  0  0  0  0
 21 22  1  0  0  0  0
 19 20  1  0  0  0  0
 19 21  1  0  0  0  0
 17 18  1  0  0  0  0
 17 19  1  0  0  0  0
 15 16  1  0  0  0  0
 15 17  2  0  0  0  0
 14 15  1  0  0  0  0
 14 21  2  0  0  0  0
 11 12  1  0  0  0  0
 11 13  1  0  0  0  0
 11 14  1  0  0  0  0
  9 10  1  0  0  0  0
  9 11  1  0  0  0  0
  9 23  1  0  0  0  0
  7  8  1  0  0  0  0
  7  9  1  0  0  0  0
 27 28  1  0  0  0  0
 27 29  1  0  0  0  0
 27 30  1  0  0  0  0
 25 26  1  0  0  0  0
 25 27  1  0  0  0  0
M  CHG  1  15   1
M  END
$$$$
default_name
  -OEChem-01062215323D

 30 30  0     1  0  0  0  0  0999 V2000
   -3.5507   -3.2183    1.8116 H   0  0  0  0  0  0  0  0  0  0  0  0
   -3.4597   -2.3913    1.1076 C   0  0  0  0  0  0  0  0  0  0  0  0
   -4.1577   -1.6043    1.3866 H   0  0  0  0  0  0  0  0  0  0  0  0
   -3.6807   -2.7523    0.1036 H   0  0  0  0  0  0  0  0  0  0  0  0
   -2.0477   -1.8543    1.1546 C   0  0  0  0  0  0  0  0  0  0  0  0
   -1.2227   -2.3443    1.9146 O   0  0  0  0  0  0  0  0  0  0  0  0
   -1.7517   -0.8483    0.3266 N   0  0  0  0  0  0  0  0  0  0  0  0
   -2.4847   -0.5123   -0.2804 H   0  0  0  0  0  0  0  0  0  0  0  0
   -0.4117   -0.2463    0.2186 C   0  0  1  0  0  0  0  0  0  0  0  0
   -0.2612    0.0656   -0.8179 H   0  0  0  0  0  0  0  0  0  0  0  0
   -0.3735    1.0308    1.0898 C   0  0  0  0  0  0  0  0  0  0  0  0
   -0.6161    0.7571    2.1197 H   0  0  0  0  0  0  0  0  0  0  0  0
    0.6443    1.4268    1.0947 H   0  0  0  0  0  0  0  0  0  0  0  0
   -1.3071    2.1384    0.6495 C   0  0  0  0  0  0  0  0  0  0  0  0
   -1.1071    2.9657   -0.4386 N   0  3  0  0  0  0  0  0  0  0  0  0
   -0.3267    2.8597   -1.0931 H   0  0  0  0  0  0  0  0  0  0  0  0
   -2.1422    3.8255   -0.5155 C   0  0  0  0  0  0  0  0  0  0  0  0
   -2.2696    4.5906   -1.2787 H   0  0  0  0  0  0  0  0  0  0  0  0
   -2.9944    3.5623    0.5008 N   0  0  0  0  0  0  0  0  0  0  0  0
   -3.8650    4.0513    0.6916 H   0  0  0  0  0  0  0  0  0  0  0  0
   -2.4848    2.5055    1.2425 C   0  0  0  0  0  0  0  0  0  0  0  0
   -2.9275    2.0499    2.1239 H   0  0  0  0  0  0  0  0  0  0  0  0
    0.6915   -1.2735    0.5293 C   0  0  0  0  0  0  0  0  0  0  0  0
    0.4858   -2.1935    1.3225 O   0  0  0  0  0  0  0  0  0  0  0  0
    1.8633   -1.0967   -0.0934 N   0  0  0  0  0  0  0  0  0  0  0  0
    1.9368   -0.3217   -0.7348 H   0  0  0  0  0  0  0  0  0  0  0  0
    3.0510   -1.9376    0.0843 C   0  0  0  0  0  0  0  0  0  0  0  0
    3.1448   -2.6351   -0.7505 H   0  0  0  0  0  0  0  0  0  0  0  0
    3.9465   -1.3147    0.1192 H   0  0  0  0  0  0  0  0  0  0  0  0
    2.9885   -2.5084    1.0132 H   0  0  0  0  0  0  0  0  0  0  0  0
  5  6  2  0  0  0  0
  5  7  1  0  0  0  0
  2  3  1  0  0  0  0
  2  4  1  0  0  0  0
  2  5  1  0  0  0  0
  1  2  1  0  0  0  0
 23 24  2  0  0  0  0
 23 25  1  0  0  0  0
 21 22  1  0  0  0  0
 19 20  1  0  0  0  0
 19 21  1  0  0  0  0
 17 18  1  0  0  0  0
 17 19  1  0  0  0  0
 15 16  1  0  0  0  0
 15 17  2  0  0  0  0
 14 15  1  0  0  0  0
 14 21  2  0  0  0  0
 11 12  1  0  0  0  0
 11 13  1  0  0  0  0
 11 14  1  0  0  0  0
  9 10  1  0  0  0  0
  9 11  1  0  0  0  0
  9 23  1  0  0  0  0
  7  8  1  0  0  0  0
  7  9  1  0  0  0  0
 27 28  1  0  0  0  0
 27 29  1  0  0  0  0
 27 30  1  0  0  0  0
 25 26  1  0  0  0  0
 25 27  1  0  0  0  0
M  CHG  1  15   1
M  END
$$$$
default_name
  -OEChem-01062215323D

 30 30  0     1  0  0  0  0  0999 V2000
   -3.5507   -3.2183    1.8116 H   0  0  0  0  0  0  0  0  0  0  0  0
   -3.4597   -2.3913    1.1076 C   0  0  0  0  0  0  0  0  0  0  0  0
   -4.1577   -1.6043    1.3866 H   0  0  0  0  0  0  0  0  0  0  0  0
   -3.6807   -2.7523    0.1036 H   0  0  0  0  0  0  0  0  0  0  0  0
   -2.0477   -1.8543    1.1546 C   0  0  0  0  0  0  0  0  0  0  0  0
   -1.2227   -2.3443    1.9146 O   0  0  0  0  0  0  0  0  0  0  0  0
   -1.7517   -0.8483    0.3266 N   0  0  0  0  0  0  0  0  0  0  0  0
   -2.4847   -0.5123   -0.2804 H   0  0  0  0  0  0  0  0  0  0  0  0
   -0.4117   -0.2463    0.2186 C   0  0  1  0  0  0  0  0  0  0  0  0
   -0.2612    0.0656   -0.8179 H   0  0  0  0  0  0  0  0  0  0  0  0
   -0.3735    1.0308    1.0898 C   0  0  0  0  0  0  0  0  0  0  0  0
   -0.6161    0.7571    2.1197 H   0  0  0  0  0  0  0  0  0  0  0  0
    0.6443    1.4268    1.0947 H   0  0  0  0  0  0  0  0  0  0  0  0
   -1.3071    2.1384    0.6495 C   0  0  0  0  0  0  0  0  0  0  0  0
   -1.1071    2.9657   -0.4386 N   0  3  0  0  0  0  0  0  0  0  0  0
   -0.3267    2.8597   -1.0931 H   0  0  0  0  0  0  0  0  0  0  0  0
   -2.1422    3.8255   -0.5155 C   0  0  0  0  0  0  0  0  0  0  0  0
   -2.2696    4.5906   -1.2787 H   0  0  0  0  0  0  0  0  0  0  0  0
   -2.9944    3.5623    0.5008 N   0  0  0  0  0  0  0  0  0  0  0  0
   -3.8650    4.0513    0.6916 H   0  0  0  0  0  0  0  0  0  0  0  0
   -2.4848    2.5055    1.2425 C   0  0  0  0  0  0  0  0  0  0  0  0
   -2.9275    2.0499    2.1239 H   0  0  0  0  0  0  0  0  0  0  0  0
    0.6915   -1.2735    0.5293 C   0  0  0  0  0  0  0  0  0  0  0  0
    0.4191   -2.3343    1.0935 O   0  0  0  0  0  0  0  0  0  0  0  0
    1.9362   -0.9395    0.1672 N   0  0  0  0  0  0  0  0  0  0  0  0
    2.0631   -0.0546   -0.3000 H   0  0  0  0  0  0  0  0  0  0  0  0
    3.1321   -1.7556    0.3979 C   0  0  0  0  0  0  0  0  0  0  0  0
    3.4123   -2.2779   -0.5191 H   0  0  0  0  0  0  0  0  0  0  0  0
    3.9642   -1.1190    0.7035 H   0  0  0  0  0  0  0  0  0  0  0  0
    2.9539   -2.4945    1.1821 H   0  0  0  0  0  0  0  0  0  0  0  0
  5  6  2  0  0  0  0
  5  7  1  0  0  0  0
  2  3  1  0  0  0  0
  2  4  1  0  0  0  0
  2  5  1  0  0  0  0
  1  2  1  0  0  0  0
 23 24  2  0  0  0  0
 23 25  1  0  0  0  0
 21 22  1  0  0  0  0
 19 20  1  0  0  0  0
 19 21  1  0  0  0  0
 17 18  1  0  0  0  0
 17 19  1  0  0  0  0
 15 16  1  0  0  0  0
 15 17  2  0  0  0  0
 14 15  1  0  0  0  0
 14 21  2  0  0  0  0
 11 12  1  0  0  0  0
 11 13  1  0  0  0  0
 11 14  1  0  0  0  0
  9 10  1  0  0  0  0
  9 11  1  0  0  0  0
  9 23  1  0  0  0  0
  7  8  1  0  0  0  0
  7  9  1  0  0  0  0
 27 28  1  0  0  0  0
 27 29  1  0  0  0  0
 27 30  1  0  0  0  0
 25 26  1  0  0  0  0
 25 27  1  0  0  0  0
M  CHG  1  15   1
M  END
$$$$
default_name
  -OEChem-01062215323D

 30 30  0     1  0  0  0  0  0999 V2000
   -3.5507   -3.2183    1.8116 H   0  0  0  0  0  0  0  0  0  0  0  0
   -3.4597   -2.3913    1.1076 C   0  0  0  0  0  0  0  0  0  0  0  0
   -4.1577   -1.6043    1.3866 H   0  0  0  0  0  0  0  0  0  0  0  0
   -3.6807   -2.7523    0.1036 H   0  0  0  0  0  0  0  0  0  0  0  0
   -2.0477   -1.8543    1.1546 C   0  0  0  0  0  0  0  0  0  0  0  0
   -1.2227   -2.3443    1.9146 O   0  0  0  0  0  0  0  0  0  0  0  0
   -1.7517   -0.8483    0.3266 N   0  0  0  0  0  0  0  0  0  0  0  0
   -2.4847   -0.5123   -0.2804 H   0  0  0  0  0  0  0  0  0  0  0  0
   -0.4117   -0.2463    0.2186 C   0  0  1  0  0  0  0  0  0  0  0  0
   -0.3595    0.3009   -0.7259 H   0  0  0  0  0  0  0  0  0  0  0  0
   -0.2431    0.7883    1.3555 C   0  0  0  0  0  0  0  0  0  0  0  0
   -0.3864    0.2803    2.3126 H   0  0  0  0  0  0  0  0  0  0  0  0
    0.7817    1.1655    1.3431 H   0  0  0  0  0  0  0  0  0  0  0  0
   -1.1818    1.9744    1.2906 C   0  0  0  0  0  0  0  0  0  0  0  0
   -1.0694    3.0344    0.4118 N   0  3  0  0  0  0  0  0  0  0  0  0
   -0.3647    3.0813   -0.3297 H   0  0  0  0  0  0  0  0  0  0  0  0
   -2.0792    3.8945    0.6509 C   0  0  0  0  0  0  0  0  0  0  0  0
   -2.2606    4.8191    0.1067 H   0  0  0  0  0  0  0  0  0  0  0  0
   -2.8294    3.4038    1.6632 N   0  0  0  0  0  0  0  0  0  0  0  0
   -3.6597    3.8392    2.0562 H   0  0  0  0  0  0  0  0  0  0  0  0
   -2.2796    2.1983    2.0769 C   0  0  0  0  0  0  0  0  0  0  0  0
   -2.6428    1.5501    2.8695 H   0  0  0  0  0  0  0  0  0  0  0  0
    0.6847   -1.3248    0.1588 C   0  0  0  0  0  0  0  0  0  0  0  0
    0.3915   -2.5201    0.2138 O   0  0  0  0  0  0  0  0  0  0  0  0
    1.9461   -0.8877    0.0595 N   0  0  0  0  0  0  0  0  0  0  0  0
    2.0903    0.1093    0.0094 H   0  0  0  0  0  0  0  0  0  0  0  0
    3.1368   -1.7422    0.0209 C   0  0  0  0  0  0  0  0  0  0  0  0
    3.4925   -1.8435   -1.0064 H   0  0  0  0  0  0  0  0  0  0  0  0
    3.9327   -1.2994    0.6222 H   0  0  0  0  0  0  0  0  0  0  0  0
    2.9157   -2.7362    0.4153 H   0  0  0  0  0  0  0  0  0  0  0  0
  5  6  2  0  0  0  0
  5  7  1  0  0  0  0
  2  3  1  0  0  0  0
  2  4  1  0  0  0  0
  2  5  1  0  0  0  0
  1  2  1  0  0  0  0
 23 24  2  0  0  0  0
 23 25  1  0  0  0  0
 21 22  1  0  0  0  0
 19 20  1  0  0  0  0
 19 21  1  0  0  0  0
 17 18  1  0  0  0  0
 17 19  1  0  0  0  0
 15 16  1  0  0  0  0
 15 17  2  0  0  0  0
 14 15  1  0  0  0  0
 14 21  2  0  0  0  0
 11 12  1  0  0  0  0
 11 13  1  0  0  0  0
 11 14  1  0  0  0  0
  9 10  1  0  0  0  0
  9 11  1  0  0  0  0
  9 23  1  0  0  0  0
  7  8  1  0  0  0  0
  7  9  1  0  0  0  0
 27 28  1  0  0  0  0
 27 29  1  0  0  0  0
 27 30  1  0  0  0  0
 25 26  1  0  0  0  0
 25 27  1  0  0  0  0
M  CHG  1  15   1
M  END
$$$$
default_name
  -OEChem-01062215323D

 30 30  0     1  0  0  0  0  0999 V2000
   -3.5507   -3.2183    1.8116 H   0  0  0  0  0  0  0  0  0  0  0  0
   -3.4597   -2.3913    1.1076 C   0  0  0  0  0  0  0  0  0  0  0  0
   -4.1577   -1.6043    1.3866 H   0  0  0  0  0  0  0  0  0  0  0  0
   -3.6807   -2.7523    0.1036 H   0  0  0  0  0  0  0  0  0  0  0  0
   -2.0477   -1.8543    1.1546 C   0  0  0  0  0  0  0  0  0  0  0  0
   -1.2227   -2.3443    1.9146 O   0  0  0  0  0  0  0  0  0  0  0  0
   -1.7517   -0.8483    0.3266 N   0  0  0  0  0  0  0  0  0  0  0  0
   -2.4847   -0.5123   -0.2804 H   0  0  0  0  0  0  0  0  0  0  0  0
   -0.4117   -0.2463    0.2186 C   0  0  1  0  0  0  0  0  0  0  0  0
   -0.3595    0.3009   -0.7259 H   0  0  0  0  0  0  0  0  0  0  0  0
   -0.2431    0.7883    1.3555 C   0  0  0  0  0  0  0  0  0  0  0  0
   -0.3864    0.2803    2.3126 H   0  0  0  0  0  0  0  0  0  0  0  0
    0.7817    1.1655    1.3431 H   0  0  0  0  0  0  0  0  0  0  0  0
   -1.1818    1.9744    1.2906 C   0  0  0  0  0  0  0  0  0  0  0  0
   -1.0694    3.0344    0.4118 N   0  3  0  0  0  0  0  0  0  0  0  0
   -0.3647    3.0813   -0.3297 H   0  0  0  0  0  0  0  0  0  0  0  0
   -2.0792    3.8945    0.6509 C   0  0  0  0  0  0  0  0  0  0  0  0
   -2.2606    4.8191    0.1067 H   0  0  0  0  0  0  0  0  0  0  0  0
   -2.8294    3.4038    1.6632 N   0  0  0  0  0  0  0  0  0  0  0  0
   -3.6597    3.8392    2.0562 H   0  0  0  0  0  0  0  0  0  0  0  0
   -2.2796    2.1983    2.0769 C   0  0  0  0  0  0  0  0  0  0  0  0
   -2.6428    1.5501    2.8695 H   0  0  0  0  0  0  0  0  0  0  0  0
    0.6847   -1.3248    0.1588 C   0  0  0  0  0  0  0  0  0  0  0  0
    0.3947   -2.5015   -0.0625 O   0  0  0  0  0  0  0  0  0  0  0  0
    1.9400   -0.9113    0.3714 N   0  0  0  0  0  0  0  0  0  0  0  0
    2.0840    0.0738    0.5338 H   0  0  0  0  0  0  0  0  0  0  0  0
    3.1237   -1.7761    0.3907 C   0  0  0  0  0  0  0  0  0  0  0  0
    3.6614   -1.6968   -0.5563 H   0  0  0  0  0  0  0  0  0  0  0  0
    3.7935   -1.4728    1.1972 H   0  0  0  0  0  0  0  0  0  0  0  0
    2.8412   -2.8192    0.5476 H   0  0  0  0  0  0  0  0  0  0  0  0
  5  6  2  0  0  0  0
  5  7  1  0  0  0  0
  2  3  1  0  0  0  0
  2  4  1  0  0  0  0
  2  5  1  0  0  0  0
  1  2  1  0  0  0  0
 23 24  2  0  0  0  0
 23 25  1  0  0  0  0
 21 22  1  0  0  0  0
 19 20  1  0  0  0  0
 19 21  1  0  0  0  0
 17 18  1  0  0  0  0
 17 19  1  0  0  0  0
 15 16  1  0  0  0  0
 15 17  2  0  0  0  0
 14 15  1  0  0  0  0
 14 21  2  0  0  0  0
 11 12  1  0  0  0  0
 11 13  1  0  0  0  0
 11 14  1  0  0  0  0
  9 10  1  0  0  0  0
  9 11  1  0  0  0  0
  9 23  1  0  0  0  0
  7  8  1  0  0  0  0
  7  9  1  0  0  0  0
 27 28  1  0  0  0  0
 27 29  1  0  0  0  0
 27 30  1  0  0  0  0
 25 26  1  0  0  0  0
 25 27  1  0  0  0  0
M  CHG  1  15   1
M  END
$$$$
default_name
  -OEChem-01062215323D

 30 30  0     1  0  0  0  0  0999 V2000
   -3.5507   -3.2183    1.8116 H   0  0  0  0  0  0  0  0  0  0  0  0
   -3.4597   -2.3913    1.1076 C   0  0  0  0  0  0  0  0  0  0  0  0
   -4.1577   -1.6043    1.3866 H   0  0  0  0  0  0  0  0  0  0  0  0
   -3.6807   -2.7523    0.1036 H   0  0  0  0  0  0  0  0  0  0  0  0
   -2.0477   -1.8543    1.1546 C   0  0  0  0  0  0  0  0  0  0  0  0
   -1.2227   -2.3443    1.9146 O   0  0  0  0  0  0  0  0  0  0  0  0
   -1.7517   -0.8483    0.3266 N   0  0  0  0  0  0  0  0  0  0  0  0
   -2.4847   -0.5123   -0.2804 H   0  0  0  0  0  0  0  0  0  0  0  0
   -0.4117   -0.2463    0.2186 C   0  0  1  0  0  0  0  0  0  0  0  0
   -0.3595    0.3009   -0.7259 H   0  0  0  0  0  0  0  0  0  0  0  0
   -0.2431    0.7883    1.3555 C   0  0  0  0  0  0  0  0  0  0  0  0
   -0.3864    0.2803    2.3126 H   0  0  0  0  0  0  0  0  0  0  0  0
    0.7817    1.1655    1.3431 H   0  0  0  0  0  0  0  0  0  0  0  0
   -1.1818    1.9744    1.2906 C   0  0  0  0  0  0  0  0  0  0  0  0
   -1.0694    3.0344    0.4118 N   0  3  0  0  0  0  0  0  0  0  0  0
   -0.3647    3.0813   -0.3297 H   0  0  0  0  0  0  0  0  0  0  0  0
   -2.0792    3.8945    0.6509 C   0  0  0  0  0  0  0  0  0  0  0  0
   -2.2606    4.8191    0.1067 H   0  0  0  0  0  0  0  0  0  0  0  0
   -2.8294    3.4038    1.6632 N   0  0  0  0  0  0  0  0  0  0  0  0
   -3.6597    3.8392    2.0562 H   0  0  0  0  0  0  0  0  0  0  0  0
   -2.2796    2.1983    2.0769 C   0  0  0  0  0  0  0  0  0  0  0  0
   -2.6428    1.5501    2.8695 H   0  0  0  0  0  0  0  0  0  0  0  0
    0.6847   -1.3248    0.1588 C   0  0  0  0  0  0  0  0  0  0  0  0
    0.4481   -2.4327   -0.3253 O   0  0  0  0  0  0  0  0  0  0  0  0
    1.8773   -0.9914    0.6673 N   0  0  0  0  0  0  0  0  0  0  0  0
    1.9825   -0.0572    1.0327 H   0  0  0  0  0  0  0  0  0  0  0  0
    3.0436   -1.8768    0.7392 C   0  0  0  0  0  0  0  0  0  0  0  0
    3.7444   -1.6398   -0.0638 H   0  0  0  0  0  0  0  0  0  0  0  0
    3.5530   -1.7448    1.6953 H   0  0  0  0  0  0  0  0  0  0  0  0
    2.7445   -2.9230    0.6465 H   0  0  0  0  0  0  0  0  0  0  0  0
  5  6  2  0  0  0  0
  5  7  1  0  0  0  0
  2  3  1  0  0  0  0
  2  4  1  0  0  0  0
  2  5  1  0  0  0  0
  1  2  1  0  0  0  0
 23 24  2  0  0  0  0
 23 25  1  0  0  0  0
 21 22  1  0  0  0  0
 19 20  1  0  0  0  0
 19 21  1  0  0  0  0
 17 18  1  0  0  0  0
 17 19  1  0  0  0  0
 15 16  1  0  0  0  0
 15 17  2  0  0  0  0
 14 15  1  0  0  0  0
 14 21  2  0  0  0  0
 11 12  1  0  0  0  0
 11 13  1  0  0  0  0
 11 14  1  0  0  0  0
  9 10  1  0  0  0  0
  9 11  1  0  0  0  0
  9 23  1  0  0  0  0
  7  8  1  0  0  0  0
  7  9  1  0  0  0  0
 27 28  1  0  0  0  0
 27 29  1  0  0  0  0
 27 30  1  0  0  0  0
 25 26  1  0  0  0  0
 25 27  1  0  0  0  0
M  CHG  1  15   1
M  END
$$$$
default_name
  -OEChem-01062215323D

 30 30  0     1  0  0  0  0  0999 V2000
   -3.5507   -3.2183    1.8116 H   0  0  0  0  0  0  0  0  0  0  0  0
   -3.4597   -2.3913    1.1076 C   0  0  0  0  0  0  0  0  0  0  0  0
   -4.1577   -1.6043    1.3866 H   0  0  0  0  0  0  0  0  0  0  0  0
   -3.6807   -2.7523    0.1036 H   0  0  0  0  0  0  0  0  0  0  0  0
   -2.0477   -1.8543    1.1546 C   0  0  0  0  0  0  0  0  0  0  0  0
   -1.2227   -2.3443    1.9146 O   0  0  0  0  0  0  0  0  0  0  0  0
   -1.7517   -0.8483    0.3266 N   0  0  0  0  0  0  0  0  0  0  0  0
   -2.4847   -0.5123   -0.2804 H   0  0  0  0  0  0  0  0  0  0  0  0
   -0.4117   -0.2463    0.2186 C   0  0  1  0  0  0  0  0  0  0  0  0
   -0.3595    0.3009   -0.7259 H   0  0  0  0  0  0  0  0  0  0  0  0
   -0.2431    0.7883    1.3555 C   0  0  0  0  0  0  0  0  0  0  0  0
   -0.3864    0.2803    2.3126 H   0  0  0  0  0  0  0  0  0  0  0  0
    0.7817    1.1655    1.3431 H   0  0  0  0  0  0  0  0  0  0  0  0
   -1.1818    1.9744    1.2906 C   0  0  0  0  0  0  0  0  0  0  0  0
   -1.0694    3.0344    0.4118 N   0  3  0  0  0  0  0  0  0  0  0  0
   -0.3647    3.0813   -0.3297 H   0  0  0  0  0  0  0  0  0  0  0  0
   -2.0792    3.8945    0.6509 C   0  0  0  0  0  0  0  0  0  0  0  0
   -2.2606    4.8191    0.1067 H   0  0  0  0  0  0  0  0  0  0  0  0
   -2.8294    3.4038    1.6632 N   0  0  0  0  0  0  0  0  0  0  0  0
   -3.6597    3.8392    2.0562 H   0  0  0  0  0  0  0  0  0  0  0  0
   -2.2796    2.1983    2.0769 C   0  0  0  0  0  0  0  0  0  0  0  0
   -2.6428    1.5501    2.8695 H   0  0  0  0  0  0  0  0  0  0  0  0
    0.6847   -1.3248    0.1588 C   0  0  0  0  0  0  0  0  0  0  0  0
    0.5480   -2.3183   -0.5568 O   0  0  0  0  0  0  0  0  0  0  0  0
    1.7623   -1.1228    0.9269 N   0  0  0  0  0  0  0  0  0  0  0  0
    1.7925   -0.2746    1.4720 H   0  0  0  0  0  0  0  0  0  0  0  0
    2.9020   -2.0376    1.0428 C   0  0  0  0  0  0  0  0  0  0  0  0
    3.7358   -1.6763    0.4374 H   0  0  0  0  0  0  0  0  0  0  0  0
    3.2277   -2.0971    2.0828 H   0  0  0  0  0  0  0  0  0  0  0  0
    2.6321   -3.0406    0.7055 H   0  0  0  0  0  0  0  0  0  0  0  0
  5  6  2  0  0  0  0
  5  7  1  0  0  0  0
  2  3  1  0  0  0  0
  2  4  1  0  0  0  0
  2  5  1  0  0  0  0
  1  2  1  0  0  0  0
 23 24  2  0  0  0  0
 23 25  1  0  0  0  0
 21 22  1  0  0  0  0
 19 20  1  0  0  0  0
 19 21  1  0  0  0  0
 17 18  1  0  0  0  0
 17 19  1  0  0  0  0
 15 16  1  0  0  0  0
 15 17  2  0  0  0  0
 14 15  1  0  0  0  0
 14 21  2  0  0  0  0
 11 12  1  0  0  0  0
 11 13  1  0  0  0  0
 11 14  1  0  0  0  0
  9 10  1  0  0  0  0
  9 11  1  0  0  0  0
  9 23  1  0  0  0  0
  7  8  1  0  0  0  0
  7  9  1  0  0  0  0
 27 28  1  0  0  0  0
 27 29  1  0  0  0  0
 27 30  1  0  0  0  0
 25 26  1  0  0  0  0
 25 27  1  0  0  0  0
M  CHG  1  15   1
M  END
$$$$
default_name
  -OEChem-01062215323D

 30 30  0     1  0  0  0  0  0999 V2000
   -3.5507   -3.2183    1.8116 H   0  0  0  0  0  0  0  0  0  0  0  0
   -3.4597   -2.3913    1.1076 C   0  0  0  0  0  0  0  0  0  0  0  0
   -4.1577   -1.6043    1.3866 H   0  0  0  0  0  0  0  0  0  0  0  0
   -3.6807   -2.7523    0.1036 H   0  0  0  0  0  0  0  0  0  0  0  0
   -2.0477   -1.8543    1.1546 C   0  0  0  0  0  0  0  0  0  0  0  0
   -1.2227   -2.3443    1.9146 O   0  0  0  0  0  0  0  0  0  0  0  0
   -1.7517   -0.8483    0.3266 N   0  0  0  0  0  0  0  0  0  0  0  0
   -2.4847   -0.5123   -0.2804 H   0  0  0  0  0  0  0  0  0  0  0  0
   -0.4117   -0.2463    0.2186 C   0  0  1  0  0  0  0  0  0  0  0  0
   -0.3595    0.3009   -0.7259 H   0  0  0  0  0  0  0  0  0  0  0  0
   -0.2431    0.7883    1.3555 C   0  0  0  0  0  0  0  0  0  0  0  0
   -0.3864    0.2803    2.3126 H   0  0  0  0  0  0  0  0  0  0  0  0
    0.7817    1.1655    1.3431 H   0  0  0  0  0  0  0  0  0  0  0  0
   -1.1818    1.9744    1.2906 C   0  0  0  0  0  0  0  0  0  0  0  0
   -1.0694    3.0344    0.4118 N   0  3  0  0  0  0  0  0  0  0  0  0
   -0.3647    3.0813   -0.3297 H   0  0  0  0  0  0  0  0  0  0  0  0
   -2.0792    3.8945    0.6509 C   0  0  0  0  0  0  0  0  0  0  0  0
   -2.2606    4.8191    0.1067 H   0  0  0  0  0  0  0  0  0  0  0  0
   -2.8294    3.4038    1.6632 N   0  0  0  0  0  0  0  0  0  0  0  0
   -3.6597    3.8392    2.0562 H   0  0  0  0  0  0  0  0  0  0  0  0
   -2.2796    2.1983    2.0769 C   0  0  0  0  0  0  0  0  0  0  0  0
   -2.6428    1.5501    2.8695 H   0  0  0  0  0  0  0  0  0  0  0  0
    0.6847   -1.3248    0.1588 C   0  0  0  0  0  0  0  0  0  0  0  0
    0.6877   -2.1661   -0.7412 O   0  0  0  0  0  0  0  0  0  0  0  0
    1.6027   -1.2964    1.1327 N   0  0  0  0  0  0  0  0  0  0  0  0
    1.5272   -0.5637    1.8218 H   0  0  0  0  0  0  0  0  0  0  0  0
    2.7086   -2.2474    1.2807 C   0  0  0  0  0  0  0  0  0  0  0  0
    3.6362   -1.8040    0.9133 H   0  0  0  0  0  0  0  0  0  0  0  0
    2.8396   -2.5055    2.3330 H   0  0  0  0  0  0  0  0  0  0  0  0
    2.5117   -3.1638    0.7203 H   0  0  0  0  0  0  0  0  0  0  0  0
  5  6  2  0  0  0  0
  5  7  1  0  0  0  0
  2  3  1  0  0  0  0
  2  4  1  0  0  0  0
  2  5  1  0  0  0  0
  1  2  1  0  0  0  0
 23 24  2  0  0  0  0
 23 25  1  0  0  0  0
 21 22  1  0  0  0  0
 19 20  1  0  0  0  0
 19 21  1  0  0  0  0
 17 18  1  0  0  0  0
 17 19  1  0  0  0  0
 15 16  1  0  0  0  0
 15 17  2  0  0  0  0
 14 15  1  0  0  0  0
 14 21  2  0  0  0  0
 11 12  1  0  0  0  0
 11 13  1  0  0  0  0
 11 14  1  0  0  0  0
  9 10  1  0  0  0  0
  9 11  1  0  0  0  0
  9 23  1  0  0  0  0
  7  8  1  0  0  0  0
  7  9  1  0  0  0  0
 27 28  1  0  0  0  0
 27 29  1  0  0  0  0
 27 30  1  0  0  0  0
 25 26  1  0  0  0  0
 25 27  1  0  0  0  0
M  CHG  1  15   1
M  END
$$$$
default_name
  -OEChem-01062215323D

 30 30  0     1  0  0  0  0  0999 V2000
   -3.5507   -3.2183    1.8116 H   0  0  0  0  0  0  0  0  0  0  0  0
   -3.4597   -2.3913    1.1076 C   0  0  0  0  0  0  0  0  0  0  0  0
   -4.1577   -1.6043    1.3866 H   0  0  0  0  0  0  0  0  0  0  0  0
   -3.6807   -2.7523    0.1036 H   0  0  0  0  0  0  0  0  0  0  0  0
   -2.0477   -1.8543    1.1546 C   0  0  0  0  0  0  0  0  0  0  0  0
   -1.2227   -2.3443    1.9146 O   0  0  0  0  0  0  0  0  0  0  0  0
   -1.7517   -0.8483    0.3266 N   0  0  0  0  0  0  0  0  0  0  0  0
   -2.4847   -0.5123   -0.2804 H   0  0  0  0  0  0  0  0  0  0  0  0
   -0.4117   -0.2463    0.2186 C   0  0  1  0  0  0  0  0  0  0  0  0
   -0.3595    0.3009   -0.7259 H   0  0  0  0  0  0  0  0  0  0  0  0
   -0.2431    0.7883    1.3555 C   0  0  0  0  0  0  0  0  0  0  0  0
   -0.3864    0.2803    2.3126 H   0  0  0  0  0  0  0  0  0  0  0  0
    0.7817    1.1655    1.3431 H   0  0  0  0  0  0  0  0  0  0  0  0
   -1.1818    1.9744    1.2906 C   0  0  0  0  0  0  0  0  0  0  0  0
   -1.0694    3.0344    0.4118 N   0  3  0  0  0  0  0  0  0  0  0  0
   -0.3647    3.0813   -0.3297 H   0  0  0  0  0  0  0  0  0  0  0  0
   -2.0792    3.8945    0.6509 C   0  0  0  0  0  0  0  0  0  0  0  0
   -2.2606    4.8191    0.1067 H   0  0  0  0  0  0  0  0  0  0  0  0
   -2.8294    3.4038    1.6632 N   0  0  0  0  0  0  0  0  0  0  0  0
   -3.6597    3.8392    2.0562 H   0  0  0  0  0  0  0  0  0  0  0  0
   -2.2796    2.1983    2.0769 C   0  0  0  0  0  0  0  0  0  0  0  0
   -2.6428    1.5501    2.8695 H   0  0  0  0  0  0  0  0  0  0  0  0
    0.6847   -1.3248    0.1588 C   0  0  0  0  0  0  0  0  0  0  0  0
    0.8575   -1.9865   -0.8660 O   0  0  0  0  0  0  0  0  0  0  0  0
    1.4096   -1.5004    1.2704 N   0  0  0  0  0  0  0  0  0  0  0  0
    1.2046   -0.9048    2.0582 H   0  0  0  0  0  0  0  0  0  0  0  0
    2.4765   -2.4920    1.4367 C   0  0  0  0  0  0  0  0  0  0  0  0
    3.4524   -2.0140    1.3314 H   0  0  0  0  0  0  0  0  0  0  0  0
    2.4152   -2.9422    2.4291 H   0  0  0  0  0  0  0  0  0  0  0  0
    2.3914   -3.2844    0.6901 H   0  0  0  0  0  0  0  0  0  0  0  0
  5  6  2  0  0  0  0
  5  7  1  0  0  0  0
  2  3  1  0  0  0  0
  2  4  1  0  0  0  0
  2  5  1  0  0  0  0
  1  2  1  0  0  0  0
 23 24  2  0  0  0  0
 23 25  1  0  0  0  0
 21 22  1  0  0  0  0
 19 20  1  0  0  0  0
 19 21  1  0  0  0  0
 17 18  1  0  0  0  0
 17 19  1  0  0  0  0
 15 16  1  0  0  0  0
 15 17  2  0  0  0  0
 14 15  1  0  0  0  0
 14 21  2  0  0  0  0
 11 12  1  0  0  0  0
 11 13  1  0  0  0  0
 11 14  1  0  0  0  0
  9 10  1  0  0  0  0
  9 11  1  0  0  0  0
  9 23  1  0  0  0  0
  7  8  1  0  0  0  0
  7  9  1  0  0  0  0
 27 28  1  0  0  0  0
 27 29  1  0  0  0  0
 27 30  1  0  0  0  0
 25 26  1  0  0  0  0
 25 27  1  0  0  0  0
M  CHG  1  15   1
M  END
$$$$
default_name
  -OEChem-01062215323D

 30 30  0     1  0  0  0  0  0999 V2000
   -3.5507   -3.2183    1.8116 H   0  0  0  0  0  0  0  0  0  0  0  0
   -3.4597   -2.3913    1.1076 C   0  0  0  0  0  0  0  0  0  0  0  0
   -4.1577   -1.6043    1.3866 H   0  0  0  0  0  0  0  0  0  0  0  0
   -3.6807   -2.7523    0.1036 H   0  0  0  0  0  0  0  0  0  0  0  0
   -2.0477   -1.8543    1.1546 C   0  0  0  0  0  0  0  0  0  0  0  0
   -1.2227   -2.3443    1.9146 O   0  0  0  0  0  0  0  0  0  0  0  0
   -1.7517   -0.8483    0.3266 N   0  0  0  0  0  0  0  0  0  0  0  0
   -2.4847   -0.5123   -0.2804 H   0  0  0  0  0  0  0  0  0  0  0  0
   -0.4117   -0.2463    0.2186 C   0  0  1  0  0  0  0  0  0  0  0  0
   -0.3595    0.3009   -0.7259 H   0  0  0  0  0  0  0  0  0  0  0  0
   -0.2431    0.7883    1.3555 C   0  0  0  0  0  0  0  0  0  0  0  0
   -0.3864    0.2803    2.3126 H   0  0  0  0  0  0  0  0  0  0  0  0
    0.7817    1.1655    1.3431 H   0  0  0  0  0  0  0  0  0  0  0  0
   -1.1818    1.9744    1.2906 C   0  0  0  0  0  0  0  0  0  0  0  0
   -1.0694    3.0344    0.4118 N   0  3  0  0  0  0  0  0  0  0  0  0
   -0.3647    3.0813   -0.3297 H   0  0  0  0  0  0  0  0  0  0  0  0
   -2.0792    3.8945    0.6509 C   0  0  0  0  0  0  0  0  0  0  0  0
   -2.2606    4.8191    0.1067 H   0  0  0  0  0  0  0  0  0  0  0  0
   -2.8294    3.4038    1.6632 N   0  0  0  0  0  0  0  0  0  0  0  0
   -3.6597    3.8392    2.0562 H   0  0  0  0  0  0  0  0  0  0  0  0
   -2.2796    2.1983    2.0769 C   0  0  0  0  0  0  0  0  0  0  0  0
   -2.6428    1.5501    2.8695 H   0  0  0  0  0  0  0  0  0  0  0  0
    0.6847   -1.3248    0.1588 C   0  0  0  0  0  0  0  0  0  0  0  0
    1.0460   -1.7917   -0.9225 O   0  0  0  0  0  0  0  0  0  0  0  0
    1.1959   -1.7209    1.3309 N   0  0  0  0  0  0  0  0  0  0  0  0
    0.8467   -1.2746    2.1653 H   0  0  0  0  0  0  0  0  0  0  0  0
    2.2215   -2.7547    1.5003 C   0  0  0  0  0  0  0  0  0  0  0  0
    3.1970   -2.2921    1.6632 H   0  0  0  0  0  0  0  0  0  0  0  0
    1.9835   -3.3775    2.3644 H   0  0  0  0  0  0  0  0  0  0  0  0
    2.2795   -3.3941    0.6168 H   0  0  0  0  0  0  0  0  0  0  0  0
  5  6  2  0  0  0  0
  5  7  1  0  0  0  0
  2  3  1  0  0  0  0
  2  4  1  0  0  0  0
  2  5  1  0  0  0  0
  1  2  1  0  0  0  0
 23 24  2  0  0  0  0
 23 25  1  0  0  0  0
 21 22  1  0  0  0  0
 19 20  1  0  0  0  0
 19 21  1  0  0  0  0
 17 18  1  0  0  0  0
 17 19  1  0  0  0  0
 15 16  1  0  0  0  0
 15 17  2  0  0  0  0
 14 15  1  0  0  0  0
 14 21  2  0  0  0  0
 11 12  1  0  0  0  0
 11 13  1  0  0  0  0
 11 14  1  0  0  0  0
  9 10  1  0  0  0  0
  9 11  1  0  0  0  0
  9 23  1  0  0  0  0
  7  8  1  0  0  0  0
  7  9  1  0  0  0  0
 27 28  1  0  0  0  0
 27 29  1  0  0  0  0
 27 30  1  0  0  0  0
 25 26  1  0  0  0  0
 25 27  1  0  0  0  0
M  CHG  1  15   1
M  END
$$$$
default_name
  -OEChem-01062215323D

 30 30  0     1  0  0  0  0  0999 V2000
   -3.5507   -3.2183    1.8116 H   0  0  0  0  0  0  0  0  0  0  0  0
   -3.4597   -2.3913    1.1076 C   0  0  0  0  0  0  0  0  0  0  0  0
   -4.1577   -1.6043    1.3866 H   0  0  0  0  0  0  0  0  0  0  0  0
   -3.6807   -2.7523    0.1036 H   0  0  0  0  0  0  0  0  0  0  0  0
   -2.0477   -1.8543    1.1546 C   0  0  0  0  0  0  0  0  0  0  0  0
   -1.2227   -2.3443    1.9146 O   0  0  0  0  0  0  0  0  0  0  0  0
   -1.7517   -0.8483    0.3266 N   0  0  0  0  0  0  0  0  0  0  0  0
   -2.4847   -0.5123   -0.2804 H   0  0  0  0  0  0  0  0  0  0  0  0
   -0.4117   -0.2463    0.2186 C   0  0  1  0  0  0  0  0  0  0  0  0
   -0.3595    0.3009   -0.7259 H   0  0  0  0  0  0  0  0  0  0  0  0
   -0.2431    0.7883    1.3555 C   0  0  0  0  0  0  0  0  0  0  0  0
   -0.3864    0.2803    2.3126 H   0  0  0  0  0  0  0  0  0  0  0  0
    0.7817    1.1655    1.3431 H   0  0  0  0  0  0  0  0  0  0  0  0
   -1.1818    1.9744    1.2906 C   0  0  0  0  0  0  0  0  0  0  0  0
   -1.0694    3.0344    0.4118 N   0  3  0  0  0  0  0  0  0  0  0  0
   -0.3647    3.0813   -0.3297 H   0  0  0  0  0  0  0  0  0  0  0  0
   -2.0792    3.8945    0.6509 C   0  0  0  0  0  0  0  0  0  0  0  0
   -2.2606    4.8191    0.1067 H   0  0  0  0  0  0  0  0  0  0  0  0
   -2.8294    3.4038    1.6632 N   0  0  0  0  0  0  0  0  0  0  0  0
   -3.6597    3.8392    2.0562 H   0  0  0  0  0  0  0  0  0  0  0  0
   -2.2796    2.1983    2.0769 C   0  0  0  0  0  0  0  0  0  0  0  0
   -2.6428    1.5501    2.8695 H   0  0  0  0  0  0  0  0  0  0  0  0
    0.6847   -1.3248    0.1588 C   0  0  0  0  0  0  0  0  0  0  0  0
    1.2403   -1.5951   -0.9070 O   0  0  0  0  0  0  0  0  0  0  0  0
    0.9764   -1.9429    1.3098 N   0  0  0  0  0  0  0  0  0  0  0  0
    0.4778   -1.6479    2.1355 H   0  0  0  0  0  0  0  0  0  0  0  0
    1.9611   -3.0176    1.4669 C   0  0  0  0  0  0  0  0  0  0  0  0
    2.8872   -2.6193    1.8860 H   0  0  0  0  0  0  0  0  0  0  0  0
    1.5738   -3.7816    2.1433 H   0  0  0  0  0  0  0  0  0  0  0  0
    2.1836   -3.4854    0.5056 H   0  0  0  0  0  0  0  0  0  0  0  0
  5  6  2  0  0  0  0
  5  7  1  0  0  0  0
  2  3  1  0  0  0  0
  2  4  1  0  0  0  0
  2  5  1  0  0  0  0
  1  2  1  0  0  0  0
 23 24  2  0  0  0  0
 23 25  1  0  0  0  0
 21 22  1  0  0  0  0
 19 20  1  0  0  0  0
 19 21  1  0  0  0  0
 17 18  1  0  0  0  0
 17 19  1  0  0  0  0
 15 16  1  0  0  0  0
 15 17  2  0  0  0  0
 14 15  1  0  0  0  0
 14 21  2  0  0  0  0
 11 12  1  0  0  0  0
 11 13  1  0  0  0  0
 11 14  1  0  0  0  0
  9 10  1  0  0  0  0
  9 11  1  0  0  0  0
  9 23  1  0  0  0  0
  7  8  1  0  0  0  0
  7  9  1  0  0  0  0
 27 28  1  0  0  0  0
 27 29  1  0  0  0  0
 27 30  1  0  0  0  0
 25 26  1  0  0  0  0
 25 27  1  0  0  0  0
M  CHG  1  15   1
M  END
$$$$
default_name
  -OEChem-01062215323D

 30 30  0     1  0  0  0  0  0999 V2000
   -3.5507   -3.2183    1.8116 H   0  0  0  0  0  0  0  0  0  0  0  0
   -3.4597   -2.3913    1.1076 C   0  0  0  0  0  0  0  0  0  0  0  0
   -4.1577   -1.6043    1.3866 H   0  0  0  0  0  0  0  0  0  0  0  0
   -3.6807   -2.7523    0.1036 H   0  0  0  0  0  0  0  0  0  0  0  0
   -2.0477   -1.8543    1.1546 C   0  0  0  0  0  0  0  0  0  0  0  0
   -1.2227   -2.3443    1.9146 O   0  0  0  0  0  0  0  0  0  0  0  0
   -1.7517   -0.8483    0.3266 N   0  0  0  0  0  0  0  0  0  0  0  0
   -2.4847   -0.5123   -0.2804 H   0  0  0  0  0  0  0  0  0  0  0  0
   -0.4117   -0.2463    0.2186 C   0  0  1  0  0  0  0  0  0  0  0  0
   -0.3595    0.3009   -0.7259 H   0  0  0  0  0  0  0  0  0  0  0  0
   -0.2431    0.7883    1.3555 C   0  0  0  0  0  0  0  0  0  0  0  0
   -0.3864    0.2803    2.3126 H   0  0  0  0  0  0  0  0  0  0  0  0
    0.7817    1.1655    1.3431 H   0  0  0  0  0  0  0  0  0  0  0  0
   -1.1818    1.9744    1.2906 C   0  0  0  0  0  0  0  0  0  0  0  0
   -1.0694    3.0344    0.4118 N   0  3  0  0  0  0  0  0  0  0  0  0
   -0.3647    3.0813   -0.3297 H   0  0  0  0  0  0  0  0  0  0  0  0
   -2.0792    3.8945    0.6509 C   0  0  0  0  0  0  0  0  0  0  0  0
   -2.2606    4.8191    0.1067 H   0  0  0  0  0  0  0  0  0  0  0  0
   -2.8294    3.4038    1.6632 N   0  0  0  0  0  0  0  0  0  0  0  0
   -3.6597    3.8392    2.0562 H   0  0  0  0  0  0  0  0  0  0  0  0
   -2.2796    2.1983    2.0769 C   0  0  0  0  0  0  0  0  0  0  0  0
   -2.6428    1.5501    2.8695 H   0  0  0  0  0  0  0  0  0  0  0  0
    0.6847   -1.3248    0.1588 C   0  0  0  0  0  0  0  0  0  0  0  0
    1.4272   -1.4099   -0.8206 O   0  0  0  0  0  0  0  0  0  0  0  0
    0.7659   -2.1512    1.2088 N   0  0  0  0  0  0  0  0  0  0  0  0
    0.1231   -1.9993    1.9711 H   0  0  0  0  0  0  0  0  0  0  0  0
    1.7129   -3.2628    1.3391 C   0  0  0  0  0  0  0  0  0  0  0  0
    2.5443   -2.9733    1.9848 H   0  0  0  0  0  0  0  0  0  0  0  0
    1.2141   -4.1271    1.7810 H   0  0  0  0  0  0  0  0  0  0  0  0
    2.1102   -3.5521    0.3639 H   0  0  0  0  0  0  0  0  0  0  0  0
  5  6  2  0  0  0  0
  5  7  1  0  0  0  0
  2  3  1  0  0  0  0
  2  4  1  0  0  0  0
  2  5  1  0  0  0  0
  1  2  1  0  0  0  0
 23 24  2  0  0  0  0
 23 25  1  0  0  0  0
 21 22  1  0  0  0  0
 19 20  1  0  0  0  0
 19 21  1  0  0  0  0
 17 18  1  0  0  0  0
 17 19  1  0  0  0  0
 15 16  1  0  0  0  0
 15 17  2  0  0  0  0
 14 15  1  0  0  0  0
 14 21  2  0  0  0  0
 11 12  1  0  0  0  0
 11 13  1  0  0  0  0
 11 14  1  0  0  0  0
  9 10  1  0  0  0  0
  9 11  1  0  0  0  0
  9 23  1  0  0  0  0
  7  8  1  0  0  0  0
  7  9  1  0  0  0  0
 27 28  1  0  0  0  0
 27 29  1  0  0  0  0
 27 30  1  0  0  0  0
 25 26  1  0  0  0  0
 25 27  1  0  0  0  0
M  CHG  1  15   1
M  END
$$$$
default_name
  -OEChem-01062215323D

 30 30  0     1  0  0  0  0  0999 V2000
   -3.5507   -3.2183    1.8116 H   0  0  0  0  0  0  0  0  0  0  0  0
   -3.4597   -2.3913    1.1076 C   0  0  0  0  0  0  0  0  0  0  0  0
   -4.1577   -1.6043    1.3866 H   0  0  0  0  0  0  0  0  0  0  0  0
   -3.6807   -2.7523    0.1036 H   0  0  0  0  0  0  0  0  0  0  0  0
   -2.0477   -1.8543    1.1546 C   0  0  0  0  0  0  0  0  0  0  0  0
   -1.2227   -2.3443    1.9146 O   0  0  0  0  0  0  0  0  0  0  0  0
   -1.7517   -0.8483    0.3266 N   0  0  0  0  0  0  0  0  0  0  0  0
   -2.4847   -0.5123   -0.2804 H   0  0  0  0  0  0  0  0  0  0  0  0
   -0.4117   -0.2463    0.2186 C   0  0  1  0  0  0  0  0  0  0  0  0
   -0.3595    0.3009   -0.7259 H   0  0  0  0  0  0  0  0  0  0  0  0
   -0.2431    0.7883    1.3555 C   0  0  0  0  0  0  0  0  0  0  0  0
   -0.3864    0.2803    2.3126 H   0  0  0  0  0  0  0  0  0  0  0  0
    0.7817    1.1655    1.3431 H   0  0  0  0  0  0  0  0  0  0  0  0
   -1.1818    1.9744    1.2906 C   0  0  0  0  0  0  0  0  0  0  0  0
   -1.0694    3.0344    0.4118 N   0  3  0  0  0  0  0  0  0  0  0  0
   -0.3647    3.0813   -0.3297 H   0  0  0  0  0  0  0  0  0  0  0  0
   -2.0792    3.8945    0.6509 C   0  0  0  0  0  0  0  0  0  0  0  0
   -2.2606    4.8191    0.1067 H   0  0  0  0  0  0  0  0  0  0  0  0
   -2.8294    3.4038    1.6632 N   0  0  0  0  0  0  0  0  0  0  0  0
   -3.6597    3.8392    2.0562 H   0  0  0  0  0  0  0  0  0  0  0  0
   -2.2796    2.1983    2.0769 C   0  0  0  0  0  0  0  0  0  0  0  0
   -2.6428    1.5501    2.8695 H   0  0  0  0  0  0  0  0  0  0  0  0
    0.6847   -1.3248    0.1588 C   0  0  0  0  0  0  0  0  0  0  0  0
    1.5939   -1.2489   -0.6691 O   0  0  0  0  0  0  0  0  0  0  0  0
    0.5789   -2.3317    1.0346 N   0  0  0  0  0  0  0  0  0  0  0  0
   -0.1932   -2.3048    1.6831 H   0  0  0  0  0  0  0  0  0  0  0  0
    1.4939   -3.4735    1.1253 C   0  0  0  0  0  0  0  0  0  0  0  0
    2.1917   -3.3300    1.9528 H   0  0  0  0  0  0  0  0  0  0  0  0
    0.9290   -4.3904    1.3021 H   0  0  0  0  0  0  0  0  0  0  0  0
    2.0643   -3.5897    0.2014 H   0  0  0  0  0  0  0  0  0  0  0  0
  5  6  2  0  0  0  0
  5  7  1  0  0  0  0
  2  3  1  0  0  0  0
  2  4  1  0  0  0  0
  2  5  1  0  0  0  0
  1  2  1  0  0  0  0
 23 24  2  0  0  0  0
 23 25  1  0  0  0  0
 21 22  1  0  0  0  0
 19 20  1  0  0  0  0
 19 21  1  0  0  0  0
 17 18  1  0  0  0  0
 17 19  1  0  0  0  0
 15 16  1  0  0  0  0
 15 17  2  0  0  0  0
 14 15  1  0  0  0  0
 14 21  2  0  0  0  0
 11 12  1  0  0  0  0
 11 13  1  0  0  0  0
 11 14  1  0  0  0  0
  9 10  1  0  0  0  0
  9 11  1  0  0  0  0
  9 23  1  0  0  0  0
  7  8  1  0  0  0  0
  7  9  1  0  0  0  0
 27 28  1  0  0  0  0
 27 29  1  0  0  0  0
 27 30  1  0  0  0  0
 25 26  1  0  0  0  0
 25 27  1  0  0  0  0
M  CHG  1  15   1
M  END
$$$$
default_name
  -OEChem-01062215323D

 30 30  0     1  0  0  0  0  0999 V2000
   -3.5507   -3.2183    1.8116 H   0  0  0  0  0  0  0  0  0  0  0  0
   -3.4597   -2.3913    1.1076 C   0  0  0  0  0  0  0  0  0  0  0  0
   -4.1577   -1.6043    1.3866 H   0  0  0  0  0  0  0  0  0  0  0  0
   -3.6807   -2.7523    0.1036 H   0  0  0  0  0  0  0  0  0  0  0  0
   -2.0477   -1.8543    1.1546 C   0  0  0  0  0  0  0  0  0  0  0  0
   -1.2227   -2.3443    1.9146 O   0  0  0  0  0  0  0  0  0  0  0  0
   -1.7517   -0.8483    0.3266 N   0  0  0  0  0  0  0  0  0  0  0  0
   -2.4847   -0.5123   -0.2804 H   0  0  0  0  0  0  0  0  0  0  0  0
   -0.4117   -0.2463    0.2186 C   0  0  1  0  0  0  0  0  0  0  0  0
   -0.3595    0.3009   -0.7259 H   0  0  0  0  0  0  0  0  0  0  0  0
   -0.2431    0.7883    1.3555 C   0  0  0  0  0  0  0  0  0  0  0  0
   -0.3864    0.2803    2.3126 H   0  0  0  0  0  0  0  0  0  0  0  0
    0.7817    1.1655    1.3431 H   0  0  0  0  0  0  0  0  0  0  0  0
   -1.1818    1.9744    1.2906 C   0  0  0  0  0  0  0  0  0  0  0  0
   -1.0694    3.0344    0.4118 N   0  3  0  0  0  0  0  0  0  0  0  0
   -0.3647    3.0813   -0.3297 H   0  0  0  0  0  0  0  0  0  0  0  0
   -2.0792    3.8945    0.6509 C   0  0  0  0  0  0  0  0  0  0  0  0
   -2.2606    4.8191    0.1067 H   0  0  0  0  0  0  0  0  0  0  0  0
   -2.8294    3.4038    1.6632 N   0  0  0  0  0  0  0  0  0  0  0  0
   -3.6597    3.8392    2.0562 H   0  0  0  0  0  0  0  0  0  0  0  0
   -2.2796    2.1983    2.0769 C   0  0  0  0  0  0  0  0  0  0  0  0
   -2.6428    1.5501    2.8695 H   0  0  0  0  0  0  0  0  0  0  0  0
    0.6847   -1.3248    0.1588 C   0  0  0  0  0  0  0  0  0  0  0  0
    1.7290   -1.1230   -0.4628 O   0  0  0  0  0  0  0  0  0  0  0  0
    0.4280   -2.4720    0.7992 N   0  0  0  0  0  0  0  0  0  0  0  0
   -0.4496   -2.5437    1.2913 H   0  0  0  0  0  0  0  0  0  0  0  0
    1.3190   -3.6355    0.8403 C   0  0  0  0  0  0  0  0  0  0  0  0
    1.8532   -3.6652    1.7921 H   0  0  0  0  0  0  0  0  0  0  0  0
    0.7377   -4.5536    0.7392 H   0  0  0  0  0  0  0  0  0  0  0  0
    2.0491   -3.5956    0.0292 H   0  0  0  0  0  0  0  0  0  0  0  0
  5  6  2  0  0  0  0
  5  7  1  0  0  0  0
  2  3  1  0  0  0  0
  2  4  1  0  0  0  0
  2  5  1  0  0  0  0
  1  2  1  0  0  0  0
 23 24  2  0  0  0  0
 23 25  1  0  0  0  0
 21 22  1  0  0  0  0
 19 20  1  0  0  0  0
 19 21  1  0  0  0  0
 17 18  1  0  0  0  0
 17 19  1  0  0  0  0
 15 16  1  0  0  0  0
 15 17  2  0  0  0  0
 14 15  1  0  0  0  0
 14 21  2  0  0  0  0
 11 12  1  0  0  0  0
 11 13  1  0  0  0  0
 11 14  1  0  0  0  0
  9 10  1  0  0  0  0
  9 11  1  0  0  0  0
  9 23  1  0  0  0  0
  7  8  1  0  0  0  0
  7  9  1  0  0  0  0
 27 28  1  0  0  0  0
 27 29  1  0  0  0  0
 27 30  1  0  0  0  0
 25 26  1  0  0  0  0
 25 27  1  0  0  0  0
M  CHG  1  15   1
M  END
$$$$
default_name
  -OEChem-01062215323D

 30 30  0     1  0  0  0  0  0999 V2000
   -3.5507   -3.2183    1.8116 H   0  0  0  0  0  0  0  0  0  0  0  0
   -3.4597   -2.3913    1.1076 C   0  0  0  0  0  0  0  0  0  0  0  0
   -4.1577   -1.6043    1.3866 H   0  0  0  0  0  0  0  0  0  0  0  0
   -3.6807   -2.7523    0.1036 H   0  0  0  0  0  0  0  0  0  0  0  0
   -2.0477   -1.8543    1.1546 C   0  0  0  0  0  0  0  0  0  0  0  0
   -1.2227   -2.3443    1.9146 O   0  0  0  0  0  0  0  0  0  0  0  0
   -1.7517   -0.8483    0.3266 N   0  0  0  0  0  0  0  0  0  0  0  0
   -2.4847   -0.5123   -0.2804 H   0  0  0  0  0  0  0  0  0  0  0  0
   -0.4117   -0.2463    0.2186 C   0  0  1  0  0  0  0  0  0  0  0  0
   -0.3595    0.3009   -0.7259 H   0  0  0  0  0  0  0  0  0  0  0  0
   -0.2431    0.7883    1.3555 C   0  0  0  0  0  0  0  0  0  0  0  0
   -0.3864    0.2803    2.3126 H   0  0  0  0  0  0  0  0  0  0  0  0
    0.7817    1.1655    1.3431 H   0  0  0  0  0  0  0  0  0  0  0  0
   -1.1818    1.9744    1.2906 C   0  0  0  0  0  0  0  0  0  0  0  0
   -1.0694    3.0344    0.4118 N   0  3  0  0  0  0  0  0  0  0  0  0
   -0.3647    3.0813   -0.3297 H   0  0  0  0  0  0  0  0  0  0  0  0
   -2.0792    3.8945    0.6509 C   0  0  0  0  0  0  0  0  0  0  0  0
   -2.2606    4.8191    0.1067 H   0  0  0  0  0  0  0  0  0  0  0  0
   -2.8294    3.4038    1.6632 N   0  0  0  0  0  0  0  0  0  0  0  0
   -3.6597    3.8392    2.0562 H   0  0  0  0  0  0  0  0  0  0  0  0
   -2.2796    2.1983    2.0769 C   0  0  0  0  0  0  0  0  0  0  0  0
   -2.6428    1.5501    2.8695 H   0  0  0  0  0  0  0  0  0  0  0  0
    0.6847   -1.3248    0.1588 C   0  0  0  0  0  0  0  0  0  0  0  0
    1.8234   -1.0407   -0.2158 O   0  0  0  0  0  0  0  0  0  0  0  0
    0.3235   -2.5626    0.5185 N   0  0  0  0  0  0  0  0  0  0  0  0
   -0.6285   -2.6996    0.8223 H   0  0  0  0  0  0  0  0  0  0  0  0
    1.2002   -3.7376    0.5034 C   0  0  0  0  0  0  0  0  0  0  0  0
    1.5521   -3.9558    1.5137 H   0  0  0  0  0  0  0  0  0  0  0  0
    0.6534   -4.6055    0.1307 H   0  0  0  0  0  0  0  0  0  0  0  0
    2.0656   -3.5694   -0.1410 H   0  0  0  0  0  0  0  0  0  0  0  0
  5  6  2  0  0  0  0
  5  7  1  0  0  0  0
  2  3  1  0  0  0  0
  2  4  1  0  0  0  0
  2  5  1  0  0  0  0
  1  2  1  0  0  0  0
 23 24  2  0  0  0  0
 23 25  1  0  0  0  0
 21 22  1  0  0  0  0
 19 20  1  0  0  0  0
 19 21  1  0  0  0  0
 17 18  1  0  0  0  0
 17 19  1  0  0  0  0
 15 16  1  0  0  0  0
 15 17  2  0  0  0  0
 14 15  1  0  0  0  0
 14 21  2  0  0  0  0
 11 12  1  0  0  0  0
 11 13  1  0  0  0  0
 11 14  1  0  0  0  0
  9 10  1  0  0  0  0
  9 11  1  0  0  0  0
  9 23  1  0  0  0  0
  7  8  1  0  0  0  0
  7  9  1  0  0  0  0
 27 28  1  0  0  0  0
 27 29  1  0  0  0  0
 27 30  1  0  0  0  0
 25 26  1  0  0  0  0
 25 27  1  0  0  0  0
M  CHG  1  15   1
M  END
$$$$
default_name
  -OEChem-01062215323D

 30 30  0     1  0  0  0  0  0999 V2000
   -3.5507   -3.2183    1.8116 H   0  0  0  0  0  0  0  0  0  0  0  0
   -3.4597   -2.3913    1.1076 C   0  0  0  0  0  0  0  0  0  0  0  0
   -4.1577   -1.6043    1.3866 H   0  0  0  0  0  0  0  0  0  0  0  0
   -3.6807   -2.7523    0.1036 H   0  0  0  0  0  0  0  0  0  0  0  0
   -2.0477   -1.8543    1.1546 C   0  0  0  0  0  0  0  0  0  0  0  0
   -1.2227   -2.3443    1.9146 O   0  0  0  0  0  0  0  0  0  0  0  0
   -1.7517   -0.8483    0.3266 N   0  0  0  0  0  0  0  0  0  0  0  0
   -2.4847   -0.5123   -0.2804 H   0  0  0  0  0  0  0  0  0  0  0  0
   -0.4117   -0.2463    0.2186 C   0  0  1  0  0  0  0  0  0  0  0  0
   -0.3595    0.3009   -0.7259 H   0  0  0  0  0  0  0  0  0  0  0  0
   -0.2431    0.7883    1.3555 C   0  0  0  0  0  0  0  0  0  0  0  0
   -0.3864    0.2803    2.3126 H   0  0  0  0  0  0  0  0  0  0  0  0
    0.7817    1.1655    1.3431 H   0  0  0  0  0  0  0  0  0  0  0  0
   -1.1818    1.9744    1.2906 C   0  0  0  0  0  0  0  0  0  0  0  0
   -1.0694    3.0344    0.4118 N   0  3  0  0  0  0  0  0  0  0  0  0
   -0.3647    3.0813   -0.3297 H   0  0  0  0  0  0  0  0  0  0  0  0
   -2.0792    3.8945    0.6509 C   0  0  0  0  0  0  0  0  0  0  0  0
   -2.2606    4.8191    0.1067 H   0  0  0  0  0  0  0  0  0  0  0  0
   -2.8294    3.4038    1.6632 N   0  0  0  0  0  0  0  0  0  0  0  0
   -3.6597    3.8392    2.0562 H   0  0  0  0  0  0  0  0  0  0  0  0
   -2.2796    2.1983    2.0769 C   0  0  0  0  0  0  0  0  0  0  0  0
   -2.6428    1.5501    2.8695 H   0  0  0  0  0  0  0  0  0  0  0  0
    0.6847   -1.3248    0.1588 C   0  0  0  0  0  0  0  0  0  0  0  0
    1.8706   -1.0078    0.0550 O   0  0  0  0  0  0  0  0  0  0  0  0
    0.2726   -2.5974    0.2117 N   0  0  0  0  0  0  0  0  0  0  0  0
   -0.7179   -2.7619    0.3080 H   0  0  0  0  0  0  0  0  0  0  0  0
    1.1454   -3.7729    0.1376 C   0  0  0  0  0  0  0  0  0  0  0  0
    1.3088   -4.1822    1.1366 H   0  0  0  0  0  0  0  0  0  0  0  0
    0.6818   -4.5427   -0.4819 H   0  0  0  0  0  0  0  0  0  0  0  0
    2.1127   -3.5129   -0.2976 H   0  0  0  0  0  0  0  0  0  0  0  0
  5  6  2  0  0  0  0
  5  7  1  0  0  0  0
  2  3  1  0  0  0  0
  2  4  1  0  0  0  0
  2  5  1  0  0  0  0
  1  2  1  0  0  0  0
 23 24  2  0  0  0  0
 23 25  1  0  0  0  0
 21 22  1  0  0  0  0
 19 20  1  0  0  0  0
 19 21  1  0  0  0  0
 17 18  1  0  0  0  0
 17 19  1  0  0  0  0
 15 16  1  0  0  0  0
 15 17  2  0  0  0  0
 14 15  1  0  0  0  0
 14 21  2  0  0  0  0
 11 12  1  0  0  0  0
 11 13  1  0  0  0  0
 11 14  1  0  0  0  0
  9 10  1  0  0  0  0
  9 11  1  0  0  0  0
  9 23  1  0  0  0  0
  7  8  1  0  0  0  0
  7  9  1  0  0  0  0
 27 28  1  0  0  0  0
 27 29  1  0  0  0  0
 27 30  1  0  0  0  0
 25 26  1  0  0  0  0
 25 27  1  0  0  0  0
M  CHG  1  15   1
M  END
$$$$
default_name
  -OEChem-01062215323D

 30 30  0     1  0  0  0  0  0999 V2000
   -3.5507   -3.2183    1.8116 H   0  0  0  0  0  0  0  0  0  0  0  0
   -3.4597   -2.3913    1.1076 C   0  0  0  0  0  0  0  0  0  0  0  0
   -4.1577   -1.6043    1.3866 H   0  0  0  0  0  0  0  0  0  0  0  0
   -3.6807   -2.7523    0.1036 H   0  0  0  0  0  0  0  0  0  0  0  0
   -2.0477   -1.8543    1.1546 C   0  0  0  0  0  0  0  0  0  0  0  0
   -1.2227   -2.3443    1.9146 O   0  0  0  0  0  0  0  0  0  0  0  0
   -1.7517   -0.8483    0.3266 N   0  0  0  0  0  0  0  0  0  0  0  0
   -2.4847   -0.5123   -0.2804 H   0  0  0  0  0  0  0  0  0  0  0  0
   -0.4117   -0.2463    0.2186 C   0  0  1  0  0  0  0  0  0  0  0  0
   -0.3595    0.3009   -0.7259 H   0  0  0  0  0  0  0  0  0  0  0  0
   -0.2431    0.7883    1.3555 C   0  0  0  0  0  0  0  0  0  0  0  0
   -0.3864    0.2803    2.3126 H   0  0  0  0  0  0  0  0  0  0  0  0
    0.7817    1.1655    1.3431 H   0  0  0  0  0  0  0  0  0  0  0  0
   -1.1818    1.9744    1.2906 C   0  0  0  0  0  0  0  0  0  0  0  0
   -1.0694    3.0344    0.4118 N   0  3  0  0  0  0  0  0  0  0  0  0
   -0.3647    3.0813   -0.3297 H   0  0  0  0  0  0  0  0  0  0  0  0
   -2.0792    3.8945    0.6509 C   0  0  0  0  0  0  0  0  0  0  0  0
   -2.2606    4.8191    0.1067 H   0  0  0  0  0  0  0  0  0  0  0  0
   -2.8294    3.4038    1.6632 N   0  0  0  0  0  0  0  0  0  0  0  0
   -3.6597    3.8392    2.0562 H   0  0  0  0  0  0  0  0  0  0  0  0
   -2.2796    2.1983    2.0769 C   0  0  0  0  0  0  0  0  0  0  0  0
   -2.6428    1.5501    2.8695 H   0  0  0  0  0  0  0  0  0  0  0  0
    0.6847   -1.3248    0.1588 C   0  0  0  0  0  0  0  0  0  0  0  0
    1.8674   -1.0263    0.3313 O   0  0  0  0  0  0  0  0  0  0  0  0
    0.2787   -2.5739   -0.1002 N   0  0  0  0  0  0  0  0  0  0  0  0
   -0.7116   -2.7264   -0.2164 H   0  0  0  0  0  0  0  0  0  0  0  0
    1.1586   -3.7391   -0.2322 C   0  0  0  0  0  0  0  0  0  0  0  0
    1.1399   -4.3289    0.6864 H   0  0  0  0  0  0  0  0  0  0  0  0
    0.8210   -4.3693   -1.0568 H   0  0  0  0  0  0  0  0  0  0  0  0
    2.1871   -3.4299   -0.4298 H   0  0  0  0  0  0  0  0  0  0  0  0
  5  6  2  0  0  0  0
  5  7  1  0  0  0  0
  2  3  1  0  0  0  0
  2  4  1  0  0  0  0
  2  5  1  0  0  0  0
  1  2  1  0  0  0  0
 23 24  2  0  0  0  0
 23 25  1  0  0  0  0
 21 22  1  0  0  0  0
 19 20  1  0  0  0  0
 19 21  1  0  0  0  0
 17 18  1  0  0  0  0
 17 19  1  0  0  0  0
 15 16  1  0  0  0  0
 15 17  2  0  0  0  0
 14 15  1  0  0  0  0
 14 21  2  0  0  0  0
 11 12  1  0  0  0  0
 11 13  1  0  0  0  0
 11 14  1  0  0  0  0
  9 10  1  0  0  0  0
  9 11  1  0  0  0  0
  9 23  1  0  0  0  0
  7  8  1  0  0  0  0
  7  9  1  0  0  0  0
 27 28  1  0  0  0  0
 27 29  1  0  0  0  0
 27 30  1  0  0  0  0
 25 26  1  0  0  0  0
 25 27  1  0  0  0  0
M  CHG  1  15   1
M  END
$$$$
default_name
  -OEChem-01062215323D

 30 30  0     1  0  0  0  0  0999 V2000
   -3.5507   -3.2183    1.8116 H   0  0  0  0  0  0  0  0  0  0  0  0
   -3.4597   -2.3913    1.1076 C   0  0  0  0  0  0  0  0  0  0  0  0
   -4.1577   -1.6043    1.3866 H   0  0  0  0  0  0  0  0  0  0  0  0
   -3.6807   -2.7523    0.1036 H   0  0  0  0  0  0  0  0  0  0  0  0
   -2.0477   -1.8543    1.1546 C   0  0  0  0  0  0  0  0  0  0  0  0
   -1.2227   -2.3443    1.9146 O   0  0  0  0  0  0  0  0  0  0  0  0
   -1.7517   -0.8483    0.3266 N   0  0  0  0  0  0  0  0  0  0  0  0
   -2.4847   -0.5123   -0.2804 H   0  0  0  0  0  0  0  0  0  0  0  0
   -0.4117   -0.2463    0.2186 C   0  0  1  0  0  0  0  0  0  0  0  0
   -0.3595    0.3009   -0.7259 H   0  0  0  0  0  0  0  0  0  0  0  0
   -0.2431    0.7883    1.3555 C   0  0  0  0  0  0  0  0  0  0  0  0
   -0.3864    0.2803    2.3126 H   0  0  0  0  0  0  0  0  0  0  0  0
    0.7817    1.1655    1.3431 H   0  0  0  0  0  0  0  0  0  0  0  0
   -1.1818    1.9744    1.2906 C   0  0  0  0  0  0  0  0  0  0  0  0
   -1.0694    3.0344    0.4118 N   0  3  0  0  0  0  0  0  0  0  0  0
   -0.3647    3.0813   -0.3297 H   0  0  0  0  0  0  0  0  0  0  0  0
   -2.0792    3.8945    0.6509 C   0  0  0  0  0  0  0  0  0  0  0  0
   -2.2606    4.8191    0.1067 H   0  0  0  0  0  0  0  0  0  0  0  0
   -2.8294    3.4038    1.6632 N   0  0  0  0  0  0  0  0  0  0  0  0
   -3.6597    3.8392    2.0562 H   0  0  0  0  0  0  0  0  0  0  0  0
   -2.2796    2.1983    2.0769 C   0  0  0  0  0  0  0  0  0  0  0  0
   -2.6428    1.5501    2.8695 H   0  0  0  0  0  0  0  0  0  0  0  0
    0.6847   -1.3248    0.1588 C   0  0  0  0  0  0  0  0  0  0  0  0
    1.8141   -1.0952    0.5941 O   0  0  0  0  0  0  0  0  0  0  0  0
    0.3414   -2.4937   -0.3961 N   0  0  0  0  0  0  0  0  0  0  0  0
   -0.6100   -2.5954   -0.7153 H   0  0  0  0  0  0  0  0  0  0  0  0
    1.2386   -3.6383   -0.5807 C   0  0  0  0  0  0  0  0  0  0  0  0
    1.0569   -4.3859    0.1940 H   0  0  0  0  0  0  0  0  0  0  0  0
    1.0615   -4.0972   -1.5550 H   0  0  0  0  0  0  0  0  0  0  0  0
    2.2838   -3.3261   -0.5288 H   0  0  0  0  0  0  0  0  0  0  0  0
  5  6  2  0  0  0  0
  5  7  1  0  0  0  0
  2  3  1  0  0  0  0
  2  4  1  0  0  0  0
  2  5  1  0  0  0  0
  1  2  1  0  0  0  0
 23 24  2  0  0  0  0
 23 25  1  0  0  0  0
 21 22  1  0  0  0  0
 19 20  1  0  0  0  0
 19 21  1  0  0  0  0
 17 18  1  0  0  0  0
 17 19  1  0  0  0  0
 15 16  1  0  0  0  0
 15 17  2  0  0  0  0
 14 15  1  0  0  0  0
 14 21  2  0  0  0  0
 11 12  1  0  0  0  0
 11 13  1  0  0  0  0
 11 14  1  0  0  0  0
  9 10  1  0  0  0  0
  9 11  1  0  0  0  0
  9 23  1  0  0  0  0
  7  8  1  0  0  0  0
  7  9  1  0  0  0  0
 27 28  1  0  0  0  0
 27 29  1  0  0  0  0
 27 30  1  0  0  0  0
 25 26  1  0  0  0  0
 25 27  1  0  0  0  0
M  CHG  1  15   1
M  END
$$$$
default_name
  -OEChem-01062215323D

 30 30  0     1  0  0  0  0  0999 V2000
   -3.5507   -3.2183    1.8116 H   0  0  0  0  0  0  0  0  0  0  0  0
   -3.4597   -2.3913    1.1076 C   0  0  0  0  0  0  0  0  0  0  0  0
   -4.1577   -1.6043    1.3866 H   0  0  0  0  0  0  0  0  0  0  0  0
   -3.6807   -2.7523    0.1036 H   0  0  0  0  0  0  0  0  0  0  0  0
   -2.0477   -1.8543    1.1546 C   0  0  0  0  0  0  0  0  0  0  0  0
   -1.2227   -2.3443    1.9146 O   0  0  0  0  0  0  0  0  0  0  0  0
   -1.7517   -0.8483    0.3266 N   0  0  0  0  0  0  0  0  0  0  0  0
   -2.4847   -0.5123   -0.2804 H   0  0  0  0  0  0  0  0  0  0  0  0
   -0.4117   -0.2463    0.2186 C   0  0  1  0  0  0  0  0  0  0  0  0
   -0.3595    0.3009   -0.7259 H   0  0  0  0  0  0  0  0  0  0  0  0
   -0.2431    0.7883    1.3555 C   0  0  0  0  0  0  0  0  0  0  0  0
   -0.3864    0.2803    2.3126 H   0  0  0  0  0  0  0  0  0  0  0  0
    0.7817    1.1655    1.3431 H   0  0  0  0  0  0  0  0  0  0  0  0
   -1.1818    1.9744    1.2906 C   0  0  0  0  0  0  0  0  0  0  0  0
   -1.0694    3.0344    0.4118 N   0  3  0  0  0  0  0  0  0  0  0  0
   -0.3647    3.0813   -0.3297 H   0  0  0  0  0  0  0  0  0  0  0  0
   -2.0792    3.8945    0.6509 C   0  0  0  0  0  0  0  0  0  0  0  0
   -2.2606    4.8191    0.1067 H   0  0  0  0  0  0  0  0  0  0  0  0
   -2.8294    3.4038    1.6632 N   0  0  0  0  0  0  0  0  0  0  0  0
   -3.6597    3.8392    2.0562 H   0  0  0  0  0  0  0  0  0  0  0  0
   -2.2796    2.1983    2.0769 C   0  0  0  0  0  0  0  0  0  0  0  0
   -2.6428    1.5501    2.8695 H   0  0  0  0  0  0  0  0  0  0  0  0
    0.6847   -1.3248    0.1588 C   0  0  0  0  0  0  0  0  0  0  0  0
    1.7142   -1.2096    0.8256 O   0  0  0  0  0  0  0  0  0  0  0  0
    0.4564   -2.3623   -0.6558 N   0  0  0  0  0  0  0  0  0  0  0  0
   -0.4201   -2.3780   -1.1546 H   0  0  0  0  0  0  0  0  0  0  0  0
    1.3802   -3.4776   -0.8843 C   0  0  0  0  0  0  0  0  0  0  0  0
    1.0655   -4.3494   -0.3073 H   0  0  0  0  0  0  0  0  0  0  0  0
    1.3868   -3.7449   -1.9424 H   0  0  0  0  0  0  0  0  0  0  0  0
    2.3962   -3.2086   -0.5877 H   0  0  0  0  0  0  0  0  0  0  0  0
  5  6  2  0  0  0  0
  5  7  1  0  0  0  0
  2  3  1  0  0  0  0
  2  4  1  0  0  0  0
  2  5  1  0  0  0  0
  1  2  1  0  0  0  0
 23 24  2  0  0  0  0
 23 25  1  0  0  0  0
 21 22  1  0  0  0  0
 19 20  1  0  0  0  0
 19 21  1  0  0  0  0
 17 18  1  0  0  0  0
 17 19  1  0  0  0  0
 15 16  1  0  0  0  0
 15 17  2  0  0  0  0
 14 15  1  0  0  0  0
 14 21  2  0  0  0  0
 11 12  1  0  0  0  0
 11 13  1  0  0  0  0
 11 14  1  0  0  0  0
  9 10  1  0  0  0  0
  9 11  1  0  0  0  0
  9 23  1  0  0  0  0
  7  8  1  0  0  0  0
  7  9  1  0  0  0  0
 27 28  1  0  0  0  0
 27 29  1  0  0  0  0
 27 30  1  0  0  0  0
 25 26  1  0  0  0  0
 25 27  1  0  0  0  0
M  CHG  1  15   1
M  END
$$$$
default_name
  -OEChem-01062215323D

 30 30  0     1  0  0  0  0  0999 V2000
   -3.5507   -3.2183    1.8116 H   0  0  0  0  0  0  0  0  0  0  0  0
   -3.4597   -2.3913    1.1076 C   0  0  0  0  0  0  0  0  0  0  0  0
   -4.1577   -1.6043    1.3866 H   0  0  0  0  0  0  0  0  0  0  0  0
   -3.6807   -2.7523    0.1036 H   0  0  0  0  0  0  0  0  0  0  0  0
   -2.0477   -1.8543    1.1546 C   0  0  0  0  0  0  0  0  0  0  0  0
   -1.2227   -2.3443    1.9146 O   0  0  0  0  0  0  0  0  0  0  0  0
   -1.7517   -0.8483    0.3266 N   0  0  0  0  0  0  0  0  0  0  0  0
   -2.4847   -0.5123   -0.2804 H   0  0  0  0  0  0  0  0  0  0  0  0
   -0.4117   -0.2463    0.2186 C   0  0  1  0  0  0  0  0  0  0  0  0
   -0.3595    0.3009   -0.7259 H   0  0  0  0  0  0  0  0  0  0  0  0
   -0.2431    0.7883    1.3555 C   0  0  0  0  0  0  0  0  0  0  0  0
   -0.3864    0.2803    2.3126 H   0  0  0  0  0  0  0  0  0  0  0  0
    0.7817    1.1655    1.3431 H   0  0  0  0  0  0  0  0  0  0  0  0
   -1.1818    1.9744    1.2906 C   0  0  0  0  0  0  0  0  0  0  0  0
   -1.0694    3.0344    0.4118 N   0  3  0  0  0  0  0  0  0  0  0  0
   -0.3647    3.0813   -0.3297 H   0  0  0  0  0  0  0  0  0  0  0  0
   -2.0792    3.8945    0.6509 C   0  0  0  0  0  0  0  0  0  0  0  0
   -2.2606    4.8191    0.1067 H   0  0  0  0  0  0  0  0  0  0  0  0
   -2.8294    3.4038    1.6632 N   0  0  0  0  0  0  0  0  0  0  0  0
   -3.6597    3.8392    2.0562 H   0  0  0  0  0  0  0  0  0  0  0  0
   -2.2796    2.1983    2.0769 C   0  0  0  0  0  0  0  0  0  0  0  0
   -2.6428    1.5501    2.8695 H   0  0  0  0  0  0  0  0  0  0  0  0
    0.6847   -1.3248    0.1588 C   0  0  0  0  0  0  0  0  0  0  0  0
    1.5745   -1.3618    1.0100 O   0  0  0  0  0  0  0  0  0  0  0  0
    0.6160   -2.1887   -0.8615 N   0  0  0  0  0  0  0  0  0  0  0  0
   -0.1548   -2.0889   -1.5044 H   0  0  0  0  0  0  0  0  0  0  0  0
    1.5737   -3.2677   -1.1222 C   0  0  0  0  0  0  0  0  0  0  0  0
    1.1650   -4.2218   -0.7832 H   0  0  0  0  0  0  0  0  0  0  0  0
    1.7749   -3.3365   -2.1927 H   0  0  0  0  0  0  0  0  0  0  0  0
    2.5167   -3.0853   -0.6026 H   0  0  0  0  0  0  0  0  0  0  0  0
  5  6  2  0  0  0  0
  5  7  1  0  0  0  0
  2  3  1  0  0  0  0
  2  4  1  0  0  0  0
  2  5  1  0  0  0  0
  1  2  1  0  0  0  0
 23 24  2  0  0  0  0
 23 25  1  0  0  0  0
 21 22  1  0  0  0  0
 19 20  1  0  0  0  0
 19 21  1  0  0  0  0
 17 18  1  0  0  0  0
 17 19  1  0  0  0  0
 15 16  1  0  0  0  0
 15 17  2  0  0  0  0
 14 15  1  0  0  0  0
 14 21  2  0  0  0  0
 11 12  1  0  0  0  0
 11 13  1  0  0  0  0
 11 14  1  0  0  0  0
  9 10  1  0  0  0  0
  9 11  1  0  0  0  0
  9 23  1  0  0  0  0
  7  8  1  0  0  0  0
  7  9  1  0  0  0  0
 27 28  1  0  0  0  0
 27 29  1  0  0  0  0
 27 30  1  0  0  0  0
 25 26  1  0  0  0  0
 25 27  1  0  0  0  0
M  CHG  1  15   1
M  END
$$$$
default_name
  -OEChem-01062215323D

 30 30  0     1  0  0  0  0  0999 V2000
   -3.5507   -3.2183    1.8116 H   0  0  0  0  0  0  0  0  0  0  0  0
   -3.4597   -2.3913    1.1076 C   0  0  0  0  0  0  0  0  0  0  0  0
   -4.1577   -1.6043    1.3866 H   0  0  0  0  0  0  0  0  0  0  0  0
   -3.6807   -2.7523    0.1036 H   0  0  0  0  0  0  0  0  0  0  0  0
   -2.0477   -1.8543    1.1546 C   0  0  0  0  0  0  0  0  0  0  0  0
   -1.2227   -2.3443    1.9146 O   0  0  0  0  0  0  0  0  0  0  0  0
   -1.7517   -0.8483    0.3266 N   0  0  0  0  0  0  0  0  0  0  0  0
   -2.4847   -0.5123   -0.2804 H   0  0  0  0  0  0  0  0  0  0  0  0
   -0.4117   -0.2463    0.2186 C   0  0  1  0  0  0  0  0  0  0  0  0
   -0.3595    0.3009   -0.7259 H   0  0  0  0  0  0  0  0  0  0  0  0
   -0.2431    0.7883    1.3555 C   0  0  0  0  0  0  0  0  0  0  0  0
   -0.3864    0.2803    2.3126 H   0  0  0  0  0  0  0  0  0  0  0  0
    0.7817    1.1655    1.3431 H   0  0  0  0  0  0  0  0  0  0  0  0
   -1.1818    1.9744    1.2906 C   0  0  0  0  0  0  0  0  0  0  0  0
   -1.0694    3.0344    0.4118 N   0  3  0  0  0  0  0  0  0  0  0  0
   -0.3647    3.0813   -0.3297 H   0  0  0  0  0  0  0  0  0  0  0  0
   -2.0792    3.8945    0.6509 C   0  0  0  0  0  0  0  0  0  0  0  0
   -2.2606    4.8191    0.1067 H   0  0  0  0  0  0  0  0  0  0  0  0
   -2.8294    3.4038    1.6632 N   0  0  0  0  0  0  0  0  0  0  0  0
   -3.6597    3.8392    2.0562 H   0  0  0  0  0  0  0  0  0  0  0  0
   -2.2796    2.1983    2.0769 C   0  0  0  0  0  0  0  0  0  0  0  0
   -2.6428    1.5501    2.8695 H   0  0  0  0  0  0  0  0  0  0  0  0
    0.6847   -1.3248    0.1588 C   0  0  0  0  0  0  0  0  0  0  0  0
    1.4046   -1.5414    1.1347 O   0  0  0  0  0  0  0  0  0  0  0  0
    0.8091   -1.9847   -0.9993 N   0  0  0  0  0  0  0  0  0  0  0  0
    0.1678   -1.7479   -1.7409 H   0  0  0  0  0  0  0  0  0  0  0  0
    1.8058   -3.0231   -1.2783 C   0  0  0  0  0  0  0  0  0  0  0  0
    1.3488   -4.0117   -1.2013 H   0  0  0  0  0  0  0  0  0  0  0  0
    2.1993   -2.8998   -2.2887 H   0  0  0  0  0  0  0  0  0  0  0  0
    2.6369   -2.9647   -0.5723 H   0  0  0  0  0  0  0  0  0  0  0  0
  5  6  2  0  0  0  0
  5  7  1  0  0  0  0
  2  3  1  0  0  0  0
  2  4  1  0  0  0  0
  2  5  1  0  0  0  0
  1  2  1  0  0  0  0
 23 24  2  0  0  0  0
 23 25  1  0  0  0  0
 21 22  1  0  0  0  0
 19 20  1  0  0  0  0
 19 21  1  0  0  0  0
 17 18  1  0  0  0  0
 17 19  1  0  0  0  0
 15 16  1  0  0  0  0
 15 17  2  0  0  0  0
 14 15  1  0  0  0  0
 14 21  2  0  0  0  0
 11 12  1  0  0  0  0
 11 13  1  0  0  0  0
 11 14  1  0  0  0  0
  9 10  1  0  0  0  0
  9 11  1  0  0  0  0
  9 23  1  0  0  0  0
  7  8  1  0  0  0  0
  7  9  1  0  0  0  0
 27 28  1  0  0  0  0
 27 29  1  0  0  0  0
 27 30  1  0  0  0  0
 25 26  1  0  0  0  0
 25 27  1  0  0  0  0
M  CHG  1  15   1
M  END
$$$$
default_name
  -OEChem-01062215323D

 30 30  0     1  0  0  0  0  0999 V2000
   -3.5507   -3.2183    1.8116 H   0  0  0  0  0  0  0  0  0  0  0  0
   -3.4597   -2.3913    1.1076 C   0  0  0  0  0  0  0  0  0  0  0  0
   -4.1577   -1.6043    1.3866 H   0  0  0  0  0  0  0  0  0  0  0  0
   -3.6807   -2.7523    0.1036 H   0  0  0  0  0  0  0  0  0  0  0  0
   -2.0477   -1.8543    1.1546 C   0  0  0  0  0  0  0  0  0  0  0  0
   -1.2227   -2.3443    1.9146 O   0  0  0  0  0  0  0  0  0  0  0  0
   -1.7517   -0.8483    0.3266 N   0  0  0  0  0  0  0  0  0  0  0  0
   -2.4847   -0.5123   -0.2804 H   0  0  0  0  0  0  0  0  0  0  0  0
   -0.4117   -0.2463    0.2186 C   0  0  1  0  0  0  0  0  0  0  0  0
   -0.3595    0.3009   -0.7259 H   0  0  0  0  0  0  0  0  0  0  0  0
   -0.2431    0.7883    1.3555 C   0  0  0  0  0  0  0  0  0  0  0  0
   -0.3864    0.2803    2.3126 H   0  0  0  0  0  0  0  0  0  0  0  0
    0.7817    1.1655    1.3431 H   0  0  0  0  0  0  0  0  0  0  0  0
   -1.1818    1.9744    1.2906 C   0  0  0  0  0  0  0  0  0  0  0  0
   -1.0694    3.0344    0.4118 N   0  3  0  0  0  0  0  0  0  0  0  0
   -0.3647    3.0813   -0.3297 H   0  0  0  0  0  0  0  0  0  0  0  0
   -2.0792    3.8945    0.6509 C   0  0  0  0  0  0  0  0  0  0  0  0
   -2.2606    4.8191    0.1067 H   0  0  0  0  0  0  0  0  0  0  0  0
   -2.8294    3.4038    1.6632 N   0  0  0  0  0  0  0  0  0  0  0  0
   -3.6597    3.8392    2.0562 H   0  0  0  0  0  0  0  0  0  0  0  0
   -2.2796    2.1983    2.0769 C   0  0  0  0  0  0  0  0  0  0  0  0
   -2.6428    1.5501    2.8695 H   0  0  0  0  0  0  0  0  0  0  0  0
    0.6847   -1.3248    0.1588 C   0  0  0  0  0  0  0  0  0  0  0  0
    1.2161   -1.7362    1.1913 O   0  0  0  0  0  0  0  0  0  0  0  0
    1.0227   -1.7642   -1.0597 N   0  0  0  0  0  0  0  0  0  0  0  0
    0.5257   -1.3781   -1.8479 H   0  0  0  0  0  0  0  0  0  0  0  0
    2.0607   -2.7604   -1.3418 C   0  0  0  0  0  0  0  0  0  0  0  0
    1.6043   -3.7336   -1.5330 H   0  0  0  0  0  0  0  0  0  0  0  0
    2.6310   -2.4646   -2.2240 H   0  0  0  0  0  0  0  0  0  0  0  0
    2.7488   -2.8551   -0.4991 H   0  0  0  0  0  0  0  0  0  0  0  0
  5  6  2  0  0  0  0
  5  7  1  0  0  0  0
  2  3  1  0  0  0  0
  2  4  1  0  0  0  0
  2  5  1  0  0  0  0
  1  2  1  0  0  0  0
 23 24  2  0  0  0  0
 23 25  1  0  0  0  0
 21 22  1  0  0  0  0
 19 20  1  0  0  0  0
 19 21  1  0  0  0  0
 17 18  1  0  0  0  0
 17 19  1  0  0  0  0
 15 16  1  0  0  0  0
 15 17  2  0  0  0  0
 14 15  1  0  0  0  0
 14 21  2  0  0  0  0
 11 12  1  0  0  0  0
 11 13  1  0  0  0  0
 11 14  1  0  0  0  0
  9 10  1  0  0  0  0
  9 11  1  0  0  0  0
  9 23  1  0  0  0  0
  7  8  1  0  0  0  0
  7  9  1  0  0  0  0
 27 28  1  0  0  0  0
 27 29  1  0  0  0  0
 27 30  1  0  0  0  0
 25 26  1  0  0  0  0
 25 27  1  0  0  0  0
M  CHG  1  15   1
M  END
$$$$
default_name
  -OEChem-01062215323D

 30 30  0     1  0  0  0  0  0999 V2000
   -3.5507   -3.2183    1.8116 H   0  0  0  0  0  0  0  0  0  0  0  0
   -3.4597   -2.3913    1.1076 C   0  0  0  0  0  0  0  0  0  0  0  0
   -4.1577   -1.6043    1.3866 H   0  0  0  0  0  0  0  0  0  0  0  0
   -3.6807   -2.7523    0.1036 H   0  0  0  0  0  0  0  0  0  0  0  0
   -2.0477   -1.8543    1.1546 C   0  0  0  0  0  0  0  0  0  0  0  0
   -1.2227   -2.3443    1.9146 O   0  0  0  0  0  0  0  0  0  0  0  0
   -1.7517   -0.8483    0.3266 N   0  0  0  0  0  0  0  0  0  0  0  0
   -2.4847   -0.5123   -0.2804 H   0  0  0  0  0  0  0  0  0  0  0  0
   -0.4117   -0.2463    0.2186 C   0  0  1  0  0  0  0  0  0  0  0  0
   -0.3595    0.3009   -0.7259 H   0  0  0  0  0  0  0  0  0  0  0  0
   -0.2431    0.7883    1.3555 C   0  0  0  0  0  0  0  0  0  0  0  0
   -0.3864    0.2803    2.3126 H   0  0  0  0  0  0  0  0  0  0  0  0
    0.7817    1.1655    1.3431 H   0  0  0  0  0  0  0  0  0  0  0  0
   -1.1818    1.9744    1.2906 C   0  0  0  0  0  0  0  0  0  0  0  0
   -1.0694    3.0344    0.4118 N   0  3  0  0  0  0  0  0  0  0  0  0
   -0.3647    3.0813   -0.3297 H   0  0  0  0  0  0  0  0  0  0  0  0
   -2.0792    3.8945    0.6509 C   0  0  0  0  0  0  0  0  0  0  0  0
   -2.2606    4.8191    0.1067 H   0  0  0  0  0  0  0  0  0  0  0  0
   -2.8294    3.4038    1.6632 N   0  0  0  0  0  0  0  0  0  0  0  0
   -3.6597    3.8392    2.0562 H   0  0  0  0  0  0  0  0  0  0  0  0
   -2.2796    2.1983    2.0769 C   0  0  0  0  0  0  0  0  0  0  0  0
   -2.6428    1.5501    2.8695 H   0  0  0  0  0  0  0  0  0  0  0  0
    0.6847   -1.3248    0.1588 C   0  0  0  0  0  0  0  0  0  0  0  0
    1.0218   -1.9328    1.1758 O   0  0  0  0  0  0  0  0  0  0  0  0
    1.2423   -1.5423   -1.0387 N   0  0  0  0  0  0  0  0  0  0  0  0
    0.8946   -1.0047   -1.8182 H   0  0  0  0  0  0  0  0  0  0  0  0
    2.3212   -2.4975   -1.3085 C   0  0  0  0  0  0  0  0  0  0  0  0
    1.9140   -3.4064   -1.7559 H   0  0  0  0  0  0  0  0  0  0  0  0
    3.0407   -2.0604   -2.0030 H   0  0  0  0  0  0  0  0  0  0  0  0
    2.8448   -2.7637   -0.3878 H   0  0  0  0  0  0  0  0  0  0  0  0
  5  6  2  0  0  0  0
  5  7  1  0  0  0  0
  2  3  1  0  0  0  0
  2  4  1  0  0  0  0
  2  5  1  0  0  0  0
  1  2  1  0  0  0  0
 23 24  2  0  0  0  0
 23 25  1  0  0  0  0
 21 22  1  0  0  0  0
 19 20  1  0  0  0  0
 19 21  1  0  0  0  0
 17 18  1  0  0  0  0
 17 19  1  0  0  0  0
 15 16  1  0  0  0  0
 15 17  2  0  0  0  0
 14 15  1  0  0  0  0
 14 21  2  0  0  0  0
 11 12  1  0  0  0  0
 11 13  1  0  0  0  0
 11 14  1  0  0  0  0
  9 10  1  0  0  0  0
  9 11  1  0  0  0  0
  9 23  1  0  0  0  0
  7  8  1  0  0  0  0
  7  9  1  0  0  0  0
 27 28  1  0  0  0  0
 27 29  1  0  0  0  0
 27 30  1  0  0  0  0
 25 26  1  0  0  0  0
 25 27  1  0  0  0  0
M  CHG  1  15   1
M  END
$$$$
default_name
  -OEChem-01062215323D

 30 30  0     1  0  0  0  0  0999 V2000
   -3.5507   -3.2183    1.8116 H   0  0  0  0  0  0  0  0  0  0  0  0
   -3.4597   -2.3913    1.1076 C   0  0  0  0  0  0  0  0  0  0  0  0
   -4.1577   -1.6043    1.3866 H   0  0  0  0  0  0  0  0  0  0  0  0
   -3.6807   -2.7523    0.1036 H   0  0  0  0  0  0  0  0  0  0  0  0
   -2.0477   -1.8543    1.1546 C   0  0  0  0  0  0  0  0  0  0  0  0
   -1.2227   -2.3443    1.9146 O   0  0  0  0  0  0  0  0  0  0  0  0
   -1.7517   -0.8483    0.3266 N   0  0  0  0  0  0  0  0  0  0  0  0
   -2.4847   -0.5123   -0.2804 H   0  0  0  0  0  0  0  0  0  0  0  0
   -0.4117   -0.2463    0.2186 C   0  0  1  0  0  0  0  0  0  0  0  0
   -0.3595    0.3009   -0.7259 H   0  0  0  0  0  0  0  0  0  0  0  0
   -0.2431    0.7883    1.3555 C   0  0  0  0  0  0  0  0  0  0  0  0
   -0.3864    0.2803    2.3126 H   0  0  0  0  0  0  0  0  0  0  0  0
    0.7817    1.1655    1.3431 H   0  0  0  0  0  0  0  0  0  0  0  0
   -1.1818    1.9744    1.2906 C   0  0  0  0  0  0  0  0  0  0  0  0
   -1.0694    3.0344    0.4118 N   0  3  0  0  0  0  0  0  0  0  0  0
   -0.3647    3.0813   -0.3297 H   0  0  0  0  0  0  0  0  0  0  0  0
   -2.0792    3.8945    0.6509 C   0  0  0  0  0  0  0  0  0  0  0  0
   -2.2606    4.8191    0.1067 H   0  0  0  0  0  0  0  0  0  0  0  0
   -2.8294    3.4038    1.6632 N   0  0  0  0  0  0  0  0  0  0  0  0
   -3.6597    3.8392    2.0562 H   0  0  0  0  0  0  0  0  0  0  0  0
   -2.2796    2.1983    2.0769 C   0  0  0  0  0  0  0  0  0  0  0  0
   -2.6428    1.5501    2.8695 H   0  0  0  0  0  0  0  0  0  0  0  0
    0.6847   -1.3248    0.1588 C   0  0  0  0  0  0  0  0  0  0  0  0
    0.8349   -2.1180    1.0894 O   0  0  0  0  0  0  0  0  0  0  0  0
    1.4527   -1.3339   -0.9376 N   0  0  0  0  0  0  0  0  0  0  0  0
    1.2493   -0.6533   -1.6537 H   0  0  0  0  0  0  0  0  0  0  0  0
    2.5693   -2.2523   -1.1806 C   0  0  0  0  0  0  0  0  0  0  0  0
    2.2569   -3.0524   -1.8547 H   0  0  0  0  0  0  0  0  0  0  0  0
    3.4004   -1.7149   -1.6407 H   0  0  0  0  0  0  0  0  0  0  0  0
    2.9181   -2.6970   -0.2461 H   0  0  0  0  0  0  0  0  0  0  0  0
  5  6  2  0  0  0  0
  5  7  1  0  0  0  0
  2  3  1  0  0  0  0
  2  4  1  0  0  0  0
  2  5  1  0  0  0  0
  1  2  1  0  0  0  0
 23 24  2  0  0  0  0
 23 25  1  0  0  0  0
 21 22  1  0  0  0  0
 19 20  1  0  0  0  0
 19 21  1  0  0  0  0
 17 18  1  0  0  0  0
 17 19  1  0  0  0  0
 15 16  1  0  0  0  0
 15 17  2  0  0  0  0
 14 15  1  0  0  0  0
 14 21  2  0  0  0  0
 11 12  1  0  0  0  0
 11 13  1  0  0  0  0
 11 14  1  0  0  0  0
  9 10  1  0  0  0  0
  9 11  1  0  0  0  0
  9 23  1  0  0  0  0
  7  8  1  0  0  0  0
  7  9  1  0  0  0  0
 27 28  1  0  0  0  0
 27 29  1  0  0  0  0
 27 30  1  0  0  0  0
 25 26  1  0  0  0  0
 25 27  1  0  0  0  0
M  CHG  1  15   1
M  END
$$$$
default_name
  -OEChem-01062215323D

 30 30  0     1  0  0  0  0  0999 V2000
   -3.5507   -3.2183    1.8116 H   0  0  0  0  0  0  0  0  0  0  0  0
   -3.4597   -2.3913    1.1076 C   0  0  0  0  0  0  0  0  0  0  0  0
   -4.1577   -1.6043    1.3866 H   0  0  0  0  0  0  0  0  0  0  0  0
   -3.6807   -2.7523    0.1036 H   0  0  0  0  0  0  0  0  0  0  0  0
   -2.0477   -1.8543    1.1546 C   0  0  0  0  0  0  0  0  0  0  0  0
   -1.2227   -2.3443    1.9146 O   0  0  0  0  0  0  0  0  0  0  0  0
   -1.7517   -0.8483    0.3266 N   0  0  0  0  0  0  0  0  0  0  0  0
   -2.4847   -0.5123   -0.2804 H   0  0  0  0  0  0  0  0  0  0  0  0
   -0.4117   -0.2463    0.2186 C   0  0  1  0  0  0  0  0  0  0  0  0
   -0.3595    0.3009   -0.7259 H   0  0  0  0  0  0  0  0  0  0  0  0
   -0.2431    0.7883    1.3555 C   0  0  0  0  0  0  0  0  0  0  0  0
   -0.3864    0.2803    2.3126 H   0  0  0  0  0  0  0  0  0  0  0  0
    0.7817    1.1655    1.3431 H   0  0  0  0  0  0  0  0  0  0  0  0
   -1.1818    1.9744    1.2906 C   0  0  0  0  0  0  0  0  0  0  0  0
   -1.0694    3.0344    0.4118 N   0  3  0  0  0  0  0  0  0  0  0  0
   -0.3647    3.0813   -0.3297 H   0  0  0  0  0  0  0  0  0  0  0  0
   -2.0792    3.8945    0.6509 C   0  0  0  0  0  0  0  0  0  0  0  0
   -2.2606    4.8191    0.1067 H   0  0  0  0  0  0  0  0  0  0  0  0
   -2.8294    3.4038    1.6632 N   0  0  0  0  0  0  0  0  0  0  0  0
   -3.6597    3.8392    2.0562 H   0  0  0  0  0  0  0  0  0  0  0  0
   -2.2796    2.1983    2.0769 C   0  0  0  0  0  0  0  0  0  0  0  0
   -2.6428    1.5501    2.8695 H   0  0  0  0  0  0  0  0  0  0  0  0
    0.6847   -1.3248    0.1588 C   0  0  0  0  0  0  0  0  0  0  0  0
    0.6683   -2.2790    0.9379 O   0  0  0  0  0  0  0  0  0  0  0  0
    1.6398   -1.1534   -0.7634 N   0  0  0  0  0  0  0  0  0  0  0  0
    1.5656   -0.3478   -1.3658 H   0  0  0  0  0  0  0  0  0  0  0  0
    2.7883   -2.0416   -0.9668 C   0  0  0  0  0  0  0  0  0  0  0  0
    2.6096   -2.6957   -1.8226 H   0  0  0  0  0  0  0  0  0  0  0  0
    3.6855   -1.4516   -1.1617 H   0  0  0  0  0  0  0  0  0  0  0  0
    2.9640   -2.6594   -0.0836 H   0  0  0  0  0  0  0  0  0  0  0  0
  5  6  2  0  0  0  0
  5  7  1  0  0  0  0
  2  3  1  0  0  0  0
  2  4  1  0  0  0  0
  2  5  1  0  0  0  0
  1  2  1  0  0  0  0
 23 24  2  0  0  0  0
 23 25  1  0  0  0  0
 21 22  1  0  0  0  0
 19 20  1  0  0  0  0
 19 21  1  0  0  0  0
 17 18  1  0  0  0  0
 17 19  1  0  0  0  0
 15 16  1  0  0  0  0
 15 17  2  0  0  0  0
 14 15  1  0  0  0  0
 14 21  2  0  0  0  0
 11 12  1  0  0  0  0
 11 13  1  0  0  0  0
 11 14  1  0  0  0  0
  9 10  1  0  0  0  0
  9 11  1  0  0  0  0
  9 23  1  0  0  0  0
  7  8  1  0  0  0  0
  7  9  1  0  0  0  0
 27 28  1  0  0  0  0
 27 29  1  0  0  0  0
 27 30  1  0  0  0  0
 25 26  1  0  0  0  0
 25 27  1  0  0  0  0
M  CHG  1  15   1
M  END
$$$$
default_name
  -OEChem-01062215323D

 30 30  0     1  0  0  0  0  0999 V2000
   -3.5507   -3.2183    1.8116 H   0  0  0  0  0  0  0  0  0  0  0  0
   -3.4597   -2.3913    1.1076 C   0  0  0  0  0  0  0  0  0  0  0  0
   -4.1577   -1.6043    1.3866 H   0  0  0  0  0  0  0  0  0  0  0  0
   -3.6807   -2.7523    0.1036 H   0  0  0  0  0  0  0  0  0  0  0  0
   -2.0477   -1.8543    1.1546 C   0  0  0  0  0  0  0  0  0  0  0  0
   -1.2227   -2.3443    1.9146 O   0  0  0  0  0  0  0  0  0  0  0  0
   -1.7517   -0.8483    0.3266 N   0  0  0  0  0  0  0  0  0  0  0  0
   -2.4847   -0.5123   -0.2804 H   0  0  0  0  0  0  0  0  0  0  0  0
   -0.4117   -0.2463    0.2186 C   0  0  1  0  0  0  0  0  0  0  0  0
   -0.3595    0.3009   -0.7259 H   0  0  0  0  0  0  0  0  0  0  0  0
   -0.2431    0.7883    1.3555 C   0  0  0  0  0  0  0  0  0  0  0  0
   -0.3864    0.2803    2.3126 H   0  0  0  0  0  0  0  0  0  0  0  0
    0.7817    1.1655    1.3431 H   0  0  0  0  0  0  0  0  0  0  0  0
   -1.1818    1.9744    1.2906 C   0  0  0  0  0  0  0  0  0  0  0  0
   -1.0694    3.0344    0.4118 N   0  3  0  0  0  0  0  0  0  0  0  0
   -0.3647    3.0813   -0.3297 H   0  0  0  0  0  0  0  0  0  0  0  0
   -2.0792    3.8945    0.6509 C   0  0  0  0  0  0  0  0  0  0  0  0
   -2.2606    4.8191    0.1067 H   0  0  0  0  0  0  0  0  0  0  0  0
   -2.8294    3.4038    1.6632 N   0  0  0  0  0  0  0  0  0  0  0  0
   -3.6597    3.8392    2.0562 H   0  0  0  0  0  0  0  0  0  0  0  0
   -2.2796    2.1983    2.0769 C   0  0  0  0  0  0  0  0  0  0  0  0
   -2.6428    1.5501    2.8695 H   0  0  0  0  0  0  0  0  0  0  0  0
    0.6847   -1.3248    0.1588 C   0  0  0  0  0  0  0  0  0  0  0  0
    0.5331   -2.4049    0.7316 O   0  0  0  0  0  0  0  0  0  0  0  0
    1.7907   -1.0131   -0.5280 N   0  0  0  0  0  0  0  0  0  0  0  0
    1.8220   -0.1089   -0.9739 H   0  0  0  0  0  0  0  0  0  0  0  0
    2.9632   -1.8797   -0.6818 C   0  0  0  0  0  0  0  0  0  0  0  0
    2.9480   -2.3606   -1.6619 H   0  0  0  0  0  0  0  0  0  0  0  0
    3.8768   -1.2884   -0.5989 H   0  0  0  0  0  0  0  0  0  0  0  0
    2.9792   -2.6535    0.0886 H   0  0  0  0  0  0  0  0  0  0  0  0
  5  6  2  0  0  0  0
  5  7  1  0  0  0  0
  2  3  1  0  0  0  0
  2  4  1  0  0  0  0
  2  5  1  0  0  0  0
  1  2  1  0  0  0  0
 23 24  2  0  0  0  0
 23 25  1  0  0  0  0
 21 22  1  0  0  0  0
 19 20  1  0  0  0  0
 19 21  1  0  0  0  0
 17 18  1  0  0  0  0
 17 19  1  0  0  0  0
 15 16  1  0  0  0  0
 15 17  2  0  0  0  0
 14 15  1  0  0  0  0
 14 21  2  0  0  0  0
 11 12  1  0  0  0  0
 11 13  1  0  0  0  0
 11 14  1  0  0  0  0
  9 10  1  0  0  0  0
  9 11  1  0  0  0  0
  9 23  1  0  0  0  0
  7  8  1  0  0  0  0
  7  9  1  0  0  0  0
 27 28  1  0  0  0  0
 27 29  1  0  0  0  0
 27 30  1  0  0  0  0
 25 26  1  0  0  0  0
 25 27  1  0  0  0  0
M  CHG  1  15   1
M  END
$$$$
default_name
  -OEChem-01062215323D

 30 30  0     1  0  0  0  0  0999 V2000
   -3.5507   -3.2183    1.8116 H   0  0  0  0  0  0  0  0  0  0  0  0
   -3.4597   -2.3913    1.1076 C   0  0  0  0  0  0  0  0  0  0  0  0
   -4.1577   -1.6043    1.3866 H   0  0  0  0  0  0  0  0  0  0  0  0
   -3.6807   -2.7523    0.1036 H   0  0  0  0  0  0  0  0  0  0  0  0
   -2.0477   -1.8543    1.1546 C   0  0  0  0  0  0  0  0  0  0  0  0
   -1.2227   -2.3443    1.9146 O   0  0  0  0  0  0  0  0  0  0  0  0
   -1.7517   -0.8483    0.3266 N   0  0  0  0  0  0  0  0  0  0  0  0
   -2.4847   -0.5123   -0.2804 H   0  0  0  0  0  0  0  0  0  0  0  0
   -0.4117   -0.2463    0.2186 C   0  0  1  0  0  0  0  0  0  0  0  0
   -0.3595    0.3009   -0.7259 H   0  0  0  0  0  0  0  0  0  0  0  0
   -0.2431    0.7883    1.3555 C   0  0  0  0  0  0  0  0  0  0  0  0
   -0.3864    0.2803    2.3126 H   0  0  0  0  0  0  0  0  0  0  0  0
    0.7817    1.1655    1.3431 H   0  0  0  0  0  0  0  0  0  0  0  0
   -1.1818    1.9744    1.2906 C   0  0  0  0  0  0  0  0  0  0  0  0
   -1.0694    3.0344    0.4118 N   0  3  0  0  0  0  0  0  0  0  0  0
   -0.3647    3.0813   -0.3297 H   0  0  0  0  0  0  0  0  0  0  0  0
   -2.0792    3.8945    0.6509 C   0  0  0  0  0  0  0  0  0  0  0  0
   -2.2606    4.8191    0.1067 H   0  0  0  0  0  0  0  0  0  0  0  0
   -2.8294    3.4038    1.6632 N   0  0  0  0  0  0  0  0  0  0  0  0
   -3.6597    3.8392    2.0562 H   0  0  0  0  0  0  0  0  0  0  0  0
   -2.2796    2.1983    2.0769 C   0  0  0  0  0  0  0  0  0  0  0  0
   -2.6428    1.5501    2.8695 H   0  0  0  0  0  0  0  0  0  0  0  0
    0.6847   -1.3248    0.1588 C   0  0  0  0  0  0  0  0  0  0  0  0
    0.4387   -2.4872    0.4846 O   0  0  0  0  0  0  0  0  0  0  0  0
    1.8952   -0.9225   -0.2473 N   0  0  0  0  0  0  0  0  0  0  0  0
    2.0010    0.0470   -0.5049 H   0  0  0  0  0  0  0  0  0  0  0  0
    3.0821   -1.7775   -0.3449 C   0  0  0  0  0  0  0  0  0  0  0  0
    3.2492   -2.0699   -1.3835 H   0  0  0  0  0  0  0  0  0  0  0  0
    3.9611   -1.2365    0.0096 H   0  0  0  0  0  0  0  0  0  0  0  0
    2.9627   -2.6797    0.2588 H   0  0  0  0  0  0  0  0  0  0  0  0
  5  6  2  0  0  0  0
  5  7  1  0  0  0  0
  2  3  1  0  0  0  0
  2  4  1  0  0  0  0
  2  5  1  0  0  0  0
  1  2  1  0  0  0  0
 23 24  2  0  0  0  0
 23 25  1  0  0  0  0
 21 22  1  0  0  0  0
 19 20  1  0  0  0  0
 19 21  1  0  0  0  0
 17 18  1  0  0  0  0
 17 19  1  0  0  0  0
 15 16  1  0  0  0  0
 15 17  2  0  0  0  0
 14 15  1  0  0  0  0
 14 21  2  0  0  0  0
 11 12  1  0  0  0  0
 11 13  1  0  0  0  0
 11 14  1  0  0  0  0
  9 10  1  0  0  0  0
  9 11  1  0  0  0  0
  9 23  1  0  0  0  0
  7  8  1  0  0  0  0
  7  9  1  0  0  0  0
 27 28  1  0  0  0  0
 27 29  1  0  0  0  0
 27 30  1  0  0  0  0
 25 26  1  0  0  0  0
 25 27  1  0  0  0  0
M  CHG  1  15   1
M  END
$$$$
default_name
  -OEChem-01062215323D

 30 30  0     1  0  0  0  0  0999 V2000
   -3.5507   -3.2183    1.8116 H   0  0  0  0  0  0  0  0  0  0  0  0
   -3.4597   -2.3913    1.1076 C   0  0  0  0  0  0  0  0  0  0  0  0
   -4.1577   -1.6043    1.3866 H   0  0  0  0  0  0  0  0  0  0  0  0
   -3.6807   -2.7523    0.1036 H   0  0  0  0  0  0  0  0  0  0  0  0
   -2.0477   -1.8543    1.1546 C   0  0  0  0  0  0  0  0  0  0  0  0
   -1.2227   -2.3443    1.9146 O   0  0  0  0  0  0  0  0  0  0  0  0
   -1.7517   -0.8483    0.3266 N   0  0  0  0  0  0  0  0  0  0  0  0
   -2.4847   -0.5123   -0.2804 H   0  0  0  0  0  0  0  0  0  0  0  0
   -0.4117   -0.2463    0.2186 C   0  0  1  0  0  0  0  0  0  0  0  0
   -0.4403    0.5084   -0.5713 H   0  0  0  0  0  0  0  0  0  0  0  0
   -0.0937    0.4890    1.5413 C   0  0  0  0  0  0  0  0  0  0  0  0
   -0.1531   -0.2300    2.3624 H   0  0  0  0  0  0  0  0  0  0  0  0
    0.9358    0.8520    1.5070 H   0  0  0  0  0  0  0  0  0  0  0  0
   -0.9960    1.6628    1.8581 C   0  0  0  0  0  0  0  0  0  0  0  0
   -0.9417    2.8997    1.2454 N   0  3  0  0  0  0  0  0  0  0  0  0
   -0.3164    3.1162    0.4639 H   0  0  0  0  0  0  0  0  0  0  0  0
   -1.8936    3.6852    1.7871 C   0  0  0  0  0  0  0  0  0  0  0  0
   -2.1010    4.7135    1.4977 H   0  0  0  0  0  0  0  0  0  0  0  0
   -2.5502    2.9738    2.7312 N   0  0  0  0  0  0  0  0  0  0  0  0
   -3.3212    3.3092    3.3027 H   0  0  0  0  0  0  0  0  0  0  0  0
   -1.9989    1.7013    2.7888 C   0  0  0  0  0  0  0  0  0  0  0  0
   -2.2985    0.8863    3.4419 H   0  0  0  0  0  0  0  0  0  0  0  0
    0.6379   -1.2869   -0.2105 C   0  0  0  0  0  0  0  0  0  0  0  0
    0.3143   -2.4595   -0.4059 O   0  0  0  0  0  0  0  0  0  0  0  0
    1.8955   -0.8468   -0.3403 N   0  0  0  0  0  0  0  0  0  0  0  0
    2.0652    0.1329   -0.1705 H   0  0  0  0  0  0  0  0  0  0  0  0
    3.0482   -1.6754   -0.7065 C   0  0  0  0  0  0  0  0  0  0  0  0
    3.2922   -1.5331   -1.7612 H   0  0  0  0  0  0  0  0  0  0  0  0
    3.9156   -1.3923   -0.1078 H   0  0  0  0  0  0  0  0  0  0  0  0
    2.8377   -2.7331   -0.5346 H   0  0  0  0  0  0  0  0  0  0  0  0
  5  6  2  0  0  0  0
  5  7  1  0  0  0  0
  2  3  1  0  0  0  0
  2  4  1  0  0  0  0
  2  5  1  0  0  0  0
  1  2  1  0  0  0  0
 23 24  2  0  0  0  0
 23 25  1  0  0  0  0
 21 22  1  0  0  0  0
 19 20  1  0  0  0  0
 19 21  1  0  0  0  0
 17 18  1  0  0  0  0
 17 19  1  0  0  0  0
 15 16  1  0  0  0  0
 15 17  2  0  0  0  0
 14 15  1  0  0  0  0
 14 21  2  0  0  0  0
 11 12  1  0  0  0  0
 11 13  1  0  0  0  0
 11 14  1  0  0  0  0
  9 10  1  0  0  0  0
  9 11  1  0  0  0  0
  9 23  1  0  0  0  0
  7  8  1  0  0  0  0
  7  9  1  0  0  0  0
 27 28  1  0  0  0  0
 27 29  1  0  0  0  0
 27 30  1  0  0  0  0
 25 26  1  0  0  0  0
 25 27  1  0  0  0  0
M  CHG  1  15   1
M  END
$$$$
default_name
  -OEChem-01062215323D

 30 30  0     1  0  0  0  0  0999 V2000
   -3.5507   -3.2183    1.8116 H   0  0  0  0  0  0  0  0  0  0  0  0
   -3.4597   -2.3913    1.1076 C   0  0  0  0  0  0  0  0  0  0  0  0
   -4.1577   -1.6043    1.3866 H   0  0  0  0  0  0  0  0  0  0  0  0
   -3.6807   -2.7523    0.1036 H   0  0  0  0  0  0  0  0  0  0  0  0
   -2.0477   -1.8543    1.1546 C   0  0  0  0  0  0  0  0  0  0  0  0
   -1.2227   -2.3443    1.9146 O   0  0  0  0  0  0  0  0  0  0  0  0
   -1.7517   -0.8483    0.3266 N   0  0  0  0  0  0  0  0  0  0  0  0
   -2.4847   -0.5123   -0.2804 H   0  0  0  0  0  0  0  0  0  0  0  0
   -0.4117   -0.2463    0.2186 C   0  0  1  0  0  0  0  0  0  0  0  0
   -0.4403    0.5084   -0.5713 H   0  0  0  0  0  0  0  0  0  0  0  0
   -0.0937    0.4890    1.5413 C   0  0  0  0  0  0  0  0  0  0  0  0
   -0.1531   -0.2300    2.3624 H   0  0  0  0  0  0  0  0  0  0  0  0
    0.9358    0.8520    1.5070 H   0  0  0  0  0  0  0  0  0  0  0  0
   -0.9960    1.6628    1.8581 C   0  0  0  0  0  0  0  0  0  0  0  0
   -0.9417    2.8997    1.2454 N   0  3  0  0  0  0  0  0  0  0  0  0
   -0.3164    3.1162    0.4639 H   0  0  0  0  0  0  0  0  0  0  0  0
   -1.8936    3.6852    1.7871 C   0  0  0  0  0  0  0  0  0  0  0  0
   -2.1010    4.7135    1.4977 H   0  0  0  0  0  0  0  0  0  0  0  0
   -2.5502    2.9738    2.7312 N   0  0  0  0  0  0  0  0  0  0  0  0
   -3.3212    3.3092    3.3027 H   0  0  0  0  0  0  0  0  0  0  0  0
   -1.9989    1.7013    2.7888 C   0  0  0  0  0  0  0  0  0  0  0  0
   -2.2985    0.8863    3.4419 H   0  0  0  0  0  0  0  0  0  0  0  0
    0.6379   -1.2869   -0.2105 C   0  0  0  0  0  0  0  0  0  0  0  0
    0.2895   -2.3761   -0.6688 O   0  0  0  0  0  0  0  0  0  0  0  0
    1.9210   -0.9433   -0.0438 N   0  0  0  0  0  0  0  0  0  0  0  0
    2.1121   -0.0256    0.3285 H   0  0  0  0  0  0  0  0  0  0  0  0
    3.0723   -1.7956   -0.3558 C   0  0  0  0  0  0  0  0  0  0  0  0
    3.5113   -1.4981   -1.3102 H   0  0  0  0  0  0  0  0  0  0  0  0
    3.8313   -1.6959    0.4221 H   0  0  0  0  0  0  0  0  0  0  0  0
    2.7748   -2.8445   -0.4182 H   0  0  0  0  0  0  0  0  0  0  0  0
  5  6  2  0  0  0  0
  5  7  1  0  0  0  0
  2  3  1  0  0  0  0
  2  4  1  0  0  0  0
  2  5  1  0  0  0  0
  1  2  1  0  0  0  0
 23 24  2  0  0  0  0
 23 25  1  0  0  0  0
 21 22  1  0  0  0  0
 19 20  1  0  0  0  0
 19 21  1  0  0  0  0
 17 18  1  0  0  0  0
 17 19  1  0  0  0  0
 15 16  1  0  0  0  0
 15 17  2  0  0  0  0
 14 15  1  0  0  0  0
 14 21  2  0  0  0  0
 11 12  1  0  0  0  0
 11 13  1  0  0  0  0
 11 14  1  0  0  0  0
  9 10  1  0  0  0  0
  9 11  1  0  0  0  0
  9 23  1  0  0  0  0
  7  8  1  0  0  0  0
  7  9  1  0  0  0  0
 27 28  1  0  0  0  0
 27 29  1  0  0  0  0
 27 30  1  0  0  0  0
 25 26  1  0  0  0  0
 25 27  1  0  0  0  0
M  CHG  1  15   1
M  END
$$$$
default_name
  -OEChem-01062215323D

 30 30  0     1  0  0  0  0  0999 V2000
   -3.5507   -3.2183    1.8116 H   0  0  0  0  0  0  0  0  0  0  0  0
   -3.4597   -2.3913    1.1076 C   0  0  0  0  0  0  0  0  0  0  0  0
   -4.1577   -1.6043    1.3866 H   0  0  0  0  0  0  0  0  0  0  0  0
   -3.6807   -2.7523    0.1036 H   0  0  0  0  0  0  0  0  0  0  0  0
   -2.0477   -1.8543    1.1546 C   0  0  0  0  0  0  0  0  0  0  0  0
   -1.2227   -2.3443    1.9146 O   0  0  0  0  0  0  0  0  0  0  0  0
   -1.7517   -0.8483    0.3266 N   0  0  0  0  0  0  0  0  0  0  0  0
   -2.4847   -0.5123   -0.2804 H   0  0  0  0  0  0  0  0  0  0  0  0
   -0.4117   -0.2463    0.2186 C   0  0  1  0  0  0  0  0  0  0  0  0
   -0.4403    0.5084   -0.5713 H   0  0  0  0  0  0  0  0  0  0  0  0
   -0.0937    0.4890    1.5413 C   0  0  0  0  0  0  0  0  0  0  0  0
   -0.1531   -0.2300    2.3624 H   0  0  0  0  0  0  0  0  0  0  0  0
    0.9358    0.8520    1.5070 H   0  0  0  0  0  0  0  0  0  0  0  0
   -0.9960    1.6628    1.8581 C   0  0  0  0  0  0  0  0  0  0  0  0
   -0.9417    2.8997    1.2454 N   0  3  0  0  0  0  0  0  0  0  0  0
   -0.3164    3.1162    0.4639 H   0  0  0  0  0  0  0  0  0  0  0  0
   -1.8936    3.6852    1.7871 C   0  0  0  0  0  0  0  0  0  0  0  0
   -2.1010    4.7135    1.4977 H   0  0  0  0  0  0  0  0  0  0  0  0
   -2.5502    2.9738    2.7312 N   0  0  0  0  0  0  0  0  0  0  0  0
   -3.3212    3.3092    3.3027 H   0  0  0  0  0  0  0  0  0  0  0  0
   -1.9989    1.7013    2.7888 C   0  0  0  0  0  0  0  0  0  0  0  0
   -2.2985    0.8863    3.4419 H   0  0  0  0  0  0  0  0  0  0  0  0
    0.6379   -1.2869   -0.2105 C   0  0  0  0  0  0  0  0  0  0  0  0
    0.3175   -2.2474   -0.9123 O   0  0  0  0  0  0  0  0  0  0  0  0
    1.8867   -1.0908    0.2301 N   0  0  0  0  0  0  0  0  0  0  0  0
    2.0586   -0.2701    0.7907 H   0  0  0  0  0  0  0  0  0  0  0  0
    3.0256   -1.9754   -0.0340 C   0  0  0  0  0  0  0  0  0  0  0  0
    3.6466   -1.5596   -0.8300 H   0  0  0  0  0  0  0  0  0  0  0  0
    3.6352   -2.0765    0.8656 H   0  0  0  0  0  0  0  0  0  0  0  0
    2.6856   -2.9681   -0.3365 H   0  0  0  0  0  0  0  0  0  0  0  0
  5  6  2  0  0  0  0
  5  7  1  0  0  0  0
  2  3  1  0  0  0  0
  2  4  1  0  0  0  0
  2  5  1  0  0  0  0
  1  2  1  0  0  0  0
 23 24  2  0  0  0  0
 23 25  1  0  0  0  0
 21 22  1  0  0  0  0
 19 20  1  0  0  0  0
 19 21  1  0  0  0  0
 17 18  1  0  0  0  0
 17 19  1  0  0  0  0
 15 16  1  0  0  0  0
 15 17  2  0  0  0  0
 14 15  1  0  0  0  0
 14 21  2  0  0  0  0
 11 12  1  0  0  0  0
 11 13  1  0  0  0  0
 11 14  1  0  0  0  0
  9 10  1  0  0  0  0
  9 11  1  0  0  0  0
  9 23  1  0  0  0  0
  7  8  1  0  0  0  0
  7  9  1  0  0  0  0
 27 28  1  0  0  0  0
 27 29  1  0  0  0  0
 27 30  1  0  0  0  0
 25 26  1  0  0  0  0
 25 27  1  0  0  0  0
M  CHG  1  15   1
M  END
$$$$
default_name
  -OEChem-01062215323D

 30 30  0     1  0  0  0  0  0999 V2000
   -3.5507   -3.2183    1.8116 H   0  0  0  0  0  0  0  0  0  0  0  0
   -3.4597   -2.3913    1.1076 C   0  0  0  0  0  0  0  0  0  0  0  0
   -4.1577   -1.6043    1.3866 H   0  0  0  0  0  0  0  0  0  0  0  0
   -3.6807   -2.7523    0.1036 H   0  0  0  0  0  0  0  0  0  0  0  0
   -2.0477   -1.8543    1.1546 C   0  0  0  0  0  0  0  0  0  0  0  0
   -1.2227   -2.3443    1.9146 O   0  0  0  0  0  0  0  0  0  0  0  0
   -1.7517   -0.8483    0.3266 N   0  0  0  0  0  0  0  0  0  0  0  0
   -2.4847   -0.5123   -0.2804 H   0  0  0  0  0  0  0  0  0  0  0  0
   -0.4117   -0.2463    0.2186 C   0  0  1  0  0  0  0  0  0  0  0  0
   -0.4403    0.5084   -0.5713 H   0  0  0  0  0  0  0  0  0  0  0  0
   -0.0937    0.4890    1.5413 C   0  0  0  0  0  0  0  0  0  0  0  0
   -0.1531   -0.2300    2.3624 H   0  0  0  0  0  0  0  0  0  0  0  0
    0.9358    0.8520    1.5070 H   0  0  0  0  0  0  0  0  0  0  0  0
   -0.9960    1.6628    1.8581 C   0  0  0  0  0  0  0  0  0  0  0  0
   -0.9417    2.8997    1.2454 N   0  3  0  0  0  0  0  0  0  0  0  0
   -0.3164    3.1162    0.4639 H   0  0  0  0  0  0  0  0  0  0  0  0
   -1.8936    3.6852    1.7871 C   0  0  0  0  0  0  0  0  0  0  0  0
   -2.1010    4.7135    1.4977 H   0  0  0  0  0  0  0  0  0  0  0  0
   -2.5502    2.9738    2.7312 N   0  0  0  0  0  0  0  0  0  0  0  0
   -3.3212    3.3092    3.3027 H   0  0  0  0  0  0  0  0  0  0  0  0
   -1.9989    1.7013    2.7888 C   0  0  0  0  0  0  0  0  0  0  0  0
   -2.2985    0.8863    3.4419 H   0  0  0  0  0  0  0  0  0  0  0  0
    0.6379   -1.2869   -0.2105 C   0  0  0  0  0  0  0  0  0  0  0  0
    0.3965   -2.0822   -1.1200 O   0  0  0  0  0  0  0  0  0  0  0  0
    1.7951   -1.2791    0.4626 N   0  0  0  0  0  0  0  0  0  0  0  0
    1.9084   -0.5841    1.1847 H   0  0  0  0  0  0  0  0  0  0  0  0
    2.9112   -2.2025    0.2369 C   0  0  0  0  0  0  0  0  0  0  0  0
    3.6888   -1.7136   -0.3533 H   0  0  0  0  0  0  0  0  0  0  0  0
    3.3407   -2.5083    1.1925 H   0  0  0  0  0  0  0  0  0  0  0  0
    2.5762   -3.0956   -0.2950 H   0  0  0  0  0  0  0  0  0  0  0  0
  5  6  2  0  0  0  0
  5  7  1  0  0  0  0
  2  3  1  0  0  0  0
  2  4  1  0  0  0  0
  2  5  1  0  0  0  0
  1  2  1  0  0  0  0
 23 24  2  0  0  0  0
 23 25  1  0  0  0  0
 21 22  1  0  0  0  0
 19 20  1  0  0  0  0
 19 21  1  0  0  0  0
 17 18  1  0  0  0  0
 17 19  1  0  0  0  0
 15 16  1  0  0  0  0
 15 17  2  0  0  0  0
 14 15  1  0  0  0  0
 14 21  2  0  0  0  0
 11 12  1  0  0  0  0
 11 13  1  0  0  0  0
 11 14  1  0  0  0  0
  9 10  1  0  0  0  0
  9 11  1  0  0  0  0
  9 23  1  0  0  0  0
  7  8  1  0  0  0  0
  7  9  1  0  0  0  0
 27 28  1  0  0  0  0
 27 29  1  0  0  0  0
 27 30  1  0  0  0  0
 25 26  1  0  0  0  0
 25 27  1  0  0  0  0
M  CHG  1  15   1
M  END
$$$$
default_name
  -OEChem-01062215323D

 30 30  0     1  0  0  0  0  0999 V2000
   -3.5507   -3.2183    1.8116 H   0  0  0  0  0  0  0  0  0  0  0  0
   -3.4597   -2.3913    1.1076 C   0  0  0  0  0  0  0  0  0  0  0  0
   -4.1577   -1.6043    1.3866 H   0  0  0  0  0  0  0  0  0  0  0  0
   -3.6807   -2.7523    0.1036 H   0  0  0  0  0  0  0  0  0  0  0  0
   -2.0477   -1.8543    1.1546 C   0  0  0  0  0  0  0  0  0  0  0  0
   -1.2227   -2.3443    1.9146 O   0  0  0  0  0  0  0  0  0  0  0  0
   -1.7517   -0.8483    0.3266 N   0  0  0  0  0  0  0  0  0  0  0  0
   -2.4847   -0.5123   -0.2804 H   0  0  0  0  0  0  0  0  0  0  0  0
   -0.4117   -0.2463    0.2186 C   0  0  1  0  0  0  0  0  0  0  0  0
   -0.4403    0.5084   -0.5713 H   0  0  0  0  0  0  0  0  0  0  0  0
   -0.0937    0.4890    1.5413 C   0  0  0  0  0  0  0  0  0  0  0  0
   -0.1531   -0.2300    2.3624 H   0  0  0  0  0  0  0  0  0  0  0  0
    0.9358    0.8520    1.5070 H   0  0  0  0  0  0  0  0  0  0  0  0
   -0.9960    1.6628    1.8581 C   0  0  0  0  0  0  0  0  0  0  0  0
   -0.9417    2.8997    1.2454 N   0  3  0  0  0  0  0  0  0  0  0  0
   -0.3164    3.1162    0.4639 H   0  0  0  0  0  0  0  0  0  0  0  0
   -1.8936    3.6852    1.7871 C   0  0  0  0  0  0  0  0  0  0  0  0
   -2.1010    4.7135    1.4977 H   0  0  0  0  0  0  0  0  0  0  0  0
   -2.5502    2.9738    2.7312 N   0  0  0  0  0  0  0  0  0  0  0  0
   -3.3212    3.3092    3.3027 H   0  0  0  0  0  0  0  0  0  0  0  0
   -1.9989    1.7013    2.7888 C   0  0  0  0  0  0  0  0  0  0  0  0
   -2.2985    0.8863    3.4419 H   0  0  0  0  0  0  0  0  0  0  0  0
    0.6379   -1.2869   -0.2105 C   0  0  0  0  0  0  0  0  0  0  0  0
    0.5211   -1.8916   -1.2775 O   0  0  0  0  0  0  0  0  0  0  0  0
    1.6523   -1.4954    0.6379 N   0  0  0  0  0  0  0  0  0  0  0  0
    1.6717   -0.9460    1.4835 H   0  0  0  0  0  0  0  0  0  0  0  0
    2.7368   -2.4615    0.4384 C   0  0  0  0  0  0  0  0  0  0  0  0
    3.6350   -1.9496    0.0872 H   0  0  0  0  0  0  0  0  0  0  0  0
    2.9678   -2.9619    1.3804 H   0  0  0  0  0  0  0  0  0  0  0  0
    2.4541   -3.2181   -0.2965 H   0  0  0  0  0  0  0  0  0  0  0  0
  5  6  2  0  0  0  0
  5  7  1  0  0  0  0
  2  3  1  0  0  0  0
  2  4  1  0  0  0  0
  2  5  1  0  0  0  0
  1  2  1  0  0  0  0
 23 24  2  0  0  0  0
 23 25  1  0  0  0  0
 21 22  1  0  0  0  0
 19 20  1  0  0  0  0
 19 21  1  0  0  0  0
 17 18  1  0  0  0  0
 17 19  1  0  0  0  0
 15 16  1  0  0  0  0
 15 17  2  0  0  0  0
 14 15  1  0  0  0  0
 14 21  2  0  0  0  0
 11 12  1  0  0  0  0
 11 13  1  0  0  0  0
 11 14  1  0  0  0  0
  9 10  1  0  0  0  0
  9 11  1  0  0  0  0
  9 23  1  0  0  0  0
  7  8  1  0  0  0  0
  7  9  1  0  0  0  0
 27 28  1  0  0  0  0
 27 29  1  0  0  0  0
 27 30  1  0  0  0  0
 25 26  1  0  0  0  0
 25 27  1  0  0  0  0
M  CHG  1  15   1
M  END
$$$$
default_name
  -OEChem-01062215323D

 30 30  0     1  0  0  0  0  0999 V2000
   -3.5507   -3.2183    1.8116 H   0  0  0  0  0  0  0  0  0  0  0  0
   -3.4597   -2.3913    1.1076 C   0  0  0  0  0  0  0  0  0  0  0  0
   -4.1577   -1.6043    1.3866 H   0  0  0  0  0  0  0  0  0  0  0  0
   -3.6807   -2.7523    0.1036 H   0  0  0  0  0  0  0  0  0  0  0  0
   -2.0477   -1.8543    1.1546 C   0  0  0  0  0  0  0  0  0  0  0  0
   -1.2227   -2.3443    1.9146 O   0  0  0  0  0  0  0  0  0  0  0  0
   -1.7517   -0.8483    0.3266 N   0  0  0  0  0  0  0  0  0  0  0  0
   -2.4847   -0.5123   -0.2804 H   0  0  0  0  0  0  0  0  0  0  0  0
   -0.4117   -0.2463    0.2186 C   0  0  1  0  0  0  0  0  0  0  0  0
   -0.4403    0.5084   -0.5713 H   0  0  0  0  0  0  0  0  0  0  0  0
   -0.0937    0.4890    1.5413 C   0  0  0  0  0  0  0  0  0  0  0  0
   -0.1531   -0.2300    2.3624 H   0  0  0  0  0  0  0  0  0  0  0  0
    0.9358    0.8520    1.5070 H   0  0  0  0  0  0  0  0  0  0  0  0
   -0.9960    1.6628    1.8581 C   0  0  0  0  0  0  0  0  0  0  0  0
   -0.9417    2.8997    1.2454 N   0  3  0  0  0  0  0  0  0  0  0  0
   -0.3164    3.1162    0.4639 H   0  0  0  0  0  0  0  0  0  0  0  0
   -1.8936    3.6852    1.7871 C   0  0  0  0  0  0  0  0  0  0  0  0
   -2.1010    4.7135    1.4977 H   0  0  0  0  0  0  0  0  0  0  0  0
   -2.5502    2.9738    2.7312 N   0  0  0  0  0  0  0  0  0  0  0  0
   -3.3212    3.3092    3.3027 H   0  0  0  0  0  0  0  0  0  0  0  0
   -1.9989    1.7013    2.7888 C   0  0  0  0  0  0  0  0  0  0  0  0
   -2.2985    0.8863    3.4419 H   0  0  0  0  0  0  0  0  0  0  0  0
    0.6379   -1.2869   -0.2105 C   0  0  0  0  0  0  0  0  0  0  0  0
    0.6827   -1.6886   -1.3743 O   0  0  0  0  0  0  0  0  0  0  0  0
    1.4680   -1.7250    0.7440 N   0  0  0  0  0  0  0  0  0  0  0  0
    1.3647   -1.3313    1.6669 H   0  0  0  0  0  0  0  0  0  0  0  0
    2.5145   -2.7346    0.5569 C   0  0  0  0  0  0  0  0  0  0  0  0
    3.4889   -2.2513    0.4618 H   0  0  0  0  0  0  0  0  0  0  0  0
    2.5421   -3.4062    1.4167 H   0  0  0  0  0  0  0  0  0  0  0  0
    2.3276   -3.3273   -0.3410 H   0  0  0  0  0  0  0  0  0  0  0  0
  5  6  2  0  0  0  0
  5  7  1  0  0  0  0
  2  3  1  0  0  0  0
  2  4  1  0  0  0  0
  2  5  1  0  0  0  0
  1  2  1  0  0  0  0
 23 24  2  0  0  0  0
 23 25  1  0  0  0  0
 21 22  1  0  0  0  0
 19 20  1  0  0  0  0
 19 21  1  0  0  0  0
 17 18  1  0  0  0  0
 17 19  1  0  0  0  0
 15 16  1  0  0  0  0
 15 17  2  0  0  0  0
 14 15  1  0  0  0  0
 14 21  2  0  0  0  0
 11 12  1  0  0  0  0
 11 13  1  0  0  0  0
 11 14  1  0  0  0  0
  9 10  1  0  0  0  0
  9 11  1  0  0  0  0
  9 23  1  0  0  0  0
  7  8  1  0  0  0  0
  7  9  1  0  0  0  0
 27 28  1  0  0  0  0
 27 29  1  0  0  0  0
 27 30  1  0  0  0  0
 25 26  1  0  0  0  0
 25 27  1  0  0  0  0
M  CHG  1  15   1
M  END
$$$$
default_name
  -OEChem-01062215323D

 30 30  0     1  0  0  0  0  0999 V2000
   -3.5507   -3.2183    1.8116 H   0  0  0  0  0  0  0  0  0  0  0  0
   -3.4597   -2.3913    1.1076 C   0  0  0  0  0  0  0  0  0  0  0  0
   -4.1577   -1.6043    1.3866 H   0  0  0  0  0  0  0  0  0  0  0  0
   -3.6807   -2.7523    0.1036 H   0  0  0  0  0  0  0  0  0  0  0  0
   -2.0477   -1.8543    1.1546 C   0  0  0  0  0  0  0  0  0  0  0  0
   -1.2227   -2.3443    1.9146 O   0  0  0  0  0  0  0  0  0  0  0  0
   -1.7517   -0.8483    0.3266 N   0  0  0  0  0  0  0  0  0  0  0  0
   -2.4847   -0.5123   -0.2804 H   0  0  0  0  0  0  0  0  0  0  0  0
   -0.4117   -0.2463    0.2186 C   0  0  1  0  0  0  0  0  0  0  0  0
   -0.4403    0.5084   -0.5713 H   0  0  0  0  0  0  0  0  0  0  0  0
   -0.0937    0.4890    1.5413 C   0  0  0  0  0  0  0  0  0  0  0  0
   -0.1531   -0.2300    2.3624 H   0  0  0  0  0  0  0  0  0  0  0  0
    0.9358    0.8520    1.5070 H   0  0  0  0  0  0  0  0  0  0  0  0
   -0.9960    1.6628    1.8581 C   0  0  0  0  0  0  0  0  0  0  0  0
   -0.9417    2.8997    1.2454 N   0  3  0  0  0  0  0  0  0  0  0  0
   -0.3164    3.1162    0.4639 H   0  0  0  0  0  0  0  0  0  0  0  0
   -1.8936    3.6852    1.7871 C   0  0  0  0  0  0  0  0  0  0  0  0
   -2.1010    4.7135    1.4977 H   0  0  0  0  0  0  0  0  0  0  0  0
   -2.5502    2.9738    2.7312 N   0  0  0  0  0  0  0  0  0  0  0  0
   -3.3212    3.3092    3.3027 H   0  0  0  0  0  0  0  0  0  0  0  0
   -1.9989    1.7013    2.7888 C   0  0  0  0  0  0  0  0  0  0  0  0
   -2.2985    0.8863    3.4419 H   0  0  0  0  0  0  0  0  0  0  0  0
    0.6379   -1.2869   -0.2105 C   0  0  0  0  0  0  0  0  0  0  0  0
    0.8705   -1.4872   -1.4036 O   0  0  0  0  0  0  0  0  0  0  0  0
    1.2549   -1.9522    0.7738 N   0  0  0  0  0  0  0  0  0  0  0  0
    1.0082   -1.7136    1.7223 H   0  0  0  0  0  0  0  0  0  0  0  0
    2.2593   -3.0032    0.5843 C   0  0  0  0  0  0  0  0  0  0  0  0
    3.2605   -2.5984    0.7447 H   0  0  0  0  0  0  0  0  0  0  0  0
    2.0924   -3.8111    1.2988 H   0  0  0  0  0  0  0  0  0  0  0  0
    2.2053   -3.4159   -0.4254 H   0  0  0  0  0  0  0  0  0  0  0  0
  5  6  2  0  0  0  0
  5  7  1  0  0  0  0
  2  3  1  0  0  0  0
  2  4  1  0  0  0  0
  2  5  1  0  0  0  0
  1  2  1  0  0  0  0
 23 24  2  0  0  0  0
 23 25  1  0  0  0  0
 21 22  1  0  0  0  0
 19 20  1  0  0  0  0
 19 21  1  0  0  0  0
 17 18  1  0  0  0  0
 17 19  1  0  0  0  0
 15 16  1  0  0  0  0
 15 17  2  0  0  0  0
 14 15  1  0  0  0  0
 14 21  2  0  0  0  0
 11 12  1  0  0  0  0
 11 13  1  0  0  0  0
 11 14  1  0  0  0  0
  9 10  1  0  0  0  0
  9 11  1  0  0  0  0
  9 23  1  0  0  0  0
  7  8  1  0  0  0  0
  7  9  1  0  0  0  0
 27 28  1  0  0  0  0
 27 29  1  0  0  0  0
 27 30  1  0  0  0  0
 25 26  1  0  0  0  0
 25 27  1  0  0  0  0
M  CHG  1  15   1
M  END
$$$$
default_name
  -OEChem-01062215323D

 30 30  0     1  0  0  0  0  0999 V2000
   -3.5507   -3.2183    1.8116 H   0  0  0  0  0  0  0  0  0  0  0  0
   -3.4597   -2.3913    1.1076 C   0  0  0  0  0  0  0  0  0  0  0  0
   -4.1577   -1.6043    1.3866 H   0  0  0  0  0  0  0  0  0  0  0  0
   -3.6807   -2.7523    0.1036 H   0  0  0  0  0  0  0  0  0  0  0  0
   -2.0477   -1.8543    1.1546 C   0  0  0  0  0  0  0  0  0  0  0  0
   -1.2227   -2.3443    1.9146 O   0  0  0  0  0  0  0  0  0  0  0  0
   -1.7517   -0.8483    0.3266 N   0  0  0  0  0  0  0  0  0  0  0  0
   -2.4847   -0.5123   -0.2804 H   0  0  0  0  0  0  0  0  0  0  0  0
   -0.4117   -0.2463    0.2186 C   0  0  1  0  0  0  0  0  0  0  0  0
   -0.4403    0.5084   -0.5713 H   0  0  0  0  0  0  0  0  0  0  0  0
   -0.0937    0.4890    1.5413 C   0  0  0  0  0  0  0  0  0  0  0  0
   -0.1531   -0.2300    2.3624 H   0  0  0  0  0  0  0  0  0  0  0  0
    0.9358    0.8520    1.5070 H   0  0  0  0  0  0  0  0  0  0  0  0
   -0.9960    1.6628    1.8581 C   0  0  0  0  0  0  0  0  0  0  0  0
   -0.9417    2.8997    1.2454 N   0  3  0  0  0  0  0  0  0  0  0  0
   -0.3164    3.1162    0.4639 H   0  0  0  0  0  0  0  0  0  0  0  0
   -1.8936    3.6852    1.7871 C   0  0  0  0  0  0  0  0  0  0  0  0
   -2.1010    4.7135    1.4977 H   0  0  0  0  0  0  0  0  0  0  0  0
   -2.5502    2.9738    2.7312 N   0  0  0  0  0  0  0  0  0  0  0  0
   -3.3212    3.3092    3.3027 H   0  0  0  0  0  0  0  0  0  0  0  0
   -1.9989    1.7013    2.7888 C   0  0  0  0  0  0  0  0  0  0  0  0
   -2.2985    0.8863    3.4419 H   0  0  0  0  0  0  0  0  0  0  0  0
    0.6379   -1.2869   -0.2105 C   0  0  0  0  0  0  0  0  0  0  0  0
    1.0714   -1.3010   -1.3636 O   0  0  0  0  0  0  0  0  0  0  0  0
    1.0275   -2.1615    0.7251 N   0  0  0  0  0  0  0  0  0  0  0  0
    0.6266   -2.0670    1.6459 H   0  0  0  0  0  0  0  0  0  0  0  0
    1.9886   -3.2491    0.5186 C   0  0  0  0  0  0  0  0  0  0  0  0
    2.9653   -2.9670    0.9168 H   0  0  0  0  0  0  0  0  0  0  0  0
    1.6495   -4.1489    1.0348 H   0  0  0  0  0  0  0  0  0  0  0  0
    2.0955   -3.4777   -0.5439 H   0  0  0  0  0  0  0  0  0  0  0  0
  5  6  2  0  0  0  0
  5  7  1  0  0  0  0
  2  3  1  0  0  0  0
  2  4  1  0  0  0  0
  2  5  1  0  0  0  0
  1  2  1  0  0  0  0
 23 24  2  0  0  0  0
 23 25  1  0  0  0  0
 21 22  1  0  0  0  0
 19 20  1  0  0  0  0
 19 21  1  0  0  0  0
 17 18  1  0  0  0  0
 17 19  1  0  0  0  0
 15 16  1  0  0  0  0
 15 17  2  0  0  0  0
 14 15  1  0  0  0  0
 14 21  2  0  0  0  0
 11 12  1  0  0  0  0
 11 13  1  0  0  0  0
 11 14  1  0  0  0  0
  9 10  1  0  0  0  0
  9 11  1  0  0  0  0
  9 23  1  0  0  0  0
  7  8  1  0  0  0  0
  7  9  1  0  0  0  0
 27 28  1  0  0  0  0
 27 29  1  0  0  0  0
 27 30  1  0  0  0  0
 25 26  1  0  0  0  0
 25 27  1  0  0  0  0
M  CHG  1  15   1
M  END
$$$$
default_name
  -OEChem-01062215323D

 30 30  0     1  0  0  0  0  0999 V2000
   -3.5507   -3.2183    1.8116 H   0  0  0  0  0  0  0  0  0  0  0  0
   -3.4597   -2.3913    1.1076 C   0  0  0  0  0  0  0  0  0  0  0  0
   -4.1577   -1.6043    1.3866 H   0  0  0  0  0  0  0  0  0  0  0  0
   -3.6807   -2.7523    0.1036 H   0  0  0  0  0  0  0  0  0  0  0  0
   -2.0477   -1.8543    1.1546 C   0  0  0  0  0  0  0  0  0  0  0  0
   -1.2227   -2.3443    1.9146 O   0  0  0  0  0  0  0  0  0  0  0  0
   -1.7517   -0.8483    0.3266 N   0  0  0  0  0  0  0  0  0  0  0  0
   -2.4847   -0.5123   -0.2804 H   0  0  0  0  0  0  0  0  0  0  0  0
   -0.4117   -0.2463    0.2186 C   0  0  1  0  0  0  0  0  0  0  0  0
   -0.4403    0.5084   -0.5713 H   0  0  0  0  0  0  0  0  0  0  0  0
   -0.0937    0.4890    1.5413 C   0  0  0  0  0  0  0  0  0  0  0  0
   -0.1531   -0.2300    2.3624 H   0  0  0  0  0  0  0  0  0  0  0  0
    0.9358    0.8520    1.5070 H   0  0  0  0  0  0  0  0  0  0  0  0
   -0.9960    1.6628    1.8581 C   0  0  0  0  0  0  0  0  0  0  0  0
   -0.9417    2.8997    1.2454 N   0  3  0  0  0  0  0  0  0  0  0  0
   -0.3164    3.1162    0.4639 H   0  0  0  0  0  0  0  0  0  0  0  0
   -1.8936    3.6852    1.7871 C   0  0  0  0  0  0  0  0  0  0  0  0
   -2.1010    4.7135    1.4977 H   0  0  0  0  0  0  0  0  0  0  0  0
   -2.5502    2.9738    2.7312 N   0  0  0  0  0  0  0  0  0  0  0  0
   -3.3212    3.3092    3.3027 H   0  0  0  0  0  0  0  0  0  0  0  0
   -1.9989    1.7013    2.7888 C   0  0  0  0  0  0  0  0  0  0  0  0
   -2.2985    0.8863    3.4419 H   0  0  0  0  0  0  0  0  0  0  0  0
    0.6379   -1.2869   -0.2105 C   0  0  0  0  0  0  0  0  0  0  0  0
    1.2720   -1.1427   -1.2569 O   0  0  0  0  0  0  0  0  0  0  0  0
    0.8012   -2.3387    0.6014 N   0  0  0  0  0  0  0  0  0  0  0  0
    0.2459   -2.3673    1.4430 H   0  0  0  0  0  0  0  0  0  0  0  0
    1.7209   -3.4555    0.3644 C   0  0  0  0  0  0  0  0  0  0  0  0
    2.6235   -3.3322    0.9663 H   0  0  0  0  0  0  0  0  0  0  0  0
    1.2435   -4.3967    0.6426 H   0  0  0  0  0  0  0  0  0  0  0  0
    2.0058   -3.5086   -0.6885 H   0  0  0  0  0  0  0  0  0  0  0  0
  5  6  2  0  0  0  0
  5  7  1  0  0  0  0
  2  3  1  0  0  0  0
  2  4  1  0  0  0  0
  2  5  1  0  0  0  0
  1  2  1  0  0  0  0
 23 24  2  0  0  0  0
 23 25  1  0  0  0  0
 21 22  1  0  0  0  0
 19 20  1  0  0  0  0
 19 21  1  0  0  0  0
 17 18  1  0  0  0  0
 17 19  1  0  0  0  0
 15 16  1  0  0  0  0
 15 17  2  0  0  0  0
 14 15  1  0  0  0  0
 14 21  2  0  0  0  0
 11 12  1  0  0  0  0
 11 13  1  0  0  0  0
 11 14  1  0  0  0  0
  9 10  1  0  0  0  0
  9 11  1  0  0  0  0
  9 23  1  0  0  0  0
  7  8  1  0  0  0  0
  7  9  1  0  0  0  0
 27 28  1  0  0  0  0
 27 29  1  0  0  0  0
 27 30  1  0  0  0  0
 25 26  1  0  0  0  0
 25 27  1  0  0  0  0
M  CHG  1  15   1
M  END
$$$$
default_name
  -OEChem-01062215323D

 30 30  0     1  0  0  0  0  0999 V2000
   -3.5507   -3.2183    1.8116 H   0  0  0  0  0  0  0  0  0  0  0  0
   -3.4597   -2.3913    1.1076 C   0  0  0  0  0  0  0  0  0  0  0  0
   -4.1577   -1.6043    1.3866 H   0  0  0  0  0  0  0  0  0  0  0  0
   -3.6807   -2.7523    0.1036 H   0  0  0  0  0  0  0  0  0  0  0  0
   -2.0477   -1.8543    1.1546 C   0  0  0  0  0  0  0  0  0  0  0  0
   -1.2227   -2.3443    1.9146 O   0  0  0  0  0  0  0  0  0  0  0  0
   -1.7517   -0.8483    0.3266 N   0  0  0  0  0  0  0  0  0  0  0  0
   -2.4847   -0.5123   -0.2804 H   0  0  0  0  0  0  0  0  0  0  0  0
   -0.4117   -0.2463    0.2186 C   0  0  1  0  0  0  0  0  0  0  0  0
   -0.4403    0.5084   -0.5713 H   0  0  0  0  0  0  0  0  0  0  0  0
   -0.0937    0.4890    1.5413 C   0  0  0  0  0  0  0  0  0  0  0  0
   -0.1531   -0.2300    2.3624 H   0  0  0  0  0  0  0  0  0  0  0  0
    0.9358    0.8520    1.5070 H   0  0  0  0  0  0  0  0  0  0  0  0
   -0.9960    1.6628    1.8581 C   0  0  0  0  0  0  0  0  0  0  0  0
   -0.9417    2.8997    1.2454 N   0  3  0  0  0  0  0  0  0  0  0  0
   -0.3164    3.1162    0.4639 H   0  0  0  0  0  0  0  0  0  0  0  0
   -1.8936    3.6852    1.7871 C   0  0  0  0  0  0  0  0  0  0  0  0
   -2.1010    4.7135    1.4977 H   0  0  0  0  0  0  0  0  0  0  0  0
   -2.5502    2.9738    2.7312 N   0  0  0  0  0  0  0  0  0  0  0  0
   -3.3212    3.3092    3.3027 H   0  0  0  0  0  0  0  0  0  0  0  0
   -1.9989    1.7013    2.7888 C   0  0  0  0  0  0  0  0  0  0  0  0
   -2.2985    0.8863    3.4419 H   0  0  0  0  0  0  0  0  0  0  0  0
    0.6379   -1.2869   -0.2105 C   0  0  0  0  0  0  0  0  0  0  0  0
    1.4585   -1.0232   -1.0907 O   0  0  0  0  0  0  0  0  0  0  0  0
    0.5915   -2.4717    0.4110 N   0  0  0  0  0  0  0  0  0  0  0  0
   -0.1080   -2.5941    1.1273 H   0  0  0  0  0  0  0  0  0  0  0  0
    1.4744   -3.6084    0.1321 C   0  0  0  0  0  0  0  0  0  0  0  0
    2.2583   -3.6690    0.8898 H   0  0  0  0  0  0  0  0  0  0  0  0
    0.9021   -4.5375    0.1490 H   0  0  0  0  0  0  0  0  0  0  0  0
    1.9422   -3.5064   -0.8494 H   0  0  0  0  0  0  0  0  0  0  0  0
  5  6  2  0  0  0  0
  5  7  1  0  0  0  0
  2  3  1  0  0  0  0
  2  4  1  0  0  0  0
  2  5  1  0  0  0  0
  1  2  1  0  0  0  0
 23 24  2  0  0  0  0
 23 25  1  0  0  0  0
 21 22  1  0  0  0  0
 19 20  1  0  0  0  0
 19 21  1  0  0  0  0
 17 18  1  0  0  0  0
 17 19  1  0  0  0  0
 15 16  1  0  0  0  0
 15 17  2  0  0  0  0
 14 15  1  0  0  0  0
 14 21  2  0  0  0  0
 11 12  1  0  0  0  0
 11 13  1  0  0  0  0
 11 14  1  0  0  0  0
  9 10  1  0  0  0  0
  9 11  1  0  0  0  0
  9 23  1  0  0  0  0
  7  8  1  0  0  0  0
  7  9  1  0  0  0  0
 27 28  1  0  0  0  0
 27 29  1  0  0  0  0
 27 30  1  0  0  0  0
 25 26  1  0  0  0  0
 25 27  1  0  0  0  0
M  CHG  1  15   1
M  END
$$$$
default_name
  -OEChem-01062215323D

 30 30  0     1  0  0  0  0  0999 V2000
   -3.5507   -3.2183    1.8116 H   0  0  0  0  0  0  0  0  0  0  0  0
   -3.4597   -2.3913    1.1076 C   0  0  0  0  0  0  0  0  0  0  0  0
   -4.1577   -1.6043    1.3866 H   0  0  0  0  0  0  0  0  0  0  0  0
   -3.6807   -2.7523    0.1036 H   0  0  0  0  0  0  0  0  0  0  0  0
   -2.0477   -1.8543    1.1546 C   0  0  0  0  0  0  0  0  0  0  0  0
   -1.2227   -2.3443    1.9146 O   0  0  0  0  0  0  0  0  0  0  0  0
   -1.7517   -0.8483    0.3266 N   0  0  0  0  0  0  0  0  0  0  0  0
   -2.4847   -0.5123   -0.2804 H   0  0  0  0  0  0  0  0  0  0  0  0
   -0.4117   -0.2463    0.2186 C   0  0  1  0  0  0  0  0  0  0  0  0
   -0.4403    0.5084   -0.5713 H   0  0  0  0  0  0  0  0  0  0  0  0
   -0.0937    0.4890    1.5413 C   0  0  0  0  0  0  0  0  0  0  0  0
   -0.1531   -0.2300    2.3624 H   0  0  0  0  0  0  0  0  0  0  0  0
    0.9358    0.8520    1.5070 H   0  0  0  0  0  0  0  0  0  0  0  0
   -0.9960    1.6628    1.8581 C   0  0  0  0  0  0  0  0  0  0  0  0
   -0.9417    2.8997    1.2454 N   0  3  0  0  0  0  0  0  0  0  0  0
   -0.3164    3.1162    0.4639 H   0  0  0  0  0  0  0  0  0  0  0  0
   -1.8936    3.6852    1.7871 C   0  0  0  0  0  0  0  0  0  0  0  0
   -2.1010    4.7135    1.4977 H   0  0  0  0  0  0  0  0  0  0  0  0
   -2.5502    2.9738    2.7312 N   0  0  0  0  0  0  0  0  0  0  0  0
   -3.3212    3.3092    3.3027 H   0  0  0  0  0  0  0  0  0  0  0  0
   -1.9989    1.7013    2.7888 C   0  0  0  0  0  0  0  0  0  0  0  0
   -2.2985    0.8863    3.4419 H   0  0  0  0  0  0  0  0  0  0  0  0
    0.6379   -1.2869   -0.2105 C   0  0  0  0  0  0  0  0  0  0  0  0
    1.6182   -0.9504   -0.8765 O   0  0  0  0  0  0  0  0  0  0  0  0
    0.4127   -2.5514    0.1670 N   0  0  0  0  0  0  0  0  0  0  0  0
   -0.4110   -2.7319    0.7204 H   0  0  0  0  0  0  0  0  0  0  0  0
    1.2659   -3.6972   -0.1623 C   0  0  0  0  0  0  0  0  0  0  0  0
    1.8946   -3.9545    0.6925 H   0  0  0  0  0  0  0  0  0  0  0  0
    0.6485   -4.5617   -0.4124 H   0  0  0  0  0  0  0  0  0  0  0  0
    1.9091   -3.4713   -1.0155 H   0  0  0  0  0  0  0  0  0  0  0  0
  5  6  2  0  0  0  0
  5  7  1  0  0  0  0
  2  3  1  0  0  0  0
  2  4  1  0  0  0  0
  2  5  1  0  0  0  0
  1  2  1  0  0  0  0
 23 24  2  0  0  0  0
 23 25  1  0  0  0  0
 21 22  1  0  0  0  0
 19 20  1  0  0  0  0
 19 21  1  0  0  0  0
 17 18  1  0  0  0  0
 17 19  1  0  0  0  0
 15 16  1  0  0  0  0
 15 17  2  0  0  0  0
 14 15  1  0  0  0  0
 14 21  2  0  0  0  0
 11 12  1  0  0  0  0
 11 13  1  0  0  0  0
 11 14  1  0  0  0  0
  9 10  1  0  0  0  0
  9 11  1  0  0  0  0
  9 23  1  0  0  0  0
  7  8  1  0  0  0  0
  7  9  1  0  0  0  0
 27 28  1  0  0  0  0
 27 29  1  0  0  0  0
 27 30  1  0  0  0  0
 25 26  1  0  0  0  0
 25 27  1  0  0  0  0
M  CHG  1  15   1
M  END
$$$$
default_name
  -OEChem-01062215323D

 30 30  0     1  0  0  0  0  0999 V2000
   -3.5507   -3.2183    1.8116 H   0  0  0  0  0  0  0  0  0  0  0  0
   -3.4597   -2.3913    1.1076 C   0  0  0  0  0  0  0  0  0  0  0  0
   -4.1577   -1.6043    1.3866 H   0  0  0  0  0  0  0  0  0  0  0  0
   -3.6807   -2.7523    0.1036 H   0  0  0  0  0  0  0  0  0  0  0  0
   -2.0477   -1.8543    1.1546 C   0  0  0  0  0  0  0  0  0  0  0  0
   -1.2227   -2.3443    1.9146 O   0  0  0  0  0  0  0  0  0  0  0  0
   -1.7517   -0.8483    0.3266 N   0  0  0  0  0  0  0  0  0  0  0  0
   -2.4847   -0.5123   -0.2804 H   0  0  0  0  0  0  0  0  0  0  0  0
   -0.4117   -0.2463    0.2186 C   0  0  1  0  0  0  0  0  0  0  0  0
   -0.4403    0.5084   -0.5713 H   0  0  0  0  0  0  0  0  0  0  0  0
   -0.0937    0.4890    1.5413 C   0  0  0  0  0  0  0  0  0  0  0  0
   -0.1531   -0.2300    2.3624 H   0  0  0  0  0  0  0  0  0  0  0  0
    0.9358    0.8520    1.5070 H   0  0  0  0  0  0  0  0  0  0  0  0
   -0.9960    1.6628    1.8581 C   0  0  0  0  0  0  0  0  0  0  0  0
   -0.9417    2.8997    1.2454 N   0  3  0  0  0  0  0  0  0  0  0  0
   -0.3164    3.1162    0.4639 H   0  0  0  0  0  0  0  0  0  0  0  0
   -1.8936    3.6852    1.7871 C   0  0  0  0  0  0  0  0  0  0  0  0
   -2.1010    4.7135    1.4977 H   0  0  0  0  0  0  0  0  0  0  0  0
   -2.5502    2.9738    2.7312 N   0  0  0  0  0  0  0  0  0  0  0  0
   -3.3212    3.3092    3.3027 H   0  0  0  0  0  0  0  0  0  0  0  0
   -1.9989    1.7013    2.7888 C   0  0  0  0  0  0  0  0  0  0  0  0
   -2.2985    0.8863    3.4419 H   0  0  0  0  0  0  0  0  0  0  0  0
    0.6379   -1.2869   -0.2105 C   0  0  0  0  0  0  0  0  0  0  0  0
    1.7402   -0.9295   -0.6288 O   0  0  0  0  0  0  0  0  0  0  0  0
    0.2769   -2.5724   -0.1141 N   0  0  0  0  0  0  0  0  0  0  0  0
   -0.6424   -2.7713    0.2501 H   0  0  0  0  0  0  0  0  0  0  0  0
    1.1097   -3.7160   -0.4989 C   0  0  0  0  0  0  0  0  0  0  0  0
    1.5572   -4.1692    0.3880 H   0  0  0  0  0  0  0  0  0  0  0  0
    0.5001   -4.4677   -1.0033 H   0  0  0  0  0  0  0  0  0  0  0  0
    1.9087   -3.4057   -1.1755 H   0  0  0  0  0  0  0  0  0  0  0  0
  5  6  2  0  0  0  0
  5  7  1  0  0  0  0
  2  3  1  0  0  0  0
  2  4  1  0  0  0  0
  2  5  1  0  0  0  0
  1  2  1  0  0  0  0
 23 24  2  0  0  0  0
 23 25  1  0  0  0  0
 21 22  1  0  0  0  0
 19 20  1  0  0  0  0
 19 21  1  0  0  0  0
 17 18  1  0  0  0  0
 17 19  1  0  0  0  0
 15 16  1  0  0  0  0
 15 17  2  0  0  0  0
 14 15  1  0  0  0  0
 14 21  2  0  0  0  0
 11 12  1  0  0  0  0
 11 13  1  0  0  0  0
 11 14  1  0  0  0  0
  9 10  1  0  0  0  0
  9 11  1  0  0  0  0
  9 23  1  0  0  0  0
  7  8  1  0  0  0  0
  7  9  1  0  0  0  0
 27 28  1  0  0  0  0
 27 29  1  0  0  0  0
 27 30  1  0  0  0  0
 25 26  1  0  0  0  0
 25 27  1  0  0  0  0
M  CHG  1  15   1
M  END
$$$$
default_name
  -OEChem-01062215323D

 30 30  0     1  0  0  0  0  0999 V2000
   -3.5507   -3.2183    1.8116 H   0  0  0  0  0  0  0  0  0  0  0  0
   -3.4597   -2.3913    1.1076 C   0  0  0  0  0  0  0  0  0  0  0  0
   -4.1577   -1.6043    1.3866 H   0  0  0  0  0  0  0  0  0  0  0  0
   -3.6807   -2.7523    0.1036 H   0  0  0  0  0  0  0  0  0  0  0  0
   -2.0477   -1.8543    1.1546 C   0  0  0  0  0  0  0  0  0  0  0  0
   -1.2227   -2.3443    1.9146 O   0  0  0  0  0  0  0  0  0  0  0  0
   -1.7517   -0.8483    0.3266 N   0  0  0  0  0  0  0  0  0  0  0  0
   -2.4847   -0.5123   -0.2804 H   0  0  0  0  0  0  0  0  0  0  0  0
   -0.4117   -0.2463    0.2186 C   0  0  1  0  0  0  0  0  0  0  0  0
   -0.4403    0.5084   -0.5713 H   0  0  0  0  0  0  0  0  0  0  0  0
   -0.0937    0.4890    1.5413 C   0  0  0  0  0  0  0  0  0  0  0  0
   -0.1531   -0.2300    2.3624 H   0  0  0  0  0  0  0  0  0  0  0  0
    0.9358    0.8520    1.5070 H   0  0  0  0  0  0  0  0  0  0  0  0
   -0.9960    1.6628    1.8581 C   0  0  0  0  0  0  0  0  0  0  0  0
   -0.9417    2.8997    1.2454 N   0  3  0  0  0  0  0  0  0  0  0  0
   -0.3164    3.1162    0.4639 H   0  0  0  0  0  0  0  0  0  0  0  0
   -1.8936    3.6852    1.7871 C   0  0  0  0  0  0  0  0  0  0  0  0
   -2.1010    4.7135    1.4977 H   0  0  0  0  0  0  0  0  0  0  0  0
   -2.5502    2.9738    2.7312 N   0  0  0  0  0  0  0  0  0  0  0  0
   -3.3212    3.3092    3.3027 H   0  0  0  0  0  0  0  0  0  0  0  0
   -1.9989    1.7013    2.7888 C   0  0  0  0  0  0  0  0  0  0  0  0
   -2.2985    0.8863    3.4419 H   0  0  0  0  0  0  0  0  0  0  0  0
    0.6379   -1.2869   -0.2105 C   0  0  0  0  0  0  0  0  0  0  0  0
    1.8162   -0.9619   -0.3646 O   0  0  0  0  0  0  0  0  0  0  0  0
    0.1934   -2.5333   -0.4132 N   0  0  0  0  0  0  0  0  0  0  0  0
   -0.7865   -2.7097   -0.2517 H   0  0  0  0  0  0  0  0  0  0  0  0
    1.0163   -3.6635   -0.8547 C   0  0  0  0  0  0  0  0  0  0  0  0
    1.2691   -4.2984   -0.0032 H   0  0  0  0  0  0  0  0  0  0  0  0
    0.4669   -4.2620   -1.5835 H   0  0  0  0  0  0  0  0  0  0  0  0
    1.9411   -3.3140   -1.3186 H   0  0  0  0  0  0  0  0  0  0  0  0
  5  6  2  0  0  0  0
  5  7  1  0  0  0  0
  2  3  1  0  0  0  0
  2  4  1  0  0  0  0
  2  5  1  0  0  0  0
  1  2  1  0  0  0  0
 23 24  2  0  0  0  0
 23 25  1  0  0  0  0
 21 22  1  0  0  0  0
 19 20  1  0  0  0  0
 19 21  1  0  0  0  0
 17 18  1  0  0  0  0
 17 19  1  0  0  0  0
 15 16  1  0  0  0  0
 15 17  2  0  0  0  0
 14 15  1  0  0  0  0
 14 21  2  0  0  0  0
 11 12  1  0  0  0  0
 11 13  1  0  0  0  0
 11 14  1  0  0  0  0
  9 10  1  0  0  0  0
  9 11  1  0  0  0  0
  9 23  1  0  0  0  0
  7  8  1  0  0  0  0
  7  9  1  0  0  0  0
 27 28  1  0  0  0  0
 27 29  1  0  0  0  0
 27 30  1  0  0  0  0
 25 26  1  0  0  0  0
 25 27  1  0  0  0  0
M  CHG  1  15   1
M  END
$$$$
default_name
  -OEChem-01062215323D

 30 30  0     1  0  0  0  0  0999 V2000
   -3.5507   -3.2183    1.8116 H   0  0  0  0  0  0  0  0  0  0  0  0
   -3.4597   -2.3913    1.1076 C   0  0  0  0  0  0  0  0  0  0  0  0
   -4.1577   -1.6043    1.3866 H   0  0  0  0  0  0  0  0  0  0  0  0
   -3.6807   -2.7523    0.1036 H   0  0  0  0  0  0  0  0  0  0  0  0
   -2.0477   -1.8543    1.1546 C   0  0  0  0  0  0  0  0  0  0  0  0
   -1.2227   -2.3443    1.9146 O   0  0  0  0  0  0  0  0  0  0  0  0
   -1.7517   -0.8483    0.3266 N   0  0  0  0  0  0  0  0  0  0  0  0
   -2.4847   -0.5123   -0.2804 H   0  0  0  0  0  0  0  0  0  0  0  0
   -0.4117   -0.2463    0.2186 C   0  0  1  0  0  0  0  0  0  0  0  0
   -0.4403    0.5084   -0.5713 H   0  0  0  0  0  0  0  0  0  0  0  0
   -0.0937    0.4890    1.5413 C   0  0  0  0  0  0  0  0  0  0  0  0
   -0.1531   -0.2300    2.3624 H   0  0  0  0  0  0  0  0  0  0  0  0
    0.9358    0.8520    1.5070 H   0  0  0  0  0  0  0  0  0  0  0  0
   -0.9960    1.6628    1.8581 C   0  0  0  0  0  0  0  0  0  0  0  0
   -0.9417    2.8997    1.2454 N   0  3  0  0  0  0  0  0  0  0  0  0
   -0.3164    3.1162    0.4639 H   0  0  0  0  0  0  0  0  0  0  0  0
   -1.8936    3.6852    1.7871 C   0  0  0  0  0  0  0  0  0  0  0  0
   -2.1010    4.7135    1.4977 H   0  0  0  0  0  0  0  0  0  0  0  0
   -2.5502    2.9738    2.7312 N   0  0  0  0  0  0  0  0  0  0  0  0
   -3.3212    3.3092    3.3027 H   0  0  0  0  0  0  0  0  0  0  0  0
   -1.9989    1.7013    2.7888 C   0  0  0  0  0  0  0  0  0  0  0  0
   -2.2985    0.8863    3.4419 H   0  0  0  0  0  0  0  0  0  0  0  0
    0.6379   -1.2869   -0.2105 C   0  0  0  0  0  0  0  0  0  0  0  0
    1.8410   -1.0452   -0.1017 O   0  0  0  0  0  0  0  0  0  0  0  0
    0.1679   -2.4367   -0.7097 N   0  0  0  0  0  0  0  0  0  0  0  0
   -0.8334   -2.5512   -0.7507 H   0  0  0  0  0  0  0  0  0  0  0  0
    0.9921   -3.5432   -1.2054 C   0  0  0  0  0  0  0  0  0  0  0  0
    1.0500   -4.3335   -0.4542 H   0  0  0  0  0  0  0  0  0  0  0  0
    0.5513   -3.9584   -2.1134 H   0  0  0  0  0  0  0  0  0  0  0  0
    2.0040   -3.2026   -1.4350 H   0  0  0  0  0  0  0  0  0  0  0  0
  5  6  2  0  0  0  0
  5  7  1  0  0  0  0
  2  3  1  0  0  0  0
  2  4  1  0  0  0  0
  2  5  1  0  0  0  0
  1  2  1  0  0  0  0
 23 24  2  0  0  0  0
 23 25  1  0  0  0  0
 21 22  1  0  0  0  0
 19 20  1  0  0  0  0
 19 21  1  0  0  0  0
 17 18  1  0  0  0  0
 17 19  1  0  0  0  0
 15 16  1  0  0  0  0
 15 17  2  0  0  0  0
 14 15  1  0  0  0  0
 14 21  2  0  0  0  0
 11 12  1  0  0  0  0
 11 13  1  0  0  0  0
 11 14  1  0  0  0  0
  9 10  1  0  0  0  0
  9 11  1  0  0  0  0
  9 23  1  0  0  0  0
  7  8  1  0  0  0  0
  7  9  1  0  0  0  0
 27 28  1  0  0  0  0
 27 29  1  0  0  0  0
 27 30  1  0  0  0  0
 25 26  1  0  0  0  0
 25 27  1  0  0  0  0
M  CHG  1  15   1
M  END
$$$$
default_name
  -OEChem-01062215323D

 30 30  0     1  0  0  0  0  0999 V2000
   -3.5507   -3.2183    1.8116 H   0  0  0  0  0  0  0  0  0  0  0  0
   -3.4597   -2.3913    1.1076 C   0  0  0  0  0  0  0  0  0  0  0  0
   -4.1577   -1.6043    1.3866 H   0  0  0  0  0  0  0  0  0  0  0  0
   -3.6807   -2.7523    0.1036 H   0  0  0  0  0  0  0  0  0  0  0  0
   -2.0477   -1.8543    1.1546 C   0  0  0  0  0  0  0  0  0  0  0  0
   -1.2227   -2.3443    1.9146 O   0  0  0  0  0  0  0  0  0  0  0  0
   -1.7517   -0.8483    0.3266 N   0  0  0  0  0  0  0  0  0  0  0  0
   -2.4847   -0.5123   -0.2804 H   0  0  0  0  0  0  0  0  0  0  0  0
   -0.4117   -0.2463    0.2186 C   0  0  1  0  0  0  0  0  0  0  0  0
   -0.4403    0.5084   -0.5713 H   0  0  0  0  0  0  0  0  0  0  0  0
   -0.0937    0.4890    1.5413 C   0  0  0  0  0  0  0  0  0  0  0  0
   -0.1531   -0.2300    2.3624 H   0  0  0  0  0  0  0  0  0  0  0  0
    0.9358    0.8520    1.5070 H   0  0  0  0  0  0  0  0  0  0  0  0
   -0.9960    1.6628    1.8581 C   0  0  0  0  0  0  0  0  0  0  0  0
   -0.9417    2.8997    1.2454 N   0  3  0  0  0  0  0  0  0  0  0  0
   -0.3164    3.1162    0.4639 H   0  0  0  0  0  0  0  0  0  0  0  0
   -1.8936    3.6852    1.7871 C   0  0  0  0  0  0  0  0  0  0  0  0
   -2.1010    4.7135    1.4977 H   0  0  0  0  0  0  0  0  0  0  0  0
   -2.5502    2.9738    2.7312 N   0  0  0  0  0  0  0  0  0  0  0  0
   -3.3212    3.3092    3.3027 H   0  0  0  0  0  0  0  0  0  0  0  0
   -1.9989    1.7013    2.7888 C   0  0  0  0  0  0  0  0  0  0  0  0
   -2.2985    0.8863    3.4419 H   0  0  0  0  0  0  0  0  0  0  0  0
    0.6379   -1.2869   -0.2105 C   0  0  0  0  0  0  0  0  0  0  0  0
    1.8130   -1.1739    0.1419 O   0  0  0  0  0  0  0  0  0  0  0  0
    0.2022   -2.2893   -0.9835 N   0  0  0  0  0  0  0  0  0  0  0  0
   -0.7799   -2.3067   -1.2129 H   0  0  0  0  0  0  0  0  0  0  0  0
    1.0389   -3.3634   -1.5272 C   0  0  0  0  0  0  0  0  0  0  0  0
    0.9147   -4.2719   -0.9344 H   0  0  0  0  0  0  0  0  0  0  0  0
    0.7474   -3.5777   -2.5568 H   0  0  0  0  0  0  0  0  0  0  0  0
    2.0932   -3.0790   -1.5167 H   0  0  0  0  0  0  0  0  0  0  0  0
  5  6  2  0  0  0  0
  5  7  1  0  0  0  0
  2  3  1  0  0  0  0
  2  4  1  0  0  0  0
  2  5  1  0  0  0  0
  1  2  1  0  0  0  0
 23 24  2  0  0  0  0
 23 25  1  0  0  0  0
 21 22  1  0  0  0  0
 19 20  1  0  0  0  0
 19 21  1  0  0  0  0
 17 18  1  0  0  0  0
 17 19  1  0  0  0  0
 15 16  1  0  0  0  0
 15 17  2  0  0  0  0
 14 15  1  0  0  0  0
 14 21  2  0  0  0  0
 11 12  1  0  0  0  0
 11 13  1  0  0  0  0
 11 14  1  0  0  0  0
  9 10  1  0  0  0  0
  9 11  1  0  0  0  0
  9 23  1  0  0  0  0
  7  8  1  0  0  0  0
  7  9  1  0  0  0  0
 27 28  1  0  0  0  0
 27 29  1  0  0  0  0
 27 30  1  0  0  0  0
 25 26  1  0  0  0  0
 25 27  1  0  0  0  0
M  CHG  1  15   1
M  END
$$$$
default_name
  -OEChem-01062215323D

 30 30  0     1  0  0  0  0  0999 V2000
   -3.5507   -3.2183    1.8116 H   0  0  0  0  0  0  0  0  0  0  0  0
   -3.4597   -2.3913    1.1076 C   0  0  0  0  0  0  0  0  0  0  0  0
   -4.1577   -1.6043    1.3866 H   0  0  0  0  0  0  0  0  0  0  0  0
   -3.6807   -2.7523    0.1036 H   0  0  0  0  0  0  0  0  0  0  0  0
   -2.0477   -1.8543    1.1546 C   0  0  0  0  0  0  0  0  0  0  0  0
   -1.2227   -2.3443    1.9146 O   0  0  0  0  0  0  0  0  0  0  0  0
   -1.7517   -0.8483    0.3266 N   0  0  0  0  0  0  0  0  0  0  0  0
   -2.4847   -0.5123   -0.2804 H   0  0  0  0  0  0  0  0  0  0  0  0
   -0.4117   -0.2463    0.2186 C   0  0  1  0  0  0  0  0  0  0  0  0
   -0.4403    0.5084   -0.5713 H   0  0  0  0  0  0  0  0  0  0  0  0
   -0.0937    0.4890    1.5413 C   0  0  0  0  0  0  0  0  0  0  0  0
   -0.1531   -0.2300    2.3624 H   0  0  0  0  0  0  0  0  0  0  0  0
    0.9358    0.8520    1.5070 H   0  0  0  0  0  0  0  0  0  0  0  0
   -0.9960    1.6628    1.8581 C   0  0  0  0  0  0  0  0  0  0  0  0
   -0.9417    2.8997    1.2454 N   0  3  0  0  0  0  0  0  0  0  0  0
   -0.3164    3.1162    0.4639 H   0  0  0  0  0  0  0  0  0  0  0  0
   -1.8936    3.6852    1.7871 C   0  0  0  0  0  0  0  0  0  0  0  0
   -2.1010    4.7135    1.4977 H   0  0  0  0  0  0  0  0  0  0  0  0
   -2.5502    2.9738    2.7312 N   0  0  0  0  0  0  0  0  0  0  0  0
   -3.3212    3.3092    3.3027 H   0  0  0  0  0  0  0  0  0  0  0  0
   -1.9989    1.7013    2.7888 C   0  0  0  0  0  0  0  0  0  0  0  0
   -2.2985    0.8863    3.4419 H   0  0  0  0  0  0  0  0  0  0  0  0
    0.6379   -1.2869   -0.2105 C   0  0  0  0  0  0  0  0  0  0  0  0
    1.7340   -1.3392    0.3495 O   0  0  0  0  0  0  0  0  0  0  0  0
    0.2938   -2.1010   -1.2160 N   0  0  0  0  0  0  0  0  0  0  0  0
   -0.6297   -1.9927   -1.6069 H   0  0  0  0  0  0  0  0  0  0  0  0
    1.1533   -3.1363   -1.7981 C   0  0  0  0  0  0  0  0  0  0  0  0
    0.8725   -4.1179   -1.4110 H   0  0  0  0  0  0  0  0  0  0  0  0
    1.0419   -3.1459   -2.8837 H   0  0  0  0  0  0  0  0  0  0  0  0
    2.2025   -2.9515   -1.5582 H   0  0  0  0  0  0  0  0  0  0  0  0
  5  6  2  0  0  0  0
  5  7  1  0  0  0  0
  2  3  1  0  0  0  0
  2  4  1  0  0  0  0
  2  5  1  0  0  0  0
  1  2  1  0  0  0  0
 23 24  2  0  0  0  0
 23 25  1  0  0  0  0
 21 22  1  0  0  0  0
 19 20  1  0  0  0  0
 19 21  1  0  0  0  0
 17 18  1  0  0  0  0
 17 19  1  0  0  0  0
 15 16  1  0  0  0  0
 15 17  2  0  0  0  0
 14 15  1  0  0  0  0
 14 21  2  0  0  0  0
 11 12  1  0  0  0  0
 11 13  1  0  0  0  0
 11 14  1  0  0  0  0
  9 10  1  0  0  0  0
  9 11  1  0  0  0  0
  9 23  1  0  0  0  0
  7  8  1  0  0  0  0
  7  9  1  0  0  0  0
 27 28  1  0  0  0  0
 27 29  1  0  0  0  0
 27 30  1  0  0  0  0
 25 26  1  0  0  0  0
 25 27  1  0  0  0  0
M  CHG  1  15   1
M  END
$$$$
default_name
  -OEChem-01062215323D

 30 30  0     1  0  0  0  0  0999 V2000
   -3.5507   -3.2183    1.8116 H   0  0  0  0  0  0  0  0  0  0  0  0
   -3.4597   -2.3913    1.1076 C   0  0  0  0  0  0  0  0  0  0  0  0
   -4.1577   -1.6043    1.3866 H   0  0  0  0  0  0  0  0  0  0  0  0
   -3.6807   -2.7523    0.1036 H   0  0  0  0  0  0  0  0  0  0  0  0
   -2.0477   -1.8543    1.1546 C   0  0  0  0  0  0  0  0  0  0  0  0
   -1.2227   -2.3443    1.9146 O   0  0  0  0  0  0  0  0  0  0  0  0
   -1.7517   -0.8483    0.3266 N   0  0  0  0  0  0  0  0  0  0  0  0
   -2.4847   -0.5123   -0.2804 H   0  0  0  0  0  0  0  0  0  0  0  0
   -0.4117   -0.2463    0.2186 C   0  0  1  0  0  0  0  0  0  0  0  0
   -0.4403    0.5084   -0.5713 H   0  0  0  0  0  0  0  0  0  0  0  0
   -0.0937    0.4890    1.5413 C   0  0  0  0  0  0  0  0  0  0  0  0
   -0.1531   -0.2300    2.3624 H   0  0  0  0  0  0  0  0  0  0  0  0
    0.9358    0.8520    1.5070 H   0  0  0  0  0  0  0  0  0  0  0  0
   -0.9960    1.6628    1.8581 C   0  0  0  0  0  0  0  0  0  0  0  0
   -0.9417    2.8997    1.2454 N   0  3  0  0  0  0  0  0  0  0  0  0
   -0.3164    3.1162    0.4639 H   0  0  0  0  0  0  0  0  0  0  0  0
   -1.8936    3.6852    1.7871 C   0  0  0  0  0  0  0  0  0  0  0  0
   -2.1010    4.7135    1.4977 H   0  0  0  0  0  0  0  0  0  0  0  0
   -2.5502    2.9738    2.7312 N   0  0  0  0  0  0  0  0  0  0  0  0
   -3.3212    3.3092    3.3027 H   0  0  0  0  0  0  0  0  0  0  0  0
   -1.9989    1.7013    2.7888 C   0  0  0  0  0  0  0  0  0  0  0  0
   -2.2985    0.8863    3.4419 H   0  0  0  0  0  0  0  0  0  0  0  0
    0.6379   -1.2869   -0.2105 C   0  0  0  0  0  0  0  0  0  0  0  0
    1.6094   -1.5298    0.5071 O   0  0  0  0  0  0  0  0  0  0  0  0
    0.4366   -1.8847   -1.3913 N   0  0  0  0  0  0  0  0  0  0  0  0
   -0.3930   -1.6308   -1.9057 H   0  0  0  0  0  0  0  0  0  0  0  0
    1.3276   -2.8774   -1.9996 C   0  0  0  0  0  0  0  0  0  0  0  0
    0.9263   -3.8820   -1.8516 H   0  0  0  0  0  0  0  0  0  0  0  0
    1.4147   -2.6924   -3.0717 H   0  0  0  0  0  0  0  0  0  0  0  0
    2.3246   -2.8290   -1.5567 H   0  0  0  0  0  0  0  0  0  0  0  0
  5  6  2  0  0  0  0
  5  7  1  0  0  0  0
  2  3  1  0  0  0  0
  2  4  1  0  0  0  0
  2  5  1  0  0  0  0
  1  2  1  0  0  0  0
 23 24  2  0  0  0  0
 23 25  1  0  0  0  0
 21 22  1  0  0  0  0
 19 20  1  0  0  0  0
 19 21  1  0  0  0  0
 17 18  1  0  0  0  0
 17 19  1  0  0  0  0
 15 16  1  0  0  0  0
 15 17  2  0  0  0  0
 14 15  1  0  0  0  0
 14 21  2  0  0  0  0
 11 12  1  0  0  0  0
 11 13  1  0  0  0  0
 11 14  1  0  0  0  0
  9 10  1  0  0  0  0
  9 11  1  0  0  0  0
  9 23  1  0  0  0  0
  7  8  1  0  0  0  0
  7  9  1  0  0  0  0
 27 28  1  0  0  0  0
 27 29  1  0  0  0  0
 27 30  1  0  0  0  0
 25 26  1  0  0  0  0
 25 27  1  0  0  0  0
M  CHG  1  15   1
M  END
$$$$
default_name
  -OEChem-01062215323D

 30 30  0     1  0  0  0  0  0999 V2000
   -3.5507   -3.2183    1.8116 H   0  0  0  0  0  0  0  0  0  0  0  0
   -3.4597   -2.3913    1.1076 C   0  0  0  0  0  0  0  0  0  0  0  0
   -4.1577   -1.6043    1.3866 H   0  0  0  0  0  0  0  0  0  0  0  0
   -3.6807   -2.7523    0.1036 H   0  0  0  0  0  0  0  0  0  0  0  0
   -2.0477   -1.8543    1.1546 C   0  0  0  0  0  0  0  0  0  0  0  0
   -1.2227   -2.3443    1.9146 O   0  0  0  0  0  0  0  0  0  0  0  0
   -1.7517   -0.8483    0.3266 N   0  0  0  0  0  0  0  0  0  0  0  0
   -2.4847   -0.5123   -0.2804 H   0  0  0  0  0  0  0  0  0  0  0  0
   -0.4117   -0.2463    0.2186 C   0  0  1  0  0  0  0  0  0  0  0  0
   -0.4403    0.5084   -0.5713 H   0  0  0  0  0  0  0  0  0  0  0  0
   -0.0937    0.4890    1.5413 C   0  0  0  0  0  0  0  0  0  0  0  0
   -0.1531   -0.2300    2.3624 H   0  0  0  0  0  0  0  0  0  0  0  0
    0.9358    0.8520    1.5070 H   0  0  0  0  0  0  0  0  0  0  0  0
   -0.9960    1.6628    1.8581 C   0  0  0  0  0  0  0  0  0  0  0  0
   -0.9417    2.8997    1.2454 N   0  3  0  0  0  0  0  0  0  0  0  0
   -0.3164    3.1162    0.4639 H   0  0  0  0  0  0  0  0  0  0  0  0
   -1.8936    3.6852    1.7871 C   0  0  0  0  0  0  0  0  0  0  0  0
   -2.1010    4.7135    1.4977 H   0  0  0  0  0  0  0  0  0  0  0  0
   -2.5502    2.9738    2.7312 N   0  0  0  0  0  0  0  0  0  0  0  0
   -3.3212    3.3092    3.3027 H   0  0  0  0  0  0  0  0  0  0  0  0
   -1.9989    1.7013    2.7888 C   0  0  0  0  0  0  0  0  0  0  0  0
   -2.2985    0.8863    3.4419 H   0  0  0  0  0  0  0  0  0  0  0  0
    0.6379   -1.2869   -0.2105 C   0  0  0  0  0  0  0  0  0  0  0  0
    1.4478   -1.7327    0.6038 O   0  0  0  0  0  0  0  0  0  0  0  0
    0.6209   -1.6551   -1.4975 N   0  0  0  0  0  0  0  0  0  0  0  0
   -0.0860   -1.2455   -2.0891 H   0  0  0  0  0  0  0  0  0  0  0  0
    1.5499   -2.6043   -2.1181 C   0  0  0  0  0  0  0  0  0  0  0  0
    1.0724   -3.5802   -2.2261 H   0  0  0  0  0  0  0  0  0  0  0  0
    1.8405   -2.2480   -3.1079 H   0  0  0  0  0  0  0  0  0  0  0  0
    2.4511   -2.7198   -1.5122 H   0  0  0  0  0  0  0  0  0  0  0  0
  5  6  2  0  0  0  0
  5  7  1  0  0  0  0
  2  3  1  0  0  0  0
  2  4  1  0  0  0  0
  2  5  1  0  0  0  0
  1  2  1  0  0  0  0
 23 24  2  0  0  0  0
 23 25  1  0  0  0  0
 21 22  1  0  0  0  0
 19 20  1  0  0  0  0
 19 21  1  0  0  0  0
 17 18  1  0  0  0  0
 17 19  1  0  0  0  0
 15 16  1  0  0  0  0
 15 17  2  0  0  0  0
 14 15  1  0  0  0  0
 14 21  2  0  0  0  0
 11 12  1  0  0  0  0
 11 13  1  0  0  0  0
 11 14  1  0  0  0  0
  9 10  1  0  0  0  0
  9 11  1  0  0  0  0
  9 23  1  0  0  0  0
  7  8  1  0  0  0  0
  7  9  1  0  0  0  0
 27 28  1  0  0  0  0
 27 29  1  0  0  0  0
 27 30  1  0  0  0  0
 25 26  1  0  0  0  0
 25 27  1  0  0  0  0
M  CHG  1  15   1
M  END
$$$$
default_name
  -OEChem-01062215323D

 30 30  0     1  0  0  0  0  0999 V2000
   -3.5507   -3.2183    1.8116 H   0  0  0  0  0  0  0  0  0  0  0  0
   -3.4597   -2.3913    1.1076 C   0  0  0  0  0  0  0  0  0  0  0  0
   -4.1577   -1.6043    1.3866 H   0  0  0  0  0  0  0  0  0  0  0  0
   -3.6807   -2.7523    0.1036 H   0  0  0  0  0  0  0  0  0  0  0  0
   -2.0477   -1.8543    1.1546 C   0  0  0  0  0  0  0  0  0  0  0  0
   -1.2227   -2.3443    1.9146 O   0  0  0  0  0  0  0  0  0  0  0  0
   -1.7517   -0.8483    0.3266 N   0  0  0  0  0  0  0  0  0  0  0  0
   -2.4847   -0.5123   -0.2804 H   0  0  0  0  0  0  0  0  0  0  0  0
   -0.4117   -0.2463    0.2186 C   0  0  1  0  0  0  0  0  0  0  0  0
   -0.4403    0.5084   -0.5713 H   0  0  0  0  0  0  0  0  0  0  0  0
   -0.0937    0.4890    1.5413 C   0  0  0  0  0  0  0  0  0  0  0  0
   -0.1531   -0.2300    2.3624 H   0  0  0  0  0  0  0  0  0  0  0  0
    0.9358    0.8520    1.5070 H   0  0  0  0  0  0  0  0  0  0  0  0
   -0.9960    1.6628    1.8581 C   0  0  0  0  0  0  0  0  0  0  0  0
   -0.9417    2.8997    1.2454 N   0  3  0  0  0  0  0  0  0  0  0  0
   -0.3164    3.1162    0.4639 H   0  0  0  0  0  0  0  0  0  0  0  0
   -1.8936    3.6852    1.7871 C   0  0  0  0  0  0  0  0  0  0  0  0
   -2.1010    4.7135    1.4977 H   0  0  0  0  0  0  0  0  0  0  0  0
   -2.5502    2.9738    2.7312 N   0  0  0  0  0  0  0  0  0  0  0  0
   -3.3212    3.3092    3.3027 H   0  0  0  0  0  0  0  0  0  0  0  0
   -1.9989    1.7013    2.7888 C   0  0  0  0  0  0  0  0  0  0  0  0
   -2.2985    0.8863    3.4419 H   0  0  0  0  0  0  0  0  0  0  0  0
    0.6379   -1.2869   -0.2105 C   0  0  0  0  0  0  0  0  0  0  0  0
    1.2601   -1.9342    0.6332 O   0  0  0  0  0  0  0  0  0  0  0  0
    0.8340   -1.4279   -1.5272 N   0  0  0  0  0  0  0  0  0  0  0  0
    0.2705   -0.8632   -2.1445 H   0  0  0  0  0  0  0  0  0  0  0  0
    1.8051   -2.3356   -2.1454 C   0  0  0  0  0  0  0  0  0  0  0  0
    1.3008   -3.2332   -2.5090 H   0  0  0  0  0  0  0  0  0  0  0  0
    2.2901   -1.8432   -2.9900 H   0  0  0  0  0  0  0  0  0  0  0  0
    2.5734   -2.6312   -1.4278 H   0  0  0  0  0  0  0  0  0  0  0  0
  5  6  2  0  0  0  0
  5  7  1  0  0  0  0
  2  3  1  0  0  0  0
  2  4  1  0  0  0  0
  2  5  1  0  0  0  0
  1  2  1  0  0  0  0
 23 24  2  0  0  0  0
 23 25  1  0  0  0  0
 21 22  1  0  0  0  0
 19 20  1  0  0  0  0
 19 21  1  0  0  0  0
 17 18  1  0  0  0  0
 17 19  1  0  0  0  0
 15 16  1  0  0  0  0
 15 17  2  0  0  0  0
 14 15  1  0  0  0  0
 14 21  2  0  0  0  0
 11 12  1  0  0  0  0
 11 13  1  0  0  0  0
 11 14  1  0  0  0  0
  9 10  1  0  0  0  0
  9 11  1  0  0  0  0
  9 23  1  0  0  0  0
  7  8  1  0  0  0  0
  7  9  1  0  0  0  0
 27 28  1  0  0  0  0
 27 29  1  0  0  0  0
 27 30  1  0  0  0  0
 25 26  1  0  0  0  0
 25 27  1  0  0  0  0
M  CHG  1  15   1
M  END
$$$$
default_name
  -OEChem-01062215323D

 30 30  0     1  0  0  0  0  0999 V2000
   -3.5507   -3.2183    1.8116 H   0  0  0  0  0  0  0  0  0  0  0  0
   -3.4597   -2.3913    1.1076 C   0  0  0  0  0  0  0  0  0  0  0  0
   -4.1577   -1.6043    1.3866 H   0  0  0  0  0  0  0  0  0  0  0  0
   -3.6807   -2.7523    0.1036 H   0  0  0  0  0  0  0  0  0  0  0  0
   -2.0477   -1.8543    1.1546 C   0  0  0  0  0  0  0  0  0  0  0  0
   -1.2227   -2.3443    1.9146 O   0  0  0  0  0  0  0  0  0  0  0  0
   -1.7517   -0.8483    0.3266 N   0  0  0  0  0  0  0  0  0  0  0  0
   -2.4847   -0.5123   -0.2804 H   0  0  0  0  0  0  0  0  0  0  0  0
   -0.4117   -0.2463    0.2186 C   0  0  1  0  0  0  0  0  0  0  0  0
   -0.4403    0.5084   -0.5713 H   0  0  0  0  0  0  0  0  0  0  0  0
   -0.0937    0.4890    1.5413 C   0  0  0  0  0  0  0  0  0  0  0  0
   -0.1531   -0.2300    2.3624 H   0  0  0  0  0  0  0  0  0  0  0  0
    0.9358    0.8520    1.5070 H   0  0  0  0  0  0  0  0  0  0  0  0
   -0.9960    1.6628    1.8581 C   0  0  0  0  0  0  0  0  0  0  0  0
   -0.9417    2.8997    1.2454 N   0  3  0  0  0  0  0  0  0  0  0  0
   -0.3164    3.1162    0.4639 H   0  0  0  0  0  0  0  0  0  0  0  0
   -1.8936    3.6852    1.7871 C   0  0  0  0  0  0  0  0  0  0  0  0
   -2.1010    4.7135    1.4977 H   0  0  0  0  0  0  0  0  0  0  0  0
   -2.5502    2.9738    2.7312 N   0  0  0  0  0  0  0  0  0  0  0  0
   -3.3212    3.3092    3.3027 H   0  0  0  0  0  0  0  0  0  0  0  0
   -1.9989    1.7013    2.7888 C   0  0  0  0  0  0  0  0  0  0  0  0
   -2.2985    0.8863    3.4419 H   0  0  0  0  0  0  0  0  0  0  0  0
    0.6379   -1.2869   -0.2105 C   0  0  0  0  0  0  0  0  0  0  0  0
    1.0591   -2.1203    0.5931 O   0  0  0  0  0  0  0  0  0  0  0  0
    1.0614   -1.2186   -1.4786 N   0  0  0  0  0  0  0  0  0  0  0  0
    0.6521   -0.5098   -2.0681 H   0  0  0  0  0  0  0  0  0  0  0  0
    2.0758   -2.0897   -2.0798 C   0  0  0  0  0  0  0  0  0  0  0  0
    1.5960   -2.8645   -2.6811 H   0  0  0  0  0  0  0  0  0  0  0  0
    2.7330   -1.5053   -2.7260 H   0  0  0  0  0  0  0  0  0  0  0  0
    2.6832   -2.5694   -1.3093 H   0  0  0  0  0  0  0  0  0  0  0  0
  5  6  2  0  0  0  0
  5  7  1  0  0  0  0
  2  3  1  0  0  0  0
  2  4  1  0  0  0  0
  2  5  1  0  0  0  0
  1  2  1  0  0  0  0
 23 24  2  0  0  0  0
 23 25  1  0  0  0  0
 21 22  1  0  0  0  0
 19 20  1  0  0  0  0
 19 21  1  0  0  0  0
 17 18  1  0  0  0  0
 17 19  1  0  0  0  0
 15 16  1  0  0  0  0
 15 17  2  0  0  0  0
 14 15  1  0  0  0  0
 14 21  2  0  0  0  0
 11 12  1  0  0  0  0
 11 13  1  0  0  0  0
 11 14  1  0  0  0  0
  9 10  1  0  0  0  0
  9 11  1  0  0  0  0
  9 23  1  0  0  0  0
  7  8  1  0  0  0  0
  7  9  1  0  0  0  0
 27 28  1  0  0  0  0
 27 29  1  0  0  0  0
 27 30  1  0  0  0  0
 25 26  1  0  0  0  0
 25 27  1  0  0  0  0
M  CHG  1  15   1
M  END
$$$$
default_name
  -OEChem-01062215323D

 30 30  0     1  0  0  0  0  0999 V2000
   -3.5507   -3.2183    1.8116 H   0  0  0  0  0  0  0  0  0  0  0  0
   -3.4597   -2.3913    1.1076 C   0  0  0  0  0  0  0  0  0  0  0  0
   -4.1577   -1.6043    1.3866 H   0  0  0  0  0  0  0  0  0  0  0  0
   -3.6807   -2.7523    0.1036 H   0  0  0  0  0  0  0  0  0  0  0  0
   -2.0477   -1.8543    1.1546 C   0  0  0  0  0  0  0  0  0  0  0  0
   -1.2227   -2.3443    1.9146 O   0  0  0  0  0  0  0  0  0  0  0  0
   -1.7517   -0.8483    0.3266 N   0  0  0  0  0  0  0  0  0  0  0  0
   -2.4847   -0.5123   -0.2804 H   0  0  0  0  0  0  0  0  0  0  0  0
   -0.4117   -0.2463    0.2186 C   0  0  1  0  0  0  0  0  0  0  0  0
   -0.4403    0.5084   -0.5713 H   0  0  0  0  0  0  0  0  0  0  0  0
   -0.0937    0.4890    1.5413 C   0  0  0  0  0  0  0  0  0  0  0  0
   -0.1531   -0.2300    2.3624 H   0  0  0  0  0  0  0  0  0  0  0  0
    0.9358    0.8520    1.5070 H   0  0  0  0  0  0  0  0  0  0  0  0
   -0.9960    1.6628    1.8581 C   0  0  0  0  0  0  0  0  0  0  0  0
   -0.9417    2.8997    1.2454 N   0  3  0  0  0  0  0  0  0  0  0  0
   -0.3164    3.1162    0.4639 H   0  0  0  0  0  0  0  0  0  0  0  0
   -1.8936    3.6852    1.7871 C   0  0  0  0  0  0  0  0  0  0  0  0
   -2.1010    4.7135    1.4977 H   0  0  0  0  0  0  0  0  0  0  0  0
   -2.5502    2.9738    2.7312 N   0  0  0  0  0  0  0  0  0  0  0  0
   -3.3212    3.3092    3.3027 H   0  0  0  0  0  0  0  0  0  0  0  0
   -1.9989    1.7013    2.7888 C   0  0  0  0  0  0  0  0  0  0  0  0
   -2.2985    0.8863    3.4419 H   0  0  0  0  0  0  0  0  0  0  0  0
    0.6379   -1.2869   -0.2105 C   0  0  0  0  0  0  0  0  0  0  0  0
    0.8585   -2.2786    0.4864 O   0  0  0  0  0  0  0  0  0  0  0  0
    1.2877   -1.0414   -1.3549 N   0  0  0  0  0  0  0  0  0  0  0  0
    1.0329   -0.2095   -1.8652 H   0  0  0  0  0  0  0  0  0  0  0  0
    2.3435   -1.8833   -1.9255 C   0  0  0  0  0  0  0  0  0  0  0  0
    1.9378   -2.4993   -2.7306 H   0  0  0  0  0  0  0  0  0  0  0  0
    3.1390   -1.2576   -2.3338 H   0  0  0  0  0  0  0  0  0  0  0  0
    2.7729   -2.5385   -1.1647 H   0  0  0  0  0  0  0  0  0  0  0  0
  5  6  2  0  0  0  0
  5  7  1  0  0  0  0
  2  3  1  0  0  0  0
  2  4  1  0  0  0  0
  2  5  1  0  0  0  0
  1  2  1  0  0  0  0
 23 24  2  0  0  0  0
 23 25  1  0  0  0  0
 21 22  1  0  0  0  0
 19 20  1  0  0  0  0
 19 21  1  0  0  0  0
 17 18  1  0  0  0  0
 17 19  1  0  0  0  0
 15 16  1  0  0  0  0
 15 17  2  0  0  0  0
 14 15  1  0  0  0  0
 14 21  2  0  0  0  0
 11 12  1  0  0  0  0
 11 13  1  0  0  0  0
 11 14  1  0  0  0  0
  9 10  1  0  0  0  0
  9 11  1  0  0  0  0
  9 23  1  0  0  0  0
  7  8  1  0  0  0  0
  7  9  1  0  0  0  0
 27 28  1  0  0  0  0
 27 29  1  0  0  0  0
 27 30  1  0  0  0  0
 25 26  1  0  0  0  0
 25 27  1  0  0  0  0
M  CHG  1  15   1
M  END
$$$$
default_name
  -OEChem-01062215323D

 30 30  0     1  0  0  0  0  0999 V2000
   -3.5507   -3.2183    1.8116 H   0  0  0  0  0  0  0  0  0  0  0  0
   -3.4597   -2.3913    1.1076 C   0  0  0  0  0  0  0  0  0  0  0  0
   -4.1577   -1.6043    1.3866 H   0  0  0  0  0  0  0  0  0  0  0  0
   -3.6807   -2.7523    0.1036 H   0  0  0  0  0  0  0  0  0  0  0  0
   -2.0477   -1.8543    1.1546 C   0  0  0  0  0  0  0  0  0  0  0  0
   -1.2227   -2.3443    1.9146 O   0  0  0  0  0  0  0  0  0  0  0  0
   -1.7517   -0.8483    0.3266 N   0  0  0  0  0  0  0  0  0  0  0  0
   -2.4847   -0.5123   -0.2804 H   0  0  0  0  0  0  0  0  0  0  0  0
   -0.4117   -0.2463    0.2186 C   0  0  1  0  0  0  0  0  0  0  0  0
   -0.4403    0.5084   -0.5713 H   0  0  0  0  0  0  0  0  0  0  0  0
   -0.0937    0.4890    1.5413 C   0  0  0  0  0  0  0  0  0  0  0  0
   -0.1531   -0.2300    2.3624 H   0  0  0  0  0  0  0  0  0  0  0  0
    0.9358    0.8520    1.5070 H   0  0  0  0  0  0  0  0  0  0  0  0
   -0.9960    1.6628    1.8581 C   0  0  0  0  0  0  0  0  0  0  0  0
   -0.9417    2.8997    1.2454 N   0  3  0  0  0  0  0  0  0  0  0  0
   -0.3164    3.1162    0.4639 H   0  0  0  0  0  0  0  0  0  0  0  0
   -1.8936    3.6852    1.7871 C   0  0  0  0  0  0  0  0  0  0  0  0
   -2.1010    4.7135    1.4977 H   0  0  0  0  0  0  0  0  0  0  0  0
   -2.5502    2.9738    2.7312 N   0  0  0  0  0  0  0  0  0  0  0  0
   -3.3212    3.3092    3.3027 H   0  0  0  0  0  0  0  0  0  0  0  0
   -1.9989    1.7013    2.7888 C   0  0  0  0  0  0  0  0  0  0  0  0
   -2.2985    0.8863    3.4419 H   0  0  0  0  0  0  0  0  0  0  0  0
    0.6379   -1.2869   -0.2105 C   0  0  0  0  0  0  0  0  0  0  0  0
    0.6720   -2.3982    0.3203 O   0  0  0  0  0  0  0  0  0  0  0  0
    1.4974   -0.9084   -1.1645 N   0  0  0  0  0  0  0  0  0  0  0  0
    1.3868    0.0173   -1.5495 H   0  0  0  0  0  0  0  0  0  0  0  0
    2.5900   -1.7305   -1.6933 C   0  0  0  0  0  0  0  0  0  0  0  0
    2.3030   -2.1625   -2.6541 H   0  0  0  0  0  0  0  0  0  0  0  0
    3.4805   -1.1168   -1.8402 H   0  0  0  0  0  0  0  0  0  0  0  0
    2.8365   -2.5407   -1.0038 H   0  0  0  0  0  0  0  0  0  0  0  0
  5  6  2  0  0  0  0
  5  7  1  0  0  0  0
  2  3  1  0  0  0  0
  2  4  1  0  0  0  0
  2  5  1  0  0  0  0
  1  2  1  0  0  0  0
 23 24  2  0  0  0  0
 23 25  1  0  0  0  0
 21 22  1  0  0  0  0
 19 20  1  0  0  0  0
 19 21  1  0  0  0  0
 17 18  1  0  0  0  0
 17 19  1  0  0  0  0
 15 16  1  0  0  0  0
 15 17  2  0  0  0  0
 14 15  1  0  0  0  0
 14 21  2  0  0  0  0
 11 12  1  0  0  0  0
 11 13  1  0  0  0  0
 11 14  1  0  0  0  0
  9 10  1  0  0  0  0
  9 11  1  0  0  0  0
  9 23  1  0  0  0  0
  7  8  1  0  0  0  0
  7  9  1  0  0  0  0
 27 28  1  0  0  0  0
 27 29  1  0  0  0  0
 27 30  1  0  0  0  0
 25 26  1  0  0  0  0
 25 27  1  0  0  0  0
M  CHG  1  15   1
M  END
$$$$
default_name
  -OEChem-01062215323D

 30 30  0     1  0  0  0  0  0999 V2000
   -3.5507   -3.2183    1.8116 H   0  0  0  0  0  0  0  0  0  0  0  0
   -3.4597   -2.3913    1.1076 C   0  0  0  0  0  0  0  0  0  0  0  0
   -4.1577   -1.6043    1.3866 H   0  0  0  0  0  0  0  0  0  0  0  0
   -3.6807   -2.7523    0.1036 H   0  0  0  0  0  0  0  0  0  0  0  0
   -2.0477   -1.8543    1.1546 C   0  0  0  0  0  0  0  0  0  0  0  0
   -1.2227   -2.3443    1.9146 O   0  0  0  0  0  0  0  0  0  0  0  0
   -1.7517   -0.8483    0.3266 N   0  0  0  0  0  0  0  0  0  0  0  0
   -2.4847   -0.5123   -0.2804 H   0  0  0  0  0  0  0  0  0  0  0  0
   -0.4117   -0.2463    0.2186 C   0  0  1  0  0  0  0  0  0  0  0  0
   -0.4403    0.5084   -0.5713 H   0  0  0  0  0  0  0  0  0  0  0  0
   -0.0937    0.4890    1.5413 C   0  0  0  0  0  0  0  0  0  0  0  0
   -0.1531   -0.2300    2.3624 H   0  0  0  0  0  0  0  0  0  0  0  0
    0.9358    0.8520    1.5070 H   0  0  0  0  0  0  0  0  0  0  0  0
   -0.9960    1.6628    1.8581 C   0  0  0  0  0  0  0  0  0  0  0  0
   -0.9417    2.8997    1.2454 N   0  3  0  0  0  0  0  0  0  0  0  0
   -0.3164    3.1162    0.4639 H   0  0  0  0  0  0  0  0  0  0  0  0
   -1.8936    3.6852    1.7871 C   0  0  0  0  0  0  0  0  0  0  0  0
   -2.1010    4.7135    1.4977 H   0  0  0  0  0  0  0  0  0  0  0  0
   -2.5502    2.9738    2.7312 N   0  0  0  0  0  0  0  0  0  0  0  0
   -3.3212    3.3092    3.3027 H   0  0  0  0  0  0  0  0  0  0  0  0
   -1.9989    1.7013    2.7888 C   0  0  0  0  0  0  0  0  0  0  0  0
   -2.2985    0.8863    3.4419 H   0  0  0  0  0  0  0  0  0  0  0  0
    0.6379   -1.2869   -0.2105 C   0  0  0  0  0  0  0  0  0  0  0  0
    0.5123   -2.4709    0.1061 O   0  0  0  0  0  0  0  0  0  0  0  0
    1.6762   -0.8287   -0.9204 N   0  0  0  0  0  0  0  0  0  0  0  0
    1.6898    0.1551   -1.1427 H   0  0  0  0  0  0  0  0  0  0  0  0
    2.7985   -1.6417   -1.3989 C   0  0  0  0  0  0  0  0  0  0  0  0
    2.6667   -1.8770   -2.4568 H   0  0  0  0  0  0  0  0  0  0  0  0
    3.7340   -1.0925   -1.2788 H   0  0  0  0  0  0  0  0  0  0  0  0
    2.8696   -2.5758   -0.8377 H   0  0  0  0  0  0  0  0  0  0  0  0
  5  6  2  0  0  0  0
  5  7  1  0  0  0  0
  2  3  1  0  0  0  0
  2  4  1  0  0  0  0
  2  5  1  0  0  0  0
  1  2  1  0  0  0  0
 23 24  2  0  0  0  0
 23 25  1  0  0  0  0
 21 22  1  0  0  0  0
 19 20  1  0  0  0  0
 19 21  1  0  0  0  0
 17 18  1  0  0  0  0
 17 19  1  0  0  0  0
 15 16  1  0  0  0  0
 15 17  2  0  0  0  0
 14 15  1  0  0  0  0
 14 21  2  0  0  0  0
 11 12  1  0  0  0  0
 11 13  1  0  0  0  0
 11 14  1  0  0  0  0
  9 10  1  0  0  0  0
  9 11  1  0  0  0  0
  9 23  1  0  0  0  0
  7  8  1  0  0  0  0
  7  9  1  0  0  0  0
 27 28  1  0  0  0  0
 27 29  1  0  0  0  0
 27 30  1  0  0  0  0
 25 26  1  0  0  0  0
 25 27  1  0  0  0  0
M  CHG  1  15   1
M  END
$$$$
default_name
  -OEChem-01062215323D

 30 30  0     1  0  0  0  0  0999 V2000
   -3.5507   -3.2183    1.8116 H   0  0  0  0  0  0  0  0  0  0  0  0
   -3.4597   -2.3913    1.1076 C   0  0  0  0  0  0  0  0  0  0  0  0
   -4.1577   -1.6043    1.3866 H   0  0  0  0  0  0  0  0  0  0  0  0
   -3.6807   -2.7523    0.1036 H   0  0  0  0  0  0  0  0  0  0  0  0
   -2.0477   -1.8543    1.1546 C   0  0  0  0  0  0  0  0  0  0  0  0
   -1.2227   -2.3443    1.9146 O   0  0  0  0  0  0  0  0  0  0  0  0
   -1.7517   -0.8483    0.3266 N   0  0  0  0  0  0  0  0  0  0  0  0
   -2.4847   -0.5123   -0.2804 H   0  0  0  0  0  0  0  0  0  0  0  0
   -0.4117   -0.2463    0.2186 C   0  0  1  0  0  0  0  0  0  0  0  0
   -0.4403    0.5084   -0.5713 H   0  0  0  0  0  0  0  0  0  0  0  0
   -0.0937    0.4890    1.5413 C   0  0  0  0  0  0  0  0  0  0  0  0
   -0.1531   -0.2300    2.3624 H   0  0  0  0  0  0  0  0  0  0  0  0
    0.9358    0.8520    1.5070 H   0  0  0  0  0  0  0  0  0  0  0  0
   -0.9960    1.6628    1.8581 C   0  0  0  0  0  0  0  0  0  0  0  0
   -0.9417    2.8997    1.2454 N   0  3  0  0  0  0  0  0  0  0  0  0
   -0.3164    3.1162    0.4639 H   0  0  0  0  0  0  0  0  0  0  0  0
   -1.8936    3.6852    1.7871 C   0  0  0  0  0  0  0  0  0  0  0  0
   -2.1010    4.7135    1.4977 H   0  0  0  0  0  0  0  0  0  0  0  0
   -2.5502    2.9738    2.7312 N   0  0  0  0  0  0  0  0  0  0  0  0
   -3.3212    3.3092    3.3027 H   0  0  0  0  0  0  0  0  0  0  0  0
   -1.9989    1.7013    2.7888 C   0  0  0  0  0  0  0  0  0  0  0  0
   -2.2985    0.8863    3.4419 H   0  0  0  0  0  0  0  0  0  0  0  0
    0.6379   -1.2869   -0.2105 C   0  0  0  0  0  0  0  0  0  0  0  0
    0.3903   -2.4918   -0.1416 O   0  0  0  0  0  0  0  0  0  0  0  0
    1.8120   -0.8077   -0.6393 N   0  0  0  0  0  0  0  0  0  0  0  0
    1.9212    0.1945   -0.6723 H   0  0  0  0  0  0  0  0  0  0  0  0
    2.9548   -1.6228   -1.0623 C   0  0  0  0  0  0  0  0  0  0  0  0
    3.0041   -1.6624   -2.1523 H   0  0  0  0  0  0  0  0  0  0  0  0
    3.8824   -1.1865   -0.6879 H   0  0  0  0  0  0  0  0  0  0  0  0
    2.8700   -2.6414   -0.6777 H   0  0  0  0  0  0  0  0  0  0  0  0
  5  6  2  0  0  0  0
  5  7  1  0  0  0  0
  2  3  1  0  0  0  0
  2  4  1  0  0  0  0
  2  5  1  0  0  0  0
  1  2  1  0  0  0  0
 23 24  2  0  0  0  0
 23 25  1  0  0  0  0
 21 22  1  0  0  0  0
 19 20  1  0  0  0  0
 19 21  1  0  0  0  0
 17 18  1  0  0  0  0
 17 19  1  0  0  0  0
 15 16  1  0  0  0  0
 15 17  2  0  0  0  0
 14 15  1  0  0  0  0
 14 21  2  0  0  0  0
 11 12  1  0  0  0  0
 11 13  1  0  0  0  0
 11 14  1  0  0  0  0
  9 10  1  0  0  0  0
  9 11  1  0  0  0  0
  9 23  1  0  0  0  0
  7  8  1  0  0  0  0
  7  9  1  0  0  0  0
 27 28  1  0  0  0  0
 27 29  1  0  0  0  0
 27 30  1  0  0  0  0
 25 26  1  0  0  0  0
 25 27  1  0  0  0  0
M  CHG  1  15   1
M  END
$$$$
default_name
  -OEChem-01062215323D

 30 30  0     1  0  0  0  0  0999 V2000
   -3.5507   -3.2183    1.8116 H   0  0  0  0  0  0  0  0  0  0  0  0
   -3.4597   -2.3913    1.1076 C   0  0  0  0  0  0  0  0  0  0  0  0
   -4.1577   -1.6043    1.3866 H   0  0  0  0  0  0  0  0  0  0  0  0
   -3.6807   -2.7523    0.1036 H   0  0  0  0  0  0  0  0  0  0  0  0
   -2.0477   -1.8543    1.1546 C   0  0  0  0  0  0  0  0  0  0  0  0
   -1.2227   -2.3443    1.9146 O   0  0  0  0  0  0  0  0  0  0  0  0
   -1.7517   -0.8483    0.3266 N   0  0  0  0  0  0  0  0  0  0  0  0
   -2.4847   -0.5123   -0.2804 H   0  0  0  0  0  0  0  0  0  0  0  0
   -0.4117   -0.2463    0.2186 C   0  0  1  0  0  0  0  0  0  0  0  0
   -0.4980    0.6739   -0.3645 H   0  0  0  0  0  0  0  0  0  0  0  0
    0.0646    0.1533    1.6345 C   0  0  0  0  0  0  0  0  0  0  0  0
    0.0677   -0.7390    2.2656 H   0  0  0  0  0  0  0  0  0  0  0  0
    1.0959    0.5076    1.5752 H   0  0  0  0  0  0  0  0  0  0  0  0
   -0.7625    1.2246    2.3132 C   0  0  0  0  0  0  0  0  0  0  0  0
   -0.7327    2.5710    2.0054 N   0  3  0  0  0  0  0  0  0  0  0  0
   -0.1852    2.9622    1.2335 H   0  0  0  0  0  0  0  0  0  0  0  0
   -1.5982    3.2121    2.8158 C   0  0  0  0  0  0  0  0  0  0  0  0
   -1.8018    4.2809    2.7996 H   0  0  0  0  0  0  0  0  0  0  0  0
   -2.1757    2.3018    3.6320 N   0  0  0  0  0  0  0  0  0  0  0  0
   -2.8724    2.4974    4.3461 H   0  0  0  0  0  0  0  0  0  0  0  0
   -1.6619    1.0483    3.3298 C   0  0  0  0  0  0  0  0  0  0  0  0
   -1.9179    0.1038    3.8020 H   0  0  0  0  0  0  0  0  0  0  0  0
    0.5544   -1.1625   -0.5533 C   0  0  0  0  0  0  0  0  0  0  0  0
    0.1754   -2.2536   -0.9820 O   0  0  0  0  0  0  0  0  0  0  0  0
    1.8051   -0.7121   -0.7114 N   0  0  0  0  0  0  0  0  0  0  0  0
    2.0224    0.1985   -0.3361 H   0  0  0  0  0  0  0  0  0  0  0  0
    2.8868   -1.4379   -1.3840 C   0  0  0  0  0  0  0  0  0  0  0  0
    3.0248   -1.0518   -2.3960 H   0  0  0  0  0  0  0  0  0  0  0  0
    3.8201   -1.3099   -0.8329 H   0  0  0  0  0  0  0  0  0  0  0  0
    2.6619   -2.5049   -1.4432 H   0  0  0  0  0  0  0  0  0  0  0  0
  5  6  2  0  0  0  0
  5  7  1  0  0  0  0
  2  3  1  0  0  0  0
  2  4  1  0  0  0  0
  2  5  1  0  0  0  0
  1  2  1  0  0  0  0
 23 24  2  0  0  0  0
 23 25  1  0  0  0  0
 21 22  1  0  0  0  0
 19 20  1  0  0  0  0
 19 21  1  0  0  0  0
 17 18  1  0  0  0  0
 17 19  1  0  0  0  0
 15 16  1  0  0  0  0
 15 17  2  0  0  0  0
 14 15  1  0  0  0  0
 14 21  2  0  0  0  0
 11 12  1  0  0  0  0
 11 13  1  0  0  0  0
 11 14  1  0  0  0  0
  9 10  1  0  0  0  0
  9 11  1  0  0  0  0
  9 23  1  0  0  0  0
  7  8  1  0  0  0  0
  7  9  1  0  0  0  0
 27 28  1  0  0  0  0
 27 29  1  0  0  0  0
 27 30  1  0  0  0  0
 25 26  1  0  0  0  0
 25 27  1  0  0  0  0
M  CHG  1  15   1
M  END
$$$$
default_name
  -OEChem-01062215323D

 30 30  0     1  0  0  0  0  0999 V2000
   -3.5507   -3.2183    1.8116 H   0  0  0  0  0  0  0  0  0  0  0  0
   -3.4597   -2.3913    1.1076 C   0  0  0  0  0  0  0  0  0  0  0  0
   -4.1577   -1.6043    1.3866 H   0  0  0  0  0  0  0  0  0  0  0  0
   -3.6807   -2.7523    0.1036 H   0  0  0  0  0  0  0  0  0  0  0  0
   -2.0477   -1.8543    1.1546 C   0  0  0  0  0  0  0  0  0  0  0  0
   -1.2227   -2.3443    1.9146 O   0  0  0  0  0  0  0  0  0  0  0  0
   -1.7517   -0.8483    0.3266 N   0  0  0  0  0  0  0  0  0  0  0  0
   -2.4847   -0.5123   -0.2804 H   0  0  0  0  0  0  0  0  0  0  0  0
   -0.4117   -0.2463    0.2186 C   0  0  1  0  0  0  0  0  0  0  0  0
   -0.4980    0.6739   -0.3645 H   0  0  0  0  0  0  0  0  0  0  0  0
    0.0646    0.1533    1.6345 C   0  0  0  0  0  0  0  0  0  0  0  0
    0.0677   -0.7390    2.2656 H   0  0  0  0  0  0  0  0  0  0  0  0
    1.0959    0.5076    1.5752 H   0  0  0  0  0  0  0  0  0  0  0  0
   -0.7625    1.2246    2.3132 C   0  0  0  0  0  0  0  0  0  0  0  0
   -0.7327    2.5710    2.0054 N   0  3  0  0  0  0  0  0  0  0  0  0
   -0.1852    2.9622    1.2335 H   0  0  0  0  0  0  0  0  0  0  0  0
   -1.5982    3.2121    2.8158 C   0  0  0  0  0  0  0  0  0  0  0  0
   -1.8018    4.2809    2.7996 H   0  0  0  0  0  0  0  0  0  0  0  0
   -2.1757    2.3018    3.6320 N   0  0  0  0  0  0  0  0  0  0  0  0
   -2.8724    2.4974    4.3461 H   0  0  0  0  0  0  0  0  0  0  0  0
   -1.6619    1.0483    3.3298 C   0  0  0  0  0  0  0  0  0  0  0  0
   -1.9179    0.1038    3.8020 H   0  0  0  0  0  0  0  0  0  0  0  0
    0.5544   -1.1625   -0.5533 C   0  0  0  0  0  0  0  0  0  0  0  0
    0.1261   -2.1103   -1.2138 O   0  0  0  0  0  0  0  0  0  0  0  0
    1.8580   -0.8762   -0.4503 N   0  0  0  0  0  0  0  0  0  0  0  0
    2.1156   -0.0737    0.1038 H   0  0  0  0  0  0  0  0  0  0  0  0
    2.9434   -1.6378   -1.0760 C   0  0  0  0  0  0  0  0  0  0  0  0
    3.2904   -1.1258   -1.9757 H   0  0  0  0  0  0  0  0  0  0  0  0
    3.7815   -1.7296   -0.3831 H   0  0  0  0  0  0  0  0  0  0  0  0
    2.6079   -2.6403   -1.3501 H   0  0  0  0  0  0  0  0  0  0  0  0
  5  6  2  0  0  0  0
  5  7  1  0  0  0  0
  2  3  1  0  0  0  0
  2  4  1  0  0  0  0
  2  5  1  0  0  0  0
  1  2  1  0  0  0  0
 23 24  2  0  0  0  0
 23 25  1  0  0  0  0
 21 22  1  0  0  0  0
 19 20  1  0  0  0  0
 19 21  1  0  0  0  0
 17 18  1  0  0  0  0
 17 19  1  0  0  0  0
 15 16  1  0  0  0  0
 15 17  2  0  0  0  0
 14 15  1  0  0  0  0
 14 21  2  0  0  0  0
 11 12  1  0  0  0  0
 11 13  1  0  0  0  0
 11 14  1  0  0  0  0
  9 10  1  0  0  0  0
  9 11  1  0  0  0  0
  9 23  1  0  0  0  0
  7  8  1  0  0  0  0
  7  9  1  0  0  0  0
 27 28  1  0  0  0  0
 27 29  1  0  0  0  0
 27 30  1  0  0  0  0
 25 26  1  0  0  0  0
 25 27  1  0  0  0  0
M  CHG  1  15   1
M  END
$$$$
default_name
  -OEChem-01062215323D

 30 30  0     1  0  0  0  0  0999 V2000
   -3.5507   -3.2183    1.8116 H   0  0  0  0  0  0  0  0  0  0  0  0
   -3.4597   -2.3913    1.1076 C   0  0  0  0  0  0  0  0  0  0  0  0
   -4.1577   -1.6043    1.3866 H   0  0  0  0  0  0  0  0  0  0  0  0
   -3.6807   -2.7523    0.1036 H   0  0  0  0  0  0  0  0  0  0  0  0
   -2.0477   -1.8543    1.1546 C   0  0  0  0  0  0  0  0  0  0  0  0
   -1.2227   -2.3443    1.9146 O   0  0  0  0  0  0  0  0  0  0  0  0
   -1.7517   -0.8483    0.3266 N   0  0  0  0  0  0  0  0  0  0  0  0
   -2.4847   -0.5123   -0.2804 H   0  0  0  0  0  0  0  0  0  0  0  0
   -0.4117   -0.2463    0.2186 C   0  0  1  0  0  0  0  0  0  0  0  0
   -0.4980    0.6739   -0.3645 H   0  0  0  0  0  0  0  0  0  0  0  0
    0.0646    0.1533    1.6345 C   0  0  0  0  0  0  0  0  0  0  0  0
    0.0677   -0.7390    2.2656 H   0  0  0  0  0  0  0  0  0  0  0  0
    1.0959    0.5076    1.5752 H   0  0  0  0  0  0  0  0  0  0  0  0
   -0.7625    1.2246    2.3132 C   0  0  0  0  0  0  0  0  0  0  0  0
   -0.7327    2.5710    2.0054 N   0  3  0  0  0  0  0  0  0  0  0  0
   -0.1852    2.9622    1.2335 H   0  0  0  0  0  0  0  0  0  0  0  0
   -1.5982    3.2121    2.8158 C   0  0  0  0  0  0  0  0  0  0  0  0
   -1.8018    4.2809    2.7996 H   0  0  0  0  0  0  0  0  0  0  0  0
   -2.1757    2.3018    3.6320 N   0  0  0  0  0  0  0  0  0  0  0  0
   -2.8724    2.4974    4.3461 H   0  0  0  0  0  0  0  0  0  0  0  0
   -1.6619    1.0483    3.3298 C   0  0  0  0  0  0  0  0  0  0  0  0
   -1.9179    0.1038    3.8020 H   0  0  0  0  0  0  0  0  0  0  0  0
    0.5544   -1.1625   -0.5533 C   0  0  0  0  0  0  0  0  0  0  0  0
    0.1329   -1.9278   -1.4219 O   0  0  0  0  0  0  0  0  0  0  0  0
    1.8477   -1.0840   -0.2166 N   0  0  0  0  0  0  0  0  0  0  0  0
    2.1026   -0.4203    0.4988 H   0  0  0  0  0  0  0  0  0  0  0  0
    2.9245   -1.8883   -0.8022 C   0  0  0  0  0  0  0  0  0  0  0  0
    3.4727   -1.3000   -1.5408 H   0  0  0  0  0  0  0  0  0  0  0  0
    3.6204   -2.2031   -0.0227 H   0  0  0  0  0  0  0  0  0  0  0  0
    2.5238   -2.7792   -1.2905 H   0  0  0  0  0  0  0  0  0  0  0  0
  5  6  2  0  0  0  0
  5  7  1  0  0  0  0
  2  3  1  0  0  0  0
  2  4  1  0  0  0  0
  2  5  1  0  0  0  0
  1  2  1  0  0  0  0
 23 24  2  0  0  0  0
 23 25  1  0  0  0  0
 21 22  1  0  0  0  0
 19 20  1  0  0  0  0
 19 21  1  0  0  0  0
 17 18  1  0  0  0  0
 17 19  1  0  0  0  0
 15 16  1  0  0  0  0
 15 17  2  0  0  0  0
 14 15  1  0  0  0  0
 14 21  2  0  0  0  0
 11 12  1  0  0  0  0
 11 13  1  0  0  0  0
 11 14  1  0  0  0  0
  9 10  1  0  0  0  0
  9 11  1  0  0  0  0
  9 23  1  0  0  0  0
  7  8  1  0  0  0  0
  7  9  1  0  0  0  0
 27 28  1  0  0  0  0
 27 29  1  0  0  0  0
 27 30  1  0  0  0  0
 25 26  1  0  0  0  0
 25 27  1  0  0  0  0
M  CHG  1  15   1
M  END
$$$$
default_name
  -OEChem-01062215323D

 30 30  0     1  0  0  0  0  0999 V2000
   -3.5507   -3.2183    1.8116 H   0  0  0  0  0  0  0  0  0  0  0  0
   -3.4597   -2.3913    1.1076 C   0  0  0  0  0  0  0  0  0  0  0  0
   -4.1577   -1.6043    1.3866 H   0  0  0  0  0  0  0  0  0  0  0  0
   -3.6807   -2.7523    0.1036 H   0  0  0  0  0  0  0  0  0  0  0  0
   -2.0477   -1.8543    1.1546 C   0  0  0  0  0  0  0  0  0  0  0  0
   -1.2227   -2.3443    1.9146 O   0  0  0  0  0  0  0  0  0  0  0  0
   -1.7517   -0.8483    0.3266 N   0  0  0  0  0  0  0  0  0  0  0  0
   -2.4847   -0.5123   -0.2804 H   0  0  0  0  0  0  0  0  0  0  0  0
   -0.4117   -0.2463    0.2186 C   0  0  1  0  0  0  0  0  0  0  0  0
   -0.4980    0.6739   -0.3645 H   0  0  0  0  0  0  0  0  0  0  0  0
    0.0646    0.1533    1.6345 C   0  0  0  0  0  0  0  0  0  0  0  0
    0.0677   -0.7390    2.2656 H   0  0  0  0  0  0  0  0  0  0  0  0
    1.0959    0.5076    1.5752 H   0  0  0  0  0  0  0  0  0  0  0  0
   -0.7625    1.2246    2.3132 C   0  0  0  0  0  0  0  0  0  0  0  0
   -0.7327    2.5710    2.0054 N   0  3  0  0  0  0  0  0  0  0  0  0
   -0.1852    2.9622    1.2335 H   0  0  0  0  0  0  0  0  0  0  0  0
   -1.5982    3.2121    2.8158 C   0  0  0  0  0  0  0  0  0  0  0  0
   -1.8018    4.2809    2.7996 H   0  0  0  0  0  0  0  0  0  0  0  0
   -2.1757    2.3018    3.6320 N   0  0  0  0  0  0  0  0  0  0  0  0
   -2.8724    2.4974    4.3461 H   0  0  0  0  0  0  0  0  0  0  0  0
   -1.6619    1.0483    3.3298 C   0  0  0  0  0  0  0  0  0  0  0  0
   -1.9179    0.1038    3.8020 H   0  0  0  0  0  0  0  0  0  0  0  0
    0.5544   -1.1625   -0.5533 C   0  0  0  0  0  0  0  0  0  0  0  0
    0.1951   -1.7186   -1.5923 O   0  0  0  0  0  0  0  0  0  0  0  0
    1.7747   -1.3214   -0.0263 N   0  0  0  0  0  0  0  0  0  0  0  0
    1.9841   -0.8176    0.8221 H   0  0  0  0  0  0  0  0  0  0  0  0
    2.8316   -2.1723   -0.5814 C   0  0  0  0  0  0  0  0  0  0  0  0
    3.5591   -1.5626   -1.1210 H   0  0  0  0  0  0  0  0  0  0  0  0
    3.3478   -2.6981    0.2237 H   0  0  0  0  0  0  0  0  0  0  0  0
    2.4153   -2.9121   -1.2684 H   0  0  0  0  0  0  0  0  0  0  0  0
  5  6  2  0  0  0  0
  5  7  1  0  0  0  0
  2  3  1  0  0  0  0
  2  4  1  0  0  0  0
  2  5  1  0  0  0  0
  1  2  1  0  0  0  0
 23 24  2  0  0  0  0
 23 25  1  0  0  0  0
 21 22  1  0  0  0  0
 19 20  1  0  0  0  0
 19 21  1  0  0  0  0
 17 18  1  0  0  0  0
 17 19  1  0  0  0  0
 15 16  1  0  0  0  0
 15 17  2  0  0  0  0
 14 15  1  0  0  0  0
 14 21  2  0  0  0  0
 11 12  1  0  0  0  0
 11 13  1  0  0  0  0
 11 14  1  0  0  0  0
  9 10  1  0  0  0  0
  9 11  1  0  0  0  0
  9 23  1  0  0  0  0
  7  8  1  0  0  0  0
  7  9  1  0  0  0  0
 27 28  1  0  0  0  0
 27 29  1  0  0  0  0
 27 30  1  0  0  0  0
 25 26  1  0  0  0  0
 25 27  1  0  0  0  0
M  CHG  1  15   1
M  END
$$$$
default_name
  -OEChem-01062215323D

 30 30  0     1  0  0  0  0  0999 V2000
   -3.5507   -3.2183    1.8116 H   0  0  0  0  0  0  0  0  0  0  0  0
   -3.4597   -2.3913    1.1076 C   0  0  0  0  0  0  0  0  0  0  0  0
   -4.1577   -1.6043    1.3866 H   0  0  0  0  0  0  0  0  0  0  0  0
   -3.6807   -2.7523    0.1036 H   0  0  0  0  0  0  0  0  0  0  0  0
   -2.0477   -1.8543    1.1546 C   0  0  0  0  0  0  0  0  0  0  0  0
   -1.2227   -2.3443    1.9146 O   0  0  0  0  0  0  0  0  0  0  0  0
   -1.7517   -0.8483    0.3266 N   0  0  0  0  0  0  0  0  0  0  0  0
   -2.4847   -0.5123   -0.2804 H   0  0  0  0  0  0  0  0  0  0  0  0
   -0.4117   -0.2463    0.2186 C   0  0  1  0  0  0  0  0  0  0  0  0
   -0.4980    0.6739   -0.3645 H   0  0  0  0  0  0  0  0  0  0  0  0
    0.0646    0.1533    1.6345 C   0  0  0  0  0  0  0  0  0  0  0  0
    0.0677   -0.7390    2.2656 H   0  0  0  0  0  0  0  0  0  0  0  0
    1.0959    0.5076    1.5752 H   0  0  0  0  0  0  0  0  0  0  0  0
   -0.7625    1.2246    2.3132 C   0  0  0  0  0  0  0  0  0  0  0  0
   -0.7327    2.5710    2.0054 N   0  3  0  0  0  0  0  0  0  0  0  0
   -0.1852    2.9622    1.2335 H   0  0  0  0  0  0  0  0  0  0  0  0
   -1.5982    3.2121    2.8158 C   0  0  0  0  0  0  0  0  0  0  0  0
   -1.8018    4.2809    2.7996 H   0  0  0  0  0  0  0  0  0  0  0  0
   -2.1757    2.3018    3.6320 N   0  0  0  0  0  0  0  0  0  0  0  0
   -2.8724    2.4974    4.3461 H   0  0  0  0  0  0  0  0  0  0  0  0
   -1.6619    1.0483    3.3298 C   0  0  0  0  0  0  0  0  0  0  0  0
   -1.9179    0.1038    3.8020 H   0  0  0  0  0  0  0  0  0  0  0  0
    0.5544   -1.1625   -0.5533 C   0  0  0  0  0  0  0  0  0  0  0  0
    0.3087   -1.4969   -1.7133 O   0  0  0  0  0  0  0  0  0  0  0  0
    1.6440   -1.5721    0.1078 N   0  0  0  0  0  0  0  0  0  0  0  0
    1.7683   -1.2384    1.0515 H   0  0  0  0  0  0  0  0  0  0  0  0
    2.6710   -2.4704   -0.4285 C   0  0  0  0  0  0  0  0  0  0  0  0
    3.5437   -1.8957   -0.7449 H   0  0  0  0  0  0  0  0  0  0  0  0
    2.9823   -3.1808    0.3393 H   0  0  0  0  0  0  0  0  0  0  0  0
    2.2899   -3.0300   -1.2854 H   0  0  0  0  0  0  0  0  0  0  0  0
  5  6  2  0  0  0  0
  5  7  1  0  0  0  0
  2  3  1  0  0  0  0
  2  4  1  0  0  0  0
  2  5  1  0  0  0  0
  1  2  1  0  0  0  0
 23 24  2  0  0  0  0
 23 25  1  0  0  0  0
 21 22  1  0  0  0  0
 19 20  1  0  0  0  0
 19 21  1  0  0  0  0
 17 18  1  0  0  0  0
 17 19  1  0  0  0  0
 15 16  1  0  0  0  0
 15 17  2  0  0  0  0
 14 15  1  0  0  0  0
 14 21  2  0  0  0  0
 11 12  1  0  0  0  0
 11 13  1  0  0  0  0
 11 14  1  0  0  0  0
  9 10  1  0  0  0  0
  9 11  1  0  0  0  0
  9 23  1  0  0  0  0
  7  8  1  0  0  0  0
  7  9  1  0  0  0  0
 27 28  1  0  0  0  0
 27 29  1  0  0  0  0
 27 30  1  0  0  0  0
 25 26  1  0  0  0  0
 25 27  1  0  0  0  0
M  CHG  1  15   1
M  END
$$$$
default_name
  -OEChem-01062215323D

 30 30  0     1  0  0  0  0  0999 V2000
   -3.5507   -3.2183    1.8116 H   0  0  0  0  0  0  0  0  0  0  0  0
   -3.4597   -2.3913    1.1076 C   0  0  0  0  0  0  0  0  0  0  0  0
   -4.1577   -1.6043    1.3866 H   0  0  0  0  0  0  0  0  0  0  0  0
   -3.6807   -2.7523    0.1036 H   0  0  0  0  0  0  0  0  0  0  0  0
   -2.0477   -1.8543    1.1546 C   0  0  0  0  0  0  0  0  0  0  0  0
   -1.2227   -2.3443    1.9146 O   0  0  0  0  0  0  0  0  0  0  0  0
   -1.7517   -0.8483    0.3266 N   0  0  0  0  0  0  0  0  0  0  0  0
   -2.4847   -0.5123   -0.2804 H   0  0  0  0  0  0  0  0  0  0  0  0
   -0.4117   -0.2463    0.2186 C   0  0  1  0  0  0  0  0  0  0  0  0
   -0.4980    0.6739   -0.3645 H   0  0  0  0  0  0  0  0  0  0  0  0
    0.0646    0.1533    1.6345 C   0  0  0  0  0  0  0  0  0  0  0  0
    0.0677   -0.7390    2.2656 H   0  0  0  0  0  0  0  0  0  0  0  0
    1.0959    0.5076    1.5752 H   0  0  0  0  0  0  0  0  0  0  0  0
   -0.7625    1.2246    2.3132 C   0  0  0  0  0  0  0  0  0  0  0  0
   -0.7327    2.5710    2.0054 N   0  3  0  0  0  0  0  0  0  0  0  0
   -0.1852    2.9622    1.2335 H   0  0  0  0  0  0  0  0  0  0  0  0
   -1.5982    3.2121    2.8158 C   0  0  0  0  0  0  0  0  0  0  0  0
   -1.8018    4.2809    2.7996 H   0  0  0  0  0  0  0  0  0  0  0  0
   -2.1757    2.3018    3.6320 N   0  0  0  0  0  0  0  0  0  0  0  0
   -2.8724    2.4974    4.3461 H   0  0  0  0  0  0  0  0  0  0  0  0
   -1.6619    1.0483    3.3298 C   0  0  0  0  0  0  0  0  0  0  0  0
   -1.9179    0.1038    3.8020 H   0  0  0  0  0  0  0  0  0  0  0  0
    0.5544   -1.1625   -0.5533 C   0  0  0  0  0  0  0  0  0  0  0  0
    0.4658   -1.2779   -1.7767 O   0  0  0  0  0  0  0  0  0  0  0  0
    1.4646   -1.8191    0.1764 N   0  0  0  0  0  0  0  0  0  0  0  0
    1.4698   -1.6542    1.1715 H   0  0  0  0  0  0  0  0  0  0  0  0
    2.4536   -2.7624   -0.3541 C   0  0  0  0  0  0  0  0  0  0  0  0
    3.4277   -2.2765   -0.4380 H   0  0  0  0  0  0  0  0  0  0  0  0
    2.5487   -3.6185    0.3162 H   0  0  0  0  0  0  0  0  0  0  0  0
    2.1561   -3.1248   -1.3403 H   0  0  0  0  0  0  0  0  0  0  0  0
  5  6  2  0  0  0  0
  5  7  1  0  0  0  0
  2  3  1  0  0  0  0
  2  4  1  0  0  0  0
  2  5  1  0  0  0  0
  1  2  1  0  0  0  0
 23 24  2  0  0  0  0
 23 25  1  0  0  0  0
 21 22  1  0  0  0  0
 19 20  1  0  0  0  0
 19 21  1  0  0  0  0
 17 18  1  0  0  0  0
 17 19  1  0  0  0  0
 15 16  1  0  0  0  0
 15 17  2  0  0  0  0
 14 15  1  0  0  0  0
 14 21  2  0  0  0  0
 11 12  1  0  0  0  0
 11 13  1  0  0  0  0
 11 14  1  0  0  0  0
  9 10  1  0  0  0  0
  9 11  1  0  0  0  0
  9 23  1  0  0  0  0
  7  8  1  0  0  0  0
  7  9  1  0  0  0  0
 27 28  1  0  0  0  0
 27 29  1  0  0  0  0
 27 30  1  0  0  0  0
 25 26  1  0  0  0  0
 25 27  1  0  0  0  0
M  CHG  1  15   1
M  END
$$$$
default_name
  -OEChem-01062215323D

 30 30  0     1  0  0  0  0  0999 V2000
   -3.5507   -3.2183    1.8116 H   0  0  0  0  0  0  0  0  0  0  0  0
   -3.4597   -2.3913    1.1076 C   0  0  0  0  0  0  0  0  0  0  0  0
   -4.1577   -1.6043    1.3866 H   0  0  0  0  0  0  0  0  0  0  0  0
   -3.6807   -2.7523    0.1036 H   0  0  0  0  0  0  0  0  0  0  0  0
   -2.0477   -1.8543    1.1546 C   0  0  0  0  0  0  0  0  0  0  0  0
   -1.2227   -2.3443    1.9146 O   0  0  0  0  0  0  0  0  0  0  0  0
   -1.7517   -0.8483    0.3266 N   0  0  0  0  0  0  0  0  0  0  0  0
   -2.4847   -0.5123   -0.2804 H   0  0  0  0  0  0  0  0  0  0  0  0
   -0.4117   -0.2463    0.2186 C   0  0  1  0  0  0  0  0  0  0  0  0
   -0.4980    0.6739   -0.3645 H   0  0  0  0  0  0  0  0  0  0  0  0
    0.0646    0.1533    1.6345 C   0  0  0  0  0  0  0  0  0  0  0  0
    0.0677   -0.7390    2.2656 H   0  0  0  0  0  0  0  0  0  0  0  0
    1.0959    0.5076    1.5752 H   0  0  0  0  0  0  0  0  0  0  0  0
   -0.7625    1.2246    2.3132 C   0  0  0  0  0  0  0  0  0  0  0  0
   -0.7327    2.5710    2.0054 N   0  3  0  0  0  0  0  0  0  0  0  0
   -0.1852    2.9622    1.2335 H   0  0  0  0  0  0  0  0  0  0  0  0
   -1.5982    3.2121    2.8158 C   0  0  0  0  0  0  0  0  0  0  0  0
   -1.8018    4.2809    2.7996 H   0  0  0  0  0  0  0  0  0  0  0  0
   -2.1757    2.3018    3.6320 N   0  0  0  0  0  0  0  0  0  0  0  0
   -2.8724    2.4974    4.3461 H   0  0  0  0  0  0  0  0  0  0  0  0
   -1.6619    1.0483    3.3298 C   0  0  0  0  0  0  0  0  0  0  0  0
   -1.9179    0.1038    3.8020 H   0  0  0  0  0  0  0  0  0  0  0  0
    0.5544   -1.1625   -0.5533 C   0  0  0  0  0  0  0  0  0  0  0  0
    0.6557   -1.0764   -1.7781 O   0  0  0  0  0  0  0  0  0  0  0  0
    1.2486   -2.0455    0.1750 N   0  0  0  0  0  0  0  0  0  0  0  0
    1.1091   -2.0365    1.1739 H   0  0  0  0  0  0  0  0  0  0  0  0
    2.1942   -3.0283   -0.3631 C   0  0  0  0  0  0  0  0  0  0  0  0
    3.2190   -2.6792   -0.2213 H   0  0  0  0  0  0  0  0  0  0  0  0
    2.0767   -3.9812    0.1559 H   0  0  0  0  0  0  0  0  0  0  0  0
    2.0230   -3.1901   -1.4294 H   0  0  0  0  0  0  0  0  0  0  0  0
  5  6  2  0  0  0  0
  5  7  1  0  0  0  0
  2  3  1  0  0  0  0
  2  4  1  0  0  0  0
  2  5  1  0  0  0  0
  1  2  1  0  0  0  0
 23 24  2  0  0  0  0
 23 25  1  0  0  0  0
 21 22  1  0  0  0  0
 19 20  1  0  0  0  0
 19 21  1  0  0  0  0
 17 18  1  0  0  0  0
 17 19  1  0  0  0  0
 15 16  1  0  0  0  0
 15 17  2  0  0  0  0
 14 15  1  0  0  0  0
 14 21  2  0  0  0  0
 11 12  1  0  0  0  0
 11 13  1  0  0  0  0
 11 14  1  0  0  0  0
  9 10  1  0  0  0  0
  9 11  1  0  0  0  0
  9 23  1  0  0  0  0
  7  8  1  0  0  0  0
  7  9  1  0  0  0  0
 27 28  1  0  0  0  0
 27 29  1  0  0  0  0
 27 30  1  0  0  0  0
 25 26  1  0  0  0  0
 25 27  1  0  0  0  0
M  CHG  1  15   1
M  END
$$$$
default_name
  -OEChem-01062215323D

 30 30  0     1  0  0  0  0  0999 V2000
   -3.5507   -3.2183    1.8116 H   0  0  0  0  0  0  0  0  0  0  0  0
   -3.4597   -2.3913    1.1076 C   0  0  0  0  0  0  0  0  0  0  0  0
   -4.1577   -1.6043    1.3866 H   0  0  0  0  0  0  0  0  0  0  0  0
   -3.6807   -2.7523    0.1036 H   0  0  0  0  0  0  0  0  0  0  0  0
   -2.0477   -1.8543    1.1546 C   0  0  0  0  0  0  0  0  0  0  0  0
   -1.2227   -2.3443    1.9146 O   0  0  0  0  0  0  0  0  0  0  0  0
   -1.7517   -0.8483    0.3266 N   0  0  0  0  0  0  0  0  0  0  0  0
   -2.4847   -0.5123   -0.2804 H   0  0  0  0  0  0  0  0  0  0  0  0
   -0.4117   -0.2463    0.2186 C   0  0  1  0  0  0  0  0  0  0  0  0
   -0.4980    0.6739   -0.3645 H   0  0  0  0  0  0  0  0  0  0  0  0
    0.0646    0.1533    1.6345 C   0  0  0  0  0  0  0  0  0  0  0  0
    0.0677   -0.7390    2.2656 H   0  0  0  0  0  0  0  0  0  0  0  0
    1.0959    0.5076    1.5752 H   0  0  0  0  0  0  0  0  0  0  0  0
   -0.7625    1.2246    2.3132 C   0  0  0  0  0  0  0  0  0  0  0  0
   -0.7327    2.5710    2.0054 N   0  3  0  0  0  0  0  0  0  0  0  0
   -0.1852    2.9622    1.2335 H   0  0  0  0  0  0  0  0  0  0  0  0
   -1.5982    3.2121    2.8158 C   0  0  0  0  0  0  0  0  0  0  0  0
   -1.8018    4.2809    2.7996 H   0  0  0  0  0  0  0  0  0  0  0  0
   -2.1757    2.3018    3.6320 N   0  0  0  0  0  0  0  0  0  0  0  0
   -2.8724    2.4974    4.3461 H   0  0  0  0  0  0  0  0  0  0  0  0
   -1.6619    1.0483    3.3298 C   0  0  0  0  0  0  0  0  0  0  0  0
   -1.9179    0.1038    3.8020 H   0  0  0  0  0  0  0  0  0  0  0  0
    0.5544   -1.1625   -0.5533 C   0  0  0  0  0  0  0  0  0  0  0  0
    0.8656   -0.9063   -1.7175 O   0  0  0  0  0  0  0  0  0  0  0  0
    1.0109   -2.2360    0.1035 N   0  0  0  0  0  0  0  0  0  0  0  0
    0.7106   -2.3594    1.0585 H   0  0  0  0  0  0  0  0  0  0  0  0
    1.9105   -3.2500   -0.4549 C   0  0  0  0  0  0  0  0  0  0  0  0
    2.9317   -3.0762   -0.1096 H   0  0  0  0  0  0  0  0  0  0  0  0
    1.5984   -4.2442   -0.1305 H   0  0  0  0  0  0  0  0  0  0  0  0
    1.8996   -3.2215   -1.5465 H   0  0  0  0  0  0  0  0  0  0  0  0
  5  6  2  0  0  0  0
  5  7  1  0  0  0  0
  2  3  1  0  0  0  0
  2  4  1  0  0  0  0
  2  5  1  0  0  0  0
  1  2  1  0  0  0  0
 23 24  2  0  0  0  0
 23 25  1  0  0  0  0
 21 22  1  0  0  0  0
 19 20  1  0  0  0  0
 19 21  1  0  0  0  0
 17 18  1  0  0  0  0
 17 19  1  0  0  0  0
 15 16  1  0  0  0  0
 15 17  2  0  0  0  0
 14 15  1  0  0  0  0
 14 21  2  0  0  0  0
 11 12  1  0  0  0  0
 11 13  1  0  0  0  0
 11 14  1  0  0  0  0
  9 10  1  0  0  0  0
  9 11  1  0  0  0  0
  9 23  1  0  0  0  0
  7  8  1  0  0  0  0
  7  9  1  0  0  0  0
 27 28  1  0  0  0  0
 27 29  1  0  0  0  0
 27 30  1  0  0  0  0
 25 26  1  0  0  0  0
 25 27  1  0  0  0  0
M  CHG  1  15   1
M  END
$$$$
default_name
  -OEChem-01062215323D

 30 30  0     1  0  0  0  0  0999 V2000
   -3.5507   -3.2183    1.8116 H   0  0  0  0  0  0  0  0  0  0  0  0
   -3.4597   -2.3913    1.1076 C   0  0  0  0  0  0  0  0  0  0  0  0
   -4.1577   -1.6043    1.3866 H   0  0  0  0  0  0  0  0  0  0  0  0
   -3.6807   -2.7523    0.1036 H   0  0  0  0  0  0  0  0  0  0  0  0
   -2.0477   -1.8543    1.1546 C   0  0  0  0  0  0  0  0  0  0  0  0
   -1.2227   -2.3443    1.9146 O   0  0  0  0  0  0  0  0  0  0  0  0
   -1.7517   -0.8483    0.3266 N   0  0  0  0  0  0  0  0  0  0  0  0
   -2.4847   -0.5123   -0.2804 H   0  0  0  0  0  0  0  0  0  0  0  0
   -0.4117   -0.2463    0.2186 C   0  0  1  0  0  0  0  0  0  0  0  0
   -0.4980    0.6739   -0.3645 H   0  0  0  0  0  0  0  0  0  0  0  0
    0.0646    0.1533    1.6345 C   0  0  0  0  0  0  0  0  0  0  0  0
    0.0677   -0.7390    2.2656 H   0  0  0  0  0  0  0  0  0  0  0  0
    1.0959    0.5076    1.5752 H   0  0  0  0  0  0  0  0  0  0  0  0
   -0.7625    1.2246    2.3132 C   0  0  0  0  0  0  0  0  0  0  0  0
   -0.7327    2.5710    2.0054 N   0  3  0  0  0  0  0  0  0  0  0  0
   -0.1852    2.9622    1.2335 H   0  0  0  0  0  0  0  0  0  0  0  0
   -1.5982    3.2121    2.8158 C   0  0  0  0  0  0  0  0  0  0  0  0
   -1.8018    4.2809    2.7996 H   0  0  0  0  0  0  0  0  0  0  0  0
   -2.1757    2.3018    3.6320 N   0  0  0  0  0  0  0  0  0  0  0  0
   -2.8724    2.4974    4.3461 H   0  0  0  0  0  0  0  0  0  0  0  0
   -1.6619    1.0483    3.3298 C   0  0  0  0  0  0  0  0  0  0  0  0
   -1.9179    0.1038    3.8020 H   0  0  0  0  0  0  0  0  0  0  0  0
    0.5544   -1.1625   -0.5533 C   0  0  0  0  0  0  0  0  0  0  0  0
    1.0810   -0.7790   -1.5989 O   0  0  0  0  0  0  0  0  0  0  0  0
    0.7675   -2.3775   -0.0331 N   0  0  0  0  0  0  0  0  0  0  0  0
    0.3016   -2.6008    0.8332 H   0  0  0  0  0  0  0  0  0  0  0  0
    1.6219   -3.4124   -0.6234 C   0  0  0  0  0  0  0  0  0  0  0  0
    2.5854   -3.4406   -0.1105 H   0  0  0  0  0  0  0  0  0  0  0  0
    1.1463   -4.3896   -0.5236 H   0  0  0  0  0  0  0  0  0  0  0  0
    1.7945   -3.2167   -1.6838 H   0  0  0  0  0  0  0  0  0  0  0  0
  5  6  2  0  0  0  0
  5  7  1  0  0  0  0
  2  3  1  0  0  0  0
  2  4  1  0  0  0  0
  2  5  1  0  0  0  0
  1  2  1  0  0  0  0
 23 24  2  0  0  0  0
 23 25  1  0  0  0  0
 21 22  1  0  0  0  0
 19 20  1  0  0  0  0
 19 21  1  0  0  0  0
 17 18  1  0  0  0  0
 17 19  1  0  0  0  0
 15 16  1  0  0  0  0
 15 17  2  0  0  0  0
 14 15  1  0  0  0  0
 14 21  2  0  0  0  0
 11 12  1  0  0  0  0
 11 13  1  0  0  0  0
 11 14  1  0  0  0  0
  9 10  1  0  0  0  0
  9 11  1  0  0  0  0
  9 23  1  0  0  0  0
  7  8  1  0  0  0  0
  7  9  1  0  0  0  0
 27 28  1  0  0  0  0
 27 29  1  0  0  0  0
 27 30  1  0  0  0  0
 25 26  1  0  0  0  0
 25 27  1  0  0  0  0
M  CHG  1  15   1
M  END
$$$$
default_name
  -OEChem-01062215323D

 30 30  0     1  0  0  0  0  0999 V2000
   -3.5507   -3.2183    1.8116 H   0  0  0  0  0  0  0  0  0  0  0  0
   -3.4597   -2.3913    1.1076 C   0  0  0  0  0  0  0  0  0  0  0  0
   -4.1577   -1.6043    1.3866 H   0  0  0  0  0  0  0  0  0  0  0  0
   -3.6807   -2.7523    0.1036 H   0  0  0  0  0  0  0  0  0  0  0  0
   -2.0477   -1.8543    1.1546 C   0  0  0  0  0  0  0  0  0  0  0  0
   -1.2227   -2.3443    1.9146 O   0  0  0  0  0  0  0  0  0  0  0  0
   -1.7517   -0.8483    0.3266 N   0  0  0  0  0  0  0  0  0  0  0  0
   -2.4847   -0.5123   -0.2804 H   0  0  0  0  0  0  0  0  0  0  0  0
   -0.4117   -0.2463    0.2186 C   0  0  1  0  0  0  0  0  0  0  0  0
   -0.4980    0.6739   -0.3645 H   0  0  0  0  0  0  0  0  0  0  0  0
    0.0646    0.1533    1.6345 C   0  0  0  0  0  0  0  0  0  0  0  0
    0.0677   -0.7390    2.2656 H   0  0  0  0  0  0  0  0  0  0  0  0
    1.0959    0.5076    1.5752 H   0  0  0  0  0  0  0  0  0  0  0  0
   -0.7625    1.2246    2.3132 C   0  0  0  0  0  0  0  0  0  0  0  0
   -0.7327    2.5710    2.0054 N   0  3  0  0  0  0  0  0  0  0  0  0
   -0.1852    2.9622    1.2335 H   0  0  0  0  0  0  0  0  0  0  0  0
   -1.5982    3.2121    2.8158 C   0  0  0  0  0  0  0  0  0  0  0  0
   -1.8018    4.2809    2.7996 H   0  0  0  0  0  0  0  0  0  0  0  0
   -2.1757    2.3018    3.6320 N   0  0  0  0  0  0  0  0  0  0  0  0
   -2.8724    2.4974    4.3461 H   0  0  0  0  0  0  0  0  0  0  0  0
   -1.6619    1.0483    3.3298 C   0  0  0  0  0  0  0  0  0  0  0  0
   -1.9179    0.1038    3.8020 H   0  0  0  0  0  0  0  0  0  0  0  0
    0.5544   -1.1625   -0.5533 C   0  0  0  0  0  0  0  0  0  0  0  0
    1.2874   -0.7033   -1.4306 O   0  0  0  0  0  0  0  0  0  0  0  0
    0.5351   -2.4603   -0.2256 N   0  0  0  0  0  0  0  0  0  0  0  0
   -0.0901   -2.7443    0.5133 H   0  0  0  0  0  0  0  0  0  0  0  0
    1.3480   -3.5044   -0.8569 C   0  0  0  0  0  0  0  0  0  0  0  0
    2.2037   -3.7474   -0.2239 H   0  0  0  0  0  0  0  0  0  0  0  0
    0.7513   -4.4075   -0.9966 H   0  0  0  0  0  0  0  0  0  0  0  0
    1.7147   -3.1761   -1.8318 H   0  0  0  0  0  0  0  0  0  0  0  0
  5  6  2  0  0  0  0
  5  7  1  0  0  0  0
  2  3  1  0  0  0  0
  2  4  1  0  0  0  0
  2  5  1  0  0  0  0
  1  2  1  0  0  0  0
 23 24  2  0  0  0  0
 23 25  1  0  0  0  0
 21 22  1  0  0  0  0
 19 20  1  0  0  0  0
 19 21  1  0  0  0  0
 17 18  1  0  0  0  0
 17 19  1  0  0  0  0
 15 16  1  0  0  0  0
 15 17  2  0  0  0  0
 14 15  1  0  0  0  0
 14 21  2  0  0  0  0
 11 12  1  0  0  0  0
 11 13  1  0  0  0  0
 11 14  1  0  0  0  0
  9 10  1  0  0  0  0
  9 11  1  0  0  0  0
  9 23  1  0  0  0  0
  7  8  1  0  0  0  0
  7  9  1  0  0  0  0
 27 28  1  0  0  0  0
 27 29  1  0  0  0  0
 27 30  1  0  0  0  0
 25 26  1  0  0  0  0
 25 27  1  0  0  0  0
M  CHG  1  15   1
M  END
$$$$
default_name
  -OEChem-01062215323D

 30 30  0     1  0  0  0  0  0999 V2000
   -3.5507   -3.2183    1.8116 H   0  0  0  0  0  0  0  0  0  0  0  0
   -3.4597   -2.3913    1.1076 C   0  0  0  0  0  0  0  0  0  0  0  0
   -4.1577   -1.6043    1.3866 H   0  0  0  0  0  0  0  0  0  0  0  0
   -3.6807   -2.7523    0.1036 H   0  0  0  0  0  0  0  0  0  0  0  0
   -2.0477   -1.8543    1.1546 C   0  0  0  0  0  0  0  0  0  0  0  0
   -1.2227   -2.3443    1.9146 O   0  0  0  0  0  0  0  0  0  0  0  0
   -1.7517   -0.8483    0.3266 N   0  0  0  0  0  0  0  0  0  0  0  0
   -2.4847   -0.5123   -0.2804 H   0  0  0  0  0  0  0  0  0  0  0  0
   -0.4117   -0.2463    0.2186 C   0  0  1  0  0  0  0  0  0  0  0  0
   -0.4980    0.6739   -0.3645 H   0  0  0  0  0  0  0  0  0  0  0  0
    0.0646    0.1533    1.6345 C   0  0  0  0  0  0  0  0  0  0  0  0
    0.0677   -0.7390    2.2656 H   0  0  0  0  0  0  0  0  0  0  0  0
    1.0959    0.5076    1.5752 H   0  0  0  0  0  0  0  0  0  0  0  0
   -0.7625    1.2246    2.3132 C   0  0  0  0  0  0  0  0  0  0  0  0
   -0.7327    2.5710    2.0054 N   0  3  0  0  0  0  0  0  0  0  0  0
   -0.1852    2.9622    1.2335 H   0  0  0  0  0  0  0  0  0  0  0  0
   -1.5982    3.2121    2.8158 C   0  0  0  0  0  0  0  0  0  0  0  0
   -1.8018    4.2809    2.7996 H   0  0  0  0  0  0  0  0  0  0  0  0
   -2.1757    2.3018    3.6320 N   0  0  0  0  0  0  0  0  0  0  0  0
   -2.8724    2.4974    4.3461 H   0  0  0  0  0  0  0  0  0  0  0  0
   -1.6619    1.0483    3.3298 C   0  0  0  0  0  0  0  0  0  0  0  0
   -1.9179    0.1038    3.8020 H   0  0  0  0  0  0  0  0  0  0  0  0
    0.5544   -1.1625   -0.5533 C   0  0  0  0  0  0  0  0  0  0  0  0
    1.4706   -0.6843   -1.2238 O   0  0  0  0  0  0  0  0  0  0  0  0
    0.3296   -2.4790   -0.4607 N   0  0  0  0  0  0  0  0  0  0  0  0
   -0.4377   -2.7800    0.1206 H   0  0  0  0  0  0  0  0  0  0  0  0
    1.1074   -3.5198   -1.1397 C   0  0  0  0  0  0  0  0  0  0  0  0
    1.8127   -3.9758   -0.4421 H   0  0  0  0  0  0  0  0  0  0  0  0
    0.4404   -4.2967   -1.5173 H   0  0  0  0  0  0  0  0  0  0  0  0
    1.6657   -3.1026   -1.9805 H   0  0  0  0  0  0  0  0  0  0  0  0
  5  6  2  0  0  0  0
  5  7  1  0  0  0  0
  2  3  1  0  0  0  0
  2  4  1  0  0  0  0
  2  5  1  0  0  0  0
  1  2  1  0  0  0  0
 23 24  2  0  0  0  0
 23 25  1  0  0  0  0
 21 22  1  0  0  0  0
 19 20  1  0  0  0  0
 19 21  1  0  0  0  0
 17 18  1  0  0  0  0
 17 19  1  0  0  0  0
 15 16  1  0  0  0  0
 15 17  2  0  0  0  0
 14 15  1  0  0  0  0
 14 21  2  0  0  0  0
 11 12  1  0  0  0  0
 11 13  1  0  0  0  0
 11 14  1  0  0  0  0
  9 10  1  0  0  0  0
  9 11  1  0  0  0  0
  9 23  1  0  0  0  0
  7  8  1  0  0  0  0
  7  9  1  0  0  0  0
 27 28  1  0  0  0  0
 27 29  1  0  0  0  0
 27 30  1  0  0  0  0
 25 26  1  0  0  0  0
 25 27  1  0  0  0  0
M  CHG  1  15   1
M  END
$$$$
default_name
  -OEChem-01062215323D

 30 30  0     1  0  0  0  0  0999 V2000
   -3.5507   -3.2183    1.8116 H   0  0  0  0  0  0  0  0  0  0  0  0
   -3.4597   -2.3913    1.1076 C   0  0  0  0  0  0  0  0  0  0  0  0
   -4.1577   -1.6043    1.3866 H   0  0  0  0  0  0  0  0  0  0  0  0
   -3.6807   -2.7523    0.1036 H   0  0  0  0  0  0  0  0  0  0  0  0
   -2.0477   -1.8543    1.1546 C   0  0  0  0  0  0  0  0  0  0  0  0
   -1.2227   -2.3443    1.9146 O   0  0  0  0  0  0  0  0  0  0  0  0
   -1.7517   -0.8483    0.3266 N   0  0  0  0  0  0  0  0  0  0  0  0
   -2.4847   -0.5123   -0.2804 H   0  0  0  0  0  0  0  0  0  0  0  0
   -0.4117   -0.2463    0.2186 C   0  0  1  0  0  0  0  0  0  0  0  0
   -0.4980    0.6739   -0.3645 H   0  0  0  0  0  0  0  0  0  0  0  0
    0.0646    0.1533    1.6345 C   0  0  0  0  0  0  0  0  0  0  0  0
    0.0677   -0.7390    2.2656 H   0  0  0  0  0  0  0  0  0  0  0  0
    1.0959    0.5076    1.5752 H   0  0  0  0  0  0  0  0  0  0  0  0
   -0.7625    1.2246    2.3132 C   0  0  0  0  0  0  0  0  0  0  0  0
   -0.7327    2.5710    2.0054 N   0  3  0  0  0  0  0  0  0  0  0  0
   -0.1852    2.9622    1.2335 H   0  0  0  0  0  0  0  0  0  0  0  0
   -1.5982    3.2121    2.8158 C   0  0  0  0  0  0  0  0  0  0  0  0
   -1.8018    4.2809    2.7996 H   0  0  0  0  0  0  0  0  0  0  0  0
   -2.1757    2.3018    3.6320 N   0  0  0  0  0  0  0  0  0  0  0  0
   -2.8724    2.4974    4.3461 H   0  0  0  0  0  0  0  0  0  0  0  0
   -1.6619    1.0483    3.3298 C   0  0  0  0  0  0  0  0  0  0  0  0
   -1.9179    0.1038    3.8020 H   0  0  0  0  0  0  0  0  0  0  0  0
    0.5544   -1.1625   -0.5533 C   0  0  0  0  0  0  0  0  0  0  0  0
    1.6182   -0.7233   -0.9928 O   0  0  0  0  0  0  0  0  0  0  0  0
    0.1648   -2.4321   -0.7226 N   0  0  0  0  0  0  0  0  0  0  0  0
   -0.7177   -2.7057   -0.3180 H   0  0  0  0  0  0  0  0  0  0  0  0
    0.9167   -3.4575   -1.4524 C   0  0  0  0  0  0  0  0  0  0  0  0
    1.4390   -4.1103   -0.7502 H   0  0  0  0  0  0  0  0  0  0  0  0
    0.2347   -4.0647   -2.0501 H   0  0  0  0  0  0  0  0  0  0  0  0
    1.6508   -3.0010   -2.1197 H   0  0  0  0  0  0  0  0  0  0  0  0
  5  6  2  0  0  0  0
  5  7  1  0  0  0  0
  2  3  1  0  0  0  0
  2  4  1  0  0  0  0
  2  5  1  0  0  0  0
  1  2  1  0  0  0  0
 23 24  2  0  0  0  0
 23 25  1  0  0  0  0
 21 22  1  0  0  0  0
 19 20  1  0  0  0  0
 19 21  1  0  0  0  0
 17 18  1  0  0  0  0
 17 19  1  0  0  0  0
 15 16  1  0  0  0  0
 15 17  2  0  0  0  0
 14 15  1  0  0  0  0
 14 21  2  0  0  0  0
 11 12  1  0  0  0  0
 11 13  1  0  0  0  0
 11 14  1  0  0  0  0
  9 10  1  0  0  0  0
  9 11  1  0  0  0  0
  9 23  1  0  0  0  0
  7  8  1  0  0  0  0
  7  9  1  0  0  0  0
 27 28  1  0  0  0  0
 27 29  1  0  0  0  0
 27 30  1  0  0  0  0
 25 26  1  0  0  0  0
 25 27  1  0  0  0  0
M  CHG  1  15   1
M  END
$$$$
default_name
  -OEChem-01062215323D

 30 30  0     1  0  0  0  0  0999 V2000
   -3.5507   -3.2183    1.8116 H   0  0  0  0  0  0  0  0  0  0  0  0
   -3.4597   -2.3913    1.1076 C   0  0  0  0  0  0  0  0  0  0  0  0
   -4.1577   -1.6043    1.3866 H   0  0  0  0  0  0  0  0  0  0  0  0
   -3.6807   -2.7523    0.1036 H   0  0  0  0  0  0  0  0  0  0  0  0
   -2.0477   -1.8543    1.1546 C   0  0  0  0  0  0  0  0  0  0  0  0
   -1.2227   -2.3443    1.9146 O   0  0  0  0  0  0  0  0  0  0  0  0
   -1.7517   -0.8483    0.3266 N   0  0  0  0  0  0  0  0  0  0  0  0
   -2.4847   -0.5123   -0.2804 H   0  0  0  0  0  0  0  0  0  0  0  0
   -0.4117   -0.2463    0.2186 C   0  0  1  0  0  0  0  0  0  0  0  0
   -0.4980    0.6739   -0.3645 H   0  0  0  0  0  0  0  0  0  0  0  0
    0.0646    0.1533    1.6345 C   0  0  0  0  0  0  0  0  0  0  0  0
    0.0677   -0.7390    2.2656 H   0  0  0  0  0  0  0  0  0  0  0  0
    1.0959    0.5076    1.5752 H   0  0  0  0  0  0  0  0  0  0  0  0
   -0.7625    1.2246    2.3132 C   0  0  0  0  0  0  0  0  0  0  0  0
   -0.7327    2.5710    2.0054 N   0  3  0  0  0  0  0  0  0  0  0  0
   -0.1852    2.9622    1.2335 H   0  0  0  0  0  0  0  0  0  0  0  0
   -1.5982    3.2121    2.8158 C   0  0  0  0  0  0  0  0  0  0  0  0
   -1.8018    4.2809    2.7996 H   0  0  0  0  0  0  0  0  0  0  0  0
   -2.1757    2.3018    3.6320 N   0  0  0  0  0  0  0  0  0  0  0  0
   -2.8724    2.4974    4.3461 H   0  0  0  0  0  0  0  0  0  0  0  0
   -1.6619    1.0483    3.3298 C   0  0  0  0  0  0  0  0  0  0  0  0
   -1.9179    0.1038    3.8020 H   0  0  0  0  0  0  0  0  0  0  0  0
    0.5544   -1.1625   -0.5533 C   0  0  0  0  0  0  0  0  0  0  0  0
    1.7201   -0.8177   -0.7533 O   0  0  0  0  0  0  0  0  0  0  0  0
    0.0521   -2.3228   -0.9933 N   0  0  0  0  0  0  0  0  0  0  0  0
   -0.9109   -2.5262   -0.7728 H   0  0  0  0  0  0  0  0  0  0  0  0
    0.7887   -3.3217   -1.7737 C   0  0  0  0  0  0  0  0  0  0  0  0
    1.1080   -4.1416   -1.1272 H   0  0  0  0  0  0  0  0  0  0  0  0
    0.1481   -3.7274   -2.5587 H   0  0  0  0  0  0  0  0  0  0  0  0
    1.6710   -2.8783   -2.2399 H   0  0  0  0  0  0  0  0  0  0  0  0
  5  6  2  0  0  0  0
  5  7  1  0  0  0  0
  2  3  1  0  0  0  0
  2  4  1  0  0  0  0
  2  5  1  0  0  0  0
  1  2  1  0  0  0  0
 23 24  2  0  0  0  0
 23 25  1  0  0  0  0
 21 22  1  0  0  0  0
 19 20  1  0  0  0  0
 19 21  1  0  0  0  0
 17 18  1  0  0  0  0
 17 19  1  0  0  0  0
 15 16  1  0  0  0  0
 15 17  2  0  0  0  0
 14 15  1  0  0  0  0
 14 21  2  0  0  0  0
 11 12  1  0  0  0  0
 11 13  1  0  0  0  0
 11 14  1  0  0  0  0
  9 10  1  0  0  0  0
  9 11  1  0  0  0  0
  9 23  1  0  0  0  0
  7  8  1  0  0  0  0
  7  9  1  0  0  0  0
 27 28  1  0  0  0  0
 27 29  1  0  0  0  0
 27 30  1  0  0  0  0
 25 26  1  0  0  0  0
 25 27  1  0  0  0  0
M  CHG  1  15   1
M  END
$$$$
default_name
  -OEChem-01062215323D

 30 30  0     1  0  0  0  0  0999 V2000
   -3.5507   -3.2183    1.8116 H   0  0  0  0  0  0  0  0  0  0  0  0
   -3.4597   -2.3913    1.1076 C   0  0  0  0  0  0  0  0  0  0  0  0
   -4.1577   -1.6043    1.3866 H   0  0  0  0  0  0  0  0  0  0  0  0
   -3.6807   -2.7523    0.1036 H   0  0  0  0  0  0  0  0  0  0  0  0
   -2.0477   -1.8543    1.1546 C   0  0  0  0  0  0  0  0  0  0  0  0
   -1.2227   -2.3443    1.9146 O   0  0  0  0  0  0  0  0  0  0  0  0
   -1.7517   -0.8483    0.3266 N   0  0  0  0  0  0  0  0  0  0  0  0
   -2.4847   -0.5123   -0.2804 H   0  0  0  0  0  0  0  0  0  0  0  0
   -0.4117   -0.2463    0.2186 C   0  0  1  0  0  0  0  0  0  0  0  0
   -0.4980    0.6739   -0.3645 H   0  0  0  0  0  0  0  0  0  0  0  0
    0.0646    0.1533    1.6345 C   0  0  0  0  0  0  0  0  0  0  0  0
    0.0677   -0.7390    2.2656 H   0  0  0  0  0  0  0  0  0  0  0  0
    1.0959    0.5076    1.5752 H   0  0  0  0  0  0  0  0  0  0  0  0
   -0.7625    1.2246    2.3132 C   0  0  0  0  0  0  0  0  0  0  0  0
   -0.7327    2.5710    2.0054 N   0  3  0  0  0  0  0  0  0  0  0  0
   -0.1852    2.9622    1.2335 H   0  0  0  0  0  0  0  0  0  0  0  0
   -1.5982    3.2121    2.8158 C   0  0  0  0  0  0  0  0  0  0  0  0
   -1.8018    4.2809    2.7996 H   0  0  0  0  0  0  0  0  0  0  0  0
   -2.1757    2.3018    3.6320 N   0  0  0  0  0  0  0  0  0  0  0  0
   -2.8724    2.4974    4.3461 H   0  0  0  0  0  0  0  0  0  0  0  0
   -1.6619    1.0483    3.3298 C   0  0  0  0  0  0  0  0  0  0  0  0
   -1.9179    0.1038    3.8020 H   0  0  0  0  0  0  0  0  0  0  0  0
    0.5544   -1.1625   -0.5533 C   0  0  0  0  0  0  0  0  0  0  0  0
    1.7694   -0.9610   -0.5215 O   0  0  0  0  0  0  0  0  0  0  0  0
   -0.0009   -2.1587   -1.2544 N   0  0  0  0  0  0  0  0  0  0  0  0
   -1.0041   -2.2539   -1.2126 H   0  0  0  0  0  0  0  0  0  0  0  0
    0.7322   -3.1218   -2.0817 C   0  0  0  0  0  0  0  0  0  0  0  0
    0.8424   -4.0676   -1.5475 H   0  0  0  0  0  0  0  0  0  0  0  0
    0.1868   -3.3077   -3.0086 H   0  0  0  0  0  0  0  0  0  0  0  0
    1.7251   -2.7429   -2.3330 H   0  0  0  0  0  0  0  0  0  0  0  0
  5  6  2  0  0  0  0
  5  7  1  0  0  0  0
  2  3  1  0  0  0  0
  2  4  1  0  0  0  0
  2  5  1  0  0  0  0
  1  2  1  0  0  0  0
 23 24  2  0  0  0  0
 23 25  1  0  0  0  0
 21 22  1  0  0  0  0
 19 20  1  0  0  0  0
 19 21  1  0  0  0  0
 17 18  1  0  0  0  0
 17 19  1  0  0  0  0
 15 16  1  0  0  0  0
 15 17  2  0  0  0  0
 14 15  1  0  0  0  0
 14 21  2  0  0  0  0
 11 12  1  0  0  0  0
 11 13  1  0  0  0  0
 11 14  1  0  0  0  0
  9 10  1  0  0  0  0
  9 11  1  0  0  0  0
  9 23  1  0  0  0  0
  7  8  1  0  0  0  0
  7  9  1  0  0  0  0
 27 28  1  0  0  0  0
 27 29  1  0  0  0  0
 27 30  1  0  0  0  0
 25 26  1  0  0  0  0
 25 27  1  0  0  0  0
M  CHG  1  15   1
M  END
$$$$
default_name
  -OEChem-01062215323D

 30 30  0     1  0  0  0  0  0999 V2000
   -3.5507   -3.2183    1.8116 H   0  0  0  0  0  0  0  0  0  0  0  0
   -3.4597   -2.3913    1.1076 C   0  0  0  0  0  0  0  0  0  0  0  0
   -4.1577   -1.6043    1.3866 H   0  0  0  0  0  0  0  0  0  0  0  0
   -3.6807   -2.7523    0.1036 H   0  0  0  0  0  0  0  0  0  0  0  0
   -2.0477   -1.8543    1.1546 C   0  0  0  0  0  0  0  0  0  0  0  0
   -1.2227   -2.3443    1.9146 O   0  0  0  0  0  0  0  0  0  0  0  0
   -1.7517   -0.8483    0.3266 N   0  0  0  0  0  0  0  0  0  0  0  0
   -2.4847   -0.5123   -0.2804 H   0  0  0  0  0  0  0  0  0  0  0  0
   -0.4117   -0.2463    0.2186 C   0  0  1  0  0  0  0  0  0  0  0  0
   -0.4980    0.6739   -0.3645 H   0  0  0  0  0  0  0  0  0  0  0  0
    0.0646    0.1533    1.6345 C   0  0  0  0  0  0  0  0  0  0  0  0
    0.0677   -0.7390    2.2656 H   0  0  0  0  0  0  0  0  0  0  0  0
    1.0959    0.5076    1.5752 H   0  0  0  0  0  0  0  0  0  0  0  0
   -0.7625    1.2246    2.3132 C   0  0  0  0  0  0  0  0  0  0  0  0
   -0.7327    2.5710    2.0054 N   0  3  0  0  0  0  0  0  0  0  0  0
   -0.1852    2.9622    1.2335 H   0  0  0  0  0  0  0  0  0  0  0  0
   -1.5982    3.2121    2.8158 C   0  0  0  0  0  0  0  0  0  0  0  0
   -1.8018    4.2809    2.7996 H   0  0  0  0  0  0  0  0  0  0  0  0
   -2.1757    2.3018    3.6320 N   0  0  0  0  0  0  0  0  0  0  0  0
   -2.8724    2.4974    4.3461 H   0  0  0  0  0  0  0  0  0  0  0  0
   -1.6619    1.0483    3.3298 C   0  0  0  0  0  0  0  0  0  0  0  0
   -1.9179    0.1038    3.8020 H   0  0  0  0  0  0  0  0  0  0  0  0
    0.5544   -1.1625   -0.5533 C   0  0  0  0  0  0  0  0  0  0  0  0
    1.7626   -1.1435   -0.3134 O   0  0  0  0  0  0  0  0  0  0  0  0
    0.0095   -1.9509   -1.4881 N   0  0  0  0  0  0  0  0  0  0  0  0
   -0.9911   -1.9073   -1.6077 H   0  0  0  0  0  0  0  0  0  0  0  0
    0.7510   -2.8713   -2.3555 C   0  0  0  0  0  0  0  0  0  0  0  0
    0.6602   -3.8933   -1.9823 H   0  0  0  0  0  0  0  0  0  0  0  0
    0.3478   -2.8342   -3.3690 H   0  0  0  0  0  0  0  0  0  0  0  0
    1.8092   -2.6040   -2.3926 H   0  0  0  0  0  0  0  0  0  0  0  0
  5  6  2  0  0  0  0
  5  7  1  0  0  0  0
  2  3  1  0  0  0  0
  2  4  1  0  0  0  0
  2  5  1  0  0  0  0
  1  2  1  0  0  0  0
 23 24  2  0  0  0  0
 23 25  1  0  0  0  0
 21 22  1  0  0  0  0
 19 20  1  0  0  0  0
 19 21  1  0  0  0  0
 17 18  1  0  0  0  0
 17 19  1  0  0  0  0
 15 16  1  0  0  0  0
 15 17  2  0  0  0  0
 14 15  1  0  0  0  0
 14 21  2  0  0  0  0
 11 12  1  0  0  0  0
 11 13  1  0  0  0  0
 11 14  1  0  0  0  0
  9 10  1  0  0  0  0
  9 11  1  0  0  0  0
  9 23  1  0  0  0  0
  7  8  1  0  0  0  0
  7  9  1  0  0  0  0
 27 28  1  0  0  0  0
 27 29  1  0  0  0  0
 27 30  1  0  0  0  0
 25 26  1  0  0  0  0
 25 27  1  0  0  0  0
M  CHG  1  15   1
M  END
$$$$
default_name
  -OEChem-01062215323D

 30 30  0     1  0  0  0  0  0999 V2000
   -3.5507   -3.2183    1.8116 H   0  0  0  0  0  0  0  0  0  0  0  0
   -3.4597   -2.3913    1.1076 C   0  0  0  0  0  0  0  0  0  0  0  0
   -4.1577   -1.6043    1.3866 H   0  0  0  0  0  0  0  0  0  0  0  0
   -3.6807   -2.7523    0.1036 H   0  0  0  0  0  0  0  0  0  0  0  0
   -2.0477   -1.8543    1.1546 C   0  0  0  0  0  0  0  0  0  0  0  0
   -1.2227   -2.3443    1.9146 O   0  0  0  0  0  0  0  0  0  0  0  0
   -1.7517   -0.8483    0.3266 N   0  0  0  0  0  0  0  0  0  0  0  0
   -2.4847   -0.5123   -0.2804 H   0  0  0  0  0  0  0  0  0  0  0  0
   -0.4117   -0.2463    0.2186 C   0  0  1  0  0  0  0  0  0  0  0  0
   -0.4980    0.6739   -0.3645 H   0  0  0  0  0  0  0  0  0  0  0  0
    0.0646    0.1533    1.6345 C   0  0  0  0  0  0  0  0  0  0  0  0
    0.0677   -0.7390    2.2656 H   0  0  0  0  0  0  0  0  0  0  0  0
    1.0959    0.5076    1.5752 H   0  0  0  0  0  0  0  0  0  0  0  0
   -0.7625    1.2246    2.3132 C   0  0  0  0  0  0  0  0  0  0  0  0
   -0.7327    2.5710    2.0054 N   0  3  0  0  0  0  0  0  0  0  0  0
   -0.1852    2.9622    1.2335 H   0  0  0  0  0  0  0  0  0  0  0  0
   -1.5982    3.2121    2.8158 C   0  0  0  0  0  0  0  0  0  0  0  0
   -1.8018    4.2809    2.7996 H   0  0  0  0  0  0  0  0  0  0  0  0
   -2.1757    2.3018    3.6320 N   0  0  0  0  0  0  0  0  0  0  0  0
   -2.8724    2.4974    4.3461 H   0  0  0  0  0  0  0  0  0  0  0  0
   -1.6619    1.0483    3.3298 C   0  0  0  0  0  0  0  0  0  0  0  0
   -1.9179    0.1038    3.8020 H   0  0  0  0  0  0  0  0  0  0  0  0
    0.5544   -1.1625   -0.5533 C   0  0  0  0  0  0  0  0  0  0  0  0
    1.7004   -1.3527   -0.1430 O   0  0  0  0  0  0  0  0  0  0  0  0
    0.0825   -1.7135   -1.6784 N   0  0  0  0  0  0  0  0  0  0  0  0
   -0.8726   -1.5101   -1.9309 H   0  0  0  0  0  0  0  0  0  0  0  0
    0.8439   -2.5873   -2.5763 C   0  0  0  0  0  0  0  0  0  0  0  0
    0.5738   -3.6307   -2.4021 H   0  0  0  0  0  0  0  0  0  0  0  0
    0.6205   -2.3392   -3.6154 H   0  0  0  0  0  0  0  0  0  0  0  0
    1.9176   -2.4711   -2.4147 H   0  0  0  0  0  0  0  0  0  0  0  0
  5  6  2  0  0  0  0
  5  7  1  0  0  0  0
  2  3  1  0  0  0  0
  2  4  1  0  0  0  0
  2  5  1  0  0  0  0
  1  2  1  0  0  0  0
 23 24  2  0  0  0  0
 23 25  1  0  0  0  0
 21 22  1  0  0  0  0
 19 20  1  0  0  0  0
 19 21  1  0  0  0  0
 17 18  1  0  0  0  0
 17 19  1  0  0  0  0
 15 16  1  0  0  0  0
 15 17  2  0  0  0  0
 14 15  1  0  0  0  0
 14 21  2  0  0  0  0
 11 12  1  0  0  0  0
 11 13  1  0  0  0  0
 11 14  1  0  0  0  0
  9 10  1  0  0  0  0
  9 11  1  0  0  0  0
  9 23  1  0  0  0  0
  7  8  1  0  0  0  0
  7  9  1  0  0  0  0
 27 28  1  0  0  0  0
 27 29  1  0  0  0  0
 27 30  1  0  0  0  0
 25 26  1  0  0  0  0
 25 27  1  0  0  0  0
M  CHG  1  15   1
M  END
$$$$
default_name
  -OEChem-01062215323D

 30 30  0     1  0  0  0  0  0999 V2000
   -3.5507   -3.2183    1.8116 H   0  0  0  0  0  0  0  0  0  0  0  0
   -3.4597   -2.3913    1.1076 C   0  0  0  0  0  0  0  0  0  0  0  0
   -4.1577   -1.6043    1.3866 H   0  0  0  0  0  0  0  0  0  0  0  0
   -3.6807   -2.7523    0.1036 H   0  0  0  0  0  0  0  0  0  0  0  0
   -2.0477   -1.8543    1.1546 C   0  0  0  0  0  0  0  0  0  0  0  0
   -1.2227   -2.3443    1.9146 O   0  0  0  0  0  0  0  0  0  0  0  0
   -1.7517   -0.8483    0.3266 N   0  0  0  0  0  0  0  0  0  0  0  0
   -2.4847   -0.5123   -0.2804 H   0  0  0  0  0  0  0  0  0  0  0  0
   -0.4117   -0.2463    0.2186 C   0  0  1  0  0  0  0  0  0  0  0  0
   -0.4980    0.6739   -0.3645 H   0  0  0  0  0  0  0  0  0  0  0  0
    0.0646    0.1533    1.6345 C   0  0  0  0  0  0  0  0  0  0  0  0
    0.0677   -0.7390    2.2656 H   0  0  0  0  0  0  0  0  0  0  0  0
    1.0959    0.5076    1.5752 H   0  0  0  0  0  0  0  0  0  0  0  0
   -0.7625    1.2246    2.3132 C   0  0  0  0  0  0  0  0  0  0  0  0
   -0.7327    2.5710    2.0054 N   0  3  0  0  0  0  0  0  0  0  0  0
   -0.1852    2.9622    1.2335 H   0  0  0  0  0  0  0  0  0  0  0  0
   -1.5982    3.2121    2.8158 C   0  0  0  0  0  0  0  0  0  0  0  0
   -1.8018    4.2809    2.7996 H   0  0  0  0  0  0  0  0  0  0  0  0
   -2.1757    2.3018    3.6320 N   0  0  0  0  0  0  0  0  0  0  0  0
   -2.8724    2.4974    4.3461 H   0  0  0  0  0  0  0  0  0  0  0  0
   -1.6619    1.0483    3.3298 C   0  0  0  0  0  0  0  0  0  0  0  0
   -1.9179    0.1038    3.8020 H   0  0  0  0  0  0  0  0  0  0  0  0
    0.5544   -1.1625   -0.5533 C   0  0  0  0  0  0  0  0  0  0  0  0
    1.5868   -1.5743   -0.0220 O   0  0  0  0  0  0  0  0  0  0  0  0
    0.2132   -1.4628   -1.8125 N   0  0  0  0  0  0  0  0  0  0  0  0
   -0.6568   -1.0893   -2.1603 H   0  0  0  0  0  0  0  0  0  0  0  0
    1.0045   -2.2891   -2.7292 C   0  0  0  0  0  0  0  0  0  0  0  0
    0.5891   -3.2977   -2.7783 H   0  0  0  0  0  0  0  0  0  0  0  0
    0.9860   -1.8564   -3.7310 H   0  0  0  0  0  0  0  0  0  0  0  0
    2.0431   -2.3532   -2.3977 H   0  0  0  0  0  0  0  0  0  0  0  0
  5  6  2  0  0  0  0
  5  7  1  0  0  0  0
  2  3  1  0  0  0  0
  2  4  1  0  0  0  0
  2  5  1  0  0  0  0
  1  2  1  0  0  0  0
 23 24  2  0  0  0  0
 23 25  1  0  0  0  0
 21 22  1  0  0  0  0
 19 20  1  0  0  0  0
 19 21  1  0  0  0  0
 17 18  1  0  0  0  0
 17 19  1  0  0  0  0
 15 16  1  0  0  0  0
 15 17  2  0  0  0  0
 14 15  1  0  0  0  0
 14 21  2  0  0  0  0
 11 12  1  0  0  0  0
 11 13  1  0  0  0  0
 11 14  1  0  0  0  0
  9 10  1  0  0  0  0
  9 11  1  0  0  0  0
  9 23  1  0  0  0  0
  7  8  1  0  0  0  0
  7  9  1  0  0  0  0
 27 28  1  0  0  0  0
 27 29  1  0  0  0  0
 27 30  1  0  0  0  0
 25 26  1  0  0  0  0
 25 27  1  0  0  0  0
M  CHG  1  15   1
M  END
$$$$
default_name
  -OEChem-01062215323D

 30 30  0     1  0  0  0  0  0999 V2000
   -3.5507   -3.2183    1.8116 H   0  0  0  0  0  0  0  0  0  0  0  0
   -3.4597   -2.3913    1.1076 C   0  0  0  0  0  0  0  0  0  0  0  0
   -4.1577   -1.6043    1.3866 H   0  0  0  0  0  0  0  0  0  0  0  0
   -3.6807   -2.7523    0.1036 H   0  0  0  0  0  0  0  0  0  0  0  0
   -2.0477   -1.8543    1.1546 C   0  0  0  0  0  0  0  0  0  0  0  0
   -1.2227   -2.3443    1.9146 O   0  0  0  0  0  0  0  0  0  0  0  0
   -1.7517   -0.8483    0.3266 N   0  0  0  0  0  0  0  0  0  0  0  0
   -2.4847   -0.5123   -0.2804 H   0  0  0  0  0  0  0  0  0  0  0  0
   -0.4117   -0.2463    0.2186 C   0  0  1  0  0  0  0  0  0  0  0  0
   -0.4980    0.6739   -0.3645 H   0  0  0  0  0  0  0  0  0  0  0  0
    0.0646    0.1533    1.6345 C   0  0  0  0  0  0  0  0  0  0  0  0
    0.0677   -0.7390    2.2656 H   0  0  0  0  0  0  0  0  0  0  0  0
    1.0959    0.5076    1.5752 H   0  0  0  0  0  0  0  0  0  0  0  0
   -0.7625    1.2246    2.3132 C   0  0  0  0  0  0  0  0  0  0  0  0
   -0.7327    2.5710    2.0054 N   0  3  0  0  0  0  0  0  0  0  0  0
   -0.1852    2.9622    1.2335 H   0  0  0  0  0  0  0  0  0  0  0  0
   -1.5982    3.2121    2.8158 C   0  0  0  0  0  0  0  0  0  0  0  0
   -1.8018    4.2809    2.7996 H   0  0  0  0  0  0  0  0  0  0  0  0
   -2.1757    2.3018    3.6320 N   0  0  0  0  0  0  0  0  0  0  0  0
   -2.8724    2.4974    4.3461 H   0  0  0  0  0  0  0  0  0  0  0  0
   -1.6619    1.0483    3.3298 C   0  0  0  0  0  0  0  0  0  0  0  0
   -1.9179    0.1038    3.8020 H   0  0  0  0  0  0  0  0  0  0  0  0
    0.5544   -1.1625   -0.5533 C   0  0  0  0  0  0  0  0  0  0  0  0
    1.4297   -1.7934    0.0414 O   0  0  0  0  0  0  0  0  0  0  0  0
    0.3926   -1.2158   -1.8811 N   0  0  0  0  0  0  0  0  0  0  0  0
   -0.3583   -0.6735   -2.2803 H   0  0  0  0  0  0  0  0  0  0  0  0
    1.2219   -1.9972   -2.8037 C   0  0  0  0  0  0  0  0  0  0  0  0
    0.7051   -2.9168   -3.0852 H   0  0  0  0  0  0  0  0  0  0  0  0
    1.4196   -1.4188   -3.7078 H   0  0  0  0  0  0  0  0  0  0  0  0
    2.1769   -2.2583   -2.3428 H   0  0  0  0  0  0  0  0  0  0  0  0
  5  6  2  0  0  0  0
  5  7  1  0  0  0  0
  2  3  1  0  0  0  0
  2  4  1  0  0  0  0
  2  5  1  0  0  0  0
  1  2  1  0  0  0  0
 23 24  2  0  0  0  0
 23 25  1  0  0  0  0
 21 22  1  0  0  0  0
 19 20  1  0  0  0  0
 19 21  1  0  0  0  0
 17 18  1  0  0  0  0
 17 19  1  0  0  0  0
 15 16  1  0  0  0  0
 15 17  2  0  0  0  0
 14 15  1  0  0  0  0
 14 21  2  0  0  0  0
 11 12  1  0  0  0  0
 11 13  1  0  0  0  0
 11 14  1  0  0  0  0
  9 10  1  0  0  0  0
  9 11  1  0  0  0  0
  9 23  1  0  0  0  0
  7  8  1  0  0  0  0
  7  9  1  0  0  0  0
 27 28  1  0  0  0  0
 27 29  1  0  0  0  0
 27 30  1  0  0  0  0
 25 26  1  0  0  0  0
 25 27  1  0  0  0  0
M  CHG  1  15   1
M  END
$$$$
default_name
  -OEChem-01062215323D

 30 30  0     1  0  0  0  0  0999 V2000
   -3.5507   -3.2183    1.8116 H   0  0  0  0  0  0  0  0  0  0  0  0
   -3.4597   -2.3913    1.1076 C   0  0  0  0  0  0  0  0  0  0  0  0
   -4.1577   -1.6043    1.3866 H   0  0  0  0  0  0  0  0  0  0  0  0
   -3.6807   -2.7523    0.1036 H   0  0  0  0  0  0  0  0  0  0  0  0
   -2.0477   -1.8543    1.1546 C   0  0  0  0  0  0  0  0  0  0  0  0
   -1.2227   -2.3443    1.9146 O   0  0  0  0  0  0  0  0  0  0  0  0
   -1.7517   -0.8483    0.3266 N   0  0  0  0  0  0  0  0  0  0  0  0
   -2.4847   -0.5123   -0.2804 H   0  0  0  0  0  0  0  0  0  0  0  0
   -0.4117   -0.2463    0.2186 C   0  0  1  0  0  0  0  0  0  0  0  0
   -0.4980    0.6739   -0.3645 H   0  0  0  0  0  0  0  0  0  0  0  0
    0.0646    0.1533    1.6345 C   0  0  0  0  0  0  0  0  0  0  0  0
    0.0677   -0.7390    2.2656 H   0  0  0  0  0  0  0  0  0  0  0  0
    1.0959    0.5076    1.5752 H   0  0  0  0  0  0  0  0  0  0  0  0
   -0.7625    1.2246    2.3132 C   0  0  0  0  0  0  0  0  0  0  0  0
   -0.7327    2.5710    2.0054 N   0  3  0  0  0  0  0  0  0  0  0  0
   -0.1852    2.9622    1.2335 H   0  0  0  0  0  0  0  0  0  0  0  0
   -1.5982    3.2121    2.8158 C   0  0  0  0  0  0  0  0  0  0  0  0
   -1.8018    4.2809    2.7996 H   0  0  0  0  0  0  0  0  0  0  0  0
   -2.1757    2.3018    3.6320 N   0  0  0  0  0  0  0  0  0  0  0  0
   -2.8724    2.4974    4.3461 H   0  0  0  0  0  0  0  0  0  0  0  0
   -1.6619    1.0483    3.3298 C   0  0  0  0  0  0  0  0  0  0  0  0
   -1.9179    0.1038    3.8020 H   0  0  0  0  0  0  0  0  0  0  0  0
    0.5544   -1.1625   -0.5533 C   0  0  0  0  0  0  0  0  0  0  0  0
    1.2397   -1.9948    0.0428 O   0  0  0  0  0  0  0  0  0  0  0  0
    0.6085   -0.9894   -1.8797 N   0  0  0  0  0  0  0  0  0  0  0  0
    0.0024   -0.2911   -2.2827 H   0  0  0  0  0  0  0  0  0  0  0  0
    1.4813   -1.7313   -2.7947 C   0  0  0  0  0  0  0  0  0  0  0  0
    0.9139   -2.5142   -3.3018 H   0  0  0  0  0  0  0  0  0  0  0  0
    1.8916   -1.0561   -3.5476 H   0  0  0  0  0  0  0  0  0  0  0  0
    2.3100   -2.1930   -2.2537 H   0  0  0  0  0  0  0  0  0  0  0  0
  5  6  2  0  0  0  0
  5  7  1  0  0  0  0
  2  3  1  0  0  0  0
  2  4  1  0  0  0  0
  2  5  1  0  0  0  0
  1  2  1  0  0  0  0
 23 24  2  0  0  0  0
 23 25  1  0  0  0  0
 21 22  1  0  0  0  0
 19 20  1  0  0  0  0
 19 21  1  0  0  0  0
 17 18  1  0  0  0  0
 17 19  1  0  0  0  0
 15 16  1  0  0  0  0
 15 17  2  0  0  0  0
 14 15  1  0  0  0  0
 14 21  2  0  0  0  0
 11 12  1  0  0  0  0
 11 13  1  0  0  0  0
 11 14  1  0  0  0  0
  9 10  1  0  0  0  0
  9 11  1  0  0  0  0
  9 23  1  0  0  0  0
  7  8  1  0  0  0  0
  7  9  1  0  0  0  0
 27 28  1  0  0  0  0
 27 29  1  0  0  0  0
 27 30  1  0  0  0  0
 25 26  1  0  0  0  0
 25 27  1  0  0  0  0
M  CHG  1  15   1
M  END
$$$$
default_name
  -OEChem-01062215323D

 30 30  0     1  0  0  0  0  0999 V2000
   -3.5507   -3.2183    1.8116 H   0  0  0  0  0  0  0  0  0  0  0  0
   -3.4597   -2.3913    1.1076 C   0  0  0  0  0  0  0  0  0  0  0  0
   -4.1577   -1.6043    1.3866 H   0  0  0  0  0  0  0  0  0  0  0  0
   -3.6807   -2.7523    0.1036 H   0  0  0  0  0  0  0  0  0  0  0  0
   -2.0477   -1.8543    1.1546 C   0  0  0  0  0  0  0  0  0  0  0  0
   -1.2227   -2.3443    1.9146 O   0  0  0  0  0  0  0  0  0  0  0  0
   -1.7517   -0.8483    0.3266 N   0  0  0  0  0  0  0  0  0  0  0  0
   -2.4847   -0.5123   -0.2804 H   0  0  0  0  0  0  0  0  0  0  0  0
   -0.4117   -0.2463    0.2186 C   0  0  1  0  0  0  0  0  0  0  0  0
   -0.4980    0.6739   -0.3645 H   0  0  0  0  0  0  0  0  0  0  0  0
    0.0646    0.1533    1.6345 C   0  0  0  0  0  0  0  0  0  0  0  0
    0.0677   -0.7390    2.2656 H   0  0  0  0  0  0  0  0  0  0  0  0
    1.0959    0.5076    1.5752 H   0  0  0  0  0  0  0  0  0  0  0  0
   -0.7625    1.2246    2.3132 C   0  0  0  0  0  0  0  0  0  0  0  0
   -0.7327    2.5710    2.0054 N   0  3  0  0  0  0  0  0  0  0  0  0
   -0.1852    2.9622    1.2335 H   0  0  0  0  0  0  0  0  0  0  0  0
   -1.5982    3.2121    2.8158 C   0  0  0  0  0  0  0  0  0  0  0  0
   -1.8018    4.2809    2.7996 H   0  0  0  0  0  0  0  0  0  0  0  0
   -2.1757    2.3018    3.6320 N   0  0  0  0  0  0  0  0  0  0  0  0
   -2.8724    2.4974    4.3461 H   0  0  0  0  0  0  0  0  0  0  0  0
   -1.6619    1.0483    3.3298 C   0  0  0  0  0  0  0  0  0  0  0  0
   -1.9179    0.1038    3.8020 H   0  0  0  0  0  0  0  0  0  0  0  0
    0.5544   -1.1625   -0.5533 C   0  0  0  0  0  0  0  0  0  0  0  0
    1.0299   -2.1650   -0.0178 O   0  0  0  0  0  0  0  0  0  0  0  0
    0.8463   -0.7989   -1.8082 N   0  0  0  0  0  0  0  0  0  0  0  0
    0.4008    0.0317   -2.1673 H   0  0  0  0  0  0  0  0  0  0  0  0
    1.7650   -1.5096   -2.7028 C   0  0  0  0  0  0  0  0  0  0  0  0
    1.2012   -2.1171   -3.4136 H   0  0  0  0  0  0  0  0  0  0  0  0
    2.3699   -0.7931   -3.2612 H   0  0  0  0  0  0  0  0  0  0  0  0
    2.4333   -2.1617   -2.1365 H   0  0  0  0  0  0  0  0  0  0  0  0
  5  6  2  0  0  0  0
  5  7  1  0  0  0  0
  2  3  1  0  0  0  0
  2  4  1  0  0  0  0
  2  5  1  0  0  0  0
  1  2  1  0  0  0  0
 23 24  2  0  0  0  0
 23 25  1  0  0  0  0
 21 22  1  0  0  0  0
 19 20  1  0  0  0  0
 19 21  1  0  0  0  0
 17 18  1  0  0  0  0
 17 19  1  0  0  0  0
 15 16  1  0  0  0  0
 15 17  2  0  0  0  0
 14 15  1  0  0  0  0
 14 21  2  0  0  0  0
 11 12  1  0  0  0  0
 11 13  1  0  0  0  0
 11 14  1  0  0  0  0
  9 10  1  0  0  0  0
  9 11  1  0  0  0  0
  9 23  1  0  0  0  0
  7  8  1  0  0  0  0
  7  9  1  0  0  0  0
 27 28  1  0  0  0  0
 27 29  1  0  0  0  0
 27 30  1  0  0  0  0
 25 26  1  0  0  0  0
 25 27  1  0  0  0  0
M  CHG  1  15   1
M  END
$$$$
default_name
  -OEChem-01062215323D

 30 30  0     1  0  0  0  0  0999 V2000
   -3.5507   -3.2183    1.8116 H   0  0  0  0  0  0  0  0  0  0  0  0
   -3.4597   -2.3913    1.1076 C   0  0  0  0  0  0  0  0  0  0  0  0
   -4.1577   -1.6043    1.3866 H   0  0  0  0  0  0  0  0  0  0  0  0
   -3.6807   -2.7523    0.1036 H   0  0  0  0  0  0  0  0  0  0  0  0
   -2.0477   -1.8543    1.1546 C   0  0  0  0  0  0  0  0  0  0  0  0
   -1.2227   -2.3443    1.9146 O   0  0  0  0  0  0  0  0  0  0  0  0
   -1.7517   -0.8483    0.3266 N   0  0  0  0  0  0  0  0  0  0  0  0
   -2.4847   -0.5123   -0.2804 H   0  0  0  0  0  0  0  0  0  0  0  0
   -0.4117   -0.2463    0.2186 C   0  0  1  0  0  0  0  0  0  0  0  0
   -0.4980    0.6739   -0.3645 H   0  0  0  0  0  0  0  0  0  0  0  0
    0.0646    0.1533    1.6345 C   0  0  0  0  0  0  0  0  0  0  0  0
    0.0677   -0.7390    2.2656 H   0  0  0  0  0  0  0  0  0  0  0  0
    1.0959    0.5076    1.5752 H   0  0  0  0  0  0  0  0  0  0  0  0
   -0.7625    1.2246    2.3132 C   0  0  0  0  0  0  0  0  0  0  0  0
   -0.7327    2.5710    2.0054 N   0  3  0  0  0  0  0  0  0  0  0  0
   -0.1852    2.9622    1.2335 H   0  0  0  0  0  0  0  0  0  0  0  0
   -1.5982    3.2121    2.8158 C   0  0  0  0  0  0  0  0  0  0  0  0
   -1.8018    4.2809    2.7996 H   0  0  0  0  0  0  0  0  0  0  0  0
   -2.1757    2.3018    3.6320 N   0  0  0  0  0  0  0  0  0  0  0  0
   -2.8724    2.4974    4.3461 H   0  0  0  0  0  0  0  0  0  0  0  0
   -1.6619    1.0483    3.3298 C   0  0  0  0  0  0  0  0  0  0  0  0
   -1.9179    0.1038    3.8020 H   0  0  0  0  0  0  0  0  0  0  0  0
    0.5544   -1.1625   -0.5533 C   0  0  0  0  0  0  0  0  0  0  0  0
    0.8144   -2.2923   -0.1364 O   0  0  0  0  0  0  0  0  0  0  0  0
    1.0897   -0.6574   -1.6716 N   0  0  0  0  0  0  0  0  0  0  0  0
    0.8099    0.2731   -1.9420 H   0  0  0  0  0  0  0  0  0  0  0  0
    2.0536   -1.3472   -2.5344 C   0  0  0  0  0  0  0  0  0  0  0  0
    1.5475   -1.7528   -3.4127 H   0  0  0  0  0  0  0  0  0  0  0  0
    2.8220   -0.6477   -2.8681 H   0  0  0  0  0  0  0  0  0  0  0  0
    2.5385   -2.1664   -1.9993 H   0  0  0  0  0  0  0  0  0  0  0  0
  5  6  2  0  0  0  0
  5  7  1  0  0  0  0
  2  3  1  0  0  0  0
  2  4  1  0  0  0  0
  2  5  1  0  0  0  0
  1  2  1  0  0  0  0
 23 24  2  0  0  0  0
 23 25  1  0  0  0  0
 21 22  1  0  0  0  0
 19 20  1  0  0  0  0
 19 21  1  0  0  0  0
 17 18  1  0  0  0  0
 17 19  1  0  0  0  0
 15 16  1  0  0  0  0
 15 17  2  0  0  0  0
 14 15  1  0  0  0  0
 14 21  2  0  0  0  0
 11 12  1  0  0  0  0
 11 13  1  0  0  0  0
 11 14  1  0  0  0  0
  9 10  1  0  0  0  0
  9 11  1  0  0  0  0
  9 23  1  0  0  0  0
  7  8  1  0  0  0  0
  7  9  1  0  0  0  0
 27 28  1  0  0  0  0
 27 29  1  0  0  0  0
 27 30  1  0  0  0  0
 25 26  1  0  0  0  0
 25 27  1  0  0  0  0
M  CHG  1  15   1
M  END
$$$$
default_name
  -OEChem-01062215323D

 30 30  0     1  0  0  0  0  0999 V2000
   -3.5507   -3.2183    1.8116 H   0  0  0  0  0  0  0  0  0  0  0  0
   -3.4597   -2.3913    1.1076 C   0  0  0  0  0  0  0  0  0  0  0  0
   -4.1577   -1.6043    1.3866 H   0  0  0  0  0  0  0  0  0  0  0  0
   -3.6807   -2.7523    0.1036 H   0  0  0  0  0  0  0  0  0  0  0  0
   -2.0477   -1.8543    1.1546 C   0  0  0  0  0  0  0  0  0  0  0  0
   -1.2227   -2.3443    1.9146 O   0  0  0  0  0  0  0  0  0  0  0  0
   -1.7517   -0.8483    0.3266 N   0  0  0  0  0  0  0  0  0  0  0  0
   -2.4847   -0.5123   -0.2804 H   0  0  0  0  0  0  0  0  0  0  0  0
   -0.4117   -0.2463    0.2186 C   0  0  1  0  0  0  0  0  0  0  0  0
   -0.4980    0.6739   -0.3645 H   0  0  0  0  0  0  0  0  0  0  0  0
    0.0646    0.1533    1.6345 C   0  0  0  0  0  0  0  0  0  0  0  0
    0.0677   -0.7390    2.2656 H   0  0  0  0  0  0  0  0  0  0  0  0
    1.0959    0.5076    1.5752 H   0  0  0  0  0  0  0  0  0  0  0  0
   -0.7625    1.2246    2.3132 C   0  0  0  0  0  0  0  0  0  0  0  0
   -0.7327    2.5710    2.0054 N   0  3  0  0  0  0  0  0  0  0  0  0
   -0.1852    2.9622    1.2335 H   0  0  0  0  0  0  0  0  0  0  0  0
   -1.5982    3.2121    2.8158 C   0  0  0  0  0  0  0  0  0  0  0  0
   -1.8018    4.2809    2.7996 H   0  0  0  0  0  0  0  0  0  0  0  0
   -2.1757    2.3018    3.6320 N   0  0  0  0  0  0  0  0  0  0  0  0
   -2.8724    2.4974    4.3461 H   0  0  0  0  0  0  0  0  0  0  0  0
   -1.6619    1.0483    3.3298 C   0  0  0  0  0  0  0  0  0  0  0  0
   -1.9179    0.1038    3.8020 H   0  0  0  0  0  0  0  0  0  0  0  0
    0.5544   -1.1625   -0.5533 C   0  0  0  0  0  0  0  0  0  0  0  0
    0.6081   -2.3680   -0.3048 O   0  0  0  0  0  0  0  0  0  0  0  0
    1.3220   -0.5746   -1.4791 N   0  0  0  0  0  0  0  0  0  0  0  0
    1.2015    0.4166   -1.6221 H   0  0  0  0  0  0  0  0  0  0  0  0
    2.3275   -1.2552   -2.3008 C   0  0  0  0  0  0  0  0  0  0  0  0
    1.9291   -1.4459   -3.2993 H   0  0  0  0  0  0  0  0  0  0  0  0
    3.2169   -0.6298   -2.3951 H   0  0  0  0  0  0  0  0  0  0  0  0
    2.6183   -2.2070   -1.8513 H   0  0  0  0  0  0  0  0  0  0  0  0
  5  6  2  0  0  0  0
  5  7  1  0  0  0  0
  2  3  1  0  0  0  0
  2  4  1  0  0  0  0
  2  5  1  0  0  0  0
  1  2  1  0  0  0  0
 23 24  2  0  0  0  0
 23 25  1  0  0  0  0
 21 22  1  0  0  0  0
 19 20  1  0  0  0  0
 19 21  1  0  0  0  0
 17 18  1  0  0  0  0
 17 19  1  0  0  0  0
 15 16  1  0  0  0  0
 15 17  2  0  0  0  0
 14 15  1  0  0  0  0
 14 21  2  0  0  0  0
 11 12  1  0  0  0  0
 11 13  1  0  0  0  0
 11 14  1  0  0  0  0
  9 10  1  0  0  0  0
  9 11  1  0  0  0  0
  9 23  1  0  0  0  0
  7  8  1  0  0  0  0
  7  9  1  0  0  0  0
 27 28  1  0  0  0  0
 27 29  1  0  0  0  0
 27 30  1  0  0  0  0
 25 26  1  0  0  0  0
 25 27  1  0  0  0  0
M  CHG  1  15   1
M  END
$$$$
default_name
  -OEChem-01062215323D

 30 30  0     1  0  0  0  0  0999 V2000
   -3.5507   -3.2183    1.8116 H   0  0  0  0  0  0  0  0  0  0  0  0
   -3.4597   -2.3913    1.1076 C   0  0  0  0  0  0  0  0  0  0  0  0
   -4.1577   -1.6043    1.3866 H   0  0  0  0  0  0  0  0  0  0  0  0
   -3.6807   -2.7523    0.1036 H   0  0  0  0  0  0  0  0  0  0  0  0
   -2.0477   -1.8543    1.1546 C   0  0  0  0  0  0  0  0  0  0  0  0
   -1.2227   -2.3443    1.9146 O   0  0  0  0  0  0  0  0  0  0  0  0
   -1.7517   -0.8483    0.3266 N   0  0  0  0  0  0  0  0  0  0  0  0
   -2.4847   -0.5123   -0.2804 H   0  0  0  0  0  0  0  0  0  0  0  0
   -0.4117   -0.2463    0.2186 C   0  0  1  0  0  0  0  0  0  0  0  0
   -0.4980    0.6739   -0.3645 H   0  0  0  0  0  0  0  0  0  0  0  0
    0.0646    0.1533    1.6345 C   0  0  0  0  0  0  0  0  0  0  0  0
    0.0677   -0.7390    2.2656 H   0  0  0  0  0  0  0  0  0  0  0  0
    1.0959    0.5076    1.5752 H   0  0  0  0  0  0  0  0  0  0  0  0
   -0.7625    1.2246    2.3132 C   0  0  0  0  0  0  0  0  0  0  0  0
   -0.7327    2.5710    2.0054 N   0  3  0  0  0  0  0  0  0  0  0  0
   -0.1852    2.9622    1.2335 H   0  0  0  0  0  0  0  0  0  0  0  0
   -1.5982    3.2121    2.8158 C   0  0  0  0  0  0  0  0  0  0  0  0
   -1.8018    4.2809    2.7996 H   0  0  0  0  0  0  0  0  0  0  0  0
   -2.1757    2.3018    3.6320 N   0  0  0  0  0  0  0  0  0  0  0  0
   -2.8724    2.4974    4.3461 H   0  0  0  0  0  0  0  0  0  0  0  0
   -1.6619    1.0483    3.3298 C   0  0  0  0  0  0  0  0  0  0  0  0
   -1.9179    0.1038    3.8020 H   0  0  0  0  0  0  0  0  0  0  0  0
    0.5544   -1.1625   -0.5533 C   0  0  0  0  0  0  0  0  0  0  0  0
    0.4249   -2.3870   -0.5115 O   0  0  0  0  0  0  0  0  0  0  0  0
    1.5276   -0.5560   -1.2440 N   0  0  0  0  0  0  0  0  0  0  0  0
    1.5492    0.4524   -1.2295 H   0  0  0  0  0  0  0  0  0  0  0  0
    2.5681   -1.2398   -2.0180 C   0  0  0  0  0  0  0  0  0  0  0  0
    2.3201   -1.2175   -3.0811 H   0  0  0  0  0  0  0  0  0  0  0  0
    3.5279   -0.7406   -1.8744 H   0  0  0  0  0  0  0  0  0  0  0  0
    2.6673   -2.2806   -1.7026 H   0  0  0  0  0  0  0  0  0  0  0  0
  5  6  2  0  0  0  0
  5  7  1  0  0  0  0
  2  3  1  0  0  0  0
  2  4  1  0  0  0  0
  2  5  1  0  0  0  0
  1  2  1  0  0  0  0
 23 24  2  0  0  0  0
 23 25  1  0  0  0  0
 21 22  1  0  0  0  0
 19 20  1  0  0  0  0
 19 21  1  0  0  0  0
 17 18  1  0  0  0  0
 17 19  1  0  0  0  0
 15 16  1  0  0  0  0
 15 17  2  0  0  0  0
 14 15  1  0  0  0  0
 14 21  2  0  0  0  0
 11 12  1  0  0  0  0
 11 13  1  0  0  0  0
 11 14  1  0  0  0  0
  9 10  1  0  0  0  0
  9 11  1  0  0  0  0
  9 23  1  0  0  0  0
  7  8  1  0  0  0  0
  7  9  1  0  0  0  0
 27 28  1  0  0  0  0
 27 29  1  0  0  0  0
 27 30  1  0  0  0  0
 25 26  1  0  0  0  0
 25 27  1  0  0  0  0
M  CHG  1  15   1
M  END
$$$$
default_name
  -OEChem-01062215323D

 30 30  0     1  0  0  0  0  0999 V2000
   -3.5507   -3.2183    1.8116 H   0  0  0  0  0  0  0  0  0  0  0  0
   -3.4597   -2.3913    1.1076 C   0  0  0  0  0  0  0  0  0  0  0  0
   -4.1577   -1.6043    1.3866 H   0  0  0  0  0  0  0  0  0  0  0  0
   -3.6807   -2.7523    0.1036 H   0  0  0  0  0  0  0  0  0  0  0  0
   -2.0477   -1.8543    1.1546 C   0  0  0  0  0  0  0  0  0  0  0  0
   -1.2227   -2.3443    1.9146 O   0  0  0  0  0  0  0  0  0  0  0  0
   -1.7517   -0.8483    0.3266 N   0  0  0  0  0  0  0  0  0  0  0  0
   -2.4847   -0.5123   -0.2804 H   0  0  0  0  0  0  0  0  0  0  0  0
   -0.4117   -0.2463    0.2186 C   0  0  1  0  0  0  0  0  0  0  0  0
   -0.4980    0.6739   -0.3645 H   0  0  0  0  0  0  0  0  0  0  0  0
    0.0646    0.1533    1.6345 C   0  0  0  0  0  0  0  0  0  0  0  0
    0.0677   -0.7390    2.2656 H   0  0  0  0  0  0  0  0  0  0  0  0
    1.0959    0.5076    1.5752 H   0  0  0  0  0  0  0  0  0  0  0  0
   -0.7625    1.2246    2.3132 C   0  0  0  0  0  0  0  0  0  0  0  0
   -0.7327    2.5710    2.0054 N   0  3  0  0  0  0  0  0  0  0  0  0
   -0.1852    2.9622    1.2335 H   0  0  0  0  0  0  0  0  0  0  0  0
   -1.5982    3.2121    2.8158 C   0  0  0  0  0  0  0  0  0  0  0  0
   -1.8018    4.2809    2.7996 H   0  0  0  0  0  0  0  0  0  0  0  0
   -2.1757    2.3018    3.6320 N   0  0  0  0  0  0  0  0  0  0  0  0
   -2.8724    2.4974    4.3461 H   0  0  0  0  0  0  0  0  0  0  0  0
   -1.6619    1.0483    3.3298 C   0  0  0  0  0  0  0  0  0  0  0  0
   -1.9179    0.1038    3.8020 H   0  0  0  0  0  0  0  0  0  0  0  0
    0.5544   -1.1625   -0.5533 C   0  0  0  0  0  0  0  0  0  0  0  0
    0.2773   -2.3480   -0.7425 O   0  0  0  0  0  0  0  0  0  0  0  0
    1.6924   -0.6029   -0.9821 N   0  0  0  0  0  0  0  0  0  0  0  0
    1.8292    0.3780   -0.7908 H   0  0  0  0  0  0  0  0  0  0  0  0
    2.7588   -1.3021   -1.7053 C   0  0  0  0  0  0  0  0  0  0  0  0
    2.6938   -1.0831   -2.7730 H   0  0  0  0  0  0  0  0  0  0  0  0
    3.7336   -0.9726   -1.3416 H   0  0  0  0  0  0  0  0  0  0  0  0
    2.6822   -2.3822   -1.5634 H   0  0  0  0  0  0  0  0  0  0  0  0
  5  6  2  0  0  0  0
  5  7  1  0  0  0  0
  2  3  1  0  0  0  0
  2  4  1  0  0  0  0
  2  5  1  0  0  0  0
  1  2  1  0  0  0  0
 23 24  2  0  0  0  0
 23 25  1  0  0  0  0
 21 22  1  0  0  0  0
 19 20  1  0  0  0  0
 19 21  1  0  0  0  0
 17 18  1  0  0  0  0
 17 19  1  0  0  0  0
 15 16  1  0  0  0  0
 15 17  2  0  0  0  0
 14 15  1  0  0  0  0
 14 21  2  0  0  0  0
 11 12  1  0  0  0  0
 11 13  1  0  0  0  0
 11 14  1  0  0  0  0
  9 10  1  0  0  0  0
  9 11  1  0  0  0  0
  9 23  1  0  0  0  0
  7  8  1  0  0  0  0
  7  9  1  0  0  0  0
 27 28  1  0  0  0  0
 27 29  1  0  0  0  0
 27 30  1  0  0  0  0
 25 26  1  0  0  0  0
 25 27  1  0  0  0  0
M  CHG  1  15   1
M  END
$$$$
default_name
  -OEChem-01062215323D

 30 30  0     1  0  0  0  0  0999 V2000
   -3.5507   -3.2183    1.8116 H   0  0  0  0  0  0  0  0  0  0  0  0
   -3.4597   -2.3913    1.1076 C   0  0  0  0  0  0  0  0  0  0  0  0
   -4.1577   -1.6043    1.3866 H   0  0  0  0  0  0  0  0  0  0  0  0
   -3.6807   -2.7523    0.1036 H   0  0  0  0  0  0  0  0  0  0  0  0
   -2.0477   -1.8543    1.1546 C   0  0  0  0  0  0  0  0  0  0  0  0
   -1.2227   -2.3443    1.9146 O   0  0  0  0  0  0  0  0  0  0  0  0
   -1.7517   -0.8483    0.3266 N   0  0  0  0  0  0  0  0  0  0  0  0
   -2.4847   -0.5123   -0.2804 H   0  0  0  0  0  0  0  0  0  0  0  0
   -0.4117   -0.2463    0.2186 C   0  0  1  0  0  0  0  0  0  0  0  0
   -0.5287    0.7863   -0.1197 H   0  0  0  0  0  0  0  0  0  0  0  0
    0.2210   -0.1958    1.6287 C   0  0  0  0  0  0  0  0  0  0  0  0
    0.2612   -1.2121    2.0289 H   0  0  0  0  0  0  0  0  0  0  0  0
    1.2514    0.1559    1.5430 H   0  0  0  0  0  0  0  0  0  0  0  0
   -0.4971    0.6897    2.6250 C   0  0  0  0  0  0  0  0  0  0  0  0
   -0.4567    2.0705    2.6400 N   0  3  0  0  0  0  0  0  0  0  0  0
    0.0201    2.6297    1.9268 H   0  0  0  0  0  0  0  0  0  0  0  0
   -1.2129    2.5073    3.6667 C   0  0  0  0  0  0  0  0  0  0  0  0
   -1.3832    3.5508    3.9237 H   0  0  0  0  0  0  0  0  0  0  0  0
   -1.7314    1.4334    4.3043 N   0  0  0  0  0  0  0  0  0  0  0  0
   -2.3439    1.4590    5.1153 H   0  0  0  0  0  0  0  0  0  0  0  0
   -1.2916    0.2837    3.6629 C   0  0  0  0  0  0  0  0  0  0  0  0
   -1.5271   -0.7440    3.9254 H   0  0  0  0  0  0  0  0  0  0  0  0
    0.4398   -0.9601   -0.8463 C   0  0  0  0  0  0  0  0  0  0  0  0
   -0.0159   -1.9164   -1.4754 O   0  0  0  0  0  0  0  0  0  0  0  0
    1.6810   -0.4929   -1.0286 N   0  0  0  0  0  0  0  0  0  0  0  0
    1.9648    0.3017   -0.4760 H   0  0  0  0  0  0  0  0  0  0  0  0
    2.6639   -1.0459   -1.9655 C   0  0  0  0  0  0  0  0  0  0  0  0
    2.7085   -0.4323   -2.8675 H   0  0  0  0  0  0  0  0  0  0  0  0
    3.6528   -1.0577   -1.5039 H   0  0  0  0  0  0  0  0  0  0  0  0
    2.4004   -2.0672   -2.2484 H   0  0  0  0  0  0  0  0  0  0  0  0
  5  6  2  0  0  0  0
  5  7  1  0  0  0  0
  2  3  1  0  0  0  0
  2  4  1  0  0  0  0
  2  5  1  0  0  0  0
  1  2  1  0  0  0  0
 23 24  2  0  0  0  0
 23 25  1  0  0  0  0
 21 22  1  0  0  0  0
 19 20  1  0  0  0  0
 19 21  1  0  0  0  0
 17 18  1  0  0  0  0
 17 19  1  0  0  0  0
 15 16  1  0  0  0  0
 15 17  2  0  0  0  0
 14 15  1  0  0  0  0
 14 21  2  0  0  0  0
 11 12  1  0  0  0  0
 11 13  1  0  0  0  0
 11 14  1  0  0  0  0
  9 10  1  0  0  0  0
  9 11  1  0  0  0  0
  9 23  1  0  0  0  0
  7  8  1  0  0  0  0
  7  9  1  0  0  0  0
 27 28  1  0  0  0  0
 27 29  1  0  0  0  0
 27 30  1  0  0  0  0
 25 26  1  0  0  0  0
 25 27  1  0  0  0  0
M  CHG  1  15   1
M  END
$$$$
default_name
  -OEChem-01062215323D

 30 30  0     1  0  0  0  0  0999 V2000
   -3.5507   -3.2183    1.8116 H   0  0  0  0  0  0  0  0  0  0  0  0
   -3.4597   -2.3913    1.1076 C   0  0  0  0  0  0  0  0  0  0  0  0
   -4.1577   -1.6043    1.3866 H   0  0  0  0  0  0  0  0  0  0  0  0
   -3.6807   -2.7523    0.1036 H   0  0  0  0  0  0  0  0  0  0  0  0
   -2.0477   -1.8543    1.1546 C   0  0  0  0  0  0  0  0  0  0  0  0
   -1.2227   -2.3443    1.9146 O   0  0  0  0  0  0  0  0  0  0  0  0
   -1.7517   -0.8483    0.3266 N   0  0  0  0  0  0  0  0  0  0  0  0
   -2.4847   -0.5123   -0.2804 H   0  0  0  0  0  0  0  0  0  0  0  0
   -0.4117   -0.2463    0.2186 C   0  0  1  0  0  0  0  0  0  0  0  0
   -0.5287    0.7863   -0.1197 H   0  0  0  0  0  0  0  0  0  0  0  0
    0.2210   -0.1958    1.6287 C   0  0  0  0  0  0  0  0  0  0  0  0
    0.2612   -1.2121    2.0289 H   0  0  0  0  0  0  0  0  0  0  0  0
    1.2514    0.1559    1.5430 H   0  0  0  0  0  0  0  0  0  0  0  0
   -0.4971    0.6897    2.6250 C   0  0  0  0  0  0  0  0  0  0  0  0
   -0.4567    2.0705    2.6400 N   0  3  0  0  0  0  0  0  0  0  0  0
    0.0201    2.6297    1.9268 H   0  0  0  0  0  0  0  0  0  0  0  0
   -1.2129    2.5073    3.6667 C   0  0  0  0  0  0  0  0  0  0  0  0
   -1.3832    3.5508    3.9237 H   0  0  0  0  0  0  0  0  0  0  0  0
   -1.7314    1.4334    4.3043 N   0  0  0  0  0  0  0  0  0  0  0  0
   -2.3439    1.4590    5.1153 H   0  0  0  0  0  0  0  0  0  0  0  0
   -1.2916    0.2837    3.6629 C   0  0  0  0  0  0  0  0  0  0  0  0
   -1.5271   -0.7440    3.9254 H   0  0  0  0  0  0  0  0  0  0  0  0
    0.4398   -0.9601   -0.8463 C   0  0  0  0  0  0  0  0  0  0  0  0
   -0.0843   -1.7220   -1.6603 O   0  0  0  0  0  0  0  0  0  0  0  0
    1.7555   -0.7145   -0.8206 N   0  0  0  0  0  0  0  0  0  0  0  0
    2.0944   -0.0674   -0.1249 H   0  0  0  0  0  0  0  0  0  0  0  0
    2.7456   -1.3133   -1.7208 C   0  0  0  0  0  0  0  0  0  0  0  0
    3.0137   -0.6053   -2.5075 H   0  0  0  0  0  0  0  0  0  0  0  0
    3.6477   -1.5717   -1.1635 H   0  0  0  0  0  0  0  0  0  0  0  0
    2.3520   -2.2204   -2.1844 H   0  0  0  0  0  0  0  0  0  0  0  0
  5  6  2  0  0  0  0
  5  7  1  0  0  0  0
  2  3  1  0  0  0  0
  2  4  1  0  0  0  0
  2  5  1  0  0  0  0
  1  2  1  0  0  0  0
 23 24  2  0  0  0  0
 23 25  1  0  0  0  0
 21 22  1  0  0  0  0
 19 20  1  0  0  0  0
 19 21  1  0  0  0  0
 17 18  1  0  0  0  0
 17 19  1  0  0  0  0
 15 16  1  0  0  0  0
 15 17  2  0  0  0  0
 14 15  1  0  0  0  0
 14 21  2  0  0  0  0
 11 12  1  0  0  0  0
 11 13  1  0  0  0  0
 11 14  1  0  0  0  0
  9 10  1  0  0  0  0
  9 11  1  0  0  0  0
  9 23  1  0  0  0  0
  7  8  1  0  0  0  0
  7  9  1  0  0  0  0
 27 28  1  0  0  0  0
 27 29  1  0  0  0  0
 27 30  1  0  0  0  0
 25 26  1  0  0  0  0
 25 27  1  0  0  0  0
M  CHG  1  15   1
M  END
$$$$
default_name
  -OEChem-01062215323D

 30 30  0     1  0  0  0  0  0999 V2000
   -3.5507   -3.2183    1.8116 H   0  0  0  0  0  0  0  0  0  0  0  0
   -3.4597   -2.3913    1.1076 C   0  0  0  0  0  0  0  0  0  0  0  0
   -4.1577   -1.6043    1.3866 H   0  0  0  0  0  0  0  0  0  0  0  0
   -3.6807   -2.7523    0.1036 H   0  0  0  0  0  0  0  0  0  0  0  0
   -2.0477   -1.8543    1.1546 C   0  0  0  0  0  0  0  0  0  0  0  0
   -1.2227   -2.3443    1.9146 O   0  0  0  0  0  0  0  0  0  0  0  0
   -1.7517   -0.8483    0.3266 N   0  0  0  0  0  0  0  0  0  0  0  0
   -2.4847   -0.5123   -0.2804 H   0  0  0  0  0  0  0  0  0  0  0  0
   -0.4117   -0.2463    0.2186 C   0  0  1  0  0  0  0  0  0  0  0  0
   -0.5287    0.7863   -0.1197 H   0  0  0  0  0  0  0  0  0  0  0  0
    0.2210   -0.1958    1.6287 C   0  0  0  0  0  0  0  0  0  0  0  0
    0.2612   -1.2121    2.0289 H   0  0  0  0  0  0  0  0  0  0  0  0
    1.2514    0.1559    1.5430 H   0  0  0  0  0  0  0  0  0  0  0  0
   -0.4971    0.6897    2.6250 C   0  0  0  0  0  0  0  0  0  0  0  0
   -0.4567    2.0705    2.6400 N   0  3  0  0  0  0  0  0  0  0  0  0
    0.0201    2.6297    1.9268 H   0  0  0  0  0  0  0  0  0  0  0  0
   -1.2129    2.5073    3.6667 C   0  0  0  0  0  0  0  0  0  0  0  0
   -1.3832    3.5508    3.9237 H   0  0  0  0  0  0  0  0  0  0  0  0
   -1.7314    1.4334    4.3043 N   0  0  0  0  0  0  0  0  0  0  0  0
   -2.3439    1.4590    5.1153 H   0  0  0  0  0  0  0  0  0  0  0  0
   -1.2916    0.2837    3.6629 C   0  0  0  0  0  0  0  0  0  0  0  0
   -1.5271   -0.7440    3.9254 H   0  0  0  0  0  0  0  0  0  0  0  0
    0.4398   -0.9601   -0.8463 C   0  0  0  0  0  0  0  0  0  0  0  0
   -0.0934   -1.4955   -1.8194 O   0  0  0  0  0  0  0  0  0  0  0  0
    1.7628   -0.9716   -0.6424 N   0  0  0  0  0  0  0  0  0  0  0  0
    2.1113   -0.4975    0.1769 H   0  0  0  0  0  0  0  0  0  0  0  0
    2.7473   -1.6213   -1.5130 C   0  0  0  0  0  0  0  0  0  0  0  0
    3.2344   -0.8785   -2.1479 H   0  0  0  0  0  0  0  0  0  0  0  0
    3.5099   -2.1159   -0.9089 H   0  0  0  0  0  0  0  0  0  0  0  0
    2.2702   -2.3689   -2.1503 H   0  0  0  0  0  0  0  0  0  0  0  0
  5  6  2  0  0  0  0
  5  7  1  0  0  0  0
  2  3  1  0  0  0  0
  2  4  1  0  0  0  0
  2  5  1  0  0  0  0
  1  2  1  0  0  0  0
 23 24  2  0  0  0  0
 23 25  1  0  0  0  0
 21 22  1  0  0  0  0
 19 20  1  0  0  0  0
 19 21  1  0  0  0  0
 17 18  1  0  0  0  0
 17 19  1  0  0  0  0
 15 16  1  0  0  0  0
 15 17  2  0  0  0  0
 14 15  1  0  0  0  0
 14 21  2  0  0  0  0
 11 12  1  0  0  0  0
 11 13  1  0  0  0  0
 11 14  1  0  0  0  0
  9 10  1  0  0  0  0
  9 11  1  0  0  0  0
  9 23  1  0  0  0  0
  7  8  1  0  0  0  0
  7  9  1  0  0  0  0
 27 28  1  0  0  0  0
 27 29  1  0  0  0  0
 27 30  1  0  0  0  0
 25 26  1  0  0  0  0
 25 27  1  0  0  0  0
M  CHG  1  15   1
M  END
$$$$
default_name
  -OEChem-01062215323D

 30 30  0     1  0  0  0  0  0999 V2000
   -3.5507   -3.2183    1.8116 H   0  0  0  0  0  0  0  0  0  0  0  0
   -3.4597   -2.3913    1.1076 C   0  0  0  0  0  0  0  0  0  0  0  0
   -4.1577   -1.6043    1.3866 H   0  0  0  0  0  0  0  0  0  0  0  0
   -3.6807   -2.7523    0.1036 H   0  0  0  0  0  0  0  0  0  0  0  0
   -2.0477   -1.8543    1.1546 C   0  0  0  0  0  0  0  0  0  0  0  0
   -1.2227   -2.3443    1.9146 O   0  0  0  0  0  0  0  0  0  0  0  0
   -1.7517   -0.8483    0.3266 N   0  0  0  0  0  0  0  0  0  0  0  0
   -2.4847   -0.5123   -0.2804 H   0  0  0  0  0  0  0  0  0  0  0  0
   -0.4117   -0.2463    0.2186 C   0  0  1  0  0  0  0  0  0  0  0  0
   -0.5287    0.7863   -0.1197 H   0  0  0  0  0  0  0  0  0  0  0  0
    0.2210   -0.1958    1.6287 C   0  0  0  0  0  0  0  0  0  0  0  0
    0.2612   -1.2121    2.0289 H   0  0  0  0  0  0  0  0  0  0  0  0
    1.2514    0.1559    1.5430 H   0  0  0  0  0  0  0  0  0  0  0  0
   -0.4971    0.6897    2.6250 C   0  0  0  0  0  0  0  0  0  0  0  0
   -0.4567    2.0705    2.6400 N   0  3  0  0  0  0  0  0  0  0  0  0
    0.0201    2.6297    1.9268 H   0  0  0  0  0  0  0  0  0  0  0  0
   -1.2129    2.5073    3.6667 C   0  0  0  0  0  0  0  0  0  0  0  0
   -1.3832    3.5508    3.9237 H   0  0  0  0  0  0  0  0  0  0  0  0
   -1.7314    1.4334    4.3043 N   0  0  0  0  0  0  0  0  0  0  0  0
   -2.3439    1.4590    5.1153 H   0  0  0  0  0  0  0  0  0  0  0  0
   -1.2916    0.2837    3.6629 C   0  0  0  0  0  0  0  0  0  0  0  0
   -1.5271   -0.7440    3.9254 H   0  0  0  0  0  0  0  0  0  0  0  0
    0.4398   -0.9601   -0.8463 C   0  0  0  0  0  0  0  0  0  0  0  0
   -0.0425   -1.2524   -1.9417 O   0  0  0  0  0  0  0  0  0  0  0  0
    1.7024   -1.2468   -0.5063 N   0  0  0  0  0  0  0  0  0  0  0  0
    2.0144   -0.9592    0.4088 H   0  0  0  0  0  0  0  0  0  0  0  0
    2.6688   -1.9489   -1.3562 C   0  0  0  0  0  0  0  0  0  0  0  0
    3.3554   -1.2335   -1.8132 H   0  0  0  0  0  0  0  0  0  0  0  0
    3.2487   -2.6534   -0.7575 H   0  0  0  0  0  0  0  0  0  0  0  0
    2.1604   -2.5026   -2.1484 H   0  0  0  0  0  0  0  0  0  0  0  0
  5  6  2  0  0  0  0
  5  7  1  0  0  0  0
  2  3  1  0  0  0  0
  2  4  1  0  0  0  0
  2  5  1  0  0  0  0
  1  2  1  0  0  0  0
 23 24  2  0  0  0  0
 23 25  1  0  0  0  0
 21 22  1  0  0  0  0
 19 20  1  0  0  0  0
 19 21  1  0  0  0  0
 17 18  1  0  0  0  0
 17 19  1  0  0  0  0
 15 16  1  0  0  0  0
 15 17  2  0  0  0  0
 14 15  1  0  0  0  0
 14 21  2  0  0  0  0
 11 12  1  0  0  0  0
 11 13  1  0  0  0  0
 11 14  1  0  0  0  0
  9 10  1  0  0  0  0
  9 11  1  0  0  0  0
  9 23  1  0  0  0  0
  7  8  1  0  0  0  0
  7  9  1  0  0  0  0
 27 28  1  0  0  0  0
 27 29  1  0  0  0  0
 27 30  1  0  0  0  0
 25 26  1  0  0  0  0
 25 27  1  0  0  0  0
M  CHG  1  15   1
M  END
$$$$
default_name
  -OEChem-01062215323D

 30 30  0     1  0  0  0  0  0999 V2000
   -3.5507   -3.2183    1.8116 H   0  0  0  0  0  0  0  0  0  0  0  0
   -3.4597   -2.3913    1.1076 C   0  0  0  0  0  0  0  0  0  0  0  0
   -4.1577   -1.6043    1.3866 H   0  0  0  0  0  0  0  0  0  0  0  0
   -3.6807   -2.7523    0.1036 H   0  0  0  0  0  0  0  0  0  0  0  0
   -2.0477   -1.8543    1.1546 C   0  0  0  0  0  0  0  0  0  0  0  0
   -1.2227   -2.3443    1.9146 O   0  0  0  0  0  0  0  0  0  0  0  0
   -1.7517   -0.8483    0.3266 N   0  0  0  0  0  0  0  0  0  0  0  0
   -2.4847   -0.5123   -0.2804 H   0  0  0  0  0  0  0  0  0  0  0  0
   -0.4117   -0.2463    0.2186 C   0  0  1  0  0  0  0  0  0  0  0  0
   -0.5287    0.7863   -0.1197 H   0  0  0  0  0  0  0  0  0  0  0  0
    0.2210   -0.1958    1.6287 C   0  0  0  0  0  0  0  0  0  0  0  0
    0.2612   -1.2121    2.0289 H   0  0  0  0  0  0  0  0  0  0  0  0
    1.2514    0.1559    1.5430 H   0  0  0  0  0  0  0  0  0  0  0  0
   -0.4971    0.6897    2.6250 C   0  0  0  0  0  0  0  0  0  0  0  0
   -0.4567    2.0705    2.6400 N   0  3  0  0  0  0  0  0  0  0  0  0
    0.0201    2.6297    1.9268 H   0  0  0  0  0  0  0  0  0  0  0  0
   -1.2129    2.5073    3.6667 C   0  0  0  0  0  0  0  0  0  0  0  0
   -1.3832    3.5508    3.9237 H   0  0  0  0  0  0  0  0  0  0  0  0
   -1.7314    1.4334    4.3043 N   0  0  0  0  0  0  0  0  0  0  0  0
   -2.3439    1.4590    5.1153 H   0  0  0  0  0  0  0  0  0  0  0  0
   -1.2916    0.2837    3.6629 C   0  0  0  0  0  0  0  0  0  0  0  0
   -1.5271   -0.7440    3.9254 H   0  0  0  0  0  0  0  0  0  0  0  0
    0.4398   -0.9601   -0.8463 C   0  0  0  0  0  0  0  0  0  0  0  0
    0.0649   -1.0091   -2.0189 O   0  0  0  0  0  0  0  0  0  0  0  0
    1.5785   -1.5212   -0.4214 N   0  0  0  0  0  0  0  0  0  0  0  0
    1.8103   -1.4210    0.5551 H   0  0  0  0  0  0  0  0  0  0  0  0
    2.5155   -2.2737   -1.2611 C   0  0  0  0  0  0  0  0  0  0  0  0
    3.3686   -1.6460   -1.5263 H   0  0  0  0  0  0  0  0  0  0  0  0
    2.8820   -3.1475   -0.7195 H   0  0  0  0  0  0  0  0  0  0  0  0
    2.0303   -2.6123   -2.1789 H   0  0  0  0  0  0  0  0  0  0  0  0
  5  6  2  0  0  0  0
  5  7  1  0  0  0  0
  2  3  1  0  0  0  0
  2  4  1  0  0  0  0
  2  5  1  0  0  0  0
  1  2  1  0  0  0  0
 23 24  2  0  0  0  0
 23 25  1  0  0  0  0
 21 22  1  0  0  0  0
 19 20  1  0  0  0  0
 19 21  1  0  0  0  0
 17 18  1  0  0  0  0
 17 19  1  0  0  0  0
 15 16  1  0  0  0  0
 15 17  2  0  0  0  0
 14 15  1  0  0  0  0
 14 21  2  0  0  0  0
 11 12  1  0  0  0  0
 11 13  1  0  0  0  0
 11 14  1  0  0  0  0
  9 10  1  0  0  0  0
  9 11  1  0  0  0  0
  9 23  1  0  0  0  0
  7  8  1  0  0  0  0
  7  9  1  0  0  0  0
 27 28  1  0  0  0  0
 27 29  1  0  0  0  0
 27 30  1  0  0  0  0
 25 26  1  0  0  0  0
 25 27  1  0  0  0  0
M  CHG  1  15   1
M  END
$$$$
default_name
  -OEChem-01062215323D

 30 30  0     1  0  0  0  0  0999 V2000
   -3.5507   -3.2183    1.8116 H   0  0  0  0  0  0  0  0  0  0  0  0
   -3.4597   -2.3913    1.1076 C   0  0  0  0  0  0  0  0  0  0  0  0
   -4.1577   -1.6043    1.3866 H   0  0  0  0  0  0  0  0  0  0  0  0
   -3.6807   -2.7523    0.1036 H   0  0  0  0  0  0  0  0  0  0  0  0
   -2.0477   -1.8543    1.1546 C   0  0  0  0  0  0  0  0  0  0  0  0
   -1.2227   -2.3443    1.9146 O   0  0  0  0  0  0  0  0  0  0  0  0
   -1.7517   -0.8483    0.3266 N   0  0  0  0  0  0  0  0  0  0  0  0
   -2.4847   -0.5123   -0.2804 H   0  0  0  0  0  0  0  0  0  0  0  0
   -0.4117   -0.2463    0.2186 C   0  0  1  0  0  0  0  0  0  0  0  0
   -0.5287    0.7863   -0.1197 H   0  0  0  0  0  0  0  0  0  0  0  0
    0.2210   -0.1958    1.6287 C   0  0  0  0  0  0  0  0  0  0  0  0
    0.2612   -1.2121    2.0289 H   0  0  0  0  0  0  0  0  0  0  0  0
    1.2514    0.1559    1.5430 H   0  0  0  0  0  0  0  0  0  0  0  0
   -0.4971    0.6897    2.6250 C   0  0  0  0  0  0  0  0  0  0  0  0
   -0.4567    2.0705    2.6400 N   0  3  0  0  0  0  0  0  0  0  0  0
    0.0201    2.6297    1.9268 H   0  0  0  0  0  0  0  0  0  0  0  0
   -1.2129    2.5073    3.6667 C   0  0  0  0  0  0  0  0  0  0  0  0
   -1.3832    3.5508    3.9237 H   0  0  0  0  0  0  0  0  0  0  0  0
   -1.7314    1.4334    4.3043 N   0  0  0  0  0  0  0  0  0  0  0  0
   -2.3439    1.4590    5.1153 H   0  0  0  0  0  0  0  0  0  0  0  0
   -1.2916    0.2837    3.6629 C   0  0  0  0  0  0  0  0  0  0  0  0
   -1.5271   -0.7440    3.9254 H   0  0  0  0  0  0  0  0  0  0  0  0
    0.4398   -0.9601   -0.8463 C   0  0  0  0  0  0  0  0  0  0  0  0
    0.2215   -0.7823   -2.0457 O   0  0  0  0  0  0  0  0  0  0  0  0
    1.3994   -1.7763   -0.3936 N   0  0  0  0  0  0  0  0  0  0  0  0
    1.5129   -1.8514    0.6059 H   0  0  0  0  0  0  0  0  0  0  0  0
    2.2979   -2.5736   -1.2341 C   0  0  0  0  0  0  0  0  0  0  0  0
    3.2730   -2.0878   -1.3065 H   0  0  0  0  0  0  0  0  0  0  0  0
    2.4347   -3.5645   -0.7976 H   0  0  0  0  0  0  0  0  0  0  0  0
    1.8885   -2.6907   -2.2398 H   0  0  0  0  0  0  0  0  0  0  0  0
  5  6  2  0  0  0  0
  5  7  1  0  0  0  0
  2  3  1  0  0  0  0
  2  4  1  0  0  0  0
  2  5  1  0  0  0  0
  1  2  1  0  0  0  0
 23 24  2  0  0  0  0
 23 25  1  0  0  0  0
 21 22  1  0  0  0  0
 19 20  1  0  0  0  0
 19 21  1  0  0  0  0
 17 18  1  0  0  0  0
 17 19  1  0  0  0  0
 15 16  1  0  0  0  0
 15 17  2  0  0  0  0
 14 15  1  0  0  0  0
 14 21  2  0  0  0  0
 11 12  1  0  0  0  0
 11 13  1  0  0  0  0
 11 14  1  0  0  0  0
  9 10  1  0  0  0  0
  9 11  1  0  0  0  0
  9 23  1  0  0  0  0
  7  8  1  0  0  0  0
  7  9  1  0  0  0  0
 27 28  1  0  0  0  0
 27 29  1  0  0  0  0
 27 30  1  0  0  0  0
 25 26  1  0  0  0  0
 25 27  1  0  0  0  0
M  CHG  1  15   1
M  END
$$$$
default_name
  -OEChem-01062215323D

 30 30  0     1  0  0  0  0  0999 V2000
   -3.5507   -3.2183    1.8116 H   0  0  0  0  0  0  0  0  0  0  0  0
   -3.4597   -2.3913    1.1076 C   0  0  0  0  0  0  0  0  0  0  0  0
   -4.1577   -1.6043    1.3866 H   0  0  0  0  0  0  0  0  0  0  0  0
   -3.6807   -2.7523    0.1036 H   0  0  0  0  0  0  0  0  0  0  0  0
   -2.0477   -1.8543    1.1546 C   0  0  0  0  0  0  0  0  0  0  0  0
   -1.2227   -2.3443    1.9146 O   0  0  0  0  0  0  0  0  0  0  0  0
   -1.7517   -0.8483    0.3266 N   0  0  0  0  0  0  0  0  0  0  0  0
   -2.4847   -0.5123   -0.2804 H   0  0  0  0  0  0  0  0  0  0  0  0
   -0.4117   -0.2463    0.2186 C   0  0  1  0  0  0  0  0  0  0  0  0
   -0.5287    0.7863   -0.1197 H   0  0  0  0  0  0  0  0  0  0  0  0
    0.2210   -0.1958    1.6287 C   0  0  0  0  0  0  0  0  0  0  0  0
    0.2612   -1.2121    2.0289 H   0  0  0  0  0  0  0  0  0  0  0  0
    1.2514    0.1559    1.5430 H   0  0  0  0  0  0  0  0  0  0  0  0
   -0.4971    0.6897    2.6250 C   0  0  0  0  0  0  0  0  0  0  0  0
   -0.4567    2.0705    2.6400 N   0  3  0  0  0  0  0  0  0  0  0  0
    0.0201    2.6297    1.9268 H   0  0  0  0  0  0  0  0  0  0  0  0
   -1.2129    2.5073    3.6667 C   0  0  0  0  0  0  0  0  0  0  0  0
   -1.3832    3.5508    3.9237 H   0  0  0  0  0  0  0  0  0  0  0  0
   -1.7314    1.4334    4.3043 N   0  0  0  0  0  0  0  0  0  0  0  0
   -2.3439    1.4590    5.1153 H   0  0  0  0  0  0  0  0  0  0  0  0
   -1.2916    0.2837    3.6629 C   0  0  0  0  0  0  0  0  0  0  0  0
   -1.5271   -0.7440    3.9254 H   0  0  0  0  0  0  0  0  0  0  0  0
    0.4398   -0.9601   -0.8463 C   0  0  0  0  0  0  0  0  0  0  0  0
    0.4165   -0.5874   -2.0204 O   0  0  0  0  0  0  0  0  0  0  0  0
    1.1774   -1.9946   -0.4248 N   0  0  0  0  0  0  0  0  0  0  0  0
    1.1424   -2.2212    0.5575 H   0  0  0  0  0  0  0  0  0  0  0  0
    2.0307   -2.8282   -1.2771 C   0  0  0  0  0  0  0  0  0  0  0  0
    3.0751   -2.5290   -1.1690 H   0  0  0  0  0  0  0  0  0  0  0  0
    1.9374   -3.8760   -0.9864 H   0  0  0  0  0  0  0  0  0  0  0  0
    1.7449   -2.7322   -2.3267 H   0  0  0  0  0  0  0  0  0  0  0  0
  5  6  2  0  0  0  0
  5  7  1  0  0  0  0
  2  3  1  0  0  0  0
  2  4  1  0  0  0  0
  2  5  1  0  0  0  0
  1  2  1  0  0  0  0
 23 24  2  0  0  0  0
 23 25  1  0  0  0  0
 21 22  1  0  0  0  0
 19 20  1  0  0  0  0
 19 21  1  0  0  0  0
 17 18  1  0  0  0  0
 17 19  1  0  0  0  0
 15 16  1  0  0  0  0
 15 17  2  0  0  0  0
 14 15  1  0  0  0  0
 14 21  2  0  0  0  0
 11 12  1  0  0  0  0
 11 13  1  0  0  0  0
 11 14  1  0  0  0  0
  9 10  1  0  0  0  0
  9 11  1  0  0  0  0
  9 23  1  0  0  0  0
  7  8  1  0  0  0  0
  7  9  1  0  0  0  0
 27 28  1  0  0  0  0
 27 29  1  0  0  0  0
 27 30  1  0  0  0  0
 25 26  1  0  0  0  0
 25 27  1  0  0  0  0
M  CHG  1  15   1
M  END
$$$$
default_name
  -OEChem-01062215323D

 30 30  0     1  0  0  0  0  0999 V2000
   -3.5507   -3.2183    1.8116 H   0  0  0  0  0  0  0  0  0  0  0  0
   -3.4597   -2.3913    1.1076 C   0  0  0  0  0  0  0  0  0  0  0  0
   -4.1577   -1.6043    1.3866 H   0  0  0  0  0  0  0  0  0  0  0  0
   -3.6807   -2.7523    0.1036 H   0  0  0  0  0  0  0  0  0  0  0  0
   -2.0477   -1.8543    1.1546 C   0  0  0  0  0  0  0  0  0  0  0  0
   -1.2227   -2.3443    1.9146 O   0  0  0  0  0  0  0  0  0  0  0  0
   -1.7517   -0.8483    0.3266 N   0  0  0  0  0  0  0  0  0  0  0  0
   -2.4847   -0.5123   -0.2804 H   0  0  0  0  0  0  0  0  0  0  0  0
   -0.4117   -0.2463    0.2186 C   0  0  1  0  0  0  0  0  0  0  0  0
   -0.5287    0.7863   -0.1197 H   0  0  0  0  0  0  0  0  0  0  0  0
    0.2210   -0.1958    1.6287 C   0  0  0  0  0  0  0  0  0  0  0  0
    0.2612   -1.2121    2.0289 H   0  0  0  0  0  0  0  0  0  0  0  0
    1.2514    0.1559    1.5430 H   0  0  0  0  0  0  0  0  0  0  0  0
   -0.4971    0.6897    2.6250 C   0  0  0  0  0  0  0  0  0  0  0  0
   -0.4567    2.0705    2.6400 N   0  3  0  0  0  0  0  0  0  0  0  0
    0.0201    2.6297    1.9268 H   0  0  0  0  0  0  0  0  0  0  0  0
   -1.2129    2.5073    3.6667 C   0  0  0  0  0  0  0  0  0  0  0  0
   -1.3832    3.5508    3.9237 H   0  0  0  0  0  0  0  0  0  0  0  0
   -1.7314    1.4334    4.3043 N   0  0  0  0  0  0  0  0  0  0  0  0
   -2.3439    1.4590    5.1153 H   0  0  0  0  0  0  0  0  0  0  0  0
   -1.2916    0.2837    3.6629 C   0  0  0  0  0  0  0  0  0  0  0  0
   -1.5271   -0.7440    3.9254 H   0  0  0  0  0  0  0  0  0  0  0  0
    0.4398   -0.9601   -0.8463 C   0  0  0  0  0  0  0  0  0  0  0  0
    0.6368   -0.4378   -1.9446 O   0  0  0  0  0  0  0  0  0  0  0  0
    0.9276   -2.1613   -0.5128 N   0  0  0  0  0  0  0  0  0  0  0  0
    0.7241   -2.5051    0.4134 H   0  0  0  0  0  0  0  0  0  0  0  0
    1.7321   -3.0201   -1.3872 C   0  0  0  0  0  0  0  0  0  0  0  0
    2.7885   -2.9394   -1.1232 H   0  0  0  0  0  0  0  0  0  0  0  0
    1.4239   -4.0608   -1.2731 H   0  0  0  0  0  0  0  0  0  0  0  0
    1.6092   -2.7342   -2.4339 H   0  0  0  0  0  0  0  0  0  0  0  0
  5  6  2  0  0  0  0
  5  7  1  0  0  0  0
  2  3  1  0  0  0  0
  2  4  1  0  0  0  0
  2  5  1  0  0  0  0
  1  2  1  0  0  0  0
 23 24  2  0  0  0  0
 23 25  1  0  0  0  0
 21 22  1  0  0  0  0
 19 20  1  0  0  0  0
 19 21  1  0  0  0  0
 17 18  1  0  0  0  0
 17 19  1  0  0  0  0
 15 16  1  0  0  0  0
 15 17  2  0  0  0  0
 14 15  1  0  0  0  0
 14 21  2  0  0  0  0
 11 12  1  0  0  0  0
 11 13  1  0  0  0  0
 11 14  1  0  0  0  0
  9 10  1  0  0  0  0
  9 11  1  0  0  0  0
  9 23  1  0  0  0  0
  7  8  1  0  0  0  0
  7  9  1  0  0  0  0
 27 28  1  0  0  0  0
 27 29  1  0  0  0  0
 27 30  1  0  0  0  0
 25 26  1  0  0  0  0
 25 27  1  0  0  0  0
M  CHG  1  15   1
M  END
$$$$
default_name
  -OEChem-01062215323D

 30 30  0     1  0  0  0  0  0999 V2000
   -3.5507   -3.2183    1.8116 H   0  0  0  0  0  0  0  0  0  0  0  0
   -3.4597   -2.3913    1.1076 C   0  0  0  0  0  0  0  0  0  0  0  0
   -4.1577   -1.6043    1.3866 H   0  0  0  0  0  0  0  0  0  0  0  0
   -3.6807   -2.7523    0.1036 H   0  0  0  0  0  0  0  0  0  0  0  0
   -2.0477   -1.8543    1.1546 C   0  0  0  0  0  0  0  0  0  0  0  0
   -1.2227   -2.3443    1.9146 O   0  0  0  0  0  0  0  0  0  0  0  0
   -1.7517   -0.8483    0.3266 N   0  0  0  0  0  0  0  0  0  0  0  0
   -2.4847   -0.5123   -0.2804 H   0  0  0  0  0  0  0  0  0  0  0  0
   -0.4117   -0.2463    0.2186 C   0  0  1  0  0  0  0  0  0  0  0  0
   -0.5287    0.7863   -0.1197 H   0  0  0  0  0  0  0  0  0  0  0  0
    0.2210   -0.1958    1.6287 C   0  0  0  0  0  0  0  0  0  0  0  0
    0.2612   -1.2121    2.0289 H   0  0  0  0  0  0  0  0  0  0  0  0
    1.2514    0.1559    1.5430 H   0  0  0  0  0  0  0  0  0  0  0  0
   -0.4971    0.6897    2.6250 C   0  0  0  0  0  0  0  0  0  0  0  0
   -0.4567    2.0705    2.6400 N   0  3  0  0  0  0  0  0  0  0  0  0
    0.0201    2.6297    1.9268 H   0  0  0  0  0  0  0  0  0  0  0  0
   -1.2129    2.5073    3.6667 C   0  0  0  0  0  0  0  0  0  0  0  0
   -1.3832    3.5508    3.9237 H   0  0  0  0  0  0  0  0  0  0  0  0
   -1.7314    1.4334    4.3043 N   0  0  0  0  0  0  0  0  0  0  0  0
   -2.3439    1.4590    5.1153 H   0  0  0  0  0  0  0  0  0  0  0  0
   -1.2916    0.2837    3.6629 C   0  0  0  0  0  0  0  0  0  0  0  0
   -1.5271   -0.7440    3.9254 H   0  0  0  0  0  0  0  0  0  0  0  0
    0.4398   -0.9601   -0.8463 C   0  0  0  0  0  0  0  0  0  0  0  0
    0.8673   -0.3435   -1.8235 O   0  0  0  0  0  0  0  0  0  0  0  0
    0.6671   -2.2649   -0.6516 N   0  0  0  0  0  0  0  0  0  0  0  0
    0.2865   -2.6838    0.1833 H   0  0  0  0  0  0  0  0  0  0  0  0
    1.4226   -3.1362   -1.5568 C   0  0  0  0  0  0  0  0  0  0  0  0
    2.4326   -3.2910   -1.1720 H   0  0  0  0  0  0  0  0  0  0  0  0
    0.9292   -4.1063   -1.6381 H   0  0  0  0  0  0  0  0  0  0  0  0
    1.4906   -2.6964   -2.5541 H   0  0  0  0  0  0  0  0  0  0  0  0
  5  6  2  0  0  0  0
  5  7  1  0  0  0  0
  2  3  1  0  0  0  0
  2  4  1  0  0  0  0
  2  5  1  0  0  0  0
  1  2  1  0  0  0  0
 23 24  2  0  0  0  0
 23 25  1  0  0  0  0
 21 22  1  0  0  0  0
 19 20  1  0  0  0  0
 19 21  1  0  0  0  0
 17 18  1  0  0  0  0
 17 19  1  0  0  0  0
 15 16  1  0  0  0  0
 15 17  2  0  0  0  0
 14 15  1  0  0  0  0
 14 21  2  0  0  0  0
 11 12  1  0  0  0  0
 11 13  1  0  0  0  0
 11 14  1  0  0  0  0
  9 10  1  0  0  0  0
  9 11  1  0  0  0  0
  9 23  1  0  0  0  0
  7  8  1  0  0  0  0
  7  9  1  0  0  0  0
 27 28  1  0  0  0  0
 27 29  1  0  0  0  0
 27 30  1  0  0  0  0
 25 26  1  0  0  0  0
 25 27  1  0  0  0  0
M  CHG  1  15   1
M  END
$$$$
default_name
  -OEChem-01062215323D

 30 30  0     1  0  0  0  0  0999 V2000
   -3.5507   -3.2183    1.8116 H   0  0  0  0  0  0  0  0  0  0  0  0
   -3.4597   -2.3913    1.1076 C   0  0  0  0  0  0  0  0  0  0  0  0
   -4.1577   -1.6043    1.3866 H   0  0  0  0  0  0  0  0  0  0  0  0
   -3.6807   -2.7523    0.1036 H   0  0  0  0  0  0  0  0  0  0  0  0
   -2.0477   -1.8543    1.1546 C   0  0  0  0  0  0  0  0  0  0  0  0
   -1.2227   -2.3443    1.9146 O   0  0  0  0  0  0  0  0  0  0  0  0
   -1.7517   -0.8483    0.3266 N   0  0  0  0  0  0  0  0  0  0  0  0
   -2.4847   -0.5123   -0.2804 H   0  0  0  0  0  0  0  0  0  0  0  0
   -0.4117   -0.2463    0.2186 C   0  0  1  0  0  0  0  0  0  0  0  0
   -0.5287    0.7863   -0.1197 H   0  0  0  0  0  0  0  0  0  0  0  0
    0.2210   -0.1958    1.6287 C   0  0  0  0  0  0  0  0  0  0  0  0
    0.2612   -1.2121    2.0289 H   0  0  0  0  0  0  0  0  0  0  0  0
    1.2514    0.1559    1.5430 H   0  0  0  0  0  0  0  0  0  0  0  0
   -0.4971    0.6897    2.6250 C   0  0  0  0  0  0  0  0  0  0  0  0
   -0.4567    2.0705    2.6400 N   0  3  0  0  0  0  0  0  0  0  0  0
    0.0201    2.6297    1.9268 H   0  0  0  0  0  0  0  0  0  0  0  0
   -1.2129    2.5073    3.6667 C   0  0  0  0  0  0  0  0  0  0  0  0
   -1.3832    3.5508    3.9237 H   0  0  0  0  0  0  0  0  0  0  0  0
   -1.7314    1.4334    4.3043 N   0  0  0  0  0  0  0  0  0  0  0  0
   -2.3439    1.4590    5.1153 H   0  0  0  0  0  0  0  0  0  0  0  0
   -1.2916    0.2837    3.6629 C   0  0  0  0  0  0  0  0  0  0  0  0
   -1.5271   -0.7440    3.9254 H   0  0  0  0  0  0  0  0  0  0  0  0
    0.4398   -0.9601   -0.8463 C   0  0  0  0  0  0  0  0  0  0  0  0
    1.0923   -0.3110   -1.6654 O   0  0  0  0  0  0  0  0  0  0  0  0
    0.4135   -2.2984   -0.8319 N   0  0  0  0  0  0  0  0  0  0  0  0
   -0.1405   -2.7451   -0.1171 H   0  0  0  0  0  0  0  0  0  0  0  0
    1.1232   -3.1687   -1.7744 C   0  0  0  0  0  0  0  0  0  0  0  0
    2.0318   -3.5599   -1.3123 H   0  0  0  0  0  0  0  0  0  0  0  0
    0.4870   -4.0094   -2.0566 H   0  0  0  0  0  0  0  0  0  0  0  0
    1.3972   -2.6215   -2.6789 H   0  0  0  0  0  0  0  0  0  0  0  0
  5  6  2  0  0  0  0
  5  7  1  0  0  0  0
  2  3  1  0  0  0  0
  2  4  1  0  0  0  0
  2  5  1  0  0  0  0
  1  2  1  0  0  0  0
 23 24  2  0  0  0  0
 23 25  1  0  0  0  0
 21 22  1  0  0  0  0
 19 20  1  0  0  0  0
 19 21  1  0  0  0  0
 17 18  1  0  0  0  0
 17 19  1  0  0  0  0
 15 16  1  0  0  0  0
 15 17  2  0  0  0  0
 14 15  1  0  0  0  0
 14 21  2  0  0  0  0
 11 12  1  0  0  0  0
 11 13  1  0  0  0  0
 11 14  1  0  0  0  0
  9 10  1  0  0  0  0
  9 11  1  0  0  0  0
  9 23  1  0  0  0  0
  7  8  1  0  0  0  0
  7  9  1  0  0  0  0
 27 28  1  0  0  0  0
 27 29  1  0  0  0  0
 27 30  1  0  0  0  0
 25 26  1  0  0  0  0
 25 27  1  0  0  0  0
M  CHG  1  15   1
M  END
$$$$
default_name
  -OEChem-01062215323D

 30 30  0     1  0  0  0  0  0999 V2000
   -3.5507   -3.2183    1.8116 H   0  0  0  0  0  0  0  0  0  0  0  0
   -3.4597   -2.3913    1.1076 C   0  0  0  0  0  0  0  0  0  0  0  0
   -4.1577   -1.6043    1.3866 H   0  0  0  0  0  0  0  0  0  0  0  0
   -3.6807   -2.7523    0.1036 H   0  0  0  0  0  0  0  0  0  0  0  0
   -2.0477   -1.8543    1.1546 C   0  0  0  0  0  0  0  0  0  0  0  0
   -1.2227   -2.3443    1.9146 O   0  0  0  0  0  0  0  0  0  0  0  0
   -1.7517   -0.8483    0.3266 N   0  0  0  0  0  0  0  0  0  0  0  0
   -2.4847   -0.5123   -0.2804 H   0  0  0  0  0  0  0  0  0  0  0  0
   -0.4117   -0.2463    0.2186 C   0  0  1  0  0  0  0  0  0  0  0  0
   -0.5287    0.7863   -0.1197 H   0  0  0  0  0  0  0  0  0  0  0  0
    0.2210   -0.1958    1.6287 C   0  0  0  0  0  0  0  0  0  0  0  0
    0.2612   -1.2121    2.0289 H   0  0  0  0  0  0  0  0  0  0  0  0
    1.2514    0.1559    1.5430 H   0  0  0  0  0  0  0  0  0  0  0  0
   -0.4971    0.6897    2.6250 C   0  0  0  0  0  0  0  0  0  0  0  0
   -0.4567    2.0705    2.6400 N   0  3  0  0  0  0  0  0  0  0  0  0
    0.0201    2.6297    1.9268 H   0  0  0  0  0  0  0  0  0  0  0  0
   -1.2129    2.5073    3.6667 C   0  0  0  0  0  0  0  0  0  0  0  0
   -1.3832    3.5508    3.9237 H   0  0  0  0  0  0  0  0  0  0  0  0
   -1.7314    1.4334    4.3043 N   0  0  0  0  0  0  0  0  0  0  0  0
   -2.3439    1.4590    5.1153 H   0  0  0  0  0  0  0  0  0  0  0  0
   -1.2916    0.2837    3.6629 C   0  0  0  0  0  0  0  0  0  0  0  0
   -1.5271   -0.7440    3.9254 H   0  0  0  0  0  0  0  0  0  0  0  0
    0.4398   -0.9601   -0.8463 C   0  0  0  0  0  0  0  0  0  0  0  0
    1.2964   -0.3426   -1.4810 O   0  0  0  0  0  0  0  0  0  0  0  0
    0.1842   -2.2596   -1.0412 N   0  0  0  0  0  0  0  0  0  0  0  0
   -0.5279   -2.6848   -0.4672 H   0  0  0  0  0  0  0  0  0  0  0  0
    0.8543   -3.1152   -2.0252 C   0  0  0  0  0  0  0  0  0  0  0  0
    1.6132   -3.7278   -1.5343 H   0  0  0  0  0  0  0  0  0  0  0  0
    0.1275   -3.7766   -2.5000 H   0  0  0  0  0  0  0  0  0  0  0  0
    1.3354   -2.5146   -2.8000 H   0  0  0  0  0  0  0  0  0  0  0  0
  5  6  2  0  0  0  0
  5  7  1  0  0  0  0
  2  3  1  0  0  0  0
  2  4  1  0  0  0  0
  2  5  1  0  0  0  0
  1  2  1  0  0  0  0
 23 24  2  0  0  0  0
 23 25  1  0  0  0  0
 21 22  1  0  0  0  0
 19 20  1  0  0  0  0
 19 21  1  0  0  0  0
 17 18  1  0  0  0  0
 17 19  1  0  0  0  0
 15 16  1  0  0  0  0
 15 17  2  0  0  0  0
 14 15  1  0  0  0  0
 14 21  2  0  0  0  0
 11 12  1  0  0  0  0
 11 13  1  0  0  0  0
 11 14  1  0  0  0  0
  9 10  1  0  0  0  0
  9 11  1  0  0  0  0
  9 23  1  0  0  0  0
  7  8  1  0  0  0  0
  7  9  1  0  0  0  0
 27 28  1  0  0  0  0
 27 29  1  0  0  0  0
 27 30  1  0  0  0  0
 25 26  1  0  0  0  0
 25 27  1  0  0  0  0
M  CHG  1  15   1
M  END
$$$$
default_name
  -OEChem-01062215323D

 30 30  0     1  0  0  0  0  0999 V2000
   -3.5507   -3.2183    1.8116 H   0  0  0  0  0  0  0  0  0  0  0  0
   -3.4597   -2.3913    1.1076 C   0  0  0  0  0  0  0  0  0  0  0  0
   -4.1577   -1.6043    1.3866 H   0  0  0  0  0  0  0  0  0  0  0  0
   -3.6807   -2.7523    0.1036 H   0  0  0  0  0  0  0  0  0  0  0  0
   -2.0477   -1.8543    1.1546 C   0  0  0  0  0  0  0  0  0  0  0  0
   -1.2227   -2.3443    1.9146 O   0  0  0  0  0  0  0  0  0  0  0  0
   -1.7517   -0.8483    0.3266 N   0  0  0  0  0  0  0  0  0  0  0  0
   -2.4847   -0.5123   -0.2804 H   0  0  0  0  0  0  0  0  0  0  0  0
   -0.4117   -0.2463    0.2186 C   0  0  1  0  0  0  0  0  0  0  0  0
   -0.5287    0.7863   -0.1197 H   0  0  0  0  0  0  0  0  0  0  0  0
    0.2210   -0.1958    1.6287 C   0  0  0  0  0  0  0  0  0  0  0  0
    0.2612   -1.2121    2.0289 H   0  0  0  0  0  0  0  0  0  0  0  0
    1.2514    0.1559    1.5430 H   0  0  0  0  0  0  0  0  0  0  0  0
   -0.4971    0.6897    2.6250 C   0  0  0  0  0  0  0  0  0  0  0  0
   -0.4567    2.0705    2.6400 N   0  3  0  0  0  0  0  0  0  0  0  0
    0.0201    2.6297    1.9268 H   0  0  0  0  0  0  0  0  0  0  0  0
   -1.2129    2.5073    3.6667 C   0  0  0  0  0  0  0  0  0  0  0  0
   -1.3832    3.5508    3.9237 H   0  0  0  0  0  0  0  0  0  0  0  0
   -1.7314    1.4334    4.3043 N   0  0  0  0  0  0  0  0  0  0  0  0
   -2.3439    1.4590    5.1153 H   0  0  0  0  0  0  0  0  0  0  0  0
   -1.2916    0.2837    3.6629 C   0  0  0  0  0  0  0  0  0  0  0  0
   -1.5271   -0.7440    3.9254 H   0  0  0  0  0  0  0  0  0  0  0  0
    0.4398   -0.9601   -0.8463 C   0  0  0  0  0  0  0  0  0  0  0  0
    1.4658   -0.4361   -1.2829 O   0  0  0  0  0  0  0  0  0  0  0  0
   -0.0052   -2.1511   -1.2654 N   0  0  0  0  0  0  0  0  0  0  0  0
   -0.8493   -2.5070   -0.8433 H   0  0  0  0  0  0  0  0  0  0  0  0
    0.6343   -2.9795   -2.2921 C   0  0  0  0  0  0  0  0  0  0  0  0
    1.2056   -3.7832   -1.8231 H   0  0  0  0  0  0  0  0  0  0  0  0
   -0.1248   -3.4239   -2.9382 H   0  0  0  0  0  0  0  0  0  0  0  0
    1.3095   -2.3828   -2.9091 H   0  0  0  0  0  0  0  0  0  0  0  0
  5  6  2  0  0  0  0
  5  7  1  0  0  0  0
  2  3  1  0  0  0  0
  2  4  1  0  0  0  0
  2  5  1  0  0  0  0
  1  2  1  0  0  0  0
 23 24  2  0  0  0  0
 23 25  1  0  0  0  0
 21 22  1  0  0  0  0
 19 20  1  0  0  0  0
 19 21  1  0  0  0  0
 17 18  1  0  0  0  0
 17 19  1  0  0  0  0
 15 16  1  0  0  0  0
 15 17  2  0  0  0  0
 14 15  1  0  0  0  0
 14 21  2  0  0  0  0
 11 12  1  0  0  0  0
 11 13  1  0  0  0  0
 11 14  1  0  0  0  0
  9 10  1  0  0  0  0
  9 11  1  0  0  0  0
  9 23  1  0  0  0  0
  7  8  1  0  0  0  0
  7  9  1  0  0  0  0
 27 28  1  0  0  0  0
 27 29  1  0  0  0  0
 27 30  1  0  0  0  0
 25 26  1  0  0  0  0
 25 27  1  0  0  0  0
M  CHG  1  15   1
M  END
$$$$
default_name
  -OEChem-01062215323D

 30 30  0     1  0  0  0  0  0999 V2000
   -3.5507   -3.2183    1.8116 H   0  0  0  0  0  0  0  0  0  0  0  0
   -3.4597   -2.3913    1.1076 C   0  0  0  0  0  0  0  0  0  0  0  0
   -4.1577   -1.6043    1.3866 H   0  0  0  0  0  0  0  0  0  0  0  0
   -3.6807   -2.7523    0.1036 H   0  0  0  0  0  0  0  0  0  0  0  0
   -2.0477   -1.8543    1.1546 C   0  0  0  0  0  0  0  0  0  0  0  0
   -1.2227   -2.3443    1.9146 O   0  0  0  0  0  0  0  0  0  0  0  0
   -1.7517   -0.8483    0.3266 N   0  0  0  0  0  0  0  0  0  0  0  0
   -2.4847   -0.5123   -0.2804 H   0  0  0  0  0  0  0  0  0  0  0  0
   -0.4117   -0.2463    0.2186 C   0  0  1  0  0  0  0  0  0  0  0  0
   -0.5287    0.7863   -0.1197 H   0  0  0  0  0  0  0  0  0  0  0  0
    0.2210   -0.1958    1.6287 C   0  0  0  0  0  0  0  0  0  0  0  0
    0.2612   -1.2121    2.0289 H   0  0  0  0  0  0  0  0  0  0  0  0
    1.2514    0.1559    1.5430 H   0  0  0  0  0  0  0  0  0  0  0  0
   -0.4971    0.6897    2.6250 C   0  0  0  0  0  0  0  0  0  0  0  0
   -0.4567    2.0705    2.6400 N   0  3  0  0  0  0  0  0  0  0  0  0
    0.0201    2.6297    1.9268 H   0  0  0  0  0  0  0  0  0  0  0  0
   -1.2129    2.5073    3.6667 C   0  0  0  0  0  0  0  0  0  0  0  0
   -1.3832    3.5508    3.9237 H   0  0  0  0  0  0  0  0  0  0  0  0
   -1.7314    1.4334    4.3043 N   0  0  0  0  0  0  0  0  0  0  0  0
   -2.3439    1.4590    5.1153 H   0  0  0  0  0  0  0  0  0  0  0  0
   -1.2916    0.2837    3.6629 C   0  0  0  0  0  0  0  0  0  0  0  0
   -1.5271   -0.7440    3.9254 H   0  0  0  0  0  0  0  0  0  0  0  0
    0.4398   -0.9601   -0.8463 C   0  0  0  0  0  0  0  0  0  0  0  0
    1.5889   -0.5851   -1.0846 O   0  0  0  0  0  0  0  0  0  0  0  0
   -0.1418   -1.9802   -1.4891 N   0  0  0  0  0  0  0  0  0  0  0  0
   -1.0827   -2.2239   -1.2197 H   0  0  0  0  0  0  0  0  0  0  0  0
    0.4781   -2.7709   -2.5569 C   0  0  0  0  0  0  0  0  0  0  0  0
    0.8365   -3.7223   -2.1590 H   0  0  0  0  0  0  0  0  0  0  0  0
   -0.2528   -2.9753   -3.3412 H   0  0  0  0  0  0  0  0  0  0  0  0
    1.3210   -2.2353   -2.9987 H   0  0  0  0  0  0  0  0  0  0  0  0
  5  6  2  0  0  0  0
  5  7  1  0  0  0  0
  2  3  1  0  0  0  0
  2  4  1  0  0  0  0
  2  5  1  0  0  0  0
  1  2  1  0  0  0  0
 23 24  2  0  0  0  0
 23 25  1  0  0  0  0
 21 22  1  0  0  0  0
 19 20  1  0  0  0  0
 19 21  1  0  0  0  0
 17 18  1  0  0  0  0
 17 19  1  0  0  0  0
 15 16  1  0  0  0  0
 15 17  2  0  0  0  0
 14 15  1  0  0  0  0
 14 21  2  0  0  0  0
 11 12  1  0  0  0  0
 11 13  1  0  0  0  0
 11 14  1  0  0  0  0
  9 10  1  0  0  0  0
  9 11  1  0  0  0  0
  9 23  1  0  0  0  0
  7  8  1  0  0  0  0
  7  9  1  0  0  0  0
 27 28  1  0  0  0  0
 27 29  1  0  0  0  0
 27 30  1  0  0  0  0
 25 26  1  0  0  0  0
 25 27  1  0  0  0  0
M  CHG  1  15   1
M  END
$$$$
default_name
  -OEChem-01062215323D

 30 30  0     1  0  0  0  0  0999 V2000
   -3.5507   -3.2183    1.8116 H   0  0  0  0  0  0  0  0  0  0  0  0
   -3.4597   -2.3913    1.1076 C   0  0  0  0  0  0  0  0  0  0  0  0
   -4.1577   -1.6043    1.3866 H   0  0  0  0  0  0  0  0  0  0  0  0
   -3.6807   -2.7523    0.1036 H   0  0  0  0  0  0  0  0  0  0  0  0
   -2.0477   -1.8543    1.1546 C   0  0  0  0  0  0  0  0  0  0  0  0
   -1.2227   -2.3443    1.9146 O   0  0  0  0  0  0  0  0  0  0  0  0
   -1.7517   -0.8483    0.3266 N   0  0  0  0  0  0  0  0  0  0  0  0
   -2.4847   -0.5123   -0.2804 H   0  0  0  0  0  0  0  0  0  0  0  0
   -0.4117   -0.2463    0.2186 C   0  0  1  0  0  0  0  0  0  0  0  0
   -0.5287    0.7863   -0.1197 H   0  0  0  0  0  0  0  0  0  0  0  0
    0.2210   -0.1958    1.6287 C   0  0  0  0  0  0  0  0  0  0  0  0
    0.2612   -1.2121    2.0289 H   0  0  0  0  0  0  0  0  0  0  0  0
    1.2514    0.1559    1.5430 H   0  0  0  0  0  0  0  0  0  0  0  0
   -0.4971    0.6897    2.6250 C   0  0  0  0  0  0  0  0  0  0  0  0
   -0.4567    2.0705    2.6400 N   0  3  0  0  0  0  0  0  0  0  0  0
    0.0201    2.6297    1.9268 H   0  0  0  0  0  0  0  0  0  0  0  0
   -1.2129    2.5073    3.6667 C   0  0  0  0  0  0  0  0  0  0  0  0
   -1.3832    3.5508    3.9237 H   0  0  0  0  0  0  0  0  0  0  0  0
   -1.7314    1.4334    4.3043 N   0  0  0  0  0  0  0  0  0  0  0  0
   -2.3439    1.4590    5.1153 H   0  0  0  0  0  0  0  0  0  0  0  0
   -1.2916    0.2837    3.6629 C   0  0  0  0  0  0  0  0  0  0  0  0
   -1.5271   -0.7440    3.9254 H   0  0  0  0  0  0  0  0  0  0  0  0
    0.4398   -0.9601   -0.8463 C   0  0  0  0  0  0  0  0  0  0  0  0
    1.6573   -0.7794   -0.8997 O   0  0  0  0  0  0  0  0  0  0  0  0
   -0.2163   -1.7587   -1.6972 N   0  0  0  0  0  0  0  0  0  0  0  0
   -1.2123   -1.8547   -1.5708 H   0  0  0  0  0  0  0  0  0  0  0  0
    0.3963   -2.5034   -2.8015 C   0  0  0  0  0  0  0  0  0  0  0  0
    0.5313   -3.5494   -2.5189 H   0  0  0  0  0  0  0  0  0  0  0  0
   -0.2477   -2.4614   -3.6816 H   0  0  0  0  0  0  0  0  0  0  0  0
    1.3694   -2.0821   -3.0627 H   0  0  0  0  0  0  0  0  0  0  0  0
  5  6  2  0  0  0  0
  5  7  1  0  0  0  0
  2  3  1  0  0  0  0
  2  4  1  0  0  0  0
  2  5  1  0  0  0  0
  1  2  1  0  0  0  0
 23 24  2  0  0  0  0
 23 25  1  0  0  0  0
 21 22  1  0  0  0  0
 19 20  1  0  0  0  0
 19 21  1  0  0  0  0
 17 18  1  0  0  0  0
 17 19  1  0  0  0  0
 15 16  1  0  0  0  0
 15 17  2  0  0  0  0
 14 15  1  0  0  0  0
 14 21  2  0  0  0  0
 11 12  1  0  0  0  0
 11 13  1  0  0  0  0
 11 14  1  0  0  0  0
  9 10  1  0  0  0  0
  9 11  1  0  0  0  0
  9 23  1  0  0  0  0
  7  8  1  0  0  0  0
  7  9  1  0  0  0  0
 27 28  1  0  0  0  0
 27 29  1  0  0  0  0
 27 30  1  0  0  0  0
 25 26  1  0  0  0  0
 25 27  1  0  0  0  0
M  CHG  1  15   1
M  END
$$$$
default_name
  -OEChem-01062215323D

 30 30  0     1  0  0  0  0  0999 V2000
   -3.5507   -3.2183    1.8116 H   0  0  0  0  0  0  0  0  0  0  0  0
   -3.4597   -2.3913    1.1076 C   0  0  0  0  0  0  0  0  0  0  0  0
   -4.1577   -1.6043    1.3866 H   0  0  0  0  0  0  0  0  0  0  0  0
   -3.6807   -2.7523    0.1036 H   0  0  0  0  0  0  0  0  0  0  0  0
   -2.0477   -1.8543    1.1546 C   0  0  0  0  0  0  0  0  0  0  0  0
   -1.2227   -2.3443    1.9146 O   0  0  0  0  0  0  0  0  0  0  0  0
   -1.7517   -0.8483    0.3266 N   0  0  0  0  0  0  0  0  0  0  0  0
   -2.4847   -0.5123   -0.2804 H   0  0  0  0  0  0  0  0  0  0  0  0
   -0.4117   -0.2463    0.2186 C   0  0  1  0  0  0  0  0  0  0  0  0
   -0.5287    0.7863   -0.1197 H   0  0  0  0  0  0  0  0  0  0  0  0
    0.2210   -0.1958    1.6287 C   0  0  0  0  0  0  0  0  0  0  0  0
    0.2612   -1.2121    2.0289 H   0  0  0  0  0  0  0  0  0  0  0  0
    1.2514    0.1559    1.5430 H   0  0  0  0  0  0  0  0  0  0  0  0
   -0.4971    0.6897    2.6250 C   0  0  0  0  0  0  0  0  0  0  0  0
   -0.4567    2.0705    2.6400 N   0  3  0  0  0  0  0  0  0  0  0  0
    0.0201    2.6297    1.9268 H   0  0  0  0  0  0  0  0  0  0  0  0
   -1.2129    2.5073    3.6667 C   0  0  0  0  0  0  0  0  0  0  0  0
   -1.3832    3.5508    3.9237 H   0  0  0  0  0  0  0  0  0  0  0  0
   -1.7314    1.4334    4.3043 N   0  0  0  0  0  0  0  0  0  0  0  0
   -2.3439    1.4590    5.1153 H   0  0  0  0  0  0  0  0  0  0  0  0
   -1.2916    0.2837    3.6629 C   0  0  0  0  0  0  0  0  0  0  0  0
   -1.5271   -0.7440    3.9254 H   0  0  0  0  0  0  0  0  0  0  0  0
    0.4398   -0.9601   -0.8463 C   0  0  0  0  0  0  0  0  0  0  0  0
    1.6664   -1.0059   -0.7406 O   0  0  0  0  0  0  0  0  0  0  0  0
   -0.2236   -1.5016   -1.8753 N   0  0  0  0  0  0  0  0  0  0  0  0
   -1.2293   -1.4247   -1.8726 H   0  0  0  0  0  0  0  0  0  0  0  0
    0.3947   -2.1954   -3.0093 C   0  0  0  0  0  0  0  0  0  0  0  0
    0.3106   -3.2761   -2.8785 H   0  0  0  0  0  0  0  0  0  0  0  0
   -0.1098   -1.9171   -3.9362 H   0  0  0  0  0  0  0  0  0  0  0  0
    1.4512   -1.9336   -3.0968 H   0  0  0  0  0  0  0  0  0  0  0  0
  5  6  2  0  0  0  0
  5  7  1  0  0  0  0
  2  3  1  0  0  0  0
  2  4  1  0  0  0  0
  2  5  1  0  0  0  0
  1  2  1  0  0  0  0
 23 24  2  0  0  0  0
 23 25  1  0  0  0  0
 21 22  1  0  0  0  0
 19 20  1  0  0  0  0
 19 21  1  0  0  0  0
 17 18  1  0  0  0  0
 17 19  1  0  0  0  0
 15 16  1  0  0  0  0
 15 17  2  0  0  0  0
 14 15  1  0  0  0  0
 14 21  2  0  0  0  0
 11 12  1  0  0  0  0
 11 13  1  0  0  0  0
 11 14  1  0  0  0  0
  9 10  1  0  0  0  0
  9 11  1  0  0  0  0
  9 23  1  0  0  0  0
  7  8  1  0  0  0  0
  7  9  1  0  0  0  0
 27 28  1  0  0  0  0
 27 29  1  0  0  0  0
 27 30  1  0  0  0  0
 25 26  1  0  0  0  0
 25 27  1  0  0  0  0
M  CHG  1  15   1
M  END
$$$$
default_name
  -OEChem-01062215323D

 30 30  0     1  0  0  0  0  0999 V2000
   -3.5507   -3.2183    1.8116 H   0  0  0  0  0  0  0  0  0  0  0  0
   -3.4597   -2.3913    1.1076 C   0  0  0  0  0  0  0  0  0  0  0  0
   -4.1577   -1.6043    1.3866 H   0  0  0  0  0  0  0  0  0  0  0  0
   -3.6807   -2.7523    0.1036 H   0  0  0  0  0  0  0  0  0  0  0  0
   -2.0477   -1.8543    1.1546 C   0  0  0  0  0  0  0  0  0  0  0  0
   -1.2227   -2.3443    1.9146 O   0  0  0  0  0  0  0  0  0  0  0  0
   -1.7517   -0.8483    0.3266 N   0  0  0  0  0  0  0  0  0  0  0  0
   -2.4847   -0.5123   -0.2804 H   0  0  0  0  0  0  0  0  0  0  0  0
   -0.4117   -0.2463    0.2186 C   0  0  1  0  0  0  0  0  0  0  0  0
   -0.5287    0.7863   -0.1197 H   0  0  0  0  0  0  0  0  0  0  0  0
    0.2210   -0.1958    1.6287 C   0  0  0  0  0  0  0  0  0  0  0  0
    0.2612   -1.2121    2.0289 H   0  0  0  0  0  0  0  0  0  0  0  0
    1.2514    0.1559    1.5430 H   0  0  0  0  0  0  0  0  0  0  0  0
   -0.4971    0.6897    2.6250 C   0  0  0  0  0  0  0  0  0  0  0  0
   -0.4567    2.0705    2.6400 N   0  3  0  0  0  0  0  0  0  0  0  0
    0.0201    2.6297    1.9268 H   0  0  0  0  0  0  0  0  0  0  0  0
   -1.2129    2.5073    3.6667 C   0  0  0  0  0  0  0  0  0  0  0  0
   -1.3832    3.5508    3.9237 H   0  0  0  0  0  0  0  0  0  0  0  0
   -1.7314    1.4334    4.3043 N   0  0  0  0  0  0  0  0  0  0  0  0
   -2.3439    1.4590    5.1153 H   0  0  0  0  0  0  0  0  0  0  0  0
   -1.2916    0.2837    3.6629 C   0  0  0  0  0  0  0  0  0  0  0  0
   -1.5271   -0.7440    3.9254 H   0  0  0  0  0  0  0  0  0  0  0  0
    0.4398   -0.9601   -0.8463 C   0  0  0  0  0  0  0  0  0  0  0  0
    1.6155   -1.2491   -0.6183 O   0  0  0  0  0  0  0  0  0  0  0  0
   -0.1632   -1.2264   -2.0115 N   0  0  0  0  0  0  0  0  0  0  0  0
   -1.1324   -0.9630   -2.1045 H   0  0  0  0  0  0  0  0  0  0  0  0
    0.4731   -1.8678   -3.1661 C   0  0  0  0  0  0  0  0  0  0  0  0
    0.1896   -2.9211   -3.2132 H   0  0  0  0  0  0  0  0  0  0  0  0
    0.1513   -1.3796   -4.0876 H   0  0  0  0  0  0  0  0  0  0  0  0
    1.5610   -1.7999   -3.0987 H   0  0  0  0  0  0  0  0  0  0  0  0
  5  6  2  0  0  0  0
  5  7  1  0  0  0  0
  2  3  1  0  0  0  0
  2  4  1  0  0  0  0
  2  5  1  0  0  0  0
  1  2  1  0  0  0  0
 23 24  2  0  0  0  0
 23 25  1  0  0  0  0
 21 22  1  0  0  0  0
 19 20  1  0  0  0  0
 19 21  1  0  0  0  0
 17 18  1  0  0  0  0
 17 19  1  0  0  0  0
 15 16  1  0  0  0  0
 15 17  2  0  0  0  0
 14 15  1  0  0  0  0
 14 21  2  0  0  0  0
 11 12  1  0  0  0  0
 11 13  1  0  0  0  0
 11 14  1  0  0  0  0
  9 10  1  0  0  0  0
  9 11  1  0  0  0  0
  9 23  1  0  0  0  0
  7  8  1  0  0  0  0
  7  9  1  0  0  0  0
 27 28  1  0  0  0  0
 27 29  1  0  0  0  0
 27 30  1  0  0  0  0
 25 26  1  0  0  0  0
 25 27  1  0  0  0  0
M  CHG  1  15   1
M  END
$$$$
default_name
  -OEChem-01062215323D

 30 30  0     1  0  0  0  0  0999 V2000
   -3.5507   -3.2183    1.8116 H   0  0  0  0  0  0  0  0  0  0  0  0
   -3.4597   -2.3913    1.1076 C   0  0  0  0  0  0  0  0  0  0  0  0
   -4.1577   -1.6043    1.3866 H   0  0  0  0  0  0  0  0  0  0  0  0
   -3.6807   -2.7523    0.1036 H   0  0  0  0  0  0  0  0  0  0  0  0
   -2.0477   -1.8543    1.1546 C   0  0  0  0  0  0  0  0  0  0  0  0
   -1.2227   -2.3443    1.9146 O   0  0  0  0  0  0  0  0  0  0  0  0
   -1.7517   -0.8483    0.3266 N   0  0  0  0  0  0  0  0  0  0  0  0
   -2.4847   -0.5123   -0.2804 H   0  0  0  0  0  0  0  0  0  0  0  0
   -0.4117   -0.2463    0.2186 C   0  0  1  0  0  0  0  0  0  0  0  0
   -0.5287    0.7863   -0.1197 H   0  0  0  0  0  0  0  0  0  0  0  0
    0.2210   -0.1958    1.6287 C   0  0  0  0  0  0  0  0  0  0  0  0
    0.2612   -1.2121    2.0289 H   0  0  0  0  0  0  0  0  0  0  0  0
    1.2514    0.1559    1.5430 H   0  0  0  0  0  0  0  0  0  0  0  0
   -0.4971    0.6897    2.6250 C   0  0  0  0  0  0  0  0  0  0  0  0
   -0.4567    2.0705    2.6400 N   0  3  0  0  0  0  0  0  0  0  0  0
    0.0201    2.6297    1.9268 H   0  0  0  0  0  0  0  0  0  0  0  0
   -1.2129    2.5073    3.6667 C   0  0  0  0  0  0  0  0  0  0  0  0
   -1.3832    3.5508    3.9237 H   0  0  0  0  0  0  0  0  0  0  0  0
   -1.7314    1.4334    4.3043 N   0  0  0  0  0  0  0  0  0  0  0  0
   -2.3439    1.4590    5.1153 H   0  0  0  0  0  0  0  0  0  0  0  0
   -1.2916    0.2837    3.6629 C   0  0  0  0  0  0  0  0  0  0  0  0
   -1.5271   -0.7440    3.9254 H   0  0  0  0  0  0  0  0  0  0  0  0
    0.4398   -0.9601   -0.8463 C   0  0  0  0  0  0  0  0  0  0  0  0
    1.5081   -1.4923   -0.5411 O   0  0  0  0  0  0  0  0  0  0  0  0
   -0.0392   -0.9519   -2.0964 N   0  0  0  0  0  0  0  0  0  0  0  0
   -0.9283   -0.5012   -2.2508 H   0  0  0  0  0  0  0  0  0  0  0  0
    0.6264   -1.5430   -3.2612 C   0  0  0  0  0  0  0  0  0  0  0  0
    0.1764   -2.5087   -3.5002 H   0  0  0  0  0  0  0  0  0  0  0  0
    0.5180   -0.8856   -4.1256 H   0  0  0  0  0  0  0  0  0  0  0  0
    1.6912   -1.6902   -3.0682 H   0  0  0  0  0  0  0  0  0  0  0  0
  5  6  2  0  0  0  0
  5  7  1  0  0  0  0
  2  3  1  0  0  0  0
  2  4  1  0  0  0  0
  2  5  1  0  0  0  0
  1  2  1  0  0  0  0
 23 24  2  0  0  0  0
 23 25  1  0  0  0  0
 21 22  1  0  0  0  0
 19 20  1  0  0  0  0
 19 21  1  0  0  0  0
 17 18  1  0  0  0  0
 17 19  1  0  0  0  0
 15 16  1  0  0  0  0
 15 17  2  0  0  0  0
 14 15  1  0  0  0  0
 14 21  2  0  0  0  0
 11 12  1  0  0  0  0
 11 13  1  0  0  0  0
 11 14  1  0  0  0  0
  9 10  1  0  0  0  0
  9 11  1  0  0  0  0
  9 23  1  0  0  0  0
  7  8  1  0  0  0  0
  7  9  1  0  0  0  0
 27 28  1  0  0  0  0
 27 29  1  0  0  0  0
 27 30  1  0  0  0  0
 25 26  1  0  0  0  0
 25 27  1  0  0  0  0
M  CHG  1  15   1
M  END
$$$$
default_name
  -OEChem-01062215323D

 30 30  0     1  0  0  0  0  0999 V2000
   -3.5507   -3.2183    1.8116 H   0  0  0  0  0  0  0  0  0  0  0  0
   -3.4597   -2.3913    1.1076 C   0  0  0  0  0  0  0  0  0  0  0  0
   -4.1577   -1.6043    1.3866 H   0  0  0  0  0  0  0  0  0  0  0  0
   -3.6807   -2.7523    0.1036 H   0  0  0  0  0  0  0  0  0  0  0  0
   -2.0477   -1.8543    1.1546 C   0  0  0  0  0  0  0  0  0  0  0  0
   -1.2227   -2.3443    1.9146 O   0  0  0  0  0  0  0  0  0  0  0  0
   -1.7517   -0.8483    0.3266 N   0  0  0  0  0  0  0  0  0  0  0  0
   -2.4847   -0.5123   -0.2804 H   0  0  0  0  0  0  0  0  0  0  0  0
   -0.4117   -0.2463    0.2186 C   0  0  1  0  0  0  0  0  0  0  0  0
   -0.5287    0.7863   -0.1197 H   0  0  0  0  0  0  0  0  0  0  0  0
    0.2210   -0.1958    1.6287 C   0  0  0  0  0  0  0  0  0  0  0  0
    0.2612   -1.2121    2.0289 H   0  0  0  0  0  0  0  0  0  0  0  0
    1.2514    0.1559    1.5430 H   0  0  0  0  0  0  0  0  0  0  0  0
   -0.4971    0.6897    2.6250 C   0  0  0  0  0  0  0  0  0  0  0  0
   -0.4567    2.0705    2.6400 N   0  3  0  0  0  0  0  0  0  0  0  0
    0.0201    2.6297    1.9268 H   0  0  0  0  0  0  0  0  0  0  0  0
   -1.2129    2.5073    3.6667 C   0  0  0  0  0  0  0  0  0  0  0  0
   -1.3832    3.5508    3.9237 H   0  0  0  0  0  0  0  0  0  0  0  0
   -1.7314    1.4334    4.3043 N   0  0  0  0  0  0  0  0  0  0  0  0
   -2.3439    1.4590    5.1153 H   0  0  0  0  0  0  0  0  0  0  0  0
   -1.2916    0.2837    3.6629 C   0  0  0  0  0  0  0  0  0  0  0  0
   -1.5271   -0.7440    3.9254 H   0  0  0  0  0  0  0  0  0  0  0  0
    0.4398   -0.9601   -0.8463 C   0  0  0  0  0  0  0  0  0  0  0  0
    1.3516   -1.7191   -0.5143 O   0  0  0  0  0  0  0  0  0  0  0  0
    0.1399   -0.6968   -2.1242 N   0  0  0  0  0  0  0  0  0  0  0  0
   -0.6308   -0.0708   -2.3016 H   0  0  0  0  0  0  0  0  0  0  0  0
    0.8441   -1.2431   -3.2882 C   0  0  0  0  0  0  0  0  0  0  0  0
    0.2721   -2.0668   -3.7199 H   0  0  0  0  0  0  0  0  0  0  0  0
    0.9653   -0.4686   -4.0475 H   0  0  0  0  0  0  0  0  0  0  0  0
    1.8329   -1.6118   -3.0073 H   0  0  0  0  0  0  0  0  0  0  0  0
  5  6  2  0  0  0  0
  5  7  1  0  0  0  0
  2  3  1  0  0  0  0
  2  4  1  0  0  0  0
  2  5  1  0  0  0  0
  1  2  1  0  0  0  0
 23 24  2  0  0  0  0
 23 25  1  0  0  0  0
 21 22  1  0  0  0  0
 19 20  1  0  0  0  0
 19 21  1  0  0  0  0
 17 18  1  0  0  0  0
 17 19  1  0  0  0  0
 15 16  1  0  0  0  0
 15 17  2  0  0  0  0
 14 15  1  0  0  0  0
 14 21  2  0  0  0  0
 11 12  1  0  0  0  0
 11 13  1  0  0  0  0
 11 14  1  0  0  0  0
  9 10  1  0  0  0  0
  9 11  1  0  0  0  0
  9 23  1  0  0  0  0
  7  8  1  0  0  0  0
  7  9  1  0  0  0  0
 27 28  1  0  0  0  0
 27 29  1  0  0  0  0
 27 30  1  0  0  0  0
 25 26  1  0  0  0  0
 25 27  1  0  0  0  0
M  CHG  1  15   1
M  END
$$$$
default_name
  -OEChem-01062215323D

 30 30  0     1  0  0  0  0  0999 V2000
   -3.5507   -3.2183    1.8116 H   0  0  0  0  0  0  0  0  0  0  0  0
   -3.4597   -2.3913    1.1076 C   0  0  0  0  0  0  0  0  0  0  0  0
   -4.1577   -1.6043    1.3866 H   0  0  0  0  0  0  0  0  0  0  0  0
   -3.6807   -2.7523    0.1036 H   0  0  0  0  0  0  0  0  0  0  0  0
   -2.0477   -1.8543    1.1546 C   0  0  0  0  0  0  0  0  0  0  0  0
   -1.2227   -2.3443    1.9146 O   0  0  0  0  0  0  0  0  0  0  0  0
   -1.7517   -0.8483    0.3266 N   0  0  0  0  0  0  0  0  0  0  0  0
   -2.4847   -0.5123   -0.2804 H   0  0  0  0  0  0  0  0  0  0  0  0
   -0.4117   -0.2463    0.2186 C   0  0  1  0  0  0  0  0  0  0  0  0
   -0.5287    0.7863   -0.1197 H   0  0  0  0  0  0  0  0  0  0  0  0
    0.2210   -0.1958    1.6287 C   0  0  0  0  0  0  0  0  0  0  0  0
    0.2612   -1.2121    2.0289 H   0  0  0  0  0  0  0  0  0  0  0  0
    1.2514    0.1559    1.5430 H   0  0  0  0  0  0  0  0  0  0  0  0
   -0.4971    0.6897    2.6250 C   0  0  0  0  0  0  0  0  0  0  0  0
   -0.4567    2.0705    2.6400 N   0  3  0  0  0  0  0  0  0  0  0  0
    0.0201    2.6297    1.9268 H   0  0  0  0  0  0  0  0  0  0  0  0
   -1.2129    2.5073    3.6667 C   0  0  0  0  0  0  0  0  0  0  0  0
   -1.3832    3.5508    3.9237 H   0  0  0  0  0  0  0  0  0  0  0  0
   -1.7314    1.4334    4.3043 N   0  0  0  0  0  0  0  0  0  0  0  0
   -2.3439    1.4590    5.1153 H   0  0  0  0  0  0  0  0  0  0  0  0
   -1.2916    0.2837    3.6629 C   0  0  0  0  0  0  0  0  0  0  0  0
   -1.5271   -0.7440    3.9254 H   0  0  0  0  0  0  0  0  0  0  0  0
    0.4398   -0.9601   -0.8463 C   0  0  0  0  0  0  0  0  0  0  0  0
    1.1565   -1.9140   -0.5396 O   0  0  0  0  0  0  0  0  0  0  0  0
    0.3618   -0.4785   -2.0930 N   0  0  0  0  0  0  0  0  0  0  0  0
   -0.2604    0.2990   -2.2532 H   0  0  0  0  0  0  0  0  0  0  0  0
    1.1113   -0.9885   -3.2452 C   0  0  0  0  0  0  0  0  0  0  0  0
    0.4699   -1.6256   -3.8574 H   0  0  0  0  0  0  0  0  0  0  0  0
    1.4626   -0.1570   -3.8587 H   0  0  0  0  0  0  0  0  0  0  0  0
    1.9765   -1.5703   -2.9204 H   0  0  0  0  0  0  0  0  0  0  0  0
  5  6  2  0  0  0  0
  5  7  1  0  0  0  0
  2  3  1  0  0  0  0
  2  4  1  0  0  0  0
  2  5  1  0  0  0  0
  1  2  1  0  0  0  0
 23 24  2  0  0  0  0
 23 25  1  0  0  0  0
 21 22  1  0  0  0  0
 19 20  1  0  0  0  0
 19 21  1  0  0  0  0
 17 18  1  0  0  0  0
 17 19  1  0  0  0  0
 15 16  1  0  0  0  0
 15 17  2  0  0  0  0
 14 15  1  0  0  0  0
 14 21  2  0  0  0  0
 11 12  1  0  0  0  0
 11 13  1  0  0  0  0
 11 14  1  0  0  0  0
  9 10  1  0  0  0  0
  9 11  1  0  0  0  0
  9 23  1  0  0  0  0
  7  8  1  0  0  0  0
  7  9  1  0  0  0  0
 27 28  1  0  0  0  0
 27 29  1  0  0  0  0
 27 30  1  0  0  0  0
 25 26  1  0  0  0  0
 25 27  1  0  0  0  0
M  CHG  1  15   1
M  END
$$$$
default_name
  -OEChem-01062215323D

 30 30  0     1  0  0  0  0  0999 V2000
   -3.5507   -3.2183    1.8116 H   0  0  0  0  0  0  0  0  0  0  0  0
   -3.4597   -2.3913    1.1076 C   0  0  0  0  0  0  0  0  0  0  0  0
   -4.1577   -1.6043    1.3866 H   0  0  0  0  0  0  0  0  0  0  0  0
   -3.6807   -2.7523    0.1036 H   0  0  0  0  0  0  0  0  0  0  0  0
   -2.0477   -1.8543    1.1546 C   0  0  0  0  0  0  0  0  0  0  0  0
   -1.2227   -2.3443    1.9146 O   0  0  0  0  0  0  0  0  0  0  0  0
   -1.7517   -0.8483    0.3266 N   0  0  0  0  0  0  0  0  0  0  0  0
   -2.4847   -0.5123   -0.2804 H   0  0  0  0  0  0  0  0  0  0  0  0
   -0.4117   -0.2463    0.2186 C   0  0  1  0  0  0  0  0  0  0  0  0
   -0.5287    0.7863   -0.1197 H   0  0  0  0  0  0  0  0  0  0  0  0
    0.2210   -0.1958    1.6287 C   0  0  0  0  0  0  0  0  0  0  0  0
    0.2612   -1.2121    2.0289 H   0  0  0  0  0  0  0  0  0  0  0  0
    1.2514    0.1559    1.5430 H   0  0  0  0  0  0  0  0  0  0  0  0
   -0.4971    0.6897    2.6250 C   0  0  0  0  0  0  0  0  0  0  0  0
   -0.4567    2.0705    2.6400 N   0  3  0  0  0  0  0  0  0  0  0  0
    0.0201    2.6297    1.9268 H   0  0  0  0  0  0  0  0  0  0  0  0
   -1.2129    2.5073    3.6667 C   0  0  0  0  0  0  0  0  0  0  0  0
   -1.3832    3.5508    3.9237 H   0  0  0  0  0  0  0  0  0  0  0  0
   -1.7314    1.4334    4.3043 N   0  0  0  0  0  0  0  0  0  0  0  0
   -2.3439    1.4590    5.1153 H   0  0  0  0  0  0  0  0  0  0  0  0
   -1.2916    0.2837    3.6629 C   0  0  0  0  0  0  0  0  0  0  0  0
   -1.5271   -0.7440    3.9254 H   0  0  0  0  0  0  0  0  0  0  0  0
    0.4398   -0.9601   -0.8463 C   0  0  0  0  0  0  0  0  0  0  0  0
    0.9362   -2.0637   -0.6154 O   0  0  0  0  0  0  0  0  0  0  0  0
    0.6116   -0.3119   -2.0050 N   0  0  0  0  0  0  0  0  0  0  0  0
    0.1579    0.5829   -2.1091 H   0  0  0  0  0  0  0  0  0  0  0  0
    1.4098   -0.7966   -3.1351 C   0  0  0  0  0  0  0  0  0  0  0  0
    0.7565   -1.2153   -3.9033 H   0  0  0  0  0  0  0  0  0  0  0  0
    1.9761    0.0278   -3.5720 H   0  0  0  0  0  0  0  0  0  0  0  0
    2.1122   -1.5683   -2.8132 H   0  0  0  0  0  0  0  0  0  0  0  0
  5  6  2  0  0  0  0
  5  7  1  0  0  0  0
  2  3  1  0  0  0  0
  2  4  1  0  0  0  0
  2  5  1  0  0  0  0
  1  2  1  0  0  0  0
 23 24  2  0  0  0  0
 23 25  1  0  0  0  0
 21 22  1  0  0  0  0
 19 20  1  0  0  0  0
 19 21  1  0  0  0  0
 17 18  1  0  0  0  0
 17 19  1  0  0  0  0
 15 16  1  0  0  0  0
 15 17  2  0  0  0  0
 14 15  1  0  0  0  0
 14 21  2  0  0  0  0
 11 12  1  0  0  0  0
 11 13  1  0  0  0  0
 11 14  1  0  0  0  0
  9 10  1  0  0  0  0
  9 11  1  0  0  0  0
  9 23  1  0  0  0  0
  7  8  1  0  0  0  0
  7  9  1  0  0  0  0
 27 28  1  0  0  0  0
 27 29  1  0  0  0  0
 27 30  1  0  0  0  0
 25 26  1  0  0  0  0
 25 27  1  0  0  0  0
M  CHG  1  15   1
M  END
$$$$
default_name
  -OEChem-01062215323D

 30 30  0     1  0  0  0  0  0999 V2000
   -3.5507   -3.2183    1.8116 H   0  0  0  0  0  0  0  0  0  0  0  0
   -3.4597   -2.3913    1.1076 C   0  0  0  0  0  0  0  0  0  0  0  0
   -4.1577   -1.6043    1.3866 H   0  0  0  0  0  0  0  0  0  0  0  0
   -3.6807   -2.7523    0.1036 H   0  0  0  0  0  0  0  0  0  0  0  0
   -2.0477   -1.8543    1.1546 C   0  0  0  0  0  0  0  0  0  0  0  0
   -1.2227   -2.3443    1.9146 O   0  0  0  0  0  0  0  0  0  0  0  0
   -1.7517   -0.8483    0.3266 N   0  0  0  0  0  0  0  0  0  0  0  0
   -2.4847   -0.5123   -0.2804 H   0  0  0  0  0  0  0  0  0  0  0  0
   -0.4117   -0.2463    0.2186 C   0  0  1  0  0  0  0  0  0  0  0  0
   -0.5287    0.7863   -0.1197 H   0  0  0  0  0  0  0  0  0  0  0  0
    0.2210   -0.1958    1.6287 C   0  0  0  0  0  0  0  0  0  0  0  0
    0.2612   -1.2121    2.0289 H   0  0  0  0  0  0  0  0  0  0  0  0
    1.2514    0.1559    1.5430 H   0  0  0  0  0  0  0  0  0  0  0  0
   -0.4971    0.6897    2.6250 C   0  0  0  0  0  0  0  0  0  0  0  0
   -0.4567    2.0705    2.6400 N   0  3  0  0  0  0  0  0  0  0  0  0
    0.0201    2.6297    1.9268 H   0  0  0  0  0  0  0  0  0  0  0  0
   -1.2129    2.5073    3.6667 C   0  0  0  0  0  0  0  0  0  0  0  0
   -1.3832    3.5508    3.9237 H   0  0  0  0  0  0  0  0  0  0  0  0
   -1.7314    1.4334    4.3043 N   0  0  0  0  0  0  0  0  0  0  0  0
   -2.3439    1.4590    5.1153 H   0  0  0  0  0  0  0  0  0  0  0  0
   -1.2916    0.2837    3.6629 C   0  0  0  0  0  0  0  0  0  0  0  0
   -1.5271   -0.7440    3.9254 H   0  0  0  0  0  0  0  0  0  0  0  0
    0.4398   -0.9601   -0.8463 C   0  0  0  0  0  0  0  0  0  0  0  0
    0.7058   -2.1580   -0.7365 O   0  0  0  0  0  0  0  0  0  0  0  0
    0.8722   -0.2083   -1.8661 N   0  0  0  0  0  0  0  0  0  0  0  0
    0.5955    0.7616   -1.8790 H   0  0  0  0  0  0  0  0  0  0  0  0
    1.7193   -0.6805   -2.9655 C   0  0  0  0  0  0  0  0  0  0  0  0
    1.1124   -0.8637   -3.8545 H   0  0  0  0  0  0  0  0  0  0  0  0
    2.4708    0.0732   -3.2069 H   0  0  0  0  0  0  0  0  0  0  0  0
    2.2308   -1.6061   -2.6930 H   0  0  0  0  0  0  0  0  0  0  0  0
  5  6  2  0  0  0  0
  5  7  1  0  0  0  0
  2  3  1  0  0  0  0
  2  4  1  0  0  0  0
  2  5  1  0  0  0  0
  1  2  1  0  0  0  0
 23 24  2  0  0  0  0
 23 25  1  0  0  0  0
 21 22  1  0  0  0  0
 19 20  1  0  0  0  0
 19 21  1  0  0  0  0
 17 18  1  0  0  0  0
 17 19  1  0  0  0  0
 15 16  1  0  0  0  0
 15 17  2  0  0  0  0
 14 15  1  0  0  0  0
 14 21  2  0  0  0  0
 11 12  1  0  0  0  0
 11 13  1  0  0  0  0
 11 14  1  0  0  0  0
  9 10  1  0  0  0  0
  9 11  1  0  0  0  0
  9 23  1  0  0  0  0
  7  8  1  0  0  0  0
  7  9  1  0  0  0  0
 27 28  1  0  0  0  0
 27 29  1  0  0  0  0
 27 30  1  0  0  0  0
 25 26  1  0  0  0  0
 25 27  1  0  0  0  0
M  CHG  1  15   1
M  END
$$$$
default_name
  -OEChem-01062215323D

 30 30  0     1  0  0  0  0  0999 V2000
   -3.5507   -3.2183    1.8116 H   0  0  0  0  0  0  0  0  0  0  0  0
   -3.4597   -2.3913    1.1076 C   0  0  0  0  0  0  0  0  0  0  0  0
   -4.1577   -1.6043    1.3866 H   0  0  0  0  0  0  0  0  0  0  0  0
   -3.6807   -2.7523    0.1036 H   0  0  0  0  0  0  0  0  0  0  0  0
   -2.0477   -1.8543    1.1546 C   0  0  0  0  0  0  0  0  0  0  0  0
   -1.2227   -2.3443    1.9146 O   0  0  0  0  0  0  0  0  0  0  0  0
   -1.7517   -0.8483    0.3266 N   0  0  0  0  0  0  0  0  0  0  0  0
   -2.4847   -0.5123   -0.2804 H   0  0  0  0  0  0  0  0  0  0  0  0
   -0.4117   -0.2463    0.2186 C   0  0  1  0  0  0  0  0  0  0  0  0
   -0.5287    0.7863   -0.1197 H   0  0  0  0  0  0  0  0  0  0  0  0
    0.2210   -0.1958    1.6287 C   0  0  0  0  0  0  0  0  0  0  0  0
    0.2612   -1.2121    2.0289 H   0  0  0  0  0  0  0  0  0  0  0  0
    1.2514    0.1559    1.5430 H   0  0  0  0  0  0  0  0  0  0  0  0
   -0.4971    0.6897    2.6250 C   0  0  0  0  0  0  0  0  0  0  0  0
   -0.4567    2.0705    2.6400 N   0  3  0  0  0  0  0  0  0  0  0  0
    0.0201    2.6297    1.9268 H   0  0  0  0  0  0  0  0  0  0  0  0
   -1.2129    2.5073    3.6667 C   0  0  0  0  0  0  0  0  0  0  0  0
   -1.3832    3.5508    3.9237 H   0  0  0  0  0  0  0  0  0  0  0  0
   -1.7314    1.4334    4.3043 N   0  0  0  0  0  0  0  0  0  0  0  0
   -2.3439    1.4590    5.1153 H   0  0  0  0  0  0  0  0  0  0  0  0
   -1.2916    0.2837    3.6629 C   0  0  0  0  0  0  0  0  0  0  0  0
   -1.5271   -0.7440    3.9254 H   0  0  0  0  0  0  0  0  0  0  0  0
    0.4398   -0.9601   -0.8463 C   0  0  0  0  0  0  0  0  0  0  0  0
    0.4808   -2.1904   -0.8946 O   0  0  0  0  0  0  0  0  0  0  0  0
    1.1257   -0.1747   -1.6859 N   0  0  0  0  0  0  0  0  0  0  0  0
    1.0225    0.8229   -1.5787 H   0  0  0  0  0  0  0  0  0  0  0  0
    2.0187   -0.6481   -2.7479 C   0  0  0  0  0  0  0  0  0  0  0  0
    1.5133   -0.5947   -3.7142 H   0  0  0  0  0  0  0  0  0  0  0  0
    2.9130   -0.0237   -2.7885 H   0  0  0  0  0  0  0  0  0  0  0  0
    2.3242   -1.6810   -2.5682 H   0  0  0  0  0  0  0  0  0  0  0  0
  5  6  2  0  0  0  0
  5  7  1  0  0  0  0
  2  3  1  0  0  0  0
  2  4  1  0  0  0  0
  2  5  1  0  0  0  0
  1  2  1  0  0  0  0
 23 24  2  0  0  0  0
 23 25  1  0  0  0  0
 21 22  1  0  0  0  0
 19 20  1  0  0  0  0
 19 21  1  0  0  0  0
 17 18  1  0  0  0  0
 17 19  1  0  0  0  0
 15 16  1  0  0  0  0
 15 17  2  0  0  0  0
 14 15  1  0  0  0  0
 14 21  2  0  0  0  0
 11 12  1  0  0  0  0
 11 13  1  0  0  0  0
 11 14  1  0  0  0  0
  9 10  1  0  0  0  0
  9 11  1  0  0  0  0
  9 23  1  0  0  0  0
  7  8  1  0  0  0  0
  7  9  1  0  0  0  0
 27 28  1  0  0  0  0
 27 29  1  0  0  0  0
 27 30  1  0  0  0  0
 25 26  1  0  0  0  0
 25 27  1  0  0  0  0
M  CHG  1  15   1
M  END
$$$$
default_name
  -OEChem-01062215323D

 30 30  0     1  0  0  0  0  0999 V2000
   -3.5507   -3.2183    1.8116 H   0  0  0  0  0  0  0  0  0  0  0  0
   -3.4597   -2.3913    1.1076 C   0  0  0  0  0  0  0  0  0  0  0  0
   -4.1577   -1.6043    1.3866 H   0  0  0  0  0  0  0  0  0  0  0  0
   -3.6807   -2.7523    0.1036 H   0  0  0  0  0  0  0  0  0  0  0  0
   -2.0477   -1.8543    1.1546 C   0  0  0  0  0  0  0  0  0  0  0  0
   -1.2227   -2.3443    1.9146 O   0  0  0  0  0  0  0  0  0  0  0  0
   -1.7517   -0.8483    0.3266 N   0  0  0  0  0  0  0  0  0  0  0  0
   -2.4847   -0.5123   -0.2804 H   0  0  0  0  0  0  0  0  0  0  0  0
   -0.4117   -0.2463    0.2186 C   0  0  1  0  0  0  0  0  0  0  0  0
   -0.5287    0.7863   -0.1197 H   0  0  0  0  0  0  0  0  0  0  0  0
    0.2210   -0.1958    1.6287 C   0  0  0  0  0  0  0  0  0  0  0  0
    0.2612   -1.2121    2.0289 H   0  0  0  0  0  0  0  0  0  0  0  0
    1.2514    0.1559    1.5430 H   0  0  0  0  0  0  0  0  0  0  0  0
   -0.4971    0.6897    2.6250 C   0  0  0  0  0  0  0  0  0  0  0  0
   -0.4567    2.0705    2.6400 N   0  3  0  0  0  0  0  0  0  0  0  0
    0.0201    2.6297    1.9268 H   0  0  0  0  0  0  0  0  0  0  0  0
   -1.2129    2.5073    3.6667 C   0  0  0  0  0  0  0  0  0  0  0  0
   -1.3832    3.5508    3.9237 H   0  0  0  0  0  0  0  0  0  0  0  0
   -1.7314    1.4334    4.3043 N   0  0  0  0  0  0  0  0  0  0  0  0
   -2.3439    1.4590    5.1153 H   0  0  0  0  0  0  0  0  0  0  0  0
   -1.2916    0.2837    3.6629 C   0  0  0  0  0  0  0  0  0  0  0  0
   -1.5271   -0.7440    3.9254 H   0  0  0  0  0  0  0  0  0  0  0  0
    0.4398   -0.9601   -0.8463 C   0  0  0  0  0  0  0  0  0  0  0  0
    0.2766   -2.1588   -1.0790 O   0  0  0  0  0  0  0  0  0  0  0  0
    1.3550   -0.2135   -1.4765 N   0  0  0  0  0  0  0  0  0  0  0  0
    1.4099    0.7626   -1.2285 H   0  0  0  0  0  0  0  0  0  0  0  0
    2.2876   -0.7015   -2.4971 C   0  0  0  0  0  0  0  0  0  0  0  0
    1.9318   -0.4269   -3.4921 H   0  0  0  0  0  0  0  0  0  0  0  0
    3.2725   -0.2564   -2.3450 H   0  0  0  0  0  0  0  0  0  0  0  0
    2.3860   -1.7880   -2.4471 H   0  0  0  0  0  0  0  0  0  0  0  0
  5  6  2  0  0  0  0
  5  7  1  0  0  0  0
  2  3  1  0  0  0  0
  2  4  1  0  0  0  0
  2  5  1  0  0  0  0
  1  2  1  0  0  0  0
 23 24  2  0  0  0  0
 23 25  1  0  0  0  0
 21 22  1  0  0  0  0
 19 20  1  0  0  0  0
 19 21  1  0  0  0  0
 17 18  1  0  0  0  0
 17 19  1  0  0  0  0
 15 16  1  0  0  0  0
 15 17  2  0  0  0  0
 14 15  1  0  0  0  0
 14 21  2  0  0  0  0
 11 12  1  0  0  0  0
 11 13  1  0  0  0  0
 11 14  1  0  0  0  0
  9 10  1  0  0  0  0
  9 11  1  0  0  0  0
  9 23  1  0  0  0  0
  7  8  1  0  0  0  0
  7  9  1  0  0  0  0
 27 28  1  0  0  0  0
 27 29  1  0  0  0  0
 27 30  1  0  0  0  0
 25 26  1  0  0  0  0
 25 27  1  0  0  0  0
M  CHG  1  15   1
M  END
$$$$
default_name
  -OEChem-01062215323D

 30 30  0     1  0  0  0  0  0999 V2000
   -3.5507   -3.2183    1.8116 H   0  0  0  0  0  0  0  0  0  0  0  0
   -3.4597   -2.3913    1.1076 C   0  0  0  0  0  0  0  0  0  0  0  0
   -4.1577   -1.6043    1.3866 H   0  0  0  0  0  0  0  0  0  0  0  0
   -3.6807   -2.7523    0.1036 H   0  0  0  0  0  0  0  0  0  0  0  0
   -2.0477   -1.8543    1.1546 C   0  0  0  0  0  0  0  0  0  0  0  0
   -1.2227   -2.3443    1.9146 O   0  0  0  0  0  0  0  0  0  0  0  0
   -1.7517   -0.8483    0.3266 N   0  0  0  0  0  0  0  0  0  0  0  0
   -2.4847   -0.5123   -0.2804 H   0  0  0  0  0  0  0  0  0  0  0  0
   -0.4117   -0.2463    0.2186 C   0  0  1  0  0  0  0  0  0  0  0  0
   -0.5287    0.7863   -0.1197 H   0  0  0  0  0  0  0  0  0  0  0  0
    0.2210   -0.1958    1.6287 C   0  0  0  0  0  0  0  0  0  0  0  0
    0.2612   -1.2121    2.0289 H   0  0  0  0  0  0  0  0  0  0  0  0
    1.2514    0.1559    1.5430 H   0  0  0  0  0  0  0  0  0  0  0  0
   -0.4971    0.6897    2.6250 C   0  0  0  0  0  0  0  0  0  0  0  0
   -0.4567    2.0705    2.6400 N   0  3  0  0  0  0  0  0  0  0  0  0
    0.0201    2.6297    1.9268 H   0  0  0  0  0  0  0  0  0  0  0  0
   -1.2129    2.5073    3.6667 C   0  0  0  0  0  0  0  0  0  0  0  0
   -1.3832    3.5508    3.9237 H   0  0  0  0  0  0  0  0  0  0  0  0
   -1.7314    1.4334    4.3043 N   0  0  0  0  0  0  0  0  0  0  0  0
   -2.3439    1.4590    5.1153 H   0  0  0  0  0  0  0  0  0  0  0  0
   -1.2916    0.2837    3.6629 C   0  0  0  0  0  0  0  0  0  0  0  0
   -1.5271   -0.7440    3.9254 H   0  0  0  0  0  0  0  0  0  0  0  0
    0.4398   -0.9601   -0.8463 C   0  0  0  0  0  0  0  0  0  0  0  0
    0.1072   -2.0654   -1.2771 O   0  0  0  0  0  0  0  0  0  0  0  0
    1.5444   -0.3221   -1.2524 N   0  0  0  0  0  0  0  0  0  0  0  0
    1.7313    0.5848   -0.8524 H   0  0  0  0  0  0  0  0  0  0  0  0
    2.5077   -0.8372   -2.2302 C   0  0  0  0  0  0  0  0  0  0  0  0
    2.3395   -0.3715   -3.2033 H   0  0  0  0  0  0  0  0  0  0  0  0
    3.5248   -0.6091   -1.9069 H   0  0  0  0  0  0  0  0  0  0  0  0
    2.4120   -1.9197   -2.3380 H   0  0  0  0  0  0  0  0  0  0  0  0
  5  6  2  0  0  0  0
  5  7  1  0  0  0  0
  2  3  1  0  0  0  0
  2  4  1  0  0  0  0
  2  5  1  0  0  0  0
  1  2  1  0  0  0  0
 23 24  2  0  0  0  0
 23 25  1  0  0  0  0
 21 22  1  0  0  0  0
 19 20  1  0  0  0  0
 19 21  1  0  0  0  0
 17 18  1  0  0  0  0
 17 19  1  0  0  0  0
 15 16  1  0  0  0  0
 15 17  2  0  0  0  0
 14 15  1  0  0  0  0
 14 21  2  0  0  0  0
 11 12  1  0  0  0  0
 11 13  1  0  0  0  0
 11 14  1  0  0  0  0
  9 10  1  0  0  0  0
  9 11  1  0  0  0  0
  9 23  1  0  0  0  0
  7  8  1  0  0  0  0
  7  9  1  0  0  0  0
 27 28  1  0  0  0  0
 27 29  1  0  0  0  0
 27 30  1  0  0  0  0
 25 26  1  0  0  0  0
 25 27  1  0  0  0  0
M  CHG  1  15   1
M  END
$$$$
default_name
  -OEChem-01062215323D

 30 30  0     1  0  0  0  0  0999 V2000
   -3.5507   -3.2183    1.8116 H   0  0  0  0  0  0  0  0  0  0  0  0
   -3.4597   -2.3913    1.1076 C   0  0  0  0  0  0  0  0  0  0  0  0
   -4.1577   -1.6043    1.3866 H   0  0  0  0  0  0  0  0  0  0  0  0
   -3.6807   -2.7523    0.1036 H   0  0  0  0  0  0  0  0  0  0  0  0
   -2.0477   -1.8543    1.1546 C   0  0  0  0  0  0  0  0  0  0  0  0
   -1.2227   -2.3443    1.9146 O   0  0  0  0  0  0  0  0  0  0  0  0
   -1.7517   -0.8483    0.3266 N   0  0  0  0  0  0  0  0  0  0  0  0
   -2.4847   -0.5123   -0.2804 H   0  0  0  0  0  0  0  0  0  0  0  0
   -0.4117   -0.2463    0.2186 C   0  0  1  0  0  0  0  0  0  0  0  0
   -0.5304    0.8377    0.1465 H   0  0  0  0  0  0  0  0  0  0  0  0
    0.3649   -0.5347    1.5244 C   0  0  0  0  0  0  0  0  0  0  0  0
    0.4141   -1.6170    1.6684 H   0  0  0  0  0  0  0  0  0  0  0  0
    1.3914   -0.1792    1.4128 H   0  0  0  0  0  0  0  0  0  0  0  0
   -0.2179    0.0947    2.7721 C   0  0  0  0  0  0  0  0  0  0  0  0
   -0.1325    1.4324    3.1059 N   0  3  0  0  0  0  0  0  0  0  0  0
    0.2854    2.1414    2.4965 H   0  0  0  0  0  0  0  0  0  0  0  0
   -0.7642    1.6188    4.2819 C   0  0  0  0  0  0  0  0  0  0  0  0
   -0.8738    2.5730    4.7932 H   0  0  0  0  0  0  0  0  0  0  0  0
   -1.2476    0.4279    4.7022 N   0  0  0  0  0  0  0  0  0  0  0  0
   -1.7717    0.2648    5.5578 H   0  0  0  0  0  0  0  0  0  0  0  0
   -0.9131   -0.5403    3.7655 C   0  0  0  0  0  0  0  0  0  0  0  0
   -1.1526   -1.5994    3.8036 H   0  0  0  0  0  0  0  0  0  0  0  0
    0.3020   -0.6933   -1.0696 C   0  0  0  0  0  0  0  0  0  0  0  0
   -0.2464   -1.4709   -1.8522 O   0  0  0  0  0  0  0  0  0  0  0  0
    1.5318   -0.2042   -1.2703 N   0  0  0  0  0  0  0  0  0  0  0  0
    1.8962    0.4355   -0.5808 H   0  0  0  0  0  0  0  0  0  0  0  0
    2.3944   -0.5261   -2.4112 C   0  0  0  0  0  0  0  0  0  0  0  0
    2.3648    0.2831   -3.1436 H   0  0  0  0  0  0  0  0  0  0  0  0
    3.4249   -0.6530   -2.0749 H   0  0  0  0  0  0  0  0  0  0  0  0
    2.0709   -1.4498   -2.8955 H   0  0  0  0  0  0  0  0  0  0  0  0
  5  6  2  0  0  0  0
  5  7  1  0  0  0  0
  2  3  1  0  0  0  0
  2  4  1  0  0  0  0
  2  5  1  0  0  0  0
  1  2  1  0  0  0  0
 23 24  2  0  0  0  0
 23 25  1  0  0  0  0
 21 22  1  0  0  0  0
 19 20  1  0  0  0  0
 19 21  1  0  0  0  0
 17 18  1  0  0  0  0
 17 19  1  0  0  0  0
 15 16  1  0  0  0  0
 15 17  2  0  0  0  0
 14 15  1  0  0  0  0
 14 21  2  0  0  0  0
 11 12  1  0  0  0  0
 11 13  1  0  0  0  0
 11 14  1  0  0  0  0
  9 10  1  0  0  0  0
  9 11  1  0  0  0  0
  9 23  1  0  0  0  0
  7  8  1  0  0  0  0
  7  9  1  0  0  0  0
 27 28  1  0  0  0  0
 27 29  1  0  0  0  0
 27 30  1  0  0  0  0
 25 26  1  0  0  0  0
 25 27  1  0  0  0  0
M  CHG  1  15   1
M  END
$$$$
default_name
  -OEChem-01062215323D

 30 30  0     1  0  0  0  0  0999 V2000
   -3.5507   -3.2183    1.8116 H   0  0  0  0  0  0  0  0  0  0  0  0
   -3.4597   -2.3913    1.1076 C   0  0  0  0  0  0  0  0  0  0  0  0
   -4.1577   -1.6043    1.3866 H   0  0  0  0  0  0  0  0  0  0  0  0
   -3.6807   -2.7523    0.1036 H   0  0  0  0  0  0  0  0  0  0  0  0
   -2.0477   -1.8543    1.1546 C   0  0  0  0  0  0  0  0  0  0  0  0
   -1.2227   -2.3443    1.9146 O   0  0  0  0  0  0  0  0  0  0  0  0
   -1.7517   -0.8483    0.3266 N   0  0  0  0  0  0  0  0  0  0  0  0
   -2.4847   -0.5123   -0.2804 H   0  0  0  0  0  0  0  0  0  0  0  0
   -0.4117   -0.2463    0.2186 C   0  0  1  0  0  0  0  0  0  0  0  0
   -0.5304    0.8377    0.1465 H   0  0  0  0  0  0  0  0  0  0  0  0
    0.3649   -0.5347    1.5244 C   0  0  0  0  0  0  0  0  0  0  0  0
    0.4141   -1.6170    1.6684 H   0  0  0  0  0  0  0  0  0  0  0  0
    1.3914   -0.1792    1.4128 H   0  0  0  0  0  0  0  0  0  0  0  0
   -0.2179    0.0947    2.7721 C   0  0  0  0  0  0  0  0  0  0  0  0
   -0.1325    1.4324    3.1059 N   0  3  0  0  0  0  0  0  0  0  0  0
    0.2854    2.1414    2.4965 H   0  0  0  0  0  0  0  0  0  0  0  0
   -0.7642    1.6188    4.2819 C   0  0  0  0  0  0  0  0  0  0  0  0
   -0.8738    2.5730    4.7932 H   0  0  0  0  0  0  0  0  0  0  0  0
   -1.2476    0.4279    4.7022 N   0  0  0  0  0  0  0  0  0  0  0  0
   -1.7717    0.2648    5.5578 H   0  0  0  0  0  0  0  0  0  0  0  0
   -0.9131   -0.5403    3.7655 C   0  0  0  0  0  0  0  0  0  0  0  0
   -1.1526   -1.5994    3.8036 H   0  0  0  0  0  0  0  0  0  0  0  0
    0.3020   -0.6933   -1.0696 C   0  0  0  0  0  0  0  0  0  0  0  0
   -0.3274   -1.2379   -1.9780 O   0  0  0  0  0  0  0  0  0  0  0  0
    1.6204   -0.4691   -1.1293 N   0  0  0  0  0  0  0  0  0  0  0  0
    2.0497   -0.0071   -0.3422 H   0  0  0  0  0  0  0  0  0  0  0  0
    2.4925   -0.8443   -2.2464 C   0  0  0  0  0  0  0  0  0  0  0  0
    2.7001    0.0280   -2.8694 H   0  0  0  0  0  0  0  0  0  0  0  0
    3.4388   -1.2328   -1.8660 H   0  0  0  0  0  0  0  0  0  0  0  0
    2.0246   -1.6136   -2.8644 H   0  0  0  0  0  0  0  0  0  0  0  0
  5  6  2  0  0  0  0
  5  7  1  0  0  0  0
  2  3  1  0  0  0  0
  2  4  1  0  0  0  0
  2  5  1  0  0  0  0
  1  2  1  0  0  0  0
 23 24  2  0  0  0  0
 23 25  1  0  0  0  0
 21 22  1  0  0  0  0
 19 20  1  0  0  0  0
 19 21  1  0  0  0  0
 17 18  1  0  0  0  0
 17 19  1  0  0  0  0
 15 16  1  0  0  0  0
 15 17  2  0  0  0  0
 14 15  1  0  0  0  0
 14 21  2  0  0  0  0
 11 12  1  0  0  0  0
 11 13  1  0  0  0  0
 11 14  1  0  0  0  0
  9 10  1  0  0  0  0
  9 11  1  0  0  0  0
  9 23  1  0  0  0  0
  7  8  1  0  0  0  0
  7  9  1  0  0  0  0
 27 28  1  0  0  0  0
 27 29  1  0  0  0  0
 27 30  1  0  0  0  0
 25 26  1  0  0  0  0
 25 27  1  0  0  0  0
M  CHG  1  15   1
M  END
$$$$
default_name
  -OEChem-01062215323D

 30 30  0     1  0  0  0  0  0999 V2000
   -3.5507   -3.2183    1.8116 H   0  0  0  0  0  0  0  0  0  0  0  0
   -3.4597   -2.3913    1.1076 C   0  0  0  0  0  0  0  0  0  0  0  0
   -4.1577   -1.6043    1.3866 H   0  0  0  0  0  0  0  0  0  0  0  0
   -3.6807   -2.7523    0.1036 H   0  0  0  0  0  0  0  0  0  0  0  0
   -2.0477   -1.8543    1.1546 C   0  0  0  0  0  0  0  0  0  0  0  0
   -1.2227   -2.3443    1.9146 O   0  0  0  0  0  0  0  0  0  0  0  0
   -1.7517   -0.8483    0.3266 N   0  0  0  0  0  0  0  0  0  0  0  0
   -2.4847   -0.5123   -0.2804 H   0  0  0  0  0  0  0  0  0  0  0  0
   -0.4117   -0.2463    0.2186 C   0  0  1  0  0  0  0  0  0  0  0  0
   -0.5304    0.8377    0.1465 H   0  0  0  0  0  0  0  0  0  0  0  0
    0.3649   -0.5347    1.5244 C   0  0  0  0  0  0  0  0  0  0  0  0
    0.4141   -1.6170    1.6684 H   0  0  0  0  0  0  0  0  0  0  0  0
    1.3914   -0.1792    1.4128 H   0  0  0  0  0  0  0  0  0  0  0  0
   -0.2179    0.0947    2.7721 C   0  0  0  0  0  0  0  0  0  0  0  0
   -0.1325    1.4324    3.1059 N   0  3  0  0  0  0  0  0  0  0  0  0
    0.2854    2.1414    2.4965 H   0  0  0  0  0  0  0  0  0  0  0  0
   -0.7642    1.6188    4.2819 C   0  0  0  0  0  0  0  0  0  0  0  0
   -0.8738    2.5730    4.7932 H   0  0  0  0  0  0  0  0  0  0  0  0
   -1.2476    0.4279    4.7022 N   0  0  0  0  0  0  0  0  0  0  0  0
   -1.7717    0.2648    5.5578 H   0  0  0  0  0  0  0  0  0  0  0  0
   -0.9131   -0.5403    3.7655 C   0  0  0  0  0  0  0  0  0  0  0  0
   -1.1526   -1.5994    3.8036 H   0  0  0  0  0  0  0  0  0  0  0  0
    0.3020   -0.6933   -1.0696 C   0  0  0  0  0  0  0  0  0  0  0  0
   -0.3457   -0.9802   -2.0776 O   0  0  0  0  0  0  0  0  0  0  0  0
    1.6380   -0.7611   -1.0182 N   0  0  0  0  0  0  0  0  0  0  0  0
    2.0842   -0.4964   -0.1532 H   0  0  0  0  0  0  0  0  0  0  0  0
    2.5060   -1.1927   -2.1180 C   0  0  0  0  0  0  0  0  0  0  0  0
    2.9480   -0.3239   -2.6099 H   0  0  0  0  0  0  0  0  0  0  0  0
    3.3109   -1.8210   -1.7327 H   0  0  0  0  0  0  0  0  0  0  0  0
    1.9421   -1.7654   -2.8574 H   0  0  0  0  0  0  0  0  0  0  0  0
  5  6  2  0  0  0  0
  5  7  1  0  0  0  0
  2  3  1  0  0  0  0
  2  4  1  0  0  0  0
  2  5  1  0  0  0  0
  1  2  1  0  0  0  0
 23 24  2  0  0  0  0
 23 25  1  0  0  0  0
 21 22  1  0  0  0  0
 19 20  1  0  0  0  0
 19 21  1  0  0  0  0
 17 18  1  0  0  0  0
 17 19  1  0  0  0  0
 15 16  1  0  0  0  0
 15 17  2  0  0  0  0
 14 15  1  0  0  0  0
 14 21  2  0  0  0  0
 11 12  1  0  0  0  0
 11 13  1  0  0  0  0
 11 14  1  0  0  0  0
  9 10  1  0  0  0  0
  9 11  1  0  0  0  0
  9 23  1  0  0  0  0
  7  8  1  0  0  0  0
  7  9  1  0  0  0  0
 27 28  1  0  0  0  0
 27 29  1  0  0  0  0
 27 30  1  0  0  0  0
 25 26  1  0  0  0  0
 25 27  1  0  0  0  0
M  CHG  1  15   1
M  END
$$$$
default_name
  -OEChem-01062215323D

 30 30  0     1  0  0  0  0  0999 V2000
   -3.5507   -3.2183    1.8116 H   0  0  0  0  0  0  0  0  0  0  0  0
   -3.4597   -2.3913    1.1076 C   0  0  0  0  0  0  0  0  0  0  0  0
   -4.1577   -1.6043    1.3866 H   0  0  0  0  0  0  0  0  0  0  0  0
   -3.6807   -2.7523    0.1036 H   0  0  0  0  0  0  0  0  0  0  0  0
   -2.0477   -1.8543    1.1546 C   0  0  0  0  0  0  0  0  0  0  0  0
   -1.2227   -2.3443    1.9146 O   0  0  0  0  0  0  0  0  0  0  0  0
   -1.7517   -0.8483    0.3266 N   0  0  0  0  0  0  0  0  0  0  0  0
   -2.4847   -0.5123   -0.2804 H   0  0  0  0  0  0  0  0  0  0  0  0
   -0.4117   -0.2463    0.2186 C   0  0  1  0  0  0  0  0  0  0  0  0
   -0.5304    0.8377    0.1465 H   0  0  0  0  0  0  0  0  0  0  0  0
    0.3649   -0.5347    1.5244 C   0  0  0  0  0  0  0  0  0  0  0  0
    0.4141   -1.6170    1.6684 H   0  0  0  0  0  0  0  0  0  0  0  0
    1.3914   -0.1792    1.4128 H   0  0  0  0  0  0  0  0  0  0  0  0
   -0.2179    0.0947    2.7721 C   0  0  0  0  0  0  0  0  0  0  0  0
   -0.1325    1.4324    3.1059 N   0  3  0  0  0  0  0  0  0  0  0  0
    0.2854    2.1414    2.4965 H   0  0  0  0  0  0  0  0  0  0  0  0
   -0.7642    1.6188    4.2819 C   0  0  0  0  0  0  0  0  0  0  0  0
   -0.8738    2.5730    4.7932 H   0  0  0  0  0  0  0  0  0  0  0  0
   -1.2476    0.4279    4.7022 N   0  0  0  0  0  0  0  0  0  0  0  0
   -1.7717    0.2648    5.5578 H   0  0  0  0  0  0  0  0  0  0  0  0
   -0.9131   -0.5403    3.7655 C   0  0  0  0  0  0  0  0  0  0  0  0
   -1.1526   -1.5994    3.8036 H   0  0  0  0  0  0  0  0  0  0  0  0
    0.3020   -0.6933   -1.0696 C   0  0  0  0  0  0  0  0  0  0  0  0
   -0.3001   -0.7153   -2.1442 O   0  0  0  0  0  0  0  0  0  0  0  0
    1.5833   -1.0603   -0.9447 N   0  0  0  0  0  0  0  0  0  0  0  0
    1.9973   -0.9992   -0.0269 H   0  0  0  0  0  0  0  0  0  0  0  0
    2.4338   -1.5476   -2.0349 C   0  0  0  0  0  0  0  0  0  0  0  0
    3.0917   -0.7487   -2.3829 H   0  0  0  0  0  0  0  0  0  0  0  0
    3.0500   -2.3774   -1.6842 H   0  0  0  0  0  0  0  0  0  0  0  0
    1.8289   -1.8950   -2.8751 H   0  0  0  0  0  0  0  0  0  0  0  0
  5  6  2  0  0  0  0
  5  7  1  0  0  0  0
  2  3  1  0  0  0  0
  2  4  1  0  0  0  0
  2  5  1  0  0  0  0
  1  2  1  0  0  0  0
 23 24  2  0  0  0  0
 23 25  1  0  0  0  0
 21 22  1  0  0  0  0
 19 20  1  0  0  0  0
 19 21  1  0  0  0  0
 17 18  1  0  0  0  0
 17 19  1  0  0  0  0
 15 16  1  0  0  0  0
 15 17  2  0  0  0  0
 14 15  1  0  0  0  0
 14 21  2  0  0  0  0
 11 12  1  0  0  0  0
 11 13  1  0  0  0  0
 11 14  1  0  0  0  0
  9 10  1  0  0  0  0
  9 11  1  0  0  0  0
  9 23  1  0  0  0  0
  7  8  1  0  0  0  0
  7  9  1  0  0  0  0
 27 28  1  0  0  0  0
 27 29  1  0  0  0  0
 27 30  1  0  0  0  0
 25 26  1  0  0  0  0
 25 27  1  0  0  0  0
M  CHG  1  15   1
M  END
$$$$
default_name
  -OEChem-01062215323D

 30 30  0     1  0  0  0  0  0999 V2000
   -3.5507   -3.2183    1.8116 H   0  0  0  0  0  0  0  0  0  0  0  0
   -3.4597   -2.3913    1.1076 C   0  0  0  0  0  0  0  0  0  0  0  0
   -4.1577   -1.6043    1.3866 H   0  0  0  0  0  0  0  0  0  0  0  0
   -3.6807   -2.7523    0.1036 H   0  0  0  0  0  0  0  0  0  0  0  0
   -2.0477   -1.8543    1.1546 C   0  0  0  0  0  0  0  0  0  0  0  0
   -1.2227   -2.3443    1.9146 O   0  0  0  0  0  0  0  0  0  0  0  0
   -1.7517   -0.8483    0.3266 N   0  0  0  0  0  0  0  0  0  0  0  0
   -2.4847   -0.5123   -0.2804 H   0  0  0  0  0  0  0  0  0  0  0  0
   -0.4117   -0.2463    0.2186 C   0  0  1  0  0  0  0  0  0  0  0  0
   -0.5304    0.8377    0.1465 H   0  0  0  0  0  0  0  0  0  0  0  0
    0.3649   -0.5347    1.5244 C   0  0  0  0  0  0  0  0  0  0  0  0
    0.4141   -1.6170    1.6684 H   0  0  0  0  0  0  0  0  0  0  0  0
    1.3914   -0.1792    1.4128 H   0  0  0  0  0  0  0  0  0  0  0  0
   -0.2179    0.0947    2.7721 C   0  0  0  0  0  0  0  0  0  0  0  0
   -0.1325    1.4324    3.1059 N   0  3  0  0  0  0  0  0  0  0  0  0
    0.2854    2.1414    2.4965 H   0  0  0  0  0  0  0  0  0  0  0  0
   -0.7642    1.6188    4.2819 C   0  0  0  0  0  0  0  0  0  0  0  0
   -0.8738    2.5730    4.7932 H   0  0  0  0  0  0  0  0  0  0  0  0
   -1.2476    0.4279    4.7022 N   0  0  0  0  0  0  0  0  0  0  0  0
   -1.7717    0.2648    5.5578 H   0  0  0  0  0  0  0  0  0  0  0  0
   -0.9131   -0.5403    3.7655 C   0  0  0  0  0  0  0  0  0  0  0  0
   -1.1526   -1.5994    3.8036 H   0  0  0  0  0  0  0  0  0  0  0  0
    0.3020   -0.6933   -1.0696 C   0  0  0  0  0  0  0  0  0  0  0  0
   -0.1936   -0.4614   -2.1734 O   0  0  0  0  0  0  0  0  0  0  0  0
    1.4602   -1.3463   -0.9136 N   0  0  0  0  0  0  0  0  0  0  0  0
    1.7949   -1.4812    0.0283 H   0  0  0  0  0  0  0  0  0  0  0  0
    2.2810   -1.8847   -2.0025 C   0  0  0  0  0  0  0  0  0  0  0  0
    3.1215   -1.2175   -2.2037 H   0  0  0  0  0  0  0  0  0  0  0  0
    2.6737   -2.8641   -1.7237 H   0  0  0  0  0  0  0  0  0  0  0  0
    1.6929   -1.9936   -2.9162 H   0  0  0  0  0  0  0  0  0  0  0  0
  5  6  2  0  0  0  0
  5  7  1  0  0  0  0
  2  3  1  0  0  0  0
  2  4  1  0  0  0  0
  2  5  1  0  0  0  0
  1  2  1  0  0  0  0
 23 24  2  0  0  0  0
 23 25  1  0  0  0  0
 21 22  1  0  0  0  0
 19 20  1  0  0  0  0
 19 21  1  0  0  0  0
 17 18  1  0  0  0  0
 17 19  1  0  0  0  0
 15 16  1  0  0  0  0
 15 17  2  0  0  0  0
 14 15  1  0  0  0  0
 14 21  2  0  0  0  0
 11 12  1  0  0  0  0
 11 13  1  0  0  0  0
 11 14  1  0  0  0  0
  9 10  1  0  0  0  0
  9 11  1  0  0  0  0
  9 23  1  0  0  0  0
  7  8  1  0  0  0  0
  7  9  1  0  0  0  0
 27 28  1  0  0  0  0
 27 29  1  0  0  0  0
 27 30  1  0  0  0  0
 25 26  1  0  0  0  0
 25 27  1  0  0  0  0
M  CHG  1  15   1
M  END
$$$$
default_name
  -OEChem-01062215323D

 30 30  0     1  0  0  0  0  0999 V2000
   -3.5507   -3.2183    1.8116 H   0  0  0  0  0  0  0  0  0  0  0  0
   -3.4597   -2.3913    1.1076 C   0  0  0  0  0  0  0  0  0  0  0  0
   -4.1577   -1.6043    1.3866 H   0  0  0  0  0  0  0  0  0  0  0  0
   -3.6807   -2.7523    0.1036 H   0  0  0  0  0  0  0  0  0  0  0  0
   -2.0477   -1.8543    1.1546 C   0  0  0  0  0  0  0  0  0  0  0  0
   -1.2227   -2.3443    1.9146 O   0  0  0  0  0  0  0  0  0  0  0  0
   -1.7517   -0.8483    0.3266 N   0  0  0  0  0  0  0  0  0  0  0  0
   -2.4847   -0.5123   -0.2804 H   0  0  0  0  0  0  0  0  0  0  0  0
   -0.4117   -0.2463    0.2186 C   0  0  1  0  0  0  0  0  0  0  0  0
   -0.5304    0.8377    0.1465 H   0  0  0  0  0  0  0  0  0  0  0  0
    0.3649   -0.5347    1.5244 C   0  0  0  0  0  0  0  0  0  0  0  0
    0.4141   -1.6170    1.6684 H   0  0  0  0  0  0  0  0  0  0  0  0
    1.3914   -0.1792    1.4128 H   0  0  0  0  0  0  0  0  0  0  0  0
   -0.2179    0.0947    2.7721 C   0  0  0  0  0  0  0  0  0  0  0  0
   -0.1325    1.4324    3.1059 N   0  3  0  0  0  0  0  0  0  0  0  0
    0.2854    2.1414    2.4965 H   0  0  0  0  0  0  0  0  0  0  0  0
   -0.7642    1.6188    4.2819 C   0  0  0  0  0  0  0  0  0  0  0  0
   -0.8738    2.5730    4.7932 H   0  0  0  0  0  0  0  0  0  0  0  0
   -1.2476    0.4279    4.7022 N   0  0  0  0  0  0  0  0  0  0  0  0
   -1.7717    0.2648    5.5578 H   0  0  0  0  0  0  0  0  0  0  0  0
   -0.9131   -0.5403    3.7655 C   0  0  0  0  0  0  0  0  0  0  0  0
   -1.1526   -1.5994    3.8036 H   0  0  0  0  0  0  0  0  0  0  0  0
    0.3020   -0.6933   -1.0696 C   0  0  0  0  0  0  0  0  0  0  0  0
   -0.0336   -0.2356   -2.1631 O   0  0  0  0  0  0  0  0  0  0  0  0
    1.2770   -1.5996   -0.9272 N   0  0  0  0  0  0  0  0  0  0  0  0
    1.4908   -1.9096    0.0085 H   0  0  0  0  0  0  0  0  0  0  0  0
    2.0579   -2.1811   -2.0232 C   0  0  0  0  0  0  0  0  0  0  0  0
    3.0352   -1.6981   -2.0847 H   0  0  0  0  0  0  0  0  0  0  0  0
    2.2078   -3.2480   -1.8486 H   0  0  0  0  0  0  0  0  0  0  0  0
    1.5432   -2.0545   -2.9780 H   0  0  0  0  0  0  0  0  0  0  0  0
  5  6  2  0  0  0  0
  5  7  1  0  0  0  0
  2  3  1  0  0  0  0
  2  4  1  0  0  0  0
  2  5  1  0  0  0  0
  1  2  1  0  0  0  0
 23 24  2  0  0  0  0
 23 25  1  0  0  0  0
 21 22  1  0  0  0  0
 19 20  1  0  0  0  0
 19 21  1  0  0  0  0
 17 18  1  0  0  0  0
 17 19  1  0  0  0  0
 15 16  1  0  0  0  0
 15 17  2  0  0  0  0
 14 15  1  0  0  0  0
 14 21  2  0  0  0  0
 11 12  1  0  0  0  0
 11 13  1  0  0  0  0
 11 14  1  0  0  0  0
  9 10  1  0  0  0  0
  9 11  1  0  0  0  0
  9 23  1  0  0  0  0
  7  8  1  0  0  0  0
  7  9  1  0  0  0  0
 27 28  1  0  0  0  0
 27 29  1  0  0  0  0
 27 30  1  0  0  0  0
 25 26  1  0  0  0  0
 25 27  1  0  0  0  0
M  CHG  1  15   1
M  END
$$$$
default_name
  -OEChem-01062215323D

 30 30  0     1  0  0  0  0  0999 V2000
   -3.5507   -3.2183    1.8116 H   0  0  0  0  0  0  0  0  0  0  0  0
   -3.4597   -2.3913    1.1076 C   0  0  0  0  0  0  0  0  0  0  0  0
   -4.1577   -1.6043    1.3866 H   0  0  0  0  0  0  0  0  0  0  0  0
   -3.6807   -2.7523    0.1036 H   0  0  0  0  0  0  0  0  0  0  0  0
   -2.0477   -1.8543    1.1546 C   0  0  0  0  0  0  0  0  0  0  0  0
   -1.2227   -2.3443    1.9146 O   0  0  0  0  0  0  0  0  0  0  0  0
   -1.7517   -0.8483    0.3266 N   0  0  0  0  0  0  0  0  0  0  0  0
   -2.4847   -0.5123   -0.2804 H   0  0  0  0  0  0  0  0  0  0  0  0
   -0.4117   -0.2463    0.2186 C   0  0  1  0  0  0  0  0  0  0  0  0
   -0.5304    0.8377    0.1465 H   0  0  0  0  0  0  0  0  0  0  0  0
    0.3649   -0.5347    1.5244 C   0  0  0  0  0  0  0  0  0  0  0  0
    0.4141   -1.6170    1.6684 H   0  0  0  0  0  0  0  0  0  0  0  0
    1.3914   -0.1792    1.4128 H   0  0  0  0  0  0  0  0  0  0  0  0
   -0.2179    0.0947    2.7721 C   0  0  0  0  0  0  0  0  0  0  0  0
   -0.1325    1.4324    3.1059 N   0  3  0  0  0  0  0  0  0  0  0  0
    0.2854    2.1414    2.4965 H   0  0  0  0  0  0  0  0  0  0  0  0
   -0.7642    1.6188    4.2819 C   0  0  0  0  0  0  0  0  0  0  0  0
   -0.8738    2.5730    4.7932 H   0  0  0  0  0  0  0  0  0  0  0  0
   -1.2476    0.4279    4.7022 N   0  0  0  0  0  0  0  0  0  0  0  0
   -1.7717    0.2648    5.5578 H   0  0  0  0  0  0  0  0  0  0  0  0
   -0.9131   -0.5403    3.7655 C   0  0  0  0  0  0  0  0  0  0  0  0
   -1.1526   -1.5994    3.8036 H   0  0  0  0  0  0  0  0  0  0  0  0
    0.3020   -0.6933   -1.0696 C   0  0  0  0  0  0  0  0  0  0  0  0
    0.1691   -0.0535   -2.1140 O   0  0  0  0  0  0  0  0  0  0  0  0
    1.0462   -1.8029   -0.9845 N   0  0  0  0  0  0  0  0  0  0  0  0
    1.1058   -2.2551   -0.0849 H   0  0  0  0  0  0  0  0  0  0  0  0
    1.7798   -2.4166   -2.0956 C   0  0  0  0  0  0  0  0  0  0  0  0
    2.8388   -2.1580   -2.0339 H   0  0  0  0  0  0  0  0  0  0  0  0
    1.6840   -3.5029   -2.0503 H   0  0  0  0  0  0  0  0  0  0  0  0
    1.3901   -2.0734   -3.0563 H   0  0  0  0  0  0  0  0  0  0  0  0
  5  6  2  0  0  0  0
  5  7  1  0  0  0  0
  2  3  1  0  0  0  0
  2  4  1  0  0  0  0
  2  5  1  0  0  0  0
  1  2  1  0  0  0  0
 23 24  2  0  0  0  0
 23 25  1  0  0  0  0
 21 22  1  0  0  0  0
 19 20  1  0  0  0  0
 19 21  1  0  0  0  0
 17 18  1  0  0  0  0
 17 19  1  0  0  0  0
 15 16  1  0  0  0  0
 15 17  2  0  0  0  0
 14 15  1  0  0  0  0
 14 21  2  0  0  0  0
 11 12  1  0  0  0  0
 11 13  1  0  0  0  0
 11 14  1  0  0  0  0
  9 10  1  0  0  0  0
  9 11  1  0  0  0  0
  9 23  1  0  0  0  0
  7  8  1  0  0  0  0
  7  9  1  0  0  0  0
 27 28  1  0  0  0  0
 27 29  1  0  0  0  0
 27 30  1  0  0  0  0
 25 26  1  0  0  0  0
 25 27  1  0  0  0  0
M  CHG  1  15   1
M  END
$$$$
default_name
  -OEChem-01062215323D

 30 30  0     1  0  0  0  0  0999 V2000
   -3.5507   -3.2183    1.8116 H   0  0  0  0  0  0  0  0  0  0  0  0
   -3.4597   -2.3913    1.1076 C   0  0  0  0  0  0  0  0  0  0  0  0
   -4.1577   -1.6043    1.3866 H   0  0  0  0  0  0  0  0  0  0  0  0
   -3.6807   -2.7523    0.1036 H   0  0  0  0  0  0  0  0  0  0  0  0
   -2.0477   -1.8543    1.1546 C   0  0  0  0  0  0  0  0  0  0  0  0
   -1.2227   -2.3443    1.9146 O   0  0  0  0  0  0  0  0  0  0  0  0
   -1.7517   -0.8483    0.3266 N   0  0  0  0  0  0  0  0  0  0  0  0
   -2.4847   -0.5123   -0.2804 H   0  0  0  0  0  0  0  0  0  0  0  0
   -0.4117   -0.2463    0.2186 C   0  0  1  0  0  0  0  0  0  0  0  0
   -0.5304    0.8377    0.1465 H   0  0  0  0  0  0  0  0  0  0  0  0
    0.3649   -0.5347    1.5244 C   0  0  0  0  0  0  0  0  0  0  0  0
    0.4141   -1.6170    1.6684 H   0  0  0  0  0  0  0  0  0  0  0  0
    1.3914   -0.1792    1.4128 H   0  0  0  0  0  0  0  0  0  0  0  0
   -0.2179    0.0947    2.7721 C   0  0  0  0  0  0  0  0  0  0  0  0
   -0.1325    1.4324    3.1059 N   0  3  0  0  0  0  0  0  0  0  0  0
    0.2854    2.1414    2.4965 H   0  0  0  0  0  0  0  0  0  0  0  0
   -0.7642    1.6188    4.2819 C   0  0  0  0  0  0  0  0  0  0  0  0
   -0.8738    2.5730    4.7932 H   0  0  0  0  0  0  0  0  0  0  0  0
   -1.2476    0.4279    4.7022 N   0  0  0  0  0  0  0  0  0  0  0  0
   -1.7717    0.2648    5.5578 H   0  0  0  0  0  0  0  0  0  0  0  0
   -0.9131   -0.5403    3.7655 C   0  0  0  0  0  0  0  0  0  0  0  0
   -1.1526   -1.5994    3.8036 H   0  0  0  0  0  0  0  0  0  0  0  0
    0.3020   -0.6933   -1.0696 C   0  0  0  0  0  0  0  0  0  0  0  0
    0.4007    0.0726   -2.0295 O   0  0  0  0  0  0  0  0  0  0  0  0
    0.7835   -1.9424   -1.0816 N   0  0  0  0  0  0  0  0  0  0  0  0
    0.6661   -2.4942   -0.2455 H   0  0  0  0  0  0  0  0  0  0  0  0
    1.4655   -2.5752   -2.2147 C   0  0  0  0  0  0  0  0  0  0  0  0
    2.5456   -2.5658   -2.0548 H   0  0  0  0  0  0  0  0  0  0  0  0
    1.1380   -3.6114   -2.3151 H   0  0  0  0  0  0  0  0  0  0  0  0
    1.2440   -2.0491   -3.1456 H   0  0  0  0  0  0  0  0  0  0  0  0
  5  6  2  0  0  0  0
  5  7  1  0  0  0  0
  2  3  1  0  0  0  0
  2  4  1  0  0  0  0
  2  5  1  0  0  0  0
  1  2  1  0  0  0  0
 23 24  2  0  0  0  0
 23 25  1  0  0  0  0
 21 22  1  0  0  0  0
 19 20  1  0  0  0  0
 19 21  1  0  0  0  0
 17 18  1  0  0  0  0
 17 19  1  0  0  0  0
 15 16  1  0  0  0  0
 15 17  2  0  0  0  0
 14 15  1  0  0  0  0
 14 21  2  0  0  0  0
 11 12  1  0  0  0  0
 11 13  1  0  0  0  0
 11 14  1  0  0  0  0
  9 10  1  0  0  0  0
  9 11  1  0  0  0  0
  9 23  1  0  0  0  0
  7  8  1  0  0  0  0
  7  9  1  0  0  0  0
 27 28  1  0  0  0  0
 27 29  1  0  0  0  0
 27 30  1  0  0  0  0
 25 26  1  0  0  0  0
 25 27  1  0  0  0  0
M  CHG  1  15   1
M  END
$$$$
default_name
  -OEChem-01062215323D

 30 30  0     1  0  0  0  0  0999 V2000
   -3.5507   -3.2183    1.8116 H   0  0  0  0  0  0  0  0  0  0  0  0
   -3.4597   -2.3913    1.1076 C   0  0  0  0  0  0  0  0  0  0  0  0
   -4.1577   -1.6043    1.3866 H   0  0  0  0  0  0  0  0  0  0  0  0
   -3.6807   -2.7523    0.1036 H   0  0  0  0  0  0  0  0  0  0  0  0
   -2.0477   -1.8543    1.1546 C   0  0  0  0  0  0  0  0  0  0  0  0
   -1.2227   -2.3443    1.9146 O   0  0  0  0  0  0  0  0  0  0  0  0
   -1.7517   -0.8483    0.3266 N   0  0  0  0  0  0  0  0  0  0  0  0
   -2.4847   -0.5123   -0.2804 H   0  0  0  0  0  0  0  0  0  0  0  0
   -0.4117   -0.2463    0.2186 C   0  0  1  0  0  0  0  0  0  0  0  0
   -0.5304    0.8377    0.1465 H   0  0  0  0  0  0  0  0  0  0  0  0
    0.3649   -0.5347    1.5244 C   0  0  0  0  0  0  0  0  0  0  0  0
    0.4141   -1.6170    1.6684 H   0  0  0  0  0  0  0  0  0  0  0  0
    1.3914   -0.1792    1.4128 H   0  0  0  0  0  0  0  0  0  0  0  0
   -0.2179    0.0947    2.7721 C   0  0  0  0  0  0  0  0  0  0  0  0
   -0.1325    1.4324    3.1059 N   0  3  0  0  0  0  0  0  0  0  0  0
    0.2854    2.1414    2.4965 H   0  0  0  0  0  0  0  0  0  0  0  0
   -0.7642    1.6188    4.2819 C   0  0  0  0  0  0  0  0  0  0  0  0
   -0.8738    2.5730    4.7932 H   0  0  0  0  0  0  0  0  0  0  0  0
   -1.2476    0.4279    4.7022 N   0  0  0  0  0  0  0  0  0  0  0  0
   -1.7717    0.2648    5.5578 H   0  0  0  0  0  0  0  0  0  0  0  0
   -0.9131   -0.5403    3.7655 C   0  0  0  0  0  0  0  0  0  0  0  0
   -1.1526   -1.5994    3.8036 H   0  0  0  0  0  0  0  0  0  0  0  0
    0.3020   -0.6933   -1.0696 C   0  0  0  0  0  0  0  0  0  0  0  0
    0.6453    0.1341   -1.9153 O   0  0  0  0  0  0  0  0  0  0  0  0
    0.5068   -2.0086   -1.2119 N   0  0  0  0  0  0  0  0  0  0  0  0
    0.2016   -2.6106   -0.4624 H   0  0  0  0  0  0  0  0  0  0  0  0
    1.1366   -2.6459   -2.3723 C   0  0  0  0  0  0  0  0  0  0  0  0
    2.1756   -2.8937   -2.1460 H   0  0  0  0  0  0  0  0  0  0  0  0
    0.6070   -3.5661   -2.6250 H   0  0  0  0  0  0  0  0  0  0  0  0
    1.1149   -1.9832   -3.2400 H   0  0  0  0  0  0  0  0  0  0  0  0
  5  6  2  0  0  0  0
  5  7  1  0  0  0  0
  2  3  1  0  0  0  0
  2  4  1  0  0  0  0
  2  5  1  0  0  0  0
  1  2  1  0  0  0  0
 23 24  2  0  0  0  0
 23 25  1  0  0  0  0
 21 22  1  0  0  0  0
 19 20  1  0  0  0  0
 19 21  1  0  0  0  0
 17 18  1  0  0  0  0
 17 19  1  0  0  0  0
 15 16  1  0  0  0  0
 15 17  2  0  0  0  0
 14 15  1  0  0  0  0
 14 21  2  0  0  0  0
 11 12  1  0  0  0  0
 11 13  1  0  0  0  0
 11 14  1  0  0  0  0
  9 10  1  0  0  0  0
  9 11  1  0  0  0  0
  9 23  1  0  0  0  0
  7  8  1  0  0  0  0
  7  9  1  0  0  0  0
 27 28  1  0  0  0  0
 27 29  1  0  0  0  0
 27 30  1  0  0  0  0
 25 26  1  0  0  0  0
 25 27  1  0  0  0  0
M  CHG  1  15   1
M  END
$$$$
default_name
  -OEChem-01062215323D

 30 30  0     1  0  0  0  0  0999 V2000
   -3.5507   -3.2183    1.8116 H   0  0  0  0  0  0  0  0  0  0  0  0
   -3.4597   -2.3913    1.1076 C   0  0  0  0  0  0  0  0  0  0  0  0
   -4.1577   -1.6043    1.3866 H   0  0  0  0  0  0  0  0  0  0  0  0
   -3.6807   -2.7523    0.1036 H   0  0  0  0  0  0  0  0  0  0  0  0
   -2.0477   -1.8543    1.1546 C   0  0  0  0  0  0  0  0  0  0  0  0
   -1.2227   -2.3443    1.9146 O   0  0  0  0  0  0  0  0  0  0  0  0
   -1.7517   -0.8483    0.3266 N   0  0  0  0  0  0  0  0  0  0  0  0
   -2.4847   -0.5123   -0.2804 H   0  0  0  0  0  0  0  0  0  0  0  0
   -0.4117   -0.2463    0.2186 C   0  0  1  0  0  0  0  0  0  0  0  0
   -0.5304    0.8377    0.1465 H   0  0  0  0  0  0  0  0  0  0  0  0
    0.3649   -0.5347    1.5244 C   0  0  0  0  0  0  0  0  0  0  0  0
    0.4141   -1.6170    1.6684 H   0  0  0  0  0  0  0  0  0  0  0  0
    1.3914   -0.1792    1.4128 H   0  0  0  0  0  0  0  0  0  0  0  0
   -0.2179    0.0947    2.7721 C   0  0  0  0  0  0  0  0  0  0  0  0
   -0.1325    1.4324    3.1059 N   0  3  0  0  0  0  0  0  0  0  0  0
    0.2854    2.1414    2.4965 H   0  0  0  0  0  0  0  0  0  0  0  0
   -0.7642    1.6188    4.2819 C   0  0  0  0  0  0  0  0  0  0  0  0
   -0.8738    2.5730    4.7932 H   0  0  0  0  0  0  0  0  0  0  0  0
   -1.2476    0.4279    4.7022 N   0  0  0  0  0  0  0  0  0  0  0  0
   -1.7717    0.2648    5.5578 H   0  0  0  0  0  0  0  0  0  0  0  0
   -0.9131   -0.5403    3.7655 C   0  0  0  0  0  0  0  0  0  0  0  0
   -1.1526   -1.5994    3.8036 H   0  0  0  0  0  0  0  0  0  0  0  0
    0.3020   -0.6933   -1.0696 C   0  0  0  0  0  0  0  0  0  0  0  0
    0.8864    0.1268   -1.7792 O   0  0  0  0  0  0  0  0  0  0  0  0
    0.2350   -1.9970   -1.3665 N   0  0  0  0  0  0  0  0  0  0  0  0
   -0.2559   -2.5965   -0.7208 H   0  0  0  0  0  0  0  0  0  0  0  0
    0.8154   -2.6241   -2.5578 C   0  0  0  0  0  0  0  0  0  0  0  0
    1.7541   -3.1192   -2.3012 H   0  0  0  0  0  0  0  0  0  0  0  0
    0.1272   -3.3702   -2.9588 H   0  0  0  0  0  0  0  0  0  0  0  0
    1.0115   -1.8803   -3.3330 H   0  0  0  0  0  0  0  0  0  0  0  0
  5  6  2  0  0  0  0
  5  7  1  0  0  0  0
  2  3  1  0  0  0  0
  2  4  1  0  0  0  0
  2  5  1  0  0  0  0
  1  2  1  0  0  0  0
 23 24  2  0  0  0  0
 23 25  1  0  0  0  0
 21 22  1  0  0  0  0
 19 20  1  0  0  0  0
 19 21  1  0  0  0  0
 17 18  1  0  0  0  0
 17 19  1  0  0  0  0
 15 16  1  0  0  0  0
 15 17  2  0  0  0  0
 14 15  1  0  0  0  0
 14 21  2  0  0  0  0
 11 12  1  0  0  0  0
 11 13  1  0  0  0  0
 11 14  1  0  0  0  0
  9 10  1  0  0  0  0
  9 11  1  0  0  0  0
  9 23  1  0  0  0  0
  7  8  1  0  0  0  0
  7  9  1  0  0  0  0
 27 28  1  0  0  0  0
 27 29  1  0  0  0  0
 27 30  1  0  0  0  0
 25 26  1  0  0  0  0
 25 27  1  0  0  0  0
M  CHG  1  15   1
M  END
$$$$
default_name
  -OEChem-01062215323D

 30 30  0     1  0  0  0  0  0999 V2000
   -3.5507   -3.2183    1.8116 H   0  0  0  0  0  0  0  0  0  0  0  0
   -3.4597   -2.3913    1.1076 C   0  0  0  0  0  0  0  0  0  0  0  0
   -4.1577   -1.6043    1.3866 H   0  0  0  0  0  0  0  0  0  0  0  0
   -3.6807   -2.7523    0.1036 H   0  0  0  0  0  0  0  0  0  0  0  0
   -2.0477   -1.8543    1.1546 C   0  0  0  0  0  0  0  0  0  0  0  0
   -1.2227   -2.3443    1.9146 O   0  0  0  0  0  0  0  0  0  0  0  0
   -1.7517   -0.8483    0.3266 N   0  0  0  0  0  0  0  0  0  0  0  0
   -2.4847   -0.5123   -0.2804 H   0  0  0  0  0  0  0  0  0  0  0  0
   -0.4117   -0.2463    0.2186 C   0  0  1  0  0  0  0  0  0  0  0  0
   -0.5304    0.8377    0.1465 H   0  0  0  0  0  0  0  0  0  0  0  0
    0.3649   -0.5347    1.5244 C   0  0  0  0  0  0  0  0  0  0  0  0
    0.4141   -1.6170    1.6684 H   0  0  0  0  0  0  0  0  0  0  0  0
    1.3914   -0.1792    1.4128 H   0  0  0  0  0  0  0  0  0  0  0  0
   -0.2179    0.0947    2.7721 C   0  0  0  0  0  0  0  0  0  0  0  0
   -0.1325    1.4324    3.1059 N   0  3  0  0  0  0  0  0  0  0  0  0
    0.2854    2.1414    2.4965 H   0  0  0  0  0  0  0  0  0  0  0  0
   -0.7642    1.6188    4.2819 C   0  0  0  0  0  0  0  0  0  0  0  0
   -0.8738    2.5730    4.7932 H   0  0  0  0  0  0  0  0  0  0  0  0
   -1.2476    0.4279    4.7022 N   0  0  0  0  0  0  0  0  0  0  0  0
   -1.7717    0.2648    5.5578 H   0  0  0  0  0  0  0  0  0  0  0  0
   -0.9131   -0.5403    3.7655 C   0  0  0  0  0  0  0  0  0  0  0  0
   -1.1526   -1.5994    3.8036 H   0  0  0  0  0  0  0  0  0  0  0  0
    0.3020   -0.6933   -1.0696 C   0  0  0  0  0  0  0  0  0  0  0  0
    1.1074    0.0513   -1.6305 O   0  0  0  0  0  0  0  0  0  0  0  0
   -0.0134   -1.9083   -1.5349 N   0  0  0  0  0  0  0  0  0  0  0  0
   -0.6754   -2.4526   -1.0031 H   0  0  0  0  0  0  0  0  0  0  0  0
    0.5239   -2.5112   -2.7585 C   0  0  0  0  0  0  0  0  0  0  0  0
    1.3097   -3.2272   -2.5099 H   0  0  0  0  0  0  0  0  0  0  0  0
   -0.2687   -3.0369   -3.2938 H   0  0  0  0  0  0  0  0  0  0  0  0
    0.9410   -1.7474   -3.4182 H   0  0  0  0  0  0  0  0  0  0  0  0
  5  6  2  0  0  0  0
  5  7  1  0  0  0  0
  2  3  1  0  0  0  0
  2  4  1  0  0  0  0
  2  5  1  0  0  0  0
  1  2  1  0  0  0  0
 23 24  2  0  0  0  0
 23 25  1  0  0  0  0
 21 22  1  0  0  0  0
 19 20  1  0  0  0  0
 19 21  1  0  0  0  0
 17 18  1  0  0  0  0
 17 19  1  0  0  0  0
 15 16  1  0  0  0  0
 15 17  2  0  0  0  0
 14 15  1  0  0  0  0
 14 21  2  0  0  0  0
 11 12  1  0  0  0  0
 11 13  1  0  0  0  0
 11 14  1  0  0  0  0
  9 10  1  0  0  0  0
  9 11  1  0  0  0  0
  9 23  1  0  0  0  0
  7  8  1  0  0  0  0
  7  9  1  0  0  0  0
 27 28  1  0  0  0  0
 27 29  1  0  0  0  0
 27 30  1  0  0  0  0
 25 26  1  0  0  0  0
 25 27  1  0  0  0  0
M  CHG  1  15   1
M  END
$$$$
default_name
  -OEChem-01062215323D

 30 30  0     1  0  0  0  0  0999 V2000
   -3.5507   -3.2183    1.8116 H   0  0  0  0  0  0  0  0  0  0  0  0
   -3.4597   -2.3913    1.1076 C   0  0  0  0  0  0  0  0  0  0  0  0
   -4.1577   -1.6043    1.3866 H   0  0  0  0  0  0  0  0  0  0  0  0
   -3.6807   -2.7523    0.1036 H   0  0  0  0  0  0  0  0  0  0  0  0
   -2.0477   -1.8543    1.1546 C   0  0  0  0  0  0  0  0  0  0  0  0
   -1.2227   -2.3443    1.9146 O   0  0  0  0  0  0  0  0  0  0  0  0
   -1.7517   -0.8483    0.3266 N   0  0  0  0  0  0  0  0  0  0  0  0
   -2.4847   -0.5123   -0.2804 H   0  0  0  0  0  0  0  0  0  0  0  0
   -0.4117   -0.2463    0.2186 C   0  0  1  0  0  0  0  0  0  0  0  0
   -0.5304    0.8377    0.1465 H   0  0  0  0  0  0  0  0  0  0  0  0
    0.3649   -0.5347    1.5244 C   0  0  0  0  0  0  0  0  0  0  0  0
    0.4141   -1.6170    1.6684 H   0  0  0  0  0  0  0  0  0  0  0  0
    1.3914   -0.1792    1.4128 H   0  0  0  0  0  0  0  0  0  0  0  0
   -0.2179    0.0947    2.7721 C   0  0  0  0  0  0  0  0  0  0  0  0
   -0.1325    1.4324    3.1059 N   0  3  0  0  0  0  0  0  0  0  0  0
    0.2854    2.1414    2.4965 H   0  0  0  0  0  0  0  0  0  0  0  0
   -0.7642    1.6188    4.2819 C   0  0  0  0  0  0  0  0  0  0  0  0
   -0.8738    2.5730    4.7932 H   0  0  0  0  0  0  0  0  0  0  0  0
   -1.2476    0.4279    4.7022 N   0  0  0  0  0  0  0  0  0  0  0  0
   -1.7717    0.2648    5.5578 H   0  0  0  0  0  0  0  0  0  0  0  0
   -0.9131   -0.5403    3.7655 C   0  0  0  0  0  0  0  0  0  0  0  0
   -1.1526   -1.5994    3.8036 H   0  0  0  0  0  0  0  0  0  0  0  0
    0.3020   -0.6933   -1.0696 C   0  0  0  0  0  0  0  0  0  0  0  0
    1.2933   -0.0875   -1.4794 O   0  0  0  0  0  0  0  0  0  0  0  0
   -0.2214   -1.7486   -1.7056 N   0  0  0  0  0  0  0  0  0  0  0  0
   -1.0282   -2.1890   -1.2900 H   0  0  0  0  0  0  0  0  0  0  0  0
    0.2818   -2.3148   -2.9608 C   0  0  0  0  0  0  0  0  0  0  0  0
    0.8728   -3.2102   -2.7579 H   0  0  0  0  0  0  0  0  0  0  0  0
   -0.5538   -2.5890   -3.6071 H   0  0  0  0  0  0  0  0  0  0  0  0
    0.9080   -1.5934   -3.4899 H   0  0  0  0  0  0  0  0  0  0  0  0
  5  6  2  0  0  0  0
  5  7  1  0  0  0  0
  2  3  1  0  0  0  0
  2  4  1  0  0  0  0
  2  5  1  0  0  0  0
  1  2  1  0  0  0  0
 23 24  2  0  0  0  0
 23 25  1  0  0  0  0
 21 22  1  0  0  0  0
 19 20  1  0  0  0  0
 19 21  1  0  0  0  0
 17 18  1  0  0  0  0
 17 19  1  0  0  0  0
 15 16  1  0  0  0  0
 15 17  2  0  0  0  0
 14 15  1  0  0  0  0
 14 21  2  0  0  0  0
 11 12  1  0  0  0  0
 11 13  1  0  0  0  0
 11 14  1  0  0  0  0
  9 10  1  0  0  0  0
  9 11  1  0  0  0  0
  9 23  1  0  0  0  0
  7  8  1  0  0  0  0
  7  9  1  0  0  0  0
 27 28  1  0  0  0  0
 27 29  1  0  0  0  0
 27 30  1  0  0  0  0
 25 26  1  0  0  0  0
 25 27  1  0  0  0  0
M  CHG  1  15   1
M  END
$$$$
default_name
  -OEChem-01062215323D

 30 30  0     1  0  0  0  0  0999 V2000
   -3.5507   -3.2183    1.8116 H   0  0  0  0  0  0  0  0  0  0  0  0
   -3.4597   -2.3913    1.1076 C   0  0  0  0  0  0  0  0  0  0  0  0
   -4.1577   -1.6043    1.3866 H   0  0  0  0  0  0  0  0  0  0  0  0
   -3.6807   -2.7523    0.1036 H   0  0  0  0  0  0  0  0  0  0  0  0
   -2.0477   -1.8543    1.1546 C   0  0  0  0  0  0  0  0  0  0  0  0
   -1.2227   -2.3443    1.9146 O   0  0  0  0  0  0  0  0  0  0  0  0
   -1.7517   -0.8483    0.3266 N   0  0  0  0  0  0  0  0  0  0  0  0
   -2.4847   -0.5123   -0.2804 H   0  0  0  0  0  0  0  0  0  0  0  0
   -0.4117   -0.2463    0.2186 C   0  0  1  0  0  0  0  0  0  0  0  0
   -0.5304    0.8377    0.1465 H   0  0  0  0  0  0  0  0  0  0  0  0
    0.3649   -0.5347    1.5244 C   0  0  0  0  0  0  0  0  0  0  0  0
    0.4141   -1.6170    1.6684 H   0  0  0  0  0  0  0  0  0  0  0  0
    1.3914   -0.1792    1.4128 H   0  0  0  0  0  0  0  0  0  0  0  0
   -0.2179    0.0947    2.7721 C   0  0  0  0  0  0  0  0  0  0  0  0
   -0.1325    1.4324    3.1059 N   0  3  0  0  0  0  0  0  0  0  0  0
    0.2854    2.1414    2.4965 H   0  0  0  0  0  0  0  0  0  0  0  0
   -0.7642    1.6188    4.2819 C   0  0  0  0  0  0  0  0  0  0  0  0
   -0.8738    2.5730    4.7932 H   0  0  0  0  0  0  0  0  0  0  0  0
   -1.2476    0.4279    4.7022 N   0  0  0  0  0  0  0  0  0  0  0  0
   -1.7717    0.2648    5.5578 H   0  0  0  0  0  0  0  0  0  0  0  0
   -0.9131   -0.5403    3.7655 C   0  0  0  0  0  0  0  0  0  0  0  0
   -1.1526   -1.5994    3.8036 H   0  0  0  0  0  0  0  0  0  0  0  0
    0.3020   -0.6933   -1.0696 C   0  0  0  0  0  0  0  0  0  0  0  0
    1.4315   -0.2799   -1.3361 O   0  0  0  0  0  0  0  0  0  0  0  0
   -0.3750   -1.5289   -1.8669 N   0  0  0  0  0  0  0  0  0  0  0  0
   -1.2903   -1.8234   -1.5621 H   0  0  0  0  0  0  0  0  0  0  0  0
    0.1057   -2.0485   -3.1508 C   0  0  0  0  0  0  0  0  0  0  0  0
    0.4731   -3.0693   -3.0282 H   0  0  0  0  0  0  0  0  0  0  0  0
   -0.7085   -2.0571   -3.8775 H   0  0  0  0  0  0  0  0  0  0  0  0
    0.9149   -1.4290   -3.5432 H   0  0  0  0  0  0  0  0  0  0  0  0
  5  6  2  0  0  0  0
  5  7  1  0  0  0  0
  2  3  1  0  0  0  0
  2  4  1  0  0  0  0
  2  5  1  0  0  0  0
  1  2  1  0  0  0  0
 23 24  2  0  0  0  0
 23 25  1  0  0  0  0
 21 22  1  0  0  0  0
 19 20  1  0  0  0  0
 19 21  1  0  0  0  0
 17 18  1  0  0  0  0
 17 19  1  0  0  0  0
 15 16  1  0  0  0  0
 15 17  2  0  0  0  0
 14 15  1  0  0  0  0
 14 21  2  0  0  0  0
 11 12  1  0  0  0  0
 11 13  1  0  0  0  0
 11 14  1  0  0  0  0
  9 10  1  0  0  0  0
  9 11  1  0  0  0  0
  9 23  1  0  0  0  0
  7  8  1  0  0  0  0
  7  9  1  0  0  0  0
 27 28  1  0  0  0  0
 27 29  1  0  0  0  0
 27 30  1  0  0  0  0
 25 26  1  0  0  0  0
 25 27  1  0  0  0  0
M  CHG  1  15   1
M  END
$$$$
default_name
  -OEChem-01062215323D

 30 30  0     1  0  0  0  0  0999 V2000
   -3.5507   -3.2183    1.8116 H   0  0  0  0  0  0  0  0  0  0  0  0
   -3.4597   -2.3913    1.1076 C   0  0  0  0  0  0  0  0  0  0  0  0
   -4.1577   -1.6043    1.3866 H   0  0  0  0  0  0  0  0  0  0  0  0
   -3.6807   -2.7523    0.1036 H   0  0  0  0  0  0  0  0  0  0  0  0
   -2.0477   -1.8543    1.1546 C   0  0  0  0  0  0  0  0  0  0  0  0
   -1.2227   -2.3443    1.9146 O   0  0  0  0  0  0  0  0  0  0  0  0
   -1.7517   -0.8483    0.3266 N   0  0  0  0  0  0  0  0  0  0  0  0
   -2.4847   -0.5123   -0.2804 H   0  0  0  0  0  0  0  0  0  0  0  0
   -0.4117   -0.2463    0.2186 C   0  0  1  0  0  0  0  0  0  0  0  0
   -0.5304    0.8377    0.1465 H   0  0  0  0  0  0  0  0  0  0  0  0
    0.3649   -0.5347    1.5244 C   0  0  0  0  0  0  0  0  0  0  0  0
    0.4141   -1.6170    1.6684 H   0  0  0  0  0  0  0  0  0  0  0  0
    1.3914   -0.1792    1.4128 H   0  0  0  0  0  0  0  0  0  0  0  0
   -0.2179    0.0947    2.7721 C   0  0  0  0  0  0  0  0  0  0  0  0
   -0.1325    1.4324    3.1059 N   0  3  0  0  0  0  0  0  0  0  0  0
    0.2854    2.1414    2.4965 H   0  0  0  0  0  0  0  0  0  0  0  0
   -0.7642    1.6188    4.2819 C   0  0  0  0  0  0  0  0  0  0  0  0
   -0.8738    2.5730    4.7932 H   0  0  0  0  0  0  0  0  0  0  0  0
   -1.2476    0.4279    4.7022 N   0  0  0  0  0  0  0  0  0  0  0  0
   -1.7717    0.2648    5.5578 H   0  0  0  0  0  0  0  0  0  0  0  0
   -0.9131   -0.5403    3.7655 C   0  0  0  0  0  0  0  0  0  0  0  0
   -1.1526   -1.5994    3.8036 H   0  0  0  0  0  0  0  0  0  0  0  0
    0.3020   -0.6933   -1.0696 C   0  0  0  0  0  0  0  0  0  0  0  0
    1.5125   -0.5129   -1.2103 O   0  0  0  0  0  0  0  0  0  0  0  0
   -0.4636   -1.2640   -2.0079 N   0  0  0  0  0  0  0  0  0  0  0  0
   -1.4438   -1.3809   -1.8007 H   0  0  0  0  0  0  0  0  0  0  0  0
    0.0076   -1.7303   -3.3156 C   0  0  0  0  0  0  0  0  0  0  0  0
    0.1379   -2.8142   -3.3024 H   0  0  0  0  0  0  0  0  0  0  0  0
   -0.7224   -1.4772   -4.0864 H   0  0  0  0  0  0  0  0  0  0  0  0
    0.9612   -1.2653   -3.5743 H   0  0  0  0  0  0  0  0  0  0  0  0
  5  6  2  0  0  0  0
  5  7  1  0  0  0  0
  2  3  1  0  0  0  0
  2  4  1  0  0  0  0
  2  5  1  0  0  0  0
  1  2  1  0  0  0  0
 23 24  2  0  0  0  0
 23 25  1  0  0  0  0
 21 22  1  0  0  0  0
 19 20  1  0  0  0  0
 19 21  1  0  0  0  0
 17 18  1  0  0  0  0
 17 19  1  0  0  0  0
 15 16  1  0  0  0  0
 15 17  2  0  0  0  0
 14 15  1  0  0  0  0
 14 21  2  0  0  0  0
 11 12  1  0  0  0  0
 11 13  1  0  0  0  0
 11 14  1  0  0  0  0
  9 10  1  0  0  0  0
  9 11  1  0  0  0  0
  9 23  1  0  0  0  0
  7  8  1  0  0  0  0
  7  9  1  0  0  0  0
 27 28  1  0  0  0  0
 27 29  1  0  0  0  0
 27 30  1  0  0  0  0
 25 26  1  0  0  0  0
 25 27  1  0  0  0  0
M  CHG  1  15   1
M  END
$$$$
default_name
  -OEChem-01062215323D

 30 30  0     1  0  0  0  0  0999 V2000
   -3.5507   -3.2183    1.8116 H   0  0  0  0  0  0  0  0  0  0  0  0
   -3.4597   -2.3913    1.1076 C   0  0  0  0  0  0  0  0  0  0  0  0
   -4.1577   -1.6043    1.3866 H   0  0  0  0  0  0  0  0  0  0  0  0
   -3.6807   -2.7523    0.1036 H   0  0  0  0  0  0  0  0  0  0  0  0
   -2.0477   -1.8543    1.1546 C   0  0  0  0  0  0  0  0  0  0  0  0
   -1.2227   -2.3443    1.9146 O   0  0  0  0  0  0  0  0  0  0  0  0
   -1.7517   -0.8483    0.3266 N   0  0  0  0  0  0  0  0  0  0  0  0
   -2.4847   -0.5123   -0.2804 H   0  0  0  0  0  0  0  0  0  0  0  0
   -0.4117   -0.2463    0.2186 C   0  0  1  0  0  0  0  0  0  0  0  0
   -0.5304    0.8377    0.1465 H   0  0  0  0  0  0  0  0  0  0  0  0
    0.3649   -0.5347    1.5244 C   0  0  0  0  0  0  0  0  0  0  0  0
    0.4141   -1.6170    1.6684 H   0  0  0  0  0  0  0  0  0  0  0  0
    1.3914   -0.1792    1.4128 H   0  0  0  0  0  0  0  0  0  0  0  0
   -0.2179    0.0947    2.7721 C   0  0  0  0  0  0  0  0  0  0  0  0
   -0.1325    1.4324    3.1059 N   0  3  0  0  0  0  0  0  0  0  0  0
    0.2854    2.1414    2.4965 H   0  0  0  0  0  0  0  0  0  0  0  0
   -0.7642    1.6188    4.2819 C   0  0  0  0  0  0  0  0  0  0  0  0
   -0.8738    2.5730    4.7932 H   0  0  0  0  0  0  0  0  0  0  0  0
   -1.2476    0.4279    4.7022 N   0  0  0  0  0  0  0  0  0  0  0  0
   -1.7717    0.2648    5.5578 H   0  0  0  0  0  0  0  0  0  0  0  0
   -0.9131   -0.5403    3.7655 C   0  0  0  0  0  0  0  0  0  0  0  0
   -1.1526   -1.5994    3.8036 H   0  0  0  0  0  0  0  0  0  0  0  0
    0.3020   -0.6933   -1.0696 C   0  0  0  0  0  0  0  0  0  0  0  0
    1.5309   -0.7706   -1.1107 O   0  0  0  0  0  0  0  0  0  0  0  0
   -0.4811   -0.9720   -2.1190 N   0  0  0  0  0  0  0  0  0  0  0  0
   -1.4782   -0.8916   -1.9896 H   0  0  0  0  0  0  0  0  0  0  0  0
   -0.0059   -1.3818   -3.4439 C   0  0  0  0  0  0  0  0  0  0  0  0
   -0.1101   -2.4623   -3.5619 H   0  0  0  0  0  0  0  0  0  0  0  0
   -0.5945   -0.8891   -4.2197 H   0  0  0  0  0  0  0  0  0  0  0  0
    1.0437   -1.1134   -3.5813 H   0  0  0  0  0  0  0  0  0  0  0  0
  5  6  2  0  0  0  0
  5  7  1  0  0  0  0
  2  3  1  0  0  0  0
  2  4  1  0  0  0  0
  2  5  1  0  0  0  0
  1  2  1  0  0  0  0
 23 24  2  0  0  0  0
 23 25  1  0  0  0  0
 21 22  1  0  0  0  0
 19 20  1  0  0  0  0
 19 21  1  0  0  0  0
 17 18  1  0  0  0  0
 17 19  1  0  0  0  0
 15 16  1  0  0  0  0
 15 17  2  0  0  0  0
 14 15  1  0  0  0  0
 14 21  2  0  0  0  0
 11 12  1  0  0  0  0
 11 13  1  0  0  0  0
 11 14  1  0  0  0  0
  9 10  1  0  0  0  0
  9 11  1  0  0  0  0
  9 23  1  0  0  0  0
  7  8  1  0  0  0  0
  7  9  1  0  0  0  0
 27 28  1  0  0  0  0
 27 29  1  0  0  0  0
 27 30  1  0  0  0  0
 25 26  1  0  0  0  0
 25 27  1  0  0  0  0
M  CHG  1  15   1
M  END
$$$$
default_name
  -OEChem-01062215323D

 30 30  0     1  0  0  0  0  0999 V2000
   -3.5507   -3.2183    1.8116 H   0  0  0  0  0  0  0  0  0  0  0  0
   -3.4597   -2.3913    1.1076 C   0  0  0  0  0  0  0  0  0  0  0  0
   -4.1577   -1.6043    1.3866 H   0  0  0  0  0  0  0  0  0  0  0  0
   -3.6807   -2.7523    0.1036 H   0  0  0  0  0  0  0  0  0  0  0  0
   -2.0477   -1.8543    1.1546 C   0  0  0  0  0  0  0  0  0  0  0  0
   -1.2227   -2.3443    1.9146 O   0  0  0  0  0  0  0  0  0  0  0  0
   -1.7517   -0.8483    0.3266 N   0  0  0  0  0  0  0  0  0  0  0  0
   -2.4847   -0.5123   -0.2804 H   0  0  0  0  0  0  0  0  0  0  0  0
   -0.4117   -0.2463    0.2186 C   0  0  1  0  0  0  0  0  0  0  0  0
   -0.5304    0.8377    0.1465 H   0  0  0  0  0  0  0  0  0  0  0  0
    0.3649   -0.5347    1.5244 C   0  0  0  0  0  0  0  0  0  0  0  0
    0.4141   -1.6170    1.6684 H   0  0  0  0  0  0  0  0  0  0  0  0
    1.3914   -0.1792    1.4128 H   0  0  0  0  0  0  0  0  0  0  0  0
   -0.2179    0.0947    2.7721 C   0  0  0  0  0  0  0  0  0  0  0  0
   -0.1325    1.4324    3.1059 N   0  3  0  0  0  0  0  0  0  0  0  0
    0.2854    2.1414    2.4965 H   0  0  0  0  0  0  0  0  0  0  0  0
   -0.7642    1.6188    4.2819 C   0  0  0  0  0  0  0  0  0  0  0  0
   -0.8738    2.5730    4.7932 H   0  0  0  0  0  0  0  0  0  0  0  0
   -1.2476    0.4279    4.7022 N   0  0  0  0  0  0  0  0  0  0  0  0
   -1.7717    0.2648    5.5578 H   0  0  0  0  0  0  0  0  0  0  0  0
   -0.9131   -0.5403    3.7655 C   0  0  0  0  0  0  0  0  0  0  0  0
   -1.1526   -1.5994    3.8036 H   0  0  0  0  0  0  0  0  0  0  0  0
    0.3020   -0.6933   -1.0696 C   0  0  0  0  0  0  0  0  0  0  0  0
    1.4852   -1.0355   -1.0441 O   0  0  0  0  0  0  0  0  0  0  0  0
   -0.4265   -0.6728   -2.1925 N   0  0  0  0  0  0  0  0  0  0  0  0
   -1.3913   -0.3888   -2.1159 H   0  0  0  0  0  0  0  0  0  0  0  0
    0.0663   -1.0270   -3.5271 C   0  0  0  0  0  0  0  0  0  0  0  0
   -0.2538   -2.0375   -3.7890 H   0  0  0  0  0  0  0  0  0  0  0  0
   -0.3336   -0.3327   -4.2682 H   0  0  0  0  0  0  0  0  0  0  0  0
    1.1569   -0.9838   -3.5636 H   0  0  0  0  0  0  0  0  0  0  0  0
  5  6  2  0  0  0  0
  5  7  1  0  0  0  0
  2  3  1  0  0  0  0
  2  4  1  0  0  0  0
  2  5  1  0  0  0  0
  1  2  1  0  0  0  0
 23 24  2  0  0  0  0
 23 25  1  0  0  0  0
 21 22  1  0  0  0  0
 19 20  1  0  0  0  0
 19 21  1  0  0  0  0
 17 18  1  0  0  0  0
 17 19  1  0  0  0  0
 15 16  1  0  0  0  0
 15 17  2  0  0  0  0
 14 15  1  0  0  0  0
 14 21  2  0  0  0  0
 11 12  1  0  0  0  0
 11 13  1  0  0  0  0
 11 14  1  0  0  0  0
  9 10  1  0  0  0  0
  9 11  1  0  0  0  0
  9 23  1  0  0  0  0
  7  8  1  0  0  0  0
  7  9  1  0  0  0  0
 27 28  1  0  0  0  0
 27 29  1  0  0  0  0
 27 30  1  0  0  0  0
 25 26  1  0  0  0  0
 25 27  1  0  0  0  0
M  CHG  1  15   1
M  END
$$$$
default_name
  -OEChem-01062215323D

 30 30  0     1  0  0  0  0  0999 V2000
   -3.5507   -3.2183    1.8116 H   0  0  0  0  0  0  0  0  0  0  0  0
   -3.4597   -2.3913    1.1076 C   0  0  0  0  0  0  0  0  0  0  0  0
   -4.1577   -1.6043    1.3866 H   0  0  0  0  0  0  0  0  0  0  0  0
   -3.6807   -2.7523    0.1036 H   0  0  0  0  0  0  0  0  0  0  0  0
   -2.0477   -1.8543    1.1546 C   0  0  0  0  0  0  0  0  0  0  0  0
   -1.2227   -2.3443    1.9146 O   0  0  0  0  0  0  0  0  0  0  0  0
   -1.7517   -0.8483    0.3266 N   0  0  0  0  0  0  0  0  0  0  0  0
   -2.4847   -0.5123   -0.2804 H   0  0  0  0  0  0  0  0  0  0  0  0
   -0.4117   -0.2463    0.2186 C   0  0  1  0  0  0  0  0  0  0  0  0
   -0.5304    0.8377    0.1465 H   0  0  0  0  0  0  0  0  0  0  0  0
    0.3649   -0.5347    1.5244 C   0  0  0  0  0  0  0  0  0  0  0  0
    0.4141   -1.6170    1.6684 H   0  0  0  0  0  0  0  0  0  0  0  0
    1.3914   -0.1792    1.4128 H   0  0  0  0  0  0  0  0  0  0  0  0
   -0.2179    0.0947    2.7721 C   0  0  0  0  0  0  0  0  0  0  0  0
   -0.1325    1.4324    3.1059 N   0  3  0  0  0  0  0  0  0  0  0  0
    0.2854    2.1414    2.4965 H   0  0  0  0  0  0  0  0  0  0  0  0
   -0.7642    1.6188    4.2819 C   0  0  0  0  0  0  0  0  0  0  0  0
   -0.8738    2.5730    4.7932 H   0  0  0  0  0  0  0  0  0  0  0  0
   -1.2476    0.4279    4.7022 N   0  0  0  0  0  0  0  0  0  0  0  0
   -1.7717    0.2648    5.5578 H   0  0  0  0  0  0  0  0  0  0  0  0
   -0.9131   -0.5403    3.7655 C   0  0  0  0  0  0  0  0  0  0  0  0
   -1.1526   -1.5994    3.8036 H   0  0  0  0  0  0  0  0  0  0  0  0
    0.3020   -0.6933   -1.0696 C   0  0  0  0  0  0  0  0  0  0  0  0
    1.3788   -1.2894   -1.0149 O   0  0  0  0  0  0  0  0  0  0  0  0
   -0.3034   -0.3868   -2.2236 N   0  0  0  0  0  0  0  0  0  0  0  0
   -1.1889    0.0932   -2.1711 H   0  0  0  0  0  0  0  0  0  0  0  0
    0.2191   -0.6898   -3.5595 C   0  0  0  0  0  0  0  0  0  0  0  0
   -0.2835   -1.5688   -3.9681 H   0  0  0  0  0  0  0  0  0  0  0  0
    0.0427    0.1540   -4.2287 H   0  0  0  0  0  0  0  0  0  0  0  0
    1.2929   -0.8852   -3.5225 H   0  0  0  0  0  0  0  0  0  0  0  0
  5  6  2  0  0  0  0
  5  7  1  0  0  0  0
  2  3  1  0  0  0  0
  2  4  1  0  0  0  0
  2  5  1  0  0  0  0
  1  2  1  0  0  0  0
 23 24  2  0  0  0  0
 23 25  1  0  0  0  0
 21 22  1  0  0  0  0
 19 20  1  0  0  0  0
 19 21  1  0  0  0  0
 17 18  1  0  0  0  0
 17 19  1  0  0  0  0
 15 16  1  0  0  0  0
 15 17  2  0  0  0  0
 14 15  1  0  0  0  0
 14 21  2  0  0  0  0
 11 12  1  0  0  0  0
 11 13  1  0  0  0  0
 11 14  1  0  0  0  0
  9 10  1  0  0  0  0
  9 11  1  0  0  0  0
  9 23  1  0  0  0  0
  7  8  1  0  0  0  0
  7  9  1  0  0  0  0
 27 28  1  0  0  0  0
 27 29  1  0  0  0  0
 27 30  1  0  0  0  0
 25 26  1  0  0  0  0
 25 27  1  0  0  0  0
M  CHG  1  15   1
M  END
$$$$
default_name
  -OEChem-01062215323D

 30 30  0     1  0  0  0  0  0999 V2000
   -3.5507   -3.2183    1.8116 H   0  0  0  0  0  0  0  0  0  0  0  0
   -3.4597   -2.3913    1.1076 C   0  0  0  0  0  0  0  0  0  0  0  0
   -4.1577   -1.6043    1.3866 H   0  0  0  0  0  0  0  0  0  0  0  0
   -3.6807   -2.7523    0.1036 H   0  0  0  0  0  0  0  0  0  0  0  0
   -2.0477   -1.8543    1.1546 C   0  0  0  0  0  0  0  0  0  0  0  0
   -1.2227   -2.3443    1.9146 O   0  0  0  0  0  0  0  0  0  0  0  0
   -1.7517   -0.8483    0.3266 N   0  0  0  0  0  0  0  0  0  0  0  0
   -2.4847   -0.5123   -0.2804 H   0  0  0  0  0  0  0  0  0  0  0  0
   -0.4117   -0.2463    0.2186 C   0  0  1  0  0  0  0  0  0  0  0  0
   -0.5304    0.8377    0.1465 H   0  0  0  0  0  0  0  0  0  0  0  0
    0.3649   -0.5347    1.5244 C   0  0  0  0  0  0  0  0  0  0  0  0
    0.4141   -1.6170    1.6684 H   0  0  0  0  0  0  0  0  0  0  0  0
    1.3914   -0.1792    1.4128 H   0  0  0  0  0  0  0  0  0  0  0  0
   -0.2179    0.0947    2.7721 C   0  0  0  0  0  0  0  0  0  0  0  0
   -0.1325    1.4324    3.1059 N   0  3  0  0  0  0  0  0  0  0  0  0
    0.2854    2.1414    2.4965 H   0  0  0  0  0  0  0  0  0  0  0  0
   -0.7642    1.6188    4.2819 C   0  0  0  0  0  0  0  0  0  0  0  0
   -0.8738    2.5730    4.7932 H   0  0  0  0  0  0  0  0  0  0  0  0
   -1.2476    0.4279    4.7022 N   0  0  0  0  0  0  0  0  0  0  0  0
   -1.7717    0.2648    5.5578 H   0  0  0  0  0  0  0  0  0  0  0  0
   -0.9131   -0.5403    3.7655 C   0  0  0  0  0  0  0  0  0  0  0  0
   -1.1526   -1.5994    3.8036 H   0  0  0  0  0  0  0  0  0  0  0  0
    0.3020   -0.6933   -1.0696 C   0  0  0  0  0  0  0  0  0  0  0  0
    1.2187   -1.5152   -1.0252 O   0  0  0  0  0  0  0  0  0  0  0  0
   -0.1201   -0.1335   -2.2100 N   0  0  0  0  0  0  0  0  0  0  0  0
   -0.8848    0.5216   -2.1513 H   0  0  0  0  0  0  0  0  0  0  0  0
    0.4422   -0.3934   -3.5387 C   0  0  0  0  0  0  0  0  0  0  0  0
   -0.1972   -1.0881   -4.0871 H   0  0  0  0  0  0  0  0  0  0  0  0
    0.5086    0.5379   -4.1038 H   0  0  0  0  0  0  0  0  0  0  0  0
    1.4426   -0.8244   -3.4607 H   0  0  0  0  0  0  0  0  0  0  0  0
  5  6  2  0  0  0  0
  5  7  1  0  0  0  0
  2  3  1  0  0  0  0
  2  4  1  0  0  0  0
  2  5  1  0  0  0  0
  1  2  1  0  0  0  0
 23 24  2  0  0  0  0
 23 25  1  0  0  0  0
 21 22  1  0  0  0  0
 19 20  1  0  0  0  0
 19 21  1  0  0  0  0
 17 18  1  0  0  0  0
 17 19  1  0  0  0  0
 15 16  1  0  0  0  0
 15 17  2  0  0  0  0
 14 15  1  0  0  0  0
 14 21  2  0  0  0  0
 11 12  1  0  0  0  0
 11 13  1  0  0  0  0
 11 14  1  0  0  0  0
  9 10  1  0  0  0  0
  9 11  1  0  0  0  0
  9 23  1  0  0  0  0
  7  8  1  0  0  0  0
  7  9  1  0  0  0  0
 27 28  1  0  0  0  0
 27 29  1  0  0  0  0
 27 30  1  0  0  0  0
 25 26  1  0  0  0  0
 25 27  1  0  0  0  0
M  CHG  1  15   1
M  END
$$$$
default_name
  -OEChem-01062215323D

 30 30  0     1  0  0  0  0  0999 V2000
   -3.5507   -3.2183    1.8116 H   0  0  0  0  0  0  0  0  0  0  0  0
   -3.4597   -2.3913    1.1076 C   0  0  0  0  0  0  0  0  0  0  0  0
   -4.1577   -1.6043    1.3866 H   0  0  0  0  0  0  0  0  0  0  0  0
   -3.6807   -2.7523    0.1036 H   0  0  0  0  0  0  0  0  0  0  0  0
   -2.0477   -1.8543    1.1546 C   0  0  0  0  0  0  0  0  0  0  0  0
   -1.2227   -2.3443    1.9146 O   0  0  0  0  0  0  0  0  0  0  0  0
   -1.7517   -0.8483    0.3266 N   0  0  0  0  0  0  0  0  0  0  0  0
   -2.4847   -0.5123   -0.2804 H   0  0  0  0  0  0  0  0  0  0  0  0
   -0.4117   -0.2463    0.2186 C   0  0  1  0  0  0  0  0  0  0  0  0
   -0.5304    0.8377    0.1465 H   0  0  0  0  0  0  0  0  0  0  0  0
    0.3649   -0.5347    1.5244 C   0  0  0  0  0  0  0  0  0  0  0  0
    0.4141   -1.6170    1.6684 H   0  0  0  0  0  0  0  0  0  0  0  0
    1.3914   -0.1792    1.4128 H   0  0  0  0  0  0  0  0  0  0  0  0
   -0.2179    0.0947    2.7721 C   0  0  0  0  0  0  0  0  0  0  0  0
   -0.1325    1.4324    3.1059 N   0  3  0  0  0  0  0  0  0  0  0  0
    0.2854    2.1414    2.4965 H   0  0  0  0  0  0  0  0  0  0  0  0
   -0.7642    1.6188    4.2819 C   0  0  0  0  0  0  0  0  0  0  0  0
   -0.8738    2.5730    4.7932 H   0  0  0  0  0  0  0  0  0  0  0  0
   -1.2476    0.4279    4.7022 N   0  0  0  0  0  0  0  0  0  0  0  0
   -1.7717    0.2648    5.5578 H   0  0  0  0  0  0  0  0  0  0  0  0
   -0.9131   -0.5403    3.7655 C   0  0  0  0  0  0  0  0  0  0  0  0
   -1.1526   -1.5994    3.8036 H   0  0  0  0  0  0  0  0  0  0  0  0
    0.3020   -0.6933   -1.0696 C   0  0  0  0  0  0  0  0  0  0  0  0
    1.0160   -1.6973   -1.0743 O   0  0  0  0  0  0  0  0  0  0  0  0
    0.1107    0.0698   -2.1527 N   0  0  0  0  0  0  0  0  0  0  0  0
   -0.4998    0.8671   -2.0579 H   0  0  0  0  0  0  0  0  0  0  0  0
    0.7203   -0.1579   -3.4664 C   0  0  0  0  0  0  0  0  0  0  0  0
   -0.0008   -0.6282   -4.1379 H   0  0  0  0  0  0  0  0  0  0  0  0
    1.0324    0.7928   -3.9021 H   0  0  0  0  0  0  0  0  0  0  0  0
    1.5957   -0.8055   -3.3824 H   0  0  0  0  0  0  0  0  0  0  0  0
  5  6  2  0  0  0  0
  5  7  1  0  0  0  0
  2  3  1  0  0  0  0
  2  4  1  0  0  0  0
  2  5  1  0  0  0  0
  1  2  1  0  0  0  0
 23 24  2  0  0  0  0
 23 25  1  0  0  0  0
 21 22  1  0  0  0  0
 19 20  1  0  0  0  0
 19 21  1  0  0  0  0
 17 18  1  0  0  0  0
 17 19  1  0  0  0  0
 15 16  1  0  0  0  0
 15 17  2  0  0  0  0
 14 15  1  0  0  0  0
 14 21  2  0  0  0  0
 11 12  1  0  0  0  0
 11 13  1  0  0  0  0
 11 14  1  0  0  0  0
  9 10  1  0  0  0  0
  9 11  1  0  0  0  0
  9 23  1  0  0  0  0
  7  8  1  0  0  0  0
  7  9  1  0  0  0  0
 27 28  1  0  0  0  0
 27 29  1  0  0  0  0
 27 30  1  0  0  0  0
 25 26  1  0  0  0  0
 25 27  1  0  0  0  0
M  CHG  1  15   1
M  END
$$$$
default_name
  -OEChem-01062215323D

 30 30  0     1  0  0  0  0  0999 V2000
   -3.5507   -3.2183    1.8116 H   0  0  0  0  0  0  0  0  0  0  0  0
   -3.4597   -2.3913    1.1076 C   0  0  0  0  0  0  0  0  0  0  0  0
   -4.1577   -1.6043    1.3866 H   0  0  0  0  0  0  0  0  0  0  0  0
   -3.6807   -2.7523    0.1036 H   0  0  0  0  0  0  0  0  0  0  0  0
   -2.0477   -1.8543    1.1546 C   0  0  0  0  0  0  0  0  0  0  0  0
   -1.2227   -2.3443    1.9146 O   0  0  0  0  0  0  0  0  0  0  0  0
   -1.7517   -0.8483    0.3266 N   0  0  0  0  0  0  0  0  0  0  0  0
   -2.4847   -0.5123   -0.2804 H   0  0  0  0  0  0  0  0  0  0  0  0
   -0.4117   -0.2463    0.2186 C   0  0  1  0  0  0  0  0  0  0  0  0
   -0.5304    0.8377    0.1465 H   0  0  0  0  0  0  0  0  0  0  0  0
    0.3649   -0.5347    1.5244 C   0  0  0  0  0  0  0  0  0  0  0  0
    0.4141   -1.6170    1.6684 H   0  0  0  0  0  0  0  0  0  0  0  0
    1.3914   -0.1792    1.4128 H   0  0  0  0  0  0  0  0  0  0  0  0
   -0.2179    0.0947    2.7721 C   0  0  0  0  0  0  0  0  0  0  0  0
   -0.1325    1.4324    3.1059 N   0  3  0  0  0  0  0  0  0  0  0  0
    0.2854    2.1414    2.4965 H   0  0  0  0  0  0  0  0  0  0  0  0
   -0.7642    1.6188    4.2819 C   0  0  0  0  0  0  0  0  0  0  0  0
   -0.8738    2.5730    4.7932 H   0  0  0  0  0  0  0  0  0  0  0  0
   -1.2476    0.4279    4.7022 N   0  0  0  0  0  0  0  0  0  0  0  0
   -1.7717    0.2648    5.5578 H   0  0  0  0  0  0  0  0  0  0  0  0
   -0.9131   -0.5403    3.7655 C   0  0  0  0  0  0  0  0  0  0  0  0
   -1.1526   -1.5994    3.8036 H   0  0  0  0  0  0  0  0  0  0  0  0
    0.3020   -0.6933   -1.0696 C   0  0  0  0  0  0  0  0  0  0  0  0
    0.7845   -1.8234   -1.1588 O   0  0  0  0  0  0  0  0  0  0  0  0
    0.3734    0.2093   -2.0556 N   0  0  0  0  0  0  0  0  0  0  0  0
   -0.0601    1.1062   -1.8973 H   0  0  0  0  0  0  0  0  0  0  0  0
    1.0346    0.0006   -3.3473 C   0  0  0  0  0  0  0  0  0  0  0  0
    0.2924   -0.2204   -4.1170 H   0  0  0  0  0  0  0  0  0  0  0  0
    1.5784    0.9013   -3.6373 H   0  0  0  0  0  0  0  0  0  0  0  0
    1.7418   -0.8298   -3.2931 H   0  0  0  0  0  0  0  0  0  0  0  0
  5  6  2  0  0  0  0
  5  7  1  0  0  0  0
  2  3  1  0  0  0  0
  2  4  1  0  0  0  0
  2  5  1  0  0  0  0
  1  2  1  0  0  0  0
 23 24  2  0  0  0  0
 23 25  1  0  0  0  0
 21 22  1  0  0  0  0
 19 20  1  0  0  0  0
 19 21  1  0  0  0  0
 17 18  1  0  0  0  0
 17 19  1  0  0  0  0
 15 16  1  0  0  0  0
 15 17  2  0  0  0  0
 14 15  1  0  0  0  0
 14 21  2  0  0  0  0
 11 12  1  0  0  0  0
 11 13  1  0  0  0  0
 11 14  1  0  0  0  0
  9 10  1  0  0  0  0
  9 11  1  0  0  0  0
  9 23  1  0  0  0  0
  7  8  1  0  0  0  0
  7  9  1  0  0  0  0
 27 28  1  0  0  0  0
 27 29  1  0  0  0  0
 27 30  1  0  0  0  0
 25 26  1  0  0  0  0
 25 27  1  0  0  0  0
M  CHG  1  15   1
M  END
$$$$
default_name
  -OEChem-01062215323D

 30 30  0     1  0  0  0  0  0999 V2000
   -3.5507   -3.2183    1.8116 H   0  0  0  0  0  0  0  0  0  0  0  0
   -3.4597   -2.3913    1.1076 C   0  0  0  0  0  0  0  0  0  0  0  0
   -4.1577   -1.6043    1.3866 H   0  0  0  0  0  0  0  0  0  0  0  0
   -3.6807   -2.7523    0.1036 H   0  0  0  0  0  0  0  0  0  0  0  0
   -2.0477   -1.8543    1.1546 C   0  0  0  0  0  0  0  0  0  0  0  0
   -1.2227   -2.3443    1.9146 O   0  0  0  0  0  0  0  0  0  0  0  0
   -1.7517   -0.8483    0.3266 N   0  0  0  0  0  0  0  0  0  0  0  0
   -2.4847   -0.5123   -0.2804 H   0  0  0  0  0  0  0  0  0  0  0  0
   -0.4117   -0.2463    0.2186 C   0  0  1  0  0  0  0  0  0  0  0  0
   -0.5304    0.8377    0.1465 H   0  0  0  0  0  0  0  0  0  0  0  0
    0.3649   -0.5347    1.5244 C   0  0  0  0  0  0  0  0  0  0  0  0
    0.4141   -1.6170    1.6684 H   0  0  0  0  0  0  0  0  0  0  0  0
    1.3914   -0.1792    1.4128 H   0  0  0  0  0  0  0  0  0  0  0  0
   -0.2179    0.0947    2.7721 C   0  0  0  0  0  0  0  0  0  0  0  0
   -0.1325    1.4324    3.1059 N   0  3  0  0  0  0  0  0  0  0  0  0
    0.2854    2.1414    2.4965 H   0  0  0  0  0  0  0  0  0  0  0  0
   -0.7642    1.6188    4.2819 C   0  0  0  0  0  0  0  0  0  0  0  0
   -0.8738    2.5730    4.7932 H   0  0  0  0  0  0  0  0  0  0  0  0
   -1.2476    0.4279    4.7022 N   0  0  0  0  0  0  0  0  0  0  0  0
   -1.7717    0.2648    5.5578 H   0  0  0  0  0  0  0  0  0  0  0  0
   -0.9131   -0.5403    3.7655 C   0  0  0  0  0  0  0  0  0  0  0  0
   -1.1526   -1.5994    3.8036 H   0  0  0  0  0  0  0  0  0  0  0  0
    0.3020   -0.6933   -1.0696 C   0  0  0  0  0  0  0  0  0  0  0  0
    0.5398   -1.8849   -1.2730 O   0  0  0  0  0  0  0  0  0  0  0  0
    0.6501    0.2755   -1.9253 N   0  0  0  0  0  0  0  0  0  0  0  0
    0.4043    1.2227   -1.6805 H   0  0  0  0  0  0  0  0  0  0  0  0
    1.3635    0.0713   -3.1897 C   0  0  0  0  0  0  0  0  0  0  0  0
    0.6623    0.1074   -4.0258 H   0  0  0  0  0  0  0  0  0  0  0  0
    2.1094    0.8560   -3.3274 H   0  0  0  0  0  0  0  0  0  0  0  0
    1.8709   -0.8956   -3.1987 H   0  0  0  0  0  0  0  0  0  0  0  0
  5  6  2  0  0  0  0
  5  7  1  0  0  0  0
  2  3  1  0  0  0  0
  2  4  1  0  0  0  0
  2  5  1  0  0  0  0
  1  2  1  0  0  0  0
 23 24  2  0  0  0  0
 23 25  1  0  0  0  0
 21 22  1  0  0  0  0
 19 20  1  0  0  0  0
 19 21  1  0  0  0  0
 17 18  1  0  0  0  0
 17 19  1  0  0  0  0
 15 16  1  0  0  0  0
 15 17  2  0  0  0  0
 14 15  1  0  0  0  0
 14 21  2  0  0  0  0
 11 12  1  0  0  0  0
 11 13  1  0  0  0  0
 11 14  1  0  0  0  0
  9 10  1  0  0  0  0
  9 11  1  0  0  0  0
  9 23  1  0  0  0  0
  7  8  1  0  0  0  0
  7  9  1  0  0  0  0
 27 28  1  0  0  0  0
 27 29  1  0  0  0  0
 27 30  1  0  0  0  0
 25 26  1  0  0  0  0
 25 27  1  0  0  0  0
M  CHG  1  15   1
M  END
$$$$
default_name
  -OEChem-01062215323D

 30 30  0     1  0  0  0  0  0999 V2000
   -3.5507   -3.2183    1.8116 H   0  0  0  0  0  0  0  0  0  0  0  0
   -3.4597   -2.3913    1.1076 C   0  0  0  0  0  0  0  0  0  0  0  0
   -4.1577   -1.6043    1.3866 H   0  0  0  0  0  0  0  0  0  0  0  0
   -3.6807   -2.7523    0.1036 H   0  0  0  0  0  0  0  0  0  0  0  0
   -2.0477   -1.8543    1.1546 C   0  0  0  0  0  0  0  0  0  0  0  0
   -1.2227   -2.3443    1.9146 O   0  0  0  0  0  0  0  0  0  0  0  0
   -1.7517   -0.8483    0.3266 N   0  0  0  0  0  0  0  0  0  0  0  0
   -2.4847   -0.5123   -0.2804 H   0  0  0  0  0  0  0  0  0  0  0  0
   -0.4117   -0.2463    0.2186 C   0  0  1  0  0  0  0  0  0  0  0  0
   -0.5304    0.8377    0.1465 H   0  0  0  0  0  0  0  0  0  0  0  0
    0.3649   -0.5347    1.5244 C   0  0  0  0  0  0  0  0  0  0  0  0
    0.4141   -1.6170    1.6684 H   0  0  0  0  0  0  0  0  0  0  0  0
    1.3914   -0.1792    1.4128 H   0  0  0  0  0  0  0  0  0  0  0  0
   -0.2179    0.0947    2.7721 C   0  0  0  0  0  0  0  0  0  0  0  0
   -0.1325    1.4324    3.1059 N   0  3  0  0  0  0  0  0  0  0  0  0
    0.2854    2.1414    2.4965 H   0  0  0  0  0  0  0  0  0  0  0  0
   -0.7642    1.6188    4.2819 C   0  0  0  0  0  0  0  0  0  0  0  0
   -0.8738    2.5730    4.7932 H   0  0  0  0  0  0  0  0  0  0  0  0
   -1.2476    0.4279    4.7022 N   0  0  0  0  0  0  0  0  0  0  0  0
   -1.7717    0.2648    5.5578 H   0  0  0  0  0  0  0  0  0  0  0  0
   -0.9131   -0.5403    3.7655 C   0  0  0  0  0  0  0  0  0  0  0  0
   -1.1526   -1.5994    3.8036 H   0  0  0  0  0  0  0  0  0  0  0  0
    0.3020   -0.6933   -1.0696 C   0  0  0  0  0  0  0  0  0  0  0  0
    0.2988   -1.8776   -1.4091 O   0  0  0  0  0  0  0  0  0  0  0  0
    0.9219    0.2639   -1.7707 N   0  0  0  0  0  0  0  0  0  0  0  0
    0.8619    1.2085   -1.4221 H   0  0  0  0  0  0  0  0  0  0  0  0
    1.6847    0.0495   -3.0042 C   0  0  0  0  0  0  0  0  0  0  0  0
    1.0839    0.3330   -3.8706 H   0  0  0  0  0  0  0  0  0  0  0  0
    2.5892    0.6601   -2.9936 H   0  0  0  0  0  0  0  0  0  0  0  0
    1.9743   -0.9985   -3.1057 H   0  0  0  0  0  0  0  0  0  0  0  0
  5  6  2  0  0  0  0
  5  7  1  0  0  0  0
  2  3  1  0  0  0  0
  2  4  1  0  0  0  0
  2  5  1  0  0  0  0
  1  2  1  0  0  0  0
 23 24  2  0  0  0  0
 23 25  1  0  0  0  0
 21 22  1  0  0  0  0
 19 20  1  0  0  0  0
 19 21  1  0  0  0  0
 17 18  1  0  0  0  0
 17 19  1  0  0  0  0
 15 16  1  0  0  0  0
 15 17  2  0  0  0  0
 14 15  1  0  0  0  0
 14 21  2  0  0  0  0
 11 12  1  0  0  0  0
 11 13  1  0  0  0  0
 11 14  1  0  0  0  0
  9 10  1  0  0  0  0
  9 11  1  0  0  0  0
  9 23  1  0  0  0  0
  7  8  1  0  0  0  0
  7  9  1  0  0  0  0
 27 28  1  0  0  0  0
 27 29  1  0  0  0  0
 27 30  1  0  0  0  0
 25 26  1  0  0  0  0
 25 27  1  0  0  0  0
M  CHG  1  15   1
M  END
$$$$
default_name
  -OEChem-01062215323D

 30 30  0     1  0  0  0  0  0999 V2000
   -3.5507   -3.2183    1.8116 H   0  0  0  0  0  0  0  0  0  0  0  0
   -3.4597   -2.3913    1.1076 C   0  0  0  0  0  0  0  0  0  0  0  0
   -4.1577   -1.6043    1.3866 H   0  0  0  0  0  0  0  0  0  0  0  0
   -3.6807   -2.7523    0.1036 H   0  0  0  0  0  0  0  0  0  0  0  0
   -2.0477   -1.8543    1.1546 C   0  0  0  0  0  0  0  0  0  0  0  0
   -1.2227   -2.3443    1.9146 O   0  0  0  0  0  0  0  0  0  0  0  0
   -1.7517   -0.8483    0.3266 N   0  0  0  0  0  0  0  0  0  0  0  0
   -2.4847   -0.5123   -0.2804 H   0  0  0  0  0  0  0  0  0  0  0  0
   -0.4117   -0.2463    0.2186 C   0  0  1  0  0  0  0  0  0  0  0  0
   -0.5304    0.8377    0.1465 H   0  0  0  0  0  0  0  0  0  0  0  0
    0.3649   -0.5347    1.5244 C   0  0  0  0  0  0  0  0  0  0  0  0
    0.4141   -1.6170    1.6684 H   0  0  0  0  0  0  0  0  0  0  0  0
    1.3914   -0.1792    1.4128 H   0  0  0  0  0  0  0  0  0  0  0  0
   -0.2179    0.0947    2.7721 C   0  0  0  0  0  0  0  0  0  0  0  0
   -0.1325    1.4324    3.1059 N   0  3  0  0  0  0  0  0  0  0  0  0
    0.2854    2.1414    2.4965 H   0  0  0  0  0  0  0  0  0  0  0  0
   -0.7642    1.6188    4.2819 C   0  0  0  0  0  0  0  0  0  0  0  0
   -0.8738    2.5730    4.7932 H   0  0  0  0  0  0  0  0  0  0  0  0
   -1.2476    0.4279    4.7022 N   0  0  0  0  0  0  0  0  0  0  0  0
   -1.7717    0.2648    5.5578 H   0  0  0  0  0  0  0  0  0  0  0  0
   -0.9131   -0.5403    3.7655 C   0  0  0  0  0  0  0  0  0  0  0  0
   -1.1526   -1.5994    3.8036 H   0  0  0  0  0  0  0  0  0  0  0  0
    0.3020   -0.6933   -1.0696 C   0  0  0  0  0  0  0  0  0  0  0  0
    0.0778   -1.8020   -1.5578 O   0  0  0  0  0  0  0  0  0  0  0  0
    1.1702    0.1752   -1.6023 N   0  0  0  0  0  0  0  0  0  0  0  0
    1.2814    1.0647   -1.1398 H   0  0  0  0  0  0  0  0  0  0  0  0
    1.9763   -0.0634   -2.8034 C   0  0  0  0  0  0  0  0  0  0  0  0
    1.5282    0.4410   -3.6619 H   0  0  0  0  0  0  0  0  0  0  0  0
    2.9851    0.3268   -2.6586 H   0  0  0  0  0  0  0  0  0  0  0  0
    2.0448   -1.1315   -3.0205 H   0  0  0  0  0  0  0  0  0  0  0  0
  5  6  2  0  0  0  0
  5  7  1  0  0  0  0
  2  3  1  0  0  0  0
  2  4  1  0  0  0  0
  2  5  1  0  0  0  0
  1  2  1  0  0  0  0
 23 24  2  0  0  0  0
 23 25  1  0  0  0  0
 21 22  1  0  0  0  0
 19 20  1  0  0  0  0
 19 21  1  0  0  0  0
 17 18  1  0  0  0  0
 17 19  1  0  0  0  0
 15 16  1  0  0  0  0
 15 17  2  0  0  0  0
 14 15  1  0  0  0  0
 14 21  2  0  0  0  0
 11 12  1  0  0  0  0
 11 13  1  0  0  0  0
 11 14  1  0  0  0  0
  9 10  1  0  0  0  0
  9 11  1  0  0  0  0
  9 23  1  0  0  0  0
  7  8  1  0  0  0  0
  7  9  1  0  0  0  0
 27 28  1  0  0  0  0
 27 29  1  0  0  0  0
 27 30  1  0  0  0  0
 25 26  1  0  0  0  0
 25 27  1  0  0  0  0
M  CHG  1  15   1
M  END
$$$$
default_name
  -OEChem-01062215323D

 30 30  0     1  0  0  0  0  0999 V2000
   -3.5507   -3.2183    1.8116 H   0  0  0  0  0  0  0  0  0  0  0  0
   -3.4597   -2.3913    1.1076 C   0  0  0  0  0  0  0  0  0  0  0  0
   -4.1577   -1.6043    1.3866 H   0  0  0  0  0  0  0  0  0  0  0  0
   -3.6807   -2.7523    0.1036 H   0  0  0  0  0  0  0  0  0  0  0  0
   -2.0477   -1.8543    1.1546 C   0  0  0  0  0  0  0  0  0  0  0  0
   -1.2227   -2.3443    1.9146 O   0  0  0  0  0  0  0  0  0  0  0  0
   -1.7517   -0.8483    0.3266 N   0  0  0  0  0  0  0  0  0  0  0  0
   -2.4847   -0.5123   -0.2804 H   0  0  0  0  0  0  0  0  0  0  0  0
   -0.4117   -0.2463    0.2186 C   0  0  1  0  0  0  0  0  0  0  0  0
   -0.5304    0.8377    0.1465 H   0  0  0  0  0  0  0  0  0  0  0  0
    0.3649   -0.5347    1.5244 C   0  0  0  0  0  0  0  0  0  0  0  0
    0.4141   -1.6170    1.6684 H   0  0  0  0  0  0  0  0  0  0  0  0
    1.3914   -0.1792    1.4128 H   0  0  0  0  0  0  0  0  0  0  0  0
   -0.2179    0.0947    2.7721 C   0  0  0  0  0  0  0  0  0  0  0  0
   -0.1325    1.4324    3.1059 N   0  3  0  0  0  0  0  0  0  0  0  0
    0.2854    2.1414    2.4965 H   0  0  0  0  0  0  0  0  0  0  0  0
   -0.7642    1.6188    4.2819 C   0  0  0  0  0  0  0  0  0  0  0  0
   -0.8738    2.5730    4.7932 H   0  0  0  0  0  0  0  0  0  0  0  0
   -1.2476    0.4279    4.7022 N   0  0  0  0  0  0  0  0  0  0  0  0
   -1.7717    0.2648    5.5578 H   0  0  0  0  0  0  0  0  0  0  0  0
   -0.9131   -0.5403    3.7655 C   0  0  0  0  0  0  0  0  0  0  0  0
   -1.1526   -1.5994    3.8036 H   0  0  0  0  0  0  0  0  0  0  0  0
    0.3020   -0.6933   -1.0696 C   0  0  0  0  0  0  0  0  0  0  0  0
   -0.1082   -1.6633   -1.7089 O   0  0  0  0  0  0  0  0  0  0  0  0
    1.3783    0.0156   -1.4316 N   0  0  0  0  0  0  0  0  0  0  0  0
    1.6342    0.8010   -0.8528 H   0  0  0  0  0  0  0  0  0  0  0  0
    2.2183   -0.2597   -2.6012 C   0  0  0  0  0  0  0  0  0  0  0  0
    1.9651    0.4240   -3.4140 H   0  0  0  0  0  0  0  0  0  0  0  0
    3.2702   -0.1210   -2.3453 H   0  0  0  0  0  0  0  0  0  0  0  0
    2.0778   -1.2854   -2.9488 H   0  0  0  0  0  0  0  0  0  0  0  0
  5  6  2  0  0  0  0
  5  7  1  0  0  0  0
  2  3  1  0  0  0  0
  2  4  1  0  0  0  0
  2  5  1  0  0  0  0
  1  2  1  0  0  0  0
 23 24  2  0  0  0  0
 23 25  1  0  0  0  0
 21 22  1  0  0  0  0
 19 20  1  0  0  0  0
 19 21  1  0  0  0  0
 17 18  1  0  0  0  0
 17 19  1  0  0  0  0
 15 16  1  0  0  0  0
 15 17  2  0  0  0  0
 14 15  1  0  0  0  0
 14 21  2  0  0  0  0
 11 12  1  0  0  0  0
 11 13  1  0  0  0  0
 11 14  1  0  0  0  0
  9 10  1  0  0  0  0
  9 11  1  0  0  0  0
  9 23  1  0  0  0  0
  7  8  1  0  0  0  0
  7  9  1  0  0  0  0
 27 28  1  0  0  0  0
 27 29  1  0  0  0  0
 27 30  1  0  0  0  0
 25 26  1  0  0  0  0
 25 27  1  0  0  0  0
M  CHG  1  15   1
M  END
$$$$
default_name
  -OEChem-01062215323D

 30 30  0     1  0  0  0  0  0999 V2000
   -3.5507   -3.2183    1.8116 H   0  0  0  0  0  0  0  0  0  0  0  0
   -3.4597   -2.3913    1.1076 C   0  0  0  0  0  0  0  0  0  0  0  0
   -4.1577   -1.6043    1.3866 H   0  0  0  0  0  0  0  0  0  0  0  0
   -3.6807   -2.7523    0.1036 H   0  0  0  0  0  0  0  0  0  0  0  0
   -2.0477   -1.8543    1.1546 C   0  0  0  0  0  0  0  0  0  0  0  0
   -1.2227   -2.3443    1.9146 O   0  0  0  0  0  0  0  0  0  0  0  0
   -1.7517   -0.8483    0.3266 N   0  0  0  0  0  0  0  0  0  0  0  0
   -2.4847   -0.5123   -0.2804 H   0  0  0  0  0  0  0  0  0  0  0  0
   -0.4117   -0.2463    0.2186 C   0  0  1  0  0  0  0  0  0  0  0  0
   -0.5028    0.8247    0.4159 H   0  0  0  0  0  0  0  0  0  0  0  0
    0.4863   -0.8402    1.3286 C   0  0  0  0  0  0  0  0  0  0  0  0
    0.5159   -1.9262    1.2087 H   0  0  0  0  0  0  0  0  0  0  0  0
    1.5065   -0.4748    1.1932 H   0  0  0  0  0  0  0  0  0  0  0  0
    0.0561   -0.5201    2.7445 C   0  0  0  0  0  0  0  0  0  0  0  0
    0.2178    0.7003    3.3715 N   0  3  0  0  0  0  0  0  0  0  0  0
    0.5926    1.5306    2.9037 H   0  0  0  0  0  0  0  0  0  0  0  0
   -0.2825    0.6072    4.6195 C   0  0  0  0  0  0  0  0  0  0  0  0
   -0.3084    1.4142    5.3491 H   0  0  0  0  0  0  0  0  0  0  0  0
   -0.7573   -0.6462    4.7986 N   0  0  0  0  0  0  0  0  0  0  0  0
   -1.1949   -1.0037    5.6437 H   0  0  0  0  0  0  0  0  0  0  0  0
   -0.5524   -1.3675    3.6306 C   0  0  0  0  0  0  0  0  0  0  0  0
   -0.8200   -2.4040    3.4450 H   0  0  0  0  0  0  0  0  0  0  0  0
    0.1503   -0.3805   -1.2079 C   0  0  0  0  0  0  0  0  0  0  0  0
   -0.5004   -0.9475   -2.0870 O   0  0  0  0  0  0  0  0  0  0  0  0
    1.3676    0.1344   -1.4200 N   0  0  0  0  0  0  0  0  0  0  0  0
    1.8215    0.5906   -0.6432 H   0  0  0  0  0  0  0  0  0  0  0  0
    2.0969    0.0860   -2.6909 C   0  0  0  0  0  0  0  0  0  0  0  0
    2.0173    1.0456   -3.2056 H   0  0  0  0  0  0  0  0  0  0  0  0
    3.1521   -0.1233   -2.5071 H   0  0  0  0  0  0  0  0  0  0  0  0
    1.6959   -0.6949   -3.3404 H   0  0  0  0  0  0  0  0  0  0  0  0
  5  6  2  0  0  0  0
  5  7  1  0  0  0  0
  2  3  1  0  0  0  0
  2  4  1  0  0  0  0
  2  5  1  0  0  0  0
  1  2  1  0  0  0  0
 23 24  2  0  0  0  0
 23 25  1  0  0  0  0
 21 22  1  0  0  0  0
 19 20  1  0  0  0  0
 19 21  1  0  0  0  0
 17 18  1  0  0  0  0
 17 19  1  0  0  0  0
 15 16  1  0  0  0  0
 15 17  2  0  0  0  0
 14 15  1  0  0  0  0
 14 21  2  0  0  0  0
 11 12  1  0  0  0  0
 11 13  1  0  0  0  0
 11 14  1  0  0  0  0
  9 10  1  0  0  0  0
  9 11  1  0  0  0  0
  9 23  1  0  0  0  0
  7  8  1  0  0  0  0
  7  9  1  0  0  0  0
 27 28  1  0  0  0  0
 27 29  1  0  0  0  0
 27 30  1  0  0  0  0
 25 26  1  0  0  0  0
 25 27  1  0  0  0  0
M  CHG  1  15   1
M  END
$$$$
default_name
  -OEChem-01062215323D

 30 30  0     1  0  0  0  0  0999 V2000
   -3.5507   -3.2183    1.8116 H   0  0  0  0  0  0  0  0  0  0  0  0
   -3.4597   -2.3913    1.1076 C   0  0  0  0  0  0  0  0  0  0  0  0
   -4.1577   -1.6043    1.3866 H   0  0  0  0  0  0  0  0  0  0  0  0
   -3.6807   -2.7523    0.1036 H   0  0  0  0  0  0  0  0  0  0  0  0
   -2.0477   -1.8543    1.1546 C   0  0  0  0  0  0  0  0  0  0  0  0
   -1.2227   -2.3443    1.9146 O   0  0  0  0  0  0  0  0  0  0  0  0
   -1.7517   -0.8483    0.3266 N   0  0  0  0  0  0  0  0  0  0  0  0
   -2.4847   -0.5123   -0.2804 H   0  0  0  0  0  0  0  0  0  0  0  0
   -0.4117   -0.2463    0.2186 C   0  0  1  0  0  0  0  0  0  0  0  0
   -0.5028    0.8247    0.4159 H   0  0  0  0  0  0  0  0  0  0  0  0
    0.4863   -0.8402    1.3286 C   0  0  0  0  0  0  0  0  0  0  0  0
    0.5159   -1.9262    1.2087 H   0  0  0  0  0  0  0  0  0  0  0  0
    1.5065   -0.4748    1.1932 H   0  0  0  0  0  0  0  0  0  0  0  0
    0.0561   -0.5201    2.7445 C   0  0  0  0  0  0  0  0  0  0  0  0
    0.2178    0.7003    3.3715 N   0  3  0  0  0  0  0  0  0  0  0  0
    0.5926    1.5306    2.9037 H   0  0  0  0  0  0  0  0  0  0  0  0
   -0.2825    0.6072    4.6195 C   0  0  0  0  0  0  0  0  0  0  0  0
   -0.3084    1.4142    5.3491 H   0  0  0  0  0  0  0  0  0  0  0  0
   -0.7573   -0.6462    4.7986 N   0  0  0  0  0  0  0  0  0  0  0  0
   -1.1949   -1.0037    5.6437 H   0  0  0  0  0  0  0  0  0  0  0  0
   -0.5524   -1.3675    3.6306 C   0  0  0  0  0  0  0  0  0  0  0  0
   -0.8200   -2.4040    3.4450 H   0  0  0  0  0  0  0  0  0  0  0  0
    0.1503   -0.3805   -1.2079 C   0  0  0  0  0  0  0  0  0  0  0  0
   -0.5866   -0.6908   -2.1451 O   0  0  0  0  0  0  0  0  0  0  0  0
    1.4619   -0.1569   -1.3554 N   0  0  0  0  0  0  0  0  0  0  0  0
    1.9848    0.1032   -0.5330 H   0  0  0  0  0  0  0  0  0  0  0  0
    2.2014   -0.2627   -2.6169 C   0  0  0  0  0  0  0  0  0  0  0  0
    2.3708    0.7308   -3.0367 H   0  0  0  0  0  0  0  0  0  0  0  0
    3.1692   -0.7362   -2.4427 H   0  0  0  0  0  0  0  0  0  0  0  0
    1.6479   -0.8611   -3.3437 H   0  0  0  0  0  0  0  0  0  0  0  0
  5  6  2  0  0  0  0
  5  7  1  0  0  0  0
  2  3  1  0  0  0  0
  2  4  1  0  0  0  0
  2  5  1  0  0  0  0
  1  2  1  0  0  0  0
 23 24  2  0  0  0  0
 23 25  1  0  0  0  0
 21 22  1  0  0  0  0
 19 20  1  0  0  0  0
 19 21  1  0  0  0  0
 17 18  1  0  0  0  0
 17 19  1  0  0  0  0
 15 16  1  0  0  0  0
 15 17  2  0  0  0  0
 14 15  1  0  0  0  0
 14 21  2  0  0  0  0
 11 12  1  0  0  0  0
 11 13  1  0  0  0  0
 11 14  1  0  0  0  0
  9 10  1  0  0  0  0
  9 11  1  0  0  0  0
  9 23  1  0  0  0  0
  7  8  1  0  0  0  0
  7  9  1  0  0  0  0
 27 28  1  0  0  0  0
 27 29  1  0  0  0  0
 27 30  1  0  0  0  0
 25 26  1  0  0  0  0
 25 27  1  0  0  0  0
M  CHG  1  15   1
M  END
$$$$
default_name
  -OEChem-01062215323D

 30 30  0     1  0  0  0  0  0999 V2000
   -3.5507   -3.2183    1.8116 H   0  0  0  0  0  0  0  0  0  0  0  0
   -3.4597   -2.3913    1.1076 C   0  0  0  0  0  0  0  0  0  0  0  0
   -4.1577   -1.6043    1.3866 H   0  0  0  0  0  0  0  0  0  0  0  0
   -3.6807   -2.7523    0.1036 H   0  0  0  0  0  0  0  0  0  0  0  0
   -2.0477   -1.8543    1.1546 C   0  0  0  0  0  0  0  0  0  0  0  0
   -1.2227   -2.3443    1.9146 O   0  0  0  0  0  0  0  0  0  0  0  0
   -1.7517   -0.8483    0.3266 N   0  0  0  0  0  0  0  0  0  0  0  0
   -2.4847   -0.5123   -0.2804 H   0  0  0  0  0  0  0  0  0  0  0  0
   -0.4117   -0.2463    0.2186 C   0  0  1  0  0  0  0  0  0  0  0  0
   -0.5028    0.8247    0.4159 H   0  0  0  0  0  0  0  0  0  0  0  0
    0.4863   -0.8402    1.3286 C   0  0  0  0  0  0  0  0  0  0  0  0
    0.5159   -1.9262    1.2087 H   0  0  0  0  0  0  0  0  0  0  0  0
    1.5065   -0.4748    1.1932 H   0  0  0  0  0  0  0  0  0  0  0  0
    0.0561   -0.5201    2.7445 C   0  0  0  0  0  0  0  0  0  0  0  0
    0.2178    0.7003    3.3715 N   0  3  0  0  0  0  0  0  0  0  0  0
    0.5926    1.5306    2.9037 H   0  0  0  0  0  0  0  0  0  0  0  0
   -0.2825    0.6072    4.6195 C   0  0  0  0  0  0  0  0  0  0  0  0
   -0.3084    1.4142    5.3491 H   0  0  0  0  0  0  0  0  0  0  0  0
   -0.7573   -0.6462    4.7986 N   0  0  0  0  0  0  0  0  0  0  0  0
   -1.1949   -1.0037    5.6437 H   0  0  0  0  0  0  0  0  0  0  0  0
   -0.5524   -1.3675    3.6306 C   0  0  0  0  0  0  0  0  0  0  0  0
   -0.8200   -2.4040    3.4450 H   0  0  0  0  0  0  0  0  0  0  0  0
    0.1503   -0.3805   -1.2079 C   0  0  0  0  0  0  0  0  0  0  0  0
   -0.6070   -0.4167   -2.1789 O   0  0  0  0  0  0  0  0  0  0  0  0
    1.4816   -0.4669   -1.3185 N   0  0  0  0  0  0  0  0  0  0  0  0
    2.0231   -0.4171   -0.4690 H   0  0  0  0  0  0  0  0  0  0  0  0
    2.2170   -0.6317   -2.5760 C   0  0  0  0  0  0  0  0  0  0  0  0
    2.6330    0.3259   -2.8953 H   0  0  0  0  0  0  0  0  0  0  0  0
    3.0373   -1.3383   -2.4380 H   0  0  0  0  0  0  0  0  0  0  0  0
    1.5618   -1.0097   -3.3636 H   0  0  0  0  0  0  0  0  0  0  0  0
  5  6  2  0  0  0  0
  5  7  1  0  0  0  0
  2  3  1  0  0  0  0
  2  4  1  0  0  0  0
  2  5  1  0  0  0  0
  1  2  1  0  0  0  0
 23 24  2  0  0  0  0
 23 25  1  0  0  0  0
 21 22  1  0  0  0  0
 19 20  1  0  0  0  0
 19 21  1  0  0  0  0
 17 18  1  0  0  0  0
 17 19  1  0  0  0  0
 15 16  1  0  0  0  0
 15 17  2  0  0  0  0
 14 15  1  0  0  0  0
 14 21  2  0  0  0  0
 11 12  1  0  0  0  0
 11 13  1  0  0  0  0
 11 14  1  0  0  0  0
  9 10  1  0  0  0  0
  9 11  1  0  0  0  0
  9 23  1  0  0  0  0
  7  8  1  0  0  0  0
  7  9  1  0  0  0  0
 27 28  1  0  0  0  0
 27 29  1  0  0  0  0
 27 30  1  0  0  0  0
 25 26  1  0  0  0  0
 25 27  1  0  0  0  0
M  CHG  1  15   1
M  END
$$$$
default_name
  -OEChem-01062215323D

 30 30  0     1  0  0  0  0  0999 V2000
   -3.5507   -3.2183    1.8116 H   0  0  0  0  0  0  0  0  0  0  0  0
   -3.4597   -2.3913    1.1076 C   0  0  0  0  0  0  0  0  0  0  0  0
   -4.1577   -1.6043    1.3866 H   0  0  0  0  0  0  0  0  0  0  0  0
   -3.6807   -2.7523    0.1036 H   0  0  0  0  0  0  0  0  0  0  0  0
   -2.0477   -1.8543    1.1546 C   0  0  0  0  0  0  0  0  0  0  0  0
   -1.2227   -2.3443    1.9146 O   0  0  0  0  0  0  0  0  0  0  0  0
   -1.7517   -0.8483    0.3266 N   0  0  0  0  0  0  0  0  0  0  0  0
   -2.4847   -0.5123   -0.2804 H   0  0  0  0  0  0  0  0  0  0  0  0
   -0.4117   -0.2463    0.2186 C   0  0  1  0  0  0  0  0  0  0  0  0
   -0.5028    0.8247    0.4159 H   0  0  0  0  0  0  0  0  0  0  0  0
    0.4863   -0.8402    1.3286 C   0  0  0  0  0  0  0  0  0  0  0  0
    0.5159   -1.9262    1.2087 H   0  0  0  0  0  0  0  0  0  0  0  0
    1.5065   -0.4748    1.1932 H   0  0  0  0  0  0  0  0  0  0  0  0
    0.0561   -0.5201    2.7445 C   0  0  0  0  0  0  0  0  0  0  0  0
    0.2178    0.7003    3.3715 N   0  3  0  0  0  0  0  0  0  0  0  0
    0.5926    1.5306    2.9037 H   0  0  0  0  0  0  0  0  0  0  0  0
   -0.2825    0.6072    4.6195 C   0  0  0  0  0  0  0  0  0  0  0  0
   -0.3084    1.4142    5.3491 H   0  0  0  0  0  0  0  0  0  0  0  0
   -0.7573   -0.6462    4.7986 N   0  0  0  0  0  0  0  0  0  0  0  0
   -1.1949   -1.0037    5.6437 H   0  0  0  0  0  0  0  0  0  0  0  0
   -0.5524   -1.3675    3.6306 C   0  0  0  0  0  0  0  0  0  0  0  0
   -0.8200   -2.4040    3.4450 H   0  0  0  0  0  0  0  0  0  0  0  0
    0.1503   -0.3805   -1.2079 C   0  0  0  0  0  0  0  0  0  0  0  0
   -0.5602   -0.1439   -2.1862 O   0  0  0  0  0  0  0  0  0  0  0  0
    1.4254   -0.7747   -1.3116 N   0  0  0  0  0  0  0  0  0  0  0  0
    1.9339   -0.9350   -0.4554 H   0  0  0  0  0  0  0  0  0  0  0  0
    2.1427   -0.9957   -2.5710 C   0  0  0  0  0  0  0  0  0  0  0  0
    2.7860   -0.1414   -2.7910 H   0  0  0  0  0  0  0  0  0  0  0  0
    2.7652   -1.8887   -2.4933 H   0  0  0  0  0  0  0  0  0  0  0  0
    1.4434   -1.1308   -3.3988 H   0  0  0  0  0  0  0  0  0  0  0  0
  5  6  2  0  0  0  0
  5  7  1  0  0  0  0
  2  3  1  0  0  0  0
  2  4  1  0  0  0  0
  2  5  1  0  0  0  0
  1  2  1  0  0  0  0
 23 24  2  0  0  0  0
 23 25  1  0  0  0  0
 21 22  1  0  0  0  0
 19 20  1  0  0  0  0
 19 21  1  0  0  0  0
 17 18  1  0  0  0  0
 17 19  1  0  0  0  0
 15 16  1  0  0  0  0
 15 17  2  0  0  0  0
 14 15  1  0  0  0  0
 14 21  2  0  0  0  0
 11 12  1  0  0  0  0
 11 13  1  0  0  0  0
 11 14  1  0  0  0  0
  9 10  1  0  0  0  0
  9 11  1  0  0  0  0
  9 23  1  0  0  0  0
  7  8  1  0  0  0  0
  7  9  1  0  0  0  0
 27 28  1  0  0  0  0
 27 29  1  0  0  0  0
 27 30  1  0  0  0  0
 25 26  1  0  0  0  0
 25 27  1  0  0  0  0
M  CHG  1  15   1
M  END
$$$$
default_name
  -OEChem-01062215323D

 30 30  0     1  0  0  0  0  0999 V2000
   -3.5507   -3.2183    1.8116 H   0  0  0  0  0  0  0  0  0  0  0  0
   -3.4597   -2.3913    1.1076 C   0  0  0  0  0  0  0  0  0  0  0  0
   -4.1577   -1.6043    1.3866 H   0  0  0  0  0  0  0  0  0  0  0  0
   -3.6807   -2.7523    0.1036 H   0  0  0  0  0  0  0  0  0  0  0  0
   -2.0477   -1.8543    1.1546 C   0  0  0  0  0  0  0  0  0  0  0  0
   -1.2227   -2.3443    1.9146 O   0  0  0  0  0  0  0  0  0  0  0  0
   -1.7517   -0.8483    0.3266 N   0  0  0  0  0  0  0  0  0  0  0  0
   -2.4847   -0.5123   -0.2804 H   0  0  0  0  0  0  0  0  0  0  0  0
   -0.4117   -0.2463    0.2186 C   0  0  1  0  0  0  0  0  0  0  0  0
   -0.5028    0.8247    0.4159 H   0  0  0  0  0  0  0  0  0  0  0  0
    0.4863   -0.8402    1.3286 C   0  0  0  0  0  0  0  0  0  0  0  0
    0.5159   -1.9262    1.2087 H   0  0  0  0  0  0  0  0  0  0  0  0
    1.5065   -0.4748    1.1932 H   0  0  0  0  0  0  0  0  0  0  0  0
    0.0561   -0.5201    2.7445 C   0  0  0  0  0  0  0  0  0  0  0  0
    0.2178    0.7003    3.3715 N   0  3  0  0  0  0  0  0  0  0  0  0
    0.5926    1.5306    2.9037 H   0  0  0  0  0  0  0  0  0  0  0  0
   -0.2825    0.6072    4.6195 C   0  0  0  0  0  0  0  0  0  0  0  0
   -0.3084    1.4142    5.3491 H   0  0  0  0  0  0  0  0  0  0  0  0
   -0.7573   -0.6462    4.7986 N   0  0  0  0  0  0  0  0  0  0  0  0
   -1.1949   -1.0037    5.6437 H   0  0  0  0  0  0  0  0  0  0  0  0
   -0.5524   -1.3675    3.6306 C   0  0  0  0  0  0  0  0  0  0  0  0
   -0.8200   -2.4040    3.4450 H   0  0  0  0  0  0  0  0  0  0  0  0
    0.1503   -0.3805   -1.2079 C   0  0  0  0  0  0  0  0  0  0  0  0
   -0.4493    0.1090   -2.1663 O   0  0  0  0  0  0  0  0  0  0  0  0
    1.2972   -1.0591   -1.3354 N   0  0  0  0  0  0  0  0  0  0  0  0
    1.7231   -1.4151   -0.4932 H   0  0  0  0  0  0  0  0  0  0  0  0
    1.9834   -1.3300   -2.6023 C   0  0  0  0  0  0  0  0  0  0  0  0
    2.8193   -0.6394   -2.7311 H   0  0  0  0  0  0  0  0  0  0  0  0
    2.3717   -2.3499   -2.6050 H   0  0  0  0  0  0  0  0  0  0  0  0
    1.3007   -1.2160   -3.4470 H   0  0  0  0  0  0  0  0  0  0  0  0
  5  6  2  0  0  0  0
  5  7  1  0  0  0  0
  2  3  1  0  0  0  0
  2  4  1  0  0  0  0
  2  5  1  0  0  0  0
  1  2  1  0  0  0  0
 23 24  2  0  0  0  0
 23 25  1  0  0  0  0
 21 22  1  0  0  0  0
 19 20  1  0  0  0  0
 19 21  1  0  0  0  0
 17 18  1  0  0  0  0
 17 19  1  0  0  0  0
 15 16  1  0  0  0  0
 15 17  2  0  0  0  0
 14 15  1  0  0  0  0
 14 21  2  0  0  0  0
 11 12  1  0  0  0  0
 11 13  1  0  0  0  0
 11 14  1  0  0  0  0
  9 10  1  0  0  0  0
  9 11  1  0  0  0  0
  9 23  1  0  0  0  0
  7  8  1  0  0  0  0
  7  9  1  0  0  0  0
 27 28  1  0  0  0  0
 27 29  1  0  0  0  0
 27 30  1  0  0  0  0
 25 26  1  0  0  0  0
 25 27  1  0  0  0  0
M  CHG  1  15   1
M  END
$$$$
default_name
  -OEChem-01062215323D

 30 30  0     1  0  0  0  0  0999 V2000
   -3.5507   -3.2183    1.8116 H   0  0  0  0  0  0  0  0  0  0  0  0
   -3.4597   -2.3913    1.1076 C   0  0  0  0  0  0  0  0  0  0  0  0
   -4.1577   -1.6043    1.3866 H   0  0  0  0  0  0  0  0  0  0  0  0
   -3.6807   -2.7523    0.1036 H   0  0  0  0  0  0  0  0  0  0  0  0
   -2.0477   -1.8543    1.1546 C   0  0  0  0  0  0  0  0  0  0  0  0
   -1.2227   -2.3443    1.9146 O   0  0  0  0  0  0  0  0  0  0  0  0
   -1.7517   -0.8483    0.3266 N   0  0  0  0  0  0  0  0  0  0  0  0
   -2.4847   -0.5123   -0.2804 H   0  0  0  0  0  0  0  0  0  0  0  0
   -0.4117   -0.2463    0.2186 C   0  0  1  0  0  0  0  0  0  0  0  0
   -0.5028    0.8247    0.4159 H   0  0  0  0  0  0  0  0  0  0  0  0
    0.4863   -0.8402    1.3286 C   0  0  0  0  0  0  0  0  0  0  0  0
    0.5159   -1.9262    1.2087 H   0  0  0  0  0  0  0  0  0  0  0  0
    1.5065   -0.4748    1.1932 H   0  0  0  0  0  0  0  0  0  0  0  0
    0.0561   -0.5201    2.7445 C   0  0  0  0  0  0  0  0  0  0  0  0
    0.2178    0.7003    3.3715 N   0  3  0  0  0  0  0  0  0  0  0  0
    0.5926    1.5306    2.9037 H   0  0  0  0  0  0  0  0  0  0  0  0
   -0.2825    0.6072    4.6195 C   0  0  0  0  0  0  0  0  0  0  0  0
   -0.3084    1.4142    5.3491 H   0  0  0  0  0  0  0  0  0  0  0  0
   -0.7573   -0.6462    4.7986 N   0  0  0  0  0  0  0  0  0  0  0  0
   -1.1949   -1.0037    5.6437 H   0  0  0  0  0  0  0  0  0  0  0  0
   -0.5524   -1.3675    3.6306 C   0  0  0  0  0  0  0  0  0  0  0  0
   -0.8200   -2.4040    3.4450 H   0  0  0  0  0  0  0  0  0  0  0  0
    0.1503   -0.3805   -1.2079 C   0  0  0  0  0  0  0  0  0  0  0  0
   -0.2820    0.3249   -2.1207 O   0  0  0  0  0  0  0  0  0  0  0  0
    1.1056   -1.3008   -1.3881 N   0  0  0  0  0  0  0  0  0  0  0  0
    1.4053   -1.8247   -0.5799 H   0  0  0  0  0  0  0  0  0  0  0  0
    1.7501   -1.6116   -2.6677 C   0  0  0  0  0  0  0  0  0  0  0  0
    2.7306   -1.1340   -2.7194 H   0  0  0  0  0  0  0  0  0  0  0  0
    1.8835   -2.6905   -2.7653 H   0  0  0  0  0  0  0  0  0  0  0  0
    1.1436   -1.2595   -3.5048 H   0  0  0  0  0  0  0  0  0  0  0  0
  5  6  2  0  0  0  0
  5  7  1  0  0  0  0
  2  3  1  0  0  0  0
  2  4  1  0  0  0  0
  2  5  1  0  0  0  0
  1  2  1  0  0  0  0
 23 24  2  0  0  0  0
 23 25  1  0  0  0  0
 21 22  1  0  0  0  0
 19 20  1  0  0  0  0
 19 21  1  0  0  0  0
 17 18  1  0  0  0  0
 17 19  1  0  0  0  0
 15 16  1  0  0  0  0
 15 17  2  0  0  0  0
 14 15  1  0  0  0  0
 14 21  2  0  0  0  0
 11 12  1  0  0  0  0
 11 13  1  0  0  0  0
 11 14  1  0  0  0  0
  9 10  1  0  0  0  0
  9 11  1  0  0  0  0
  9 23  1  0  0  0  0
  7  8  1  0  0  0  0
  7  9  1  0  0  0  0
 27 28  1  0  0  0  0
 27 29  1  0  0  0  0
 27 30  1  0  0  0  0
 25 26  1  0  0  0  0
 25 27  1  0  0  0  0
M  CHG  1  15   1
M  END
$$$$
default_name
  -OEChem-01062215323D

 30 30  0     1  0  0  0  0  0999 V2000
   -3.5507   -3.2183    1.8116 H   0  0  0  0  0  0  0  0  0  0  0  0
   -3.4597   -2.3913    1.1076 C   0  0  0  0  0  0  0  0  0  0  0  0
   -4.1577   -1.6043    1.3866 H   0  0  0  0  0  0  0  0  0  0  0  0
   -3.6807   -2.7523    0.1036 H   0  0  0  0  0  0  0  0  0  0  0  0
   -2.0477   -1.8543    1.1546 C   0  0  0  0  0  0  0  0  0  0  0  0
   -1.2227   -2.3443    1.9146 O   0  0  0  0  0  0  0  0  0  0  0  0
   -1.7517   -0.8483    0.3266 N   0  0  0  0  0  0  0  0  0  0  0  0
   -2.4847   -0.5123   -0.2804 H   0  0  0  0  0  0  0  0  0  0  0  0
   -0.4117   -0.2463    0.2186 C   0  0  1  0  0  0  0  0  0  0  0  0
   -0.5028    0.8247    0.4159 H   0  0  0  0  0  0  0  0  0  0  0  0
    0.4863   -0.8402    1.3286 C   0  0  0  0  0  0  0  0  0  0  0  0
    0.5159   -1.9262    1.2087 H   0  0  0  0  0  0  0  0  0  0  0  0
    1.5065   -0.4748    1.1932 H   0  0  0  0  0  0  0  0  0  0  0  0
    0.0561   -0.5201    2.7445 C   0  0  0  0  0  0  0  0  0  0  0  0
    0.2178    0.7003    3.3715 N   0  3  0  0  0  0  0  0  0  0  0  0
    0.5926    1.5306    2.9037 H   0  0  0  0  0  0  0  0  0  0  0  0
   -0.2825    0.6072    4.6195 C   0  0  0  0  0  0  0  0  0  0  0  0
   -0.3084    1.4142    5.3491 H   0  0  0  0  0  0  0  0  0  0  0  0
   -0.7573   -0.6462    4.7986 N   0  0  0  0  0  0  0  0  0  0  0  0
   -1.1949   -1.0037    5.6437 H   0  0  0  0  0  0  0  0  0  0  0  0
   -0.5524   -1.3675    3.6306 C   0  0  0  0  0  0  0  0  0  0  0  0
   -0.8200   -2.4040    3.4450 H   0  0  0  0  0  0  0  0  0  0  0  0
    0.1503   -0.3805   -1.2079 C   0  0  0  0  0  0  0  0  0  0  0  0
   -0.0696    0.4890   -2.0525 O   0  0  0  0  0  0  0  0  0  0  0  0
    0.8638   -1.4834   -1.4662 N   0  0  0  0  0  0  0  0  0  0  0  0
    1.0019   -2.1359   -0.7095 H   0  0  0  0  0  0  0  0  0  0  0  0
    1.4587   -1.8216   -2.7628 C   0  0  0  0  0  0  0  0  0  0  0  0
    2.5260   -1.5916   -2.7570 H   0  0  0  0  0  0  0  0  0  0  0  0
    1.3338   -2.8871   -2.9633 H   0  0  0  0  0  0  0  0  0  0  0  0
    0.9827   -1.2584   -3.5683 H   0  0  0  0  0  0  0  0  0  0  0  0
  5  6  2  0  0  0  0
  5  7  1  0  0  0  0
  2  3  1  0  0  0  0
  2  4  1  0  0  0  0
  2  5  1  0  0  0  0
  1  2  1  0  0  0  0
 23 24  2  0  0  0  0
 23 25  1  0  0  0  0
 21 22  1  0  0  0  0
 19 20  1  0  0  0  0
 19 21  1  0  0  0  0
 17 18  1  0  0  0  0
 17 19  1  0  0  0  0
 15 16  1  0  0  0  0
 15 17  2  0  0  0  0
 14 15  1  0  0  0  0
 14 21  2  0  0  0  0
 11 12  1  0  0  0  0
 11 13  1  0  0  0  0
 11 14  1  0  0  0  0
  9 10  1  0  0  0  0
  9 11  1  0  0  0  0
  9 23  1  0  0  0  0
  7  8  1  0  0  0  0
  7  9  1  0  0  0  0
 27 28  1  0  0  0  0
 27 29  1  0  0  0  0
 27 30  1  0  0  0  0
 25 26  1  0  0  0  0
 25 27  1  0  0  0  0
M  CHG  1  15   1
M  END
$$$$
default_name
  -OEChem-01062215323D

 30 30  0     1  0  0  0  0  0999 V2000
   -3.5507   -3.2183    1.8116 H   0  0  0  0  0  0  0  0  0  0  0  0
   -3.4597   -2.3913    1.1076 C   0  0  0  0  0  0  0  0  0  0  0  0
   -4.1577   -1.6043    1.3866 H   0  0  0  0  0  0  0  0  0  0  0  0
   -3.6807   -2.7523    0.1036 H   0  0  0  0  0  0  0  0  0  0  0  0
   -2.0477   -1.8543    1.1546 C   0  0  0  0  0  0  0  0  0  0  0  0
   -1.2227   -2.3443    1.9146 O   0  0  0  0  0  0  0  0  0  0  0  0
   -1.7517   -0.8483    0.3266 N   0  0  0  0  0  0  0  0  0  0  0  0
   -2.4847   -0.5123   -0.2804 H   0  0  0  0  0  0  0  0  0  0  0  0
   -0.4117   -0.2463    0.2186 C   0  0  1  0  0  0  0  0  0  0  0  0
   -0.5028    0.8247    0.4159 H   0  0  0  0  0  0  0  0  0  0  0  0
    0.4863   -0.8402    1.3286 C   0  0  0  0  0  0  0  0  0  0  0  0
    0.5159   -1.9262    1.2087 H   0  0  0  0  0  0  0  0  0  0  0  0
    1.5065   -0.4748    1.1932 H   0  0  0  0  0  0  0  0  0  0  0  0
    0.0561   -0.5201    2.7445 C   0  0  0  0  0  0  0  0  0  0  0  0
    0.2178    0.7003    3.3715 N   0  3  0  0  0  0  0  0  0  0  0  0
    0.5926    1.5306    2.9037 H   0  0  0  0  0  0  0  0  0  0  0  0
   -0.2825    0.6072    4.6195 C   0  0  0  0  0  0  0  0  0  0  0  0
   -0.3084    1.4142    5.3491 H   0  0  0  0  0  0  0  0  0  0  0  0
   -0.7573   -0.6462    4.7986 N   0  0  0  0  0  0  0  0  0  0  0  0
   -1.1949   -1.0037    5.6437 H   0  0  0  0  0  0  0  0  0  0  0  0
   -0.5524   -1.3675    3.6306 C   0  0  0  0  0  0  0  0  0  0  0  0
   -0.8200   -2.4040    3.4450 H   0  0  0  0  0  0  0  0  0  0  0  0
    0.1503   -0.3805   -1.2079 C   0  0  0  0  0  0  0  0  0  0  0  0
    0.1733    0.5901   -1.9663 O   0  0  0  0  0  0  0  0  0  0  0  0
    0.5882   -1.5943   -1.5643 N   0  0  0  0  0  0  0  0  0  0  0  0
    0.5406   -2.3274   -0.8732 H   0  0  0  0  0  0  0  0  0  0  0  0
    1.1290   -1.9455   -2.8810 C   0  0  0  0  0  0  0  0  0  0  0  0
    2.2195   -1.9810   -2.8411 H   0  0  0  0  0  0  0  0  0  0  0  0
    0.7601   -2.9265   -3.1856 H   0  0  0  0  0  0  0  0  0  0  0  0
    0.8290   -1.2128   -3.6332 H   0  0  0  0  0  0  0  0  0  0  0  0
  5  6  2  0  0  0  0
  5  7  1  0  0  0  0
  2  3  1  0  0  0  0
  2  4  1  0  0  0  0
  2  5  1  0  0  0  0
  1  2  1  0  0  0  0
 23 24  2  0  0  0  0
 23 25  1  0  0  0  0
 21 22  1  0  0  0  0
 19 20  1  0  0  0  0
 19 21  1  0  0  0  0
 17 18  1  0  0  0  0
 17 19  1  0  0  0  0
 15 16  1  0  0  0  0
 15 17  2  0  0  0  0
 14 15  1  0  0  0  0
 14 21  2  0  0  0  0
 11 12  1  0  0  0  0
 11 13  1  0  0  0  0
 11 14  1  0  0  0  0
  9 10  1  0  0  0  0
  9 11  1  0  0  0  0
  9 23  1  0  0  0  0
  7  8  1  0  0  0  0
  7  9  1  0  0  0  0
 27 28  1  0  0  0  0
 27 29  1  0  0  0  0
 27 30  1  0  0  0  0
 25 26  1  0  0  0  0
 25 27  1  0  0  0  0
M  CHG  1  15   1
M  END
$$$$
default_name
  -OEChem-01062215323D

 30 30  0     1  0  0  0  0  0999 V2000
   -3.5507   -3.2183    1.8116 H   0  0  0  0  0  0  0  0  0  0  0  0
   -3.4597   -2.3913    1.1076 C   0  0  0  0  0  0  0  0  0  0  0  0
   -4.1577   -1.6043    1.3866 H   0  0  0  0  0  0  0  0  0  0  0  0
   -3.6807   -2.7523    0.1036 H   0  0  0  0  0  0  0  0  0  0  0  0
   -2.0477   -1.8543    1.1546 C   0  0  0  0  0  0  0  0  0  0  0  0
   -1.2227   -2.3443    1.9146 O   0  0  0  0  0  0  0  0  0  0  0  0
   -1.7517   -0.8483    0.3266 N   0  0  0  0  0  0  0  0  0  0  0  0
   -2.4847   -0.5123   -0.2804 H   0  0  0  0  0  0  0  0  0  0  0  0
   -0.4117   -0.2463    0.2186 C   0  0  1  0  0  0  0  0  0  0  0  0
   -0.5028    0.8247    0.4159 H   0  0  0  0  0  0  0  0  0  0  0  0
    0.4863   -0.8402    1.3286 C   0  0  0  0  0  0  0  0  0  0  0  0
    0.5159   -1.9262    1.2087 H   0  0  0  0  0  0  0  0  0  0  0  0
    1.5065   -0.4748    1.1932 H   0  0  0  0  0  0  0  0  0  0  0  0
    0.0561   -0.5201    2.7445 C   0  0  0  0  0  0  0  0  0  0  0  0
    0.2178    0.7003    3.3715 N   0  3  0  0  0  0  0  0  0  0  0  0
    0.5926    1.5306    2.9037 H   0  0  0  0  0  0  0  0  0  0  0  0
   -0.2825    0.6072    4.6195 C   0  0  0  0  0  0  0  0  0  0  0  0
   -0.3084    1.4142    5.3491 H   0  0  0  0  0  0  0  0  0  0  0  0
   -0.7573   -0.6462    4.7986 N   0  0  0  0  0  0  0  0  0  0  0  0
   -1.1949   -1.0037    5.6437 H   0  0  0  0  0  0  0  0  0  0  0  0
   -0.5524   -1.3675    3.6306 C   0  0  0  0  0  0  0  0  0  0  0  0
   -0.8200   -2.4040    3.4450 H   0  0  0  0  0  0  0  0  0  0  0  0
    0.1503   -0.3805   -1.2079 C   0  0  0  0  0  0  0  0  0  0  0  0
    0.4303    0.6213   -1.8680 O   0  0  0  0  0  0  0  0  0  0  0  0
    0.2975   -1.6261   -1.6758 N   0  0  0  0  0  0  0  0  0  0  0  0
    0.0527   -2.3864   -1.0599 H   0  0  0  0  0  0  0  0  0  0  0  0
    0.7834   -1.9749   -3.0144 C   0  0  0  0  0  0  0  0  0  0  0  0
    1.8319   -2.2757   -2.9660 H   0  0  0  0  0  0  0  0  0  0  0  0
    0.2016   -2.8059   -3.4170 H   0  0  0  0  0  0  0  0  0  0  0  0
    0.6930   -1.1257   -3.6950 H   0  0  0  0  0  0  0  0  0  0  0  0
  5  6  2  0  0  0  0
  5  7  1  0  0  0  0
  2  3  1  0  0  0  0
  2  4  1  0  0  0  0
  2  5  1  0  0  0  0
  1  2  1  0  0  0  0
 23 24  2  0  0  0  0
 23 25  1  0  0  0  0
 21 22  1  0  0  0  0
 19 20  1  0  0  0  0
 19 21  1  0  0  0  0
 17 18  1  0  0  0  0
 17 19  1  0  0  0  0
 15 16  1  0  0  0  0
 15 17  2  0  0  0  0
 14 15  1  0  0  0  0
 14 21  2  0  0  0  0
 11 12  1  0  0  0  0
 11 13  1  0  0  0  0
 11 14  1  0  0  0  0
  9 10  1  0  0  0  0
  9 11  1  0  0  0  0
  9 23  1  0  0  0  0
  7  8  1  0  0  0  0
  7  9  1  0  0  0  0
 27 28  1  0  0  0  0
 27 29  1  0  0  0  0
 27 30  1  0  0  0  0
 25 26  1  0  0  0  0
 25 27  1  0  0  0  0
M  CHG  1  15   1
M  END
$$$$
default_name
  -OEChem-01062215323D

 30 30  0     1  0  0  0  0  0999 V2000
   -3.5507   -3.2183    1.8116 H   0  0  0  0  0  0  0  0  0  0  0  0
   -3.4597   -2.3913    1.1076 C   0  0  0  0  0  0  0  0  0  0  0  0
   -4.1577   -1.6043    1.3866 H   0  0  0  0  0  0  0  0  0  0  0  0
   -3.6807   -2.7523    0.1036 H   0  0  0  0  0  0  0  0  0  0  0  0
   -2.0477   -1.8543    1.1546 C   0  0  0  0  0  0  0  0  0  0  0  0
   -1.2227   -2.3443    1.9146 O   0  0  0  0  0  0  0  0  0  0  0  0
   -1.7517   -0.8483    0.3266 N   0  0  0  0  0  0  0  0  0  0  0  0
   -2.4847   -0.5123   -0.2804 H   0  0  0  0  0  0  0  0  0  0  0  0
   -0.4117   -0.2463    0.2186 C   0  0  1  0  0  0  0  0  0  0  0  0
   -0.5028    0.8247    0.4159 H   0  0  0  0  0  0  0  0  0  0  0  0
    0.4863   -0.8402    1.3286 C   0  0  0  0  0  0  0  0  0  0  0  0
    0.5159   -1.9262    1.2087 H   0  0  0  0  0  0  0  0  0  0  0  0
    1.5065   -0.4748    1.1932 H   0  0  0  0  0  0  0  0  0  0  0  0
    0.0561   -0.5201    2.7445 C   0  0  0  0  0  0  0  0  0  0  0  0
    0.2178    0.7003    3.3715 N   0  3  0  0  0  0  0  0  0  0  0  0
    0.5926    1.5306    2.9037 H   0  0  0  0  0  0  0  0  0  0  0  0
   -0.2825    0.6072    4.6195 C   0  0  0  0  0  0  0  0  0  0  0  0
   -0.3084    1.4142    5.3491 H   0  0  0  0  0  0  0  0  0  0  0  0
   -0.7573   -0.6462    4.7986 N   0  0  0  0  0  0  0  0  0  0  0  0
   -1.1949   -1.0037    5.6437 H   0  0  0  0  0  0  0  0  0  0  0  0
   -0.5524   -1.3675    3.6306 C   0  0  0  0  0  0  0  0  0  0  0  0
   -0.8200   -2.4040    3.4450 H   0  0  0  0  0  0  0  0  0  0  0  0
    0.1503   -0.3805   -1.2079 C   0  0  0  0  0  0  0  0  0  0  0  0
    0.6838    0.5805   -1.7643 O   0  0  0  0  0  0  0  0  0  0  0  0
    0.0117   -1.5765   -1.7931 N   0  0  0  0  0  0  0  0  0  0  0  0
   -0.4284   -2.3086   -1.2567 H   0  0  0  0  0  0  0  0  0  0  0  0
    0.4456   -1.9078   -3.1538 C   0  0  0  0  0  0  0  0  0  0  0  0
    1.3896   -2.4555   -3.1233 H   0  0  0  0  0  0  0  0  0  0  0  0
   -0.3037   -2.5335   -3.6417 H   0  0  0  0  0  0  0  0  0  0  0  0
    0.5838   -1.0030   -3.7495 H   0  0  0  0  0  0  0  0  0  0  0  0
  5  6  2  0  0  0  0
  5  7  1  0  0  0  0
  2  3  1  0  0  0  0
  2  4  1  0  0  0  0
  2  5  1  0  0  0  0
  1  2  1  0  0  0  0
 23 24  2  0  0  0  0
 23 25  1  0  0  0  0
 21 22  1  0  0  0  0
 19 20  1  0  0  0  0
 19 21  1  0  0  0  0
 17 18  1  0  0  0  0
 17 19  1  0  0  0  0
 15 16  1  0  0  0  0
 15 17  2  0  0  0  0
 14 15  1  0  0  0  0
 14 21  2  0  0  0  0
 11 12  1  0  0  0  0
 11 13  1  0  0  0  0
 11 14  1  0  0  0  0
  9 10  1  0  0  0  0
  9 11  1  0  0  0  0
  9 23  1  0  0  0  0
  7  8  1  0  0  0  0
  7  9  1  0  0  0  0
 27 28  1  0  0  0  0
 27 29  1  0  0  0  0
 27 30  1  0  0  0  0
 25 26  1  0  0  0  0
 25 27  1  0  0  0  0
M  CHG  1  15   1
M  END
$$$$
default_name
  -OEChem-01062215323D

 30 30  0     1  0  0  0  0  0999 V2000
   -3.5507   -3.2183    1.8116 H   0  0  0  0  0  0  0  0  0  0  0  0
   -3.4597   -2.3913    1.1076 C   0  0  0  0  0  0  0  0  0  0  0  0
   -4.1577   -1.6043    1.3866 H   0  0  0  0  0  0  0  0  0  0  0  0
   -3.6807   -2.7523    0.1036 H   0  0  0  0  0  0  0  0  0  0  0  0
   -2.0477   -1.8543    1.1546 C   0  0  0  0  0  0  0  0  0  0  0  0
   -1.2227   -2.3443    1.9146 O   0  0  0  0  0  0  0  0  0  0  0  0
   -1.7517   -0.8483    0.3266 N   0  0  0  0  0  0  0  0  0  0  0  0
   -2.4847   -0.5123   -0.2804 H   0  0  0  0  0  0  0  0  0  0  0  0
   -0.4117   -0.2463    0.2186 C   0  0  1  0  0  0  0  0  0  0  0  0
   -0.5028    0.8247    0.4159 H   0  0  0  0  0  0  0  0  0  0  0  0
    0.4863   -0.8402    1.3286 C   0  0  0  0  0  0  0  0  0  0  0  0
    0.5159   -1.9262    1.2087 H   0  0  0  0  0  0  0  0  0  0  0  0
    1.5065   -0.4748    1.1932 H   0  0  0  0  0  0  0  0  0  0  0  0
    0.0561   -0.5201    2.7445 C   0  0  0  0  0  0  0  0  0  0  0  0
    0.2178    0.7003    3.3715 N   0  3  0  0  0  0  0  0  0  0  0  0
    0.5926    1.5306    2.9037 H   0  0  0  0  0  0  0  0  0  0  0  0
   -0.2825    0.6072    4.6195 C   0  0  0  0  0  0  0  0  0  0  0  0
   -0.3084    1.4142    5.3491 H   0  0  0  0  0  0  0  0  0  0  0  0
   -0.7573   -0.6462    4.7986 N   0  0  0  0  0  0  0  0  0  0  0  0
   -1.1949   -1.0037    5.6437 H   0  0  0  0  0  0  0  0  0  0  0  0
   -0.5524   -1.3675    3.6306 C   0  0  0  0  0  0  0  0  0  0  0  0
   -0.8200   -2.4040    3.4450 H   0  0  0  0  0  0  0  0  0  0  0  0
    0.1503   -0.3805   -1.2079 C   0  0  0  0  0  0  0  0  0  0  0  0
    0.9165    0.4705   -1.6623 O   0  0  0  0  0  0  0  0  0  0  0  0
   -0.2498   -1.4490   -1.9081 N   0  0  0  0  0  0  0  0  0  0  0  0
   -0.8701   -2.0995   -1.4504 H   0  0  0  0  0  0  0  0  0  0  0  0
    0.1385   -1.7488   -3.2897 C   0  0  0  0  0  0  0  0  0  0  0  0
    0.9229   -2.5082   -3.3023 H   0  0  0  0  0  0  0  0  0  0  0  0
   -0.7214   -2.1280   -3.8444 H   0  0  0  0  0  0  0  0  0  0  0  0
    0.5091   -0.8533   -3.7930 H   0  0  0  0  0  0  0  0  0  0  0  0
  5  6  2  0  0  0  0
  5  7  1  0  0  0  0
  2  3  1  0  0  0  0
  2  4  1  0  0  0  0
  2  5  1  0  0  0  0
  1  2  1  0  0  0  0
 23 24  2  0  0  0  0
 23 25  1  0  0  0  0
 21 22  1  0  0  0  0
 19 20  1  0  0  0  0
 19 21  1  0  0  0  0
 17 18  1  0  0  0  0
 17 19  1  0  0  0  0
 15 16  1  0  0  0  0
 15 17  2  0  0  0  0
 14 15  1  0  0  0  0
 14 21  2  0  0  0  0
 11 12  1  0  0  0  0
 11 13  1  0  0  0  0
 11 14  1  0  0  0  0
  9 10  1  0  0  0  0
  9 11  1  0  0  0  0
  9 23  1  0  0  0  0
  7  8  1  0  0  0  0
  7  9  1  0  0  0  0
 27 28  1  0  0  0  0
 27 29  1  0  0  0  0
 27 30  1  0  0  0  0
 25 26  1  0  0  0  0
 25 27  1  0  0  0  0
M  CHG  1  15   1
M  END
$$$$
default_name
  -OEChem-01062215323D

 30 30  0     1  0  0  0  0  0999 V2000
   -3.5507   -3.2183    1.8116 H   0  0  0  0  0  0  0  0  0  0  0  0
   -3.4597   -2.3913    1.1076 C   0  0  0  0  0  0  0  0  0  0  0  0
   -4.1577   -1.6043    1.3866 H   0  0  0  0  0  0  0  0  0  0  0  0
   -3.6807   -2.7523    0.1036 H   0  0  0  0  0  0  0  0  0  0  0  0
   -2.0477   -1.8543    1.1546 C   0  0  0  0  0  0  0  0  0  0  0  0
   -1.2227   -2.3443    1.9146 O   0  0  0  0  0  0  0  0  0  0  0  0
   -1.7517   -0.8483    0.3266 N   0  0  0  0  0  0  0  0  0  0  0  0
   -2.4847   -0.5123   -0.2804 H   0  0  0  0  0  0  0  0  0  0  0  0
   -0.4117   -0.2463    0.2186 C   0  0  1  0  0  0  0  0  0  0  0  0
   -0.5028    0.8247    0.4159 H   0  0  0  0  0  0  0  0  0  0  0  0
    0.4863   -0.8402    1.3286 C   0  0  0  0  0  0  0  0  0  0  0  0
    0.5159   -1.9262    1.2087 H   0  0  0  0  0  0  0  0  0  0  0  0
    1.5065   -0.4748    1.1932 H   0  0  0  0  0  0  0  0  0  0  0  0
    0.0561   -0.5201    2.7445 C   0  0  0  0  0  0  0  0  0  0  0  0
    0.2178    0.7003    3.3715 N   0  3  0  0  0  0  0  0  0  0  0  0
    0.5926    1.5306    2.9037 H   0  0  0  0  0  0  0  0  0  0  0  0
   -0.2825    0.6072    4.6195 C   0  0  0  0  0  0  0  0  0  0  0  0
   -0.3084    1.4142    5.3491 H   0  0  0  0  0  0  0  0  0  0  0  0
   -0.7573   -0.6462    4.7986 N   0  0  0  0  0  0  0  0  0  0  0  0
   -1.1949   -1.0037    5.6437 H   0  0  0  0  0  0  0  0  0  0  0  0
   -0.5524   -1.3675    3.6306 C   0  0  0  0  0  0  0  0  0  0  0  0
   -0.8200   -2.4040    3.4450 H   0  0  0  0  0  0  0  0  0  0  0  0
    0.1503   -0.3805   -1.2079 C   0  0  0  0  0  0  0  0  0  0  0  0
    1.1126    0.2988   -1.5688 O   0  0  0  0  0  0  0  0  0  0  0  0
   -0.4693   -1.2522   -2.0131 N   0  0  0  0  0  0  0  0  0  0  0  0
   -1.2422   -1.7732   -1.6277 H   0  0  0  0  0  0  0  0  0  0  0  0
   -0.1168   -1.5087   -3.4129 C   0  0  0  0  0  0  0  0  0  0  0  0
    0.4634   -2.4303   -3.4906 H   0  0  0  0  0  0  0  0  0  0  0  0
   -1.0231   -1.6170   -4.0113 H   0  0  0  0  0  0  0  0  0  0  0  0
    0.4738   -0.6865   -3.8226 H   0  0  0  0  0  0  0  0  0  0  0  0
  5  6  2  0  0  0  0
  5  7  1  0  0  0  0
  2  3  1  0  0  0  0
  2  4  1  0  0  0  0
  2  5  1  0  0  0  0
  1  2  1  0  0  0  0
 23 24  2  0  0  0  0
 23 25  1  0  0  0  0
 21 22  1  0  0  0  0
 19 20  1  0  0  0  0
 19 21  1  0  0  0  0
 17 18  1  0  0  0  0
 17 19  1  0  0  0  0
 15 16  1  0  0  0  0
 15 17  2  0  0  0  0
 14 15  1  0  0  0  0
 14 21  2  0  0  0  0
 11 12  1  0  0  0  0
 11 13  1  0  0  0  0
 11 14  1  0  0  0  0
  9 10  1  0  0  0  0
  9 11  1  0  0  0  0
  9 23  1  0  0  0  0
  7  8  1  0  0  0  0
  7  9  1  0  0  0  0
 27 28  1  0  0  0  0
 27 29  1  0  0  0  0
 27 30  1  0  0  0  0
 25 26  1  0  0  0  0
 25 27  1  0  0  0  0
M  CHG  1  15   1
M  END
$$$$
default_name
  -OEChem-01062215323D

 30 30  0     1  0  0  0  0  0999 V2000
   -3.5507   -3.2183    1.8116 H   0  0  0  0  0  0  0  0  0  0  0  0
   -3.4597   -2.3913    1.1076 C   0  0  0  0  0  0  0  0  0  0  0  0
   -4.1577   -1.6043    1.3866 H   0  0  0  0  0  0  0  0  0  0  0  0
   -3.6807   -2.7523    0.1036 H   0  0  0  0  0  0  0  0  0  0  0  0
   -2.0477   -1.8543    1.1546 C   0  0  0  0  0  0  0  0  0  0  0  0
   -1.2227   -2.3443    1.9146 O   0  0  0  0  0  0  0  0  0  0  0  0
   -1.7517   -0.8483    0.3266 N   0  0  0  0  0  0  0  0  0  0  0  0
   -2.4847   -0.5123   -0.2804 H   0  0  0  0  0  0  0  0  0  0  0  0
   -0.4117   -0.2463    0.2186 C   0  0  1  0  0  0  0  0  0  0  0  0
   -0.5028    0.8247    0.4159 H   0  0  0  0  0  0  0  0  0  0  0  0
    0.4863   -0.8402    1.3286 C   0  0  0  0  0  0  0  0  0  0  0  0
    0.5159   -1.9262    1.2087 H   0  0  0  0  0  0  0  0  0  0  0  0
    1.5065   -0.4748    1.1932 H   0  0  0  0  0  0  0  0  0  0  0  0
    0.0561   -0.5201    2.7445 C   0  0  0  0  0  0  0  0  0  0  0  0
    0.2178    0.7003    3.3715 N   0  3  0  0  0  0  0  0  0  0  0  0
    0.5926    1.5306    2.9037 H   0  0  0  0  0  0  0  0  0  0  0  0
   -0.2825    0.6072    4.6195 C   0  0  0  0  0  0  0  0  0  0  0  0
   -0.3084    1.4142    5.3491 H   0  0  0  0  0  0  0  0  0  0  0  0
   -0.7573   -0.6462    4.7986 N   0  0  0  0  0  0  0  0  0  0  0  0
   -1.1949   -1.0037    5.6437 H   0  0  0  0  0  0  0  0  0  0  0  0
   -0.5524   -1.3675    3.6306 C   0  0  0  0  0  0  0  0  0  0  0  0
   -0.8200   -2.4040    3.4450 H   0  0  0  0  0  0  0  0  0  0  0  0
    0.1503   -0.3805   -1.2079 C   0  0  0  0  0  0  0  0  0  0  0  0
    1.2587    0.0771   -1.4904 O   0  0  0  0  0  0  0  0  0  0  0  0
   -0.6317   -0.9995   -2.1009 N   0  0  0  0  0  0  0  0  0  0  0  0
   -1.5193   -1.3520   -1.7765 H   0  0  0  0  0  0  0  0  0  0  0  0
   -0.3031   -1.2038   -3.5150 C   0  0  0  0  0  0  0  0  0  0  0  0
    0.0425   -2.2270   -3.6755 H   0  0  0  0  0  0  0  0  0  0  0  0
   -1.1881   -1.0352   -4.1311 H   0  0  0  0  0  0  0  0  0  0  0  0
    0.4803   -0.5142   -3.8363 H   0  0  0  0  0  0  0  0  0  0  0  0
  5  6  2  0  0  0  0
  5  7  1  0  0  0  0
  2  3  1  0  0  0  0
  2  4  1  0  0  0  0
  2  5  1  0  0  0  0
  1  2  1  0  0  0  0
 23 24  2  0  0  0  0
 23 25  1  0  0  0  0
 21 22  1  0  0  0  0
 19 20  1  0  0  0  0
 19 21  1  0  0  0  0
 17 18  1  0  0  0  0
 17 19  1  0  0  0  0
 15 16  1  0  0  0  0
 15 17  2  0  0  0  0
 14 15  1  0  0  0  0
 14 21  2  0  0  0  0
 11 12  1  0  0  0  0
 11 13  1  0  0  0  0
 11 14  1  0  0  0  0
  9 10  1  0  0  0  0
  9 11  1  0  0  0  0
  9 23  1  0  0  0  0
  7  8  1  0  0  0  0
  7  9  1  0  0  0  0
 27 28  1  0  0  0  0
 27 29  1  0  0  0  0
 27 30  1  0  0  0  0
 25 26  1  0  0  0  0
 25 27  1  0  0  0  0
M  CHG  1  15   1
M  END
$$$$
default_name
  -OEChem-01062215323D

 30 30  0     1  0  0  0  0  0999 V2000
   -3.5507   -3.2183    1.8116 H   0  0  0  0  0  0  0  0  0  0  0  0
   -3.4597   -2.3913    1.1076 C   0  0  0  0  0  0  0  0  0  0  0  0
   -4.1577   -1.6043    1.3866 H   0  0  0  0  0  0  0  0  0  0  0  0
   -3.6807   -2.7523    0.1036 H   0  0  0  0  0  0  0  0  0  0  0  0
   -2.0477   -1.8543    1.1546 C   0  0  0  0  0  0  0  0  0  0  0  0
   -1.2227   -2.3443    1.9146 O   0  0  0  0  0  0  0  0  0  0  0  0
   -1.7517   -0.8483    0.3266 N   0  0  0  0  0  0  0  0  0  0  0  0
   -2.4847   -0.5123   -0.2804 H   0  0  0  0  0  0  0  0  0  0  0  0
   -0.4117   -0.2463    0.2186 C   0  0  1  0  0  0  0  0  0  0  0  0
   -0.5028    0.8247    0.4159 H   0  0  0  0  0  0  0  0  0  0  0  0
    0.4863   -0.8402    1.3286 C   0  0  0  0  0  0  0  0  0  0  0  0
    0.5159   -1.9262    1.2087 H   0  0  0  0  0  0  0  0  0  0  0  0
    1.5065   -0.4748    1.1932 H   0  0  0  0  0  0  0  0  0  0  0  0
    0.0561   -0.5201    2.7445 C   0  0  0  0  0  0  0  0  0  0  0  0
    0.2178    0.7003    3.3715 N   0  3  0  0  0  0  0  0  0  0  0  0
    0.5926    1.5306    2.9037 H   0  0  0  0  0  0  0  0  0  0  0  0
   -0.2825    0.6072    4.6195 C   0  0  0  0  0  0  0  0  0  0  0  0
   -0.3084    1.4142    5.3491 H   0  0  0  0  0  0  0  0  0  0  0  0
   -0.7573   -0.6462    4.7986 N   0  0  0  0  0  0  0  0  0  0  0  0
   -1.1949   -1.0037    5.6437 H   0  0  0  0  0  0  0  0  0  0  0  0
   -0.5524   -1.3675    3.6306 C   0  0  0  0  0  0  0  0  0  0  0  0
   -0.8200   -2.4040    3.4450 H   0  0  0  0  0  0  0  0  0  0  0  0
    0.1503   -0.3805   -1.2079 C   0  0  0  0  0  0  0  0  0  0  0  0
    1.3449   -0.1796   -1.4323 O   0  0  0  0  0  0  0  0  0  0  0  0
   -0.7259   -0.7082   -2.1654 N   0  0  0  0  0  0  0  0  0  0  0  0
   -1.6826   -0.8647   -1.8867 H   0  0  0  0  0  0  0  0  0  0  0  0
   -0.4077   -0.8550   -3.5890 C   0  0  0  0  0  0  0  0  0  0  0  0
   -0.3111   -1.9122   -3.8445 H   0  0  0  0  0  0  0  0  0  0  0  0
   -1.2052   -0.4223   -4.1955 H   0  0  0  0  0  0  0  0  0  0  0  0
    0.5283   -0.3481   -3.8330 H   0  0  0  0  0  0  0  0  0  0  0  0
  5  6  2  0  0  0  0
  5  7  1  0  0  0  0
  2  3  1  0  0  0  0
  2  4  1  0  0  0  0
  2  5  1  0  0  0  0
  1  2  1  0  0  0  0
 23 24  2  0  0  0  0
 23 25  1  0  0  0  0
 21 22  1  0  0  0  0
 19 20  1  0  0  0  0
 19 21  1  0  0  0  0
 17 18  1  0  0  0  0
 17 19  1  0  0  0  0
 15 16  1  0  0  0  0
 15 17  2  0  0  0  0
 14 15  1  0  0  0  0
 14 21  2  0  0  0  0
 11 12  1  0  0  0  0
 11 13  1  0  0  0  0
 11 14  1  0  0  0  0
  9 10  1  0  0  0  0
  9 11  1  0  0  0  0
  9 23  1  0  0  0  0
  7  8  1  0  0  0  0
  7  9  1  0  0  0  0
 27 28  1  0  0  0  0
 27 29  1  0  0  0  0
 27 30  1  0  0  0  0
 25 26  1  0  0  0  0
 25 27  1  0  0  0  0
M  CHG  1  15   1
M  END
$$$$
default_name
  -OEChem-01062215323D

 30 30  0     1  0  0  0  0  0999 V2000
   -3.5507   -3.2183    1.8116 H   0  0  0  0  0  0  0  0  0  0  0  0
   -3.4597   -2.3913    1.1076 C   0  0  0  0  0  0  0  0  0  0  0  0
   -4.1577   -1.6043    1.3866 H   0  0  0  0  0  0  0  0  0  0  0  0
   -3.6807   -2.7523    0.1036 H   0  0  0  0  0  0  0  0  0  0  0  0
   -2.0477   -1.8543    1.1546 C   0  0  0  0  0  0  0  0  0  0  0  0
   -1.2227   -2.3443    1.9146 O   0  0  0  0  0  0  0  0  0  0  0  0
   -1.7517   -0.8483    0.3266 N   0  0  0  0  0  0  0  0  0  0  0  0
   -2.4847   -0.5123   -0.2804 H   0  0  0  0  0  0  0  0  0  0  0  0
   -0.4117   -0.2463    0.2186 C   0  0  1  0  0  0  0  0  0  0  0  0
   -0.5028    0.8247    0.4159 H   0  0  0  0  0  0  0  0  0  0  0  0
    0.4863   -0.8402    1.3286 C   0  0  0  0  0  0  0  0  0  0  0  0
    0.5159   -1.9262    1.2087 H   0  0  0  0  0  0  0  0  0  0  0  0
    1.5065   -0.4748    1.1932 H   0  0  0  0  0  0  0  0  0  0  0  0
    0.0561   -0.5201    2.7445 C   0  0  0  0  0  0  0  0  0  0  0  0
    0.2178    0.7003    3.3715 N   0  3  0  0  0  0  0  0  0  0  0  0
    0.5926    1.5306    2.9037 H   0  0  0  0  0  0  0  0  0  0  0  0
   -0.2825    0.6072    4.6195 C   0  0  0  0  0  0  0  0  0  0  0  0
   -0.3084    1.4142    5.3491 H   0  0  0  0  0  0  0  0  0  0  0  0
   -0.7573   -0.6462    4.7986 N   0  0  0  0  0  0  0  0  0  0  0  0
   -1.1949   -1.0037    5.6437 H   0  0  0  0  0  0  0  0  0  0  0  0
   -0.5524   -1.3675    3.6306 C   0  0  0  0  0  0  0  0  0  0  0  0
   -0.8200   -2.4040    3.4450 H   0  0  0  0  0  0  0  0  0  0  0  0
    0.1503   -0.3805   -1.2079 C   0  0  0  0  0  0  0  0  0  0  0  0
    1.3653   -0.4536   -1.3985 O   0  0  0  0  0  0  0  0  0  0  0  0
   -0.7456   -0.3981   -2.2024 N   0  0  0  0  0  0  0  0  0  0  0  0
   -1.7209   -0.3443   -1.9508 H   0  0  0  0  0  0  0  0  0  0  0  0
   -0.4233   -0.4861   -3.6299 C   0  0  0  0  0  0  0  0  0  0  0  0
   -0.5733   -1.5073   -3.9859 H   0  0  0  0  0  0  0  0  0  0  0  0
   -1.0732    0.1798   -4.2002 H   0  0  0  0  0  0  0  0  0  0  0  0
    0.6144   -0.1994   -3.8131 H   0  0  0  0  0  0  0  0  0  0  0  0
  5  6  2  0  0  0  0
  5  7  1  0  0  0  0
  2  3  1  0  0  0  0
  2  4  1  0  0  0  0
  2  5  1  0  0  0  0
  1  2  1  0  0  0  0
 23 24  2  0  0  0  0
 23 25  1  0  0  0  0
 21 22  1  0  0  0  0
 19 20  1  0  0  0  0
 19 21  1  0  0  0  0
 17 18  1  0  0  0  0
 17 19  1  0  0  0  0
 15 16  1  0  0  0  0
 15 17  2  0  0  0  0
 14 15  1  0  0  0  0
 14 21  2  0  0  0  0
 11 12  1  0  0  0  0
 11 13  1  0  0  0  0
 11 14  1  0  0  0  0
  9 10  1  0  0  0  0
  9 11  1  0  0  0  0
  9 23  1  0  0  0  0
  7  8  1  0  0  0  0
  7  9  1  0  0  0  0
 27 28  1  0  0  0  0
 27 29  1  0  0  0  0
 27 30  1  0  0  0  0
 25 26  1  0  0  0  0
 25 27  1  0  0  0  0
M  CHG  1  15   1
M  END
$$$$
default_name
  -OEChem-01062215323D

 30 30  0     1  0  0  0  0  0999 V2000
   -3.5507   -3.2183    1.8116 H   0  0  0  0  0  0  0  0  0  0  0  0
   -3.4597   -2.3913    1.1076 C   0  0  0  0  0  0  0  0  0  0  0  0
   -4.1577   -1.6043    1.3866 H   0  0  0  0  0  0  0  0  0  0  0  0
   -3.6807   -2.7523    0.1036 H   0  0  0  0  0  0  0  0  0  0  0  0
   -2.0477   -1.8543    1.1546 C   0  0  0  0  0  0  0  0  0  0  0  0
   -1.2227   -2.3443    1.9146 O   0  0  0  0  0  0  0  0  0  0  0  0
   -1.7517   -0.8483    0.3266 N   0  0  0  0  0  0  0  0  0  0  0  0
   -2.4847   -0.5123   -0.2804 H   0  0  0  0  0  0  0  0  0  0  0  0
   -0.4117   -0.2463    0.2186 C   0  0  1  0  0  0  0  0  0  0  0  0
   -0.5028    0.8247    0.4159 H   0  0  0  0  0  0  0  0  0  0  0  0
    0.4863   -0.8402    1.3286 C   0  0  0  0  0  0  0  0  0  0  0  0
    0.5159   -1.9262    1.2087 H   0  0  0  0  0  0  0  0  0  0  0  0
    1.5065   -0.4748    1.1932 H   0  0  0  0  0  0  0  0  0  0  0  0
    0.0561   -0.5201    2.7445 C   0  0  0  0  0  0  0  0  0  0  0  0
    0.2178    0.7003    3.3715 N   0  3  0  0  0  0  0  0  0  0  0  0
    0.5926    1.5306    2.9037 H   0  0  0  0  0  0  0  0  0  0  0  0
   -0.2825    0.6072    4.6195 C   0  0  0  0  0  0  0  0  0  0  0  0
   -0.3084    1.4142    5.3491 H   0  0  0  0  0  0  0  0  0  0  0  0
   -0.7573   -0.6462    4.7986 N   0  0  0  0  0  0  0  0  0  0  0  0
   -1.1949   -1.0037    5.6437 H   0  0  0  0  0  0  0  0  0  0  0  0
   -0.5524   -1.3675    3.6306 C   0  0  0  0  0  0  0  0  0  0  0  0
   -0.8200   -2.4040    3.4450 H   0  0  0  0  0  0  0  0  0  0  0  0
    0.1503   -0.3805   -1.2079 C   0  0  0  0  0  0  0  0  0  0  0  0
    1.3184   -0.7265   -1.3913 O   0  0  0  0  0  0  0  0  0  0  0  0
   -0.6895   -0.0904   -2.2092 N   0  0  0  0  0  0  0  0  0  0  0  0
   -1.6317    0.1735   -1.9644 H   0  0  0  0  0  0  0  0  0  0  0  0
   -0.3489   -0.1221   -3.6348 C   0  0  0  0  0  0  0  0  0  0  0  0
   -0.7262   -1.0399   -4.0901 H   0  0  0  0  0  0  0  0  0  0  0  0
   -0.8012    0.7303   -4.1448 H   0  0  0  0  0  0  0  0  0  0  0  0
    0.7328   -0.0783   -3.7778 H   0  0  0  0  0  0  0  0  0  0  0  0
  5  6  2  0  0  0  0
  5  7  1  0  0  0  0
  2  3  1  0  0  0  0
  2  4  1  0  0  0  0
  2  5  1  0  0  0  0
  1  2  1  0  0  0  0
 23 24  2  0  0  0  0
 23 25  1  0  0  0  0
 21 22  1  0  0  0  0
 19 20  1  0  0  0  0
 19 21  1  0  0  0  0
 17 18  1  0  0  0  0
 17 19  1  0  0  0  0
 15 16  1  0  0  0  0
 15 17  2  0  0  0  0
 14 15  1  0  0  0  0
 14 21  2  0  0  0  0
 11 12  1  0  0  0  0
 11 13  1  0  0  0  0
 11 14  1  0  0  0  0
  9 10  1  0  0  0  0
  9 11  1  0  0  0  0
  9 23  1  0  0  0  0
  7  8  1  0  0  0  0
  7  9  1  0  0  0  0
 27 28  1  0  0  0  0
 27 29  1  0  0  0  0
 27 30  1  0  0  0  0
 25 26  1  0  0  0  0
 25 27  1  0  0  0  0
M  CHG  1  15   1
M  END
$$$$
default_name
  -OEChem-01062215323D

 30 30  0     1  0  0  0  0  0999 V2000
   -3.5507   -3.2183    1.8116 H   0  0  0  0  0  0  0  0  0  0  0  0
   -3.4597   -2.3913    1.1076 C   0  0  0  0  0  0  0  0  0  0  0  0
   -4.1577   -1.6043    1.3866 H   0  0  0  0  0  0  0  0  0  0  0  0
   -3.6807   -2.7523    0.1036 H   0  0  0  0  0  0  0  0  0  0  0  0
   -2.0477   -1.8543    1.1546 C   0  0  0  0  0  0  0  0  0  0  0  0
   -1.2227   -2.3443    1.9146 O   0  0  0  0  0  0  0  0  0  0  0  0
   -1.7517   -0.8483    0.3266 N   0  0  0  0  0  0  0  0  0  0  0  0
   -2.4847   -0.5123   -0.2804 H   0  0  0  0  0  0  0  0  0  0  0  0
   -0.4117   -0.2463    0.2186 C   0  0  1  0  0  0  0  0  0  0  0  0
   -0.5028    0.8247    0.4159 H   0  0  0  0  0  0  0  0  0  0  0  0
    0.4863   -0.8402    1.3286 C   0  0  0  0  0  0  0  0  0  0  0  0
    0.5159   -1.9262    1.2087 H   0  0  0  0  0  0  0  0  0  0  0  0
    1.5065   -0.4748    1.1932 H   0  0  0  0  0  0  0  0  0  0  0  0
    0.0561   -0.5201    2.7445 C   0  0  0  0  0  0  0  0  0  0  0  0
    0.2178    0.7003    3.3715 N   0  3  0  0  0  0  0  0  0  0  0  0
    0.5926    1.5306    2.9037 H   0  0  0  0  0  0  0  0  0  0  0  0
   -0.2825    0.6072    4.6195 C   0  0  0  0  0  0  0  0  0  0  0  0
   -0.3084    1.4142    5.3491 H   0  0  0  0  0  0  0  0  0  0  0  0
   -0.7573   -0.6462    4.7986 N   0  0  0  0  0  0  0  0  0  0  0  0
   -1.1949   -1.0037    5.6437 H   0  0  0  0  0  0  0  0  0  0  0  0
   -0.5524   -1.3675    3.6306 C   0  0  0  0  0  0  0  0  0  0  0  0
   -0.8200   -2.4040    3.4450 H   0  0  0  0  0  0  0  0  0  0  0  0
    0.1503   -0.3805   -1.2079 C   0  0  0  0  0  0  0  0  0  0  0  0
    1.2076   -0.9794   -1.4111 O   0  0  0  0  0  0  0  0  0  0  0  0
   -0.5612    0.1940   -2.1855 N   0  0  0  0  0  0  0  0  0  0  0  0
   -1.4209    0.6536   -1.9265 H   0  0  0  0  0  0  0  0  0  0  0  0
   -0.1897    0.2122   -3.6036 C   0  0  0  0  0  0  0  0  0  0  0  0
   -0.7595   -0.5420   -4.1501 H   0  0  0  0  0  0  0  0  0  0  0  0
   -0.4076    1.1915   -4.0332 H   0  0  0  0  0  0  0  0  0  0  0  0
    0.8755    0.0069   -3.7297 H   0  0  0  0  0  0  0  0  0  0  0  0
  5  6  2  0  0  0  0
  5  7  1  0  0  0  0
  2  3  1  0  0  0  0
  2  4  1  0  0  0  0
  2  5  1  0  0  0  0
  1  2  1  0  0  0  0
 23 24  2  0  0  0  0
 23 25  1  0  0  0  0
 21 22  1  0  0  0  0
 19 20  1  0  0  0  0
 19 21  1  0  0  0  0
 17 18  1  0  0  0  0
 17 19  1  0  0  0  0
 15 16  1  0  0  0  0
 15 17  2  0  0  0  0
 14 15  1  0  0  0  0
 14 21  2  0  0  0  0
 11 12  1  0  0  0  0
 11 13  1  0  0  0  0
 11 14  1  0  0  0  0
  9 10  1  0  0  0  0
  9 11  1  0  0  0  0
  9 23  1  0  0  0  0
  7  8  1  0  0  0  0
  7  9  1  0  0  0  0
 27 28  1  0  0  0  0
 27 29  1  0  0  0  0
 27 30  1  0  0  0  0
 25 26  1  0  0  0  0
 25 27  1  0  0  0  0
M  CHG  1  15   1
M  END
$$$$
default_name
  -OEChem-01062215323D

 30 30  0     1  0  0  0  0  0999 V2000
   -3.5507   -3.2183    1.8116 H   0  0  0  0  0  0  0  0  0  0  0  0
   -3.4597   -2.3913    1.1076 C   0  0  0  0  0  0  0  0  0  0  0  0
   -4.1577   -1.6043    1.3866 H   0  0  0  0  0  0  0  0  0  0  0  0
   -3.6807   -2.7523    0.1036 H   0  0  0  0  0  0  0  0  0  0  0  0
   -2.0477   -1.8543    1.1546 C   0  0  0  0  0  0  0  0  0  0  0  0
   -1.2227   -2.3443    1.9146 O   0  0  0  0  0  0  0  0  0  0  0  0
   -1.7517   -0.8483    0.3266 N   0  0  0  0  0  0  0  0  0  0  0  0
   -2.4847   -0.5123   -0.2804 H   0  0  0  0  0  0  0  0  0  0  0  0
   -0.4117   -0.2463    0.2186 C   0  0  1  0  0  0  0  0  0  0  0  0
   -0.5028    0.8247    0.4159 H   0  0  0  0  0  0  0  0  0  0  0  0
    0.4863   -0.8402    1.3286 C   0  0  0  0  0  0  0  0  0  0  0  0
    0.5159   -1.9262    1.2087 H   0  0  0  0  0  0  0  0  0  0  0  0
    1.5065   -0.4748    1.1932 H   0  0  0  0  0  0  0  0  0  0  0  0
    0.0561   -0.5201    2.7445 C   0  0  0  0  0  0  0  0  0  0  0  0
    0.2178    0.7003    3.3715 N   0  3  0  0  0  0  0  0  0  0  0  0
    0.5926    1.5306    2.9037 H   0  0  0  0  0  0  0  0  0  0  0  0
   -0.2825    0.6072    4.6195 C   0  0  0  0  0  0  0  0  0  0  0  0
   -0.3084    1.4142    5.3491 H   0  0  0  0  0  0  0  0  0  0  0  0
   -0.7573   -0.6462    4.7986 N   0  0  0  0  0  0  0  0  0  0  0  0
   -1.1949   -1.0037    5.6437 H   0  0  0  0  0  0  0  0  0  0  0  0
   -0.5524   -1.3675    3.6306 C   0  0  0  0  0  0  0  0  0  0  0  0
   -0.8200   -2.4040    3.4450 H   0  0  0  0  0  0  0  0  0  0  0  0
    0.1503   -0.3805   -1.2079 C   0  0  0  0  0  0  0  0  0  0  0  0
    1.0403   -1.1953   -1.4567 O   0  0  0  0  0  0  0  0  0  0  0  0
   -0.3697    0.4358   -2.1327 N   0  0  0  0  0  0  0  0  0  0  0  0
   -1.1031    1.0632   -1.8399 H   0  0  0  0  0  0  0  0  0  0  0  0
    0.0436    0.4939   -3.5382 C   0  0  0  0  0  0  0  0  0  0  0  0
   -0.6708   -0.0473   -4.1617 H   0  0  0  0  0  0  0  0  0  0  0  0
    0.0806    1.5320   -3.8729 H   0  0  0  0  0  0  0  0  0  0  0  0
    1.0326    0.0504   -3.6719 H   0  0  0  0  0  0  0  0  0  0  0  0
  5  6  2  0  0  0  0
  5  7  1  0  0  0  0
  2  3  1  0  0  0  0
  2  4  1  0  0  0  0
  2  5  1  0  0  0  0
  1  2  1  0  0  0  0
 23 24  2  0  0  0  0
 23 25  1  0  0  0  0
 21 22  1  0  0  0  0
 19 20  1  0  0  0  0
 19 21  1  0  0  0  0
 17 18  1  0  0  0  0
 17 19  1  0  0  0  0
 15 16  1  0  0  0  0
 15 17  2  0  0  0  0
 14 15  1  0  0  0  0
 14 21  2  0  0  0  0
 11 12  1  0  0  0  0
 11 13  1  0  0  0  0
 11 14  1  0  0  0  0
  9 10  1  0  0  0  0
  9 11  1  0  0  0  0
  9 23  1  0  0  0  0
  7  8  1  0  0  0  0
  7  9  1  0  0  0  0
 27 28  1  0  0  0  0
 27 29  1  0  0  0  0
 27 30  1  0  0  0  0
 25 26  1  0  0  0  0
 25 27  1  0  0  0  0
M  CHG  1  15   1
M  END
$$$$
default_name
  -OEChem-01062215323D

 30 30  0     1  0  0  0  0  0999 V2000
   -3.5507   -3.2183    1.8116 H   0  0  0  0  0  0  0  0  0  0  0  0
   -3.4597   -2.3913    1.1076 C   0  0  0  0  0  0  0  0  0  0  0  0
   -4.1577   -1.6043    1.3866 H   0  0  0  0  0  0  0  0  0  0  0  0
   -3.6807   -2.7523    0.1036 H   0  0  0  0  0  0  0  0  0  0  0  0
   -2.0477   -1.8543    1.1546 C   0  0  0  0  0  0  0  0  0  0  0  0
   -1.2227   -2.3443    1.9146 O   0  0  0  0  0  0  0  0  0  0  0  0
   -1.7517   -0.8483    0.3266 N   0  0  0  0  0  0  0  0  0  0  0  0
   -2.4847   -0.5123   -0.2804 H   0  0  0  0  0  0  0  0  0  0  0  0
   -0.4117   -0.2463    0.2186 C   0  0  1  0  0  0  0  0  0  0  0  0
   -0.5028    0.8247    0.4159 H   0  0  0  0  0  0  0  0  0  0  0  0
    0.4863   -0.8402    1.3286 C   0  0  0  0  0  0  0  0  0  0  0  0
    0.5159   -1.9262    1.2087 H   0  0  0  0  0  0  0  0  0  0  0  0
    1.5065   -0.4748    1.1932 H   0  0  0  0  0  0  0  0  0  0  0  0
    0.0561   -0.5201    2.7445 C   0  0  0  0  0  0  0  0  0  0  0  0
    0.2178    0.7003    3.3715 N   0  3  0  0  0  0  0  0  0  0  0  0
    0.5926    1.5306    2.9037 H   0  0  0  0  0  0  0  0  0  0  0  0
   -0.2825    0.6072    4.6195 C   0  0  0  0  0  0  0  0  0  0  0  0
   -0.3084    1.4142    5.3491 H   0  0  0  0  0  0  0  0  0  0  0  0
   -0.7573   -0.6462    4.7986 N   0  0  0  0  0  0  0  0  0  0  0  0
   -1.1949   -1.0037    5.6437 H   0  0  0  0  0  0  0  0  0  0  0  0
   -0.5524   -1.3675    3.6306 C   0  0  0  0  0  0  0  0  0  0  0  0
   -0.8200   -2.4040    3.4450 H   0  0  0  0  0  0  0  0  0  0  0  0
    0.1503   -0.3805   -1.2079 C   0  0  0  0  0  0  0  0  0  0  0  0
    0.8279   -1.3594   -1.5249 O   0  0  0  0  0  0  0  0  0  0  0  0
   -0.1278    0.6183   -2.0547 N   0  0  0  0  0  0  0  0  0  0  0  0
   -0.6997    1.3744   -1.7103 H   0  0  0  0  0  0  0  0  0  0  0  0
    0.3351    0.7038   -3.4431 C   0  0  0  0  0  0  0  0  0  0  0  0
   -0.4662    0.4103   -4.1242 H   0  0  0  0  0  0  0  0  0  0  0  0
    0.6303    1.7286   -3.6749 H   0  0  0  0  0  0  0  0  0  0  0  0
    1.1935    0.0493   -3.6084 H   0  0  0  0  0  0  0  0  0  0  0  0
  5  6  2  0  0  0  0
  5  7  1  0  0  0  0
  2  3  1  0  0  0  0
  2  4  1  0  0  0  0
  2  5  1  0  0  0  0
  1  2  1  0  0  0  0
 23 24  2  0  0  0  0
 23 25  1  0  0  0  0
 21 22  1  0  0  0  0
 19 20  1  0  0  0  0
 19 21  1  0  0  0  0
 17 18  1  0  0  0  0
 17 19  1  0  0  0  0
 15 16  1  0  0  0  0
 15 17  2  0  0  0  0
 14 15  1  0  0  0  0
 14 21  2  0  0  0  0
 11 12  1  0  0  0  0
 11 13  1  0  0  0  0
 11 14  1  0  0  0  0
  9 10  1  0  0  0  0
  9 11  1  0  0  0  0
  9 23  1  0  0  0  0
  7  8  1  0  0  0  0
  7  9  1  0  0  0  0
 27 28  1  0  0  0  0
 27 29  1  0  0  0  0
 27 30  1  0  0  0  0
 25 26  1  0  0  0  0
 25 27  1  0  0  0  0
M  CHG  1  15   1
M  END
$$$$
default_name
  -OEChem-01062215323D

 30 30  0     1  0  0  0  0  0999 V2000
   -3.5507   -3.2183    1.8116 H   0  0  0  0  0  0  0  0  0  0  0  0
   -3.4597   -2.3913    1.1076 C   0  0  0  0  0  0  0  0  0  0  0  0
   -4.1577   -1.6043    1.3866 H   0  0  0  0  0  0  0  0  0  0  0  0
   -3.6807   -2.7523    0.1036 H   0  0  0  0  0  0  0  0  0  0  0  0
   -2.0477   -1.8543    1.1546 C   0  0  0  0  0  0  0  0  0  0  0  0
   -1.2227   -2.3443    1.9146 O   0  0  0  0  0  0  0  0  0  0  0  0
   -1.7517   -0.8483    0.3266 N   0  0  0  0  0  0  0  0  0  0  0  0
   -2.4847   -0.5123   -0.2804 H   0  0  0  0  0  0  0  0  0  0  0  0
   -0.4117   -0.2463    0.2186 C   0  0  1  0  0  0  0  0  0  0  0  0
   -0.5028    0.8247    0.4159 H   0  0  0  0  0  0  0  0  0  0  0  0
    0.4863   -0.8402    1.3286 C   0  0  0  0  0  0  0  0  0  0  0  0
    0.5159   -1.9262    1.2087 H   0  0  0  0  0  0  0  0  0  0  0  0
    1.5065   -0.4748    1.1932 H   0  0  0  0  0  0  0  0  0  0  0  0
    0.0561   -0.5201    2.7445 C   0  0  0  0  0  0  0  0  0  0  0  0
    0.2178    0.7003    3.3715 N   0  3  0  0  0  0  0  0  0  0  0  0
    0.5926    1.5306    2.9037 H   0  0  0  0  0  0  0  0  0  0  0  0
   -0.2825    0.6072    4.6195 C   0  0  0  0  0  0  0  0  0  0  0  0
   -0.3084    1.4142    5.3491 H   0  0  0  0  0  0  0  0  0  0  0  0
   -0.7573   -0.6462    4.7986 N   0  0  0  0  0  0  0  0  0  0  0  0
   -1.1949   -1.0037    5.6437 H   0  0  0  0  0  0  0  0  0  0  0  0
   -0.5524   -1.3675    3.6306 C   0  0  0  0  0  0  0  0  0  0  0  0
   -0.8200   -2.4040    3.4450 H   0  0  0  0  0  0  0  0  0  0  0  0
    0.1503   -0.3805   -1.2079 C   0  0  0  0  0  0  0  0  0  0  0  0
    0.5850   -1.4605   -1.6111 O   0  0  0  0  0  0  0  0  0  0  0  0
    0.1478    0.7293   -1.9565 N   0  0  0  0  0  0  0  0  0  0  0  0
   -0.2384    1.5660   -1.5465 H   0  0  0  0  0  0  0  0  0  0  0  0
    0.6648    0.8277   -3.3249 C   0  0  0  0  0  0  0  0  0  0  0  0
   -0.1597    0.7997   -4.0401 H   0  0  0  0  0  0  0  0  0  0  0  0
    1.2039    1.7680   -3.4526 H   0  0  0  0  0  0  0  0  0  0  0  0
    1.3472    0.0036   -3.5435 H   0  0  0  0  0  0  0  0  0  0  0  0
  5  6  2  0  0  0  0
  5  7  1  0  0  0  0
  2  3  1  0  0  0  0
  2  4  1  0  0  0  0
  2  5  1  0  0  0  0
  1  2  1  0  0  0  0
 23 24  2  0  0  0  0
 23 25  1  0  0  0  0
 21 22  1  0  0  0  0
 19 20  1  0  0  0  0
 19 21  1  0  0  0  0
 17 18  1  0  0  0  0
 17 19  1  0  0  0  0
 15 16  1  0  0  0  0
 15 17  2  0  0  0  0
 14 15  1  0  0  0  0
 14 21  2  0  0  0  0
 11 12  1  0  0  0  0
 11 13  1  0  0  0  0
 11 14  1  0  0  0  0
  9 10  1  0  0  0  0
  9 11  1  0  0  0  0
  9 23  1  0  0  0  0
  7  8  1  0  0  0  0
  7  9  1  0  0  0  0
 27 28  1  0  0  0  0
 27 29  1  0  0  0  0
 27 30  1  0  0  0  0
 25 26  1  0  0  0  0
 25 27  1  0  0  0  0
M  CHG  1  15   1
M  END
$$$$
default_name
  -OEChem-01062215323D

 30 30  0     1  0  0  0  0  0999 V2000
   -3.5507   -3.2183    1.8116 H   0  0  0  0  0  0  0  0  0  0  0  0
   -3.4597   -2.3913    1.1076 C   0  0  0  0  0  0  0  0  0  0  0  0
   -4.1577   -1.6043    1.3866 H   0  0  0  0  0  0  0  0  0  0  0  0
   -3.6807   -2.7523    0.1036 H   0  0  0  0  0  0  0  0  0  0  0  0
   -2.0477   -1.8543    1.1546 C   0  0  0  0  0  0  0  0  0  0  0  0
   -1.2227   -2.3443    1.9146 O   0  0  0  0  0  0  0  0  0  0  0  0
   -1.7517   -0.8483    0.3266 N   0  0  0  0  0  0  0  0  0  0  0  0
   -2.4847   -0.5123   -0.2804 H   0  0  0  0  0  0  0  0  0  0  0  0
   -0.4117   -0.2463    0.2186 C   0  0  1  0  0  0  0  0  0  0  0  0
   -0.5028    0.8247    0.4159 H   0  0  0  0  0  0  0  0  0  0  0  0
    0.4863   -0.8402    1.3286 C   0  0  0  0  0  0  0  0  0  0  0  0
    0.5159   -1.9262    1.2087 H   0  0  0  0  0  0  0  0  0  0  0  0
    1.5065   -0.4748    1.1932 H   0  0  0  0  0  0  0  0  0  0  0  0
    0.0561   -0.5201    2.7445 C   0  0  0  0  0  0  0  0  0  0  0  0
    0.2178    0.7003    3.3715 N   0  3  0  0  0  0  0  0  0  0  0  0
    0.5926    1.5306    2.9037 H   0  0  0  0  0  0  0  0  0  0  0  0
   -0.2825    0.6072    4.6195 C   0  0  0  0  0  0  0  0  0  0  0  0
   -0.3084    1.4142    5.3491 H   0  0  0  0  0  0  0  0  0  0  0  0
   -0.7573   -0.6462    4.7986 N   0  0  0  0  0  0  0  0  0  0  0  0
   -1.1949   -1.0037    5.6437 H   0  0  0  0  0  0  0  0  0  0  0  0
   -0.5524   -1.3675    3.6306 C   0  0  0  0  0  0  0  0  0  0  0  0
   -0.8200   -2.4040    3.4450 H   0  0  0  0  0  0  0  0  0  0  0  0
    0.1503   -0.3805   -1.2079 C   0  0  0  0  0  0  0  0  0  0  0  0
    0.3280   -1.4917   -1.7094 O   0  0  0  0  0  0  0  0  0  0  0  0
    0.4384    0.7610   -1.8450 N   0  0  0  0  0  0  0  0  0  0  0  0
    0.2495    1.6249   -1.3599 H   0  0  0  0  0  0  0  0  0  0  0  0
    1.0103    0.8571   -3.1915 C   0  0  0  0  0  0  0  0  0  0  0  0
    0.2279    1.0943   -3.9151 H   0  0  0  0  0  0  0  0  0  0  0  0
    1.7625    1.6474   -3.2212 H   0  0  0  0  0  0  0  0  0  0  0  0
    1.4832   -0.0835   -3.4817 H   0  0  0  0  0  0  0  0  0  0  0  0
  5  6  2  0  0  0  0
  5  7  1  0  0  0  0
  2  3  1  0  0  0  0
  2  4  1  0  0  0  0
  2  5  1  0  0  0  0
  1  2  1  0  0  0  0
 23 24  2  0  0  0  0
 23 25  1  0  0  0  0
 21 22  1  0  0  0  0
 19 20  1  0  0  0  0
 19 21  1  0  0  0  0
 17 18  1  0  0  0  0
 17 19  1  0  0  0  0
 15 16  1  0  0  0  0
 15 17  2  0  0  0  0
 14 15  1  0  0  0  0
 14 21  2  0  0  0  0
 11 12  1  0  0  0  0
 11 13  1  0  0  0  0
 11 14  1  0  0  0  0
  9 10  1  0  0  0  0
  9 11  1  0  0  0  0
  9 23  1  0  0  0  0
  7  8  1  0  0  0  0
  7  9  1  0  0  0  0
 27 28  1  0  0  0  0
 27 29  1  0  0  0  0
 27 30  1  0  0  0  0
 25 26  1  0  0  0  0
 25 27  1  0  0  0  0
M  CHG  1  15   1
M  END
$$$$
default_name
  -OEChem-01062215323D

 30 30  0     1  0  0  0  0  0999 V2000
   -3.5507   -3.2183    1.8116 H   0  0  0  0  0  0  0  0  0  0  0  0
   -3.4597   -2.3913    1.1076 C   0  0  0  0  0  0  0  0  0  0  0  0
   -4.1577   -1.6043    1.3866 H   0  0  0  0  0  0  0  0  0  0  0  0
   -3.6807   -2.7523    0.1036 H   0  0  0  0  0  0  0  0  0  0  0  0
   -2.0477   -1.8543    1.1546 C   0  0  0  0  0  0  0  0  0  0  0  0
   -1.2227   -2.3443    1.9146 O   0  0  0  0  0  0  0  0  0  0  0  0
   -1.7517   -0.8483    0.3266 N   0  0  0  0  0  0  0  0  0  0  0  0
   -2.4847   -0.5123   -0.2804 H   0  0  0  0  0  0  0  0  0  0  0  0
   -0.4117   -0.2463    0.2186 C   0  0  1  0  0  0  0  0  0  0  0  0
   -0.5028    0.8247    0.4159 H   0  0  0  0  0  0  0  0  0  0  0  0
    0.4863   -0.8402    1.3286 C   0  0  0  0  0  0  0  0  0  0  0  0
    0.5159   -1.9262    1.2087 H   0  0  0  0  0  0  0  0  0  0  0  0
    1.5065   -0.4748    1.1932 H   0  0  0  0  0  0  0  0  0  0  0  0
    0.0561   -0.5201    2.7445 C   0  0  0  0  0  0  0  0  0  0  0  0
    0.2178    0.7003    3.3715 N   0  3  0  0  0  0  0  0  0  0  0  0
    0.5926    1.5306    2.9037 H   0  0  0  0  0  0  0  0  0  0  0  0
   -0.2825    0.6072    4.6195 C   0  0  0  0  0  0  0  0  0  0  0  0
   -0.3084    1.4142    5.3491 H   0  0  0  0  0  0  0  0  0  0  0  0
   -0.7573   -0.6462    4.7986 N   0  0  0  0  0  0  0  0  0  0  0  0
   -1.1949   -1.0037    5.6437 H   0  0  0  0  0  0  0  0  0  0  0  0
   -0.5524   -1.3675    3.6306 C   0  0  0  0  0  0  0  0  0  0  0  0
   -0.8200   -2.4040    3.4450 H   0  0  0  0  0  0  0  0  0  0  0  0
    0.1503   -0.3805   -1.2079 C   0  0  0  0  0  0  0  0  0  0  0  0
    0.0745   -1.4509   -1.8131 O   0  0  0  0  0  0  0  0  0  0  0  0
    0.7243    0.7114   -1.7277 N   0  0  0  0  0  0  0  0  0  0  0  0
    0.7306    1.5472   -1.1630 H   0  0  0  0  0  0  0  0  0  0  0  0
    1.3482    0.7900   -3.0521 C   0  0  0  0  0  0  0  0  0  0  0  0
    0.6701    1.2742   -3.7578 H   0  0  0  0  0  0  0  0  0  0  0  0
    2.2678    1.3751   -2.9965 H   0  0  0  0  0  0  0  0  0  0  0  0
    1.5924   -0.2061   -3.4272 H   0  0  0  0  0  0  0  0  0  0  0  0
  5  6  2  0  0  0  0
  5  7  1  0  0  0  0
  2  3  1  0  0  0  0
  2  4  1  0  0  0  0
  2  5  1  0  0  0  0
  1  2  1  0  0  0  0
 23 24  2  0  0  0  0
 23 25  1  0  0  0  0
 21 22  1  0  0  0  0
 19 20  1  0  0  0  0
 19 21  1  0  0  0  0
 17 18  1  0  0  0  0
 17 19  1  0  0  0  0
 15 16  1  0  0  0  0
 15 17  2  0  0  0  0
 14 15  1  0  0  0  0
 14 21  2  0  0  0  0
 11 12  1  0  0  0  0
 11 13  1  0  0  0  0
 11 14  1  0  0  0  0
  9 10  1  0  0  0  0
  9 11  1  0  0  0  0
  9 23  1  0  0  0  0
  7  8  1  0  0  0  0
  7  9  1  0  0  0  0
 27 28  1  0  0  0  0
 27 29  1  0  0  0  0
 27 30  1  0  0  0  0
 25 26  1  0  0  0  0
 25 27  1  0  0  0  0
M  CHG  1  15   1
M  END
$$$$
default_name
  -OEChem-01062215323D

 30 30  0     1  0  0  0  0  0999 V2000
   -3.5507   -3.2183    1.8116 H   0  0  0  0  0  0  0  0  0  0  0  0
   -3.4597   -2.3913    1.1076 C   0  0  0  0  0  0  0  0  0  0  0  0
   -4.1577   -1.6043    1.3866 H   0  0  0  0  0  0  0  0  0  0  0  0
   -3.6807   -2.7523    0.1036 H   0  0  0  0  0  0  0  0  0  0  0  0
   -2.0477   -1.8543    1.1546 C   0  0  0  0  0  0  0  0  0  0  0  0
   -1.2227   -2.3443    1.9146 O   0  0  0  0  0  0  0  0  0  0  0  0
   -1.7517   -0.8483    0.3266 N   0  0  0  0  0  0  0  0  0  0  0  0
   -2.4847   -0.5123   -0.2804 H   0  0  0  0  0  0  0  0  0  0  0  0
   -0.4117   -0.2463    0.2186 C   0  0  1  0  0  0  0  0  0  0  0  0
   -0.5028    0.8247    0.4159 H   0  0  0  0  0  0  0  0  0  0  0  0
    0.4863   -0.8402    1.3286 C   0  0  0  0  0  0  0  0  0  0  0  0
    0.5159   -1.9262    1.2087 H   0  0  0  0  0  0  0  0  0  0  0  0
    1.5065   -0.4748    1.1932 H   0  0  0  0  0  0  0  0  0  0  0  0
    0.0561   -0.5201    2.7445 C   0  0  0  0  0  0  0  0  0  0  0  0
    0.2178    0.7003    3.3715 N   0  3  0  0  0  0  0  0  0  0  0  0
    0.5926    1.5306    2.9037 H   0  0  0  0  0  0  0  0  0  0  0  0
   -0.2825    0.6072    4.6195 C   0  0  0  0  0  0  0  0  0  0  0  0
   -0.3084    1.4142    5.3491 H   0  0  0  0  0  0  0  0  0  0  0  0
   -0.7573   -0.6462    4.7986 N   0  0  0  0  0  0  0  0  0  0  0  0
   -1.1949   -1.0037    5.6437 H   0  0  0  0  0  0  0  0  0  0  0  0
   -0.5524   -1.3675    3.6306 C   0  0  0  0  0  0  0  0  0  0  0  0
   -0.8200   -2.4040    3.4450 H   0  0  0  0  0  0  0  0  0  0  0  0
    0.1503   -0.3805   -1.2079 C   0  0  0  0  0  0  0  0  0  0  0  0
   -0.1582   -1.3409   -1.9152 O   0  0  0  0  0  0  0  0  0  0  0  0
    0.9858    0.5839   -1.6127 N   0  0  0  0  0  0  0  0  0  0  0  0
    1.1723    1.3380   -0.9693 H   0  0  0  0  0  0  0  0  0  0  0  0
    1.6552    0.6310   -2.9162 C   0  0  0  0  0  0  0  0  0  0  0  0
    1.1369    1.3269   -3.5789 H   0  0  0  0  0  0  0  0  0  0  0  0
    2.6855    0.9695   -2.7938 H   0  0  0  0  0  0  0  0  0  0  0  0
    1.6671   -0.3559   -3.3836 H   0  0  0  0  0  0  0  0  0  0  0  0
  5  6  2  0  0  0  0
  5  7  1  0  0  0  0
  2  3  1  0  0  0  0
  2  4  1  0  0  0  0
  2  5  1  0  0  0  0
  1  2  1  0  0  0  0
 23 24  2  0  0  0  0
 23 25  1  0  0  0  0
 21 22  1  0  0  0  0
 19 20  1  0  0  0  0
 19 21  1  0  0  0  0
 17 18  1  0  0  0  0
 17 19  1  0  0  0  0
 15 16  1  0  0  0  0
 15 17  2  0  0  0  0
 14 15  1  0  0  0  0
 14 21  2  0  0  0  0
 11 12  1  0  0  0  0
 11 13  1  0  0  0  0
 11 14  1  0  0  0  0
  9 10  1  0  0  0  0
  9 11  1  0  0  0  0
  9 23  1  0  0  0  0
  7  8  1  0  0  0  0
  7  9  1  0  0  0  0
 27 28  1  0  0  0  0
 27 29  1  0  0  0  0
 27 30  1  0  0  0  0
 25 26  1  0  0  0  0
 25 27  1  0  0  0  0
M  CHG  1  15   1
M  END
$$$$
default_name
  -OEChem-01062215323D

 30 30  0     1  0  0  0  0  0999 V2000
   -3.5507   -3.2183    1.8116 H   0  0  0  0  0  0  0  0  0  0  0  0
   -3.4597   -2.3913    1.1076 C   0  0  0  0  0  0  0  0  0  0  0  0
   -4.1577   -1.6043    1.3866 H   0  0  0  0  0  0  0  0  0  0  0  0
   -3.6807   -2.7523    0.1036 H   0  0  0  0  0  0  0  0  0  0  0  0
   -2.0477   -1.8543    1.1546 C   0  0  0  0  0  0  0  0  0  0  0  0
   -1.2227   -2.3443    1.9146 O   0  0  0  0  0  0  0  0  0  0  0  0
   -1.7517   -0.8483    0.3266 N   0  0  0  0  0  0  0  0  0  0  0  0
   -2.4847   -0.5123   -0.2804 H   0  0  0  0  0  0  0  0  0  0  0  0
   -0.4117   -0.2463    0.2186 C   0  0  1  0  0  0  0  0  0  0  0  0
   -0.5028    0.8247    0.4159 H   0  0  0  0  0  0  0  0  0  0  0  0
    0.4863   -0.8402    1.3286 C   0  0  0  0  0  0  0  0  0  0  0  0
    0.5159   -1.9262    1.2087 H   0  0  0  0  0  0  0  0  0  0  0  0
    1.5065   -0.4748    1.1932 H   0  0  0  0  0  0  0  0  0  0  0  0
    0.0561   -0.5201    2.7445 C   0  0  0  0  0  0  0  0  0  0  0  0
    0.2178    0.7003    3.3715 N   0  3  0  0  0  0  0  0  0  0  0  0
    0.5926    1.5306    2.9037 H   0  0  0  0  0  0  0  0  0  0  0  0
   -0.2825    0.6072    4.6195 C   0  0  0  0  0  0  0  0  0  0  0  0
   -0.3084    1.4142    5.3491 H   0  0  0  0  0  0  0  0  0  0  0  0
   -0.7573   -0.6462    4.7986 N   0  0  0  0  0  0  0  0  0  0  0  0
   -1.1949   -1.0037    5.6437 H   0  0  0  0  0  0  0  0  0  0  0  0
   -0.5524   -1.3675    3.6306 C   0  0  0  0  0  0  0  0  0  0  0  0
   -0.8200   -2.4040    3.4450 H   0  0  0  0  0  0  0  0  0  0  0  0
    0.1503   -0.3805   -1.2079 C   0  0  0  0  0  0  0  0  0  0  0  0
   -0.3543   -1.1692   -2.0086 O   0  0  0  0  0  0  0  0  0  0  0  0
    1.2053    0.3871   -1.5077 N   0  0  0  0  0  0  0  0  0  0  0  0
    1.5444    1.0118   -0.7920 H   0  0  0  0  0  0  0  0  0  0  0  0
    1.9106    0.3909   -2.7930 C   0  0  0  0  0  0  0  0  0  0  0  0
    1.5964    1.2489   -3.3905 H   0  0  0  0  0  0  0  0  0  0  0  0
    2.9871    0.4585   -2.6268 H   0  0  0  0  0  0  0  0  0  0  0  0
    1.7024   -0.5226   -3.3540 H   0  0  0  0  0  0  0  0  0  0  0  0
  5  6  2  0  0  0  0
  5  7  1  0  0  0  0
  2  3  1  0  0  0  0
  2  4  1  0  0  0  0
  2  5  1  0  0  0  0
  1  2  1  0  0  0  0
 23 24  2  0  0  0  0
 23 25  1  0  0  0  0
 21 22  1  0  0  0  0
 19 20  1  0  0  0  0
 19 21  1  0  0  0  0
 17 18  1  0  0  0  0
 17 19  1  0  0  0  0
 15 16  1  0  0  0  0
 15 17  2  0  0  0  0
 14 15  1  0  0  0  0
 14 21  2  0  0  0  0
 11 12  1  0  0  0  0
 11 13  1  0  0  0  0
 11 14  1  0  0  0  0
  9 10  1  0  0  0  0
  9 11  1  0  0  0  0
  9 23  1  0  0  0  0
  7  8  1  0  0  0  0
  7  9  1  0  0  0  0
 27 28  1  0  0  0  0
 27 29  1  0  0  0  0
 27 30  1  0  0  0  0
 25 26  1  0  0  0  0
 25 27  1  0  0  0  0
M  CHG  1  15   1
M  END
$$$$
default_name
  -OEChem-01062215323D

 30 30  0     1  0  0  0  0  0999 V2000
   -3.5507   -3.2183    1.8116 H   0  0  0  0  0  0  0  0  0  0  0  0
   -3.4597   -2.3913    1.1076 C   0  0  0  0  0  0  0  0  0  0  0  0
   -4.1577   -1.6043    1.3866 H   0  0  0  0  0  0  0  0  0  0  0  0
   -3.6807   -2.7523    0.1036 H   0  0  0  0  0  0  0  0  0  0  0  0
   -2.0477   -1.8543    1.1546 C   0  0  0  0  0  0  0  0  0  0  0  0
   -1.2227   -2.3443    1.9146 O   0  0  0  0  0  0  0  0  0  0  0  0
   -1.7517   -0.8483    0.3266 N   0  0  0  0  0  0  0  0  0  0  0  0
   -2.4847   -0.5123   -0.2804 H   0  0  0  0  0  0  0  0  0  0  0  0
   -0.4117   -0.2463    0.2186 C   0  0  1  0  0  0  0  0  0  0  0  0
   -0.4480    0.7483    0.6701 H   0  0  0  0  0  0  0  0  0  0  0  0
    0.5771   -1.0915    1.0548 C   0  0  0  0  0  0  0  0  0  0  0  0
    0.5598   -2.1185    0.6811 H   0  0  0  0  0  0  0  0  0  0  0  0
    1.5889   -0.7109    0.8993 H   0  0  0  0  0  0  0  0  0  0  0  0
    0.3061   -1.1126    2.5442 C   0  0  0  0  0  0  0  0  0  0  0  0
    0.5704   -0.0761    3.4185 N   0  3  0  0  0  0  0  0  0  0  0  0
    0.9209    0.8388    3.1207 H   0  0  0  0  0  0  0  0  0  0  0  0
    0.1992   -0.4585    4.6565 C   0  0  0  0  0  0  0  0  0  0  0  0
    0.2746    0.1532    5.5533 H   0  0  0  0  0  0  0  0  0  0  0  0
   -0.2939   -1.7157    4.5869 N   0  0  0  0  0  0  0  0  0  0  0  0
   -0.6528   -2.2601    5.3669 H   0  0  0  0  0  0  0  0  0  0  0  0
   -0.2339   -2.1416    3.2673 C   0  0  0  0  0  0  0  0  0  0  0  0
   -0.5520   -3.1032    2.8739 H   0  0  0  0  0  0  0  0  0  0  0  0
   -0.0049   -0.0429   -1.2517 C   0  0  0  0  0  0  0  0  0  0  0  0
   -0.7608   -0.3818   -2.1637 O   0  0  0  0  0  0  0  0  0  0  0  0
    1.1996    0.4999   -1.4674 N   0  0  0  0  0  0  0  0  0  0  0  0
    1.7457    0.7566   -0.6591 H   0  0  0  0  0  0  0  0  0  0  0  0
    1.7915    0.7488   -2.7854 C   0  0  0  0  0  0  0  0  0  0  0  0
    1.6894    1.8034   -3.0491 H   0  0  0  0  0  0  0  0  0  0  0  0
    2.8530    0.4953   -2.7710 H   0  0  0  0  0  0  0  0  0  0  0  0
    1.3009    0.1461   -3.5527 H   0  0  0  0  0  0  0  0  0  0  0  0
  5  6  2  0  0  0  0
  5  7  1  0  0  0  0
  2  3  1  0  0  0  0
  2  4  1  0  0  0  0
  2  5  1  0  0  0  0
  1  2  1  0  0  0  0
 23 24  2  0  0  0  0
 23 25  1  0  0  0  0
 21 22  1  0  0  0  0
 19 20  1  0  0  0  0
 19 21  1  0  0  0  0
 17 18  1  0  0  0  0
 17 19  1  0  0  0  0
 15 16  1  0  0  0  0
 15 17  2  0  0  0  0
 14 15  1  0  0  0  0
 14 21  2  0  0  0  0
 11 12  1  0  0  0  0
 11 13  1  0  0  0  0
 11 14  1  0  0  0  0
  9 10  1  0  0  0  0
  9 11  1  0  0  0  0
  9 23  1  0  0  0  0
  7  8  1  0  0  0  0
  7  9  1  0  0  0  0
 27 28  1  0  0  0  0
 27 29  1  0  0  0  0
 27 30  1  0  0  0  0
 25 26  1  0  0  0  0
 25 27  1  0  0  0  0
M  CHG  1  15   1
M  END
$$$$
default_name
  -OEChem-01062215323D

 30 30  0     1  0  0  0  0  0999 V2000
   -3.5507   -3.2183    1.8116 H   0  0  0  0  0  0  0  0  0  0  0  0
   -3.4597   -2.3913    1.1076 C   0  0  0  0  0  0  0  0  0  0  0  0
   -4.1577   -1.6043    1.3866 H   0  0  0  0  0  0  0  0  0  0  0  0
   -3.6807   -2.7523    0.1036 H   0  0  0  0  0  0  0  0  0  0  0  0
   -2.0477   -1.8543    1.1546 C   0  0  0  0  0  0  0  0  0  0  0  0
   -1.2227   -2.3443    1.9146 O   0  0  0  0  0  0  0  0  0  0  0  0
   -1.7517   -0.8483    0.3266 N   0  0  0  0  0  0  0  0  0  0  0  0
   -2.4847   -0.5123   -0.2804 H   0  0  0  0  0  0  0  0  0  0  0  0
   -0.4117   -0.2463    0.2186 C   0  0  1  0  0  0  0  0  0  0  0  0
   -0.4480    0.7483    0.6701 H   0  0  0  0  0  0  0  0  0  0  0  0
    0.5771   -1.0915    1.0548 C   0  0  0  0  0  0  0  0  0  0  0  0
    0.5598   -2.1185    0.6811 H   0  0  0  0  0  0  0  0  0  0  0  0
    1.5889   -0.7109    0.8993 H   0  0  0  0  0  0  0  0  0  0  0  0
    0.3061   -1.1126    2.5442 C   0  0  0  0  0  0  0  0  0  0  0  0
    0.5704   -0.0761    3.4185 N   0  3  0  0  0  0  0  0  0  0  0  0
    0.9209    0.8388    3.1207 H   0  0  0  0  0  0  0  0  0  0  0  0
    0.1992   -0.4585    4.6565 C   0  0  0  0  0  0  0  0  0  0  0  0
    0.2746    0.1532    5.5533 H   0  0  0  0  0  0  0  0  0  0  0  0
   -0.2939   -1.7157    4.5869 N   0  0  0  0  0  0  0  0  0  0  0  0
   -0.6528   -2.2601    5.3669 H   0  0  0  0  0  0  0  0  0  0  0  0
   -0.2339   -2.1416    3.2673 C   0  0  0  0  0  0  0  0  0  0  0  0
   -0.5520   -3.1032    2.8739 H   0  0  0  0  0  0  0  0  0  0  0  0
   -0.0049   -0.0429   -1.2517 C   0  0  0  0  0  0  0  0  0  0  0  0
   -0.8443   -0.1181   -2.1503 O   0  0  0  0  0  0  0  0  0  0  0  0
    1.2908    0.2010   -1.4836 N   0  0  0  0  0  0  0  0  0  0  0  0
    1.9040    0.2559   -0.6846 H   0  0  0  0  0  0  0  0  0  0  0  0
    1.8921    0.3918   -2.8070 C   0  0  0  0  0  0  0  0  0  0  0  0
    2.0485    1.4553   -2.9979 H   0  0  0  0  0  0  0  0  0  0  0  0
    2.8572   -0.1155   -2.8542 H   0  0  0  0  0  0  0  0  0  0  0  0
    1.2476   -0.0142   -3.5896 H   0  0  0  0  0  0  0  0  0  0  0  0
  5  6  2  0  0  0  0
  5  7  1  0  0  0  0
  2  3  1  0  0  0  0
  2  4  1  0  0  0  0
  2  5  1  0  0  0  0
  1  2  1  0  0  0  0
 23 24  2  0  0  0  0
 23 25  1  0  0  0  0
 21 22  1  0  0  0  0
 19 20  1  0  0  0  0
 19 21  1  0  0  0  0
 17 18  1  0  0  0  0
 17 19  1  0  0  0  0
 15 16  1  0  0  0  0
 15 17  2  0  0  0  0
 14 15  1  0  0  0  0
 14 21  2  0  0  0  0
 11 12  1  0  0  0  0
 11 13  1  0  0  0  0
 11 14  1  0  0  0  0
  9 10  1  0  0  0  0
  9 11  1  0  0  0  0
  9 23  1  0  0  0  0
  7  8  1  0  0  0  0
  7  9  1  0  0  0  0
 27 28  1  0  0  0  0
 27 29  1  0  0  0  0
 27 30  1  0  0  0  0
 25 26  1  0  0  0  0
 25 27  1  0  0  0  0
M  CHG  1  15   1
M  END
$$$$
default_name
  -OEChem-01062215323D

 30 30  0     1  0  0  0  0  0999 V2000
   -3.5507   -3.2183    1.8116 H   0  0  0  0  0  0  0  0  0  0  0  0
   -3.4597   -2.3913    1.1076 C   0  0  0  0  0  0  0  0  0  0  0  0
   -4.1577   -1.6043    1.3866 H   0  0  0  0  0  0  0  0  0  0  0  0
   -3.6807   -2.7523    0.1036 H   0  0  0  0  0  0  0  0  0  0  0  0
   -2.0477   -1.8543    1.1546 C   0  0  0  0  0  0  0  0  0  0  0  0
   -1.2227   -2.3443    1.9146 O   0  0  0  0  0  0  0  0  0  0  0  0
   -1.7517   -0.8483    0.3266 N   0  0  0  0  0  0  0  0  0  0  0  0
   -2.4847   -0.5123   -0.2804 H   0  0  0  0  0  0  0  0  0  0  0  0
   -0.4117   -0.2463    0.2186 C   0  0  1  0  0  0  0  0  0  0  0  0
   -0.4480    0.7483    0.6701 H   0  0  0  0  0  0  0  0  0  0  0  0
    0.5771   -1.0915    1.0548 C   0  0  0  0  0  0  0  0  0  0  0  0
    0.5598   -2.1185    0.6811 H   0  0  0  0  0  0  0  0  0  0  0  0
    1.5889   -0.7109    0.8993 H   0  0  0  0  0  0  0  0  0  0  0  0
    0.3061   -1.1126    2.5442 C   0  0  0  0  0  0  0  0  0  0  0  0
    0.5704   -0.0761    3.4185 N   0  3  0  0  0  0  0  0  0  0  0  0
    0.9209    0.8388    3.1207 H   0  0  0  0  0  0  0  0  0  0  0  0
    0.1992   -0.4585    4.6565 C   0  0  0  0  0  0  0  0  0  0  0  0
    0.2746    0.1532    5.5533 H   0  0  0  0  0  0  0  0  0  0  0  0
   -0.2939   -1.7157    4.5869 N   0  0  0  0  0  0  0  0  0  0  0  0
   -0.6528   -2.2601    5.3669 H   0  0  0  0  0  0  0  0  0  0  0  0
   -0.2339   -2.1416    3.2673 C   0  0  0  0  0  0  0  0  0  0  0  0
   -0.5520   -3.1032    2.8739 H   0  0  0  0  0  0  0  0  0  0  0  0
   -0.0049   -0.0429   -1.2517 C   0  0  0  0  0  0  0  0  0  0  0  0
   -0.8594    0.1563   -2.1165 O   0  0  0  0  0  0  0  0  0  0  0  0
    1.3044   -0.1091   -1.5227 N   0  0  0  0  0  0  0  0  0  0  0  0
    1.9323   -0.2650   -0.7488 H   0  0  0  0  0  0  0  0  0  0  0  0
    1.9001    0.0235   -2.8557 C   0  0  0  0  0  0  0  0  0  0  0  0
    2.3110    1.0269   -2.9846 H   0  0  0  0  0  0  0  0  0  0  0  0
    2.7075   -0.7009   -2.9766 H   0  0  0  0  0  0  0  0  0  0  0  0
    1.1552   -0.1534   -3.6344 H   0  0  0  0  0  0  0  0  0  0  0  0
  5  6  2  0  0  0  0
  5  7  1  0  0  0  0
  2  3  1  0  0  0  0
  2  4  1  0  0  0  0
  2  5  1  0  0  0  0
  1  2  1  0  0  0  0
 23 24  2  0  0  0  0
 23 25  1  0  0  0  0
 21 22  1  0  0  0  0
 19 20  1  0  0  0  0
 19 21  1  0  0  0  0
 17 18  1  0  0  0  0
 17 19  1  0  0  0  0
 15 16  1  0  0  0  0
 15 17  2  0  0  0  0
 14 15  1  0  0  0  0
 14 21  2  0  0  0  0
 11 12  1  0  0  0  0
 11 13  1  0  0  0  0
 11 14  1  0  0  0  0
  9 10  1  0  0  0  0
  9 11  1  0  0  0  0
  9 23  1  0  0  0  0
  7  8  1  0  0  0  0
  7  9  1  0  0  0  0
 27 28  1  0  0  0  0
 27 29  1  0  0  0  0
 27 30  1  0  0  0  0
 25 26  1  0  0  0  0
 25 27  1  0  0  0  0
M  CHG  1  15   1
M  END
$$$$
default_name
  -OEChem-01062215323D

 30 30  0     1  0  0  0  0  0999 V2000
   -3.5507   -3.2183    1.8116 H   0  0  0  0  0  0  0  0  0  0  0  0
   -3.4597   -2.3913    1.1076 C   0  0  0  0  0  0  0  0  0  0  0  0
   -4.1577   -1.6043    1.3866 H   0  0  0  0  0  0  0  0  0  0  0  0
   -3.6807   -2.7523    0.1036 H   0  0  0  0  0  0  0  0  0  0  0  0
   -2.0477   -1.8543    1.1546 C   0  0  0  0  0  0  0  0  0  0  0  0
   -1.2227   -2.3443    1.9146 O   0  0  0  0  0  0  0  0  0  0  0  0
   -1.7517   -0.8483    0.3266 N   0  0  0  0  0  0  0  0  0  0  0  0
   -2.4847   -0.5123   -0.2804 H   0  0  0  0  0  0  0  0  0  0  0  0
   -0.4117   -0.2463    0.2186 C   0  0  1  0  0  0  0  0  0  0  0  0
   -0.4480    0.7483    0.6701 H   0  0  0  0  0  0  0  0  0  0  0  0
    0.5771   -1.0915    1.0548 C   0  0  0  0  0  0  0  0  0  0  0  0
    0.5598   -2.1185    0.6811 H   0  0  0  0  0  0  0  0  0  0  0  0
    1.5889   -0.7109    0.8993 H   0  0  0  0  0  0  0  0  0  0  0  0
    0.3061   -1.1126    2.5442 C   0  0  0  0  0  0  0  0  0  0  0  0
    0.5704   -0.0761    3.4185 N   0  3  0  0  0  0  0  0  0  0  0  0
    0.9209    0.8388    3.1207 H   0  0  0  0  0  0  0  0  0  0  0  0
    0.1992   -0.4585    4.6565 C   0  0  0  0  0  0  0  0  0  0  0  0
    0.2746    0.1532    5.5533 H   0  0  0  0  0  0  0  0  0  0  0  0
   -0.2939   -1.7157    4.5869 N   0  0  0  0  0  0  0  0  0  0  0  0
   -0.6528   -2.2601    5.3669 H   0  0  0  0  0  0  0  0  0  0  0  0
   -0.2339   -2.1416    3.2673 C   0  0  0  0  0  0  0  0  0  0  0  0
   -0.5520   -3.1032    2.8739 H   0  0  0  0  0  0  0  0  0  0  0  0
   -0.0049   -0.0429   -1.2517 C   0  0  0  0  0  0  0  0  0  0  0  0
   -0.8050    0.4228   -2.0646 O   0  0  0  0  0  0  0  0  0  0  0  0
    1.2395   -0.4094   -1.5822 N   0  0  0  0  0  0  0  0  0  0  0  0
    1.8285   -0.7708   -0.8474 H   0  0  0  0  0  0  0  0  0  0  0  0
    1.8152   -0.3309   -2.9282 C   0  0  0  0  0  0  0  0  0  0  0  0
    2.4590    0.5472   -3.0100 H   0  0  0  0  0  0  0  0  0  0  0  0
    2.4139   -1.2209   -3.1297 H   0  0  0  0  0  0  0  0  0  0  0  0
    1.0301   -0.2620   -3.6840 H   0  0  0  0  0  0  0  0  0  0  0  0
  5  6  2  0  0  0  0
  5  7  1  0  0  0  0
  2  3  1  0  0  0  0
  2  4  1  0  0  0  0
  2  5  1  0  0  0  0
  1  2  1  0  0  0  0
 23 24  2  0  0  0  0
 23 25  1  0  0  0  0
 21 22  1  0  0  0  0
 19 20  1  0  0  0  0
 19 21  1  0  0  0  0
 17 18  1  0  0  0  0
 17 19  1  0  0  0  0
 15 16  1  0  0  0  0
 15 17  2  0  0  0  0
 14 15  1  0  0  0  0
 14 21  2  0  0  0  0
 11 12  1  0  0  0  0
 11 13  1  0  0  0  0
 11 14  1  0  0  0  0
  9 10  1  0  0  0  0
  9 11  1  0  0  0  0
  9 23  1  0  0  0  0
  7  8  1  0  0  0  0
  7  9  1  0  0  0  0
 27 28  1  0  0  0  0
 27 29  1  0  0  0  0
 27 30  1  0  0  0  0
 25 26  1  0  0  0  0
 25 27  1  0  0  0  0
M  CHG  1  15   1
M  END
$$$$
default_name
  -OEChem-01062215323D

 30 30  0     1  0  0  0  0  0999 V2000
   -3.5507   -3.2183    1.8116 H   0  0  0  0  0  0  0  0  0  0  0  0
   -3.4597   -2.3913    1.1076 C   0  0  0  0  0  0  0  0  0  0  0  0
   -4.1577   -1.6043    1.3866 H   0  0  0  0  0  0  0  0  0  0  0  0
   -3.6807   -2.7523    0.1036 H   0  0  0  0  0  0  0  0  0  0  0  0
   -2.0477   -1.8543    1.1546 C   0  0  0  0  0  0  0  0  0  0  0  0
   -1.2227   -2.3443    1.9146 O   0  0  0  0  0  0  0  0  0  0  0  0
   -1.7517   -0.8483    0.3266 N   0  0  0  0  0  0  0  0  0  0  0  0
   -2.4847   -0.5123   -0.2804 H   0  0  0  0  0  0  0  0  0  0  0  0
   -0.4117   -0.2463    0.2186 C   0  0  1  0  0  0  0  0  0  0  0  0
   -0.4480    0.7483    0.6701 H   0  0  0  0  0  0  0  0  0  0  0  0
    0.5771   -1.0915    1.0548 C   0  0  0  0  0  0  0  0  0  0  0  0
    0.5598   -2.1185    0.6811 H   0  0  0  0  0  0  0  0  0  0  0  0
    1.5889   -0.7109    0.8993 H   0  0  0  0  0  0  0  0  0  0  0  0
    0.3061   -1.1126    2.5442 C   0  0  0  0  0  0  0  0  0  0  0  0
    0.5704   -0.0761    3.4185 N   0  3  0  0  0  0  0  0  0  0  0  0
    0.9209    0.8388    3.1207 H   0  0  0  0  0  0  0  0  0  0  0  0
    0.1992   -0.4585    4.6565 C   0  0  0  0  0  0  0  0  0  0  0  0
    0.2746    0.1532    5.5533 H   0  0  0  0  0  0  0  0  0  0  0  0
   -0.2939   -1.7157    4.5869 N   0  0  0  0  0  0  0  0  0  0  0  0
   -0.6528   -2.2601    5.3669 H   0  0  0  0  0  0  0  0  0  0  0  0
   -0.2339   -2.1416    3.2673 C   0  0  0  0  0  0  0  0  0  0  0  0
   -0.5520   -3.1032    2.8739 H   0  0  0  0  0  0  0  0  0  0  0  0
   -0.0049   -0.0429   -1.2517 C   0  0  0  0  0  0  0  0  0  0  0  0
   -0.6847    0.6631   -1.9981 O   0  0  0  0  0  0  0  0  0  0  0  0
    1.1006   -0.6793   -1.6579 N   0  0  0  0  0  0  0  0  0  0  0  0
    1.5999   -1.2270   -0.9738 H   0  0  0  0  0  0  0  0  0  0  0  0
    1.6431   -0.6472   -3.0195 C   0  0  0  0  0  0  0  0  0  0  0  0
    2.4825    0.0489   -3.0724 H   0  0  0  0  0  0  0  0  0  0  0  0
    1.9965   -1.6401   -3.3032 H   0  0  0  0  0  0  0  0  0  0  0  0
    0.8806   -0.3325   -3.7351 H   0  0  0  0  0  0  0  0  0  0  0  0
  5  6  2  0  0  0  0
  5  7  1  0  0  0  0
  2  3  1  0  0  0  0
  2  4  1  0  0  0  0
  2  5  1  0  0  0  0
  1  2  1  0  0  0  0
 23 24  2  0  0  0  0
 23 25  1  0  0  0  0
 21 22  1  0  0  0  0
 19 20  1  0  0  0  0
 19 21  1  0  0  0  0
 17 18  1  0  0  0  0
 17 19  1  0  0  0  0
 15 16  1  0  0  0  0
 15 17  2  0  0  0  0
 14 15  1  0  0  0  0
 14 21  2  0  0  0  0
 11 12  1  0  0  0  0
 11 13  1  0  0  0  0
 11 14  1  0  0  0  0
  9 10  1  0  0  0  0
  9 11  1  0  0  0  0
  9 23  1  0  0  0  0
  7  8  1  0  0  0  0
  7  9  1  0  0  0  0
 27 28  1  0  0  0  0
 27 29  1  0  0  0  0
 27 30  1  0  0  0  0
 25 26  1  0  0  0  0
 25 27  1  0  0  0  0
M  CHG  1  15   1
M  END
$$$$
default_name
  -OEChem-01062215323D

 30 30  0     1  0  0  0  0  0999 V2000
   -3.5507   -3.2183    1.8116 H   0  0  0  0  0  0  0  0  0  0  0  0
   -3.4597   -2.3913    1.1076 C   0  0  0  0  0  0  0  0  0  0  0  0
   -4.1577   -1.6043    1.3866 H   0  0  0  0  0  0  0  0  0  0  0  0
   -3.6807   -2.7523    0.1036 H   0  0  0  0  0  0  0  0  0  0  0  0
   -2.0477   -1.8543    1.1546 C   0  0  0  0  0  0  0  0  0  0  0  0
   -1.2227   -2.3443    1.9146 O   0  0  0  0  0  0  0  0  0  0  0  0
   -1.7517   -0.8483    0.3266 N   0  0  0  0  0  0  0  0  0  0  0  0
   -2.4847   -0.5123   -0.2804 H   0  0  0  0  0  0  0  0  0  0  0  0
   -0.4117   -0.2463    0.2186 C   0  0  1  0  0  0  0  0  0  0  0  0
   -0.4480    0.7483    0.6701 H   0  0  0  0  0  0  0  0  0  0  0  0
    0.5771   -1.0915    1.0548 C   0  0  0  0  0  0  0  0  0  0  0  0
    0.5598   -2.1185    0.6811 H   0  0  0  0  0  0  0  0  0  0  0  0
    1.5889   -0.7109    0.8993 H   0  0  0  0  0  0  0  0  0  0  0  0
    0.3061   -1.1126    2.5442 C   0  0  0  0  0  0  0  0  0  0  0  0
    0.5704   -0.0761    3.4185 N   0  3  0  0  0  0  0  0  0  0  0  0
    0.9209    0.8388    3.1207 H   0  0  0  0  0  0  0  0  0  0  0  0
    0.1992   -0.4585    4.6565 C   0  0  0  0  0  0  0  0  0  0  0  0
    0.2746    0.1532    5.5533 H   0  0  0  0  0  0  0  0  0  0  0  0
   -0.2939   -1.7157    4.5869 N   0  0  0  0  0  0  0  0  0  0  0  0
   -0.6528   -2.2601    5.3669 H   0  0  0  0  0  0  0  0  0  0  0  0
   -0.2339   -2.1416    3.2673 C   0  0  0  0  0  0  0  0  0  0  0  0
   -0.5520   -3.1032    2.8739 H   0  0  0  0  0  0  0  0  0  0  0  0
   -0.0049   -0.0429   -1.2517 C   0  0  0  0  0  0  0  0  0  0  0  0
   -0.5068    0.8611   -1.9215 O   0  0  0  0  0  0  0  0  0  0  0  0
    0.8970   -0.9005   -1.7448 N   0  0  0  0  0  0  0  0  0  0  0  0
    1.2620   -1.6025   -1.1192 H   0  0  0  0  0  0  0  0  0  0  0  0
    1.3955   -0.9040   -3.1236 C   0  0  0  0  0  0  0  0  0  0  0  0
    2.3799   -0.4338   -3.1675 H   0  0  0  0  0  0  0  0  0  0  0  0
    1.4838   -1.9299   -3.4851 H   0  0  0  0  0  0  0  0  0  0  0  0
    0.7170   -0.3601   -3.7842 H   0  0  0  0  0  0  0  0  0  0  0  0
  5  6  2  0  0  0  0
  5  7  1  0  0  0  0
  2  3  1  0  0  0  0
  2  4  1  0  0  0  0
  2  5  1  0  0  0  0
  1  2  1  0  0  0  0
 23 24  2  0  0  0  0
 23 25  1  0  0  0  0
 21 22  1  0  0  0  0
 19 20  1  0  0  0  0
 19 21  1  0  0  0  0
 17 18  1  0  0  0  0
 17 19  1  0  0  0  0
 15 16  1  0  0  0  0
 15 17  2  0  0  0  0
 14 15  1  0  0  0  0
 14 21  2  0  0  0  0
 11 12  1  0  0  0  0
 11 13  1  0  0  0  0
 11 14  1  0  0  0  0
  9 10  1  0  0  0  0
  9 11  1  0  0  0  0
  9 23  1  0  0  0  0
  7  8  1  0  0  0  0
  7  9  1  0  0  0  0
 27 28  1  0  0  0  0
 27 29  1  0  0  0  0
 27 30  1  0  0  0  0
 25 26  1  0  0  0  0
 25 27  1  0  0  0  0
M  CHG  1  15   1
M  END
$$$$
default_name
  -OEChem-01062215323D

 30 30  0     1  0  0  0  0  0999 V2000
   -3.5507   -3.2183    1.8116 H   0  0  0  0  0  0  0  0  0  0  0  0
   -3.4597   -2.3913    1.1076 C   0  0  0  0  0  0  0  0  0  0  0  0
   -4.1577   -1.6043    1.3866 H   0  0  0  0  0  0  0  0  0  0  0  0
   -3.6807   -2.7523    0.1036 H   0  0  0  0  0  0  0  0  0  0  0  0
   -2.0477   -1.8543    1.1546 C   0  0  0  0  0  0  0  0  0  0  0  0
   -1.2227   -2.3443    1.9146 O   0  0  0  0  0  0  0  0  0  0  0  0
   -1.7517   -0.8483    0.3266 N   0  0  0  0  0  0  0  0  0  0  0  0
   -2.4847   -0.5123   -0.2804 H   0  0  0  0  0  0  0  0  0  0  0  0
   -0.4117   -0.2463    0.2186 C   0  0  1  0  0  0  0  0  0  0  0  0
   -0.4480    0.7483    0.6701 H   0  0  0  0  0  0  0  0  0  0  0  0
    0.5771   -1.0915    1.0548 C   0  0  0  0  0  0  0  0  0  0  0  0
    0.5598   -2.1185    0.6811 H   0  0  0  0  0  0  0  0  0  0  0  0
    1.5889   -0.7109    0.8993 H   0  0  0  0  0  0  0  0  0  0  0  0
    0.3061   -1.1126    2.5442 C   0  0  0  0  0  0  0  0  0  0  0  0
    0.5704   -0.0761    3.4185 N   0  3  0  0  0  0  0  0  0  0  0  0
    0.9209    0.8388    3.1207 H   0  0  0  0  0  0  0  0  0  0  0  0
    0.1992   -0.4585    4.6565 C   0  0  0  0  0  0  0  0  0  0  0  0
    0.2746    0.1532    5.5533 H   0  0  0  0  0  0  0  0  0  0  0  0
   -0.2939   -1.7157    4.5869 N   0  0  0  0  0  0  0  0  0  0  0  0
   -0.6528   -2.2601    5.3669 H   0  0  0  0  0  0  0  0  0  0  0  0
   -0.2339   -2.1416    3.2673 C   0  0  0  0  0  0  0  0  0  0  0  0
   -0.5520   -3.1032    2.8739 H   0  0  0  0  0  0  0  0  0  0  0  0
   -0.0049   -0.0429   -1.2517 C   0  0  0  0  0  0  0  0  0  0  0  0
   -0.2835    1.0030   -1.8401 O   0  0  0  0  0  0  0  0  0  0  0  0
    0.6428   -1.0579   -1.8369 N   0  0  0  0  0  0  0  0  0  0  0  0
    0.8378   -1.8717   -1.2738 H   0  0  0  0  0  0  0  0  0  0  0  0
    1.0893   -1.0837   -3.2331 C   0  0  0  0  0  0  0  0  0  0  0  0
    2.1582   -0.8683   -3.2889 H   0  0  0  0  0  0  0  0  0  0  0  0
    0.9106   -2.0707   -3.6632 H   0  0  0  0  0  0  0  0  0  0  0  0
    0.5506   -0.3430   -3.8279 H   0  0  0  0  0  0  0  0  0  0  0  0
  5  6  2  0  0  0  0
  5  7  1  0  0  0  0
  2  3  1  0  0  0  0
  2  4  1  0  0  0  0
  2  5  1  0  0  0  0
  1  2  1  0  0  0  0
 23 24  2  0  0  0  0
 23 25  1  0  0  0  0
 21 22  1  0  0  0  0
 19 20  1  0  0  0  0
 19 21  1  0  0  0  0
 17 18  1  0  0  0  0
 17 19  1  0  0  0  0
 15 16  1  0  0  0  0
 15 17  2  0  0  0  0
 14 15  1  0  0  0  0
 14 21  2  0  0  0  0
 11 12  1  0  0  0  0
 11 13  1  0  0  0  0
 11 14  1  0  0  0  0
  9 10  1  0  0  0  0
  9 11  1  0  0  0  0
  9 23  1  0  0  0  0
  7  8  1  0  0  0  0
  7  9  1  0  0  0  0
 27 28  1  0  0  0  0
 27 29  1  0  0  0  0
 27 30  1  0  0  0  0
 25 26  1  0  0  0  0
 25 27  1  0  0  0  0
M  CHG  1  15   1
M  END
$$$$
default_name
  -OEChem-01062215323D

 30 30  0     1  0  0  0  0  0999 V2000
   -3.5507   -3.2183    1.8116 H   0  0  0  0  0  0  0  0  0  0  0  0
   -3.4597   -2.3913    1.1076 C   0  0  0  0  0  0  0  0  0  0  0  0
   -4.1577   -1.6043    1.3866 H   0  0  0  0  0  0  0  0  0  0  0  0
   -3.6807   -2.7523    0.1036 H   0  0  0  0  0  0  0  0  0  0  0  0
   -2.0477   -1.8543    1.1546 C   0  0  0  0  0  0  0  0  0  0  0  0
   -1.2227   -2.3443    1.9146 O   0  0  0  0  0  0  0  0  0  0  0  0
   -1.7517   -0.8483    0.3266 N   0  0  0  0  0  0  0  0  0  0  0  0
   -2.4847   -0.5123   -0.2804 H   0  0  0  0  0  0  0  0  0  0  0  0
   -0.4117   -0.2463    0.2186 C   0  0  1  0  0  0  0  0  0  0  0  0
   -0.4480    0.7483    0.6701 H   0  0  0  0  0  0  0  0  0  0  0  0
    0.5771   -1.0915    1.0548 C   0  0  0  0  0  0  0  0  0  0  0  0
    0.5598   -2.1185    0.6811 H   0  0  0  0  0  0  0  0  0  0  0  0
    1.5889   -0.7109    0.8993 H   0  0  0  0  0  0  0  0  0  0  0  0
    0.3061   -1.1126    2.5442 C   0  0  0  0  0  0  0  0  0  0  0  0
    0.5704   -0.0761    3.4185 N   0  3  0  0  0  0  0  0  0  0  0  0
    0.9209    0.8388    3.1207 H   0  0  0  0  0  0  0  0  0  0  0  0
    0.1992   -0.4585    4.6565 C   0  0  0  0  0  0  0  0  0  0  0  0
    0.2746    0.1532    5.5533 H   0  0  0  0  0  0  0  0  0  0  0  0
   -0.2939   -1.7157    4.5869 N   0  0  0  0  0  0  0  0  0  0  0  0
   -0.6528   -2.2601    5.3669 H   0  0  0  0  0  0  0  0  0  0  0  0
   -0.2339   -2.1416    3.2673 C   0  0  0  0  0  0  0  0  0  0  0  0
   -0.5520   -3.1032    2.8739 H   0  0  0  0  0  0  0  0  0  0  0  0
   -0.0049   -0.0429   -1.2517 C   0  0  0  0  0  0  0  0  0  0  0  0
   -0.0298    1.0793   -1.7594 O   0  0  0  0  0  0  0  0  0  0  0  0
    0.3551   -1.1407   -1.9280 N   0  0  0  0  0  0  0  0  0  0  0  0
    0.3561   -2.0162   -1.4270 H   0  0  0  0  0  0  0  0  0  0  0  0
    0.7453   -1.1740   -3.3408 C   0  0  0  0  0  0  0  0  0  0  0  0
    1.8324   -1.2248   -3.4284 H   0  0  0  0  0  0  0  0  0  0  0  0
    0.3161   -2.0528   -3.8252 H   0  0  0  0  0  0  0  0  0  0  0  0
    0.3925   -0.2823   -3.8633 H   0  0  0  0  0  0  0  0  0  0  0  0
  5  6  2  0  0  0  0
  5  7  1  0  0  0  0
  2  3  1  0  0  0  0
  2  4  1  0  0  0  0
  2  5  1  0  0  0  0
  1  2  1  0  0  0  0
 23 24  2  0  0  0  0
 23 25  1  0  0  0  0
 21 22  1  0  0  0  0
 19 20  1  0  0  0  0
 19 21  1  0  0  0  0
 17 18  1  0  0  0  0
 17 19  1  0  0  0  0
 15 16  1  0  0  0  0
 15 17  2  0  0  0  0
 14 15  1  0  0  0  0
 14 21  2  0  0  0  0
 11 12  1  0  0  0  0
 11 13  1  0  0  0  0
 11 14  1  0  0  0  0
  9 10  1  0  0  0  0
  9 11  1  0  0  0  0
  9 23  1  0  0  0  0
  7  8  1  0  0  0  0
  7  9  1  0  0  0  0
 27 28  1  0  0  0  0
 27 29  1  0  0  0  0
 27 30  1  0  0  0  0
 25 26  1  0  0  0  0
 25 27  1  0  0  0  0
M  CHG  1  15   1
M  END
$$$$
default_name
  -OEChem-01062215323D

 30 30  0     1  0  0  0  0  0999 V2000
   -3.5507   -3.2183    1.8116 H   0  0  0  0  0  0  0  0  0  0  0  0
   -3.4597   -2.3913    1.1076 C   0  0  0  0  0  0  0  0  0  0  0  0
   -4.1577   -1.6043    1.3866 H   0  0  0  0  0  0  0  0  0  0  0  0
   -3.6807   -2.7523    0.1036 H   0  0  0  0  0  0  0  0  0  0  0  0
   -2.0477   -1.8543    1.1546 C   0  0  0  0  0  0  0  0  0  0  0  0
   -1.2227   -2.3443    1.9146 O   0  0  0  0  0  0  0  0  0  0  0  0
   -1.7517   -0.8483    0.3266 N   0  0  0  0  0  0  0  0  0  0  0  0
   -2.4847   -0.5123   -0.2804 H   0  0  0  0  0  0  0  0  0  0  0  0
   -0.4117   -0.2463    0.2186 C   0  0  1  0  0  0  0  0  0  0  0  0
   -0.4480    0.7483    0.6701 H   0  0  0  0  0  0  0  0  0  0  0  0
    0.5771   -1.0915    1.0548 C   0  0  0  0  0  0  0  0  0  0  0  0
    0.5598   -2.1185    0.6811 H   0  0  0  0  0  0  0  0  0  0  0  0
    1.5889   -0.7109    0.8993 H   0  0  0  0  0  0  0  0  0  0  0  0
    0.3061   -1.1126    2.5442 C   0  0  0  0  0  0  0  0  0  0  0  0
    0.5704   -0.0761    3.4185 N   0  3  0  0  0  0  0  0  0  0  0  0
    0.9209    0.8388    3.1207 H   0  0  0  0  0  0  0  0  0  0  0  0
    0.1992   -0.4585    4.6565 C   0  0  0  0  0  0  0  0  0  0  0  0
    0.2746    0.1532    5.5533 H   0  0  0  0  0  0  0  0  0  0  0  0
   -0.2939   -1.7157    4.5869 N   0  0  0  0  0  0  0  0  0  0  0  0
   -0.6528   -2.2601    5.3669 H   0  0  0  0  0  0  0  0  0  0  0  0
   -0.2339   -2.1416    3.2673 C   0  0  0  0  0  0  0  0  0  0  0  0
   -0.5520   -3.1032    2.8739 H   0  0  0  0  0  0  0  0  0  0  0  0
   -0.0049   -0.0429   -1.2517 C   0  0  0  0  0  0  0  0  0  0  0  0
    0.2368    1.0848   -1.6849 O   0  0  0  0  0  0  0  0  0  0  0  0
    0.0536   -1.1434   -2.0117 N   0  0  0  0  0  0  0  0  0  0  0  0
   -0.1501   -2.0262   -1.5684 H   0  0  0  0  0  0  0  0  0  0  0  0
    0.3871   -1.1688   -3.4392 C   0  0  0  0  0  0  0  0  0  0  0  0
    1.4249   -1.4791   -3.5763 H   0  0  0  0  0  0  0  0  0  0  0  0
   -0.2593   -1.8774   -3.9601 H   0  0  0  0  0  0  0  0  0  0  0  0
    0.2536   -0.1822   -3.8878 H   0  0  0  0  0  0  0  0  0  0  0  0
  5  6  2  0  0  0  0
  5  7  1  0  0  0  0
  2  3  1  0  0  0  0
  2  4  1  0  0  0  0
  2  5  1  0  0  0  0
  1  2  1  0  0  0  0
 23 24  2  0  0  0  0
 23 25  1  0  0  0  0
 21 22  1  0  0  0  0
 19 20  1  0  0  0  0
 19 21  1  0  0  0  0
 17 18  1  0  0  0  0
 17 19  1  0  0  0  0
 15 16  1  0  0  0  0
 15 17  2  0  0  0  0
 14 15  1  0  0  0  0
 14 21  2  0  0  0  0
 11 12  1  0  0  0  0
 11 13  1  0  0  0  0
 11 14  1  0  0  0  0
  9 10  1  0  0  0  0
  9 11  1  0  0  0  0
  9 23  1  0  0  0  0
  7  8  1  0  0  0  0
  7  9  1  0  0  0  0
 27 28  1  0  0  0  0
 27 29  1  0  0  0  0
 27 30  1  0  0  0  0
 25 26  1  0  0  0  0
 25 27  1  0  0  0  0
M  CHG  1  15   1
M  END
$$$$
default_name
  -OEChem-01062215323D

 30 30  0     1  0  0  0  0  0999 V2000
   -3.5507   -3.2183    1.8116 H   0  0  0  0  0  0  0  0  0  0  0  0
   -3.4597   -2.3913    1.1076 C   0  0  0  0  0  0  0  0  0  0  0  0
   -4.1577   -1.6043    1.3866 H   0  0  0  0  0  0  0  0  0  0  0  0
   -3.6807   -2.7523    0.1036 H   0  0  0  0  0  0  0  0  0  0  0  0
   -2.0477   -1.8543    1.1546 C   0  0  0  0  0  0  0  0  0  0  0  0
   -1.2227   -2.3443    1.9146 O   0  0  0  0  0  0  0  0  0  0  0  0
   -1.7517   -0.8483    0.3266 N   0  0  0  0  0  0  0  0  0  0  0  0
   -2.4847   -0.5123   -0.2804 H   0  0  0  0  0  0  0  0  0  0  0  0
   -0.4117   -0.2463    0.2186 C   0  0  1  0  0  0  0  0  0  0  0  0
   -0.4480    0.7483    0.6701 H   0  0  0  0  0  0  0  0  0  0  0  0
    0.5771   -1.0915    1.0548 C   0  0  0  0  0  0  0  0  0  0  0  0
    0.5598   -2.1185    0.6811 H   0  0  0  0  0  0  0  0  0  0  0  0
    1.5889   -0.7109    0.8993 H   0  0  0  0  0  0  0  0  0  0  0  0
    0.3061   -1.1126    2.5442 C   0  0  0  0  0  0  0  0  0  0  0  0
    0.5704   -0.0761    3.4185 N   0  3  0  0  0  0  0  0  0  0  0  0
    0.9209    0.8388    3.1207 H   0  0  0  0  0  0  0  0  0  0  0  0
    0.1992   -0.4585    4.6565 C   0  0  0  0  0  0  0  0  0  0  0  0
    0.2746    0.1532    5.5533 H   0  0  0  0  0  0  0  0  0  0  0  0
   -0.2939   -1.7157    4.5869 N   0  0  0  0  0  0  0  0  0  0  0  0
   -0.6528   -2.2601    5.3669 H   0  0  0  0  0  0  0  0  0  0  0  0
   -0.2339   -2.1416    3.2673 C   0  0  0  0  0  0  0  0  0  0  0  0
   -0.5520   -3.1032    2.8739 H   0  0  0  0  0  0  0  0  0  0  0  0
   -0.0049   -0.0429   -1.2517 C   0  0  0  0  0  0  0  0  0  0  0  0
    0.4982    1.0190   -1.6216 O   0  0  0  0  0  0  0  0  0  0  0  0
   -0.2411   -1.0657   -2.0825 N   0  0  0  0  0  0  0  0  0  0  0  0
   -0.6463   -1.9011   -1.6884 H   0  0  0  0  0  0  0  0  0  0  0  0
    0.0389   -1.0686   -3.5216 C   0  0  0  0  0  0  0  0  0  0  0  0
    0.9632   -1.6139   -3.7226 H   0  0  0  0  0  0  0  0  0  0  0  0
   -0.7763   -1.5564   -4.0587 H   0  0  0  0  0  0  0  0  0  0  0  0
    0.1433   -0.0495   -3.9000 H   0  0  0  0  0  0  0  0  0  0  0  0
  5  6  2  0  0  0  0
  5  7  1  0  0  0  0
  2  3  1  0  0  0  0
  2  4  1  0  0  0  0
  2  5  1  0  0  0  0
  1  2  1  0  0  0  0
 23 24  2  0  0  0  0
 23 25  1  0  0  0  0
 21 22  1  0  0  0  0
 19 20  1  0  0  0  0
 19 21  1  0  0  0  0
 17 18  1  0  0  0  0
 17 19  1  0  0  0  0
 15 16  1  0  0  0  0
 15 17  2  0  0  0  0
 14 15  1  0  0  0  0
 14 21  2  0  0  0  0
 11 12  1  0  0  0  0
 11 13  1  0  0  0  0
 11 14  1  0  0  0  0
  9 10  1  0  0  0  0
  9 11  1  0  0  0  0
  9 23  1  0  0  0  0
  7  8  1  0  0  0  0
  7  9  1  0  0  0  0
 27 28  1  0  0  0  0
 27 29  1  0  0  0  0
 27 30  1  0  0  0  0
 25 26  1  0  0  0  0
 25 27  1  0  0  0  0
M  CHG  1  15   1
M  END
$$$$
default_name
  -OEChem-01062215323D

 30 30  0     1  0  0  0  0  0999 V2000
   -3.5507   -3.2183    1.8116 H   0  0  0  0  0  0  0  0  0  0  0  0
   -3.4597   -2.3913    1.1076 C   0  0  0  0  0  0  0  0  0  0  0  0
   -4.1577   -1.6043    1.3866 H   0  0  0  0  0  0  0  0  0  0  0  0
   -3.6807   -2.7523    0.1036 H   0  0  0  0  0  0  0  0  0  0  0  0
   -2.0477   -1.8543    1.1546 C   0  0  0  0  0  0  0  0  0  0  0  0
   -1.2227   -2.3443    1.9146 O   0  0  0  0  0  0  0  0  0  0  0  0
   -1.7517   -0.8483    0.3266 N   0  0  0  0  0  0  0  0  0  0  0  0
   -2.4847   -0.5123   -0.2804 H   0  0  0  0  0  0  0  0  0  0  0  0
   -0.4117   -0.2463    0.2186 C   0  0  1  0  0  0  0  0  0  0  0  0
   -0.4480    0.7483    0.6701 H   0  0  0  0  0  0  0  0  0  0  0  0
    0.5771   -1.0915    1.0548 C   0  0  0  0  0  0  0  0  0  0  0  0
    0.5598   -2.1185    0.6811 H   0  0  0  0  0  0  0  0  0  0  0  0
    1.5889   -0.7109    0.8993 H   0  0  0  0  0  0  0  0  0  0  0  0
    0.3061   -1.1126    2.5442 C   0  0  0  0  0  0  0  0  0  0  0  0
    0.5704   -0.0761    3.4185 N   0  3  0  0  0  0  0  0  0  0  0  0
    0.9209    0.8388    3.1207 H   0  0  0  0  0  0  0  0  0  0  0  0
    0.1992   -0.4585    4.6565 C   0  0  0  0  0  0  0  0  0  0  0  0
    0.2746    0.1532    5.5533 H   0  0  0  0  0  0  0  0  0  0  0  0
   -0.2939   -1.7157    4.5869 N   0  0  0  0  0  0  0  0  0  0  0  0
   -0.6528   -2.2601    5.3669 H   0  0  0  0  0  0  0  0  0  0  0  0
   -0.2339   -2.1416    3.2673 C   0  0  0  0  0  0  0  0  0  0  0  0
   -0.5520   -3.1032    2.8739 H   0  0  0  0  0  0  0  0  0  0  0  0
   -0.0049   -0.0429   -1.2517 C   0  0  0  0  0  0  0  0  0  0  0  0
    0.7367    0.8866   -1.5740 O   0  0  0  0  0  0  0  0  0  0  0  0
   -0.5090   -0.9129   -2.1355 N   0  0  0  0  0  0  0  0  0  0  0  0
   -1.0988   -1.6493   -1.7788 H   0  0  0  0  0  0  0  0  0  0  0  0
   -0.2754   -0.8800   -3.5825 C   0  0  0  0  0  0  0  0  0  0  0  0
    0.4790   -1.6198   -3.8574 H   0  0  0  0  0  0  0  0  0  0  0  0
   -1.1997   -1.1118   -4.1144 H   0  0  0  0  0  0  0  0  0  0  0  0
    0.0692    0.1068   -3.8989 H   0  0  0  0  0  0  0  0  0  0  0  0
  5  6  2  0  0  0  0
  5  7  1  0  0  0  0
  2  3  1  0  0  0  0
  2  4  1  0  0  0  0
  2  5  1  0  0  0  0
  1  2  1  0  0  0  0
 23 24  2  0  0  0  0
 23 25  1  0  0  0  0
 21 22  1  0  0  0  0
 19 20  1  0  0  0  0
 19 21  1  0  0  0  0
 17 18  1  0  0  0  0
 17 19  1  0  0  0  0
 15 16  1  0  0  0  0
 15 17  2  0  0  0  0
 14 15  1  0  0  0  0
 14 21  2  0  0  0  0
 11 12  1  0  0  0  0
 11 13  1  0  0  0  0
 11 14  1  0  0  0  0
  9 10  1  0  0  0  0
  9 11  1  0  0  0  0
  9 23  1  0  0  0  0
  7  8  1  0  0  0  0
  7  9  1  0  0  0  0
 27 28  1  0  0  0  0
 27 29  1  0  0  0  0
 27 30  1  0  0  0  0
 25 26  1  0  0  0  0
 25 27  1  0  0  0  0
M  CHG  1  15   1
M  END
$$$$
default_name
  -OEChem-01062215323D

 30 30  0     1  0  0  0  0  0999 V2000
   -3.5507   -3.2183    1.8116 H   0  0  0  0  0  0  0  0  0  0  0  0
   -3.4597   -2.3913    1.1076 C   0  0  0  0  0  0  0  0  0  0  0  0
   -4.1577   -1.6043    1.3866 H   0  0  0  0  0  0  0  0  0  0  0  0
   -3.6807   -2.7523    0.1036 H   0  0  0  0  0  0  0  0  0  0  0  0
   -2.0477   -1.8543    1.1546 C   0  0  0  0  0  0  0  0  0  0  0  0
   -1.2227   -2.3443    1.9146 O   0  0  0  0  0  0  0  0  0  0  0  0
   -1.7517   -0.8483    0.3266 N   0  0  0  0  0  0  0  0  0  0  0  0
   -2.4847   -0.5123   -0.2804 H   0  0  0  0  0  0  0  0  0  0  0  0
   -0.4117   -0.2463    0.2186 C   0  0  1  0  0  0  0  0  0  0  0  0
   -0.4480    0.7483    0.6701 H   0  0  0  0  0  0  0  0  0  0  0  0
    0.5771   -1.0915    1.0548 C   0  0  0  0  0  0  0  0  0  0  0  0
    0.5598   -2.1185    0.6811 H   0  0  0  0  0  0  0  0  0  0  0  0
    1.5889   -0.7109    0.8993 H   0  0  0  0  0  0  0  0  0  0  0  0
    0.3061   -1.1126    2.5442 C   0  0  0  0  0  0  0  0  0  0  0  0
    0.5704   -0.0761    3.4185 N   0  3  0  0  0  0  0  0  0  0  0  0
    0.9209    0.8388    3.1207 H   0  0  0  0  0  0  0  0  0  0  0  0
    0.1992   -0.4585    4.6565 C   0  0  0  0  0  0  0  0  0  0  0  0
    0.2746    0.1532    5.5533 H   0  0  0  0  0  0  0  0  0  0  0  0
   -0.2939   -1.7157    4.5869 N   0  0  0  0  0  0  0  0  0  0  0  0
   -0.6528   -2.2601    5.3669 H   0  0  0  0  0  0  0  0  0  0  0  0
   -0.2339   -2.1416    3.2673 C   0  0  0  0  0  0  0  0  0  0  0  0
   -0.5520   -3.1032    2.8739 H   0  0  0  0  0  0  0  0  0  0  0  0
   -0.0049   -0.0429   -1.2517 C   0  0  0  0  0  0  0  0  0  0  0  0
    0.9359    0.6964   -1.5452 O   0  0  0  0  0  0  0  0  0  0  0  0
   -0.7318   -0.6955   -2.1671 N   0  0  0  0  0  0  0  0  0  0  0  0
   -1.4767   -1.2880   -1.8334 H   0  0  0  0  0  0  0  0  0  0  0  0
   -0.5344   -0.6159   -3.6176 C   0  0  0  0  0  0  0  0  0  0  0  0
    0.0052   -1.4967   -3.9715 H   0  0  0  0  0  0  0  0  0  0  0  0
   -1.5007   -0.5739   -4.1233 H   0  0  0  0  0  0  0  0  0  0  0  0
    0.0363    0.2760   -3.8846 H   0  0  0  0  0  0  0  0  0  0  0  0
  5  6  2  0  0  0  0
  5  7  1  0  0  0  0
  2  3  1  0  0  0  0
  2  4  1  0  0  0  0
  2  5  1  0  0  0  0
  1  2  1  0  0  0  0
 23 24  2  0  0  0  0
 23 25  1  0  0  0  0
 21 22  1  0  0  0  0
 19 20  1  0  0  0  0
 19 21  1  0  0  0  0
 17 18  1  0  0  0  0
 17 19  1  0  0  0  0
 15 16  1  0  0  0  0
 15 17  2  0  0  0  0
 14 15  1  0  0  0  0
 14 21  2  0  0  0  0
 11 12  1  0  0  0  0
 11 13  1  0  0  0  0
 11 14  1  0  0  0  0
  9 10  1  0  0  0  0
  9 11  1  0  0  0  0
  9 23  1  0  0  0  0
  7  8  1  0  0  0  0
  7  9  1  0  0  0  0
 27 28  1  0  0  0  0
 27 29  1  0  0  0  0
 27 30  1  0  0  0  0
 25 26  1  0  0  0  0
 25 27  1  0  0  0  0
M  CHG  1  15   1
M  END
$$$$
default_name
  -OEChem-01062215323D

 30 30  0     1  0  0  0  0  0999 V2000
   -3.5507   -3.2183    1.8116 H   0  0  0  0  0  0  0  0  0  0  0  0
   -3.4597   -2.3913    1.1076 C   0  0  0  0  0  0  0  0  0  0  0  0
   -4.1577   -1.6043    1.3866 H   0  0  0  0  0  0  0  0  0  0  0  0
   -3.6807   -2.7523    0.1036 H   0  0  0  0  0  0  0  0  0  0  0  0
   -2.0477   -1.8543    1.1546 C   0  0  0  0  0  0  0  0  0  0  0  0
   -1.2227   -2.3443    1.9146 O   0  0  0  0  0  0  0  0  0  0  0  0
   -1.7517   -0.8483    0.3266 N   0  0  0  0  0  0  0  0  0  0  0  0
   -2.4847   -0.5123   -0.2804 H   0  0  0  0  0  0  0  0  0  0  0  0
   -0.4117   -0.2463    0.2186 C   0  0  1  0  0  0  0  0  0  0  0  0
   -0.4480    0.7483    0.6701 H   0  0  0  0  0  0  0  0  0  0  0  0
    0.5771   -1.0915    1.0548 C   0  0  0  0  0  0  0  0  0  0  0  0
    0.5598   -2.1185    0.6811 H   0  0  0  0  0  0  0  0  0  0  0  0
    1.5889   -0.7109    0.8993 H   0  0  0  0  0  0  0  0  0  0  0  0
    0.3061   -1.1126    2.5442 C   0  0  0  0  0  0  0  0  0  0  0  0
    0.5704   -0.0761    3.4185 N   0  3  0  0  0  0  0  0  0  0  0  0
    0.9209    0.8388    3.1207 H   0  0  0  0  0  0  0  0  0  0  0  0
    0.1992   -0.4585    4.6565 C   0  0  0  0  0  0  0  0  0  0  0  0
    0.2746    0.1532    5.5533 H   0  0  0  0  0  0  0  0  0  0  0  0
   -0.2939   -1.7157    4.5869 N   0  0  0  0  0  0  0  0  0  0  0  0
   -0.6528   -2.2601    5.3669 H   0  0  0  0  0  0  0  0  0  0  0  0
   -0.2339   -2.1416    3.2673 C   0  0  0  0  0  0  0  0  0  0  0  0
   -0.5520   -3.1032    2.8739 H   0  0  0  0  0  0  0  0  0  0  0  0
   -0.0049   -0.0429   -1.2517 C   0  0  0  0  0  0  0  0  0  0  0  0
    1.0822    0.4615   -1.5372 O   0  0  0  0  0  0  0  0  0  0  0  0
   -0.8943   -0.4282   -2.1751 N   0  0  0  0  0  0  0  0  0  0  0  0
   -1.7543   -0.8418   -1.8484 H   0  0  0  0  0  0  0  0  0  0  0  0
   -0.7205   -0.2944   -3.6247 C   0  0  0  0  0  0  0  0  0  0  0  0
   -0.4259   -1.2528   -4.0570 H   0  0  0  0  0  0  0  0  0  0  0  0
   -1.6587    0.0207   -4.0847 H   0  0  0  0  0  0  0  0  0  0  0  0
    0.0469    0.4466   -3.8581 H   0  0  0  0  0  0  0  0  0  0  0  0
  5  6  2  0  0  0  0
  5  7  1  0  0  0  0
  2  3  1  0  0  0  0
  2  4  1  0  0  0  0
  2  5  1  0  0  0  0
  1  2  1  0  0  0  0
 23 24  2  0  0  0  0
 23 25  1  0  0  0  0
 21 22  1  0  0  0  0
 19 20  1  0  0  0  0
 19 21  1  0  0  0  0
 17 18  1  0  0  0  0
 17 19  1  0  0  0  0
 15 16  1  0  0  0  0
 15 17  2  0  0  0  0
 14 15  1  0  0  0  0
 14 21  2  0  0  0  0
 11 12  1  0  0  0  0
 11 13  1  0  0  0  0
 11 14  1  0  0  0  0
  9 10  1  0  0  0  0
  9 11  1  0  0  0  0
  9 23  1  0  0  0  0
  7  8  1  0  0  0  0
  7  9  1  0  0  0  0
 27 28  1  0  0  0  0
 27 29  1  0  0  0  0
 27 30  1  0  0  0  0
 25 26  1  0  0  0  0
 25 27  1  0  0  0  0
M  CHG  1  15   1
M  END
$$$$
default_name
  -OEChem-01062215323D

 30 30  0     1  0  0  0  0  0999 V2000
   -3.5507   -3.2183    1.8116 H   0  0  0  0  0  0  0  0  0  0  0  0
   -3.4597   -2.3913    1.1076 C   0  0  0  0  0  0  0  0  0  0  0  0
   -4.1577   -1.6043    1.3866 H   0  0  0  0  0  0  0  0  0  0  0  0
   -3.6807   -2.7523    0.1036 H   0  0  0  0  0  0  0  0  0  0  0  0
   -2.0477   -1.8543    1.1546 C   0  0  0  0  0  0  0  0  0  0  0  0
   -1.2227   -2.3443    1.9146 O   0  0  0  0  0  0  0  0  0  0  0  0
   -1.7517   -0.8483    0.3266 N   0  0  0  0  0  0  0  0  0  0  0  0
   -2.4847   -0.5123   -0.2804 H   0  0  0  0  0  0  0  0  0  0  0  0
   -0.4117   -0.2463    0.2186 C   0  0  1  0  0  0  0  0  0  0  0  0
   -0.4480    0.7483    0.6701 H   0  0  0  0  0  0  0  0  0  0  0  0
    0.5771   -1.0915    1.0548 C   0  0  0  0  0  0  0  0  0  0  0  0
    0.5598   -2.1185    0.6811 H   0  0  0  0  0  0  0  0  0  0  0  0
    1.5889   -0.7109    0.8993 H   0  0  0  0  0  0  0  0  0  0  0  0
    0.3061   -1.1126    2.5442 C   0  0  0  0  0  0  0  0  0  0  0  0
    0.5704   -0.0761    3.4185 N   0  3  0  0  0  0  0  0  0  0  0  0
    0.9209    0.8388    3.1207 H   0  0  0  0  0  0  0  0  0  0  0  0
    0.1992   -0.4585    4.6565 C   0  0  0  0  0  0  0  0  0  0  0  0
    0.2746    0.1532    5.5533 H   0  0  0  0  0  0  0  0  0  0  0  0
   -0.2939   -1.7157    4.5869 N   0  0  0  0  0  0  0  0  0  0  0  0
   -0.6528   -2.2601    5.3669 H   0  0  0  0  0  0  0  0  0  0  0  0
   -0.2339   -2.1416    3.2673 C   0  0  0  0  0  0  0  0  0  0  0  0
   -0.5520   -3.1032    2.8739 H   0  0  0  0  0  0  0  0  0  0  0  0
   -0.0049   -0.0429   -1.2517 C   0  0  0  0  0  0  0  0  0  0  0  0
    1.1658    0.1979   -1.5505 O   0  0  0  0  0  0  0  0  0  0  0  0
   -0.9855   -0.1294   -2.1590 N   0  0  0  0  0  0  0  0  0  0  0  0
   -1.9126   -0.3412   -1.8230 H   0  0  0  0  0  0  0  0  0  0  0  0
   -0.8211    0.0626   -3.6031 C   0  0  0  0  0  0  0  0  0  0  0  0
   -0.7849   -0.9047   -4.1082 H   0  0  0  0  0  0  0  0  0  0  0  0
   -1.6630    0.6315   -4.0014 H   0  0  0  0  0  0  0  0  0  0  0  0
    0.1002    0.6070   -3.8211 H   0  0  0  0  0  0  0  0  0  0  0  0
  5  6  2  0  0  0  0
  5  7  1  0  0  0  0
  2  3  1  0  0  0  0
  2  4  1  0  0  0  0
  2  5  1  0  0  0  0
  1  2  1  0  0  0  0
 23 24  2  0  0  0  0
 23 25  1  0  0  0  0
 21 22  1  0  0  0  0
 19 20  1  0  0  0  0
 19 21  1  0  0  0  0
 17 18  1  0  0  0  0
 17 19  1  0  0  0  0
 15 16  1  0  0  0  0
 15 17  2  0  0  0  0
 14 15  1  0  0  0  0
 14 21  2  0  0  0  0
 11 12  1  0  0  0  0
 11 13  1  0  0  0  0
 11 14  1  0  0  0  0
  9 10  1  0  0  0  0
  9 11  1  0  0  0  0
  9 23  1  0  0  0  0
  7  8  1  0  0  0  0
  7  9  1  0  0  0  0
 27 28  1  0  0  0  0
 27 29  1  0  0  0  0
 27 30  1  0  0  0  0
 25 26  1  0  0  0  0
 25 27  1  0  0  0  0
M  CHG  1  15   1
M  END
$$$$
default_name
  -OEChem-01062215323D

 30 30  0     1  0  0  0  0  0999 V2000
   -3.5507   -3.2183    1.8116 H   0  0  0  0  0  0  0  0  0  0  0  0
   -3.4597   -2.3913    1.1076 C   0  0  0  0  0  0  0  0  0  0  0  0
   -4.1577   -1.6043    1.3866 H   0  0  0  0  0  0  0  0  0  0  0  0
   -3.6807   -2.7523    0.1036 H   0  0  0  0  0  0  0  0  0  0  0  0
   -2.0477   -1.8543    1.1546 C   0  0  0  0  0  0  0  0  0  0  0  0
   -1.2227   -2.3443    1.9146 O   0  0  0  0  0  0  0  0  0  0  0  0
   -1.7517   -0.8483    0.3266 N   0  0  0  0  0  0  0  0  0  0  0  0
   -2.4847   -0.5123   -0.2804 H   0  0  0  0  0  0  0  0  0  0  0  0
   -0.4117   -0.2463    0.2186 C   0  0  1  0  0  0  0  0  0  0  0  0
   -0.4480    0.7483    0.6701 H   0  0  0  0  0  0  0  0  0  0  0  0
    0.5771   -1.0915    1.0548 C   0  0  0  0  0  0  0  0  0  0  0  0
    0.5598   -2.1185    0.6811 H   0  0  0  0  0  0  0  0  0  0  0  0
    1.5889   -0.7109    0.8993 H   0  0  0  0  0  0  0  0  0  0  0  0
    0.3061   -1.1126    2.5442 C   0  0  0  0  0  0  0  0  0  0  0  0
    0.5704   -0.0761    3.4185 N   0  3  0  0  0  0  0  0  0  0  0  0
    0.9209    0.8388    3.1207 H   0  0  0  0  0  0  0  0  0  0  0  0
    0.1992   -0.4585    4.6565 C   0  0  0  0  0  0  0  0  0  0  0  0
    0.2746    0.1532    5.5533 H   0  0  0  0  0  0  0  0  0  0  0  0
   -0.2939   -1.7157    4.5869 N   0  0  0  0  0  0  0  0  0  0  0  0
   -0.6528   -2.2601    5.3669 H   0  0  0  0  0  0  0  0  0  0  0  0
   -0.2339   -2.1416    3.2673 C   0  0  0  0  0  0  0  0  0  0  0  0
   -0.5520   -3.1032    2.8739 H   0  0  0  0  0  0  0  0  0  0  0  0
   -0.0049   -0.0429   -1.2517 C   0  0  0  0  0  0  0  0  0  0  0  0
    1.1809   -0.0766   -1.5843 O   0  0  0  0  0  0  0  0  0  0  0  0
   -0.9991    0.1808   -2.1198 N   0  0  0  0  0  0  0  0  0  0  0  0
   -1.9409    0.1797   -1.7588 H   0  0  0  0  0  0  0  0  0  0  0  0
   -0.8291    0.4309   -3.5544 C   0  0  0  0  0  0  0  0  0  0  0  0
   -1.0474   -0.4762   -4.1215 H   0  0  0  0  0  0  0  0  0  0  0  0
   -1.5132    1.2169   -3.8791 H   0  0  0  0  0  0  0  0  0  0  0  0
    0.1926    0.7462   -3.7763 H   0  0  0  0  0  0  0  0  0  0  0  0
  5  6  2  0  0  0  0
  5  7  1  0  0  0  0
  2  3  1  0  0  0  0
  2  4  1  0  0  0  0
  2  5  1  0  0  0  0
  1  2  1  0  0  0  0
 23 24  2  0  0  0  0
 23 25  1  0  0  0  0
 21 22  1  0  0  0  0
 19 20  1  0  0  0  0
 19 21  1  0  0  0  0
 17 18  1  0  0  0  0
 17 19  1  0  0  0  0
 15 16  1  0  0  0  0
 15 17  2  0  0  0  0
 14 15  1  0  0  0  0
 14 21  2  0  0  0  0
 11 12  1  0  0  0  0
 11 13  1  0  0  0  0
 11 14  1  0  0  0  0
  9 10  1  0  0  0  0
  9 11  1  0  0  0  0
  9 23  1  0  0  0  0
  7  8  1  0  0  0  0
  7  9  1  0  0  0  0
 27 28  1  0  0  0  0
 27 29  1  0  0  0  0
 27 30  1  0  0  0  0
 25 26  1  0  0  0  0
 25 27  1  0  0  0  0
M  CHG  1  15   1
M  END
$$$$
default_name
  -OEChem-01062215323D

 30 30  0     1  0  0  0  0  0999 V2000
   -3.5507   -3.2183    1.8116 H   0  0  0  0  0  0  0  0  0  0  0  0
   -3.4597   -2.3913    1.1076 C   0  0  0  0  0  0  0  0  0  0  0  0
   -4.1577   -1.6043    1.3866 H   0  0  0  0  0  0  0  0  0  0  0  0
   -3.6807   -2.7523    0.1036 H   0  0  0  0  0  0  0  0  0  0  0  0
   -2.0477   -1.8543    1.1546 C   0  0  0  0  0  0  0  0  0  0  0  0
   -1.2227   -2.3443    1.9146 O   0  0  0  0  0  0  0  0  0  0  0  0
   -1.7517   -0.8483    0.3266 N   0  0  0  0  0  0  0  0  0  0  0  0
   -2.4847   -0.5123   -0.2804 H   0  0  0  0  0  0  0  0  0  0  0  0
   -0.4117   -0.2463    0.2186 C   0  0  1  0  0  0  0  0  0  0  0  0
   -0.4480    0.7483    0.6701 H   0  0  0  0  0  0  0  0  0  0  0  0
    0.5771   -1.0915    1.0548 C   0  0  0  0  0  0  0  0  0  0  0  0
    0.5598   -2.1185    0.6811 H   0  0  0  0  0  0  0  0  0  0  0  0
    1.5889   -0.7109    0.8993 H   0  0  0  0  0  0  0  0  0  0  0  0
    0.3061   -1.1126    2.5442 C   0  0  0  0  0  0  0  0  0  0  0  0
    0.5704   -0.0761    3.4185 N   0  3  0  0  0  0  0  0  0  0  0  0
    0.9209    0.8388    3.1207 H   0  0  0  0  0  0  0  0  0  0  0  0
    0.1992   -0.4585    4.6565 C   0  0  0  0  0  0  0  0  0  0  0  0
    0.2746    0.1532    5.5533 H   0  0  0  0  0  0  0  0  0  0  0  0
   -0.2939   -1.7157    4.5869 N   0  0  0  0  0  0  0  0  0  0  0  0
   -0.6528   -2.2601    5.3669 H   0  0  0  0  0  0  0  0  0  0  0  0
   -0.2339   -2.1416    3.2673 C   0  0  0  0  0  0  0  0  0  0  0  0
   -0.5520   -3.1032    2.8739 H   0  0  0  0  0  0  0  0  0  0  0  0
   -0.0049   -0.0429   -1.2517 C   0  0  0  0  0  0  0  0  0  0  0  0
    1.1264   -0.3430   -1.6362 O   0  0  0  0  0  0  0  0  0  0  0  0
   -0.9342    0.4811   -2.0604 N   0  0  0  0  0  0  0  0  0  0  0  0
   -1.8372    0.6855   -1.6602 H   0  0  0  0  0  0  0  0  0  0  0  0
   -0.7442    0.7853   -3.4819 C   0  0  0  0  0  0  0  0  0  0  0  0
   -1.1955    0.0035   -4.0962 H   0  0  0  0  0  0  0  0  0  0  0  0
   -1.2196    1.7369   -3.7259 H   0  0  0  0  0  0  0  0  0  0  0  0
    0.3178    0.8547   -3.7267 H   0  0  0  0  0  0  0  0  0  0  0  0
  5  6  2  0  0  0  0
  5  7  1  0  0  0  0
  2  3  1  0  0  0  0
  2  4  1  0  0  0  0
  2  5  1  0  0  0  0
  1  2  1  0  0  0  0
 23 24  2  0  0  0  0
 23 25  1  0  0  0  0
 21 22  1  0  0  0  0
 19 20  1  0  0  0  0
 19 21  1  0  0  0  0
 17 18  1  0  0  0  0
 17 19  1  0  0  0  0
 15 16  1  0  0  0  0
 15 17  2  0  0  0  0
 14 15  1  0  0  0  0
 14 21  2  0  0  0  0
 11 12  1  0  0  0  0
 11 13  1  0  0  0  0
 11 14  1  0  0  0  0
  9 10  1  0  0  0  0
  9 11  1  0  0  0  0
  9 23  1  0  0  0  0
  7  8  1  0  0  0  0
  7  9  1  0  0  0  0
 27 28  1  0  0  0  0
 27 29  1  0  0  0  0
 27 30  1  0  0  0  0
 25 26  1  0  0  0  0
 25 27  1  0  0  0  0
M  CHG  1  15   1
M  END
$$$$
default_name
  -OEChem-01062215323D

 30 30  0     1  0  0  0  0  0999 V2000
   -3.5507   -3.2183    1.8116 H   0  0  0  0  0  0  0  0  0  0  0  0
   -3.4597   -2.3913    1.1076 C   0  0  0  0  0  0  0  0  0  0  0  0
   -4.1577   -1.6043    1.3866 H   0  0  0  0  0  0  0  0  0  0  0  0
   -3.6807   -2.7523    0.1036 H   0  0  0  0  0  0  0  0  0  0  0  0
   -2.0477   -1.8543    1.1546 C   0  0  0  0  0  0  0  0  0  0  0  0
   -1.2227   -2.3443    1.9146 O   0  0  0  0  0  0  0  0  0  0  0  0
   -1.7517   -0.8483    0.3266 N   0  0  0  0  0  0  0  0  0  0  0  0
   -2.4847   -0.5123   -0.2804 H   0  0  0  0  0  0  0  0  0  0  0  0
   -0.4117   -0.2463    0.2186 C   0  0  1  0  0  0  0  0  0  0  0  0
   -0.4480    0.7483    0.6701 H   0  0  0  0  0  0  0  0  0  0  0  0
    0.5771   -1.0915    1.0548 C   0  0  0  0  0  0  0  0  0  0  0  0
    0.5598   -2.1185    0.6811 H   0  0  0  0  0  0  0  0  0  0  0  0
    1.5889   -0.7109    0.8993 H   0  0  0  0  0  0  0  0  0  0  0  0
    0.3061   -1.1126    2.5442 C   0  0  0  0  0  0  0  0  0  0  0  0
    0.5704   -0.0761    3.4185 N   0  3  0  0  0  0  0  0  0  0  0  0
    0.9209    0.8388    3.1207 H   0  0  0  0  0  0  0  0  0  0  0  0
    0.1992   -0.4585    4.6565 C   0  0  0  0  0  0  0  0  0  0  0  0
    0.2746    0.1532    5.5533 H   0  0  0  0  0  0  0  0  0  0  0  0
   -0.2939   -1.7157    4.5869 N   0  0  0  0  0  0  0  0  0  0  0  0
   -0.6528   -2.2601    5.3669 H   0  0  0  0  0  0  0  0  0  0  0  0
   -0.2339   -2.1416    3.2673 C   0  0  0  0  0  0  0  0  0  0  0  0
   -0.5520   -3.1032    2.8739 H   0  0  0  0  0  0  0  0  0  0  0  0
   -0.0049   -0.0429   -1.2517 C   0  0  0  0  0  0  0  0  0  0  0  0
    1.0062   -0.5834   -1.7027 O   0  0  0  0  0  0  0  0  0  0  0  0
   -0.7952    0.7510   -1.9846 N   0  0  0  0  0  0  0  0  0  0  0  0
   -1.6086    1.1417   -1.5338 H   0  0  0  0  0  0  0  0  0  0  0  0
   -0.5721    1.1016   -3.3905 C   0  0  0  0  0  0  0  0  0  0  0  0
   -1.2190    0.5017   -4.0338 H   0  0  0  0  0  0  0  0  0  0  0  0
   -0.8023    2.1561   -3.5525 H   0  0  0  0  0  0  0  0  0  0  0  0
    0.4672    0.9252   -3.6756 H   0  0  0  0  0  0  0  0  0  0  0  0
  5  6  2  0  0  0  0
  5  7  1  0  0  0  0
  2  3  1  0  0  0  0
  2  4  1  0  0  0  0
  2  5  1  0  0  0  0
  1  2  1  0  0  0  0
 23 24  2  0  0  0  0
 23 25  1  0  0  0  0
 21 22  1  0  0  0  0
 19 20  1  0  0  0  0
 19 21  1  0  0  0  0
 17 18  1  0  0  0  0
 17 19  1  0  0  0  0
 15 16  1  0  0  0  0
 15 17  2  0  0  0  0
 14 15  1  0  0  0  0
 14 21  2  0  0  0  0
 11 12  1  0  0  0  0
 11 13  1  0  0  0  0
 11 14  1  0  0  0  0
  9 10  1  0  0  0  0
  9 11  1  0  0  0  0
  9 23  1  0  0  0  0
  7  8  1  0  0  0  0
  7  9  1  0  0  0  0
 27 28  1  0  0  0  0
 27 29  1  0  0  0  0
 27 30  1  0  0  0  0
 25 26  1  0  0  0  0
 25 27  1  0  0  0  0
M  CHG  1  15   1
M  END
$$$$
default_name
  -OEChem-01062215323D

 30 30  0     1  0  0  0  0  0999 V2000
   -3.5507   -3.2183    1.8116 H   0  0  0  0  0  0  0  0  0  0  0  0
   -3.4597   -2.3913    1.1076 C   0  0  0  0  0  0  0  0  0  0  0  0
   -4.1577   -1.6043    1.3866 H   0  0  0  0  0  0  0  0  0  0  0  0
   -3.6807   -2.7523    0.1036 H   0  0  0  0  0  0  0  0  0  0  0  0
   -2.0477   -1.8543    1.1546 C   0  0  0  0  0  0  0  0  0  0  0  0
   -1.2227   -2.3443    1.9146 O   0  0  0  0  0  0  0  0  0  0  0  0
   -1.7517   -0.8483    0.3266 N   0  0  0  0  0  0  0  0  0  0  0  0
   -2.4847   -0.5123   -0.2804 H   0  0  0  0  0  0  0  0  0  0  0  0
   -0.4117   -0.2463    0.2186 C   0  0  1  0  0  0  0  0  0  0  0  0
   -0.4480    0.7483    0.6701 H   0  0  0  0  0  0  0  0  0  0  0  0
    0.5771   -1.0915    1.0548 C   0  0  0  0  0  0  0  0  0  0  0  0
    0.5598   -2.1185    0.6811 H   0  0  0  0  0  0  0  0  0  0  0  0
    1.5889   -0.7109    0.8993 H   0  0  0  0  0  0  0  0  0  0  0  0
    0.3061   -1.1126    2.5442 C   0  0  0  0  0  0  0  0  0  0  0  0
    0.5704   -0.0761    3.4185 N   0  3  0  0  0  0  0  0  0  0  0  0
    0.9209    0.8388    3.1207 H   0  0  0  0  0  0  0  0  0  0  0  0
    0.1992   -0.4585    4.6565 C   0  0  0  0  0  0  0  0  0  0  0  0
    0.2746    0.1532    5.5533 H   0  0  0  0  0  0  0  0  0  0  0  0
   -0.2939   -1.7157    4.5869 N   0  0  0  0  0  0  0  0  0  0  0  0
   -0.6528   -2.2601    5.3669 H   0  0  0  0  0  0  0  0  0  0  0  0
   -0.2339   -2.1416    3.2673 C   0  0  0  0  0  0  0  0  0  0  0  0
   -0.5520   -3.1032    2.8739 H   0  0  0  0  0  0  0  0  0  0  0  0
   -0.0049   -0.0429   -1.2517 C   0  0  0  0  0  0  0  0  0  0  0  0
    0.8283   -0.7813   -1.7793 O   0  0  0  0  0  0  0  0  0  0  0  0
   -0.5917    0.9722   -1.8977 N   0  0  0  0  0  0  0  0  0  0  0  0
   -1.2706    1.5172   -1.3884 H   0  0  0  0  0  0  0  0  0  0  0  0
   -0.3245    1.3584   -3.2865 C   0  0  0  0  0  0  0  0  0  0  0  0
   -1.1164    0.9845   -3.9386 H   0  0  0  0  0  0  0  0  0  0  0  0
   -0.2895    2.4460   -3.3706 H   0  0  0  0  0  0  0  0  0  0  0  0
    0.6308    0.9529   -3.6265 H   0  0  0  0  0  0  0  0  0  0  0  0
  5  6  2  0  0  0  0
  5  7  1  0  0  0  0
  2  3  1  0  0  0  0
  2  4  1  0  0  0  0
  2  5  1  0  0  0  0
  1  2  1  0  0  0  0
 23 24  2  0  0  0  0
 23 25  1  0  0  0  0
 21 22  1  0  0  0  0
 19 20  1  0  0  0  0
 19 21  1  0  0  0  0
 17 18  1  0  0  0  0
 17 19  1  0  0  0  0
 15 16  1  0  0  0  0
 15 17  2  0  0  0  0
 14 15  1  0  0  0  0
 14 21  2  0  0  0  0
 11 12  1  0  0  0  0
 11 13  1  0  0  0  0
 11 14  1  0  0  0  0
  9 10  1  0  0  0  0
  9 11  1  0  0  0  0
  9 23  1  0  0  0  0
  7  8  1  0  0  0  0
  7  9  1  0  0  0  0
 27 28  1  0  0  0  0
 27 29  1  0  0  0  0
 27 30  1  0  0  0  0
 25 26  1  0  0  0  0
 25 27  1  0  0  0  0
M  CHG  1  15   1
M  END
$$$$
default_name
  -OEChem-01062215323D

 30 30  0     1  0  0  0  0  0999 V2000
   -3.5507   -3.2183    1.8116 H   0  0  0  0  0  0  0  0  0  0  0  0
   -3.4597   -2.3913    1.1076 C   0  0  0  0  0  0  0  0  0  0  0  0
   -4.1577   -1.6043    1.3866 H   0  0  0  0  0  0  0  0  0  0  0  0
   -3.6807   -2.7523    0.1036 H   0  0  0  0  0  0  0  0  0  0  0  0
   -2.0477   -1.8543    1.1546 C   0  0  0  0  0  0  0  0  0  0  0  0
   -1.2227   -2.3443    1.9146 O   0  0  0  0  0  0  0  0  0  0  0  0
   -1.7517   -0.8483    0.3266 N   0  0  0  0  0  0  0  0  0  0  0  0
   -2.4847   -0.5123   -0.2804 H   0  0  0  0  0  0  0  0  0  0  0  0
   -0.4117   -0.2463    0.2186 C   0  0  1  0  0  0  0  0  0  0  0  0
   -0.4480    0.7483    0.6701 H   0  0  0  0  0  0  0  0  0  0  0  0
    0.5771   -1.0915    1.0548 C   0  0  0  0  0  0  0  0  0  0  0  0
    0.5598   -2.1185    0.6811 H   0  0  0  0  0  0  0  0  0  0  0  0
    1.5889   -0.7109    0.8993 H   0  0  0  0  0  0  0  0  0  0  0  0
    0.3061   -1.1126    2.5442 C   0  0  0  0  0  0  0  0  0  0  0  0
    0.5704   -0.0761    3.4185 N   0  3  0  0  0  0  0  0  0  0  0  0
    0.9209    0.8388    3.1207 H   0  0  0  0  0  0  0  0  0  0  0  0
    0.1992   -0.4585    4.6565 C   0  0  0  0  0  0  0  0  0  0  0  0
    0.2746    0.1532    5.5533 H   0  0  0  0  0  0  0  0  0  0  0  0
   -0.2939   -1.7157    4.5869 N   0  0  0  0  0  0  0  0  0  0  0  0
   -0.6528   -2.2601    5.3669 H   0  0  0  0  0  0  0  0  0  0  0  0
   -0.2339   -2.1416    3.2673 C   0  0  0  0  0  0  0  0  0  0  0  0
   -0.5520   -3.1032    2.8739 H   0  0  0  0  0  0  0  0  0  0  0  0
   -0.0049   -0.0429   -1.2517 C   0  0  0  0  0  0  0  0  0  0  0  0
    0.6049   -0.9233   -1.8607 O   0  0  0  0  0  0  0  0  0  0  0  0
   -0.3374    1.1296   -1.8056 N   0  0  0  0  0  0  0  0  0  0  0  0
   -0.8464    1.7864   -1.2338 H   0  0  0  0  0  0  0  0  0  0  0  0
   -0.0183    1.5380   -3.1770 C   0  0  0  0  0  0  0  0  0  0  0  0
   -0.8946    1.4190   -3.8172 H   0  0  0  0  0  0  0  0  0  0  0  0
    0.2837    2.5867   -3.1925 H   0  0  0  0  0  0  0  0  0  0  0  0
    0.7973    0.9358   -3.5828 H   0  0  0  0  0  0  0  0  0  0  0  0
  5  6  2  0  0  0  0
  5  7  1  0  0  0  0
  2  3  1  0  0  0  0
  2  4  1  0  0  0  0
  2  5  1  0  0  0  0
  1  2  1  0  0  0  0
 23 24  2  0  0  0  0
 23 25  1  0  0  0  0
 21 22  1  0  0  0  0
 19 20  1  0  0  0  0
 19 21  1  0  0  0  0
 17 18  1  0  0  0  0
 17 19  1  0  0  0  0
 15 16  1  0  0  0  0
 15 17  2  0  0  0  0
 14 15  1  0  0  0  0
 14 21  2  0  0  0  0
 11 12  1  0  0  0  0
 11 13  1  0  0  0  0
 11 14  1  0  0  0  0
  9 10  1  0  0  0  0
  9 11  1  0  0  0  0
  9 23  1  0  0  0  0
  7  8  1  0  0  0  0
  7  9  1  0  0  0  0
 27 28  1  0  0  0  0
 27 29  1  0  0  0  0
 27 30  1  0  0  0  0
 25 26  1  0  0  0  0
 25 27  1  0  0  0  0
M  CHG  1  15   1
M  END
$$$$
default_name
  -OEChem-01062215323D

 30 30  0     1  0  0  0  0  0999 V2000
   -3.5507   -3.2183    1.8116 H   0  0  0  0  0  0  0  0  0  0  0  0
   -3.4597   -2.3913    1.1076 C   0  0  0  0  0  0  0  0  0  0  0  0
   -4.1577   -1.6043    1.3866 H   0  0  0  0  0  0  0  0  0  0  0  0
   -3.6807   -2.7523    0.1036 H   0  0  0  0  0  0  0  0  0  0  0  0
   -2.0477   -1.8543    1.1546 C   0  0  0  0  0  0  0  0  0  0  0  0
   -1.2227   -2.3443    1.9146 O   0  0  0  0  0  0  0  0  0  0  0  0
   -1.7517   -0.8483    0.3266 N   0  0  0  0  0  0  0  0  0  0  0  0
   -2.4847   -0.5123   -0.2804 H   0  0  0  0  0  0  0  0  0  0  0  0
   -0.4117   -0.2463    0.2186 C   0  0  1  0  0  0  0  0  0  0  0  0
   -0.4480    0.7483    0.6701 H   0  0  0  0  0  0  0  0  0  0  0  0
    0.5771   -1.0915    1.0548 C   0  0  0  0  0  0  0  0  0  0  0  0
    0.5598   -2.1185    0.6811 H   0  0  0  0  0  0  0  0  0  0  0  0
    1.5889   -0.7109    0.8993 H   0  0  0  0  0  0  0  0  0  0  0  0
    0.3061   -1.1126    2.5442 C   0  0  0  0  0  0  0  0  0  0  0  0
    0.5704   -0.0761    3.4185 N   0  3  0  0  0  0  0  0  0  0  0  0
    0.9209    0.8388    3.1207 H   0  0  0  0  0  0  0  0  0  0  0  0
    0.1992   -0.4585    4.6565 C   0  0  0  0  0  0  0  0  0  0  0  0
    0.2746    0.1532    5.5533 H   0  0  0  0  0  0  0  0  0  0  0  0
   -0.2939   -1.7157    4.5869 N   0  0  0  0  0  0  0  0  0  0  0  0
   -0.6528   -2.2601    5.3669 H   0  0  0  0  0  0  0  0  0  0  0  0
   -0.2339   -2.1416    3.2673 C   0  0  0  0  0  0  0  0  0  0  0  0
   -0.5520   -3.1032    2.8739 H   0  0  0  0  0  0  0  0  0  0  0  0
   -0.0049   -0.0429   -1.2517 C   0  0  0  0  0  0  0  0  0  0  0  0
    0.3513   -0.9996   -1.9414 O   0  0  0  0  0  0  0  0  0  0  0  0
   -0.0498    1.2124   -1.7146 N   0  0  0  0  0  0  0  0  0  0  0  0
   -0.3648    1.9309   -1.0806 H   0  0  0  0  0  0  0  0  0  0  0  0
    0.3257    1.6284   -3.0693 C   0  0  0  0  0  0  0  0  0  0  0  0
   -0.5689    1.7755   -3.6778 H   0  0  0  0  0  0  0  0  0  0  0  0
    0.8782    2.5688   -3.0305 H   0  0  0  0  0  0  0  0  0  0  0  0
    0.9554    0.8751   -3.5475 H   0  0  0  0  0  0  0  0  0  0  0  0
  5  6  2  0  0  0  0
  5  7  1  0  0  0  0
  2  3  1  0  0  0  0
  2  4  1  0  0  0  0
  2  5  1  0  0  0  0
  1  2  1  0  0  0  0
 23 24  2  0  0  0  0
 23 25  1  0  0  0  0
 21 22  1  0  0  0  0
 19 20  1  0  0  0  0
 19 21  1  0  0  0  0
 17 18  1  0  0  0  0
 17 19  1  0  0  0  0
 15 16  1  0  0  0  0
 15 17  2  0  0  0  0
 14 15  1  0  0  0  0
 14 21  2  0  0  0  0
 11 12  1  0  0  0  0
 11 13  1  0  0  0  0
 11 14  1  0  0  0  0
  9 10  1  0  0  0  0
  9 11  1  0  0  0  0
  9 23  1  0  0  0  0
  7  8  1  0  0  0  0
  7  9  1  0  0  0  0
 27 28  1  0  0  0  0
 27 29  1  0  0  0  0
 27 30  1  0  0  0  0
 25 26  1  0  0  0  0
 25 27  1  0  0  0  0
M  CHG  1  15   1
M  END
$$$$
default_name
  -OEChem-01062215323D

 30 30  0     1  0  0  0  0  0999 V2000
   -3.5507   -3.2183    1.8116 H   0  0  0  0  0  0  0  0  0  0  0  0
   -3.4597   -2.3913    1.1076 C   0  0  0  0  0  0  0  0  0  0  0  0
   -4.1577   -1.6043    1.3866 H   0  0  0  0  0  0  0  0  0  0  0  0
   -3.6807   -2.7523    0.1036 H   0  0  0  0  0  0  0  0  0  0  0  0
   -2.0477   -1.8543    1.1546 C   0  0  0  0  0  0  0  0  0  0  0  0
   -1.2227   -2.3443    1.9146 O   0  0  0  0  0  0  0  0  0  0  0  0
   -1.7517   -0.8483    0.3266 N   0  0  0  0  0  0  0  0  0  0  0  0
   -2.4847   -0.5123   -0.2804 H   0  0  0  0  0  0  0  0  0  0  0  0
   -0.4117   -0.2463    0.2186 C   0  0  1  0  0  0  0  0  0  0  0  0
   -0.4480    0.7483    0.6701 H   0  0  0  0  0  0  0  0  0  0  0  0
    0.5771   -1.0915    1.0548 C   0  0  0  0  0  0  0  0  0  0  0  0
    0.5598   -2.1185    0.6811 H   0  0  0  0  0  0  0  0  0  0  0  0
    1.5889   -0.7109    0.8993 H   0  0  0  0  0  0  0  0  0  0  0  0
    0.3061   -1.1126    2.5442 C   0  0  0  0  0  0  0  0  0  0  0  0
    0.5704   -0.0761    3.4185 N   0  3  0  0  0  0  0  0  0  0  0  0
    0.9209    0.8388    3.1207 H   0  0  0  0  0  0  0  0  0  0  0  0
    0.1992   -0.4585    4.6565 C   0  0  0  0  0  0  0  0  0  0  0  0
    0.2746    0.1532    5.5533 H   0  0  0  0  0  0  0  0  0  0  0  0
   -0.2939   -1.7157    4.5869 N   0  0  0  0  0  0  0  0  0  0  0  0
   -0.6528   -2.2601    5.3669 H   0  0  0  0  0  0  0  0  0  0  0  0
   -0.2339   -2.1416    3.2673 C   0  0  0  0  0  0  0  0  0  0  0  0
   -0.5520   -3.1032    2.8739 H   0  0  0  0  0  0  0  0  0  0  0  0
   -0.0049   -0.0429   -1.2517 C   0  0  0  0  0  0  0  0  0  0  0  0
    0.0847   -1.0051   -2.0160 O   0  0  0  0  0  0  0  0  0  0  0  0
    0.2517    1.2151   -1.6308 N   0  0  0  0  0  0  0  0  0  0  0  0
    0.1414    1.9409   -0.9392 H   0  0  0  0  0  0  0  0  0  0  0  0
    0.6839    1.6232   -2.9709 C   0  0  0  0  0  0  0  0  0  0  0  0
   -0.1613    2.0298   -3.5298 H   0  0  0  0  0  0  0  0  0  0  0  0
    1.4536    2.3934   -2.8956 H   0  0  0  0  0  0  0  0  0  0  0  0
    1.0943    0.7750   -3.5229 H   0  0  0  0  0  0  0  0  0  0  0  0
  5  6  2  0  0  0  0
  5  7  1  0  0  0  0
  2  3  1  0  0  0  0
  2  4  1  0  0  0  0
  2  5  1  0  0  0  0
  1  2  1  0  0  0  0
 23 24  2  0  0  0  0
 23 25  1  0  0  0  0
 21 22  1  0  0  0  0
 19 20  1  0  0  0  0
 19 21  1  0  0  0  0
 17 18  1  0  0  0  0
 17 19  1  0  0  0  0
 15 16  1  0  0  0  0
 15 17  2  0  0  0  0
 14 15  1  0  0  0  0
 14 21  2  0  0  0  0
 11 12  1  0  0  0  0
 11 13  1  0  0  0  0
 11 14  1  0  0  0  0
  9 10  1  0  0  0  0
  9 11  1  0  0  0  0
  9 23  1  0  0  0  0
  7  8  1  0  0  0  0
  7  9  1  0  0  0  0
 27 28  1  0  0  0  0
 27 29  1  0  0  0  0
 27 30  1  0  0  0  0
 25 26  1  0  0  0  0
 25 27  1  0  0  0  0
M  CHG  1  15   1
M  END
$$$$
default_name
  -OEChem-01062215323D

 30 30  0     1  0  0  0  0  0999 V2000
   -3.5507   -3.2183    1.8116 H   0  0  0  0  0  0  0  0  0  0  0  0
   -3.4597   -2.3913    1.1076 C   0  0  0  0  0  0  0  0  0  0  0  0
   -4.1577   -1.6043    1.3866 H   0  0  0  0  0  0  0  0  0  0  0  0
   -3.6807   -2.7523    0.1036 H   0  0  0  0  0  0  0  0  0  0  0  0
   -2.0477   -1.8543    1.1546 C   0  0  0  0  0  0  0  0  0  0  0  0
   -1.2227   -2.3443    1.9146 O   0  0  0  0  0  0  0  0  0  0  0  0
   -1.7517   -0.8483    0.3266 N   0  0  0  0  0  0  0  0  0  0  0  0
   -2.4847   -0.5123   -0.2804 H   0  0  0  0  0  0  0  0  0  0  0  0
   -0.4117   -0.2463    0.2186 C   0  0  1  0  0  0  0  0  0  0  0  0
   -0.4480    0.7483    0.6701 H   0  0  0  0  0  0  0  0  0  0  0  0
    0.5771   -1.0915    1.0548 C   0  0  0  0  0  0  0  0  0  0  0  0
    0.5598   -2.1185    0.6811 H   0  0  0  0  0  0  0  0  0  0  0  0
    1.5889   -0.7109    0.8993 H   0  0  0  0  0  0  0  0  0  0  0  0
    0.3061   -1.1126    2.5442 C   0  0  0  0  0  0  0  0  0  0  0  0
    0.5704   -0.0761    3.4185 N   0  3  0  0  0  0  0  0  0  0  0  0
    0.9209    0.8388    3.1207 H   0  0  0  0  0  0  0  0  0  0  0  0
    0.1992   -0.4585    4.6565 C   0  0  0  0  0  0  0  0  0  0  0  0
    0.2746    0.1532    5.5533 H   0  0  0  0  0  0  0  0  0  0  0  0
   -0.2939   -1.7157    4.5869 N   0  0  0  0  0  0  0  0  0  0  0  0
   -0.6528   -2.2601    5.3669 H   0  0  0  0  0  0  0  0  0  0  0  0
   -0.2339   -2.1416    3.2673 C   0  0  0  0  0  0  0  0  0  0  0  0
   -0.5520   -3.1032    2.8739 H   0  0  0  0  0  0  0  0  0  0  0  0
   -0.0049   -0.0429   -1.2517 C   0  0  0  0  0  0  0  0  0  0  0  0
   -0.1768   -0.9393   -2.0792 O   0  0  0  0  0  0  0  0  0  0  0  0
    0.5464    1.1374   -1.5600 N   0  0  0  0  0  0  0  0  0  0  0  0
    0.6377    1.8158   -0.8192 H   0  0  0  0  0  0  0  0  0  0  0  0
    1.0321    1.5229   -2.8885 C   0  0  0  0  0  0  0  0  0  0  0  0
    0.3003    2.1645   -3.3835 H   0  0  0  0  0  0  0  0  0  0  0  0
    1.9706    2.0724   -2.7970 H   0  0  0  0  0  0  0  0  0  0  0  0
    1.2045    0.6423   -3.5107 H   0  0  0  0  0  0  0  0  0  0  0  0
  5  6  2  0  0  0  0
  5  7  1  0  0  0  0
  2  3  1  0  0  0  0
  2  4  1  0  0  0  0
  2  5  1  0  0  0  0
  1  2  1  0  0  0  0
 23 24  2  0  0  0  0
 23 25  1  0  0  0  0
 21 22  1  0  0  0  0
 19 20  1  0  0  0  0
 19 21  1  0  0  0  0
 17 18  1  0  0  0  0
 17 19  1  0  0  0  0
 15 16  1  0  0  0  0
 15 17  2  0  0  0  0
 14 15  1  0  0  0  0
 14 21  2  0  0  0  0
 11 12  1  0  0  0  0
 11 13  1  0  0  0  0
 11 14  1  0  0  0  0
  9 10  1  0  0  0  0
  9 11  1  0  0  0  0
  9 23  1  0  0  0  0
  7  8  1  0  0  0  0
  7  9  1  0  0  0  0
 27 28  1  0  0  0  0
 27 29  1  0  0  0  0
 27 30  1  0  0  0  0
 25 26  1  0  0  0  0
 25 27  1  0  0  0  0
M  CHG  1  15   1
M  END
$$$$
default_name
  -OEChem-01062215323D

 30 30  0     1  0  0  0  0  0999 V2000
   -3.5507   -3.2183    1.8116 H   0  0  0  0  0  0  0  0  0  0  0  0
   -3.4597   -2.3913    1.1076 C   0  0  0  0  0  0  0  0  0  0  0  0
   -4.1577   -1.6043    1.3866 H   0  0  0  0  0  0  0  0  0  0  0  0
   -3.6807   -2.7523    0.1036 H   0  0  0  0  0  0  0  0  0  0  0  0
   -2.0477   -1.8543    1.1546 C   0  0  0  0  0  0  0  0  0  0  0  0
   -1.2227   -2.3443    1.9146 O   0  0  0  0  0  0  0  0  0  0  0  0
   -1.7517   -0.8483    0.3266 N   0  0  0  0  0  0  0  0  0  0  0  0
   -2.4847   -0.5123   -0.2804 H   0  0  0  0  0  0  0  0  0  0  0  0
   -0.4117   -0.2463    0.2186 C   0  0  1  0  0  0  0  0  0  0  0  0
   -0.4480    0.7483    0.6701 H   0  0  0  0  0  0  0  0  0  0  0  0
    0.5771   -1.0915    1.0548 C   0  0  0  0  0  0  0  0  0  0  0  0
    0.5598   -2.1185    0.6811 H   0  0  0  0  0  0  0  0  0  0  0  0
    1.5889   -0.7109    0.8993 H   0  0  0  0  0  0  0  0  0  0  0  0
    0.3061   -1.1126    2.5442 C   0  0  0  0  0  0  0  0  0  0  0  0
    0.5704   -0.0761    3.4185 N   0  3  0  0  0  0  0  0  0  0  0  0
    0.9209    0.8388    3.1207 H   0  0  0  0  0  0  0  0  0  0  0  0
    0.1992   -0.4585    4.6565 C   0  0  0  0  0  0  0  0  0  0  0  0
    0.2746    0.1532    5.5533 H   0  0  0  0  0  0  0  0  0  0  0  0
   -0.2939   -1.7157    4.5869 N   0  0  0  0  0  0  0  0  0  0  0  0
   -0.6528   -2.2601    5.3669 H   0  0  0  0  0  0  0  0  0  0  0  0
   -0.2339   -2.1416    3.2673 C   0  0  0  0  0  0  0  0  0  0  0  0
   -0.5520   -3.1032    2.8739 H   0  0  0  0  0  0  0  0  0  0  0  0
   -0.0049   -0.0429   -1.2517 C   0  0  0  0  0  0  0  0  0  0  0  0
   -0.4152   -0.8069   -2.1268 O   0  0  0  0  0  0  0  0  0  0  0  0
    0.8143    0.9846   -1.5070 N   0  0  0  0  0  0  0  0  0  0  0  0
    1.0902    1.5640   -0.7288 H   0  0  0  0  0  0  0  0  0  0  0  0
    1.3464    1.3344   -2.8276 C   0  0  0  0  0  0  0  0  0  0  0  0
    0.7845    2.1705   -3.2487 H   0  0  0  0  0  0  0  0  0  0  0  0
    2.3940    1.6279   -2.7413 H   0  0  0  0  0  0  0  0  0  0  0  0
    1.2786    0.4860   -3.5119 H   0  0  0  0  0  0  0  0  0  0  0  0
  5  6  2  0  0  0  0
  5  7  1  0  0  0  0
  2  3  1  0  0  0  0
  2  4  1  0  0  0  0
  2  5  1  0  0  0  0
  1  2  1  0  0  0  0
 23 24  2  0  0  0  0
 23 25  1  0  0  0  0
 21 22  1  0  0  0  0
 19 20  1  0  0  0  0
 19 21  1  0  0  0  0
 17 18  1  0  0  0  0
 17 19  1  0  0  0  0
 15 16  1  0  0  0  0
 15 17  2  0  0  0  0
 14 15  1  0  0  0  0
 14 21  2  0  0  0  0
 11 12  1  0  0  0  0
 11 13  1  0  0  0  0
 11 14  1  0  0  0  0
  9 10  1  0  0  0  0
  9 11  1  0  0  0  0
  9 23  1  0  0  0  0
  7  8  1  0  0  0  0
  7  9  1  0  0  0  0
 27 28  1  0  0  0  0
 27 29  1  0  0  0  0
 27 30  1  0  0  0  0
 25 26  1  0  0  0  0
 25 27  1  0  0  0  0
M  CHG  1  15   1
M  END
$$$$
default_name
  -OEChem-01062215323D

 30 30  0     1  0  0  0  0  0999 V2000
   -3.5507   -3.2183    1.8116 H   0  0  0  0  0  0  0  0  0  0  0  0
   -3.4597   -2.3913    1.1076 C   0  0  0  0  0  0  0  0  0  0  0  0
   -4.1577   -1.6043    1.3866 H   0  0  0  0  0  0  0  0  0  0  0  0
   -3.6807   -2.7523    0.1036 H   0  0  0  0  0  0  0  0  0  0  0  0
   -2.0477   -1.8543    1.1546 C   0  0  0  0  0  0  0  0  0  0  0  0
   -1.2227   -2.3443    1.9146 O   0  0  0  0  0  0  0  0  0  0  0  0
   -1.7517   -0.8483    0.3266 N   0  0  0  0  0  0  0  0  0  0  0  0
   -2.4847   -0.5123   -0.2804 H   0  0  0  0  0  0  0  0  0  0  0  0
   -0.4117   -0.2463    0.2186 C   0  0  1  0  0  0  0  0  0  0  0  0
   -0.4480    0.7483    0.6701 H   0  0  0  0  0  0  0  0  0  0  0  0
    0.5771   -1.0915    1.0548 C   0  0  0  0  0  0  0  0  0  0  0  0
    0.5598   -2.1185    0.6811 H   0  0  0  0  0  0  0  0  0  0  0  0
    1.5889   -0.7109    0.8993 H   0  0  0  0  0  0  0  0  0  0  0  0
    0.3061   -1.1126    2.5442 C   0  0  0  0  0  0  0  0  0  0  0  0
    0.5704   -0.0761    3.4185 N   0  3  0  0  0  0  0  0  0  0  0  0
    0.9209    0.8388    3.1207 H   0  0  0  0  0  0  0  0  0  0  0  0
    0.1992   -0.4585    4.6565 C   0  0  0  0  0  0  0  0  0  0  0  0
    0.2746    0.1532    5.5533 H   0  0  0  0  0  0  0  0  0  0  0  0
   -0.2939   -1.7157    4.5869 N   0  0  0  0  0  0  0  0  0  0  0  0
   -0.6528   -2.2601    5.3669 H   0  0  0  0  0  0  0  0  0  0  0  0
   -0.2339   -2.1416    3.2673 C   0  0  0  0  0  0  0  0  0  0  0  0
   -0.5520   -3.1032    2.8739 H   0  0  0  0  0  0  0  0  0  0  0  0
   -0.0049   -0.0429   -1.2517 C   0  0  0  0  0  0  0  0  0  0  0  0
   -0.6144   -0.6167   -2.1557 O   0  0  0  0  0  0  0  0  0  0  0  0
    1.0371    0.7672   -1.4754 N   0  0  0  0  0  0  0  0  0  0  0  0
    1.4681    1.2027   -0.6742 H   0  0  0  0  0  0  0  0  0  0  0  0
    1.6054    1.0703   -2.7924 C   0  0  0  0  0  0  0  0  0  0  0  0
    1.2583    2.0473   -3.1347 H   0  0  0  0  0  0  0  0  0  0  0  0
    2.6950    1.0899   -2.7324 H   0  0  0  0  0  0  0  0  0  0  0  0
    1.3115    0.3167   -3.5262 H   0  0  0  0  0  0  0  0  0  0  0  0
  5  6  2  0  0  0  0
  5  7  1  0  0  0  0
  2  3  1  0  0  0  0
  2  4  1  0  0  0  0
  2  5  1  0  0  0  0
  1  2  1  0  0  0  0
 23 24  2  0  0  0  0
 23 25  1  0  0  0  0
 21 22  1  0  0  0  0
 19 20  1  0  0  0  0
 19 21  1  0  0  0  0
 17 18  1  0  0  0  0
 17 19  1  0  0  0  0
 15 16  1  0  0  0  0
 15 17  2  0  0  0  0
 14 15  1  0  0  0  0
 14 21  2  0  0  0  0
 11 12  1  0  0  0  0
 11 13  1  0  0  0  0
 11 14  1  0  0  0  0
  9 10  1  0  0  0  0
  9 11  1  0  0  0  0
  9 23  1  0  0  0  0
  7  8  1  0  0  0  0
  7  9  1  0  0  0  0
 27 28  1  0  0  0  0
 27 29  1  0  0  0  0
 27 30  1  0  0  0  0
 25 26  1  0  0  0  0
 25 27  1  0  0  0  0
M  CHG  1  15   1
M  END
$$$$
default_name
  -OEChem-01062215323D

 30 30  0     1  0  0  0  0  0999 V2000
   -3.5507   -3.2183    1.8116 H   0  0  0  0  0  0  0  0  0  0  0  0
   -3.4597   -2.3913    1.1076 C   0  0  0  0  0  0  0  0  0  0  0  0
   -4.1577   -1.6043    1.3866 H   0  0  0  0  0  0  0  0  0  0  0  0
   -3.6807   -2.7523    0.1036 H   0  0  0  0  0  0  0  0  0  0  0  0
   -2.0477   -1.8543    1.1546 C   0  0  0  0  0  0  0  0  0  0  0  0
   -1.2227   -2.3443    1.9146 O   0  0  0  0  0  0  0  0  0  0  0  0
   -1.7517   -0.8483    0.3266 N   0  0  0  0  0  0  0  0  0  0  0  0
   -2.4847   -0.5123   -0.2804 H   0  0  0  0  0  0  0  0  0  0  0  0
   -0.4117   -0.2463    0.2186 C   0  0  1  0  0  0  0  0  0  0  0  0
   -0.3696    0.6135    0.8919 H   0  0  0  0  0  0  0  0  0  0  0  0
    0.6311   -1.2715    0.7214 C   0  0  0  0  0  0  0  0  0  0  0  0
    0.5427   -2.1808    0.1216 H   0  0  0  0  0  0  0  0  0  0  0  0
    1.6329   -0.8713    0.5512 H   0  0  0  0  0  0  0  0  0  0  0  0
    0.5152   -1.6424    2.1847 C   0  0  0  0  0  0  0  0  0  0  0  0
    0.9012   -0.8439    3.2438 N   0  3  0  0  0  0  0  0  0  0  0  0
    1.2478    0.1134    3.1328 H   0  0  0  0  0  0  0  0  0  0  0  0
    0.6483   -1.5058    4.3903 C   0  0  0  0  0  0  0  0  0  0  0  0
    0.8354   -1.1240    5.3920 H   0  0  0  0  0  0  0  0  0  0  0  0
    0.1111   -2.7077    4.0817 N   0  0  0  0  0  0  0  0  0  0  0  0
   -0.1822   -3.4189    4.7463 H   0  0  0  0  0  0  0  0  0  0  0  0
    0.0206   -2.8099    2.7004 C   0  0  0  0  0  0  0  0  0  0  0  0
   -0.3667   -3.6491    2.1293 H   0  0  0  0  0  0  0  0  0  0  0  0
   -0.1530    0.2964   -1.1982 C   0  0  0  0  0  0  0  0  0  0  0  0
   -1.0096    0.1876   -2.0770 O   0  0  0  0  0  0  0  0  0  0  0  0
    1.0393    0.8673   -1.4095 N   0  0  0  0  0  0  0  0  0  0  0  0
    1.6739    0.9221   -0.6274 H   0  0  0  0  0  0  0  0  0  0  0  0
    1.4991    1.4170   -2.6884 C   0  0  0  0  0  0  0  0  0  0  0  0
    1.4037    2.5047   -2.6849 H   0  0  0  0  0  0  0  0  0  0  0  0
    2.5478    1.1606   -2.8485 H   0  0  0  0  0  0  0  0  0  0  0  0
    0.9129    1.0160   -3.5179 H   0  0  0  0  0  0  0  0  0  0  0  0
  5  6  2  0  0  0  0
  5  7  1  0  0  0  0
  2  3  1  0  0  0  0
  2  4  1  0  0  0  0
  2  5  1  0  0  0  0
  1  2  1  0  0  0  0
 23 24  2  0  0  0  0
 23 25  1  0  0  0  0
 21 22  1  0  0  0  0
 19 20  1  0  0  0  0
 19 21  1  0  0  0  0
 17 18  1  0  0  0  0
 17 19  1  0  0  0  0
 15 16  1  0  0  0  0
 15 17  2  0  0  0  0
 14 15  1  0  0  0  0
 14 21  2  0  0  0  0
 11 12  1  0  0  0  0
 11 13  1  0  0  0  0
 11 14  1  0  0  0  0
  9 10  1  0  0  0  0
  9 11  1  0  0  0  0
  9 23  1  0  0  0  0
  7  8  1  0  0  0  0
  7  9  1  0  0  0  0
 27 28  1  0  0  0  0
 27 29  1  0  0  0  0
 27 30  1  0  0  0  0
 25 26  1  0  0  0  0
 25 27  1  0  0  0  0
M  CHG  1  15   1
M  END
$$$$
default_name
  -OEChem-01062215323D

 30 30  0     1  0  0  0  0  0999 V2000
   -3.5507   -3.2183    1.8116 H   0  0  0  0  0  0  0  0  0  0  0  0
   -3.4597   -2.3913    1.1076 C   0  0  0  0  0  0  0  0  0  0  0  0
   -4.1577   -1.6043    1.3866 H   0  0  0  0  0  0  0  0  0  0  0  0
   -3.6807   -2.7523    0.1036 H   0  0  0  0  0  0  0  0  0  0  0  0
   -2.0477   -1.8543    1.1546 C   0  0  0  0  0  0  0  0  0  0  0  0
   -1.2227   -2.3443    1.9146 O   0  0  0  0  0  0  0  0  0  0  0  0
   -1.7517   -0.8483    0.3266 N   0  0  0  0  0  0  0  0  0  0  0  0
   -2.4847   -0.5123   -0.2804 H   0  0  0  0  0  0  0  0  0  0  0  0
   -0.4117   -0.2463    0.2186 C   0  0  1  0  0  0  0  0  0  0  0  0
   -0.3696    0.6135    0.8919 H   0  0  0  0  0  0  0  0  0  0  0  0
    0.6311   -1.2715    0.7214 C   0  0  0  0  0  0  0  0  0  0  0  0
    0.5427   -2.1808    0.1216 H   0  0  0  0  0  0  0  0  0  0  0  0
    1.6329   -0.8713    0.5512 H   0  0  0  0  0  0  0  0  0  0  0  0
    0.5152   -1.6424    2.1847 C   0  0  0  0  0  0  0  0  0  0  0  0
    0.9012   -0.8439    3.2438 N   0  3  0  0  0  0  0  0  0  0  0  0
    1.2478    0.1134    3.1328 H   0  0  0  0  0  0  0  0  0  0  0  0
    0.6483   -1.5058    4.3903 C   0  0  0  0  0  0  0  0  0  0  0  0
    0.8354   -1.1240    5.3920 H   0  0  0  0  0  0  0  0  0  0  0  0
    0.1111   -2.7077    4.0817 N   0  0  0  0  0  0  0  0  0  0  0  0
   -0.1822   -3.4189    4.7463 H   0  0  0  0  0  0  0  0  0  0  0  0
    0.0206   -2.8099    2.7004 C   0  0  0  0  0  0  0  0  0  0  0  0
   -0.3667   -3.6491    2.1293 H   0  0  0  0  0  0  0  0  0  0  0  0
   -0.1530    0.2964   -1.1982 C   0  0  0  0  0  0  0  0  0  0  0  0
   -1.0829    0.4412   -1.9932 O   0  0  0  0  0  0  0  0  0  0  0  0
    1.1188    0.5801   -1.5050 N   0  0  0  0  0  0  0  0  0  0  0  0
    1.8128    0.4407   -0.7864 H   0  0  0  0  0  0  0  0  0  0  0  0
    1.5855    1.0746   -2.8038 C   0  0  0  0  0  0  0  0  0  0  0  0
    1.7549    2.1522   -2.7558 H   0  0  0  0  0  0  0  0  0  0  0  0
    2.5241    0.5868   -3.0727 H   0  0  0  0  0  0  0  0  0  0  0  0
    0.8511    0.8693   -3.5854 H   0  0  0  0  0  0  0  0  0  0  0  0
  5  6  2  0  0  0  0
  5  7  1  0  0  0  0
  2  3  1  0  0  0  0
  2  4  1  0  0  0  0
  2  5  1  0  0  0  0
  1  2  1  0  0  0  0
 23 24  2  0  0  0  0
 23 25  1  0  0  0  0
 21 22  1  0  0  0  0
 19 20  1  0  0  0  0
 19 21  1  0  0  0  0
 17 18  1  0  0  0  0
 17 19  1  0  0  0  0
 15 16  1  0  0  0  0
 15 17  2  0  0  0  0
 14 15  1  0  0  0  0
 14 21  2  0  0  0  0
 11 12  1  0  0  0  0
 11 13  1  0  0  0  0
 11 14  1  0  0  0  0
  9 10  1  0  0  0  0
  9 11  1  0  0  0  0
  9 23  1  0  0  0  0
  7  8  1  0  0  0  0
  7  9  1  0  0  0  0
 27 28  1  0  0  0  0
 27 29  1  0  0  0  0
 27 30  1  0  0  0  0
 25 26  1  0  0  0  0
 25 27  1  0  0  0  0
M  CHG  1  15   1
M  END
$$$$
default_name
  -OEChem-01062215323D

 30 30  0     1  0  0  0  0  0999 V2000
   -3.5507   -3.2183    1.8116 H   0  0  0  0  0  0  0  0  0  0  0  0
   -3.4597   -2.3913    1.1076 C   0  0  0  0  0  0  0  0  0  0  0  0
   -4.1577   -1.6043    1.3866 H   0  0  0  0  0  0  0  0  0  0  0  0
   -3.6807   -2.7523    0.1036 H   0  0  0  0  0  0  0  0  0  0  0  0
   -2.0477   -1.8543    1.1546 C   0  0  0  0  0  0  0  0  0  0  0  0
   -1.2227   -2.3443    1.9146 O   0  0  0  0  0  0  0  0  0  0  0  0
   -1.7517   -0.8483    0.3266 N   0  0  0  0  0  0  0  0  0  0  0  0
   -2.4847   -0.5123   -0.2804 H   0  0  0  0  0  0  0  0  0  0  0  0
   -0.4117   -0.2463    0.2186 C   0  0  1  0  0  0  0  0  0  0  0  0
   -0.3696    0.6135    0.8919 H   0  0  0  0  0  0  0  0  0  0  0  0
    0.6311   -1.2715    0.7214 C   0  0  0  0  0  0  0  0  0  0  0  0
    0.5427   -2.1808    0.1216 H   0  0  0  0  0  0  0  0  0  0  0  0
    1.6329   -0.8713    0.5512 H   0  0  0  0  0  0  0  0  0  0  0  0
    0.5152   -1.6424    2.1847 C   0  0  0  0  0  0  0  0  0  0  0  0
    0.9012   -0.8439    3.2438 N   0  3  0  0  0  0  0  0  0  0  0  0
    1.2478    0.1134    3.1328 H   0  0  0  0  0  0  0  0  0  0  0  0
    0.6483   -1.5058    4.3903 C   0  0  0  0  0  0  0  0  0  0  0  0
    0.8354   -1.1240    5.3920 H   0  0  0  0  0  0  0  0  0  0  0  0
    0.1111   -2.7077    4.0817 N   0  0  0  0  0  0  0  0  0  0  0  0
   -0.1822   -3.4189    4.7463 H   0  0  0  0  0  0  0  0  0  0  0  0
    0.0206   -2.8099    2.7004 C   0  0  0  0  0  0  0  0  0  0  0  0
   -0.3667   -3.6491    2.1293 H   0  0  0  0  0  0  0  0  0  0  0  0
   -0.1530    0.2964   -1.1982 C   0  0  0  0  0  0  0  0  0  0  0  0
   -1.0857    0.6999   -1.8946 O   0  0  0  0  0  0  0  0  0  0  0  0
    1.1184    0.2879   -1.6169 N   0  0  0  0  0  0  0  0  0  0  0  0
    1.8178   -0.0505   -0.9737 H   0  0  0  0  0  0  0  0  0  0  0  0
    1.5769    0.7283   -2.9380 C   0  0  0  0  0  0  0  0  0  0  0  0
    2.0037    1.7310   -2.8717 H   0  0  0  0  0  0  0  0  0  0  0  0
    2.3440    0.0480   -3.3119 H   0  0  0  0  0  0  0  0  0  0  0  0
    0.7502    0.7452   -3.6514 H   0  0  0  0  0  0  0  0  0  0  0  0
  5  6  2  0  0  0  0
  5  7  1  0  0  0  0
  2  3  1  0  0  0  0
  2  4  1  0  0  0  0
  2  5  1  0  0  0  0
  1  2  1  0  0  0  0
 23 24  2  0  0  0  0
 23 25  1  0  0  0  0
 21 22  1  0  0  0  0
 19 20  1  0  0  0  0
 19 21  1  0  0  0  0
 17 18  1  0  0  0  0
 17 19  1  0  0  0  0
 15 16  1  0  0  0  0
 15 17  2  0  0  0  0
 14 15  1  0  0  0  0
 14 21  2  0  0  0  0
 11 12  1  0  0  0  0
 11 13  1  0  0  0  0
 11 14  1  0  0  0  0
  9 10  1  0  0  0  0
  9 11  1  0  0  0  0
  9 23  1  0  0  0  0
  7  8  1  0  0  0  0
  7  9  1  0  0  0  0
 27 28  1  0  0  0  0
 27 29  1  0  0  0  0
 27 30  1  0  0  0  0
 25 26  1  0  0  0  0
 25 27  1  0  0  0  0
M  CHG  1  15   1
M  END
$$$$
default_name
  -OEChem-01062215323D

 30 30  0     1  0  0  0  0  0999 V2000
   -3.5507   -3.2183    1.8116 H   0  0  0  0  0  0  0  0  0  0  0  0
   -3.4597   -2.3913    1.1076 C   0  0  0  0  0  0  0  0  0  0  0  0
   -4.1577   -1.6043    1.3866 H   0  0  0  0  0  0  0  0  0  0  0  0
   -3.6807   -2.7523    0.1036 H   0  0  0  0  0  0  0  0  0  0  0  0
   -2.0477   -1.8543    1.1546 C   0  0  0  0  0  0  0  0  0  0  0  0
   -1.2227   -2.3443    1.9146 O   0  0  0  0  0  0  0  0  0  0  0  0
   -1.7517   -0.8483    0.3266 N   0  0  0  0  0  0  0  0  0  0  0  0
   -2.4847   -0.5123   -0.2804 H   0  0  0  0  0  0  0  0  0  0  0  0
   -0.4117   -0.2463    0.2186 C   0  0  1  0  0  0  0  0  0  0  0  0
   -0.3696    0.6135    0.8919 H   0  0  0  0  0  0  0  0  0  0  0  0
    0.6311   -1.2715    0.7214 C   0  0  0  0  0  0  0  0  0  0  0  0
    0.5427   -2.1808    0.1216 H   0  0  0  0  0  0  0  0  0  0  0  0
    1.6329   -0.8713    0.5512 H   0  0  0  0  0  0  0  0  0  0  0  0
    0.5152   -1.6424    2.1847 C   0  0  0  0  0  0  0  0  0  0  0  0
    0.9012   -0.8439    3.2438 N   0  3  0  0  0  0  0  0  0  0  0  0
    1.2478    0.1134    3.1328 H   0  0  0  0  0  0  0  0  0  0  0  0
    0.6483   -1.5058    4.3903 C   0  0  0  0  0  0  0  0  0  0  0  0
    0.8354   -1.1240    5.3920 H   0  0  0  0  0  0  0  0  0  0  0  0
    0.1111   -2.7077    4.0817 N   0  0  0  0  0  0  0  0  0  0  0  0
   -0.1822   -3.4189    4.7463 H   0  0  0  0  0  0  0  0  0  0  0  0
    0.0206   -2.8099    2.7004 C   0  0  0  0  0  0  0  0  0  0  0  0
   -0.3667   -3.6491    2.1293 H   0  0  0  0  0  0  0  0  0  0  0  0
   -0.1530    0.2964   -1.1982 C   0  0  0  0  0  0  0  0  0  0  0  0
   -1.0178    0.9462   -1.7879 O   0  0  0  0  0  0  0  0  0  0  0  0
    1.0383    0.0107   -1.7378 N   0  0  0  0  0  0  0  0  0  0  0  0
    1.6884   -0.5180   -1.1763 H   0  0  0  0  0  0  0  0  0  0  0  0
    1.4737    0.4016   -3.0820 C   0  0  0  0  0  0  0  0  0  0  0  0
    2.1331    1.2700   -3.0247 H   0  0  0  0  0  0  0  0  0  0  0  0
    2.0199   -0.4192   -3.5500 H   0  0  0  0  0  0  0  0  0  0  0  0
    0.6171    0.6523   -3.7112 H   0  0  0  0  0  0  0  0  0  0  0  0
  5  6  2  0  0  0  0
  5  7  1  0  0  0  0
  2  3  1  0  0  0  0
  2  4  1  0  0  0  0
  2  5  1  0  0  0  0
  1  2  1  0  0  0  0
 23 24  2  0  0  0  0
 23 25  1  0  0  0  0
 21 22  1  0  0  0  0
 19 20  1  0  0  0  0
 19 21  1  0  0  0  0
 17 18  1  0  0  0  0
 17 19  1  0  0  0  0
 15 16  1  0  0  0  0
 15 17  2  0  0  0  0
 14 15  1  0  0  0  0
 14 21  2  0  0  0  0
 11 12  1  0  0  0  0
 11 13  1  0  0  0  0
 11 14  1  0  0  0  0
  9 10  1  0  0  0  0
  9 11  1  0  0  0  0
  9 23  1  0  0  0  0
  7  8  1  0  0  0  0
  7  9  1  0  0  0  0
 27 28  1  0  0  0  0
 27 29  1  0  0  0  0
 27 30  1  0  0  0  0
 25 26  1  0  0  0  0
 25 27  1  0  0  0  0
M  CHG  1  15   1
M  END
$$$$
default_name
  -OEChem-01062215323D

 30 30  0     1  0  0  0  0  0999 V2000
   -3.5507   -3.2183    1.8116 H   0  0  0  0  0  0  0  0  0  0  0  0
   -3.4597   -2.3913    1.1076 C   0  0  0  0  0  0  0  0  0  0  0  0
   -4.1577   -1.6043    1.3866 H   0  0  0  0  0  0  0  0  0  0  0  0
   -3.6807   -2.7523    0.1036 H   0  0  0  0  0  0  0  0  0  0  0  0
   -2.0477   -1.8543    1.1546 C   0  0  0  0  0  0  0  0  0  0  0  0
   -1.2227   -2.3443    1.9146 O   0  0  0  0  0  0  0  0  0  0  0  0
   -1.7517   -0.8483    0.3266 N   0  0  0  0  0  0  0  0  0  0  0  0
   -2.4847   -0.5123   -0.2804 H   0  0  0  0  0  0  0  0  0  0  0  0
   -0.4117   -0.2463    0.2186 C   0  0  1  0  0  0  0  0  0  0  0  0
   -0.3696    0.6135    0.8919 H   0  0  0  0  0  0  0  0  0  0  0  0
    0.6311   -1.2715    0.7214 C   0  0  0  0  0  0  0  0  0  0  0  0
    0.5427   -2.1808    0.1216 H   0  0  0  0  0  0  0  0  0  0  0  0
    1.6329   -0.8713    0.5512 H   0  0  0  0  0  0  0  0  0  0  0  0
    0.5152   -1.6424    2.1847 C   0  0  0  0  0  0  0  0  0  0  0  0
    0.9012   -0.8439    3.2438 N   0  3  0  0  0  0  0  0  0  0  0  0
    1.2478    0.1134    3.1328 H   0  0  0  0  0  0  0  0  0  0  0  0
    0.6483   -1.5058    4.3903 C   0  0  0  0  0  0  0  0  0  0  0  0
    0.8354   -1.1240    5.3920 H   0  0  0  0  0  0  0  0  0  0  0  0
    0.1111   -2.7077    4.0817 N   0  0  0  0  0  0  0  0  0  0  0  0
   -0.1822   -3.4189    4.7463 H   0  0  0  0  0  0  0  0  0  0  0  0
    0.0206   -2.8099    2.7004 C   0  0  0  0  0  0  0  0  0  0  0  0
   -0.3667   -3.6491    2.1293 H   0  0  0  0  0  0  0  0  0  0  0  0
   -0.1530    0.2964   -1.1982 C   0  0  0  0  0  0  0  0  0  0  0  0
   -0.8838    1.1633   -1.6803 O   0  0  0  0  0  0  0  0  0  0  0  0
    0.8838   -0.2328   -1.8592 N   0  0  0  0  0  0  0  0  0  0  0  0
    1.4337   -0.9299   -1.3806 H   0  0  0  0  0  0  0  0  0  0  0  0
    1.2832    0.1169   -3.2258 C   0  0  0  0  0  0  0  0  0  0  0  0
    2.1342    0.8005   -3.2043 H   0  0  0  0  0  0  0  0  0  0  0  0
    1.5737   -0.7829   -3.7708 H   0  0  0  0  0  0  0  0  0  0  0  0
    0.4610    0.5968   -3.7610 H   0  0  0  0  0  0  0  0  0  0  0  0
  5  6  2  0  0  0  0
  5  7  1  0  0  0  0
  2  3  1  0  0  0  0
  2  4  1  0  0  0  0
  2  5  1  0  0  0  0
  1  2  1  0  0  0  0
 23 24  2  0  0  0  0
 23 25  1  0  0  0  0
 21 22  1  0  0  0  0
 19 20  1  0  0  0  0
 19 21  1  0  0  0  0
 17 18  1  0  0  0  0
 17 19  1  0  0  0  0
 15 16  1  0  0  0  0
 15 17  2  0  0  0  0
 14 15  1  0  0  0  0
 14 21  2  0  0  0  0
 11 12  1  0  0  0  0
 11 13  1  0  0  0  0
 11 14  1  0  0  0  0
  9 10  1  0  0  0  0
  9 11  1  0  0  0  0
  9 23  1  0  0  0  0
  7  8  1  0  0  0  0
  7  9  1  0  0  0  0
 27 28  1  0  0  0  0
 27 29  1  0  0  0  0
 27 30  1  0  0  0  0
 25 26  1  0  0  0  0
 25 27  1  0  0  0  0
M  CHG  1  15   1
M  END
$$$$
default_name
  -OEChem-01062215323D

 30 30  0     1  0  0  0  0  0999 V2000
   -3.5507   -3.2183    1.8116 H   0  0  0  0  0  0  0  0  0  0  0  0
   -3.4597   -2.3913    1.1076 C   0  0  0  0  0  0  0  0  0  0  0  0
   -4.1577   -1.6043    1.3866 H   0  0  0  0  0  0  0  0  0  0  0  0
   -3.6807   -2.7523    0.1036 H   0  0  0  0  0  0  0  0  0  0  0  0
   -2.0477   -1.8543    1.1546 C   0  0  0  0  0  0  0  0  0  0  0  0
   -1.2227   -2.3443    1.9146 O   0  0  0  0  0  0  0  0  0  0  0  0
   -1.7517   -0.8483    0.3266 N   0  0  0  0  0  0  0  0  0  0  0  0
   -2.4847   -0.5123   -0.2804 H   0  0  0  0  0  0  0  0  0  0  0  0
   -0.4117   -0.2463    0.2186 C   0  0  1  0  0  0  0  0  0  0  0  0
   -0.3696    0.6135    0.8919 H   0  0  0  0  0  0  0  0  0  0  0  0
    0.6311   -1.2715    0.7214 C   0  0  0  0  0  0  0  0  0  0  0  0
    0.5427   -2.1808    0.1216 H   0  0  0  0  0  0  0  0  0  0  0  0
    1.6329   -0.8713    0.5512 H   0  0  0  0  0  0  0  0  0  0  0  0
    0.5152   -1.6424    2.1847 C   0  0  0  0  0  0  0  0  0  0  0  0
    0.9012   -0.8439    3.2438 N   0  3  0  0  0  0  0  0  0  0  0  0
    1.2478    0.1134    3.1328 H   0  0  0  0  0  0  0  0  0  0  0  0
    0.6483   -1.5058    4.3903 C   0  0  0  0  0  0  0  0  0  0  0  0
    0.8354   -1.1240    5.3920 H   0  0  0  0  0  0  0  0  0  0  0  0
    0.1111   -2.7077    4.0817 N   0  0  0  0  0  0  0  0  0  0  0  0
   -0.1822   -3.4189    4.7463 H   0  0  0  0  0  0  0  0  0  0  0  0
    0.0206   -2.8099    2.7004 C   0  0  0  0  0  0  0  0  0  0  0  0
   -0.3667   -3.6491    2.1293 H   0  0  0  0  0  0  0  0  0  0  0  0
   -0.1530    0.2964   -1.1982 C   0  0  0  0  0  0  0  0  0  0  0  0
   -0.6927    1.3363   -1.5791 O   0  0  0  0  0  0  0  0  0  0  0  0
    0.6654   -0.4259   -1.9731 N   0  0  0  0  0  0  0  0  0  0  0  0
    1.0708   -1.2582   -1.5726 H   0  0  0  0  0  0  0  0  0  0  0  0
    1.0181   -0.1064   -3.3597 C   0  0  0  0  0  0  0  0  0  0  0  0
    2.0071    0.3546   -3.3984 H   0  0  0  0  0  0  0  0  0  0  0  0
    1.0360   -1.0183   -3.9591 H   0  0  0  0  0  0  0  0  0  0  0  0
    0.2925    0.5826   -3.7972 H   0  0  0  0  0  0  0  0  0  0  0  0
  5  6  2  0  0  0  0
  5  7  1  0  0  0  0
  2  3  1  0  0  0  0
  2  4  1  0  0  0  0
  2  5  1  0  0  0  0
  1  2  1  0  0  0  0
 23 24  2  0  0  0  0
 23 25  1  0  0  0  0
 21 22  1  0  0  0  0
 19 20  1  0  0  0  0
 19 21  1  0  0  0  0
 17 18  1  0  0  0  0
 17 19  1  0  0  0  0
 15 16  1  0  0  0  0
 15 17  2  0  0  0  0
 14 15  1  0  0  0  0
 14 21  2  0  0  0  0
 11 12  1  0  0  0  0
 11 13  1  0  0  0  0
 11 14  1  0  0  0  0
  9 10  1  0  0  0  0
  9 11  1  0  0  0  0
  9 23  1  0  0  0  0
  7  8  1  0  0  0  0
  7  9  1  0  0  0  0
 27 28  1  0  0  0  0
 27 29  1  0  0  0  0
 27 30  1  0  0  0  0
 25 26  1  0  0  0  0
 25 27  1  0  0  0  0
M  CHG  1  15   1
M  END
$$$$
default_name
  -OEChem-01062215323D

 30 30  0     1  0  0  0  0  0999 V2000
   -3.5507   -3.2183    1.8116 H   0  0  0  0  0  0  0  0  0  0  0  0
   -3.4597   -2.3913    1.1076 C   0  0  0  0  0  0  0  0  0  0  0  0
   -4.1577   -1.6043    1.3866 H   0  0  0  0  0  0  0  0  0  0  0  0
   -3.6807   -2.7523    0.1036 H   0  0  0  0  0  0  0  0  0  0  0  0
   -2.0477   -1.8543    1.1546 C   0  0  0  0  0  0  0  0  0  0  0  0
   -1.2227   -2.3443    1.9146 O   0  0  0  0  0  0  0  0  0  0  0  0
   -1.7517   -0.8483    0.3266 N   0  0  0  0  0  0  0  0  0  0  0  0
   -2.4847   -0.5123   -0.2804 H   0  0  0  0  0  0  0  0  0  0  0  0
   -0.4117   -0.2463    0.2186 C   0  0  1  0  0  0  0  0  0  0  0  0
   -0.3696    0.6135    0.8919 H   0  0  0  0  0  0  0  0  0  0  0  0
    0.6311   -1.2715    0.7214 C   0  0  0  0  0  0  0  0  0  0  0  0
    0.5427   -2.1808    0.1216 H   0  0  0  0  0  0  0  0  0  0  0  0
    1.6329   -0.8713    0.5512 H   0  0  0  0  0  0  0  0  0  0  0  0
    0.5152   -1.6424    2.1847 C   0  0  0  0  0  0  0  0  0  0  0  0
    0.9012   -0.8439    3.2438 N   0  3  0  0  0  0  0  0  0  0  0  0
    1.2478    0.1134    3.1328 H   0  0  0  0  0  0  0  0  0  0  0  0
    0.6483   -1.5058    4.3903 C   0  0  0  0  0  0  0  0  0  0  0  0
    0.8354   -1.1240    5.3920 H   0  0  0  0  0  0  0  0  0  0  0  0
    0.1111   -2.7077    4.0817 N   0  0  0  0  0  0  0  0  0  0  0  0
   -0.1822   -3.4189    4.7463 H   0  0  0  0  0  0  0  0  0  0  0  0
    0.0206   -2.8099    2.7004 C   0  0  0  0  0  0  0  0  0  0  0  0
   -0.3667   -3.6491    2.1293 H   0  0  0  0  0  0  0  0  0  0  0  0
   -0.1530    0.2964   -1.1982 C   0  0  0  0  0  0  0  0  0  0  0  0
   -0.4578    1.4536   -1.4913 O   0  0  0  0  0  0  0  0  0  0  0  0
    0.3981   -0.5554   -2.0715 N   0  0  0  0  0  0  0  0  0  0  0  0
    0.6245   -1.4805   -1.7392 H   0  0  0  0  0  0  0  0  0  0  0  0
    0.6967   -0.2531   -3.4746 C   0  0  0  0  0  0  0  0  0  0  0  0
    1.7604   -0.0374   -3.5936 H   0  0  0  0  0  0  0  0  0  0  0  0
    0.4433   -1.1093   -4.1022 H   0  0  0  0  0  0  0  0  0  0  0  0
    0.1230    0.6106   -3.8174 H   0  0  0  0  0  0  0  0  0  0  0  0
  5  6  2  0  0  0  0
  5  7  1  0  0  0  0
  2  3  1  0  0  0  0
  2  4  1  0  0  0  0
  2  5  1  0  0  0  0
  1  2  1  0  0  0  0
 23 24  2  0  0  0  0
 23 25  1  0  0  0  0
 21 22  1  0  0  0  0
 19 20  1  0  0  0  0
 19 21  1  0  0  0  0
 17 18  1  0  0  0  0
 17 19  1  0  0  0  0
 15 16  1  0  0  0  0
 15 17  2  0  0  0  0
 14 15  1  0  0  0  0
 14 21  2  0  0  0  0
 11 12  1  0  0  0  0
 11 13  1  0  0  0  0
 11 14  1  0  0  0  0
  9 10  1  0  0  0  0
  9 11  1  0  0  0  0
  9 23  1  0  0  0  0
  7  8  1  0  0  0  0
  7  9  1  0  0  0  0
 27 28  1  0  0  0  0
 27 29  1  0  0  0  0
 27 30  1  0  0  0  0
 25 26  1  0  0  0  0
 25 27  1  0  0  0  0
M  CHG  1  15   1
M  END
$$$$
default_name
  -OEChem-01062215323D

 30 30  0     1  0  0  0  0  0999 V2000
   -3.5507   -3.2183    1.8116 H   0  0  0  0  0  0  0  0  0  0  0  0
   -3.4597   -2.3913    1.1076 C   0  0  0  0  0  0  0  0  0  0  0  0
   -4.1577   -1.6043    1.3866 H   0  0  0  0  0  0  0  0  0  0  0  0
   -3.6807   -2.7523    0.1036 H   0  0  0  0  0  0  0  0  0  0  0  0
   -2.0477   -1.8543    1.1546 C   0  0  0  0  0  0  0  0  0  0  0  0
   -1.2227   -2.3443    1.9146 O   0  0  0  0  0  0  0  0  0  0  0  0
   -1.7517   -0.8483    0.3266 N   0  0  0  0  0  0  0  0  0  0  0  0
   -2.4847   -0.5123   -0.2804 H   0  0  0  0  0  0  0  0  0  0  0  0
   -0.4117   -0.2463    0.2186 C   0  0  1  0  0  0  0  0  0  0  0  0
   -0.3696    0.6135    0.8919 H   0  0  0  0  0  0  0  0  0  0  0  0
    0.6311   -1.2715    0.7214 C   0  0  0  0  0  0  0  0  0  0  0  0
    0.5427   -2.1808    0.1216 H   0  0  0  0  0  0  0  0  0  0  0  0
    1.6329   -0.8713    0.5512 H   0  0  0  0  0  0  0  0  0  0  0  0
    0.5152   -1.6424    2.1847 C   0  0  0  0  0  0  0  0  0  0  0  0
    0.9012   -0.8439    3.2438 N   0  3  0  0  0  0  0  0  0  0  0  0
    1.2478    0.1134    3.1328 H   0  0  0  0  0  0  0  0  0  0  0  0
    0.6483   -1.5058    4.3903 C   0  0  0  0  0  0  0  0  0  0  0  0
    0.8354   -1.1240    5.3920 H   0  0  0  0  0  0  0  0  0  0  0  0
    0.1111   -2.7077    4.0817 N   0  0  0  0  0  0  0  0  0  0  0  0
   -0.1822   -3.4189    4.7463 H   0  0  0  0  0  0  0  0  0  0  0  0
    0.0206   -2.8099    2.7004 C   0  0  0  0  0  0  0  0  0  0  0  0
   -0.3667   -3.6491    2.1293 H   0  0  0  0  0  0  0  0  0  0  0  0
   -0.1530    0.2964   -1.1982 C   0  0  0  0  0  0  0  0  0  0  0  0
   -0.1948    1.5070   -1.4229 O   0  0  0  0  0  0  0  0  0  0  0  0
    0.1001   -0.6126   -2.1478 N   0  0  0  0  0  0  0  0  0  0  0  0
    0.1253   -1.5816   -1.8691 H   0  0  0  0  0  0  0  0  0  0  0  0
    0.3407   -0.3133   -3.5626 C   0  0  0  0  0  0  0  0  0  0  0  0
    1.4108   -0.3488   -3.7766 H   0  0  0  0  0  0  0  0  0  0  0  0
   -0.1639   -1.0498   -4.1902 H   0  0  0  0  0  0  0  0  0  0  0  0
   -0.0359    0.6789   -3.8203 H   0  0  0  0  0  0  0  0  0  0  0  0
  5  6  2  0  0  0  0
  5  7  1  0  0  0  0
  2  3  1  0  0  0  0
  2  4  1  0  0  0  0
  2  5  1  0  0  0  0
  1  2  1  0  0  0  0
 23 24  2  0  0  0  0
 23 25  1  0  0  0  0
 21 22  1  0  0  0  0
 19 20  1  0  0  0  0
 19 21  1  0  0  0  0
 17 18  1  0  0  0  0
 17 19  1  0  0  0  0
 15 16  1  0  0  0  0
 15 17  2  0  0  0  0
 14 15  1  0  0  0  0
 14 21  2  0  0  0  0
 11 12  1  0  0  0  0
 11 13  1  0  0  0  0
 11 14  1  0  0  0  0
  9 10  1  0  0  0  0
  9 11  1  0  0  0  0
  9 23  1  0  0  0  0
  7  8  1  0  0  0  0
  7  9  1  0  0  0  0
 27 28  1  0  0  0  0
 27 29  1  0  0  0  0
 27 30  1  0  0  0  0
 25 26  1  0  0  0  0
 25 27  1  0  0  0  0
M  CHG  1  15   1
M  END
$$$$
default_name
  -OEChem-01062215323D

 30 30  0     1  0  0  0  0  0999 V2000
   -3.5507   -3.2183    1.8116 H   0  0  0  0  0  0  0  0  0  0  0  0
   -3.4597   -2.3913    1.1076 C   0  0  0  0  0  0  0  0  0  0  0  0
   -4.1577   -1.6043    1.3866 H   0  0  0  0  0  0  0  0  0  0  0  0
   -3.6807   -2.7523    0.1036 H   0  0  0  0  0  0  0  0  0  0  0  0
   -2.0477   -1.8543    1.1546 C   0  0  0  0  0  0  0  0  0  0  0  0
   -1.2227   -2.3443    1.9146 O   0  0  0  0  0  0  0  0  0  0  0  0
   -1.7517   -0.8483    0.3266 N   0  0  0  0  0  0  0  0  0  0  0  0
   -2.4847   -0.5123   -0.2804 H   0  0  0  0  0  0  0  0  0  0  0  0
   -0.4117   -0.2463    0.2186 C   0  0  1  0  0  0  0  0  0  0  0  0
   -0.3696    0.6135    0.8919 H   0  0  0  0  0  0  0  0  0  0  0  0
    0.6311   -1.2715    0.7214 C   0  0  0  0  0  0  0  0  0  0  0  0
    0.5427   -2.1808    0.1216 H   0  0  0  0  0  0  0  0  0  0  0  0
    1.6329   -0.8713    0.5512 H   0  0  0  0  0  0  0  0  0  0  0  0
    0.5152   -1.6424    2.1847 C   0  0  0  0  0  0  0  0  0  0  0  0
    0.9012   -0.8439    3.2438 N   0  3  0  0  0  0  0  0  0  0  0  0
    1.2478    0.1134    3.1328 H   0  0  0  0  0  0  0  0  0  0  0  0
    0.6483   -1.5058    4.3903 C   0  0  0  0  0  0  0  0  0  0  0  0
    0.8354   -1.1240    5.3920 H   0  0  0  0  0  0  0  0  0  0  0  0
    0.1111   -2.7077    4.0817 N   0  0  0  0  0  0  0  0  0  0  0  0
   -0.1822   -3.4189    4.7463 H   0  0  0  0  0  0  0  0  0  0  0  0
    0.0206   -2.8099    2.7004 C   0  0  0  0  0  0  0  0  0  0  0  0
   -0.3667   -3.6491    2.1293 H   0  0  0  0  0  0  0  0  0  0  0  0
   -0.1530    0.2964   -1.1982 C   0  0  0  0  0  0  0  0  0  0  0  0
    0.0781    1.4930   -1.3784 O   0  0  0  0  0  0  0  0  0  0  0  0
   -0.2084   -0.5935   -2.1967 N   0  0  0  0  0  0  0  0  0  0  0  0
   -0.3929   -1.5548   -1.9534 H   0  0  0  0  0  0  0  0  0  0  0  0
   -0.0254   -0.2827   -3.6178 C   0  0  0  0  0  0  0  0  0  0  0  0
    0.9823   -0.5583   -3.9351 H   0  0  0  0  0  0  0  0  0  0  0  0
   -0.7443   -0.8439   -4.2173 H   0  0  0  0  0  0  0  0  0  0  0  0
   -0.1734    0.7828   -3.8055 H   0  0  0  0  0  0  0  0  0  0  0  0
  5  6  2  0  0  0  0
  5  7  1  0  0  0  0
  2  3  1  0  0  0  0
  2  4  1  0  0  0  0
  2  5  1  0  0  0  0
  1  2  1  0  0  0  0
 23 24  2  0  0  0  0
 23 25  1  0  0  0  0
 21 22  1  0  0  0  0
 19 20  1  0  0  0  0
 19 21  1  0  0  0  0
 17 18  1  0  0  0  0
 17 19  1  0  0  0  0
 15 16  1  0  0  0  0
 15 17  2  0  0  0  0
 14 15  1  0  0  0  0
 14 21  2  0  0  0  0
 11 12  1  0  0  0  0
 11 13  1  0  0  0  0
 11 14  1  0  0  0  0
  9 10  1  0  0  0  0
  9 11  1  0  0  0  0
  9 23  1  0  0  0  0
  7  8  1  0  0  0  0
  7  9  1  0  0  0  0
 27 28  1  0  0  0  0
 27 29  1  0  0  0  0
 27 30  1  0  0  0  0
 25 26  1  0  0  0  0
 25 27  1  0  0  0  0
M  CHG  1  15   1
M  END
$$$$
default_name
  -OEChem-01062215323D

 30 30  0     1  0  0  0  0  0999 V2000
   -3.5507   -3.2183    1.8116 H   0  0  0  0  0  0  0  0  0  0  0  0
   -3.4597   -2.3913    1.1076 C   0  0  0  0  0  0  0  0  0  0  0  0
   -4.1577   -1.6043    1.3866 H   0  0  0  0  0  0  0  0  0  0  0  0
   -3.6807   -2.7523    0.1036 H   0  0  0  0  0  0  0  0  0  0  0  0
   -2.0477   -1.8543    1.1546 C   0  0  0  0  0  0  0  0  0  0  0  0
   -1.2227   -2.3443    1.9146 O   0  0  0  0  0  0  0  0  0  0  0  0
   -1.7517   -0.8483    0.3266 N   0  0  0  0  0  0  0  0  0  0  0  0
   -2.4847   -0.5123   -0.2804 H   0  0  0  0  0  0  0  0  0  0  0  0
   -0.4117   -0.2463    0.2186 C   0  0  1  0  0  0  0  0  0  0  0  0
   -0.3696    0.6135    0.8919 H   0  0  0  0  0  0  0  0  0  0  0  0
    0.6311   -1.2715    0.7214 C   0  0  0  0  0  0  0  0  0  0  0  0
    0.5427   -2.1808    0.1216 H   0  0  0  0  0  0  0  0  0  0  0  0
    1.6329   -0.8713    0.5512 H   0  0  0  0  0  0  0  0  0  0  0  0
    0.5152   -1.6424    2.1847 C   0  0  0  0  0  0  0  0  0  0  0  0
    0.9012   -0.8439    3.2438 N   0  3  0  0  0  0  0  0  0  0  0  0
    1.2478    0.1134    3.1328 H   0  0  0  0  0  0  0  0  0  0  0  0
    0.6483   -1.5058    4.3903 C   0  0  0  0  0  0  0  0  0  0  0  0
    0.8354   -1.1240    5.3920 H   0  0  0  0  0  0  0  0  0  0  0  0
    0.1111   -2.7077    4.0817 N   0  0  0  0  0  0  0  0  0  0  0  0
   -0.1822   -3.4189    4.7463 H   0  0  0  0  0  0  0  0  0  0  0  0
    0.0206   -2.8099    2.7004 C   0  0  0  0  0  0  0  0  0  0  0  0
   -0.3667   -3.6491    2.1293 H   0  0  0  0  0  0  0  0  0  0  0  0
   -0.1530    0.2964   -1.1982 C   0  0  0  0  0  0  0  0  0  0  0  0
    0.3425    1.4126   -1.3610 O   0  0  0  0  0  0  0  0  0  0  0  0
   -0.5062   -0.4994   -2.2151 N   0  0  0  0  0  0  0  0  0  0  0  0
   -0.8947   -1.4017   -1.9864 H   0  0  0  0  0  0  0  0  0  0  0  0
   -0.3769   -0.1636   -3.6363 C   0  0  0  0  0  0  0  0  0  0  0  0
    0.5039   -0.6517   -4.0582 H   0  0  0  0  0  0  0  0  0  0  0  0
   -1.2584   -0.5055   -4.1815 H   0  0  0  0  0  0  0  0  0  0  0  0
   -0.2800    0.9154   -3.7742 H   0  0  0  0  0  0  0  0  0  0  0  0
  5  6  2  0  0  0  0
  5  7  1  0  0  0  0
  2  3  1  0  0  0  0
  2  4  1  0  0  0  0
  2  5  1  0  0  0  0
  1  2  1  0  0  0  0
 23 24  2  0  0  0  0
 23 25  1  0  0  0  0
 21 22  1  0  0  0  0
 19 20  1  0  0  0  0
 19 21  1  0  0  0  0
 17 18  1  0  0  0  0
 17 19  1  0  0  0  0
 15 16  1  0  0  0  0
 15 17  2  0  0  0  0
 14 15  1  0  0  0  0
 14 21  2  0  0  0  0
 11 12  1  0  0  0  0
 11 13  1  0  0  0  0
 11 14  1  0  0  0  0
  9 10  1  0  0  0  0
  9 11  1  0  0  0  0
  9 23  1  0  0  0  0
  7  8  1  0  0  0  0
  7  9  1  0  0  0  0
 27 28  1  0  0  0  0
 27 29  1  0  0  0  0
 27 30  1  0  0  0  0
 25 26  1  0  0  0  0
 25 27  1  0  0  0  0
M  CHG  1  15   1
M  END
$$$$
default_name
  -OEChem-01062215323D

 30 30  0     1  0  0  0  0  0999 V2000
   -3.5507   -3.2183    1.8116 H   0  0  0  0  0  0  0  0  0  0  0  0
   -3.4597   -2.3913    1.1076 C   0  0  0  0  0  0  0  0  0  0  0  0
   -4.1577   -1.6043    1.3866 H   0  0  0  0  0  0  0  0  0  0  0  0
   -3.6807   -2.7523    0.1036 H   0  0  0  0  0  0  0  0  0  0  0  0
   -2.0477   -1.8543    1.1546 C   0  0  0  0  0  0  0  0  0  0  0  0
   -1.2227   -2.3443    1.9146 O   0  0  0  0  0  0  0  0  0  0  0  0
   -1.7517   -0.8483    0.3266 N   0  0  0  0  0  0  0  0  0  0  0  0
   -2.4847   -0.5123   -0.2804 H   0  0  0  0  0  0  0  0  0  0  0  0
   -0.4117   -0.2463    0.2186 C   0  0  1  0  0  0  0  0  0  0  0  0
   -0.3696    0.6135    0.8919 H   0  0  0  0  0  0  0  0  0  0  0  0
    0.6311   -1.2715    0.7214 C   0  0  0  0  0  0  0  0  0  0  0  0
    0.5427   -2.1808    0.1216 H   0  0  0  0  0  0  0  0  0  0  0  0
    1.6329   -0.8713    0.5512 H   0  0  0  0  0  0  0  0  0  0  0  0
    0.5152   -1.6424    2.1847 C   0  0  0  0  0  0  0  0  0  0  0  0
    0.9012   -0.8439    3.2438 N   0  3  0  0  0  0  0  0  0  0  0  0
    1.2478    0.1134    3.1328 H   0  0  0  0  0  0  0  0  0  0  0  0
    0.6483   -1.5058    4.3903 C   0  0  0  0  0  0  0  0  0  0  0  0
    0.8354   -1.1240    5.3920 H   0  0  0  0  0  0  0  0  0  0  0  0
    0.1111   -2.7077    4.0817 N   0  0  0  0  0  0  0  0  0  0  0  0
   -0.1822   -3.4189    4.7463 H   0  0  0  0  0  0  0  0  0  0  0  0
    0.0206   -2.8099    2.7004 C   0  0  0  0  0  0  0  0  0  0  0  0
   -0.3667   -3.6491    2.1293 H   0  0  0  0  0  0  0  0  0  0  0  0
   -0.1530    0.2964   -1.1982 C   0  0  0  0  0  0  0  0  0  0  0  0
    0.5802    1.2711   -1.3717 O   0  0  0  0  0  0  0  0  0  0  0  0
   -0.7732   -0.3367   -2.2015 N   0  0  0  0  0  0  0  0  0  0  0  0
   -1.3459   -1.1328   -1.9657 H   0  0  0  0  0  0  0  0  0  0  0  0
   -0.6897    0.0360   -3.6169 C   0  0  0  0  0  0  0  0  0  0  0  0
    0.0084   -0.6226   -4.1375 H   0  0  0  0  0  0  0  0  0  0  0  0
   -1.6710   -0.0577   -4.0853 H   0  0  0  0  0  0  0  0  0  0  0  0
   -0.3486    1.0674   -3.7285 H   0  0  0  0  0  0  0  0  0  0  0  0
  5  6  2  0  0  0  0
  5  7  1  0  0  0  0
  2  3  1  0  0  0  0
  2  4  1  0  0  0  0
  2  5  1  0  0  0  0
  1  2  1  0  0  0  0
 23 24  2  0  0  0  0
 23 25  1  0  0  0  0
 21 22  1  0  0  0  0
 19 20  1  0  0  0  0
 19 21  1  0  0  0  0
 17 18  1  0  0  0  0
 17 19  1  0  0  0  0
 15 16  1  0  0  0  0
 15 17  2  0  0  0  0
 14 15  1  0  0  0  0
 14 21  2  0  0  0  0
 11 12  1  0  0  0  0
 11 13  1  0  0  0  0
 11 14  1  0  0  0  0
  9 10  1  0  0  0  0
  9 11  1  0  0  0  0
  9 23  1  0  0  0  0
  7  8  1  0  0  0  0
  7  9  1  0  0  0  0
 27 28  1  0  0  0  0
 27 29  1  0  0  0  0
 27 30  1  0  0  0  0
 25 26  1  0  0  0  0
 25 27  1  0  0  0  0
M  CHG  1  15   1
M  END
$$$$
default_name
  -OEChem-01062215323D

 30 30  0     1  0  0  0  0  0999 V2000
   -3.5507   -3.2183    1.8116 H   0  0  0  0  0  0  0  0  0  0  0  0
   -3.4597   -2.3913    1.1076 C   0  0  0  0  0  0  0  0  0  0  0  0
   -4.1577   -1.6043    1.3866 H   0  0  0  0  0  0  0  0  0  0  0  0
   -3.6807   -2.7523    0.1036 H   0  0  0  0  0  0  0  0  0  0  0  0
   -2.0477   -1.8543    1.1546 C   0  0  0  0  0  0  0  0  0  0  0  0
   -1.2227   -2.3443    1.9146 O   0  0  0  0  0  0  0  0  0  0  0  0
   -1.7517   -0.8483    0.3266 N   0  0  0  0  0  0  0  0  0  0  0  0
   -2.4847   -0.5123   -0.2804 H   0  0  0  0  0  0  0  0  0  0  0  0
   -0.4117   -0.2463    0.2186 C   0  0  1  0  0  0  0  0  0  0  0  0
   -0.3696    0.6135    0.8919 H   0  0  0  0  0  0  0  0  0  0  0  0
    0.6311   -1.2715    0.7214 C   0  0  0  0  0  0  0  0  0  0  0  0
    0.5427   -2.1808    0.1216 H   0  0  0  0  0  0  0  0  0  0  0  0
    1.6329   -0.8713    0.5512 H   0  0  0  0  0  0  0  0  0  0  0  0
    0.5152   -1.6424    2.1847 C   0  0  0  0  0  0  0  0  0  0  0  0
    0.9012   -0.8439    3.2438 N   0  3  0  0  0  0  0  0  0  0  0  0
    1.2478    0.1134    3.1328 H   0  0  0  0  0  0  0  0  0  0  0  0
    0.6483   -1.5058    4.3903 C   0  0  0  0  0  0  0  0  0  0  0  0
    0.8354   -1.1240    5.3920 H   0  0  0  0  0  0  0  0  0  0  0  0
    0.1111   -2.7077    4.0817 N   0  0  0  0  0  0  0  0  0  0  0  0
   -0.1822   -3.4189    4.7463 H   0  0  0  0  0  0  0  0  0  0  0  0
    0.0206   -2.8099    2.7004 C   0  0  0  0  0  0  0  0  0  0  0  0
   -0.3667   -3.6491    2.1293 H   0  0  0  0  0  0  0  0  0  0  0  0
   -0.1530    0.2964   -1.1982 C   0  0  0  0  0  0  0  0  0  0  0  0
    0.7752    1.0782   -1.4100 O   0  0  0  0  0  0  0  0  0  0  0  0
   -0.9910   -0.1166   -2.1570 N   0  0  0  0  0  0  0  0  0  0  0  0
   -1.7158   -0.7665   -1.8929 H   0  0  0  0  0  0  0  0  0  0  0  0
   -0.9425    0.3025   -3.5610 C   0  0  0  0  0  0  0  0  0  0  0  0
   -0.4705   -0.4730   -4.1676 H   0  0  0  0  0  0  0  0  0  0  0  0
   -1.9541    0.4690   -3.9352 H   0  0  0  0  0  0  0  0  0  0  0  0
   -0.3745    1.2287   -3.6715 H   0  0  0  0  0  0  0  0  0  0  0  0
  5  6  2  0  0  0  0
  5  7  1  0  0  0  0
  2  3  1  0  0  0  0
  2  4  1  0  0  0  0
  2  5  1  0  0  0  0
  1  2  1  0  0  0  0
 23 24  2  0  0  0  0
 23 25  1  0  0  0  0
 21 22  1  0  0  0  0
 19 20  1  0  0  0  0
 19 21  1  0  0  0  0
 17 18  1  0  0  0  0
 17 19  1  0  0  0  0
 15 16  1  0  0  0  0
 15 17  2  0  0  0  0
 14 15  1  0  0  0  0
 14 21  2  0  0  0  0
 11 12  1  0  0  0  0
 11 13  1  0  0  0  0
 11 14  1  0  0  0  0
  9 10  1  0  0  0  0
  9 11  1  0  0  0  0
  9 23  1  0  0  0  0
  7  8  1  0  0  0  0
  7  9  1  0  0  0  0
 27 28  1  0  0  0  0
 27 29  1  0  0  0  0
 27 30  1  0  0  0  0
 25 26  1  0  0  0  0
 25 27  1  0  0  0  0
M  CHG  1  15   1
M  END
$$$$
default_name
  -OEChem-01062215323D

 30 30  0     1  0  0  0  0  0999 V2000
   -3.5507   -3.2183    1.8116 H   0  0  0  0  0  0  0  0  0  0  0  0
   -3.4597   -2.3913    1.1076 C   0  0  0  0  0  0  0  0  0  0  0  0
   -4.1577   -1.6043    1.3866 H   0  0  0  0  0  0  0  0  0  0  0  0
   -3.6807   -2.7523    0.1036 H   0  0  0  0  0  0  0  0  0  0  0  0
   -2.0477   -1.8543    1.1546 C   0  0  0  0  0  0  0  0  0  0  0  0
   -1.2227   -2.3443    1.9146 O   0  0  0  0  0  0  0  0  0  0  0  0
   -1.7517   -0.8483    0.3266 N   0  0  0  0  0  0  0  0  0  0  0  0
   -2.4847   -0.5123   -0.2804 H   0  0  0  0  0  0  0  0  0  0  0  0
   -0.4117   -0.2463    0.2186 C   0  0  1  0  0  0  0  0  0  0  0  0
   -0.3696    0.6135    0.8919 H   0  0  0  0  0  0  0  0  0  0  0  0
    0.6311   -1.2715    0.7214 C   0  0  0  0  0  0  0  0  0  0  0  0
    0.5427   -2.1808    0.1216 H   0  0  0  0  0  0  0  0  0  0  0  0
    1.6329   -0.8713    0.5512 H   0  0  0  0  0  0  0  0  0  0  0  0
    0.5152   -1.6424    2.1847 C   0  0  0  0  0  0  0  0  0  0  0  0
    0.9012   -0.8439    3.2438 N   0  3  0  0  0  0  0  0  0  0  0  0
    1.2478    0.1134    3.1328 H   0  0  0  0  0  0  0  0  0  0  0  0
    0.6483   -1.5058    4.3903 C   0  0  0  0  0  0  0  0  0  0  0  0
    0.8354   -1.1240    5.3920 H   0  0  0  0  0  0  0  0  0  0  0  0
    0.1111   -2.7077    4.0817 N   0  0  0  0  0  0  0  0  0  0  0  0
   -0.1822   -3.4189    4.7463 H   0  0  0  0  0  0  0  0  0  0  0  0
    0.0206   -2.8099    2.7004 C   0  0  0  0  0  0  0  0  0  0  0  0
   -0.3667   -3.6491    2.1293 H   0  0  0  0  0  0  0  0  0  0  0  0
   -0.1530    0.2964   -1.1982 C   0  0  0  0  0  0  0  0  0  0  0  0
    0.9141    0.8472   -1.4732 O   0  0  0  0  0  0  0  0  0  0  0  0
   -1.1450    0.1460   -2.0845 N   0  0  0  0  0  0  0  0  0  0  0  0
   -1.9792   -0.3277   -1.7729 H   0  0  0  0  0  0  0  0  0  0  0  0
   -1.1180    0.6177   -3.4723 C   0  0  0  0  0  0  0  0  0  0  0  0
   -0.9002   -0.2130   -4.1465 H   0  0  0  0  0  0  0  0  0  0  0  0
   -2.0883    1.0386   -3.7416 H   0  0  0  0  0  0  0  0  0  0  0  0
   -0.3558    1.3881   -3.6070 H   0  0  0  0  0  0  0  0  0  0  0  0
  5  6  2  0  0  0  0
  5  7  1  0  0  0  0
  2  3  1  0  0  0  0
  2  4  1  0  0  0  0
  2  5  1  0  0  0  0
  1  2  1  0  0  0  0
 23 24  2  0  0  0  0
 23 25  1  0  0  0  0
 21 22  1  0  0  0  0
 19 20  1  0  0  0  0
 19 21  1  0  0  0  0
 17 18  1  0  0  0  0
 17 19  1  0  0  0  0
 15 16  1  0  0  0  0
 15 17  2  0  0  0  0
 14 15  1  0  0  0  0
 14 21  2  0  0  0  0
 11 12  1  0  0  0  0
 11 13  1  0  0  0  0
 11 14  1  0  0  0  0
  9 10  1  0  0  0  0
  9 11  1  0  0  0  0
  9 23  1  0  0  0  0
  7  8  1  0  0  0  0
  7  9  1  0  0  0  0
 27 28  1  0  0  0  0
 27 29  1  0  0  0  0
 27 30  1  0  0  0  0
 25 26  1  0  0  0  0
 25 27  1  0  0  0  0
M  CHG  1  15   1
M  END
$$$$
default_name
  -OEChem-01062215323D

 30 30  0     1  0  0  0  0  0999 V2000
   -3.5507   -3.2183    1.8116 H   0  0  0  0  0  0  0  0  0  0  0  0
   -3.4597   -2.3913    1.1076 C   0  0  0  0  0  0  0  0  0  0  0  0
   -4.1577   -1.6043    1.3866 H   0  0  0  0  0  0  0  0  0  0  0  0
   -3.6807   -2.7523    0.1036 H   0  0  0  0  0  0  0  0  0  0  0  0
   -2.0477   -1.8543    1.1546 C   0  0  0  0  0  0  0  0  0  0  0  0
   -1.2227   -2.3443    1.9146 O   0  0  0  0  0  0  0  0  0  0  0  0
   -1.7517   -0.8483    0.3266 N   0  0  0  0  0  0  0  0  0  0  0  0
   -2.4847   -0.5123   -0.2804 H   0  0  0  0  0  0  0  0  0  0  0  0
   -0.4117   -0.2463    0.2186 C   0  0  1  0  0  0  0  0  0  0  0  0
   -0.3696    0.6135    0.8919 H   0  0  0  0  0  0  0  0  0  0  0  0
    0.6311   -1.2715    0.7214 C   0  0  0  0  0  0  0  0  0  0  0  0
    0.5427   -2.1808    0.1216 H   0  0  0  0  0  0  0  0  0  0  0  0
    1.6329   -0.8713    0.5512 H   0  0  0  0  0  0  0  0  0  0  0  0
    0.5152   -1.6424    2.1847 C   0  0  0  0  0  0  0  0  0  0  0  0
    0.9012   -0.8439    3.2438 N   0  3  0  0  0  0  0  0  0  0  0  0
    1.2478    0.1134    3.1328 H   0  0  0  0  0  0  0  0  0  0  0  0
    0.6483   -1.5058    4.3903 C   0  0  0  0  0  0  0  0  0  0  0  0
    0.8354   -1.1240    5.3920 H   0  0  0  0  0  0  0  0  0  0  0  0
    0.1111   -2.7077    4.0817 N   0  0  0  0  0  0  0  0  0  0  0  0
   -0.1822   -3.4189    4.7463 H   0  0  0  0  0  0  0  0  0  0  0  0
    0.0206   -2.8099    2.7004 C   0  0  0  0  0  0  0  0  0  0  0  0
   -0.3667   -3.6491    2.1293 H   0  0  0  0  0  0  0  0  0  0  0  0
   -0.1530    0.2964   -1.1982 C   0  0  0  0  0  0  0  0  0  0  0  0
    0.9875    0.5937   -1.5569 O   0  0  0  0  0  0  0  0  0  0  0  0
   -1.2245    0.4332   -1.9890 N   0  0  0  0  0  0  0  0  0  0  0  0
   -2.1181    0.1537   -1.6139 H   0  0  0  0  0  0  0  0  0  0  0  0
   -1.2044    0.9602   -3.3569 C   0  0  0  0  0  0  0  0  0  0  0  0
   -1.2514    0.1395   -4.0756 H   0  0  0  0  0  0  0  0  0  0  0  0
   -2.0646    1.6124   -3.5174 H   0  0  0  0  0  0  0  0  0  0  0  0
   -0.2940    1.5348   -3.5395 H   0  0  0  0  0  0  0  0  0  0  0  0
  5  6  2  0  0  0  0
  5  7  1  0  0  0  0
  2  3  1  0  0  0  0
  2  4  1  0  0  0  0
  2  5  1  0  0  0  0
  1  2  1  0  0  0  0
 23 24  2  0  0  0  0
 23 25  1  0  0  0  0
 21 22  1  0  0  0  0
 19 20  1  0  0  0  0
 19 21  1  0  0  0  0
 17 18  1  0  0  0  0
 17 19  1  0  0  0  0
 15 16  1  0  0  0  0
 15 17  2  0  0  0  0
 14 15  1  0  0  0  0
 14 21  2  0  0  0  0
 11 12  1  0  0  0  0
 11 13  1  0  0  0  0
 11 14  1  0  0  0  0
  9 10  1  0  0  0  0
  9 11  1  0  0  0  0
  9 23  1  0  0  0  0
  7  8  1  0  0  0  0
  7  9  1  0  0  0  0
 27 28  1  0  0  0  0
 27 29  1  0  0  0  0
 27 30  1  0  0  0  0
 25 26  1  0  0  0  0
 25 27  1  0  0  0  0
M  CHG  1  15   1
M  END
$$$$
default_name
  -OEChem-01062215323D

 30 30  0     1  0  0  0  0  0999 V2000
   -3.5507   -3.2183    1.8116 H   0  0  0  0  0  0  0  0  0  0  0  0
   -3.4597   -2.3913    1.1076 C   0  0  0  0  0  0  0  0  0  0  0  0
   -4.1577   -1.6043    1.3866 H   0  0  0  0  0  0  0  0  0  0  0  0
   -3.6807   -2.7523    0.1036 H   0  0  0  0  0  0  0  0  0  0  0  0
   -2.0477   -1.8543    1.1546 C   0  0  0  0  0  0  0  0  0  0  0  0
   -1.2227   -2.3443    1.9146 O   0  0  0  0  0  0  0  0  0  0  0  0
   -1.7517   -0.8483    0.3266 N   0  0  0  0  0  0  0  0  0  0  0  0
   -2.4847   -0.5123   -0.2804 H   0  0  0  0  0  0  0  0  0  0  0  0
   -0.4117   -0.2463    0.2186 C   0  0  1  0  0  0  0  0  0  0  0  0
   -0.3696    0.6135    0.8919 H   0  0  0  0  0  0  0  0  0  0  0  0
    0.6311   -1.2715    0.7214 C   0  0  0  0  0  0  0  0  0  0  0  0
    0.5427   -2.1808    0.1216 H   0  0  0  0  0  0  0  0  0  0  0  0
    1.6329   -0.8713    0.5512 H   0  0  0  0  0  0  0  0  0  0  0  0
    0.5152   -1.6424    2.1847 C   0  0  0  0  0  0  0  0  0  0  0  0
    0.9012   -0.8439    3.2438 N   0  3  0  0  0  0  0  0  0  0  0  0
    1.2478    0.1134    3.1328 H   0  0  0  0  0  0  0  0  0  0  0  0
    0.6483   -1.5058    4.3903 C   0  0  0  0  0  0  0  0  0  0  0  0
    0.8354   -1.1240    5.3920 H   0  0  0  0  0  0  0  0  0  0  0  0
    0.1111   -2.7077    4.0817 N   0  0  0  0  0  0  0  0  0  0  0  0
   -0.1822   -3.4189    4.7463 H   0  0  0  0  0  0  0  0  0  0  0  0
    0.0206   -2.8099    2.7004 C   0  0  0  0  0  0  0  0  0  0  0  0
   -0.3667   -3.6491    2.1293 H   0  0  0  0  0  0  0  0  0  0  0  0
   -0.1530    0.2964   -1.1982 C   0  0  0  0  0  0  0  0  0  0  0  0
    0.9903    0.3349   -1.6555 O   0  0  0  0  0  0  0  0  0  0  0  0
   -1.2242    0.7254   -1.8770 N   0  0  0  0  0  0  0  0  0  0  0  0
   -2.1231    0.6449   -1.4267 H   0  0  0  0  0  0  0  0  0  0  0  0
   -1.1958    1.3065   -3.2227 C   0  0  0  0  0  0  0  0  0  0  0  0
   -1.5002    0.5607   -3.9597 H   0  0  0  0  0  0  0  0  0  0  0  0
   -1.8846    2.1513   -3.2782 H   0  0  0  0  0  0  0  0  0  0  0  0
   -0.1931    1.6589   -3.4736 H   0  0  0  0  0  0  0  0  0  0  0  0
  5  6  2  0  0  0  0
  5  7  1  0  0  0  0
  2  3  1  0  0  0  0
  2  4  1  0  0  0  0
  2  5  1  0  0  0  0
  1  2  1  0  0  0  0
 23 24  2  0  0  0  0
 23 25  1  0  0  0  0
 21 22  1  0  0  0  0
 19 20  1  0  0  0  0
 19 21  1  0  0  0  0
 17 18  1  0  0  0  0
 17 19  1  0  0  0  0
 15 16  1  0  0  0  0
 15 17  2  0  0  0  0
 14 15  1  0  0  0  0
 14 21  2  0  0  0  0
 11 12  1  0  0  0  0
 11 13  1  0  0  0  0
 11 14  1  0  0  0  0
  9 10  1  0  0  0  0
  9 11  1  0  0  0  0
  9 23  1  0  0  0  0
  7  8  1  0  0  0  0
  7  9  1  0  0  0  0
 27 28  1  0  0  0  0
 27 29  1  0  0  0  0
 27 30  1  0  0  0  0
 25 26  1  0  0  0  0
 25 27  1  0  0  0  0
M  CHG  1  15   1
M  END
$$$$
default_name
  -OEChem-01062215323D

 30 30  0     1  0  0  0  0  0999 V2000
   -3.5507   -3.2183    1.8116 H   0  0  0  0  0  0  0  0  0  0  0  0
   -3.4597   -2.3913    1.1076 C   0  0  0  0  0  0  0  0  0  0  0  0
   -4.1577   -1.6043    1.3866 H   0  0  0  0  0  0  0  0  0  0  0  0
   -3.6807   -2.7523    0.1036 H   0  0  0  0  0  0  0  0  0  0  0  0
   -2.0477   -1.8543    1.1546 C   0  0  0  0  0  0  0  0  0  0  0  0
   -1.2227   -2.3443    1.9146 O   0  0  0  0  0  0  0  0  0  0  0  0
   -1.7517   -0.8483    0.3266 N   0  0  0  0  0  0  0  0  0  0  0  0
   -2.4847   -0.5123   -0.2804 H   0  0  0  0  0  0  0  0  0  0  0  0
   -0.4117   -0.2463    0.2186 C   0  0  1  0  0  0  0  0  0  0  0  0
   -0.3696    0.6135    0.8919 H   0  0  0  0  0  0  0  0  0  0  0  0
    0.6311   -1.2715    0.7214 C   0  0  0  0  0  0  0  0  0  0  0  0
    0.5427   -2.1808    0.1216 H   0  0  0  0  0  0  0  0  0  0  0  0
    1.6329   -0.8713    0.5512 H   0  0  0  0  0  0  0  0  0  0  0  0
    0.5152   -1.6424    2.1847 C   0  0  0  0  0  0  0  0  0  0  0  0
    0.9012   -0.8439    3.2438 N   0  3  0  0  0  0  0  0  0  0  0  0
    1.2478    0.1134    3.1328 H   0  0  0  0  0  0  0  0  0  0  0  0
    0.6483   -1.5058    4.3903 C   0  0  0  0  0  0  0  0  0  0  0  0
    0.8354   -1.1240    5.3920 H   0  0  0  0  0  0  0  0  0  0  0  0
    0.1111   -2.7077    4.0817 N   0  0  0  0  0  0  0  0  0  0  0  0
   -0.1822   -3.4189    4.7463 H   0  0  0  0  0  0  0  0  0  0  0  0
    0.0206   -2.8099    2.7004 C   0  0  0  0  0  0  0  0  0  0  0  0
   -0.3667   -3.6491    2.1293 H   0  0  0  0  0  0  0  0  0  0  0  0
   -0.1530    0.2964   -1.1982 C   0  0  0  0  0  0  0  0  0  0  0  0
    0.9223    0.0886   -1.7622 O   0  0  0  0  0  0  0  0  0  0  0  0
   -1.1440    1.0026   -1.7562 N   0  0  0  0  0  0  0  0  0  0  0  0
   -1.9938    1.1124   -1.2240 H   0  0  0  0  0  0  0  0  0  0  0  0
   -1.0926    1.6332   -3.0787 C   0  0  0  0  0  0  0  0  0  0  0  0
   -1.6295    1.0217   -3.8067 H   0  0  0  0  0  0  0  0  0  0  0  0
   -1.5604    2.6185   -3.0400 H   0  0  0  0  0  0  0  0  0  0  0  0
   -0.0600    1.7518   -3.4137 H   0  0  0  0  0  0  0  0  0  0  0  0
  5  6  2  0  0  0  0
  5  7  1  0  0  0  0
  2  3  1  0  0  0  0
  2  4  1  0  0  0  0
  2  5  1  0  0  0  0
  1  2  1  0  0  0  0
 23 24  2  0  0  0  0
 23 25  1  0  0  0  0
 21 22  1  0  0  0  0
 19 20  1  0  0  0  0
 19 21  1  0  0  0  0
 17 18  1  0  0  0  0
 17 19  1  0  0  0  0
 15 16  1  0  0  0  0
 15 17  2  0  0  0  0
 14 15  1  0  0  0  0
 14 21  2  0  0  0  0
 11 12  1  0  0  0  0
 11 13  1  0  0  0  0
 11 14  1  0  0  0  0
  9 10  1  0  0  0  0
  9 11  1  0  0  0  0
  9 23  1  0  0  0  0
  7  8  1  0  0  0  0
  7  9  1  0  0  0  0
 27 28  1  0  0  0  0
 27 29  1  0  0  0  0
 27 30  1  0  0  0  0
 25 26  1  0  0  0  0
 25 27  1  0  0  0  0
M  CHG  1  15   1
M  END
$$$$
default_name
  -OEChem-01062215323D

 30 30  0     1  0  0  0  0  0999 V2000
   -3.5507   -3.2183    1.8116 H   0  0  0  0  0  0  0  0  0  0  0  0
   -3.4597   -2.3913    1.1076 C   0  0  0  0  0  0  0  0  0  0  0  0
   -4.1577   -1.6043    1.3866 H   0  0  0  0  0  0  0  0  0  0  0  0
   -3.6807   -2.7523    0.1036 H   0  0  0  0  0  0  0  0  0  0  0  0
   -2.0477   -1.8543    1.1546 C   0  0  0  0  0  0  0  0  0  0  0  0
   -1.2227   -2.3443    1.9146 O   0  0  0  0  0  0  0  0  0  0  0  0
   -1.7517   -0.8483    0.3266 N   0  0  0  0  0  0  0  0  0  0  0  0
   -2.4847   -0.5123   -0.2804 H   0  0  0  0  0  0  0  0  0  0  0  0
   -0.4117   -0.2463    0.2186 C   0  0  1  0  0  0  0  0  0  0  0  0
   -0.3696    0.6135    0.8919 H   0  0  0  0  0  0  0  0  0  0  0  0
    0.6311   -1.2715    0.7214 C   0  0  0  0  0  0  0  0  0  0  0  0
    0.5427   -2.1808    0.1216 H   0  0  0  0  0  0  0  0  0  0  0  0
    1.6329   -0.8713    0.5512 H   0  0  0  0  0  0  0  0  0  0  0  0
    0.5152   -1.6424    2.1847 C   0  0  0  0  0  0  0  0  0  0  0  0
    0.9012   -0.8439    3.2438 N   0  3  0  0  0  0  0  0  0  0  0  0
    1.2478    0.1134    3.1328 H   0  0  0  0  0  0  0  0  0  0  0  0
    0.6483   -1.5058    4.3903 C   0  0  0  0  0  0  0  0  0  0  0  0
    0.8354   -1.1240    5.3920 H   0  0  0  0  0  0  0  0  0  0  0  0
    0.1111   -2.7077    4.0817 N   0  0  0  0  0  0  0  0  0  0  0  0
   -0.1822   -3.4189    4.7463 H   0  0  0  0  0  0  0  0  0  0  0  0
    0.0206   -2.8099    2.7004 C   0  0  0  0  0  0  0  0  0  0  0  0
   -0.3667   -3.6491    2.1293 H   0  0  0  0  0  0  0  0  0  0  0  0
   -0.1530    0.2964   -1.1982 C   0  0  0  0  0  0  0  0  0  0  0  0
    0.7883   -0.1284   -1.8698 O   0  0  0  0  0  0  0  0  0  0  0  0
   -0.9895    1.2461   -1.6347 N   0  0  0  0  0  0  0  0  0  0  0  0
   -1.7390    1.5243   -1.0197 H   0  0  0  0  0  0  0  0  0  0  0  0
   -0.9021    1.9178   -2.9349 C   0  0  0  0  0  0  0  0  0  0  0  0
   -1.6307    1.4911   -3.6271 H   0  0  0  0  0  0  0  0  0  0  0  0
   -1.1143    2.9821   -2.8193 H   0  0  0  0  0  0  0  0  0  0  0  0
    0.0961    1.8073   -3.3639 H   0  0  0  0  0  0  0  0  0  0  0  0
  5  6  2  0  0  0  0
  5  7  1  0  0  0  0
  2  3  1  0  0  0  0
  2  4  1  0  0  0  0
  2  5  1  0  0  0  0
  1  2  1  0  0  0  0
 23 24  2  0  0  0  0
 23 25  1  0  0  0  0
 21 22  1  0  0  0  0
 19 20  1  0  0  0  0
 19 21  1  0  0  0  0
 17 18  1  0  0  0  0
 17 19  1  0  0  0  0
 15 16  1  0  0  0  0
 15 17  2  0  0  0  0
 14 15  1  0  0  0  0
 14 21  2  0  0  0  0
 11 12  1  0  0  0  0
 11 13  1  0  0  0  0
 11 14  1  0  0  0  0
  9 10  1  0  0  0  0
  9 11  1  0  0  0  0
  9 23  1  0  0  0  0
  7  8  1  0  0  0  0
  7  9  1  0  0  0  0
 27 28  1  0  0  0  0
 27 29  1  0  0  0  0
 27 30  1  0  0  0  0
 25 26  1  0  0  0  0
 25 27  1  0  0  0  0
M  CHG  1  15   1
M  END
$$$$
default_name
  -OEChem-01062215323D

 30 30  0     1  0  0  0  0  0999 V2000
   -3.5507   -3.2183    1.8116 H   0  0  0  0  0  0  0  0  0  0  0  0
   -3.4597   -2.3913    1.1076 C   0  0  0  0  0  0  0  0  0  0  0  0
   -4.1577   -1.6043    1.3866 H   0  0  0  0  0  0  0  0  0  0  0  0
   -3.6807   -2.7523    0.1036 H   0  0  0  0  0  0  0  0  0  0  0  0
   -2.0477   -1.8543    1.1546 C   0  0  0  0  0  0  0  0  0  0  0  0
   -1.2227   -2.3443    1.9146 O   0  0  0  0  0  0  0  0  0  0  0  0
   -1.7517   -0.8483    0.3266 N   0  0  0  0  0  0  0  0  0  0  0  0
   -2.4847   -0.5123   -0.2804 H   0  0  0  0  0  0  0  0  0  0  0  0
   -0.4117   -0.2463    0.2186 C   0  0  1  0  0  0  0  0  0  0  0  0
   -0.3696    0.6135    0.8919 H   0  0  0  0  0  0  0  0  0  0  0  0
    0.6311   -1.2715    0.7214 C   0  0  0  0  0  0  0  0  0  0  0  0
    0.5427   -2.1808    0.1216 H   0  0  0  0  0  0  0  0  0  0  0  0
    1.6329   -0.8713    0.5512 H   0  0  0  0  0  0  0  0  0  0  0  0
    0.5152   -1.6424    2.1847 C   0  0  0  0  0  0  0  0  0  0  0  0
    0.9012   -0.8439    3.2438 N   0  3  0  0  0  0  0  0  0  0  0  0
    1.2478    0.1134    3.1328 H   0  0  0  0  0  0  0  0  0  0  0  0
    0.6483   -1.5058    4.3903 C   0  0  0  0  0  0  0  0  0  0  0  0
    0.8354   -1.1240    5.3920 H   0  0  0  0  0  0  0  0  0  0  0  0
    0.1111   -2.7077    4.0817 N   0  0  0  0  0  0  0  0  0  0  0  0
   -0.1822   -3.4189    4.7463 H   0  0  0  0  0  0  0  0  0  0  0  0
    0.0206   -2.8099    2.7004 C   0  0  0  0  0  0  0  0  0  0  0  0
   -0.3667   -3.6491    2.1293 H   0  0  0  0  0  0  0  0  0  0  0  0
   -0.1530    0.2964   -1.1982 C   0  0  0  0  0  0  0  0  0  0  0  0
    0.5973   -0.3015   -1.9710 O   0  0  0  0  0  0  0  0  0  0  0  0
   -0.7711    1.4392   -1.5209 N   0  0  0  0  0  0  0  0  0  0  0  0
   -1.3761    1.8526   -0.8277 H   0  0  0  0  0  0  0  0  0  0  0  0
   -0.6370    2.1412   -2.8010 C   0  0  0  0  0  0  0  0  0  0  0  0
   -1.5036    1.9371   -3.4331 H   0  0  0  0  0  0  0  0  0  0  0  0
   -0.5765    3.2175   -2.6310 H   0  0  0  0  0  0  0  0  0  0  0  0
    0.2646    1.8215   -3.3277 H   0  0  0  0  0  0  0  0  0  0  0  0
  5  6  2  0  0  0  0
  5  7  1  0  0  0  0
  2  3  1  0  0  0  0
  2  4  1  0  0  0  0
  2  5  1  0  0  0  0
  1  2  1  0  0  0  0
 23 24  2  0  0  0  0
 23 25  1  0  0  0  0
 21 22  1  0  0  0  0
 19 20  1  0  0  0  0
 19 21  1  0  0  0  0
 17 18  1  0  0  0  0
 17 19  1  0  0  0  0
 15 16  1  0  0  0  0
 15 17  2  0  0  0  0
 14 15  1  0  0  0  0
 14 21  2  0  0  0  0
 11 12  1  0  0  0  0
 11 13  1  0  0  0  0
 11 14  1  0  0  0  0
  9 10  1  0  0  0  0
  9 11  1  0  0  0  0
  9 23  1  0  0  0  0
  7  8  1  0  0  0  0
  7  9  1  0  0  0  0
 27 28  1  0  0  0  0
 27 29  1  0  0  0  0
 27 30  1  0  0  0  0
 25 26  1  0  0  0  0
 25 27  1  0  0  0  0
M  CHG  1  15   1
M  END
$$$$
default_name
  -OEChem-01062215323D

 30 30  0     1  0  0  0  0  0999 V2000
   -3.5507   -3.2183    1.8116 H   0  0  0  0  0  0  0  0  0  0  0  0
   -3.4597   -2.3913    1.1076 C   0  0  0  0  0  0  0  0  0  0  0  0
   -4.1577   -1.6043    1.3866 H   0  0  0  0  0  0  0  0  0  0  0  0
   -3.6807   -2.7523    0.1036 H   0  0  0  0  0  0  0  0  0  0  0  0
   -2.0477   -1.8543    1.1546 C   0  0  0  0  0  0  0  0  0  0  0  0
   -1.2227   -2.3443    1.9146 O   0  0  0  0  0  0  0  0  0  0  0  0
   -1.7517   -0.8483    0.3266 N   0  0  0  0  0  0  0  0  0  0  0  0
   -2.4847   -0.5123   -0.2804 H   0  0  0  0  0  0  0  0  0  0  0  0
   -0.4117   -0.2463    0.2186 C   0  0  1  0  0  0  0  0  0  0  0  0
   -0.3696    0.6135    0.8919 H   0  0  0  0  0  0  0  0  0  0  0  0
    0.6311   -1.2715    0.7214 C   0  0  0  0  0  0  0  0  0  0  0  0
    0.5427   -2.1808    0.1216 H   0  0  0  0  0  0  0  0  0  0  0  0
    1.6329   -0.8713    0.5512 H   0  0  0  0  0  0  0  0  0  0  0  0
    0.5152   -1.6424    2.1847 C   0  0  0  0  0  0  0  0  0  0  0  0
    0.9012   -0.8439    3.2438 N   0  3  0  0  0  0  0  0  0  0  0  0
    1.2478    0.1134    3.1328 H   0  0  0  0  0  0  0  0  0  0  0  0
    0.6483   -1.5058    4.3903 C   0  0  0  0  0  0  0  0  0  0  0  0
    0.8354   -1.1240    5.3920 H   0  0  0  0  0  0  0  0  0  0  0  0
    0.1111   -2.7077    4.0817 N   0  0  0  0  0  0  0  0  0  0  0  0
   -0.1822   -3.4189    4.7463 H   0  0  0  0  0  0  0  0  0  0  0  0
    0.0206   -2.8099    2.7004 C   0  0  0  0  0  0  0  0  0  0  0  0
   -0.3667   -3.6491    2.1293 H   0  0  0  0  0  0  0  0  0  0  0  0
   -0.1530    0.2964   -1.1982 C   0  0  0  0  0  0  0  0  0  0  0  0
    0.3623   -0.4188   -2.0588 O   0  0  0  0  0  0  0  0  0  0  0  0
   -0.5038    1.5687   -1.4225 N   0  0  0  0  0  0  0  0  0  0  0  0
   -0.9299    2.0749   -0.6611 H   0  0  0  0  0  0  0  0  0  0  0  0
   -0.3156    2.2879   -2.6861 C   0  0  0  0  0  0  0  0  0  0  0  0
   -1.2568    2.3291   -3.2378 H   0  0  0  0  0  0  0  0  0  0  0  0
    0.0162    3.3086   -2.4879 H   0  0  0  0  0  0  0  0  0  0  0  0
    0.4341    1.7935   -3.3075 H   0  0  0  0  0  0  0  0  0  0  0  0
  5  6  2  0  0  0  0
  5  7  1  0  0  0  0
  2  3  1  0  0  0  0
  2  4  1  0  0  0  0
  2  5  1  0  0  0  0
  1  2  1  0  0  0  0
 23 24  2  0  0  0  0
 23 25  1  0  0  0  0
 21 22  1  0  0  0  0
 19 20  1  0  0  0  0
 19 21  1  0  0  0  0
 17 18  1  0  0  0  0
 17 19  1  0  0  0  0
 15 16  1  0  0  0  0
 15 17  2  0  0  0  0
 14 15  1  0  0  0  0
 14 21  2  0  0  0  0
 11 12  1  0  0  0  0
 11 13  1  0  0  0  0
 11 14  1  0  0  0  0
  9 10  1  0  0  0  0
  9 11  1  0  0  0  0
  9 23  1  0  0  0  0
  7  8  1  0  0  0  0
  7  9  1  0  0  0  0
 27 28  1  0  0  0  0
 27 29  1  0  0  0  0
 27 30  1  0  0  0  0
 25 26  1  0  0  0  0
 25 27  1  0  0  0  0
M  CHG  1  15   1
M  END
$$$$
default_name
  -OEChem-01062215323D

 30 30  0     1  0  0  0  0  0999 V2000
   -3.5507   -3.2183    1.8116 H   0  0  0  0  0  0  0  0  0  0  0  0
   -3.4597   -2.3913    1.1076 C   0  0  0  0  0  0  0  0  0  0  0  0
   -4.1577   -1.6043    1.3866 H   0  0  0  0  0  0  0  0  0  0  0  0
   -3.6807   -2.7523    0.1036 H   0  0  0  0  0  0  0  0  0  0  0  0
   -2.0477   -1.8543    1.1546 C   0  0  0  0  0  0  0  0  0  0  0  0
   -1.2227   -2.3443    1.9146 O   0  0  0  0  0  0  0  0  0  0  0  0
   -1.7517   -0.8483    0.3266 N   0  0  0  0  0  0  0  0  0  0  0  0
   -2.4847   -0.5123   -0.2804 H   0  0  0  0  0  0  0  0  0  0  0  0
   -0.4117   -0.2463    0.2186 C   0  0  1  0  0  0  0  0  0  0  0  0
   -0.3696    0.6135    0.8919 H   0  0  0  0  0  0  0  0  0  0  0  0
    0.6311   -1.2715    0.7214 C   0  0  0  0  0  0  0  0  0  0  0  0
    0.5427   -2.1808    0.1216 H   0  0  0  0  0  0  0  0  0  0  0  0
    1.6329   -0.8713    0.5512 H   0  0  0  0  0  0  0  0  0  0  0  0
    0.5152   -1.6424    2.1847 C   0  0  0  0  0  0  0  0  0  0  0  0
    0.9012   -0.8439    3.2438 N   0  3  0  0  0  0  0  0  0  0  0  0
    1.2478    0.1134    3.1328 H   0  0  0  0  0  0  0  0  0  0  0  0
    0.6483   -1.5058    4.3903 C   0  0  0  0  0  0  0  0  0  0  0  0
    0.8354   -1.1240    5.3920 H   0  0  0  0  0  0  0  0  0  0  0  0
    0.1111   -2.7077    4.0817 N   0  0  0  0  0  0  0  0  0  0  0  0
   -0.1822   -3.4189    4.7463 H   0  0  0  0  0  0  0  0  0  0  0  0
    0.0206   -2.8099    2.7004 C   0  0  0  0  0  0  0  0  0  0  0  0
   -0.3667   -3.6491    2.1293 H   0  0  0  0  0  0  0  0  0  0  0  0
   -0.1530    0.2964   -1.1982 C   0  0  0  0  0  0  0  0  0  0  0  0
    0.0994   -0.4722   -2.1273 O   0  0  0  0  0  0  0  0  0  0  0  0
   -0.2058    1.6259   -1.3462 N   0  0  0  0  0  0  0  0  0  0  0  0
   -0.4306    2.1760   -0.5312 H   0  0  0  0  0  0  0  0  0  0  0  0
    0.0404    2.3480   -2.5981 C   0  0  0  0  0  0  0  0  0  0  0  0
   -0.9073    2.6405   -3.0548 H   0  0  0  0  0  0  0  0  0  0  0  0
    0.6234    3.2491   -2.3998 H   0  0  0  0  0  0  0  0  0  0  0  0
    0.5930    1.7252   -3.3047 H   0  0  0  0  0  0  0  0  0  0  0  0
  5  6  2  0  0  0  0
  5  7  1  0  0  0  0
  2  3  1  0  0  0  0
  2  4  1  0  0  0  0
  2  5  1  0  0  0  0
  1  2  1  0  0  0  0
 23 24  2  0  0  0  0
 23 25  1  0  0  0  0
 21 22  1  0  0  0  0
 19 20  1  0  0  0  0
 19 21  1  0  0  0  0
 17 18  1  0  0  0  0
 17 19  1  0  0  0  0
 15 16  1  0  0  0  0
 15 17  2  0  0  0  0
 14 15  1  0  0  0  0
 14 21  2  0  0  0  0
 11 12  1  0  0  0  0
 11 13  1  0  0  0  0
 11 14  1  0  0  0  0
  9 10  1  0  0  0  0
  9 11  1  0  0  0  0
  9 23  1  0  0  0  0
  7  8  1  0  0  0  0
  7  9  1  0  0  0  0
 27 28  1  0  0  0  0
 27 29  1  0  0  0  0
 27 30  1  0  0  0  0
 25 26  1  0  0  0  0
 25 27  1  0  0  0  0
M  CHG  1  15   1
M  END
$$$$
default_name
  -OEChem-01062215323D

 30 30  0     1  0  0  0  0  0999 V2000
   -3.5507   -3.2183    1.8116 H   0  0  0  0  0  0  0  0  0  0  0  0
   -3.4597   -2.3913    1.1076 C   0  0  0  0  0  0  0  0  0  0  0  0
   -4.1577   -1.6043    1.3866 H   0  0  0  0  0  0  0  0  0  0  0  0
   -3.6807   -2.7523    0.1036 H   0  0  0  0  0  0  0  0  0  0  0  0
   -2.0477   -1.8543    1.1546 C   0  0  0  0  0  0  0  0  0  0  0  0
   -1.2227   -2.3443    1.9146 O   0  0  0  0  0  0  0  0  0  0  0  0
   -1.7517   -0.8483    0.3266 N   0  0  0  0  0  0  0  0  0  0  0  0
   -2.4847   -0.5123   -0.2804 H   0  0  0  0  0  0  0  0  0  0  0  0
   -0.4117   -0.2463    0.2186 C   0  0  1  0  0  0  0  0  0  0  0  0
   -0.3696    0.6135    0.8919 H   0  0  0  0  0  0  0  0  0  0  0  0
    0.6311   -1.2715    0.7214 C   0  0  0  0  0  0  0  0  0  0  0  0
    0.5427   -2.1808    0.1216 H   0  0  0  0  0  0  0  0  0  0  0  0
    1.6329   -0.8713    0.5512 H   0  0  0  0  0  0  0  0  0  0  0  0
    0.5152   -1.6424    2.1847 C   0  0  0  0  0  0  0  0  0  0  0  0
    0.9012   -0.8439    3.2438 N   0  3  0  0  0  0  0  0  0  0  0  0
    1.2478    0.1134    3.1328 H   0  0  0  0  0  0  0  0  0  0  0  0
    0.6483   -1.5058    4.3903 C   0  0  0  0  0  0  0  0  0  0  0  0
    0.8354   -1.1240    5.3920 H   0  0  0  0  0  0  0  0  0  0  0  0
    0.1111   -2.7077    4.0817 N   0  0  0  0  0  0  0  0  0  0  0  0
   -0.1822   -3.4189    4.7463 H   0  0  0  0  0  0  0  0  0  0  0  0
    0.0206   -2.8099    2.7004 C   0  0  0  0  0  0  0  0  0  0  0  0
   -0.3667   -3.6491    2.1293 H   0  0  0  0  0  0  0  0  0  0  0  0
   -0.1530    0.2964   -1.1982 C   0  0  0  0  0  0  0  0  0  0  0  0
   -0.1735   -0.4582   -2.1717 O   0  0  0  0  0  0  0  0  0  0  0  0
    0.1026    1.6067   -1.2972 N   0  0  0  0  0  0  0  0  0  0  0  0
    0.0875    2.1491   -0.4469 H   0  0  0  0  0  0  0  0  0  0  0  0
    0.4065    2.3175   -2.5429 C   0  0  0  0  0  0  0  0  0  0  0  0
   -0.4787    2.8500   -2.8963 H   0  0  0  0  0  0  0  0  0  0  0  0
    1.2038    3.0431   -2.3728 H   0  0  0  0  0  0  0  0  0  0  0  0
    0.7305    1.6213   -3.3194 H   0  0  0  0  0  0  0  0  0  0  0  0
  5  6  2  0  0  0  0
  5  7  1  0  0  0  0
  2  3  1  0  0  0  0
  2  4  1  0  0  0  0
  2  5  1  0  0  0  0
  1  2  1  0  0  0  0
 23 24  2  0  0  0  0
 23 25  1  0  0  0  0
 21 22  1  0  0  0  0
 19 20  1  0  0  0  0
 19 21  1  0  0  0  0
 17 18  1  0  0  0  0
 17 19  1  0  0  0  0
 15 16  1  0  0  0  0
 15 17  2  0  0  0  0
 14 15  1  0  0  0  0
 14 21  2  0  0  0  0
 11 12  1  0  0  0  0
 11 13  1  0  0  0  0
 11 14  1  0  0  0  0
  9 10  1  0  0  0  0
  9 11  1  0  0  0  0
  9 23  1  0  0  0  0
  7  8  1  0  0  0  0
  7  9  1  0  0  0  0
 27 28  1  0  0  0  0
 27 29  1  0  0  0  0
 27 30  1  0  0  0  0
 25 26  1  0  0  0  0
 25 27  1  0  0  0  0
M  CHG  1  15   1
M  END
$$$$
default_name
  -OEChem-01062215323D

 30 30  0     1  0  0  0  0  0999 V2000
   -3.5507   -3.2183    1.8116 H   0  0  0  0  0  0  0  0  0  0  0  0
   -3.4597   -2.3913    1.1076 C   0  0  0  0  0  0  0  0  0  0  0  0
   -4.1577   -1.6043    1.3866 H   0  0  0  0  0  0  0  0  0  0  0  0
   -3.6807   -2.7523    0.1036 H   0  0  0  0  0  0  0  0  0  0  0  0
   -2.0477   -1.8543    1.1546 C   0  0  0  0  0  0  0  0  0  0  0  0
   -1.2227   -2.3443    1.9146 O   0  0  0  0  0  0  0  0  0  0  0  0
   -1.7517   -0.8483    0.3266 N   0  0  0  0  0  0  0  0  0  0  0  0
   -2.4847   -0.5123   -0.2804 H   0  0  0  0  0  0  0  0  0  0  0  0
   -0.4117   -0.2463    0.2186 C   0  0  1  0  0  0  0  0  0  0  0  0
   -0.3696    0.6135    0.8919 H   0  0  0  0  0  0  0  0  0  0  0  0
    0.6311   -1.2715    0.7214 C   0  0  0  0  0  0  0  0  0  0  0  0
    0.5427   -2.1808    0.1216 H   0  0  0  0  0  0  0  0  0  0  0  0
    1.6329   -0.8713    0.5512 H   0  0  0  0  0  0  0  0  0  0  0  0
    0.5152   -1.6424    2.1847 C   0  0  0  0  0  0  0  0  0  0  0  0
    0.9012   -0.8439    3.2438 N   0  3  0  0  0  0  0  0  0  0  0  0
    1.2478    0.1134    3.1328 H   0  0  0  0  0  0  0  0  0  0  0  0
    0.6483   -1.5058    4.3903 C   0  0  0  0  0  0  0  0  0  0  0  0
    0.8354   -1.1240    5.3920 H   0  0  0  0  0  0  0  0  0  0  0  0
    0.1111   -2.7077    4.0817 N   0  0  0  0  0  0  0  0  0  0  0  0
   -0.1822   -3.4189    4.7463 H   0  0  0  0  0  0  0  0  0  0  0  0
    0.0206   -2.8099    2.7004 C   0  0  0  0  0  0  0  0  0  0  0  0
   -0.3667   -3.6491    2.1293 H   0  0  0  0  0  0  0  0  0  0  0  0
   -0.1530    0.2964   -1.1982 C   0  0  0  0  0  0  0  0  0  0  0  0
   -0.4379   -0.3778   -2.1892 O   0  0  0  0  0  0  0  0  0  0  0  0
    0.4005    1.5126   -1.2789 N   0  0  0  0  0  0  0  0  0  0  0  0
    0.5893    1.9961   -0.4140 H   0  0  0  0  0  0  0  0  0  0  0  0
    0.7580    2.1984   -2.5244 C   0  0  0  0  0  0  0  0  0  0  0  0
   -0.0004    2.9434   -2.7732 H   0  0  0  0  0  0  0  0  0  0  0  0
    1.7178    2.7047   -2.4086 H   0  0  0  0  0  0  0  0  0  0  0  0
    0.8371    1.4887   -3.3507 H   0  0  0  0  0  0  0  0  0  0  0  0
  5  6  2  0  0  0  0
  5  7  1  0  0  0  0
  2  3  1  0  0  0  0
  2  4  1  0  0  0  0
  2  5  1  0  0  0  0
  1  2  1  0  0  0  0
 23 24  2  0  0  0  0
 23 25  1  0  0  0  0
 21 22  1  0  0  0  0
 19 20  1  0  0  0  0
 19 21  1  0  0  0  0
 17 18  1  0  0  0  0
 17 19  1  0  0  0  0
 15 16  1  0  0  0  0
 15 17  2  0  0  0  0
 14 15  1  0  0  0  0
 14 21  2  0  0  0  0
 11 12  1  0  0  0  0
 11 13  1  0  0  0  0
 11 14  1  0  0  0  0
  9 10  1  0  0  0  0
  9 11  1  0  0  0  0
  9 23  1  0  0  0  0
  7  8  1  0  0  0  0
  7  9  1  0  0  0  0
 27 28  1  0  0  0  0
 27 29  1  0  0  0  0
 27 30  1  0  0  0  0
 25 26  1  0  0  0  0
 25 27  1  0  0  0  0
M  CHG  1  15   1
M  END
$$$$
default_name
  -OEChem-01062215323D

 30 30  0     1  0  0  0  0  0999 V2000
   -3.5507   -3.2183    1.8116 H   0  0  0  0  0  0  0  0  0  0  0  0
   -3.4597   -2.3913    1.1076 C   0  0  0  0  0  0  0  0  0  0  0  0
   -4.1577   -1.6043    1.3866 H   0  0  0  0  0  0  0  0  0  0  0  0
   -3.6807   -2.7523    0.1036 H   0  0  0  0  0  0  0  0  0  0  0  0
   -2.0477   -1.8543    1.1546 C   0  0  0  0  0  0  0  0  0  0  0  0
   -1.2227   -2.3443    1.9146 O   0  0  0  0  0  0  0  0  0  0  0  0
   -1.7517   -0.8483    0.3266 N   0  0  0  0  0  0  0  0  0  0  0  0
   -2.4847   -0.5123   -0.2804 H   0  0  0  0  0  0  0  0  0  0  0  0
   -0.4117   -0.2463    0.2186 C   0  0  1  0  0  0  0  0  0  0  0  0
   -0.3696    0.6135    0.8919 H   0  0  0  0  0  0  0  0  0  0  0  0
    0.6311   -1.2715    0.7214 C   0  0  0  0  0  0  0  0  0  0  0  0
    0.5427   -2.1808    0.1216 H   0  0  0  0  0  0  0  0  0  0  0  0
    1.6329   -0.8713    0.5512 H   0  0  0  0  0  0  0  0  0  0  0  0
    0.5152   -1.6424    2.1847 C   0  0  0  0  0  0  0  0  0  0  0  0
    0.9012   -0.8439    3.2438 N   0  3  0  0  0  0  0  0  0  0  0  0
    1.2478    0.1134    3.1328 H   0  0  0  0  0  0  0  0  0  0  0  0
    0.6483   -1.5058    4.3903 C   0  0  0  0  0  0  0  0  0  0  0  0
    0.8354   -1.1240    5.3920 H   0  0  0  0  0  0  0  0  0  0  0  0
    0.1111   -2.7077    4.0817 N   0  0  0  0  0  0  0  0  0  0  0  0
   -0.1822   -3.4189    4.7463 H   0  0  0  0  0  0  0  0  0  0  0  0
    0.0206   -2.8099    2.7004 C   0  0  0  0  0  0  0  0  0  0  0  0
   -0.3667   -3.6491    2.1293 H   0  0  0  0  0  0  0  0  0  0  0  0
   -0.1530    0.2964   -1.1982 C   0  0  0  0  0  0  0  0  0  0  0  0
   -0.6757   -0.2363   -2.1784 O   0  0  0  0  0  0  0  0  0  0  0  0
    0.6675    1.3500   -1.2924 N   0  0  0  0  0  0  0  0  0  0  0  0
    1.0406    1.7272   -0.4346 H   0  0  0  0  0  0  0  0  0  0  0  0
    1.0708    1.9988   -2.5438 C   0  0  0  0  0  0  0  0  0  0  0  0
    0.4951    2.9143   -2.6939 H   0  0  0  0  0  0  0  0  0  0  0  0
    2.1305    2.2569   -2.5048 H   0  0  0  0  0  0  0  0  0  0  0  0
    0.9057    1.3367   -3.3964 H   0  0  0  0  0  0  0  0  0  0  0  0
  5  6  2  0  0  0  0
  5  7  1  0  0  0  0
  2  3  1  0  0  0  0
  2  4  1  0  0  0  0
  2  5  1  0  0  0  0
  1  2  1  0  0  0  0
 23 24  2  0  0  0  0
 23 25  1  0  0  0  0
 21 22  1  0  0  0  0
 19 20  1  0  0  0  0
 19 21  1  0  0  0  0
 17 18  1  0  0  0  0
 17 19  1  0  0  0  0
 15 16  1  0  0  0  0
 15 17  2  0  0  0  0
 14 15  1  0  0  0  0
 14 21  2  0  0  0  0
 11 12  1  0  0  0  0
 11 13  1  0  0  0  0
 11 14  1  0  0  0  0
  9 10  1  0  0  0  0
  9 11  1  0  0  0  0
  9 23  1  0  0  0  0
  7  8  1  0  0  0  0
  7  9  1  0  0  0  0
 27 28  1  0  0  0  0
 27 29  1  0  0  0  0
 27 30  1  0  0  0  0
 25 26  1  0  0  0  0
 25 27  1  0  0  0  0
M  CHG  1  15   1
M  END
$$$$
default_name
  -OEChem-01062215323D

 30 30  0     1  0  0  0  0  0999 V2000
   -3.5507   -3.2183    1.8116 H   0  0  0  0  0  0  0  0  0  0  0  0
   -3.4597   -2.3913    1.1076 C   0  0  0  0  0  0  0  0  0  0  0  0
   -4.1577   -1.6043    1.3866 H   0  0  0  0  0  0  0  0  0  0  0  0
   -3.6807   -2.7523    0.1036 H   0  0  0  0  0  0  0  0  0  0  0  0
   -2.0477   -1.8543    1.1546 C   0  0  0  0  0  0  0  0  0  0  0  0
   -1.2227   -2.3443    1.9146 O   0  0  0  0  0  0  0  0  0  0  0  0
   -1.7517   -0.8483    0.3266 N   0  0  0  0  0  0  0  0  0  0  0  0
   -2.4847   -0.5123   -0.2804 H   0  0  0  0  0  0  0  0  0  0  0  0
   -0.4117   -0.2463    0.2186 C   0  0  1  0  0  0  0  0  0  0  0  0
   -0.3696    0.6135    0.8919 H   0  0  0  0  0  0  0  0  0  0  0  0
    0.6311   -1.2715    0.7214 C   0  0  0  0  0  0  0  0  0  0  0  0
    0.5427   -2.1808    0.1216 H   0  0  0  0  0  0  0  0  0  0  0  0
    1.6329   -0.8713    0.5512 H   0  0  0  0  0  0  0  0  0  0  0  0
    0.5152   -1.6424    2.1847 C   0  0  0  0  0  0  0  0  0  0  0  0
    0.9012   -0.8439    3.2438 N   0  3  0  0  0  0  0  0  0  0  0  0
    1.2478    0.1134    3.1328 H   0  0  0  0  0  0  0  0  0  0  0  0
    0.6483   -1.5058    4.3903 C   0  0  0  0  0  0  0  0  0  0  0  0
    0.8354   -1.1240    5.3920 H   0  0  0  0  0  0  0  0  0  0  0  0
    0.1111   -2.7077    4.0817 N   0  0  0  0  0  0  0  0  0  0  0  0
   -0.1822   -3.4189    4.7463 H   0  0  0  0  0  0  0  0  0  0  0  0
    0.0206   -2.8099    2.7004 C   0  0  0  0  0  0  0  0  0  0  0  0
   -0.3667   -3.6491    2.1293 H   0  0  0  0  0  0  0  0  0  0  0  0
   -0.1530    0.2964   -1.1982 C   0  0  0  0  0  0  0  0  0  0  0  0
   -0.8707   -0.0434   -2.1401 O   0  0  0  0  0  0  0  0  0  0  0  0
    0.8853    1.1299   -1.3370 N   0  0  0  0  0  0  0  0  0  0  0  0
    1.4105    1.3609   -0.5074 H   0  0  0  0  0  0  0  0  0  0  0  0
    1.3236    1.7323   -2.5997 C   0  0  0  0  0  0  0  0  0  0  0  0
    0.9740    2.7647   -2.6638 H   0  0  0  0  0  0  0  0  0  0  0  0
    2.4135    1.7303   -2.6548 H   0  0  0  0  0  0  0  0  0  0  0  0
    0.9316    1.1754   -3.4534 H   0  0  0  0  0  0  0  0  0  0  0  0
  5  6  2  0  0  0  0
  5  7  1  0  0  0  0
  2  3  1  0  0  0  0
  2  4  1  0  0  0  0
  2  5  1  0  0  0  0
  1  2  1  0  0  0  0
 23 24  2  0  0  0  0
 23 25  1  0  0  0  0
 21 22  1  0  0  0  0
 19 20  1  0  0  0  0
 19 21  1  0  0  0  0
 17 18  1  0  0  0  0
 17 19  1  0  0  0  0
 15 16  1  0  0  0  0
 15 17  2  0  0  0  0
 14 15  1  0  0  0  0
 14 21  2  0  0  0  0
 11 12  1  0  0  0  0
 11 13  1  0  0  0  0
 11 14  1  0  0  0  0
  9 10  1  0  0  0  0
  9 11  1  0  0  0  0
  9 23  1  0  0  0  0
  7  8  1  0  0  0  0
  7  9  1  0  0  0  0
 27 28  1  0  0  0  0
 27 29  1  0  0  0  0
 27 30  1  0  0  0  0
 25 26  1  0  0  0  0
 25 27  1  0  0  0  0
M  CHG  1  15   1
M  END
$$$$
default_name
  -OEChem-01062215323D

 30 30  0     1  0  0  0  0  0999 V2000
   -3.5507   -3.2183    1.8116 H   0  0  0  0  0  0  0  0  0  0  0  0
   -3.4597   -2.3913    1.1076 C   0  0  0  0  0  0  0  0  0  0  0  0
   -4.1577   -1.6043    1.3866 H   0  0  0  0  0  0  0  0  0  0  0  0
   -3.6807   -2.7523    0.1036 H   0  0  0  0  0  0  0  0  0  0  0  0
   -2.0477   -1.8543    1.1546 C   0  0  0  0  0  0  0  0  0  0  0  0
   -1.2227   -2.3443    1.9146 O   0  0  0  0  0  0  0  0  0  0  0  0
   -1.7517   -0.8483    0.3266 N   0  0  0  0  0  0  0  0  0  0  0  0
   -2.4847   -0.5123   -0.2804 H   0  0  0  0  0  0  0  0  0  0  0  0
   -0.4117   -0.2463    0.2186 C   0  0  1  0  0  0  0  0  0  0  0  0
   -0.2729    0.4296    1.0661 H   0  0  0  0  0  0  0  0  0  0  0  0
    0.6446   -1.3678    0.3514 C   0  0  0  0  0  0  0  0  0  0  0  0
    0.4658   -2.1090   -0.4318 H   0  0  0  0  0  0  0  0  0  0  0  0
    1.6355   -0.9451    0.1725 H   0  0  0  0  0  0  0  0  0  0  0  0
    0.6691   -2.0736    1.6906 C   0  0  0  0  0  0  0  0  0  0  0  0
    1.1877   -1.5506    2.8594 N   0  3  0  0  0  0  0  0  0  0  0  0
    1.5510   -0.5964    2.9390 H   0  0  0  0  0  0  0  0  0  0  0  0
    1.0340   -2.4632    3.8392 C   0  0  0  0  0  0  0  0  0  0  0  0
    1.3357   -2.3303    4.8761 H   0  0  0  0  0  0  0  0  0  0  0  0
    0.4300   -3.5547    3.3172 N   0  0  0  0  0  0  0  0  0  0  0  0
    0.1847   -4.4009    3.8243 H   0  0  0  0  0  0  0  0  0  0  0  0
    0.1939   -3.3267    1.9686 C   0  0  0  0  0  0  0  0  0  0  0  0
   -0.2769   -4.0046    1.2620 H   0  0  0  0  0  0  0  0  0  0  0  0
   -0.2840    0.6144   -1.0509 C   0  0  0  0  0  0  0  0  0  0  0  0
   -1.2299    0.7219   -1.8328 O   0  0  0  0  0  0  0  0  0  0  0  0
    0.8975    1.2115   -1.2500 N   0  0  0  0  0  0  0  0  0  0  0  0
    1.6110    1.0758   -0.5502 H   0  0  0  0  0  0  0  0  0  0  0  0
    1.2397    2.0452   -2.4064 C   0  0  0  0  0  0  0  0  0  0  0  0
    1.1796    3.1018   -2.1377 H   0  0  0  0  0  0  0  0  0  0  0  0
    2.2575    1.8273   -2.7345 H   0  0  0  0  0  0  0  0  0  0  0  0
    0.5583    1.8554   -3.2385 H   0  0  0  0  0  0  0  0  0  0  0  0
  5  6  2  0  0  0  0
  5  7  1  0  0  0  0
  2  3  1  0  0  0  0
  2  4  1  0  0  0  0
  2  5  1  0  0  0  0
  1  2  1  0  0  0  0
 23 24  2  0  0  0  0
 23 25  1  0  0  0  0
 21 22  1  0  0  0  0
 19 20  1  0  0  0  0
 19 21  1  0  0  0  0
 17 18  1  0  0  0  0
 17 19  1  0  0  0  0
 15 16  1  0  0  0  0
 15 17  2  0  0  0  0
 14 15  1  0  0  0  0
 14 21  2  0  0  0  0
 11 12  1  0  0  0  0
 11 13  1  0  0  0  0
 11 14  1  0  0  0  0
  9 10  1  0  0  0  0
  9 11  1  0  0  0  0
  9 23  1  0  0  0  0
  7  8  1  0  0  0  0
  7  9  1  0  0  0  0
 27 28  1  0  0  0  0
 27 29  1  0  0  0  0
 27 30  1  0  0  0  0
 25 26  1  0  0  0  0
 25 27  1  0  0  0  0
M  CHG  1  15   1
M  END
$$$$
default_name
  -OEChem-01062215323D

 30 30  0     1  0  0  0  0  0999 V2000
   -3.5507   -3.2183    1.8116 H   0  0  0  0  0  0  0  0  0  0  0  0
   -3.4597   -2.3913    1.1076 C   0  0  0  0  0  0  0  0  0  0  0  0
   -4.1577   -1.6043    1.3866 H   0  0  0  0  0  0  0  0  0  0  0  0
   -3.6807   -2.7523    0.1036 H   0  0  0  0  0  0  0  0  0  0  0  0
   -2.0477   -1.8543    1.1546 C   0  0  0  0  0  0  0  0  0  0  0  0
   -1.2227   -2.3443    1.9146 O   0  0  0  0  0  0  0  0  0  0  0  0
   -1.7517   -0.8483    0.3266 N   0  0  0  0  0  0  0  0  0  0  0  0
   -2.4847   -0.5123   -0.2804 H   0  0  0  0  0  0  0  0  0  0  0  0
   -0.4117   -0.2463    0.2186 C   0  0  1  0  0  0  0  0  0  0  0  0
   -0.2729    0.4296    1.0661 H   0  0  0  0  0  0  0  0  0  0  0  0
    0.6446   -1.3678    0.3514 C   0  0  0  0  0  0  0  0  0  0  0  0
    0.4658   -2.1090   -0.4318 H   0  0  0  0  0  0  0  0  0  0  0  0
    1.6355   -0.9451    0.1725 H   0  0  0  0  0  0  0  0  0  0  0  0
    0.6691   -2.0736    1.6906 C   0  0  0  0  0  0  0  0  0  0  0  0
    1.1877   -1.5506    2.8594 N   0  3  0  0  0  0  0  0  0  0  0  0
    1.5510   -0.5964    2.9390 H   0  0  0  0  0  0  0  0  0  0  0  0
    1.0340   -2.4632    3.8392 C   0  0  0  0  0  0  0  0  0  0  0  0
    1.3357   -2.3303    4.8761 H   0  0  0  0  0  0  0  0  0  0  0  0
    0.4300   -3.5547    3.3172 N   0  0  0  0  0  0  0  0  0  0  0  0
    0.1847   -4.4009    3.8243 H   0  0  0  0  0  0  0  0  0  0  0  0
    0.1939   -3.3267    1.9686 C   0  0  0  0  0  0  0  0  0  0  0  0
   -0.2769   -4.0046    1.2620 H   0  0  0  0  0  0  0  0  0  0  0  0
   -0.2840    0.6144   -1.0509 C   0  0  0  0  0  0  0  0  0  0  0  0
   -1.2862    0.9489   -1.6846 O   0  0  0  0  0  0  0  0  0  0  0  0
    0.9575    0.9546   -1.4182 N   0  0  0  0  0  0  0  0  0  0  0  0
    1.7174    0.6448   -0.8317 H   0  0  0  0  0  0  0  0  0  0  0  0
    1.3028    1.7392   -2.6075 C   0  0  0  0  0  0  0  0  0  0  0  0
    1.5102    2.7738   -2.3269 H   0  0  0  0  0  0  0  0  0  0  0  0
    2.1926    1.3230   -3.0830 H   0  0  0  0  0  0  0  0  0  0  0  0
    0.4852    1.7292   -3.3314 H   0  0  0  0  0  0  0  0  0  0  0  0
  5  6  2  0  0  0  0
  5  7  1  0  0  0  0
  2  3  1  0  0  0  0
  2  4  1  0  0  0  0
  2  5  1  0  0  0  0
  1  2  1  0  0  0  0
 23 24  2  0  0  0  0
 23 25  1  0  0  0  0
 21 22  1  0  0  0  0
 19 20  1  0  0  0  0
 19 21  1  0  0  0  0
 17 18  1  0  0  0  0
 17 19  1  0  0  0  0
 15 16  1  0  0  0  0
 15 17  2  0  0  0  0
 14 15  1  0  0  0  0
 14 21  2  0  0  0  0
 11 12  1  0  0  0  0
 11 13  1  0  0  0  0
 11 14  1  0  0  0  0
  9 10  1  0  0  0  0
  9 11  1  0  0  0  0
  9 23  1  0  0  0  0
  7  8  1  0  0  0  0
  7  9  1  0  0  0  0
 27 28  1  0  0  0  0
 27 29  1  0  0  0  0
 27 30  1  0  0  0  0
 25 26  1  0  0  0  0
 25 27  1  0  0  0  0
M  CHG  1  15   1
M  END
$$$$
default_name
  -OEChem-01062215323D

 30 30  0     1  0  0  0  0  0999 V2000
   -3.5507   -3.2183    1.8116 H   0  0  0  0  0  0  0  0  0  0  0  0
   -3.4597   -2.3913    1.1076 C   0  0  0  0  0  0  0  0  0  0  0  0
   -4.1577   -1.6043    1.3866 H   0  0  0  0  0  0  0  0  0  0  0  0
   -3.6807   -2.7523    0.1036 H   0  0  0  0  0  0  0  0  0  0  0  0
   -2.0477   -1.8543    1.1546 C   0  0  0  0  0  0  0  0  0  0  0  0
   -1.2227   -2.3443    1.9146 O   0  0  0  0  0  0  0  0  0  0  0  0
   -1.7517   -0.8483    0.3266 N   0  0  0  0  0  0  0  0  0  0  0  0
   -2.4847   -0.5123   -0.2804 H   0  0  0  0  0  0  0  0  0  0  0  0
   -0.4117   -0.2463    0.2186 C   0  0  1  0  0  0  0  0  0  0  0  0
   -0.2729    0.4296    1.0661 H   0  0  0  0  0  0  0  0  0  0  0  0
    0.6446   -1.3678    0.3514 C   0  0  0  0  0  0  0  0  0  0  0  0
    0.4658   -2.1090   -0.4318 H   0  0  0  0  0  0  0  0  0  0  0  0
    1.6355   -0.9451    0.1725 H   0  0  0  0  0  0  0  0  0  0  0  0
    0.6691   -2.0736    1.6906 C   0  0  0  0  0  0  0  0  0  0  0  0
    1.1877   -1.5506    2.8594 N   0  3  0  0  0  0  0  0  0  0  0  0
    1.5510   -0.5964    2.9390 H   0  0  0  0  0  0  0  0  0  0  0  0
    1.0340   -2.4632    3.8392 C   0  0  0  0  0  0  0  0  0  0  0  0
    1.3357   -2.3303    4.8761 H   0  0  0  0  0  0  0  0  0  0  0  0
    0.4300   -3.5547    3.3172 N   0  0  0  0  0  0  0  0  0  0  0  0
    0.1847   -4.4009    3.8243 H   0  0  0  0  0  0  0  0  0  0  0  0
    0.1939   -3.3267    1.9686 C   0  0  0  0  0  0  0  0  0  0  0  0
   -0.2769   -4.0046    1.2620 H   0  0  0  0  0  0  0  0  0  0  0  0
   -0.2840    0.6144   -1.0509 C   0  0  0  0  0  0  0  0  0  0  0  0
   -1.2706    1.1770   -1.5284 O   0  0  0  0  0  0  0  0  0  0  0  0
    0.9364    0.6972   -1.5948 N   0  0  0  0  0  0  0  0  0  0  0  0
    1.6874    0.2118   -1.1283 H   0  0  0  0  0  0  0  0  0  0  0  0
    1.2693    1.4345   -2.8175 C   0  0  0  0  0  0  0  0  0  0  0  0
    1.7322    2.3905   -2.5645 H   0  0  0  0  0  0  0  0  0  0  0  0
    1.9717    0.8571   -3.4210 H   0  0  0  0  0  0  0  0  0  0  0  0
    0.3742    1.6249   -3.4133 H   0  0  0  0  0  0  0  0  0  0  0  0
  5  6  2  0  0  0  0
  5  7  1  0  0  0  0
  2  3  1  0  0  0  0
  2  4  1  0  0  0  0
  2  5  1  0  0  0  0
  1  2  1  0  0  0  0
 23 24  2  0  0  0  0
 23 25  1  0  0  0  0
 21 22  1  0  0  0  0
 19 20  1  0  0  0  0
 19 21  1  0  0  0  0
 17 18  1  0  0  0  0
 17 19  1  0  0  0  0
 15 16  1  0  0  0  0
 15 17  2  0  0  0  0
 14 15  1  0  0  0  0
 14 21  2  0  0  0  0
 11 12  1  0  0  0  0
 11 13  1  0  0  0  0
 11 14  1  0  0  0  0
  9 10  1  0  0  0  0
  9 11  1  0  0  0  0
  9 23  1  0  0  0  0
  7  8  1  0  0  0  0
  7  9  1  0  0  0  0
 27 28  1  0  0  0  0
 27 29  1  0  0  0  0
 27 30  1  0  0  0  0
 25 26  1  0  0  0  0
 25 27  1  0  0  0  0
M  CHG  1  15   1
M  END
$$$$
default_name
  -OEChem-01062215323D

 30 30  0     1  0  0  0  0  0999 V2000
   -3.5507   -3.2183    1.8116 H   0  0  0  0  0  0  0  0  0  0  0  0
   -3.4597   -2.3913    1.1076 C   0  0  0  0  0  0  0  0  0  0  0  0
   -4.1577   -1.6043    1.3866 H   0  0  0  0  0  0  0  0  0  0  0  0
   -3.6807   -2.7523    0.1036 H   0  0  0  0  0  0  0  0  0  0  0  0
   -2.0477   -1.8543    1.1546 C   0  0  0  0  0  0  0  0  0  0  0  0
   -1.2227   -2.3443    1.9146 O   0  0  0  0  0  0  0  0  0  0  0  0
   -1.7517   -0.8483    0.3266 N   0  0  0  0  0  0  0  0  0  0  0  0
   -2.4847   -0.5123   -0.2804 H   0  0  0  0  0  0  0  0  0  0  0  0
   -0.4117   -0.2463    0.2186 C   0  0  1  0  0  0  0  0  0  0  0  0
   -0.2729    0.4296    1.0661 H   0  0  0  0  0  0  0  0  0  0  0  0
    0.6446   -1.3678    0.3514 C   0  0  0  0  0  0  0  0  0  0  0  0
    0.4658   -2.1090   -0.4318 H   0  0  0  0  0  0  0  0  0  0  0  0
    1.6355   -0.9451    0.1725 H   0  0  0  0  0  0  0  0  0  0  0  0
    0.6691   -2.0736    1.6906 C   0  0  0  0  0  0  0  0  0  0  0  0
    1.1877   -1.5506    2.8594 N   0  3  0  0  0  0  0  0  0  0  0  0
    1.5510   -0.5964    2.9390 H   0  0  0  0  0  0  0  0  0  0  0  0
    1.0340   -2.4632    3.8392 C   0  0  0  0  0  0  0  0  0  0  0  0
    1.3357   -2.3303    4.8761 H   0  0  0  0  0  0  0  0  0  0  0  0
    0.4300   -3.5547    3.3172 N   0  0  0  0  0  0  0  0  0  0  0  0
    0.1847   -4.4009    3.8243 H   0  0  0  0  0  0  0  0  0  0  0  0
    0.1939   -3.3267    1.9686 C   0  0  0  0  0  0  0  0  0  0  0  0
   -0.2769   -4.0046    1.2620 H   0  0  0  0  0  0  0  0  0  0  0  0
   -0.2840    0.6144   -1.0509 C   0  0  0  0  0  0  0  0  0  0  0  0
   -1.1842    1.3907   -1.3749 O   0  0  0  0  0  0  0  0  0  0  0  0
    0.8354    0.4569   -1.7679 N   0  0  0  0  0  0  0  0  0  0  0  0
    1.5231   -0.1936   -1.4197 H   0  0  0  0  0  0  0  0  0  0  0  0
    1.1415    1.1518   -3.0220 C   0  0  0  0  0  0  0  0  0  0  0  0
    1.8304    1.9779   -2.8343 H   0  0  0  0  0  0  0  0  0  0  0  0
    1.6101    0.4616   -3.7256 H   0  0  0  0  0  0  0  0  0  0  0  0
    0.2328    1.5496   -3.4786 H   0  0  0  0  0  0  0  0  0  0  0  0
  5  6  2  0  0  0  0
  5  7  1  0  0  0  0
  2  3  1  0  0  0  0
  2  4  1  0  0  0  0
  2  5  1  0  0  0  0
  1  2  1  0  0  0  0
 23 24  2  0  0  0  0
 23 25  1  0  0  0  0
 21 22  1  0  0  0  0
 19 20  1  0  0  0  0
 19 21  1  0  0  0  0
 17 18  1  0  0  0  0
 17 19  1  0  0  0  0
 15 16  1  0  0  0  0
 15 17  2  0  0  0  0
 14 15  1  0  0  0  0
 14 21  2  0  0  0  0
 11 12  1  0  0  0  0
 11 13  1  0  0  0  0
 11 14  1  0  0  0  0
  9 10  1  0  0  0  0
  9 11  1  0  0  0  0
  9 23  1  0  0  0  0
  7  8  1  0  0  0  0
  7  9  1  0  0  0  0
 27 28  1  0  0  0  0
 27 29  1  0  0  0  0
 27 30  1  0  0  0  0
 25 26  1  0  0  0  0
 25 27  1  0  0  0  0
M  CHG  1  15   1
M  END
$$$$
default_name
  -OEChem-01062215323D

 30 30  0     1  0  0  0  0  0999 V2000
   -3.5507   -3.2183    1.8116 H   0  0  0  0  0  0  0  0  0  0  0  0
   -3.4597   -2.3913    1.1076 C   0  0  0  0  0  0  0  0  0  0  0  0
   -4.1577   -1.6043    1.3866 H   0  0  0  0  0  0  0  0  0  0  0  0
   -3.6807   -2.7523    0.1036 H   0  0  0  0  0  0  0  0  0  0  0  0
   -2.0477   -1.8543    1.1546 C   0  0  0  0  0  0  0  0  0  0  0  0
   -1.2227   -2.3443    1.9146 O   0  0  0  0  0  0  0  0  0  0  0  0
   -1.7517   -0.8483    0.3266 N   0  0  0  0  0  0  0  0  0  0  0  0
   -2.4847   -0.5123   -0.2804 H   0  0  0  0  0  0  0  0  0  0  0  0
   -0.4117   -0.2463    0.2186 C   0  0  1  0  0  0  0  0  0  0  0  0
   -0.2729    0.4296    1.0661 H   0  0  0  0  0  0  0  0  0  0  0  0
    0.6446   -1.3678    0.3514 C   0  0  0  0  0  0  0  0  0  0  0  0
    0.4658   -2.1090   -0.4318 H   0  0  0  0  0  0  0  0  0  0  0  0
    1.6355   -0.9451    0.1725 H   0  0  0  0  0  0  0  0  0  0  0  0
    0.6691   -2.0736    1.6906 C   0  0  0  0  0  0  0  0  0  0  0  0
    1.1877   -1.5506    2.8594 N   0  3  0  0  0  0  0  0  0  0  0  0
    1.5510   -0.5964    2.9390 H   0  0  0  0  0  0  0  0  0  0  0  0
    1.0340   -2.4632    3.8392 C   0  0  0  0  0  0  0  0  0  0  0  0
    1.3357   -2.3303    4.8761 H   0  0  0  0  0  0  0  0  0  0  0  0
    0.4300   -3.5547    3.3172 N   0  0  0  0  0  0  0  0  0  0  0  0
    0.1847   -4.4009    3.8243 H   0  0  0  0  0  0  0  0  0  0  0  0
    0.1939   -3.3267    1.9686 C   0  0  0  0  0  0  0  0  0  0  0  0
   -0.2769   -4.0046    1.2620 H   0  0  0  0  0  0  0  0  0  0  0  0
   -0.2840    0.6144   -1.0509 C   0  0  0  0  0  0  0  0  0  0  0  0
   -1.0329    1.5753   -1.2345 O   0  0  0  0  0  0  0  0  0  0  0  0
    0.6615    0.2500   -1.9256 N   0  0  0  0  0  0  0  0  0  0  0  0
    1.2357   -0.5440   -1.6861 H   0  0  0  0  0  0  0  0  0  0  0  0
    0.9282    0.9105   -3.2071 C   0  0  0  0  0  0  0  0  0  0  0  0
    1.7981    1.5642   -3.1180 H   0  0  0  0  0  0  0  0  0  0  0  0
    1.1322    0.1632   -3.9759 H   0  0  0  0  0  0  0  0  0  0  0  0
    0.0707    1.5085   -3.5228 H   0  0  0  0  0  0  0  0  0  0  0  0
  5  6  2  0  0  0  0
  5  7  1  0  0  0  0
  2  3  1  0  0  0  0
  2  4  1  0  0  0  0
  2  5  1  0  0  0  0
  1  2  1  0  0  0  0
 23 24  2  0  0  0  0
 23 25  1  0  0  0  0
 21 22  1  0  0  0  0
 19 20  1  0  0  0  0
 19 21  1  0  0  0  0
 17 18  1  0  0  0  0
 17 19  1  0  0  0  0
 15 16  1  0  0  0  0
 15 17  2  0  0  0  0
 14 15  1  0  0  0  0
 14 21  2  0  0  0  0
 11 12  1  0  0  0  0
 11 13  1  0  0  0  0
 11 14  1  0  0  0  0
  9 10  1  0  0  0  0
  9 11  1  0  0  0  0
  9 23  1  0  0  0  0
  7  8  1  0  0  0  0
  7  9  1  0  0  0  0
 27 28  1  0  0  0  0
 27 29  1  0  0  0  0
 27 30  1  0  0  0  0
 25 26  1  0  0  0  0
 25 27  1  0  0  0  0
M  CHG  1  15   1
M  END
$$$$
default_name
  -OEChem-01062215323D

 30 30  0     1  0  0  0  0  0999 V2000
   -3.5507   -3.2183    1.8116 H   0  0  0  0  0  0  0  0  0  0  0  0
   -3.4597   -2.3913    1.1076 C   0  0  0  0  0  0  0  0  0  0  0  0
   -4.1577   -1.6043    1.3866 H   0  0  0  0  0  0  0  0  0  0  0  0
   -3.6807   -2.7523    0.1036 H   0  0  0  0  0  0  0  0  0  0  0  0
   -2.0477   -1.8543    1.1546 C   0  0  0  0  0  0  0  0  0  0  0  0
   -1.2227   -2.3443    1.9146 O   0  0  0  0  0  0  0  0  0  0  0  0
   -1.7517   -0.8483    0.3266 N   0  0  0  0  0  0  0  0  0  0  0  0
   -2.4847   -0.5123   -0.2804 H   0  0  0  0  0  0  0  0  0  0  0  0
   -0.4117   -0.2463    0.2186 C   0  0  1  0  0  0  0  0  0  0  0  0
   -0.2729    0.4296    1.0661 H   0  0  0  0  0  0  0  0  0  0  0  0
    0.6446   -1.3678    0.3514 C   0  0  0  0  0  0  0  0  0  0  0  0
    0.4658   -2.1090   -0.4318 H   0  0  0  0  0  0  0  0  0  0  0  0
    1.6355   -0.9451    0.1725 H   0  0  0  0  0  0  0  0  0  0  0  0
    0.6691   -2.0736    1.6906 C   0  0  0  0  0  0  0  0  0  0  0  0
    1.1877   -1.5506    2.8594 N   0  3  0  0  0  0  0  0  0  0  0  0
    1.5510   -0.5964    2.9390 H   0  0  0  0  0  0  0  0  0  0  0  0
    1.0340   -2.4632    3.8392 C   0  0  0  0  0  0  0  0  0  0  0  0
    1.3357   -2.3303    4.8761 H   0  0  0  0  0  0  0  0  0  0  0  0
    0.4300   -3.5547    3.3172 N   0  0  0  0  0  0  0  0  0  0  0  0
    0.1847   -4.4009    3.8243 H   0  0  0  0  0  0  0  0  0  0  0  0
    0.1939   -3.3267    1.9686 C   0  0  0  0  0  0  0  0  0  0  0  0
   -0.2769   -4.0046    1.2620 H   0  0  0  0  0  0  0  0  0  0  0  0
   -0.2840    0.6144   -1.0509 C   0  0  0  0  0  0  0  0  0  0  0  0
   -0.8271    1.7183   -1.1168 O   0  0  0  0  0  0  0  0  0  0  0  0
    0.4266    0.0907   -2.0573 N   0  0  0  0  0  0  0  0  0  0  0  0
    0.8446   -0.8152   -1.9093 H   0  0  0  0  0  0  0  0  0  0  0  0
    0.6438    0.7268   -3.3602 C   0  0  0  0  0  0  0  0  0  0  0  0
    1.6375    1.1776   -3.3963 H   0  0  0  0  0  0  0  0  0  0  0  0
    0.5707   -0.0176   -4.1549 H   0  0  0  0  0  0  0  0  0  0  0  0
   -0.1011    1.5043   -3.5429 H   0  0  0  0  0  0  0  0  0  0  0  0
  5  6  2  0  0  0  0
  5  7  1  0  0  0  0
  2  3  1  0  0  0  0
  2  4  1  0  0  0  0
  2  5  1  0  0  0  0
  1  2  1  0  0  0  0
 23 24  2  0  0  0  0
 23 25  1  0  0  0  0
 21 22  1  0  0  0  0
 19 20  1  0  0  0  0
 19 21  1  0  0  0  0
 17 18  1  0  0  0  0
 17 19  1  0  0  0  0
 15 16  1  0  0  0  0
 15 17  2  0  0  0  0
 14 15  1  0  0  0  0
 14 21  2  0  0  0  0
 11 12  1  0  0  0  0
 11 13  1  0  0  0  0
 11 14  1  0  0  0  0
  9 10  1  0  0  0  0
  9 11  1  0  0  0  0
  9 23  1  0  0  0  0
  7  8  1  0  0  0  0
  7  9  1  0  0  0  0
 27 28  1  0  0  0  0
 27 29  1  0  0  0  0
 27 30  1  0  0  0  0
 25 26  1  0  0  0  0
 25 27  1  0  0  0  0
M  CHG  1  15   1
M  END
$$$$
default_name
  -OEChem-01062215323D

 30 30  0     1  0  0  0  0  0999 V2000
   -3.5507   -3.2183    1.8116 H   0  0  0  0  0  0  0  0  0  0  0  0
   -3.4597   -2.3913    1.1076 C   0  0  0  0  0  0  0  0  0  0  0  0
   -4.1577   -1.6043    1.3866 H   0  0  0  0  0  0  0  0  0  0  0  0
   -3.6807   -2.7523    0.1036 H   0  0  0  0  0  0  0  0  0  0  0  0
   -2.0477   -1.8543    1.1546 C   0  0  0  0  0  0  0  0  0  0  0  0
   -1.2227   -2.3443    1.9146 O   0  0  0  0  0  0  0  0  0  0  0  0
   -1.7517   -0.8483    0.3266 N   0  0  0  0  0  0  0  0  0  0  0  0
   -2.4847   -0.5123   -0.2804 H   0  0  0  0  0  0  0  0  0  0  0  0
   -0.4117   -0.2463    0.2186 C   0  0  1  0  0  0  0  0  0  0  0  0
   -0.2729    0.4296    1.0661 H   0  0  0  0  0  0  0  0  0  0  0  0
    0.6446   -1.3678    0.3514 C   0  0  0  0  0  0  0  0  0  0  0  0
    0.4658   -2.1090   -0.4318 H   0  0  0  0  0  0  0  0  0  0  0  0
    1.6355   -0.9451    0.1725 H   0  0  0  0  0  0  0  0  0  0  0  0
    0.6691   -2.0736    1.6906 C   0  0  0  0  0  0  0  0  0  0  0  0
    1.1877   -1.5506    2.8594 N   0  3  0  0  0  0  0  0  0  0  0  0
    1.5510   -0.5964    2.9390 H   0  0  0  0  0  0  0  0  0  0  0  0
    1.0340   -2.4632    3.8392 C   0  0  0  0  0  0  0  0  0  0  0  0
    1.3357   -2.3303    4.8761 H   0  0  0  0  0  0  0  0  0  0  0  0
    0.4300   -3.5547    3.3172 N   0  0  0  0  0  0  0  0  0  0  0  0
    0.1847   -4.4009    3.8243 H   0  0  0  0  0  0  0  0  0  0  0  0
    0.1939   -3.3267    1.9686 C   0  0  0  0  0  0  0  0  0  0  0  0
   -0.2769   -4.0046    1.2620 H   0  0  0  0  0  0  0  0  0  0  0  0
   -0.2840    0.6144   -1.0509 C   0  0  0  0  0  0  0  0  0  0  0  0
   -0.5807    1.8100   -1.0299 O   0  0  0  0  0  0  0  0  0  0  0  0
    0.1466   -0.0102   -2.1538 N   0  0  0  0  0  0  0  0  0  0  0  0
    0.3767   -0.9890   -2.0742 H   0  0  0  0  0  0  0  0  0  0  0  0
    0.3077    0.6134   -3.4708 C   0  0  0  0  0  0  0  0  0  0  0  0
    1.3596    0.8444   -3.6501 H   0  0  0  0  0  0  0  0  0  0  0  0
   -0.0362   -0.0685   -4.2505 H   0  0  0  0  0  0  0  0  0  0  0  0
   -0.2708    1.5373   -3.5375 H   0  0  0  0  0  0  0  0  0  0  0  0
  5  6  2  0  0  0  0
  5  7  1  0  0  0  0
  2  3  1  0  0  0  0
  2  4  1  0  0  0  0
  2  5  1  0  0  0  0
  1  2  1  0  0  0  0
 23 24  2  0  0  0  0
 23 25  1  0  0  0  0
 21 22  1  0  0  0  0
 19 20  1  0  0  0  0
 19 21  1  0  0  0  0
 17 18  1  0  0  0  0
 17 19  1  0  0  0  0
 15 16  1  0  0  0  0
 15 17  2  0  0  0  0
 14 15  1  0  0  0  0
 14 21  2  0  0  0  0
 11 12  1  0  0  0  0
 11 13  1  0  0  0  0
 11 14  1  0  0  0  0
  9 10  1  0  0  0  0
  9 11  1  0  0  0  0
  9 23  1  0  0  0  0
  7  8  1  0  0  0  0
  7  9  1  0  0  0  0
 27 28  1  0  0  0  0
 27 29  1  0  0  0  0
 27 30  1  0  0  0  0
 25 26  1  0  0  0  0
 25 27  1  0  0  0  0
M  CHG  1  15   1
M  END
$$$$
default_name
  -OEChem-01062215323D

 30 30  0     1  0  0  0  0  0999 V2000
   -3.5507   -3.2183    1.8116 H   0  0  0  0  0  0  0  0  0  0  0  0
   -3.4597   -2.3913    1.1076 C   0  0  0  0  0  0  0  0  0  0  0  0
   -4.1577   -1.6043    1.3866 H   0  0  0  0  0  0  0  0  0  0  0  0
   -3.6807   -2.7523    0.1036 H   0  0  0  0  0  0  0  0  0  0  0  0
   -2.0477   -1.8543    1.1546 C   0  0  0  0  0  0  0  0  0  0  0  0
   -1.2227   -2.3443    1.9146 O   0  0  0  0  0  0  0  0  0  0  0  0
   -1.7517   -0.8483    0.3266 N   0  0  0  0  0  0  0  0  0  0  0  0
   -2.4847   -0.5123   -0.2804 H   0  0  0  0  0  0  0  0  0  0  0  0
   -0.4117   -0.2463    0.2186 C   0  0  1  0  0  0  0  0  0  0  0  0
   -0.2729    0.4296    1.0661 H   0  0  0  0  0  0  0  0  0  0  0  0
    0.6446   -1.3678    0.3514 C   0  0  0  0  0  0  0  0  0  0  0  0
    0.4658   -2.1090   -0.4318 H   0  0  0  0  0  0  0  0  0  0  0  0
    1.6355   -0.9451    0.1725 H   0  0  0  0  0  0  0  0  0  0  0  0
    0.6691   -2.0736    1.6906 C   0  0  0  0  0  0  0  0  0  0  0  0
    1.1877   -1.5506    2.8594 N   0  3  0  0  0  0  0  0  0  0  0  0
    1.5510   -0.5964    2.9390 H   0  0  0  0  0  0  0  0  0  0  0  0
    1.0340   -2.4632    3.8392 C   0  0  0  0  0  0  0  0  0  0  0  0
    1.3357   -2.3303    4.8761 H   0  0  0  0  0  0  0  0  0  0  0  0
    0.4300   -3.5547    3.3172 N   0  0  0  0  0  0  0  0  0  0  0  0
    0.1847   -4.4009    3.8243 H   0  0  0  0  0  0  0  0  0  0  0  0
    0.1939   -3.3267    1.9686 C   0  0  0  0  0  0  0  0  0  0  0  0
   -0.2769   -4.0046    1.2620 H   0  0  0  0  0  0  0  0  0  0  0  0
   -0.2840    0.6144   -1.0509 C   0  0  0  0  0  0  0  0  0  0  0  0
   -0.3105    1.8441   -0.9796 O   0  0  0  0  0  0  0  0  0  0  0  0
   -0.1594   -0.0458   -2.2087 N   0  0  0  0  0  0  0  0  0  0  0  0
   -0.1362   -1.0534   -2.1694 H   0  0  0  0  0  0  0  0  0  0  0  0
   -0.0572    0.5781   -3.5315 C   0  0  0  0  0  0  0  0  0  0  0  0
    0.9833    0.5874   -3.8622 H   0  0  0  0  0  0  0  0  0  0  0  0
   -0.6471    0.0140   -4.2560 H   0  0  0  0  0  0  0  0  0  0  0  0
   -0.4269    1.6054   -3.5071 H   0  0  0  0  0  0  0  0  0  0  0  0
  5  6  2  0  0  0  0
  5  7  1  0  0  0  0
  2  3  1  0  0  0  0
  2  4  1  0  0  0  0
  2  5  1  0  0  0  0
  1  2  1  0  0  0  0
 23 24  2  0  0  0  0
 23 25  1  0  0  0  0
 21 22  1  0  0  0  0
 19 20  1  0  0  0  0
 19 21  1  0  0  0  0
 17 18  1  0  0  0  0
 17 19  1  0  0  0  0
 15 16  1  0  0  0  0
 15 17  2  0  0  0  0
 14 15  1  0  0  0  0
 14 21  2  0  0  0  0
 11 12  1  0  0  0  0
 11 13  1  0  0  0  0
 11 14  1  0  0  0  0
  9 10  1  0  0  0  0
  9 11  1  0  0  0  0
  9 23  1  0  0  0  0
  7  8  1  0  0  0  0
  7  9  1  0  0  0  0
 27 28  1  0  0  0  0
 27 29  1  0  0  0  0
 27 30  1  0  0  0  0
 25 26  1  0  0  0  0
 25 27  1  0  0  0  0
M  CHG  1  15   1
M  END
$$$$
default_name
  -OEChem-01062215323D

 30 30  0     1  0  0  0  0  0999 V2000
   -3.5507   -3.2183    1.8116 H   0  0  0  0  0  0  0  0  0  0  0  0
   -3.4597   -2.3913    1.1076 C   0  0  0  0  0  0  0  0  0  0  0  0
   -4.1577   -1.6043    1.3866 H   0  0  0  0  0  0  0  0  0  0  0  0
   -3.6807   -2.7523    0.1036 H   0  0  0  0  0  0  0  0  0  0  0  0
   -2.0477   -1.8543    1.1546 C   0  0  0  0  0  0  0  0  0  0  0  0
   -1.2227   -2.3443    1.9146 O   0  0  0  0  0  0  0  0  0  0  0  0
   -1.7517   -0.8483    0.3266 N   0  0  0  0  0  0  0  0  0  0  0  0
   -2.4847   -0.5123   -0.2804 H   0  0  0  0  0  0  0  0  0  0  0  0
   -0.4117   -0.2463    0.2186 C   0  0  1  0  0  0  0  0  0  0  0  0
   -0.2729    0.4296    1.0661 H   0  0  0  0  0  0  0  0  0  0  0  0
    0.6446   -1.3678    0.3514 C   0  0  0  0  0  0  0  0  0  0  0  0
    0.4658   -2.1090   -0.4318 H   0  0  0  0  0  0  0  0  0  0  0  0
    1.6355   -0.9451    0.1725 H   0  0  0  0  0  0  0  0  0  0  0  0
    0.6691   -2.0736    1.6906 C   0  0  0  0  0  0  0  0  0  0  0  0
    1.1877   -1.5506    2.8594 N   0  3  0  0  0  0  0  0  0  0  0  0
    1.5510   -0.5964    2.9390 H   0  0  0  0  0  0  0  0  0  0  0  0
    1.0340   -2.4632    3.8392 C   0  0  0  0  0  0  0  0  0  0  0  0
    1.3357   -2.3303    4.8761 H   0  0  0  0  0  0  0  0  0  0  0  0
    0.4300   -3.5547    3.3172 N   0  0  0  0  0  0  0  0  0  0  0  0
    0.1847   -4.4009    3.8243 H   0  0  0  0  0  0  0  0  0  0  0  0
    0.1939   -3.3267    1.9686 C   0  0  0  0  0  0  0  0  0  0  0  0
   -0.2769   -4.0046    1.2620 H   0  0  0  0  0  0  0  0  0  0  0  0
   -0.2840    0.6144   -1.0509 C   0  0  0  0  0  0  0  0  0  0  0  0
   -0.0350    1.8182   -0.9694 O   0  0  0  0  0  0  0  0  0  0  0  0
   -0.4705   -0.0137   -2.2182 N   0  0  0  0  0  0  0  0  0  0  0  0
   -0.6592   -1.0041   -2.1886 H   0  0  0  0  0  0  0  0  0  0  0  0
   -0.4259    0.6231   -3.5380 C   0  0  0  0  0  0  0  0  0  0  0  0
    0.5343    0.4240   -4.0181 H   0  0  0  0  0  0  0  0  0  0  0  0
   -1.2204    0.2242   -4.1711 H   0  0  0  0  0  0  0  0  0  0  0  0
   -0.5587    1.7037   -3.4536 H   0  0  0  0  0  0  0  0  0  0  0  0
  5  6  2  0  0  0  0
  5  7  1  0  0  0  0
  2  3  1  0  0  0  0
  2  4  1  0  0  0  0
  2  5  1  0  0  0  0
  1  2  1  0  0  0  0
 23 24  2  0  0  0  0
 23 25  1  0  0  0  0
 21 22  1  0  0  0  0
 19 20  1  0  0  0  0
 19 21  1  0  0  0  0
 17 18  1  0  0  0  0
 17 19  1  0  0  0  0
 15 16  1  0  0  0  0
 15 17  2  0  0  0  0
 14 15  1  0  0  0  0
 14 21  2  0  0  0  0
 11 12  1  0  0  0  0
 11 13  1  0  0  0  0
 11 14  1  0  0  0  0
  9 10  1  0  0  0  0
  9 11  1  0  0  0  0
  9 23  1  0  0  0  0
  7  8  1  0  0  0  0
  7  9  1  0  0  0  0
 27 28  1  0  0  0  0
 27 29  1  0  0  0  0
 27 30  1  0  0  0  0
 25 26  1  0  0  0  0
 25 27  1  0  0  0  0
M  CHG  1  15   1
M  END
$$$$
default_name
  -OEChem-01062215323D

 30 30  0     1  0  0  0  0  0999 V2000
   -3.5507   -3.2183    1.8116 H   0  0  0  0  0  0  0  0  0  0  0  0
   -3.4597   -2.3913    1.1076 C   0  0  0  0  0  0  0  0  0  0  0  0
   -4.1577   -1.6043    1.3866 H   0  0  0  0  0  0  0  0  0  0  0  0
   -3.6807   -2.7523    0.1036 H   0  0  0  0  0  0  0  0  0  0  0  0
   -2.0477   -1.8543    1.1546 C   0  0  0  0  0  0  0  0  0  0  0  0
   -1.2227   -2.3443    1.9146 O   0  0  0  0  0  0  0  0  0  0  0  0
   -1.7517   -0.8483    0.3266 N   0  0  0  0  0  0  0  0  0  0  0  0
   -2.4847   -0.5123   -0.2804 H   0  0  0  0  0  0  0  0  0  0  0  0
   -0.4117   -0.2463    0.2186 C   0  0  1  0  0  0  0  0  0  0  0  0
   -0.2729    0.4296    1.0661 H   0  0  0  0  0  0  0  0  0  0  0  0
    0.6446   -1.3678    0.3514 C   0  0  0  0  0  0  0  0  0  0  0  0
    0.4658   -2.1090   -0.4318 H   0  0  0  0  0  0  0  0  0  0  0  0
    1.6355   -0.9451    0.1725 H   0  0  0  0  0  0  0  0  0  0  0  0
    0.6691   -2.0736    1.6906 C   0  0  0  0  0  0  0  0  0  0  0  0
    1.1877   -1.5506    2.8594 N   0  3  0  0  0  0  0  0  0  0  0  0
    1.5510   -0.5964    2.9390 H   0  0  0  0  0  0  0  0  0  0  0  0
    1.0340   -2.4632    3.8392 C   0  0  0  0  0  0  0  0  0  0  0  0
    1.3357   -2.3303    4.8761 H   0  0  0  0  0  0  0  0  0  0  0  0
    0.4300   -3.5547    3.3172 N   0  0  0  0  0  0  0  0  0  0  0  0
    0.1847   -4.4009    3.8243 H   0  0  0  0  0  0  0  0  0  0  0  0
    0.1939   -3.3267    1.9686 C   0  0  0  0  0  0  0  0  0  0  0  0
   -0.2769   -4.0046    1.2620 H   0  0  0  0  0  0  0  0  0  0  0  0
   -0.2840    0.6144   -1.0509 C   0  0  0  0  0  0  0  0  0  0  0  0
    0.2270    1.7343   -1.0000 O   0  0  0  0  0  0  0  0  0  0  0  0
   -0.7656    0.0839   -2.1817 N   0  0  0  0  0  0  0  0  0  0  0  0
   -1.1566   -0.8444   -2.1303 H   0  0  0  0  0  0  0  0  0  0  0  0
   -0.7735    0.7454   -3.4900 C   0  0  0  0  0  0  0  0  0  0  0  0
    0.0430    0.3654   -4.1072 H   0  0  0  0  0  0  0  0  0  0  0  0
   -1.7170    0.5478   -4.0017 H   0  0  0  0  0  0  0  0  0  0  0  0
   -0.6573    1.8258   -3.3808 H   0  0  0  0  0  0  0  0  0  0  0  0
  5  6  2  0  0  0  0
  5  7  1  0  0  0  0
  2  3  1  0  0  0  0
  2  4  1  0  0  0  0
  2  5  1  0  0  0  0
  1  2  1  0  0  0  0
 23 24  2  0  0  0  0
 23 25  1  0  0  0  0
 21 22  1  0  0  0  0
 19 20  1  0  0  0  0
 19 21  1  0  0  0  0
 17 18  1  0  0  0  0
 17 19  1  0  0  0  0
 15 16  1  0  0  0  0
 15 17  2  0  0  0  0
 14 15  1  0  0  0  0
 14 21  2  0  0  0  0
 11 12  1  0  0  0  0
 11 13  1  0  0  0  0
 11 14  1  0  0  0  0
  9 10  1  0  0  0  0
  9 11  1  0  0  0  0
  9 23  1  0  0  0  0
  7  8  1  0  0  0  0
  7  9  1  0  0  0  0
 27 28  1  0  0  0  0
 27 29  1  0  0  0  0
 27 30  1  0  0  0  0
 25 26  1  0  0  0  0
 25 27  1  0  0  0  0
M  CHG  1  15   1
M  END
$$$$
default_name
  -OEChem-01062215323D

 30 30  0     1  0  0  0  0  0999 V2000
   -3.5507   -3.2183    1.8116 H   0  0  0  0  0  0  0  0  0  0  0  0
   -3.4597   -2.3913    1.1076 C   0  0  0  0  0  0  0  0  0  0  0  0
   -4.1577   -1.6043    1.3866 H   0  0  0  0  0  0  0  0  0  0  0  0
   -3.6807   -2.7523    0.1036 H   0  0  0  0  0  0  0  0  0  0  0  0
   -2.0477   -1.8543    1.1546 C   0  0  0  0  0  0  0  0  0  0  0  0
   -1.2227   -2.3443    1.9146 O   0  0  0  0  0  0  0  0  0  0  0  0
   -1.7517   -0.8483    0.3266 N   0  0  0  0  0  0  0  0  0  0  0  0
   -2.4847   -0.5123   -0.2804 H   0  0  0  0  0  0  0  0  0  0  0  0
   -0.4117   -0.2463    0.2186 C   0  0  1  0  0  0  0  0  0  0  0  0
   -0.2729    0.4296    1.0661 H   0  0  0  0  0  0  0  0  0  0  0  0
    0.6446   -1.3678    0.3514 C   0  0  0  0  0  0  0  0  0  0  0  0
    0.4658   -2.1090   -0.4318 H   0  0  0  0  0  0  0  0  0  0  0  0
    1.6355   -0.9451    0.1725 H   0  0  0  0  0  0  0  0  0  0  0  0
    0.6691   -2.0736    1.6906 C   0  0  0  0  0  0  0  0  0  0  0  0
    1.1877   -1.5506    2.8594 N   0  3  0  0  0  0  0  0  0  0  0  0
    1.5510   -0.5964    2.9390 H   0  0  0  0  0  0  0  0  0  0  0  0
    1.0340   -2.4632    3.8392 C   0  0  0  0  0  0  0  0  0  0  0  0
    1.3357   -2.3303    4.8761 H   0  0  0  0  0  0  0  0  0  0  0  0
    0.4300   -3.5547    3.3172 N   0  0  0  0  0  0  0  0  0  0  0  0
    0.1847   -4.4009    3.8243 H   0  0  0  0  0  0  0  0  0  0  0  0
    0.1939   -3.3267    1.9686 C   0  0  0  0  0  0  0  0  0  0  0  0
   -0.2769   -4.0046    1.2620 H   0  0  0  0  0  0  0  0  0  0  0  0
   -0.2840    0.6144   -1.0509 C   0  0  0  0  0  0  0  0  0  0  0  0
    0.4578    1.5978   -1.0693 O   0  0  0  0  0  0  0  0  0  0  0  0
   -1.0244    0.2404   -2.1016 N   0  0  0  0  0  0  0  0  0  0  0  0
   -1.5946   -0.5852   -1.9986 H   0  0  0  0  0  0  0  0  0  0  0  0
   -1.0761    0.9368   -3.3907 C   0  0  0  0  0  0  0  0  0  0  0  0
   -0.4568    0.4155   -4.1235 H   0  0  0  0  0  0  0  0  0  0  0  0
   -2.1031    0.9627   -3.7592 H   0  0  0  0  0  0  0  0  0  0  0  0
   -0.7160    1.9631   -3.2936 H   0  0  0  0  0  0  0  0  0  0  0  0
  5  6  2  0  0  0  0
  5  7  1  0  0  0  0
  2  3  1  0  0  0  0
  2  4  1  0  0  0  0
  2  5  1  0  0  0  0
  1  2  1  0  0  0  0
 23 24  2  0  0  0  0
 23 25  1  0  0  0  0
 21 22  1  0  0  0  0
 19 20  1  0  0  0  0
 19 21  1  0  0  0  0
 17 18  1  0  0  0  0
 17 19  1  0  0  0  0
 15 16  1  0  0  0  0
 15 17  2  0  0  0  0
 14 15  1  0  0  0  0
 14 21  2  0  0  0  0
 11 12  1  0  0  0  0
 11 13  1  0  0  0  0
 11 14  1  0  0  0  0
  9 10  1  0  0  0  0
  9 11  1  0  0  0  0
  9 23  1  0  0  0  0
  7  8  1  0  0  0  0
  7  9  1  0  0  0  0
 27 28  1  0  0  0  0
 27 29  1  0  0  0  0
 27 30  1  0  0  0  0
 25 26  1  0  0  0  0
 25 27  1  0  0  0  0
M  CHG  1  15   1
M  END
$$$$
default_name
  -OEChem-01062215323D

 30 30  0     1  0  0  0  0  0999 V2000
   -3.5507   -3.2183    1.8116 H   0  0  0  0  0  0  0  0  0  0  0  0
   -3.4597   -2.3913    1.1076 C   0  0  0  0  0  0  0  0  0  0  0  0
   -4.1577   -1.6043    1.3866 H   0  0  0  0  0  0  0  0  0  0  0  0
   -3.6807   -2.7523    0.1036 H   0  0  0  0  0  0  0  0  0  0  0  0
   -2.0477   -1.8543    1.1546 C   0  0  0  0  0  0  0  0  0  0  0  0
   -1.2227   -2.3443    1.9146 O   0  0  0  0  0  0  0  0  0  0  0  0
   -1.7517   -0.8483    0.3266 N   0  0  0  0  0  0  0  0  0  0  0  0
   -2.4847   -0.5123   -0.2804 H   0  0  0  0  0  0  0  0  0  0  0  0
   -0.4117   -0.2463    0.2186 C   0  0  1  0  0  0  0  0  0  0  0  0
   -0.2729    0.4296    1.0661 H   0  0  0  0  0  0  0  0  0  0  0  0
    0.6446   -1.3678    0.3514 C   0  0  0  0  0  0  0  0  0  0  0  0
    0.4658   -2.1090   -0.4318 H   0  0  0  0  0  0  0  0  0  0  0  0
    1.6355   -0.9451    0.1725 H   0  0  0  0  0  0  0  0  0  0  0  0
    0.6691   -2.0736    1.6906 C   0  0  0  0  0  0  0  0  0  0  0  0
    1.1877   -1.5506    2.8594 N   0  3  0  0  0  0  0  0  0  0  0  0
    1.5510   -0.5964    2.9390 H   0  0  0  0  0  0  0  0  0  0  0  0
    1.0340   -2.4632    3.8392 C   0  0  0  0  0  0  0  0  0  0  0  0
    1.3357   -2.3303    4.8761 H   0  0  0  0  0  0  0  0  0  0  0  0
    0.4300   -3.5547    3.3172 N   0  0  0  0  0  0  0  0  0  0  0  0
    0.1847   -4.4009    3.8243 H   0  0  0  0  0  0  0  0  0  0  0  0
    0.1939   -3.3267    1.9686 C   0  0  0  0  0  0  0  0  0  0  0  0
   -0.2769   -4.0046    1.2620 H   0  0  0  0  0  0  0  0  0  0  0  0
   -0.2840    0.6144   -1.0509 C   0  0  0  0  0  0  0  0  0  0  0  0
    0.6416    1.4183   -1.1726 O   0  0  0  0  0  0  0  0  0  0  0  0
   -1.2294    0.4452   -1.9834 N   0  0  0  0  0  0  0  0  0  0  0  0
   -1.9432   -0.2441   -1.8024 H   0  0  0  0  0  0  0  0  0  0  0  0
   -1.3132    1.1841   -3.2469 C   0  0  0  0  0  0  0  0  0  0  0  0
   -0.9313    0.5711   -4.0658 H   0  0  0  0  0  0  0  0  0  0  0  0
   -2.3523    1.4407   -3.4601 H   0  0  0  0  0  0  0  0  0  0  0  0
   -0.7307    2.1065   -3.1979 H   0  0  0  0  0  0  0  0  0  0  0  0
  5  6  2  0  0  0  0
  5  7  1  0  0  0  0
  2  3  1  0  0  0  0
  2  4  1  0  0  0  0
  2  5  1  0  0  0  0
  1  2  1  0  0  0  0
 23 24  2  0  0  0  0
 23 25  1  0  0  0  0
 21 22  1  0  0  0  0
 19 20  1  0  0  0  0
 19 21  1  0  0  0  0
 17 18  1  0  0  0  0
 17 19  1  0  0  0  0
 15 16  1  0  0  0  0
 15 17  2  0  0  0  0
 14 15  1  0  0  0  0
 14 21  2  0  0  0  0
 11 12  1  0  0  0  0
 11 13  1  0  0  0  0
 11 14  1  0  0  0  0
  9 10  1  0  0  0  0
  9 11  1  0  0  0  0
  9 23  1  0  0  0  0
  7  8  1  0  0  0  0
  7  9  1  0  0  0  0
 27 28  1  0  0  0  0
 27 29  1  0  0  0  0
 27 30  1  0  0  0  0
 25 26  1  0  0  0  0
 25 27  1  0  0  0  0
M  CHG  1  15   1
M  END
$$$$
default_name
  -OEChem-01062215323D

 30 30  0     1  0  0  0  0  0999 V2000
   -3.5507   -3.2183    1.8116 H   0  0  0  0  0  0  0  0  0  0  0  0
   -3.4597   -2.3913    1.1076 C   0  0  0  0  0  0  0  0  0  0  0  0
   -4.1577   -1.6043    1.3866 H   0  0  0  0  0  0  0  0  0  0  0  0
   -3.6807   -2.7523    0.1036 H   0  0  0  0  0  0  0  0  0  0  0  0
   -2.0477   -1.8543    1.1546 C   0  0  0  0  0  0  0  0  0  0  0  0
   -1.2227   -2.3443    1.9146 O   0  0  0  0  0  0  0  0  0  0  0  0
   -1.7517   -0.8483    0.3266 N   0  0  0  0  0  0  0  0  0  0  0  0
   -2.4847   -0.5123   -0.2804 H   0  0  0  0  0  0  0  0  0  0  0  0
   -0.4117   -0.2463    0.2186 C   0  0  1  0  0  0  0  0  0  0  0  0
   -0.2729    0.4296    1.0661 H   0  0  0  0  0  0  0  0  0  0  0  0
    0.6446   -1.3678    0.3514 C   0  0  0  0  0  0  0  0  0  0  0  0
    0.4658   -2.1090   -0.4318 H   0  0  0  0  0  0  0  0  0  0  0  0
    1.6355   -0.9451    0.1725 H   0  0  0  0  0  0  0  0  0  0  0  0
    0.6691   -2.0736    1.6906 C   0  0  0  0  0  0  0  0  0  0  0  0
    1.1877   -1.5506    2.8594 N   0  3  0  0  0  0  0  0  0  0  0  0
    1.5510   -0.5964    2.9390 H   0  0  0  0  0  0  0  0  0  0  0  0
    1.0340   -2.4632    3.8392 C   0  0  0  0  0  0  0  0  0  0  0  0
    1.3357   -2.3303    4.8761 H   0  0  0  0  0  0  0  0  0  0  0  0
    0.4300   -3.5547    3.3172 N   0  0  0  0  0  0  0  0  0  0  0  0
    0.1847   -4.4009    3.8243 H   0  0  0  0  0  0  0  0  0  0  0  0
    0.1939   -3.3267    1.9686 C   0  0  0  0  0  0  0  0  0  0  0  0
   -0.2769   -4.0046    1.2620 H   0  0  0  0  0  0  0  0  0  0  0  0
   -0.2840    0.6144   -1.0509 C   0  0  0  0  0  0  0  0  0  0  0  0
    0.7658    1.2079   -1.3027 O   0  0  0  0  0  0  0  0  0  0  0  0
   -1.3666    0.6841   -1.8352 N   0  0  0  0  0  0  0  0  0  0  0  0
   -2.1787    0.1555   -1.5552 H   0  0  0  0  0  0  0  0  0  0  0  0
   -1.4686    1.4705   -3.0684 C   0  0  0  0  0  0  0  0  0  0  0  0
   -1.3481    0.8214   -3.9380 H   0  0  0  0  0  0  0  0  0  0  0  0
   -2.4477    1.9492   -3.1250 H   0  0  0  0  0  0  0  0  0  0  0  0
   -0.7004    2.2460   -3.1002 H   0  0  0  0  0  0  0  0  0  0  0  0
  5  6  2  0  0  0  0
  5  7  1  0  0  0  0
  2  3  1  0  0  0  0
  2  4  1  0  0  0  0
  2  5  1  0  0  0  0
  1  2  1  0  0  0  0
 23 24  2  0  0  0  0
 23 25  1  0  0  0  0
 21 22  1  0  0  0  0
 19 20  1  0  0  0  0
 19 21  1  0  0  0  0
 17 18  1  0  0  0  0
 17 19  1  0  0  0  0
 15 16  1  0  0  0  0
 15 17  2  0  0  0  0
 14 15  1  0  0  0  0
 14 21  2  0  0  0  0
 11 12  1  0  0  0  0
 11 13  1  0  0  0  0
 11 14  1  0  0  0  0
  9 10  1  0  0  0  0
  9 11  1  0  0  0  0
  9 23  1  0  0  0  0
  7  8  1  0  0  0  0
  7  9  1  0  0  0  0
 27 28  1  0  0  0  0
 27 29  1  0  0  0  0
 27 30  1  0  0  0  0
 25 26  1  0  0  0  0
 25 27  1  0  0  0  0
M  CHG  1  15   1
M  END
$$$$
default_name
  -OEChem-01062215323D

 30 30  0     1  0  0  0  0  0999 V2000
   -3.5507   -3.2183    1.8116 H   0  0  0  0  0  0  0  0  0  0  0  0
   -3.4597   -2.3913    1.1076 C   0  0  0  0  0  0  0  0  0  0  0  0
   -4.1577   -1.6043    1.3866 H   0  0  0  0  0  0  0  0  0  0  0  0
   -3.6807   -2.7523    0.1036 H   0  0  0  0  0  0  0  0  0  0  0  0
   -2.0477   -1.8543    1.1546 C   0  0  0  0  0  0  0  0  0  0  0  0
   -1.2227   -2.3443    1.9146 O   0  0  0  0  0  0  0  0  0  0  0  0
   -1.7517   -0.8483    0.3266 N   0  0  0  0  0  0  0  0  0  0  0  0
   -2.4847   -0.5123   -0.2804 H   0  0  0  0  0  0  0  0  0  0  0  0
   -0.4117   -0.2463    0.2186 C   0  0  1  0  0  0  0  0  0  0  0  0
   -0.2729    0.4296    1.0661 H   0  0  0  0  0  0  0  0  0  0  0  0
    0.6446   -1.3678    0.3514 C   0  0  0  0  0  0  0  0  0  0  0  0
    0.4658   -2.1090   -0.4318 H   0  0  0  0  0  0  0  0  0  0  0  0
    1.6355   -0.9451    0.1725 H   0  0  0  0  0  0  0  0  0  0  0  0
    0.6691   -2.0736    1.6906 C   0  0  0  0  0  0  0  0  0  0  0  0
    1.1877   -1.5506    2.8594 N   0  3  0  0  0  0  0  0  0  0  0  0
    1.5510   -0.5964    2.9390 H   0  0  0  0  0  0  0  0  0  0  0  0
    1.0340   -2.4632    3.8392 C   0  0  0  0  0  0  0  0  0  0  0  0
    1.3357   -2.3303    4.8761 H   0  0  0  0  0  0  0  0  0  0  0  0
    0.4300   -3.5547    3.3172 N   0  0  0  0  0  0  0  0  0  0  0  0
    0.1847   -4.4009    3.8243 H   0  0  0  0  0  0  0  0  0  0  0  0
    0.1939   -3.3267    1.9686 C   0  0  0  0  0  0  0  0  0  0  0  0
   -0.2769   -4.0046    1.2620 H   0  0  0  0  0  0  0  0  0  0  0  0
   -0.2840    0.6144   -1.0509 C   0  0  0  0  0  0  0  0  0  0  0  0
    0.8221    0.9809   -1.4510 O   0  0  0  0  0  0  0  0  0  0  0  0
   -1.4267    0.9411   -1.6671 N   0  0  0  0  0  0  0  0  0  0  0  0
   -2.2851    0.5865   -1.2736 H   0  0  0  0  0  0  0  0  0  0  0  0
   -1.5317    1.7765   -2.8672 C   0  0  0  0  0  0  0  0  0  0  0  0
   -1.6787    1.1493   -3.7488 H   0  0  0  0  0  0  0  0  0  0  0  0
   -2.3828    2.4536   -2.7765 H   0  0  0  0  0  0  0  0  0  0  0  0
   -0.6273    2.3722   -3.0073 H   0  0  0  0  0  0  0  0  0  0  0  0
  5  6  2  0  0  0  0
  5  7  1  0  0  0  0
  2  3  1  0  0  0  0
  2  4  1  0  0  0  0
  2  5  1  0  0  0  0
  1  2  1  0  0  0  0
 23 24  2  0  0  0  0
 23 25  1  0  0  0  0
 21 22  1  0  0  0  0
 19 20  1  0  0  0  0
 19 21  1  0  0  0  0
 17 18  1  0  0  0  0
 17 19  1  0  0  0  0
 15 16  1  0  0  0  0
 15 17  2  0  0  0  0
 14 15  1  0  0  0  0
 14 21  2  0  0  0  0
 11 12  1  0  0  0  0
 11 13  1  0  0  0  0
 11 14  1  0  0  0  0
  9 10  1  0  0  0  0
  9 11  1  0  0  0  0
  9 23  1  0  0  0  0
  7  8  1  0  0  0  0
  7  9  1  0  0  0  0
 27 28  1  0  0  0  0
 27 29  1  0  0  0  0
 27 30  1  0  0  0  0
 25 26  1  0  0  0  0
 25 27  1  0  0  0  0
M  CHG  1  15   1
M  END
$$$$
default_name
  -OEChem-01062215323D

 30 30  0     1  0  0  0  0  0999 V2000
   -3.5507   -3.2183    1.8116 H   0  0  0  0  0  0  0  0  0  0  0  0
   -3.4597   -2.3913    1.1076 C   0  0  0  0  0  0  0  0  0  0  0  0
   -4.1577   -1.6043    1.3866 H   0  0  0  0  0  0  0  0  0  0  0  0
   -3.6807   -2.7523    0.1036 H   0  0  0  0  0  0  0  0  0  0  0  0
   -2.0477   -1.8543    1.1546 C   0  0  0  0  0  0  0  0  0  0  0  0
   -1.2227   -2.3443    1.9146 O   0  0  0  0  0  0  0  0  0  0  0  0
   -1.7517   -0.8483    0.3266 N   0  0  0  0  0  0  0  0  0  0  0  0
   -2.4847   -0.5123   -0.2804 H   0  0  0  0  0  0  0  0  0  0  0  0
   -0.4117   -0.2463    0.2186 C   0  0  1  0  0  0  0  0  0  0  0  0
   -0.2729    0.4296    1.0661 H   0  0  0  0  0  0  0  0  0  0  0  0
    0.6446   -1.3678    0.3514 C   0  0  0  0  0  0  0  0  0  0  0  0
    0.4658   -2.1090   -0.4318 H   0  0  0  0  0  0  0  0  0  0  0  0
    1.6355   -0.9451    0.1725 H   0  0  0  0  0  0  0  0  0  0  0  0
    0.6691   -2.0736    1.6906 C   0  0  0  0  0  0  0  0  0  0  0  0
    1.1877   -1.5506    2.8594 N   0  3  0  0  0  0  0  0  0  0  0  0
    1.5510   -0.5964    2.9390 H   0  0  0  0  0  0  0  0  0  0  0  0
    1.0340   -2.4632    3.8392 C   0  0  0  0  0  0  0  0  0  0  0  0
    1.3357   -2.3303    4.8761 H   0  0  0  0  0  0  0  0  0  0  0  0
    0.4300   -3.5547    3.3172 N   0  0  0  0  0  0  0  0  0  0  0  0
    0.1847   -4.4009    3.8243 H   0  0  0  0  0  0  0  0  0  0  0  0
    0.1939   -3.3267    1.9686 C   0  0  0  0  0  0  0  0  0  0  0  0
   -0.2769   -4.0046    1.2620 H   0  0  0  0  0  0  0  0  0  0  0  0
   -0.2840    0.6144   -1.0509 C   0  0  0  0  0  0  0  0  0  0  0  0
    0.8065    0.7528   -1.6072 O   0  0  0  0  0  0  0  0  0  0  0  0
   -1.4055    1.1985   -1.4904 N   0  0  0  0  0  0  0  0  0  0  0  0
   -2.2551    1.0195   -0.9771 H   0  0  0  0  0  0  0  0  0  0  0  0
   -1.4982    2.0812   -2.6573 C   0  0  0  0  0  0  0  0  0  0  0  0
   -1.9007    1.5327   -3.5113 H   0  0  0  0  0  0  0  0  0  0  0  0
   -2.1620    2.9194   -2.4384 H   0  0  0  0  0  0  0  0  0  0  0  0
   -0.5162    2.4766   -2.9254 H   0  0  0  0  0  0  0  0  0  0  0  0
  5  6  2  0  0  0  0
  5  7  1  0  0  0  0
  2  3  1  0  0  0  0
  2  4  1  0  0  0  0
  2  5  1  0  0  0  0
  1  2  1  0  0  0  0
 23 24  2  0  0  0  0
 23 25  1  0  0  0  0
 21 22  1  0  0  0  0
 19 20  1  0  0  0  0
 19 21  1  0  0  0  0
 17 18  1  0  0  0  0
 17 19  1  0  0  0  0
 15 16  1  0  0  0  0
 15 17  2  0  0  0  0
 14 15  1  0  0  0  0
 14 21  2  0  0  0  0
 11 12  1  0  0  0  0
 11 13  1  0  0  0  0
 11 14  1  0  0  0  0
  9 10  1  0  0  0  0
  9 11  1  0  0  0  0
  9 23  1  0  0  0  0
  7  8  1  0  0  0  0
  7  9  1  0  0  0  0
 27 28  1  0  0  0  0
 27 29  1  0  0  0  0
 27 30  1  0  0  0  0
 25 26  1  0  0  0  0
 25 27  1  0  0  0  0
M  CHG  1  15   1
M  END
$$$$
default_name
  -OEChem-01062215323D

 30 30  0     1  0  0  0  0  0999 V2000
   -3.5507   -3.2183    1.8116 H   0  0  0  0  0  0  0  0  0  0  0  0
   -3.4597   -2.3913    1.1076 C   0  0  0  0  0  0  0  0  0  0  0  0
   -4.1577   -1.6043    1.3866 H   0  0  0  0  0  0  0  0  0  0  0  0
   -3.6807   -2.7523    0.1036 H   0  0  0  0  0  0  0  0  0  0  0  0
   -2.0477   -1.8543    1.1546 C   0  0  0  0  0  0  0  0  0  0  0  0
   -1.2227   -2.3443    1.9146 O   0  0  0  0  0  0  0  0  0  0  0  0
   -1.7517   -0.8483    0.3266 N   0  0  0  0  0  0  0  0  0  0  0  0
   -2.4847   -0.5123   -0.2804 H   0  0  0  0  0  0  0  0  0  0  0  0
   -0.4117   -0.2463    0.2186 C   0  0  1  0  0  0  0  0  0  0  0  0
   -0.2729    0.4296    1.0661 H   0  0  0  0  0  0  0  0  0  0  0  0
    0.6446   -1.3678    0.3514 C   0  0  0  0  0  0  0  0  0  0  0  0
    0.4658   -2.1090   -0.4318 H   0  0  0  0  0  0  0  0  0  0  0  0
    1.6355   -0.9451    0.1725 H   0  0  0  0  0  0  0  0  0  0  0  0
    0.6691   -2.0736    1.6906 C   0  0  0  0  0  0  0  0  0  0  0  0
    1.1877   -1.5506    2.8594 N   0  3  0  0  0  0  0  0  0  0  0  0
    1.5510   -0.5964    2.9390 H   0  0  0  0  0  0  0  0  0  0  0  0
    1.0340   -2.4632    3.8392 C   0  0  0  0  0  0  0  0  0  0  0  0
    1.3357   -2.3303    4.8761 H   0  0  0  0  0  0  0  0  0  0  0  0
    0.4300   -3.5547    3.3172 N   0  0  0  0  0  0  0  0  0  0  0  0
    0.1847   -4.4009    3.8243 H   0  0  0  0  0  0  0  0  0  0  0  0
    0.1939   -3.3267    1.9686 C   0  0  0  0  0  0  0  0  0  0  0  0
   -0.2769   -4.0046    1.2620 H   0  0  0  0  0  0  0  0  0  0  0  0
   -0.2840    0.6144   -1.0509 C   0  0  0  0  0  0  0  0  0  0  0  0
    0.7201    0.5391   -1.7607 O   0  0  0  0  0  0  0  0  0  0  0  0
   -1.3046    1.4388   -1.3173 N   0  0  0  0  0  0  0  0  0  0  0  0
   -2.0908    1.4249   -0.6857 H   0  0  0  0  0  0  0  0  0  0  0  0
   -1.3705    2.3639   -2.4528 C   0  0  0  0  0  0  0  0  0  0  0  0
   -1.9989    1.9453   -3.2414 H   0  0  0  0  0  0  0  0  0  0  0  0
   -1.8003    3.3150   -2.1339 H   0  0  0  0  0  0  0  0  0  0  0  0
   -0.3748    2.5519   -2.8601 H   0  0  0  0  0  0  0  0  0  0  0  0
  5  6  2  0  0  0  0
  5  7  1  0  0  0  0
  2  3  1  0  0  0  0
  2  4  1  0  0  0  0
  2  5  1  0  0  0  0
  1  2  1  0  0  0  0
 23 24  2  0  0  0  0
 23 25  1  0  0  0  0
 21 22  1  0  0  0  0
 19 20  1  0  0  0  0
 19 21  1  0  0  0  0
 17 18  1  0  0  0  0
 17 19  1  0  0  0  0
 15 16  1  0  0  0  0
 15 17  2  0  0  0  0
 14 15  1  0  0  0  0
 14 21  2  0  0  0  0
 11 12  1  0  0  0  0
 11 13  1  0  0  0  0
 11 14  1  0  0  0  0
  9 10  1  0  0  0  0
  9 11  1  0  0  0  0
  9 23  1  0  0  0  0
  7  8  1  0  0  0  0
  7  9  1  0  0  0  0
 27 28  1  0  0  0  0
 27 29  1  0  0  0  0
 27 30  1  0  0  0  0
 25 26  1  0  0  0  0
 25 27  1  0  0  0  0
M  CHG  1  15   1
M  END
$$$$
default_name
  -OEChem-01062215323D

 30 30  0     1  0  0  0  0  0999 V2000
   -3.5507   -3.2183    1.8116 H   0  0  0  0  0  0  0  0  0  0  0  0
   -3.4597   -2.3913    1.1076 C   0  0  0  0  0  0  0  0  0  0  0  0
   -4.1577   -1.6043    1.3866 H   0  0  0  0  0  0  0  0  0  0  0  0
   -3.6807   -2.7523    0.1036 H   0  0  0  0  0  0  0  0  0  0  0  0
   -2.0477   -1.8543    1.1546 C   0  0  0  0  0  0  0  0  0  0  0  0
   -1.2227   -2.3443    1.9146 O   0  0  0  0  0  0  0  0  0  0  0  0
   -1.7517   -0.8483    0.3266 N   0  0  0  0  0  0  0  0  0  0  0  0
   -2.4847   -0.5123   -0.2804 H   0  0  0  0  0  0  0  0  0  0  0  0
   -0.4117   -0.2463    0.2186 C   0  0  1  0  0  0  0  0  0  0  0  0
   -0.2729    0.4296    1.0661 H   0  0  0  0  0  0  0  0  0  0  0  0
    0.6446   -1.3678    0.3514 C   0  0  0  0  0  0  0  0  0  0  0  0
    0.4658   -2.1090   -0.4318 H   0  0  0  0  0  0  0  0  0  0  0  0
    1.6355   -0.9451    0.1725 H   0  0  0  0  0  0  0  0  0  0  0  0
    0.6691   -2.0736    1.6906 C   0  0  0  0  0  0  0  0  0  0  0  0
    1.1877   -1.5506    2.8594 N   0  3  0  0  0  0  0  0  0  0  0  0
    1.5510   -0.5964    2.9390 H   0  0  0  0  0  0  0  0  0  0  0  0
    1.0340   -2.4632    3.8392 C   0  0  0  0  0  0  0  0  0  0  0  0
    1.3357   -2.3303    4.8761 H   0  0  0  0  0  0  0  0  0  0  0  0
    0.4300   -3.5547    3.3172 N   0  0  0  0  0  0  0  0  0  0  0  0
    0.1847   -4.4009    3.8243 H   0  0  0  0  0  0  0  0  0  0  0  0
    0.1939   -3.3267    1.9686 C   0  0  0  0  0  0  0  0  0  0  0  0
   -0.2769   -4.0046    1.2620 H   0  0  0  0  0  0  0  0  0  0  0  0
   -0.2840    0.6144   -1.0509 C   0  0  0  0  0  0  0  0  0  0  0  0
    0.5688    0.3545   -1.9011 O   0  0  0  0  0  0  0  0  0  0  0  0
   -1.1307    1.6457   -1.1596 N   0  0  0  0  0  0  0  0  0  0  0  0
   -1.8034    1.7752   -0.4192 H   0  0  0  0  0  0  0  0  0  0  0  0
   -1.1571    2.6052   -2.2677 C   0  0  0  0  0  0  0  0  0  0  0  0
   -1.9666    2.3589   -2.9577 H   0  0  0  0  0  0  0  0  0  0  0  0
   -1.3224    3.6133   -1.8836 H   0  0  0  0  0  0  0  0  0  0  0  0
   -0.2127    2.5930   -2.8160 H   0  0  0  0  0  0  0  0  0  0  0  0
  5  6  2  0  0  0  0
  5  7  1  0  0  0  0
  2  3  1  0  0  0  0
  2  4  1  0  0  0  0
  2  5  1  0  0  0  0
  1  2  1  0  0  0  0
 23 24  2  0  0  0  0
 23 25  1  0  0  0  0
 21 22  1  0  0  0  0
 19 20  1  0  0  0  0
 19 21  1  0  0  0  0
 17 18  1  0  0  0  0
 17 19  1  0  0  0  0
 15 16  1  0  0  0  0
 15 17  2  0  0  0  0
 14 15  1  0  0  0  0
 14 21  2  0  0  0  0
 11 12  1  0  0  0  0
 11 13  1  0  0  0  0
 11 14  1  0  0  0  0
  9 10  1  0  0  0  0
  9 11  1  0  0  0  0
  9 23  1  0  0  0  0
  7  8  1  0  0  0  0
  7  9  1  0  0  0  0
 27 28  1  0  0  0  0
 27 29  1  0  0  0  0
 27 30  1  0  0  0  0
 25 26  1  0  0  0  0
 25 27  1  0  0  0  0
M  CHG  1  15   1
M  END
$$$$
default_name
  -OEChem-01062215323D

 30 30  0     1  0  0  0  0  0999 V2000
   -3.5507   -3.2183    1.8116 H   0  0  0  0  0  0  0  0  0  0  0  0
   -3.4597   -2.3913    1.1076 C   0  0  0  0  0  0  0  0  0  0  0  0
   -4.1577   -1.6043    1.3866 H   0  0  0  0  0  0  0  0  0  0  0  0
   -3.6807   -2.7523    0.1036 H   0  0  0  0  0  0  0  0  0  0  0  0
   -2.0477   -1.8543    1.1546 C   0  0  0  0  0  0  0  0  0  0  0  0
   -1.2227   -2.3443    1.9146 O   0  0  0  0  0  0  0  0  0  0  0  0
   -1.7517   -0.8483    0.3266 N   0  0  0  0  0  0  0  0  0  0  0  0
   -2.4847   -0.5123   -0.2804 H   0  0  0  0  0  0  0  0  0  0  0  0
   -0.4117   -0.2463    0.2186 C   0  0  1  0  0  0  0  0  0  0  0  0
   -0.2729    0.4296    1.0661 H   0  0  0  0  0  0  0  0  0  0  0  0
    0.6446   -1.3678    0.3514 C   0  0  0  0  0  0  0  0  0  0  0  0
    0.4658   -2.1090   -0.4318 H   0  0  0  0  0  0  0  0  0  0  0  0
    1.6355   -0.9451    0.1725 H   0  0  0  0  0  0  0  0  0  0  0  0
    0.6691   -2.0736    1.6906 C   0  0  0  0  0  0  0  0  0  0  0  0
    1.1877   -1.5506    2.8594 N   0  3  0  0  0  0  0  0  0  0  0  0
    1.5510   -0.5964    2.9390 H   0  0  0  0  0  0  0  0  0  0  0  0
    1.0340   -2.4632    3.8392 C   0  0  0  0  0  0  0  0  0  0  0  0
    1.3357   -2.3303    4.8761 H   0  0  0  0  0  0  0  0  0  0  0  0
    0.4300   -3.5547    3.3172 N   0  0  0  0  0  0  0  0  0  0  0  0
    0.1847   -4.4009    3.8243 H   0  0  0  0  0  0  0  0  0  0  0  0
    0.1939   -3.3267    1.9686 C   0  0  0  0  0  0  0  0  0  0  0  0
   -0.2769   -4.0046    1.2620 H   0  0  0  0  0  0  0  0  0  0  0  0
   -0.2840    0.6144   -1.0509 C   0  0  0  0  0  0  0  0  0  0  0  0
    0.3630    0.2115   -2.0188 O   0  0  0  0  0  0  0  0  0  0  0  0
   -0.8957    1.8050   -1.0280 N   0  0  0  0  0  0  0  0  0  0  0  0
   -1.4123    2.0465   -0.1960 H   0  0  0  0  0  0  0  0  0  0  0  0
   -0.8727    2.7889   -2.1146 C   0  0  0  0  0  0  0  0  0  0  0  0
   -1.8060    2.7455   -2.6795 H   0  0  0  0  0  0  0  0  0  0  0  0
   -0.7609    3.7941   -1.7046 H   0  0  0  0  0  0  0  0  0  0  0  0
   -0.0410    2.5972   -2.7958 H   0  0  0  0  0  0  0  0  0  0  0  0
  5  6  2  0  0  0  0
  5  7  1  0  0  0  0
  2  3  1  0  0  0  0
  2  4  1  0  0  0  0
  2  5  1  0  0  0  0
  1  2  1  0  0  0  0
 23 24  2  0  0  0  0
 23 25  1  0  0  0  0
 21 22  1  0  0  0  0
 19 20  1  0  0  0  0
 19 21  1  0  0  0  0
 17 18  1  0  0  0  0
 17 19  1  0  0  0  0
 15 16  1  0  0  0  0
 15 17  2  0  0  0  0
 14 15  1  0  0  0  0
 14 21  2  0  0  0  0
 11 12  1  0  0  0  0
 11 13  1  0  0  0  0
 11 14  1  0  0  0  0
  9 10  1  0  0  0  0
  9 11  1  0  0  0  0
  9 23  1  0  0  0  0
  7  8  1  0  0  0  0
  7  9  1  0  0  0  0
 27 28  1  0  0  0  0
 27 29  1  0  0  0  0
 27 30  1  0  0  0  0
 25 26  1  0  0  0  0
 25 27  1  0  0  0  0
M  CHG  1  15   1
M  END
$$$$
default_name
  -OEChem-01062215323D

 30 30  0     1  0  0  0  0  0999 V2000
   -3.5507   -3.2183    1.8116 H   0  0  0  0  0  0  0  0  0  0  0  0
   -3.4597   -2.3913    1.1076 C   0  0  0  0  0  0  0  0  0  0  0  0
   -4.1577   -1.6043    1.3866 H   0  0  0  0  0  0  0  0  0  0  0  0
   -3.6807   -2.7523    0.1036 H   0  0  0  0  0  0  0  0  0  0  0  0
   -2.0477   -1.8543    1.1546 C   0  0  0  0  0  0  0  0  0  0  0  0
   -1.2227   -2.3443    1.9146 O   0  0  0  0  0  0  0  0  0  0  0  0
   -1.7517   -0.8483    0.3266 N   0  0  0  0  0  0  0  0  0  0  0  0
   -2.4847   -0.5123   -0.2804 H   0  0  0  0  0  0  0  0  0  0  0  0
   -0.4117   -0.2463    0.2186 C   0  0  1  0  0  0  0  0  0  0  0  0
   -0.2729    0.4296    1.0661 H   0  0  0  0  0  0  0  0  0  0  0  0
    0.6446   -1.3678    0.3514 C   0  0  0  0  0  0  0  0  0  0  0  0
    0.4658   -2.1090   -0.4318 H   0  0  0  0  0  0  0  0  0  0  0  0
    1.6355   -0.9451    0.1725 H   0  0  0  0  0  0  0  0  0  0  0  0
    0.6691   -2.0736    1.6906 C   0  0  0  0  0  0  0  0  0  0  0  0
    1.1877   -1.5506    2.8594 N   0  3  0  0  0  0  0  0  0  0  0  0
    1.5510   -0.5964    2.9390 H   0  0  0  0  0  0  0  0  0  0  0  0
    1.0340   -2.4632    3.8392 C   0  0  0  0  0  0  0  0  0  0  0  0
    1.3357   -2.3303    4.8761 H   0  0  0  0  0  0  0  0  0  0  0  0
    0.4300   -3.5547    3.3172 N   0  0  0  0  0  0  0  0  0  0  0  0
    0.1847   -4.4009    3.8243 H   0  0  0  0  0  0  0  0  0  0  0  0
    0.1939   -3.3267    1.9686 C   0  0  0  0  0  0  0  0  0  0  0  0
   -0.2769   -4.0046    1.2620 H   0  0  0  0  0  0  0  0  0  0  0  0
   -0.2840    0.6144   -1.0509 C   0  0  0  0  0  0  0  0  0  0  0  0
    0.1166    0.1198   -2.1057 O   0  0  0  0  0  0  0  0  0  0  0  0
   -0.6157    1.9059   -0.9314 N   0  0  0  0  0  0  0  0  0  0  0  0
   -0.9444    2.2203   -0.0311 H   0  0  0  0  0  0  0  0  0  0  0  0
   -0.5366    2.9022   -2.0039 C   0  0  0  0  0  0  0  0  0  0  0  0
   -1.5281    3.0787   -2.4256 H   0  0  0  0  0  0  0  0  0  0  0  0
   -0.1540    3.8450   -1.6090 H   0  0  0  0  0  0  0  0  0  0  0  0
    0.1287    2.5641   -2.8012 H   0  0  0  0  0  0  0  0  0  0  0  0
  5  6  2  0  0  0  0
  5  7  1  0  0  0  0
  2  3  1  0  0  0  0
  2  4  1  0  0  0  0
  2  5  1  0  0  0  0
  1  2  1  0  0  0  0
 23 24  2  0  0  0  0
 23 25  1  0  0  0  0
 21 22  1  0  0  0  0
 19 20  1  0  0  0  0
 19 21  1  0  0  0  0
 17 18  1  0  0  0  0
 17 19  1  0  0  0  0
 15 16  1  0  0  0  0
 15 17  2  0  0  0  0
 14 15  1  0  0  0  0
 14 21  2  0  0  0  0
 11 12  1  0  0  0  0
 11 13  1  0  0  0  0
 11 14  1  0  0  0  0
  9 10  1  0  0  0  0
  9 11  1  0  0  0  0
  9 23  1  0  0  0  0
  7  8  1  0  0  0  0
  7  9  1  0  0  0  0
 27 28  1  0  0  0  0
 27 29  1  0  0  0  0
 27 30  1  0  0  0  0
 25 26  1  0  0  0  0
 25 27  1  0  0  0  0
M  CHG  1  15   1
M  END
$$$$
default_name
  -OEChem-01062215323D

 30 30  0     1  0  0  0  0  0999 V2000
   -3.5507   -3.2183    1.8116 H   0  0  0  0  0  0  0  0  0  0  0  0
   -3.4597   -2.3913    1.1076 C   0  0  0  0  0  0  0  0  0  0  0  0
   -4.1577   -1.6043    1.3866 H   0  0  0  0  0  0  0  0  0  0  0  0
   -3.6807   -2.7523    0.1036 H   0  0  0  0  0  0  0  0  0  0  0  0
   -2.0477   -1.8543    1.1546 C   0  0  0  0  0  0  0  0  0  0  0  0
   -1.2227   -2.3443    1.9146 O   0  0  0  0  0  0  0  0  0  0  0  0
   -1.7517   -0.8483    0.3266 N   0  0  0  0  0  0  0  0  0  0  0  0
   -2.4847   -0.5123   -0.2804 H   0  0  0  0  0  0  0  0  0  0  0  0
   -0.4117   -0.2463    0.2186 C   0  0  1  0  0  0  0  0  0  0  0  0
   -0.2729    0.4296    1.0661 H   0  0  0  0  0  0  0  0  0  0  0  0
    0.6446   -1.3678    0.3514 C   0  0  0  0  0  0  0  0  0  0  0  0
    0.4658   -2.1090   -0.4318 H   0  0  0  0  0  0  0  0  0  0  0  0
    1.6355   -0.9451    0.1725 H   0  0  0  0  0  0  0  0  0  0  0  0
    0.6691   -2.0736    1.6906 C   0  0  0  0  0  0  0  0  0  0  0  0
    1.1877   -1.5506    2.8594 N   0  3  0  0  0  0  0  0  0  0  0  0
    1.5510   -0.5964    2.9390 H   0  0  0  0  0  0  0  0  0  0  0  0
    1.0340   -2.4632    3.8392 C   0  0  0  0  0  0  0  0  0  0  0  0
    1.3357   -2.3303    4.8761 H   0  0  0  0  0  0  0  0  0  0  0  0
    0.4300   -3.5547    3.3172 N   0  0  0  0  0  0  0  0  0  0  0  0
    0.1847   -4.4009    3.8243 H   0  0  0  0  0  0  0  0  0  0  0  0
    0.1939   -3.3267    1.9686 C   0  0  0  0  0  0  0  0  0  0  0  0
   -0.2769   -4.0046    1.2620 H   0  0  0  0  0  0  0  0  0  0  0  0
   -0.2840    0.6144   -1.0509 C   0  0  0  0  0  0  0  0  0  0  0  0
   -0.1536    0.0857   -2.1560 O   0  0  0  0  0  0  0  0  0  0  0  0
   -0.3097    1.9415   -0.8765 N   0  0  0  0  0  0  0  0  0  0  0  0
   -0.4315    2.2847    0.0641 H   0  0  0  0  0  0  0  0  0  0  0  0
   -0.1717    2.9376   -1.9433 C   0  0  0  0  0  0  0  0  0  0  0  0
   -1.1518    3.3358   -2.2135 H   0  0  0  0  0  0  0  0  0  0  0  0
    0.4569    3.7626   -1.6035 H   0  0  0  0  0  0  0  0  0  0  0  0
    0.2848    2.4961   -2.8316 H   0  0  0  0  0  0  0  0  0  0  0  0
  5  6  2  0  0  0  0
  5  7  1  0  0  0  0
  2  3  1  0  0  0  0
  2  4  1  0  0  0  0
  2  5  1  0  0  0  0
  1  2  1  0  0  0  0
 23 24  2  0  0  0  0
 23 25  1  0  0  0  0
 21 22  1  0  0  0  0
 19 20  1  0  0  0  0
 19 21  1  0  0  0  0
 17 18  1  0  0  0  0
 17 19  1  0  0  0  0
 15 16  1  0  0  0  0
 15 17  2  0  0  0  0
 14 15  1  0  0  0  0
 14 21  2  0  0  0  0
 11 12  1  0  0  0  0
 11 13  1  0  0  0  0
 11 14  1  0  0  0  0
  9 10  1  0  0  0  0
  9 11  1  0  0  0  0
  9 23  1  0  0  0  0
  7  8  1  0  0  0  0
  7  9  1  0  0  0  0
 27 28  1  0  0  0  0
 27 29  1  0  0  0  0
 27 30  1  0  0  0  0
 25 26  1  0  0  0  0
 25 27  1  0  0  0  0
M  CHG  1  15   1
M  END
$$$$
default_name
  -OEChem-01062215323D

 30 30  0     1  0  0  0  0  0999 V2000
   -3.5507   -3.2183    1.8116 H   0  0  0  0  0  0  0  0  0  0  0  0
   -3.4597   -2.3913    1.1076 C   0  0  0  0  0  0  0  0  0  0  0  0
   -4.1577   -1.6043    1.3866 H   0  0  0  0  0  0  0  0  0  0  0  0
   -3.6807   -2.7523    0.1036 H   0  0  0  0  0  0  0  0  0  0  0  0
   -2.0477   -1.8543    1.1546 C   0  0  0  0  0  0  0  0  0  0  0  0
   -1.2227   -2.3443    1.9146 O   0  0  0  0  0  0  0  0  0  0  0  0
   -1.7517   -0.8483    0.3266 N   0  0  0  0  0  0  0  0  0  0  0  0
   -2.4847   -0.5123   -0.2804 H   0  0  0  0  0  0  0  0  0  0  0  0
   -0.4117   -0.2463    0.2186 C   0  0  1  0  0  0  0  0  0  0  0  0
   -0.2729    0.4296    1.0661 H   0  0  0  0  0  0  0  0  0  0  0  0
    0.6446   -1.3678    0.3514 C   0  0  0  0  0  0  0  0  0  0  0  0
    0.4658   -2.1090   -0.4318 H   0  0  0  0  0  0  0  0  0  0  0  0
    1.6355   -0.9451    0.1725 H   0  0  0  0  0  0  0  0  0  0  0  0
    0.6691   -2.0736    1.6906 C   0  0  0  0  0  0  0  0  0  0  0  0
    1.1877   -1.5506    2.8594 N   0  3  0  0  0  0  0  0  0  0  0  0
    1.5510   -0.5964    2.9390 H   0  0  0  0  0  0  0  0  0  0  0  0
    1.0340   -2.4632    3.8392 C   0  0  0  0  0  0  0  0  0  0  0  0
    1.3357   -2.3303    4.8761 H   0  0  0  0  0  0  0  0  0  0  0  0
    0.4300   -3.5547    3.3172 N   0  0  0  0  0  0  0  0  0  0  0  0
    0.1847   -4.4009    3.8243 H   0  0  0  0  0  0  0  0  0  0  0  0
    0.1939   -3.3267    1.9686 C   0  0  0  0  0  0  0  0  0  0  0  0
   -0.2769   -4.0046    1.2620 H   0  0  0  0  0  0  0  0  0  0  0  0
   -0.2840    0.6144   -1.0509 C   0  0  0  0  0  0  0  0  0  0  0  0
   -0.4291    0.1115   -2.1662 O   0  0  0  0  0  0  0  0  0  0  0  0
    0.0014    1.9094   -0.8670 N   0  0  0  0  0  0  0  0  0  0  0  0
    0.0915    2.2354    0.0832 H   0  0  0  0  0  0  0  0  0  0  0  0
    0.1970    2.8926   -1.9367 C   0  0  0  0  0  0  0  0  0  0  0  0
   -0.7028    3.4991   -2.0576 H   0  0  0  0  0  0  0  0  0  0  0  0
    1.0302    3.5524   -1.6884 H   0  0  0  0  0  0  0  0  0  0  0  0
    0.4166    2.3977   -2.8851 H   0  0  0  0  0  0  0  0  0  0  0  0
  5  6  2  0  0  0  0
  5  7  1  0  0  0  0
  2  3  1  0  0  0  0
  2  4  1  0  0  0  0
  2  5  1  0  0  0  0
  1  2  1  0  0  0  0
 23 24  2  0  0  0  0
 23 25  1  0  0  0  0
 21 22  1  0  0  0  0
 19 20  1  0  0  0  0
 19 21  1  0  0  0  0
 17 18  1  0  0  0  0
 17 19  1  0  0  0  0
 15 16  1  0  0  0  0
 15 17  2  0  0  0  0
 14 15  1  0  0  0  0
 14 21  2  0  0  0  0
 11 12  1  0  0  0  0
 11 13  1  0  0  0  0
 11 14  1  0  0  0  0
  9 10  1  0  0  0  0
  9 11  1  0  0  0  0
  9 23  1  0  0  0  0
  7  8  1  0  0  0  0
  7  9  1  0  0  0  0
 27 28  1  0  0  0  0
 27 29  1  0  0  0  0
 27 30  1  0  0  0  0
 25 26  1  0  0  0  0
 25 27  1  0  0  0  0
M  CHG  1  15   1
M  END
$$$$
default_name
  -OEChem-01062215323D

 30 30  0     1  0  0  0  0  0999 V2000
   -3.5507   -3.2183    1.8116 H   0  0  0  0  0  0  0  0  0  0  0  0
   -3.4597   -2.3913    1.1076 C   0  0  0  0  0  0  0  0  0  0  0  0
   -4.1577   -1.6043    1.3866 H   0  0  0  0  0  0  0  0  0  0  0  0
   -3.6807   -2.7523    0.1036 H   0  0  0  0  0  0  0  0  0  0  0  0
   -2.0477   -1.8543    1.1546 C   0  0  0  0  0  0  0  0  0  0  0  0
   -1.2227   -2.3443    1.9146 O   0  0  0  0  0  0  0  0  0  0  0  0
   -1.7517   -0.8483    0.3266 N   0  0  0  0  0  0  0  0  0  0  0  0
   -2.4847   -0.5123   -0.2804 H   0  0  0  0  0  0  0  0  0  0  0  0
   -0.4117   -0.2463    0.2186 C   0  0  1  0  0  0  0  0  0  0  0  0
   -0.2729    0.4296    1.0661 H   0  0  0  0  0  0  0  0  0  0  0  0
    0.6446   -1.3678    0.3514 C   0  0  0  0  0  0  0  0  0  0  0  0
    0.4658   -2.1090   -0.4318 H   0  0  0  0  0  0  0  0  0  0  0  0
    1.6355   -0.9451    0.1725 H   0  0  0  0  0  0  0  0  0  0  0  0
    0.6691   -2.0736    1.6906 C   0  0  0  0  0  0  0  0  0  0  0  0
    1.1877   -1.5506    2.8594 N   0  3  0  0  0  0  0  0  0  0  0  0
    1.5510   -0.5964    2.9390 H   0  0  0  0  0  0  0  0  0  0  0  0
    1.0340   -2.4632    3.8392 C   0  0  0  0  0  0  0  0  0  0  0  0
    1.3357   -2.3303    4.8761 H   0  0  0  0  0  0  0  0  0  0  0  0
    0.4300   -3.5547    3.3172 N   0  0  0  0  0  0  0  0  0  0  0  0
    0.1847   -4.4009    3.8243 H   0  0  0  0  0  0  0  0  0  0  0  0
    0.1939   -3.3267    1.9686 C   0  0  0  0  0  0  0  0  0  0  0  0
   -0.2769   -4.0046    1.2620 H   0  0  0  0  0  0  0  0  0  0  0  0
   -0.2840    0.6144   -1.0509 C   0  0  0  0  0  0  0  0  0  0  0  0
   -0.6911    0.1955   -2.1356 O   0  0  0  0  0  0  0  0  0  0  0  0
    0.2964    1.8117   -0.9035 N   0  0  0  0  0  0  0  0  0  0  0  0
    0.5889    2.0757    0.0250 H   0  0  0  0  0  0  0  0  0  0  0  0
    0.5446    2.7703   -1.9847 C   0  0  0  0  0  0  0  0  0  0  0  0
   -0.2116    3.5578   -1.9685 H   0  0  0  0  0  0  0  0  0  0  0  0
    1.5268    3.2288   -1.8578 H   0  0  0  0  0  0  0  0  0  0  0  0
    0.5152    2.2757   -2.9579 H   0  0  0  0  0  0  0  0  0  0  0  0
  5  6  2  0  0  0  0
  5  7  1  0  0  0  0
  2  3  1  0  0  0  0
  2  4  1  0  0  0  0
  2  5  1  0  0  0  0
  1  2  1  0  0  0  0
 23 24  2  0  0  0  0
 23 25  1  0  0  0  0
 21 22  1  0  0  0  0
 19 20  1  0  0  0  0
 19 21  1  0  0  0  0
 17 18  1  0  0  0  0
 17 19  1  0  0  0  0
 15 16  1  0  0  0  0
 15 17  2  0  0  0  0
 14 15  1  0  0  0  0
 14 21  2  0  0  0  0
 11 12  1  0  0  0  0
 11 13  1  0  0  0  0
 11 14  1  0  0  0  0
  9 10  1  0  0  0  0
  9 11  1  0  0  0  0
  9 23  1  0  0  0  0
  7  8  1  0  0  0  0
  7  9  1  0  0  0  0
 27 28  1  0  0  0  0
 27 29  1  0  0  0  0
 27 30  1  0  0  0  0
 25 26  1  0  0  0  0
 25 27  1  0  0  0  0
M  CHG  1  15   1
M  END
$$$$
default_name
  -OEChem-01062215323D

 30 30  0     1  0  0  0  0  0999 V2000
   -3.5507   -3.2183    1.8116 H   0  0  0  0  0  0  0  0  0  0  0  0
   -3.4597   -2.3913    1.1076 C   0  0  0  0  0  0  0  0  0  0  0  0
   -4.1577   -1.6043    1.3866 H   0  0  0  0  0  0  0  0  0  0  0  0
   -3.6807   -2.7523    0.1036 H   0  0  0  0  0  0  0  0  0  0  0  0
   -2.0477   -1.8543    1.1546 C   0  0  0  0  0  0  0  0  0  0  0  0
   -1.2227   -2.3443    1.9146 O   0  0  0  0  0  0  0  0  0  0  0  0
   -1.7517   -0.8483    0.3266 N   0  0  0  0  0  0  0  0  0  0  0  0
   -2.4847   -0.5123   -0.2804 H   0  0  0  0  0  0  0  0  0  0  0  0
   -0.4117   -0.2463    0.2186 C   0  0  1  0  0  0  0  0  0  0  0  0
   -0.2729    0.4296    1.0661 H   0  0  0  0  0  0  0  0  0  0  0  0
    0.6446   -1.3678    0.3514 C   0  0  0  0  0  0  0  0  0  0  0  0
    0.4658   -2.1090   -0.4318 H   0  0  0  0  0  0  0  0  0  0  0  0
    1.6355   -0.9451    0.1725 H   0  0  0  0  0  0  0  0  0  0  0  0
    0.6691   -2.0736    1.6906 C   0  0  0  0  0  0  0  0  0  0  0  0
    1.1877   -1.5506    2.8594 N   0  3  0  0  0  0  0  0  0  0  0  0
    1.5510   -0.5964    2.9390 H   0  0  0  0  0  0  0  0  0  0  0  0
    1.0340   -2.4632    3.8392 C   0  0  0  0  0  0  0  0  0  0  0  0
    1.3357   -2.3303    4.8761 H   0  0  0  0  0  0  0  0  0  0  0  0
    0.4300   -3.5547    3.3172 N   0  0  0  0  0  0  0  0  0  0  0  0
    0.1847   -4.4009    3.8243 H   0  0  0  0  0  0  0  0  0  0  0  0
    0.1939   -3.3267    1.9686 C   0  0  0  0  0  0  0  0  0  0  0  0
   -0.2769   -4.0046    1.2620 H   0  0  0  0  0  0  0  0  0  0  0  0
   -0.2840    0.6144   -1.0509 C   0  0  0  0  0  0  0  0  0  0  0  0
   -0.9219    0.3319   -2.0663 O   0  0  0  0  0  0  0  0  0  0  0  0
    0.5552    1.6552   -0.9836 N   0  0  0  0  0  0  0  0  0  0  0  0
    1.0269    1.8165   -0.1067 H   0  0  0  0  0  0  0  0  0  0  0  0
    0.8472    2.5789   -2.0840 C   0  0  0  0  0  0  0  0  0  0  0  0
    0.2883    3.5076   -1.9522 H   0  0  0  0  0  0  0  0  0  0  0  0
    1.9128    2.8138   -2.1003 H   0  0  0  0  0  0  0  0  0  0  0  0
    0.5739    2.1383   -3.0451 H   0  0  0  0  0  0  0  0  0  0  0  0
  5  6  2  0  0  0  0
  5  7  1  0  0  0  0
  2  3  1  0  0  0  0
  2  4  1  0  0  0  0
  2  5  1  0  0  0  0
  1  2  1  0  0  0  0
 23 24  2  0  0  0  0
 23 25  1  0  0  0  0
 21 22  1  0  0  0  0
 19 20  1  0  0  0  0
 19 21  1  0  0  0  0
 17 18  1  0  0  0  0
 17 19  1  0  0  0  0
 15 16  1  0  0  0  0
 15 17  2  0  0  0  0
 14 15  1  0  0  0  0
 14 21  2  0  0  0  0
 11 12  1  0  0  0  0
 11 13  1  0  0  0  0
 11 14  1  0  0  0  0
  9 10  1  0  0  0  0
  9 11  1  0  0  0  0
  9 23  1  0  0  0  0
  7  8  1  0  0  0  0
  7  9  1  0  0  0  0
 27 28  1  0  0  0  0
 27 29  1  0  0  0  0
 27 30  1  0  0  0  0
 25 26  1  0  0  0  0
 25 27  1  0  0  0  0
M  CHG  1  15   1
M  END
$$$$
default_name
  -OEChem-01062215323D

 30 30  0     1  0  0  0  0  0999 V2000
   -3.5507   -3.2183    1.8116 H   0  0  0  0  0  0  0  0  0  0  0  0
   -3.4597   -2.3913    1.1076 C   0  0  0  0  0  0  0  0  0  0  0  0
   -4.1577   -1.6043    1.3866 H   0  0  0  0  0  0  0  0  0  0  0  0
   -3.6807   -2.7523    0.1036 H   0  0  0  0  0  0  0  0  0  0  0  0
   -2.0477   -1.8543    1.1546 C   0  0  0  0  0  0  0  0  0  0  0  0
   -1.2227   -2.3443    1.9146 O   0  0  0  0  0  0  0  0  0  0  0  0
   -1.7517   -0.8483    0.3266 N   0  0  0  0  0  0  0  0  0  0  0  0
   -2.4847   -0.5123   -0.2804 H   0  0  0  0  0  0  0  0  0  0  0  0
   -0.4117   -0.2463    0.2186 C   0  0  1  0  0  0  0  0  0  0  0  0
   -0.2729    0.4296    1.0661 H   0  0  0  0  0  0  0  0  0  0  0  0
    0.6446   -1.3678    0.3514 C   0  0  0  0  0  0  0  0  0  0  0  0
    0.4658   -2.1090   -0.4318 H   0  0  0  0  0  0  0  0  0  0  0  0
    1.6355   -0.9451    0.1725 H   0  0  0  0  0  0  0  0  0  0  0  0
    0.6691   -2.0736    1.6906 C   0  0  0  0  0  0  0  0  0  0  0  0
    1.1877   -1.5506    2.8594 N   0  3  0  0  0  0  0  0  0  0  0  0
    1.5510   -0.5964    2.9390 H   0  0  0  0  0  0  0  0  0  0  0  0
    1.0340   -2.4632    3.8392 C   0  0  0  0  0  0  0  0  0  0  0  0
    1.3357   -2.3303    4.8761 H   0  0  0  0  0  0  0  0  0  0  0  0
    0.4300   -3.5547    3.3172 N   0  0  0  0  0  0  0  0  0  0  0  0
    0.1847   -4.4009    3.8243 H   0  0  0  0  0  0  0  0  0  0  0  0
    0.1939   -3.3267    1.9686 C   0  0  0  0  0  0  0  0  0  0  0  0
   -0.2769   -4.0046    1.2620 H   0  0  0  0  0  0  0  0  0  0  0  0
   -0.2840    0.6144   -1.0509 C   0  0  0  0  0  0  0  0  0  0  0  0
   -1.1057    0.5115   -1.9630 O   0  0  0  0  0  0  0  0  0  0  0  0
    0.7602    1.4505   -1.1018 N   0  0  0  0  0  0  0  0  0  0  0  0
    1.3755    1.4754   -0.3029 H   0  0  0  0  0  0  0  0  0  0  0  0
    1.0843    2.3316   -2.2278 C   0  0  0  0  0  0  0  0  0  0  0  0
    0.7628    3.3521   -2.0100 H   0  0  0  0  0  0  0  0  0  0  0  0
    2.1621    2.3358   -2.3994 H   0  0  0  0  0  0  0  0  0  0  0  0
    0.5886    1.9950   -3.1408 H   0  0  0  0  0  0  0  0  0  0  0  0
  5  6  2  0  0  0  0
  5  7  1  0  0  0  0
  2  3  1  0  0  0  0
  2  4  1  0  0  0  0
  2  5  1  0  0  0  0
  1  2  1  0  0  0  0
 23 24  2  0  0  0  0
 23 25  1  0  0  0  0
 21 22  1  0  0  0  0
 19 20  1  0  0  0  0
 19 21  1  0  0  0  0
 17 18  1  0  0  0  0
 17 19  1  0  0  0  0
 15 16  1  0  0  0  0
 15 17  2  0  0  0  0
 14 15  1  0  0  0  0
 14 21  2  0  0  0  0
 11 12  1  0  0  0  0
 11 13  1  0  0  0  0
 11 14  1  0  0  0  0
  9 10  1  0  0  0  0
  9 11  1  0  0  0  0
  9 23  1  0  0  0  0
  7  8  1  0  0  0  0
  7  9  1  0  0  0  0
 27 28  1  0  0  0  0
 27 29  1  0  0  0  0
 27 30  1  0  0  0  0
 25 26  1  0  0  0  0
 25 27  1  0  0  0  0
M  CHG  1  15   1
M  END
$$$$
