
  -OEChem-01062216083D

 30 30  0     1  0  0  0  0  0999 V2000
   -3.7341   -1.8310    1.3655 H   0  0  0  0  0  0  0  0  0  0  0  0
   -3.4636   -1.0902    0.6080 C   0  0  0  0  0  0  0  0  0  0  0  0
   -4.1686   -0.2569    0.6652 H   0  0  0  0  0  0  0  0  0  0  0  0
   -3.5391   -1.5520   -0.3795 H   0  0  0  0  0  0  0  0  0  0  0  0
   -2.0520   -0.5889    0.8438 C   0  0  0  0  0  0  0  0  0  0  0  0
   -1.4445   -0.9380    1.8442 O   0  0  0  0  0  0  0  0  0  0  0  0
   -1.5108    0.3428   -0.0187 N   0  0  0  0  0  0  0  0  0  0  0  0
   -2.1228    0.6613   -0.7754 H   0  0  0  0  0  0  0  0  0  0  0  0
   -0.1376    0.8905   -0.0604 C   0  0  1  0  0  0  0  0  0  0  0  0
    0.0843    1.4021    0.8814 H   0  0  0  0  0  0  0  0  0  0  0  0
    0.9566   -0.1700   -0.3860 C   0  0  0  0  0  0  0  0  0  0  0  0
    0.7068   -0.6215   -1.3533 H   0  0  0  0  0  0  0  0  0  0  0  0
    1.9268    0.3221   -0.5063 H   0  0  0  0  0  0  0  0  0  0  0  0
    1.1296   -1.2730    0.6283 C   0  0  0  0  0  0  0  0  0  0  0  0
    1.7447   -1.1789    1.8787 N   0  3  0  0  0  0  0  0  0  0  0  0
    2.0257   -0.2890    2.2952 H   0  0  0  0  0  0  0  0  0  0  0  0
    1.7140   -2.3398    2.4871 C   0  0  0  0  0  0  0  0  0  0  0  0
    2.0532   -2.5475    3.5033 H   0  0  0  0  0  0  0  0  0  0  0  0
    1.1382   -3.2533    1.6086 N   0  0  0  0  0  0  0  0  0  0  0  0
    0.9473   -4.2385    1.8128 H   0  0  0  0  0  0  0  0  0  0  0  0
    0.7809   -2.5888    0.4425 C   0  0  0  0  0  0  0  0  0  0  0  0
    0.2952   -3.0118   -0.4361 H   0  0  0  0  0  0  0  0  0  0  0  0
   -0.0670    1.9147   -1.2258 C   0  0  0  0  0  0  0  0  0  0  0  0
   -1.0318    2.0460   -1.9692 O   0  0  0  0  0  0  0  0  0  0  0  0
    1.0955    2.6074   -1.5238 N   0  0  0  0  0  0  0  0  0  0  0  0
    1.8600    2.5736   -0.8563 H   0  0  0  0  0  0  0  0  0  0  0  0
    1.1845    3.5636   -2.6262 C   0  0  0  0  0  0  0  0  0  0  0  0
    0.4621    4.3762   -2.4912 H   0  0  0  0  0  0  0  0  0  0  0  0
    2.1876    3.9991   -2.6743 H   0  0  0  0  0  0  0  0  0  0  0  0
    0.9791    3.0697   -3.5823 H   0  0  0  0  0  0  0  0  0  0  0  0
  1  2  1  0  0  0  0
  2  3  1  0  0  0  0
  2  4  1  0  0  0  0
  2  5  1  0  0  0  0
  5  6  2  0  0  0  0
  5  7  1  0  0  0  0
  7  8  1  0  0  0  0
  7  9  1  0  0  0  0
  9 10  1  0  0  0  0
  9 11  1  0  0  0  0
  9 23  1  0  0  0  0
 11 12  1  0  0  0  0
 11 13  1  0  0  0  0
 11 14  1  0  0  0  0
 14 15  1  0  0  0  0
 14 21  2  0  0  0  0
 15 16  1  0  0  0  0
 15 17  2  0  0  0  0
 17 18  1  0  0  0  0
 17 19  1  0  0  0  0
 19 20  1  0  0  0  0
 19 21  1  0  0  0  0
 21 22  1  0  0  0  0
 23 24  2  0  0  0  0
 23 25  1  0  0  0  0
 25 26  1  0  0  0  0
 25 27  1  0  0  0  0
 27 28  1  0  0  0  0
 27 29  1  0  0  0  0
 27 30  1  0  0  0  0
M  CHG  1  15   1
M  END
$$$$

  -OEChem-01062216083D

 30 30  0     1  0  0  0  0  0999 V2000
   -3.7669   -1.8058    1.3287 H   0  0  0  0  0  0  0  0  0  0  0  0
   -3.4830   -1.0562    0.5848 C   0  0  0  0  0  0  0  0  0  0  0  0
   -4.1602   -0.2026    0.6716 H   0  0  0  0  0  0  0  0  0  0  0  0
   -3.5870   -1.4918   -0.4118 H   0  0  0  0  0  0  0  0  0  0  0  0
   -2.0526   -0.6056    0.8108 C   0  0  0  0  0  0  0  0  0  0  0  0
   -1.4482   -0.9888    1.8001 O   0  0  0  0  0  0  0  0  0  0  0  0
   -1.4968    0.3272   -0.0417 N   0  0  0  0  0  0  0  0  0  0  0  0
   -2.1257    0.7065   -0.7554 H   0  0  0  0  0  0  0  0  0  0  0  0
   -0.1201    0.8686   -0.0848 C   0  0  1  0  0  0  0  0  0  0  0  0
    0.1016    1.3856    0.8541 H   0  0  0  0  0  0  0  0  0  0  0  0
    0.9757   -0.1989   -0.3896 C   0  0  0  0  0  0  0  0  0  0  0  0
    0.7338   -0.6621   -1.3533 H   0  0  0  0  0  0  0  0  0  0  0  0
    1.9494    0.2867   -0.5030 H   0  0  0  0  0  0  0  0  0  0  0  0
    1.1432   -1.2880    0.6396 C   0  0  0  0  0  0  0  0  0  0  0  0
    1.7527   -1.1755    1.8914 N   0  3  0  0  0  0  0  0  0  0  0  0
    2.0255   -0.2790    2.2992 H   0  0  0  0  0  0  0  0  0  0  0  0
    1.7233   -2.3288    2.5141 C   0  0  0  0  0  0  0  0  0  0  0  0
    2.0565   -2.5227    3.5348 H   0  0  0  0  0  0  0  0  0  0  0  0
    1.1556   -3.2553    1.6442 N   0  0  0  0  0  0  0  0  0  0  0  0
    0.9659   -4.2380    1.8604 H   0  0  0  0  0  0  0  0  0  0  0  0
    0.8019   -2.6076    0.4678 C   0  0  0  0  0  0  0  0  0  0  0  0
    0.3222   -3.0442   -0.4073 H   0  0  0  0  0  0  0  0  0  0  0  0
   -0.0628    1.8990   -1.2508 C   0  0  0  0  0  0  0  0  0  0  0  0
   -1.1050    2.2340   -1.8009 O   0  0  0  0  0  0  0  0  0  0  0  0
    1.1289    2.3782   -1.7729 N   0  0  0  0  0  0  0  0  0  0  0  0
    1.9898    2.1759   -1.2748 H   0  0  0  0  0  0  0  0  0  0  0  0
    1.1819    3.3319   -2.8801 C   0  0  0  0  0  0  0  0  0  0  0  0
    0.6633    4.2598   -2.6145 H   0  0  0  0  0  0  0  0  0  0  0  0
    2.2206    3.5755   -3.1254 H   0  0  0  0  0  0  0  0  0  0  0  0
    0.7085    2.9110   -3.7742 H   0  0  0  0  0  0  0  0  0  0  0  0
  1  2  1  0  0  0  0
  2  3  1  0  0  0  0
  2  4  1  0  0  0  0
  2  5  1  0  0  0  0
  5  6  2  0  0  0  0
  5  7  1  0  0  0  0
  7  8  1  0  0  0  0
  7  9  1  0  0  0  0
  9 10  1  0  0  0  0
  9 11  1  0  0  0  0
  9 23  1  0  0  0  0
 11 12  1  0  0  0  0
 11 13  1  0  0  0  0
 11 14  1  0  0  0  0
 14 15  1  0  0  0  0
 14 21  2  0  0  0  0
 15 16  1  0  0  0  0
 15 17  2  0  0  0  0
 17 18  1  0  0  0  0
 17 19  1  0  0  0  0
 19 20  1  0  0  0  0
 19 21  1  0  0  0  0
 21 22  1  0  0  0  0
 23 24  2  0  0  0  0
 23 25  1  0  0  0  0
 25 26  1  0  0  0  0
 25 27  1  0  0  0  0
 27 28  1  0  0  0  0
 27 29  1  0  0  0  0
 27 30  1  0  0  0  0
M  CHG  1  15   1
M  END
$$$$

  -OEChem-01062216083D

 30 30  0     1  0  0  0  0  0999 V2000
   -3.8084   -1.7643    1.3043 H   0  0  0  0  0  0  0  0  0  0  0  0
   -3.5075   -1.0175    0.5642 C   0  0  0  0  0  0  0  0  0  0  0  0
   -4.1507   -0.1399    0.6700 H   0  0  0  0  0  0  0  0  0  0  0  0
   -3.6421   -1.4386   -0.4349 H   0  0  0  0  0  0  0  0  0  0  0  0
   -2.0582   -0.6227    0.7732 C   0  0  0  0  0  0  0  0  0  0  0  0
   -1.4532   -1.0499    1.7433 O   0  0  0  0  0  0  0  0  0  0  0  0
   -1.4893    0.3132   -0.0676 N   0  0  0  0  0  0  0  0  0  0  0  0
   -2.1328    0.7554   -0.7298 H   0  0  0  0  0  0  0  0  0  0  0  0
   -0.1067    0.8413   -0.1104 C   0  0  1  0  0  0  0  0  0  0  0  0
    0.1116    1.3617    0.8275 H   0  0  0  0  0  0  0  0  0  0  0  0
    0.9955   -0.2262   -0.3936 C   0  0  0  0  0  0  0  0  0  0  0  0
    0.7662   -0.7006   -1.3545 H   0  0  0  0  0  0  0  0  0  0  0  0
    1.9669    0.2655   -0.4966 H   0  0  0  0  0  0  0  0  0  0  0  0
    1.1625   -1.3036    0.6479 C   0  0  0  0  0  0  0  0  0  0  0  0
    1.7646   -1.1712    1.9012 N   0  3  0  0  0  0  0  0  0  0  0  0
    2.0342   -0.2679    2.2965 H   0  0  0  0  0  0  0  0  0  0  0  0
    1.7375   -2.3157    2.5399 C   0  0  0  0  0  0  0  0  0  0  0  0
    2.0667   -2.4932    3.5650 H   0  0  0  0  0  0  0  0  0  0  0  0
    1.1792   -3.2571    1.6798 N   0  0  0  0  0  0  0  0  0  0  0  0
    0.9872   -4.2360    1.9108 H   0  0  0  0  0  0  0  0  0  0  0  0
    0.8301   -2.6275    0.4920 C   0  0  0  0  0  0  0  0  0  0  0  0
    0.3545   -3.0781   -0.3782 H   0  0  0  0  0  0  0  0  0  0  0  0
   -0.0607    1.8818   -1.2695 C   0  0  0  0  0  0  0  0  0  0  0  0
   -1.1046    2.4266   -1.6052 O   0  0  0  0  0  0  0  0  0  0  0  0
    1.0752    2.1537   -2.0183 N   0  0  0  0  0  0  0  0  0  0  0  0
    1.9562    1.7376   -1.7360 H   0  0  0  0  0  0  0  0  0  0  0  0
    1.0871    3.1056   -3.1281 C   0  0  0  0  0  0  0  0  0  0  0  0
    0.7554    4.0945   -2.7924 H   0  0  0  0  0  0  0  0  0  0  0  0
    2.0978    3.2037   -3.5368 H   0  0  0  0  0  0  0  0  0  0  0  0
    0.4226    2.7682   -3.9312 H   0  0  0  0  0  0  0  0  0  0  0  0
  1  2  1  0  0  0  0
  2  3  1  0  0  0  0
  2  4  1  0  0  0  0
  2  5  1  0  0  0  0
  5  6  2  0  0  0  0
  5  7  1  0  0  0  0
  7  8  1  0  0  0  0
  7  9  1  0  0  0  0
  9 10  1  0  0  0  0
  9 11  1  0  0  0  0
  9 23  1  0  0  0  0
 11 12  1  0  0  0  0
 11 13  1  0  0  0  0
 11 14  1  0  0  0  0
 14 15  1  0  0  0  0
 14 21  2  0  0  0  0
 15 16  1  0  0  0  0
 15 17  2  0  0  0  0
 17 18  1  0  0  0  0
 17 19  1  0  0  0  0
 19 20  1  0  0  0  0
 19 21  1  0  0  0  0
 21 22  1  0  0  0  0
 23 24  2  0  0  0  0
 23 25  1  0  0  0  0
 25 26  1  0  0  0  0
 25 27  1  0  0  0  0
 27 28  1  0  0  0  0
 27 29  1  0  0  0  0
 27 30  1  0  0  0  0
M  CHG  1  15   1
M  END
$$$$

  -OEChem-01062216083D

 30 30  0     1  0  0  0  0  0999 V2000
   -3.8414   -1.7479    1.2761 H   0  0  0  0  0  0  0  0  0  0  0  0
   -3.5360   -0.9912    0.5480 C   0  0  0  0  0  0  0  0  0  0  0  0
   -4.1535   -0.1004    0.6891 H   0  0  0  0  0  0  0  0  0  0  0  0
   -3.7026   -1.3836   -0.4580 H   0  0  0  0  0  0  0  0  0  0  0  0
   -2.0726   -0.6403    0.7364 C   0  0  0  0  0  0  0  0  0  0  0  0
   -1.4629   -1.1094    1.6833 O   0  0  0  0  0  0  0  0  0  0  0  0
   -1.4958    0.2986   -0.0965 N   0  0  0  0  0  0  0  0  0  0  0  0
   -2.1490    0.7861   -0.7150 H   0  0  0  0  0  0  0  0  0  0  0  0
   -0.1073    0.8114   -0.1406 C   0  0  1  0  0  0  0  0  0  0  0  0
    0.1072    1.3341    0.7971 H   0  0  0  0  0  0  0  0  0  0  0  0
    1.0066   -0.2474   -0.4036 C   0  0  0  0  0  0  0  0  0  0  0  0
    0.7880   -0.7386   -1.3584 H   0  0  0  0  0  0  0  0  0  0  0  0
    1.9714    0.2597   -0.5054 H   0  0  0  0  0  0  0  0  0  0  0  0
    1.1783   -1.3111    0.6507 C   0  0  0  0  0  0  0  0  0  0  0  0
    1.7723   -1.1528    1.9048 N   0  3  0  0  0  0  0  0  0  0  0  0
    2.0327   -0.2408    2.2863 H   0  0  0  0  0  0  0  0  0  0  0  0
    1.7576   -2.2882    2.5598 C   0  0  0  0  0  0  0  0  0  0  0  0
    2.0865   -2.4470    3.5882 H   0  0  0  0  0  0  0  0  0  0  0  0
    1.2139   -3.2486    1.7113 N   0  0  0  0  0  0  0  0  0  0  0  0
    1.0320   -4.2260    1.9562 H   0  0  0  0  0  0  0  0  0  0  0  0
    0.8626   -2.6413    0.5126 C   0  0  0  0  0  0  0  0  0  0  0  0
    0.3951   -3.1106   -0.3520 H   0  0  0  0  0  0  0  0  0  0  0  0
   -0.0645    1.8606   -1.2885 C   0  0  0  0  0  0  0  0  0  0  0  0
   -1.0275    2.6034   -1.4175 O   0  0  0  0  0  0  0  0  0  0  0  0
    0.9423    1.9375   -2.2402 N   0  0  0  0  0  0  0  0  0  0  0  0
    1.7344    1.3085   -2.1651 H   0  0  0  0  0  0  0  0  0  0  0  0
    0.9251    2.8983   -3.3424 C   0  0  0  0  0  0  0  0  0  0  0  0
    0.9007    3.9243   -2.9587 H   0  0  0  0  0  0  0  0  0  0  0  0
    1.8200    2.7847   -3.9623 H   0  0  0  0  0  0  0  0  0  0  0  0
    0.0456    2.7417   -3.9767 H   0  0  0  0  0  0  0  0  0  0  0  0
  1  2  1  0  0  0  0
  2  3  1  0  0  0  0
  2  4  1  0  0  0  0
  2  5  1  0  0  0  0
  5  6  2  0  0  0  0
  5  7  1  0  0  0  0
  7  8  1  0  0  0  0
  7  9  1  0  0  0  0
  9 10  1  0  0  0  0
  9 11  1  0  0  0  0
  9 23  1  0  0  0  0
 11 12  1  0  0  0  0
 11 13  1  0  0  0  0
 11 14  1  0  0  0  0
 14 15  1  0  0  0  0
 14 21  2  0  0  0  0
 15 16  1  0  0  0  0
 15 17  2  0  0  0  0
 17 18  1  0  0  0  0
 17 19  1  0  0  0  0
 19 20  1  0  0  0  0
 19 21  1  0  0  0  0
 21 22  1  0  0  0  0
 23 24  2  0  0  0  0
 23 25  1  0  0  0  0
 25 26  1  0  0  0  0
 25 27  1  0  0  0  0
 27 28  1  0  0  0  0
 27 29  1  0  0  0  0
 27 30  1  0  0  0  0
M  CHG  1  15   1
M  END
$$$$

  -OEChem-01062216083D

 30 30  0     1  0  0  0  0  0999 V2000
   -3.8569   -1.7351    1.2741 H   0  0  0  0  0  0  0  0  0  0  0  0
   -3.5497   -0.9782    0.5469 C   0  0  0  0  0  0  0  0  0  0  0  0
   -4.1575   -0.0821    0.6970 H   0  0  0  0  0  0  0  0  0  0  0  0
   -3.7284   -1.3647   -0.4593 H   0  0  0  0  0  0  0  0  0  0  0  0
   -2.0812   -0.6424    0.7234 C   0  0  0  0  0  0  0  0  0  0  0  0
   -1.4665   -1.1237    1.6604 O   0  0  0  0  0  0  0  0  0  0  0  0
   -1.5052    0.2963   -0.1103 N   0  0  0  0  0  0  0  0  0  0  0  0
   -2.1650    0.7970   -0.7091 H   0  0  0  0  0  0  0  0  0  0  0  0
   -0.1127    0.7964   -0.1626 C   0  0  1  0  0  0  0  0  0  0  0  0
    0.1045    1.3186    0.7751 H   0  0  0  0  0  0  0  0  0  0  0  0
    1.0043   -0.2601   -0.4184 C   0  0  0  0  0  0  0  0  0  0  0  0
    0.7801   -0.7676   -1.3629 H   0  0  0  0  0  0  0  0  0  0  0  0
    1.9644    0.2540   -0.5378 H   0  0  0  0  0  0  0  0  0  0  0  0
    1.1830   -1.3152    0.6440 C   0  0  0  0  0  0  0  0  0  0  0  0
    1.7801   -1.1404    1.8943 N   0  3  0  0  0  0  0  0  0  0  0  0
    2.0422   -0.2232    2.2626 H   0  0  0  0  0  0  0  0  0  0  0  0
    1.7740   -2.2686    2.5617 C   0  0  0  0  0  0  0  0  0  0  0  0
    2.1086   -2.4145    3.5901 H   0  0  0  0  0  0  0  0  0  0  0  0
    1.2321   -3.2410    1.7261 N   0  0  0  0  0  0  0  0  0  0  0  0
    1.0569   -4.2167    1.9825 H   0  0  0  0  0  0  0  0  0  0  0  0
    0.8736   -2.6485    0.5218 C   0  0  0  0  0  0  0  0  0  0  0  0
    0.4054   -3.1303   -0.3355 H   0  0  0  0  0  0  0  0  0  0  0  0
   -0.0651    1.8498   -1.3012 C   0  0  0  0  0  0  0  0  0  0  0  0
   -0.8822    2.7569   -1.2604 O   0  0  0  0  0  0  0  0  0  0  0  0
    0.7481    1.7555   -2.4211 N   0  0  0  0  0  0  0  0  0  0  0  0
    1.3773    0.9638   -2.5017 H   0  0  0  0  0  0  0  0  0  0  0  0
    0.6976    2.7148   -3.5233 C   0  0  0  0  0  0  0  0  0  0  0  0
    0.8691    3.7329   -3.1566 H   0  0  0  0  0  0  0  0  0  0  0  0
    1.4677    2.4846   -4.2663 H   0  0  0  0  0  0  0  0  0  0  0  0
   -0.2796    2.6819   -4.0173 H   0  0  0  0  0  0  0  0  0  0  0  0
  1  2  1  0  0  0  0
  2  3  1  0  0  0  0
  2  4  1  0  0  0  0
  2  5  1  0  0  0  0
  5  6  2  0  0  0  0
  5  7  1  0  0  0  0
  7  8  1  0  0  0  0
  7  9  1  0  0  0  0
  9 10  1  0  0  0  0
  9 11  1  0  0  0  0
  9 23  1  0  0  0  0
 11 12  1  0  0  0  0
 11 13  1  0  0  0  0
 11 14  1  0  0  0  0
 14 15  1  0  0  0  0
 14 21  2  0  0  0  0
 15 16  1  0  0  0  0
 15 17  2  0  0  0  0
 17 18  1  0  0  0  0
 17 19  1  0  0  0  0
 19 20  1  0  0  0  0
 19 21  1  0  0  0  0
 21 22  1  0  0  0  0
 23 24  2  0  0  0  0
 23 25  1  0  0  0  0
 25 26  1  0  0  0  0
 25 27  1  0  0  0  0
 27 28  1  0  0  0  0
 27 29  1  0  0  0  0
 27 30  1  0  0  0  0
M  CHG  1  15   1
M  END
$$$$

  -OEChem-01062216083D

 30 30  0     1  0  0  0  0  0999 V2000
   -3.8775   -1.7331    1.3066 H   0  0  0  0  0  0  0  0  0  0  0  0
   -3.5779   -0.9804    0.5718 C   0  0  0  0  0  0  0  0  0  0  0  0
   -4.1692   -0.0760    0.7373 H   0  0  0  0  0  0  0  0  0  0  0  0
   -3.7864   -1.3646   -0.4295 H   0  0  0  0  0  0  0  0  0  0  0  0
   -2.1012   -0.6644    0.7129 C   0  0  0  0  0  0  0  0  0  0  0  0
   -1.4709   -1.1614    1.6306 O   0  0  0  0  0  0  0  0  0  0  0  0
   -1.5355    0.2767   -0.1262 N   0  0  0  0  0  0  0  0  0  0  0  0
   -2.2054    0.7762   -0.7128 H   0  0  0  0  0  0  0  0  0  0  0  0
   -0.1412    0.7714   -0.1938 C   0  0  1  0  0  0  0  0  0  0  0  0
    0.0786    1.2915    0.7449 H   0  0  0  0  0  0  0  0  0  0  0  0
    0.9874   -0.2725   -0.4469 C   0  0  0  0  0  0  0  0  0  0  0  0
    0.7646   -0.7964   -1.3818 H   0  0  0  0  0  0  0  0  0  0  0  0
    1.9383    0.2548   -0.5845 H   0  0  0  0  0  0  0  0  0  0  0  0
    1.1831   -1.3140    0.6253 C   0  0  0  0  0  0  0  0  0  0  0  0
    1.7845   -1.1128    1.8697 N   0  3  0  0  0  0  0  0  0  0  0  0
    2.0374   -0.1867    2.2222 H   0  0  0  0  0  0  0  0  0  0  0  0
    1.7960   -2.2308    2.5540 C   0  0  0  0  0  0  0  0  0  0  0  0
    2.1364   -2.3575    3.5831 H   0  0  0  0  0  0  0  0  0  0  0  0
    1.2636   -3.2224    1.7347 N   0  0  0  0  0  0  0  0  0  0  0  0
    1.1034   -4.1967    2.0056 H   0  0  0  0  0  0  0  0  0  0  0  0
    0.8925   -2.6532    0.5231 C   0  0  0  0  0  0  0  0  0  0  0  0
    0.4281   -3.1545   -0.3247 H   0  0  0  0  0  0  0  0  0  0  0  0
   -0.0843    1.8300   -1.3221 C   0  0  0  0  0  0  0  0  0  0  0  0
   -0.6550    2.8904   -1.1262 O   0  0  0  0  0  0  0  0  0  0  0  0
    0.4813    1.6044   -2.5678 N   0  0  0  0  0  0  0  0  0  0  0  0
    0.8559    0.6835   -2.7710 H   0  0  0  0  0  0  0  0  0  0  0  0
    0.4501    2.5932   -3.6443 C   0  0  0  0  0  0  0  0  0  0  0  0
    0.8985    3.5369   -3.3141 H   0  0  0  0  0  0  0  0  0  0  0  0
    1.0132    2.2326   -4.5110 H   0  0  0  0  0  0  0  0  0  0  0  0
   -0.5810    2.7883   -3.9590 H   0  0  0  0  0  0  0  0  0  0  0  0
  1  2  1  0  0  0  0
  2  3  1  0  0  0  0
  2  4  1  0  0  0  0
  2  5  1  0  0  0  0
  5  6  2  0  0  0  0
  5  7  1  0  0  0  0
  7  8  1  0  0  0  0
  7  9  1  0  0  0  0
  9 10  1  0  0  0  0
  9 11  1  0  0  0  0
  9 23  1  0  0  0  0
 11 12  1  0  0  0  0
 11 13  1  0  0  0  0
 11 14  1  0  0  0  0
 14 15  1  0  0  0  0
 14 21  2  0  0  0  0
 15 16  1  0  0  0  0
 15 17  2  0  0  0  0
 17 18  1  0  0  0  0
 17 19  1  0  0  0  0
 19 20  1  0  0  0  0
 19 21  1  0  0  0  0
 21 22  1  0  0  0  0
 23 24  2  0  0  0  0
 23 25  1  0  0  0  0
 25 26  1  0  0  0  0
 25 27  1  0  0  0  0
 27 28  1  0  0  0  0
 27 29  1  0  0  0  0
 27 30  1  0  0  0  0
M  CHG  1  15   1
M  END
$$$$

  -OEChem-01062216083D

 30 30  0     1  0  0  0  0  0999 V2000
   -3.8741   -1.7665    1.3438 H   0  0  0  0  0  0  0  0  0  0  0  0
   -3.5942   -1.0120    0.6030 C   0  0  0  0  0  0  0  0  0  0  0  0
   -4.2003   -0.1178    0.7696 H   0  0  0  0  0  0  0  0  0  0  0  0
   -3.8049   -1.4044   -0.3946 H   0  0  0  0  0  0  0  0  0  0  0  0
   -2.1218   -0.6704    0.7303 C   0  0  0  0  0  0  0  0  0  0  0  0
   -1.4748   -1.1562    1.6420 O   0  0  0  0  0  0  0  0  0  0  0  0
   -1.5754    0.2719   -0.1210 N   0  0  0  0  0  0  0  0  0  0  0  0
   -2.2546    0.7477   -0.7151 H   0  0  0  0  0  0  0  0  0  0  0  0
   -0.1817    0.7671   -0.2068 C   0  0  1  0  0  0  0  0  0  0  0  0
    0.0450    1.2831    0.7329 H   0  0  0  0  0  0  0  0  0  0  0  0
    0.9534   -0.2663   -0.4718 C   0  0  0  0  0  0  0  0  0  0  0  0
    0.7301   -0.7935   -1.4044 H   0  0  0  0  0  0  0  0  0  0  0  0
    1.8966    0.2718   -0.6216 H   0  0  0  0  0  0  0  0  0  0  0  0
    1.1693   -1.3037    0.6003 C   0  0  0  0  0  0  0  0  0  0  0  0
    1.7832   -1.0876    1.8359 N   0  3  0  0  0  0  0  0  0  0  0  0
    2.0372   -0.1569    2.1756 H   0  0  0  0  0  0  0  0  0  0  0  0
    1.8157   -2.2008    2.5271 C   0  0  0  0  0  0  0  0  0  0  0  0
    2.1735   -2.3168    3.5516 H   0  0  0  0  0  0  0  0  0  0  0  0
    1.2815   -3.2030    1.7220 N   0  0  0  0  0  0  0  0  0  0  0  0
    1.1356   -4.1771    2.0017 H   0  0  0  0  0  0  0  0  0  0  0  0
    0.8899   -2.6461    0.5109 C   0  0  0  0  0  0  0  0  0  0  0  0
    0.4217   -3.1581   -0.3282 H   0  0  0  0  0  0  0  0  0  0  0  0
   -0.1145    1.8261   -1.3301 C   0  0  0  0  0  0  0  0  0  0  0  0
   -0.3459    2.9865   -1.0357 O   0  0  0  0  0  0  0  0  0  0  0  0
    0.1654    1.5110   -2.6501 N   0  0  0  0  0  0  0  0  0  0  0  0
    0.2386    0.5311   -2.9052 H   0  0  0  0  0  0  0  0  0  0  0  0
    0.1821    2.5100   -3.7169 C   0  0  0  0  0  0  0  0  0  0  0  0
    0.8894    3.3131   -3.4816 H   0  0  0  0  0  0  0  0  0  0  0  0
    0.4873    2.0529   -4.6634 H   0  0  0  0  0  0  0  0  0  0  0  0
   -0.8127    2.9490   -3.8494 H   0  0  0  0  0  0  0  0  0  0  0  0
  1  2  1  0  0  0  0
  2  3  1  0  0  0  0
  2  4  1  0  0  0  0
  2  5  1  0  0  0  0
  5  6  2  0  0  0  0
  5  7  1  0  0  0  0
  7  8  1  0  0  0  0
  7  9  1  0  0  0  0
  9 10  1  0  0  0  0
  9 11  1  0  0  0  0
  9 23  1  0  0  0  0
 11 12  1  0  0  0  0
 11 13  1  0  0  0  0
 11 14  1  0  0  0  0
 14 15  1  0  0  0  0
 14 21  2  0  0  0  0
 15 16  1  0  0  0  0
 15 17  2  0  0  0  0
 17 18  1  0  0  0  0
 17 19  1  0  0  0  0
 19 20  1  0  0  0  0
 19 21  1  0  0  0  0
 21 22  1  0  0  0  0
 23 24  2  0  0  0  0
 23 25  1  0  0  0  0
 25 26  1  0  0  0  0
 25 27  1  0  0  0  0
 27 28  1  0  0  0  0
 27 29  1  0  0  0  0
 27 30  1  0  0  0  0
M  CHG  1  15   1
M  END
$$$$

  -OEChem-01062216083D

 30 30  0     1  0  0  0  0  0999 V2000
   -3.8586   -1.8131    1.3899 H   0  0  0  0  0  0  0  0  0  0  0  0
   -3.6036   -1.0542    0.6445 C   0  0  0  0  0  0  0  0  0  0  0  0
   -4.2333   -0.1764    0.8111 H   0  0  0  0  0  0  0  0  0  0  0  0
   -3.8085   -1.4571   -0.3502 H   0  0  0  0  0  0  0  0  0  0  0  0
   -2.1403   -0.6727    0.7627 C   0  0  0  0  0  0  0  0  0  0  0  0
   -1.4762   -1.1347    1.6743 O   0  0  0  0  0  0  0  0  0  0  0  0
   -1.6184    0.2716   -0.1023 N   0  0  0  0  0  0  0  0  0  0  0  0
   -2.3071    0.7189   -0.7066 H   0  0  0  0  0  0  0  0  0  0  0  0
   -0.2289    0.7777   -0.2013 C   0  0  1  0  0  0  0  0  0  0  0  0
    0.0025    1.2907    0.7393 H   0  0  0  0  0  0  0  0  0  0  0  0
    0.9121   -0.2415   -0.4879 C   0  0  0  0  0  0  0  0  0  0  0  0
    0.6870   -0.7602   -1.4249 H   0  0  0  0  0  0  0  0  0  0  0  0
    1.8481    0.3080   -0.6417 H   0  0  0  0  0  0  0  0  0  0  0  0
    1.1484   -1.2837    0.5743 C   0  0  0  0  0  0  0  0  0  0  0  0
    1.7740   -1.0666    1.8034 N   0  3  0  0  0  0  0  0  0  0  0  0
    2.0263   -0.1348    2.1419 H   0  0  0  0  0  0  0  0  0  0  0  0
    1.8264   -2.1821    2.4894 C   0  0  0  0  0  0  0  0  0  0  0  0
    2.2001   -2.2986    3.5080 H   0  0  0  0  0  0  0  0  0  0  0  0
    1.2909   -3.1860    1.6870 N   0  0  0  0  0  0  0  0  0  0  0  0
    1.1610   -4.1634    1.9631 H   0  0  0  0  0  0  0  0  0  0  0  0
    0.8790   -2.6278    0.4831 C   0  0  0  0  0  0  0  0  0  0  0  0
    0.4071   -3.1408   -0.3532 H   0  0  0  0  0  0  0  0  0  0  0  0
   -0.1563    1.8331   -1.3239 C   0  0  0  0  0  0  0  0  0  0  0  0
   -0.0157    3.0031   -1.0113 O   0  0  0  0  0  0  0  0  0  0  0  0
   -0.1774    1.4857   -2.6645 N   0  0  0  0  0  0  0  0  0  0  0  0
   -0.3655    0.5174   -2.9065 H   0  0  0  0  0  0  0  0  0  0  0  0
   -0.0964    2.4723   -3.7397 C   0  0  0  0  0  0  0  0  0  0  0  0
    0.8288    3.0538   -3.6594 H   0  0  0  0  0  0  0  0  0  0  0  0
   -0.1055    1.9767   -4.7158 H   0  0  0  0  0  0  0  0  0  0  0  0
   -0.9468    3.1615   -3.6943 H   0  0  0  0  0  0  0  0  0  0  0  0
  1  2  1  0  0  0  0
  2  3  1  0  0  0  0
  2  4  1  0  0  0  0
  2  5  1  0  0  0  0
  5  6  2  0  0  0  0
  5  7  1  0  0  0  0
  7  8  1  0  0  0  0
  7  9  1  0  0  0  0
  9 10  1  0  0  0  0
  9 11  1  0  0  0  0
  9 23  1  0  0  0  0
 11 12  1  0  0  0  0
 11 13  1  0  0  0  0
 11 14  1  0  0  0  0
 14 15  1  0  0  0  0
 14 21  2  0  0  0  0
 15 16  1  0  0  0  0
 15 17  2  0  0  0  0
 17 18  1  0  0  0  0
 17 19  1  0  0  0  0
 19 20  1  0  0  0  0
 19 21  1  0  0  0  0
 21 22  1  0  0  0  0
 23 24  2  0  0  0  0
 23 25  1  0  0  0  0
 25 26  1  0  0  0  0
 25 27  1  0  0  0  0
 27 28  1  0  0  0  0
 27 29  1  0  0  0  0
 27 30  1  0  0  0  0
M  CHG  1  15   1
M  END
$$$$

  -OEChem-01062216083D

 30 30  0     1  0  0  0  0  0999 V2000
   -3.8530   -1.8403    1.4419 H   0  0  0  0  0  0  0  0  0  0  0  0
   -3.6165   -1.0820    0.6898 C   0  0  0  0  0  0  0  0  0  0  0  0
   -4.2586   -0.2135    0.8570 H   0  0  0  0  0  0  0  0  0  0  0  0
   -3.8239   -1.4938   -0.3007 H   0  0  0  0  0  0  0  0  0  0  0  0
   -2.1583   -0.6770    0.7940 C   0  0  0  0  0  0  0  0  0  0  0  0
   -1.4797   -1.1232    1.7028 O   0  0  0  0  0  0  0  0  0  0  0  0
   -1.6571    0.2721   -0.0783 N   0  0  0  0  0  0  0  0  0  0  0  0
   -2.3555    0.7082   -0.6793 H   0  0  0  0  0  0  0  0  0  0  0  0
   -0.2744    0.7984   -0.1777 C   0  0  1  0  0  0  0  0  0  0  0  0
   -0.0439    1.3083    0.7648 H   0  0  0  0  0  0  0  0  0  0  0  0
    0.8740   -0.2039   -0.4884 C   0  0  0  0  0  0  0  0  0  0  0  0
    0.6491   -0.7053   -1.4353 H   0  0  0  0  0  0  0  0  0  0  0  0
    1.8040    0.3575   -0.6376 H   0  0  0  0  0  0  0  0  0  0  0  0
    1.1287   -1.2608    0.5541 C   0  0  0  0  0  0  0  0  0  0  0  0
    1.7615   -1.0549    1.7811 N   0  3  0  0  0  0  0  0  0  0  0  0
    2.0124   -0.1258    2.1280 H   0  0  0  0  0  0  0  0  0  0  0  0
    1.8362   -2.1806    2.4480 C   0  0  0  0  0  0  0  0  0  0  0  0
    2.2261   -2.3088    3.4590 H   0  0  0  0  0  0  0  0  0  0  0  0
    1.3027   -3.1778    1.6357 N   0  0  0  0  0  0  0  0  0  0  0  0
    1.1917   -4.1618    1.8958 H   0  0  0  0  0  0  0  0  0  0  0  0
    0.8722   -2.6058    0.4448 C   0  0  0  0  0  0  0  0  0  0  0  0
    0.3995   -3.1107   -0.3960 H   0  0  0  0  0  0  0  0  0  0  0  0
   -0.1989    1.8506   -1.3002 C   0  0  0  0  0  0  0  0  0  0  0  0
    0.2523    2.9524   -1.0371 O   0  0  0  0  0  0  0  0  0  0  0  0
   -0.5092    1.5316   -2.6110 N   0  0  0  0  0  0  0  0  0  0  0  0
   -0.8732    0.6037   -2.8070 H   0  0  0  0  0  0  0  0  0  0  0  0
   -0.3804    2.4837   -3.7120 C   0  0  0  0  0  0  0  0  0  0  0  0
    0.6574    2.8207   -3.8100 H   0  0  0  0  0  0  0  0  0  0  0  0
   -0.6812    2.0194   -4.6564 H   0  0  0  0  0  0  0  0  0  0  0  0
   -1.0168    3.3588   -3.5401 H   0  0  0  0  0  0  0  0  0  0  0  0
  1  2  1  0  0  0  0
  2  3  1  0  0  0  0
  2  4  1  0  0  0  0
  2  5  1  0  0  0  0
  5  6  2  0  0  0  0
  5  7  1  0  0  0  0
  7  8  1  0  0  0  0
  7  9  1  0  0  0  0
  9 10  1  0  0  0  0
  9 11  1  0  0  0  0
  9 23  1  0  0  0  0
 11 12  1  0  0  0  0
 11 13  1  0  0  0  0
 11 14  1  0  0  0  0
 14 15  1  0  0  0  0
 14 21  2  0  0  0  0
 15 16  1  0  0  0  0
 15 17  2  0  0  0  0
 17 18  1  0  0  0  0
 17 19  1  0  0  0  0
 19 20  1  0  0  0  0
 19 21  1  0  0  0  0
 21 22  1  0  0  0  0
 23 24  2  0  0  0  0
 23 25  1  0  0  0  0
 25 26  1  0  0  0  0
 25 27  1  0  0  0  0
 27 28  1  0  0  0  0
 27 29  1  0  0  0  0
 27 30  1  0  0  0  0
M  CHG  1  15   1
M  END
$$$$

  -OEChem-01062216083D

 30 30  0     1  0  0  0  0  0999 V2000
   -3.8471   -1.8635    1.4795 H   0  0  0  0  0  0  0  0  0  0  0  0
   -3.6227   -1.1018    0.7274 C   0  0  0  0  0  0  0  0  0  0  0  0
   -4.2719   -0.2397    0.9002 H   0  0  0  0  0  0  0  0  0  0  0  0
   -3.8325   -1.5140   -0.2624 H   0  0  0  0  0  0  0  0  0  0  0  0
   -2.1677   -0.6837    0.8220 C   0  0  0  0  0  0  0  0  0  0  0  0
   -1.4787   -1.1221    1.7268 O   0  0  0  0  0  0  0  0  0  0  0  0
   -1.6824    0.2705   -0.0537 N   0  0  0  0  0  0  0  0  0  0  0  0
   -2.3919    0.7111   -0.6375 H   0  0  0  0  0  0  0  0  0  0  0  0
   -0.3073    0.8193   -0.1481 C   0  0  1  0  0  0  0  0  0  0  0  0
   -0.0794    1.3276    0.7959 H   0  0  0  0  0  0  0  0  0  0  0  0
    0.8471   -0.1701   -0.4777 C   0  0  0  0  0  0  0  0  0  0  0  0
    0.6220   -0.6546   -1.4335 H   0  0  0  0  0  0  0  0  0  0  0  0
    1.7735    0.3994   -0.6204 H   0  0  0  0  0  0  0  0  0  0  0  0
    1.1151   -1.2416    0.5460 C   0  0  0  0  0  0  0  0  0  0  0  0
    1.7518   -1.0524    1.7736 N   0  3  0  0  0  0  0  0  0  0  0  0
    1.9940   -0.1272    2.1366 H   0  0  0  0  0  0  0  0  0  0  0  0
    1.8396   -2.1893    2.4195 C   0  0  0  0  0  0  0  0  0  0  0  0
    2.2340   -2.3325    3.4267 H   0  0  0  0  0  0  0  0  0  0  0  0
    1.3125   -3.1766    1.5911 N   0  0  0  0  0  0  0  0  0  0  0  0
    1.2151   -4.1669    1.8318 H   0  0  0  0  0  0  0  0  0  0  0  0
    0.8703   -2.5865    0.4133 C   0  0  0  0  0  0  0  0  0  0  0  0
    0.4004   -3.0803   -0.4357 H   0  0  0  0  0  0  0  0  0  0  0  0
   -0.2312    1.8697   -1.2719 C   0  0  0  0  0  0  0  0  0  0  0  0
    0.4466    2.8675   -1.0912 O   0  0  0  0  0  0  0  0  0  0  0  0
   -0.8053    1.6421   -2.5111 N   0  0  0  0  0  0  0  0  0  0  0  0
   -1.2771    0.7559   -2.6650 H   0  0  0  0  0  0  0  0  0  0  0  0
   -0.6628    2.5662   -3.6340 C   0  0  0  0  0  0  0  0  0  0  0  0
    0.3851    2.6344   -3.9454 H   0  0  0  0  0  0  0  0  0  0  0  0
   -1.2554    2.2243   -4.4884 H   0  0  0  0  0  0  0  0  0  0  0  0
   -1.0101    3.5674   -3.3558 H   0  0  0  0  0  0  0  0  0  0  0  0
  1  2  1  0  0  0  0
  2  3  1  0  0  0  0
  2  4  1  0  0  0  0
  2  5  1  0  0  0  0
  5  6  2  0  0  0  0
  5  7  1  0  0  0  0
  7  8  1  0  0  0  0
  7  9  1  0  0  0  0
  9 10  1  0  0  0  0
  9 11  1  0  0  0  0
  9 23  1  0  0  0  0
 11 12  1  0  0  0  0
 11 13  1  0  0  0  0
 11 14  1  0  0  0  0
 14 15  1  0  0  0  0
 14 21  2  0  0  0  0
 15 16  1  0  0  0  0
 15 17  2  0  0  0  0
 17 18  1  0  0  0  0
 17 19  1  0  0  0  0
 19 20  1  0  0  0  0
 19 21  1  0  0  0  0
 21 22  1  0  0  0  0
 23 24  2  0  0  0  0
 23 25  1  0  0  0  0
 25 26  1  0  0  0  0
 25 27  1  0  0  0  0
 27 28  1  0  0  0  0
 27 29  1  0  0  0  0
 27 30  1  0  0  0  0
M  CHG  1  15   1
M  END
$$$$

  -OEChem-01062216083D

 30 30  0     1  0  0  0  0  0999 V2000
   -3.8371   -1.8815    1.5121 H   0  0  0  0  0  0  0  0  0  0  0  0
   -3.6216   -1.1200    0.7570 C   0  0  0  0  0  0  0  0  0  0  0  0
   -4.2747   -0.2612    0.9320 H   0  0  0  0  0  0  0  0  0  0  0  0
   -3.8346   -1.5358   -0.2307 H   0  0  0  0  0  0  0  0  0  0  0  0
   -2.1684   -0.6939    0.8422 C   0  0  0  0  0  0  0  0  0  0  0  0
   -1.4739   -1.1243    1.7464 O   0  0  0  0  0  0  0  0  0  0  0  0
   -1.6937    0.2634   -0.0365 N   0  0  0  0  0  0  0  0  0  0  0  0
   -2.4141    0.7170   -0.5956 H   0  0  0  0  0  0  0  0  0  0  0  0
   -0.3235    0.8277   -0.1300 C   0  0  1  0  0  0  0  0  0  0  0  0
   -0.0960    1.3346    0.8144 H   0  0  0  0  0  0  0  0  0  0  0  0
    0.8308   -0.1612   -0.4700 C   0  0  0  0  0  0  0  0  0  0  0  0
    0.6017   -0.6378   -1.4292 H   0  0  0  0  0  0  0  0  0  0  0  0
    1.7588    0.4060   -0.6114 H   0  0  0  0  0  0  0  0  0  0  0  0
    1.1057   -1.2396    0.5440 C   0  0  0  0  0  0  0  0  0  0  0  0
    1.7493   -1.0558    1.7685 N   0  3  0  0  0  0  0  0  0  0  0  0
    1.9971   -0.1322    2.1319 H   0  0  0  0  0  0  0  0  0  0  0  0
    1.8436   -2.1962    2.4071 C   0  0  0  0  0  0  0  0  0  0  0  0
    2.2472   -2.3446    3.4099 H   0  0  0  0  0  0  0  0  0  0  0  0
    1.3122   -3.1795    1.5765 N   0  0  0  0  0  0  0  0  0  0  0  0
    1.2194   -4.1715    1.8118 H   0  0  0  0  0  0  0  0  0  0  0  0
    0.8629   -2.5841    0.4040 C   0  0  0  0  0  0  0  0  0  0  0  0
    0.3901   -3.0732   -0.4461 H   0  0  0  0  0  0  0  0  0  0  0  0
   -0.2417    1.8791   -1.2547 C   0  0  0  0  0  0  0  0  0  0  0  0
    0.5946    2.7633   -1.1629 O   0  0  0  0  0  0  0  0  0  0  0  0
   -1.0410    1.8030   -2.3828 N   0  0  0  0  0  0  0  0  0  0  0  0
   -1.6113    0.9723   -2.5066 H   0  0  0  0  0  0  0  0  0  0  0  0
   -0.9241    2.7403   -3.4976 C   0  0  0  0  0  0  0  0  0  0  0  0
    0.0575    2.6497   -3.9754 H   0  0  0  0  0  0  0  0  0  0  0  0
   -1.6947    2.5391   -4.2485 H   0  0  0  0  0  0  0  0  0  0  0  0
   -1.0484    3.7714   -3.1484 H   0  0  0  0  0  0  0  0  0  0  0  0
  1  2  1  0  0  0  0
  2  3  1  0  0  0  0
  2  4  1  0  0  0  0
  2  5  1  0  0  0  0
  5  6  2  0  0  0  0
  5  7  1  0  0  0  0
  7  8  1  0  0  0  0
  7  9  1  0  0  0  0
  9 10  1  0  0  0  0
  9 11  1  0  0  0  0
  9 23  1  0  0  0  0
 11 12  1  0  0  0  0
 11 13  1  0  0  0  0
 11 14  1  0  0  0  0
 14 15  1  0  0  0  0
 14 21  2  0  0  0  0
 15 16  1  0  0  0  0
 15 17  2  0  0  0  0
 17 18  1  0  0  0  0
 17 19  1  0  0  0  0
 19 20  1  0  0  0  0
 19 21  1  0  0  0  0
 21 22  1  0  0  0  0
 23 24  2  0  0  0  0
 23 25  1  0  0  0  0
 25 26  1  0  0  0  0
 25 27  1  0  0  0  0
 27 28  1  0  0  0  0
 27 29  1  0  0  0  0
 27 30  1  0  0  0  0
M  CHG  1  15   1
M  END
$$$$

  -OEChem-01062216083D

 30 30  0     1  0  0  0  0  0999 V2000
   -3.8146   -1.9022    1.5479 H   0  0  0  0  0  0  0  0  0  0  0  0
   -3.6086   -1.1472    0.7835 C   0  0  0  0  0  0  0  0  0  0  0  0
   -4.2710   -0.2937    0.9490 H   0  0  0  0  0  0  0  0  0  0  0  0
   -3.8185   -1.5777   -0.1986 H   0  0  0  0  0  0  0  0  0  0  0  0
   -2.1603   -0.7033    0.8630 C   0  0  0  0  0  0  0  0  0  0  0  0
   -1.4643   -1.1108    1.7767 O   0  0  0  0  0  0  0  0  0  0  0  0
   -1.6981    0.2541   -0.0228 N   0  0  0  0  0  0  0  0  0  0  0  0
   -2.4278    0.7029   -0.5712 H   0  0  0  0  0  0  0  0  0  0  0  0
   -0.3329    0.8322   -0.1209 C   0  0  1  0  0  0  0  0  0  0  0  0
   -0.1037    1.3408    0.8220 H   0  0  0  0  0  0  0  0  0  0  0  0
    0.8157   -0.1667   -0.4637 C   0  0  0  0  0  0  0  0  0  0  0  0
    0.5772   -0.6421   -1.4211 H   0  0  0  0  0  0  0  0  0  0  0  0
    1.7488    0.3900   -0.6111 H   0  0  0  0  0  0  0  0  0  0  0  0
    1.0946   -1.2454    0.5490 C   0  0  0  0  0  0  0  0  0  0  0  0
    1.7483   -1.0644    1.7683 N   0  3  0  0  0  0  0  0  0  0  0  0
    1.9985   -0.1415    2.1313 H   0  0  0  0  0  0  0  0  0  0  0  0
    1.8481   -2.2061    2.4036 C   0  0  0  0  0  0  0  0  0  0  0  0
    2.2593   -2.3558    3.4029 H   0  0  0  0  0  0  0  0  0  0  0  0
    1.3116   -3.1881    1.5747 N   0  0  0  0  0  0  0  0  0  0  0  0
    1.2248   -4.1814    1.8065 H   0  0  0  0  0  0  0  0  0  0  0  0
    0.8523   -2.5898    0.4076 C   0  0  0  0  0  0  0  0  0  0  0  0
    0.3757   -3.0776   -0.4411 H   0  0  0  0  0  0  0  0  0  0  0  0
   -0.2447    1.8841   -1.2506 C   0  0  0  0  0  0  0  0  0  0  0  0
    0.7077    2.6485   -1.2560 O   0  0  0  0  0  0  0  0  0  0  0  0
   -1.2130    2.0012   -2.2348 N   0  0  0  0  0  0  0  0  0  0  0  0
   -1.8989    1.2587   -2.3185 H   0  0  0  0  0  0  0  0  0  0  0  0
   -1.1266    2.9865   -3.3110 C   0  0  0  0  0  0  0  0  0  0  0  0
   -0.2383    2.8085   -3.9268 H   0  0  0  0  0  0  0  0  0  0  0  0
   -2.0103    2.9285   -3.9544 H   0  0  0  0  0  0  0  0  0  0  0  0
   -1.0691    4.0007   -2.9003 H   0  0  0  0  0  0  0  0  0  0  0  0
  1  2  1  0  0  0  0
  2  3  1  0  0  0  0
  2  4  1  0  0  0  0
  2  5  1  0  0  0  0
  5  6  2  0  0  0  0
  5  7  1  0  0  0  0
  7  8  1  0  0  0  0
  7  9  1  0  0  0  0
  9 10  1  0  0  0  0
  9 11  1  0  0  0  0
  9 23  1  0  0  0  0
 11 12  1  0  0  0  0
 11 13  1  0  0  0  0
 11 14  1  0  0  0  0
 14 15  1  0  0  0  0
 14 21  2  0  0  0  0
 15 16  1  0  0  0  0
 15 17  2  0  0  0  0
 17 18  1  0  0  0  0
 17 19  1  0  0  0  0
 19 20  1  0  0  0  0
 19 21  1  0  0  0  0
 21 22  1  0  0  0  0
 23 24  2  0  0  0  0
 23 25  1  0  0  0  0
 25 26  1  0  0  0  0
 25 27  1  0  0  0  0
 27 28  1  0  0  0  0
 27 29  1  0  0  0  0
 27 30  1  0  0  0  0
M  CHG  1  15   1
M  END
$$$$

  -OEChem-01062216083D

 30 30  0     1  0  0  0  0  0999 V2000
   -3.6055   -2.0238    1.5401 H   0  0  0  0  0  0  0  0  0  0  0  0
   -3.4363   -1.2953    0.7419 C   0  0  0  0  0  0  0  0  0  0  0  0
   -4.2408   -0.5557    0.7691 H   0  0  0  0  0  0  0  0  0  0  0  0
   -3.4607   -1.8151   -0.2188 H   0  0  0  0  0  0  0  0  0  0  0  0
   -2.0971   -0.6101    0.9338 C   0  0  0  0  0  0  0  0  0  0  0  0
   -1.4451   -0.8313    1.9409 O   0  0  0  0  0  0  0  0  0  0  0  0
   -1.6768    0.3362    0.0175 N   0  0  0  0  0  0  0  0  0  0  0  0
   -2.2818    0.4159   -0.7958 H   0  0  0  0  0  0  0  0  0  0  0  0
   -0.2995    0.8718   -0.1314 C   0  0  1  0  0  0  0  0  0  0  0  0
   -0.0199    1.3774    0.7990 H   0  0  0  0  0  0  0  0  0  0  0  0
    0.7827   -0.1990   -0.4847 C   0  0  0  0  0  0  0  0  0  0  0  0
    0.4913   -0.6800   -1.4244 H   0  0  0  0  0  0  0  0  0  0  0  0
    1.7448    0.2928   -0.6680 H   0  0  0  0  0  0  0  0  0  0  0  0
    1.0285   -1.2634    0.5532 C   0  0  0  0  0  0  0  0  0  0  0  0
    1.7268   -1.0860    1.7484 N   0  3  0  0  0  0  0  0  0  0  0  0
    2.0384   -0.1692    2.0779 H   0  0  0  0  0  0  0  0  0  0  0  0
    1.7873   -2.2147    2.4114 C   0  0  0  0  0  0  0  0  0  0  0  0
    2.2247   -2.3611    3.4004 H   0  0  0  0  0  0  0  0  0  0  0  0
    1.1725   -3.1871    1.6268 N   0  0  0  0  0  0  0  0  0  0  0  0
    1.0522   -4.1708    1.8835 H   0  0  0  0  0  0  0  0  0  0  0  0
    0.7094   -2.5958    0.4574 C   0  0  0  0  0  0  0  0  0  0  0  0
    0.1900   -3.0811   -0.3675 H   0  0  0  0  0  0  0  0  0  0  0  0
   -0.2274    1.9275   -1.2660 C   0  0  0  0  0  0  0  0  0  0  0  0
    0.8565    2.4019   -1.5726 O   0  0  0  0  0  0  0  0  0  0  0  0
   -1.3425    2.2836   -2.0084 N   0  0  0  0  0  0  0  0  0  0  0  0
   -2.2485    2.1002   -1.5900 H   0  0  0  0  0  0  0  0  0  0  0  0
   -1.2825    3.2816   -3.0754 C   0  0  0  0  0  0  0  0  0  0  0  0
   -0.5511    2.9891   -3.8371 H   0  0  0  0  0  0  0  0  0  0  0  0
   -2.2584    3.3803   -3.5611 H   0  0  0  0  0  0  0  0  0  0  0  0
   -0.9950    4.2591   -2.6727 H   0  0  0  0  0  0  0  0  0  0  0  0
  1  2  1  0  0  0  0
  2  3  1  0  0  0  0
  2  4  1  0  0  0  0
  2  5  1  0  0  0  0
  5  6  2  0  0  0  0
  5  7  1  0  0  0  0
  7  8  1  0  0  0  0
  7  9  1  0  0  0  0
  9 10  1  0  0  0  0
  9 11  1  0  0  0  0
  9 23  1  0  0  0  0
 11 12  1  0  0  0  0
 11 13  1  0  0  0  0
 11 14  1  0  0  0  0
 14 15  1  0  0  0  0
 14 21  2  0  0  0  0
 15 16  1  0  0  0  0
 15 17  2  0  0  0  0
 17 18  1  0  0  0  0
 17 19  1  0  0  0  0
 19 20  1  0  0  0  0
 19 21  1  0  0  0  0
 21 22  1  0  0  0  0
 23 24  2  0  0  0  0
 23 25  1  0  0  0  0
 25 26  1  0  0  0  0
 25 27  1  0  0  0  0
 27 28  1  0  0  0  0
 27 29  1  0  0  0  0
 27 30  1  0  0  0  0
M  CHG  1  15   1
M  END
$$$$

  -OEChem-01062216083D

 30 30  0     1  0  0  0  0  0999 V2000
   -3.6262   -1.9839    1.5130 H   0  0  0  0  0  0  0  0  0  0  0  0
   -3.4336   -1.2644    0.7120 C   0  0  0  0  0  0  0  0  0  0  0  0
   -4.2262   -0.5117    0.7221 H   0  0  0  0  0  0  0  0  0  0  0  0
   -3.4533   -1.7907   -0.2452 H   0  0  0  0  0  0  0  0  0  0  0  0
   -2.0857   -0.6004    0.9178 C   0  0  0  0  0  0  0  0  0  0  0  0
   -1.4442   -0.8348    1.9286 O   0  0  0  0  0  0  0  0  0  0  0  0
   -1.6475    0.3486    0.0134 N   0  0  0  0  0  0  0  0  0  0  0  0
   -2.2464    0.4471   -0.8043 H   0  0  0  0  0  0  0  0  0  0  0  0
   -0.2653    0.8738   -0.1260 C   0  0  1  0  0  0  0  0  0  0  0  0
    0.0155    1.3772    0.8052 H   0  0  0  0  0  0  0  0  0  0  0  0
    0.8129   -0.2036   -0.4759 C   0  0  0  0  0  0  0  0  0  0  0  0
    0.5268   -0.6787   -1.4205 H   0  0  0  0  0  0  0  0  0  0  0  0
    1.7795    0.2834   -0.6477 H   0  0  0  0  0  0  0  0  0  0  0  0
    1.0441   -1.2722    0.5608 C   0  0  0  0  0  0  0  0  0  0  0  0
    1.7349   -1.1047    1.7617 N   0  3  0  0  0  0  0  0  0  0  0  0
    2.0587   -0.1930    2.0933 H   0  0  0  0  0  0  0  0  0  0  0  0
    1.7772   -2.2350    2.4232 C   0  0  0  0  0  0  0  0  0  0  0  0
    2.2055   -2.3880    3.4150 H   0  0  0  0  0  0  0  0  0  0  0  0
    1.1577   -3.1991    1.6322 N   0  0  0  0  0  0  0  0  0  0  0  0
    1.0216   -4.1812    1.8876 H   0  0  0  0  0  0  0  0  0  0  0  0
    0.7115   -2.6009    0.4597 C   0  0  0  0  0  0  0  0  0  0  0  0
    0.1925   -3.0790   -0.3698 H   0  0  0  0  0  0  0  0  0  0  0  0
   -0.2168    1.9338   -1.2598 C   0  0  0  0  0  0  0  0  0  0  0  0
    0.8497    2.2515   -1.7654 O   0  0  0  0  0  0  0  0  0  0  0  0
   -1.3814    2.4926   -1.7611 N   0  0  0  0  0  0  0  0  0  0  0  0
   -2.2121    2.4087   -1.1820 H   0  0  0  0  0  0  0  0  0  0  0  0
   -1.3760    3.5213   -2.8000 C   0  0  0  0  0  0  0  0  0  0  0  0
   -0.8414    3.1690   -3.6893 H   0  0  0  0  0  0  0  0  0  0  0  0
   -2.4000    3.7710   -3.0955 H   0  0  0  0  0  0  0  0  0  0  0  0
   -0.8876    4.4323   -2.4371 H   0  0  0  0  0  0  0  0  0  0  0  0
  1  2  1  0  0  0  0
  2  3  1  0  0  0  0
  2  4  1  0  0  0  0
  2  5  1  0  0  0  0
  5  6  2  0  0  0  0
  5  7  1  0  0  0  0
  7  8  1  0  0  0  0
  7  9  1  0  0  0  0
  9 10  1  0  0  0  0
  9 11  1  0  0  0  0
  9 23  1  0  0  0  0
 11 12  1  0  0  0  0
 11 13  1  0  0  0  0
 11 14  1  0  0  0  0
 14 15  1  0  0  0  0
 14 21  2  0  0  0  0
 15 16  1  0  0  0  0
 15 17  2  0  0  0  0
 17 18  1  0  0  0  0
 17 19  1  0  0  0  0
 19 20  1  0  0  0  0
 19 21  1  0  0  0  0
 21 22  1  0  0  0  0
 23 24  2  0  0  0  0
 23 25  1  0  0  0  0
 25 26  1  0  0  0  0
 25 27  1  0  0  0  0
 27 28  1  0  0  0  0
 27 29  1  0  0  0  0
 27 30  1  0  0  0  0
M  CHG  1  15   1
M  END
$$$$

  -OEChem-01062216083D

 30 30  0     1  0  0  0  0  0999 V2000
   -3.6518   -1.9428    1.4987 H   0  0  0  0  0  0  0  0  0  0  0  0
   -3.4416   -1.2305    0.6957 C   0  0  0  0  0  0  0  0  0  0  0  0
   -4.2192   -0.4624    0.6993 H   0  0  0  0  0  0  0  0  0  0  0  0
   -3.4678   -1.7603   -0.2594 H   0  0  0  0  0  0  0  0  0  0  0  0
   -2.0814   -0.5926    0.9040 C   0  0  0  0  0  0  0  0  0  0  0  0
   -1.4433   -0.8447    1.9128 O   0  0  0  0  0  0  0  0  0  0  0  0
   -1.6274    0.3574    0.0086 N   0  0  0  0  0  0  0  0  0  0  0  0
   -2.2338    0.4970   -0.7986 H   0  0  0  0  0  0  0  0  0  0  0  0
   -0.2421    0.8741   -0.1214 C   0  0  1  0  0  0  0  0  0  0  0  0
    0.0370    1.3774    0.8101 H   0  0  0  0  0  0  0  0  0  0  0  0
    0.8361   -0.2054   -0.4639 C   0  0  0  0  0  0  0  0  0  0  0  0
    0.5570   -0.6789   -1.4114 H   0  0  0  0  0  0  0  0  0  0  0  0
    1.8032    0.2838   -0.6280 H   0  0  0  0  0  0  0  0  0  0  0  0
    1.0594   -1.2763    0.5722 C   0  0  0  0  0  0  0  0  0  0  0  0
    1.7415   -1.1197    1.7795 N   0  3  0  0  0  0  0  0  0  0  0  0
    2.0641   -0.2117    2.1213 H   0  0  0  0  0  0  0  0  0  0  0  0
    1.7751   -2.2551    2.4329 C   0  0  0  0  0  0  0  0  0  0  0  0
    2.1939   -2.4169    3.4273 H   0  0  0  0  0  0  0  0  0  0  0  0
    1.1595   -3.2115    1.6298 N   0  0  0  0  0  0  0  0  0  0  0  0
    1.0185   -4.1952    1.8763 H   0  0  0  0  0  0  0  0  0  0  0  0
    0.7241   -2.6030    0.4589 C   0  0  0  0  0  0  0  0  0  0  0  0
    0.2102   -3.0721   -0.3789 H   0  0  0  0  0  0  0  0  0  0  0  0
   -0.2102    1.9351   -1.2549 C   0  0  0  0  0  0  0  0  0  0  0  0
    0.7815    2.0896   -1.9529 O   0  0  0  0  0  0  0  0  0  0  0  0
   -1.3344    2.6985   -1.5219 N   0  0  0  0  0  0  0  0  0  0  0  0
   -2.0753    2.6855   -0.8256 H   0  0  0  0  0  0  0  0  0  0  0  0
   -1.3531    3.7567   -2.5300 C   0  0  0  0  0  0  0  0  0  0  0  0
   -1.0432    3.3664   -3.5058 H   0  0  0  0  0  0  0  0  0  0  0  0
   -2.3623    4.1679   -2.6330 H   0  0  0  0  0  0  0  0  0  0  0  0
   -0.6749    4.5693   -2.2473 H   0  0  0  0  0  0  0  0  0  0  0  0
  1  2  1  0  0  0  0
  2  3  1  0  0  0  0
  2  4  1  0  0  0  0
  2  5  1  0  0  0  0
  5  6  2  0  0  0  0
  5  7  1  0  0  0  0
  7  8  1  0  0  0  0
  7  9  1  0  0  0  0
  9 10  1  0  0  0  0
  9 11  1  0  0  0  0
  9 23  1  0  0  0  0
 11 12  1  0  0  0  0
 11 13  1  0  0  0  0
 11 14  1  0  0  0  0
 14 15  1  0  0  0  0
 14 21  2  0  0  0  0
 15 16  1  0  0  0  0
 15 17  2  0  0  0  0
 17 18  1  0  0  0  0
 17 19  1  0  0  0  0
 19 20  1  0  0  0  0
 19 21  1  0  0  0  0
 21 22  1  0  0  0  0
 23 24  2  0  0  0  0
 23 25  1  0  0  0  0
 25 26  1  0  0  0  0
 25 27  1  0  0  0  0
 27 28  1  0  0  0  0
 27 29  1  0  0  0  0
 27 30  1  0  0  0  0
M  CHG  1  15   1
M  END
$$$$

  -OEChem-01062216083D

 30 30  0     1  0  0  0  0  0999 V2000
   -3.6564   -1.9422    1.4556 H   0  0  0  0  0  0  0  0  0  0  0  0
   -3.4458   -1.2058    0.6747 C   0  0  0  0  0  0  0  0  0  0  0  0
   -4.2155   -0.4307    0.7093 H   0  0  0  0  0  0  0  0  0  0  0  0
   -3.4845   -1.7038   -0.2971 H   0  0  0  0  0  0  0  0  0  0  0  0
   -2.0782   -0.5874    0.8928 C   0  0  0  0  0  0  0  0  0  0  0  0
   -1.4457   -0.8592    1.9001 O   0  0  0  0  0  0  0  0  0  0  0  0
   -1.6105    0.3675    0.0101 N   0  0  0  0  0  0  0  0  0  0  0  0
   -2.2213    0.5430   -0.7871 H   0  0  0  0  0  0  0  0  0  0  0  0
   -0.2241    0.8812   -0.1028 C   0  0  1  0  0  0  0  0  0  0  0  0
    0.0487    1.3790    0.8333 H   0  0  0  0  0  0  0  0  0  0  0  0
    0.8577   -0.1944   -0.4420 C   0  0  0  0  0  0  0  0  0  0  0  0
    0.5858   -0.6641   -1.3939 H   0  0  0  0  0  0  0  0  0  0  0  0
    1.8225    0.3019   -0.5988 H   0  0  0  0  0  0  0  0  0  0  0  0
    1.0732   -1.2742    0.5867 C   0  0  0  0  0  0  0  0  0  0  0  0
    1.7430   -1.1333    1.8030 N   0  3  0  0  0  0  0  0  0  0  0  0
    2.0597   -0.2296    2.1610 H   0  0  0  0  0  0  0  0  0  0  0  0
    1.7697   -2.2770    2.4423 C   0  0  0  0  0  0  0  0  0  0  0  0
    2.1770   -2.4518    3.4393 H   0  0  0  0  0  0  0  0  0  0  0  0
    1.1632   -3.2232    1.6204 N   0  0  0  0  0  0  0  0  0  0  0  0
    1.0200   -4.2101    1.8524 H   0  0  0  0  0  0  0  0  0  0  0  0
    0.7393   -2.5995    0.4533 C   0  0  0  0  0  0  0  0  0  0  0  0
    0.2334   -3.0578   -0.3955 H   0  0  0  0  0  0  0  0  0  0  0  0
   -0.1964    1.9468   -1.2308 C   0  0  0  0  0  0  0  0  0  0  0  0
    0.6658    1.9455   -2.0981 O   0  0  0  0  0  0  0  0  0  0  0  0
   -1.1952    2.9028   -1.2901 N   0  0  0  0  0  0  0  0  0  0  0  0
   -1.8502    2.9466   -0.5129 H   0  0  0  0  0  0  0  0  0  0  0  0
   -1.2311    3.9621   -2.2964 C   0  0  0  0  0  0  0  0  0  0  0  0
   -1.2949    3.5346   -3.3031 H   0  0  0  0  0  0  0  0  0  0  0  0
   -2.1025    4.6061   -2.1413 H   0  0  0  0  0  0  0  0  0  0  0  0
   -0.3297    4.5819   -2.2363 H   0  0  0  0  0  0  0  0  0  0  0  0
  1  2  1  0  0  0  0
  2  3  1  0  0  0  0
  2  4  1  0  0  0  0
  2  5  1  0  0  0  0
  5  6  2  0  0  0  0
  5  7  1  0  0  0  0
  7  8  1  0  0  0  0
  7  9  1  0  0  0  0
  9 10  1  0  0  0  0
  9 11  1  0  0  0  0
  9 23  1  0  0  0  0
 11 12  1  0  0  0  0
 11 13  1  0  0  0  0
 11 14  1  0  0  0  0
 14 15  1  0  0  0  0
 14 21  2  0  0  0  0
 15 16  1  0  0  0  0
 15 17  2  0  0  0  0
 17 18  1  0  0  0  0
 17 19  1  0  0  0  0
 19 20  1  0  0  0  0
 19 21  1  0  0  0  0
 21 22  1  0  0  0  0
 23 24  2  0  0  0  0
 23 25  1  0  0  0  0
 25 26  1  0  0  0  0
 25 27  1  0  0  0  0
 27 28  1  0  0  0  0
 27 29  1  0  0  0  0
 27 30  1  0  0  0  0
M  CHG  1  15   1
M  END
$$$$

  -OEChem-01062216083D

 30 30  0     1  0  0  0  0  0999 V2000
   -3.6696   -1.9188    1.4427 H   0  0  0  0  0  0  0  0  0  0  0  0
   -3.4458   -1.1857    0.6625 C   0  0  0  0  0  0  0  0  0  0  0  0
   -4.2064   -0.4013    0.6921 H   0  0  0  0  0  0  0  0  0  0  0  0
   -3.4850   -1.6840   -0.3090 H   0  0  0  0  0  0  0  0  0  0  0  0
   -2.0720   -0.5838    0.8874 C   0  0  0  0  0  0  0  0  0  0  0  0
   -1.4431   -0.8705    1.8931 O   0  0  0  0  0  0  0  0  0  0  0  0
   -1.5945    0.3749    0.0144 N   0  0  0  0  0  0  0  0  0  0  0  0
   -2.2051    0.5704   -0.7786 H   0  0  0  0  0  0  0  0  0  0  0  0
   -0.2075    0.8844   -0.0881 C   0  0  1  0  0  0  0  0  0  0  0  0
    0.0635    1.3743    0.8526 H   0  0  0  0  0  0  0  0  0  0  0  0
    0.8759   -0.1877   -0.4306 C   0  0  0  0  0  0  0  0  0  0  0  0
    0.6039   -0.6561   -1.3834 H   0  0  0  0  0  0  0  0  0  0  0  0
    1.8377    0.3139   -0.5894 H   0  0  0  0  0  0  0  0  0  0  0  0
    1.0860   -1.2754    0.5912 C   0  0  0  0  0  0  0  0  0  0  0  0
    1.7490   -1.1464    1.8125 N   0  3  0  0  0  0  0  0  0  0  0  0
    2.0701   -0.2476    2.1784 H   0  0  0  0  0  0  0  0  0  0  0  0
    1.7636   -2.2944    2.4448 C   0  0  0  0  0  0  0  0  0  0  0  0
    2.1629   -2.4783    3.4434 H   0  0  0  0  0  0  0  0  0  0  0  0
    1.1558   -3.2315    1.6133 N   0  0  0  0  0  0  0  0  0  0  0  0
    1.0001   -4.2177    1.8403 H   0  0  0  0  0  0  0  0  0  0  0  0
    0.7439   -2.5976    0.4475 C   0  0  0  0  0  0  0  0  0  0  0  0
    0.2379   -3.0458   -0.4066 H   0  0  0  0  0  0  0  0  0  0  0  0
   -0.1793    1.9544   -1.2089 C   0  0  0  0  0  0  0  0  0  0  0  0
    0.5008    1.8167   -2.2160 O   0  0  0  0  0  0  0  0  0  0  0  0
   -0.9771    3.0779   -1.0913 N   0  0  0  0  0  0  0  0  0  0  0  0
   -1.5249    3.1848   -0.2407 H   0  0  0  0  0  0  0  0  0  0  0  0
   -1.0212    4.1398   -2.0939 C   0  0  0  0  0  0  0  0  0  0  0  0
   -1.3509    3.7436   -3.0606 H   0  0  0  0  0  0  0  0  0  0  0  0
   -1.7203    4.9244   -1.7880 H   0  0  0  0  0  0  0  0  0  0  0  0
   -0.0310    4.5911   -2.2200 H   0  0  0  0  0  0  0  0  0  0  0  0
  1  2  1  0  0  0  0
  2  3  1  0  0  0  0
  2  4  1  0  0  0  0
  2  5  1  0  0  0  0
  5  6  2  0  0  0  0
  5  7  1  0  0  0  0
  7  8  1  0  0  0  0
  7  9  1  0  0  0  0
  9 10  1  0  0  0  0
  9 11  1  0  0  0  0
  9 23  1  0  0  0  0
 11 12  1  0  0  0  0
 11 13  1  0  0  0  0
 11 14  1  0  0  0  0
 14 15  1  0  0  0  0
 14 21  2  0  0  0  0
 15 16  1  0  0  0  0
 15 17  2  0  0  0  0
 17 18  1  0  0  0  0
 17 19  1  0  0  0  0
 19 20  1  0  0  0  0
 19 21  1  0  0  0  0
 21 22  1  0  0  0  0
 23 24  2  0  0  0  0
 23 25  1  0  0  0  0
 25 26  1  0  0  0  0
 25 27  1  0  0  0  0
 27 28  1  0  0  0  0
 27 29  1  0  0  0  0
 27 30  1  0  0  0  0
M  CHG  1  15   1
M  END
$$$$

  -OEChem-01062216083D

 30 30  0     1  0  0  0  0  0999 V2000
   -3.6734   -1.9049    1.4296 H   0  0  0  0  0  0  0  0  0  0  0  0
   -3.4407   -1.1723    0.6517 C   0  0  0  0  0  0  0  0  0  0  0  0
   -4.1981   -0.3846    0.6759 H   0  0  0  0  0  0  0  0  0  0  0  0
   -3.4740   -1.6690   -0.3208 H   0  0  0  0  0  0  0  0  0  0  0  0
   -2.0662   -0.5767    0.8878 C   0  0  0  0  0  0  0  0  0  0  0  0
   -1.4427   -0.8712    1.8950 O   0  0  0  0  0  0  0  0  0  0  0  0
   -1.5811    0.3838    0.0217 N   0  0  0  0  0  0  0  0  0  0  0  0
   -2.1841    0.5813   -0.7768 H   0  0  0  0  0  0  0  0  0  0  0  0
   -0.1938    0.8911   -0.0683 C   0  0  1  0  0  0  0  0  0  0  0  0
    0.0737    1.3728    0.8776 H   0  0  0  0  0  0  0  0  0  0  0  0
    0.8900   -0.1781   -0.4147 C   0  0  0  0  0  0  0  0  0  0  0  0
    0.6193   -0.6444   -1.3690 H   0  0  0  0  0  0  0  0  0  0  0  0
    1.8510    0.3253   -0.5713 H   0  0  0  0  0  0  0  0  0  0  0  0
    1.0919   -1.2747    0.5994 C   0  0  0  0  0  0  0  0  0  0  0  0
    1.7465   -1.1613    1.8268 N   0  3  0  0  0  0  0  0  0  0  0  0
    2.0649   -0.2673    2.2064 H   0  0  0  0  0  0  0  0  0  0  0  0
    1.7534   -2.3163    2.4465 C   0  0  0  0  0  0  0  0  0  0  0  0
    2.1450   -2.5125    3.4458 H   0  0  0  0  0  0  0  0  0  0  0  0
    1.1487   -3.2423    1.6004 N   0  0  0  0  0  0  0  0  0  0  0  0
    0.9886   -4.2308    1.8144 H   0  0  0  0  0  0  0  0  0  0  0  0
    0.7462   -2.5940    0.4394 C   0  0  0  0  0  0  0  0  0  0  0  0
    0.2433   -3.0311   -0.4224 H   0  0  0  0  0  0  0  0  0  0  0  0
   -0.1540    1.9635   -1.1842 C   0  0  0  0  0  0  0  0  0  0  0  0
    0.2952    1.7128   -2.2937 O   0  0  0  0  0  0  0  0  0  0  0  0
   -0.6909    3.2148   -0.9449 N   0  0  0  0  0  0  0  0  0  0  0  0
   -1.1097    3.3871   -0.0341 H   0  0  0  0  0  0  0  0  0  0  0  0
   -0.7440    4.2719   -1.9520 C   0  0  0  0  0  0  0  0  0  0  0  0
   -1.3295    3.9488   -2.8196 H   0  0  0  0  0  0  0  0  0  0  0  0
   -1.2114    5.1705   -1.5369 H   0  0  0  0  0  0  0  0  0  0  0  0
    0.2651    4.5337   -2.2886 H   0  0  0  0  0  0  0  0  0  0  0  0
  1  2  1  0  0  0  0
  2  3  1  0  0  0  0
  2  4  1  0  0  0  0
  2  5  1  0  0  0  0
  5  6  2  0  0  0  0
  5  7  1  0  0  0  0
  7  8  1  0  0  0  0
  7  9  1  0  0  0  0
  9 10  1  0  0  0  0
  9 11  1  0  0  0  0
  9 23  1  0  0  0  0
 11 12  1  0  0  0  0
 11 13  1  0  0  0  0
 11 14  1  0  0  0  0
 14 15  1  0  0  0  0
 14 21  2  0  0  0  0
 15 16  1  0  0  0  0
 15 17  2  0  0  0  0
 17 18  1  0  0  0  0
 17 19  1  0  0  0  0
 19 20  1  0  0  0  0
 19 21  1  0  0  0  0
 21 22  1  0  0  0  0
 23 24  2  0  0  0  0
 23 25  1  0  0  0  0
 25 26  1  0  0  0  0
 25 27  1  0  0  0  0
 27 28  1  0  0  0  0
 27 29  1  0  0  0  0
 27 30  1  0  0  0  0
M  CHG  1  15   1
M  END
$$$$

  -OEChem-01062216083D

 30 30  0     1  0  0  0  0  0999 V2000
   -3.6647   -1.9119    1.4017 H   0  0  0  0  0  0  0  0  0  0  0  0
   -3.4308   -1.1655    0.6375 C   0  0  0  0  0  0  0  0  0  0  0  0
   -4.1947   -0.3842    0.6669 H   0  0  0  0  0  0  0  0  0  0  0  0
   -3.4519   -1.6472   -0.3430 H   0  0  0  0  0  0  0  0  0  0  0  0
   -2.0628   -0.5628    0.8930 C   0  0  0  0  0  0  0  0  0  0  0  0
   -1.4464   -0.8597    1.9043 O   0  0  0  0  0  0  0  0  0  0  0  0
   -1.5676    0.3953    0.0305 N   0  0  0  0  0  0  0  0  0  0  0  0
   -2.1564    0.5875   -0.7803 H   0  0  0  0  0  0  0  0  0  0  0  0
   -0.1801    0.9004   -0.0432 C   0  0  1  0  0  0  0  0  0  0  0  0
    0.0799    1.3752    0.9079 H   0  0  0  0  0  0  0  0  0  0  0  0
    0.9040   -0.1652   -0.3938 C   0  0  0  0  0  0  0  0  0  0  0  0
    0.6391   -0.6232   -1.3539 H   0  0  0  0  0  0  0  0  0  0  0  0
    1.8660    0.3386   -0.5401 H   0  0  0  0  0  0  0  0  0  0  0  0
    1.0945   -1.2731    0.6110 C   0  0  0  0  0  0  0  0  0  0  0  0
    1.7380   -1.1777    1.8461 N   0  3  0  0  0  0  0  0  0  0  0  0
    2.0522   -0.2897    2.2426 H   0  0  0  0  0  0  0  0  0  0  0  0
    1.7372   -2.3413    2.4496 C   0  0  0  0  0  0  0  0  0  0  0  0
    2.1195   -2.5524    3.4495 H   0  0  0  0  0  0  0  0  0  0  0  0
    1.1380   -3.2544    1.5861 N   0  0  0  0  0  0  0  0  0  0  0  0
    0.9772   -4.2461    1.7843 H   0  0  0  0  0  0  0  0  0  0  0  0
    0.7465   -2.5894    0.4310 C   0  0  0  0  0  0  0  0  0  0  0  0
    0.2506   -3.0139   -0.4412 H   0  0  0  0  0  0  0  0  0  0  0  0
   -0.1237    1.9692   -1.1593 C   0  0  0  0  0  0  0  0  0  0  0  0
    0.0527    1.6409   -2.3240 O   0  0  0  0  0  0  0  0  0  0  0  0
   -0.3641    3.2980   -0.8626 N   0  0  0  0  0  0  0  0  0  0  0  0
   -0.6130    3.5363    0.0943 H   0  0  0  0  0  0  0  0  0  0  0  0
   -0.4241    4.3451   -1.8802 C   0  0  0  0  0  0  0  0  0  0  0  0
   -1.2486    4.1581   -2.5767 H   0  0  0  0  0  0  0  0  0  0  0  0
   -0.5822    5.3224   -1.4129 H   0  0  0  0  0  0  0  0  0  0  0  0
    0.5116    4.3850   -2.4487 H   0  0  0  0  0  0  0  0  0  0  0  0
  1  2  1  0  0  0  0
  2  3  1  0  0  0  0
  2  4  1  0  0  0  0
  2  5  1  0  0  0  0
  5  6  2  0  0  0  0
  5  7  1  0  0  0  0
  7  8  1  0  0  0  0
  7  9  1  0  0  0  0
  9 10  1  0  0  0  0
  9 11  1  0  0  0  0
  9 23  1  0  0  0  0
 11 12  1  0  0  0  0
 11 13  1  0  0  0  0
 11 14  1  0  0  0  0
 14 15  1  0  0  0  0
 14 21  2  0  0  0  0
 15 16  1  0  0  0  0
 15 17  2  0  0  0  0
 17 18  1  0  0  0  0
 17 19  1  0  0  0  0
 19 20  1  0  0  0  0
 19 21  1  0  0  0  0
 21 22  1  0  0  0  0
 23 24  2  0  0  0  0
 23 25  1  0  0  0  0
 25 26  1  0  0  0  0
 25 27  1  0  0  0  0
 27 28  1  0  0  0  0
 27 29  1  0  0  0  0
 27 30  1  0  0  0  0
M  CHG  1  15   1
M  END
$$$$

  -OEChem-01062216083D

 30 30  0     1  0  0  0  0  0999 V2000
   -3.6641   -1.8995    1.3925 H   0  0  0  0  0  0  0  0  0  0  0  0
   -3.4249   -1.1518    0.6311 C   0  0  0  0  0  0  0  0  0  0  0  0
   -4.1830   -0.3650    0.6621 H   0  0  0  0  0  0  0  0  0  0  0  0
   -3.4485   -1.6297   -0.3511 H   0  0  0  0  0  0  0  0  0  0  0  0
   -2.0537   -0.5581    0.8905 C   0  0  0  0  0  0  0  0  0  0  0  0
   -1.4438   -0.8552    1.9062 O   0  0  0  0  0  0  0  0  0  0  0  0
   -1.5481    0.3947    0.0287 N   0  0  0  0  0  0  0  0  0  0  0  0
   -2.1230    0.5836   -0.7935 H   0  0  0  0  0  0  0  0  0  0  0  0
   -0.1618    0.9030   -0.0265 C   0  0  1  0  0  0  0  0  0  0  0  0
    0.0859    1.3772    0.9282 H   0  0  0  0  0  0  0  0  0  0  0  0
    0.9267   -0.1547   -0.3794 C   0  0  0  0  0  0  0  0  0  0  0  0
    0.6734   -0.6016   -1.3478 H   0  0  0  0  0  0  0  0  0  0  0  0
    1.8896    0.3517   -0.5088 H   0  0  0  0  0  0  0  0  0  0  0  0
    1.1057   -1.2718    0.6171 C   0  0  0  0  0  0  0  0  0  0  0  0
    1.7338   -1.1919    1.8614 N   0  3  0  0  0  0  0  0  0  0  0  0
    2.0436   -0.3091    2.2726 H   0  0  0  0  0  0  0  0  0  0  0  0
    1.7145   -2.3605    2.4550 C   0  0  0  0  0  0  0  0  0  0  0  0
    2.0779   -2.5826    3.4595 H   0  0  0  0  0  0  0  0  0  0  0  0
    1.1218   -3.2618    1.5747 N   0  0  0  0  0  0  0  0  0  0  0  0
    0.9451   -4.2525    1.7641 H   0  0  0  0  0  0  0  0  0  0  0  0
    0.7503   -2.5835    0.4208 C   0  0  0  0  0  0  0  0  0  0  0  0
    0.2590   -2.9954   -0.4600 H   0  0  0  0  0  0  0  0  0  0  0  0
   -0.0938    1.9615   -1.1491 C   0  0  0  0  0  0  0  0  0  0  0  0
   -0.1814    1.6088   -2.3170 O   0  0  0  0  0  0  0  0  0  0  0  0
   -0.0333    3.3099   -0.8485 N   0  0  0  0  0  0  0  0  0  0  0  0
   -0.0930    3.5849    0.1286 H   0  0  0  0  0  0  0  0  0  0  0  0
   -0.0878    4.3554   -1.8682 C   0  0  0  0  0  0  0  0  0  0  0  0
   -1.0536    4.3394   -2.3847 H   0  0  0  0  0  0  0  0  0  0  0  0
    0.0429    5.3413   -1.4107 H   0  0  0  0  0  0  0  0  0  0  0  0
    0.7067    4.2143   -2.6090 H   0  0  0  0  0  0  0  0  0  0  0  0
  1  2  1  0  0  0  0
  2  3  1  0  0  0  0
  2  4  1  0  0  0  0
  2  5  1  0  0  0  0
  5  6  2  0  0  0  0
  5  7  1  0  0  0  0
  7  8  1  0  0  0  0
  7  9  1  0  0  0  0
  9 10  1  0  0  0  0
  9 11  1  0  0  0  0
  9 23  1  0  0  0  0
 11 12  1  0  0  0  0
 11 13  1  0  0  0  0
 11 14  1  0  0  0  0
 14 15  1  0  0  0  0
 14 21  2  0  0  0  0
 15 16  1  0  0  0  0
 15 17  2  0  0  0  0
 17 18  1  0  0  0  0
 17 19  1  0  0  0  0
 19 20  1  0  0  0  0
 19 21  1  0  0  0  0
 21 22  1  0  0  0  0
 23 24  2  0  0  0  0
 23 25  1  0  0  0  0
 25 26  1  0  0  0  0
 25 27  1  0  0  0  0
 27 28  1  0  0  0  0
 27 29  1  0  0  0  0
 27 30  1  0  0  0  0
M  CHG  1  15   1
M  END
$$$$

  -OEChem-01062216083D

 30 30  0     1  0  0  0  0  0999 V2000
   -3.6754   -1.8834    1.3748 H   0  0  0  0  0  0  0  0  0  0  0  0
   -3.4291   -1.1290    0.6226 C   0  0  0  0  0  0  0  0  0  0  0  0
   -4.1772   -0.3333    0.6661 H   0  0  0  0  0  0  0  0  0  0  0  0
   -3.4615   -1.5932   -0.3660 H   0  0  0  0  0  0  0  0  0  0  0  0
   -2.0504   -0.5551    0.8853 C   0  0  0  0  0  0  0  0  0  0  0  0
   -1.4452   -0.8618    1.9010 O   0  0  0  0  0  0  0  0  0  0  0  0
   -1.5308    0.3889    0.0229 N   0  0  0  0  0  0  0  0  0  0  0  0
   -2.0984    0.5862   -0.8034 H   0  0  0  0  0  0  0  0  0  0  0  0
   -0.1469    0.9022   -0.0177 C   0  0  1  0  0  0  0  0  0  0  0  0
    0.0891    1.3830    0.9365 H   0  0  0  0  0  0  0  0  0  0  0  0
    0.9441   -0.1507   -0.3679 C   0  0  0  0  0  0  0  0  0  0  0  0
    0.6970   -0.5893   -1.3420 H   0  0  0  0  0  0  0  0  0  0  0  0
    1.9081    0.3565   -0.4858 H   0  0  0  0  0  0  0  0  0  0  0  0
    1.1148   -1.2731    0.6249 C   0  0  0  0  0  0  0  0  0  0  0  0
    1.7316   -1.2013    1.8754 N   0  3  0  0  0  0  0  0  0  0  0  0
    2.0361   -0.3212    2.2963 H   0  0  0  0  0  0  0  0  0  0  0  0
    1.7034   -2.3728    2.4630 C   0  0  0  0  0  0  0  0  0  0  0  0
    2.0537   -2.6004    3.4710 H   0  0  0  0  0  0  0  0  0  0  0  0
    1.1177   -3.2684    1.5725 N   0  0  0  0  0  0  0  0  0  0  0  0
    0.9351   -4.2591    1.7561 H   0  0  0  0  0  0  0  0  0  0  0  0
    0.7582   -2.5833    0.4189 C   0  0  0  0  0  0  0  0  0  0  0  0
    0.2722   -2.9895   -0.4676 H   0  0  0  0  0  0  0  0  0  0  0  0
   -0.0702    1.9460   -1.1519 C   0  0  0  0  0  0  0  0  0  0  0  0
   -0.3855    1.6130   -2.2862 O   0  0  0  0  0  0  0  0  0  0  0  0
    0.2838    3.2581   -0.8959 N   0  0  0  0  0  0  0  0  0  0  0  0
    0.4099    3.5388    0.0730 H   0  0  0  0  0  0  0  0  0  0  0  0
    0.2475    4.3012   -1.9189 C   0  0  0  0  0  0  0  0  0  0  0  0
   -0.7804    4.4722   -2.2569 H   0  0  0  0  0  0  0  0  0  0  0  0
    0.6411    5.2412   -1.5192 H   0  0  0  0  0  0  0  0  0  0  0  0
    0.8567    4.0164   -2.7838 H   0  0  0  0  0  0  0  0  0  0  0  0
  1  2  1  0  0  0  0
  2  3  1  0  0  0  0
  2  4  1  0  0  0  0
  2  5  1  0  0  0  0
  5  6  2  0  0  0  0
  5  7  1  0  0  0  0
  7  8  1  0  0  0  0
  7  9  1  0  0  0  0
  9 10  1  0  0  0  0
  9 11  1  0  0  0  0
  9 23  1  0  0  0  0
 11 12  1  0  0  0  0
 11 13  1  0  0  0  0
 11 14  1  0  0  0  0
 14 15  1  0  0  0  0
 14 21  2  0  0  0  0
 15 16  1  0  0  0  0
 15 17  2  0  0  0  0
 17 18  1  0  0  0  0
 17 19  1  0  0  0  0
 19 20  1  0  0  0  0
 19 21  1  0  0  0  0
 21 22  1  0  0  0  0
 23 24  2  0  0  0  0
 23 25  1  0  0  0  0
 25 26  1  0  0  0  0
 25 27  1  0  0  0  0
 27 28  1  0  0  0  0
 27 29  1  0  0  0  0
 27 30  1  0  0  0  0
M  CHG  1  15   1
M  END
$$$$

  -OEChem-01062216083D

 30 30  0     1  0  0  0  0  0999 V2000
   -3.6897   -1.8622    1.4045 H   0  0  0  0  0  0  0  0  0  0  0  0
   -3.4329   -1.1317    0.6323 C   0  0  0  0  0  0  0  0  0  0  0  0
   -4.1780   -0.3321    0.6451 H   0  0  0  0  0  0  0  0  0  0  0  0
   -3.4580   -1.6253   -0.3421 H   0  0  0  0  0  0  0  0  0  0  0  0
   -2.0541   -0.5562    0.8910 C   0  0  0  0  0  0  0  0  0  0  0  0
   -1.4457   -0.8622    1.9053 O   0  0  0  0  0  0  0  0  0  0  0  0
   -1.5335    0.3822    0.0230 N   0  0  0  0  0  0  0  0  0  0  0  0
   -2.1046    0.5896   -0.7991 H   0  0  0  0  0  0  0  0  0  0  0  0
   -0.1531    0.9059   -0.0167 C   0  0  1  0  0  0  0  0  0  0  0  0
    0.0784    1.3936    0.9351 H   0  0  0  0  0  0  0  0  0  0  0  0
    0.9387   -0.1432   -0.3700 C   0  0  0  0  0  0  0  0  0  0  0  0
    0.6897   -0.5778   -1.3454 H   0  0  0  0  0  0  0  0  0  0  0  0
    1.9024    0.3645   -0.4875 H   0  0  0  0  0  0  0  0  0  0  0  0
    1.1123   -1.2670    0.6210 C   0  0  0  0  0  0  0  0  0  0  0  0
    1.7298   -1.1979    1.8715 N   0  3  0  0  0  0  0  0  0  0  0  0
    2.0286   -0.3180    2.2966 H   0  0  0  0  0  0  0  0  0  0  0  0
    1.7020   -2.3707    2.4568 C   0  0  0  0  0  0  0  0  0  0  0  0
    2.0525   -2.5999    3.4643 H   0  0  0  0  0  0  0  0  0  0  0  0
    1.1164   -3.2648    1.5647 N   0  0  0  0  0  0  0  0  0  0  0  0
    0.9327   -4.2556    1.7468 H   0  0  0  0  0  0  0  0  0  0  0  0
    0.7557   -2.5769    0.4130 C   0  0  0  0  0  0  0  0  0  0  0  0
    0.2674   -2.9808   -0.4733 H   0  0  0  0  0  0  0  0  0  0  0  0
   -0.0719    1.9393   -1.1603 C   0  0  0  0  0  0  0  0  0  0  0  0
   -0.5762    1.6649   -2.2412 O   0  0  0  0  0  0  0  0  0  0  0  0
    0.5576    3.1583   -0.9859 N   0  0  0  0  0  0  0  0  0  0  0  0
    0.8640    3.4109   -0.0503 H   0  0  0  0  0  0  0  0  0  0  0  0
    0.5968    4.1822   -2.0279 C   0  0  0  0  0  0  0  0  0  0  0  0
   -0.4175    4.4954   -2.2986 H   0  0  0  0  0  0  0  0  0  0  0  0
    1.1471    5.0617   -1.6788 H   0  0  0  0  0  0  0  0  0  0  0  0
    1.0956    3.7998   -2.9252 H   0  0  0  0  0  0  0  0  0  0  0  0
  1  2  1  0  0  0  0
  2  3  1  0  0  0  0
  2  4  1  0  0  0  0
  2  5  1  0  0  0  0
  5  6  2  0  0  0  0
  5  7  1  0  0  0  0
  7  8  1  0  0  0  0
  7  9  1  0  0  0  0
  9 10  1  0  0  0  0
  9 11  1  0  0  0  0
  9 23  1  0  0  0  0
 11 12  1  0  0  0  0
 11 13  1  0  0  0  0
 11 14  1  0  0  0  0
 14 15  1  0  0  0  0
 14 21  2  0  0  0  0
 15 16  1  0  0  0  0
 15 17  2  0  0  0  0
 17 18  1  0  0  0  0
 17 19  1  0  0  0  0
 19 20  1  0  0  0  0
 19 21  1  0  0  0  0
 21 22  1  0  0  0  0
 23 24  2  0  0  0  0
 23 25  1  0  0  0  0
 25 26  1  0  0  0  0
 25 27  1  0  0  0  0
 27 28  1  0  0  0  0
 27 29  1  0  0  0  0
 27 30  1  0  0  0  0
M  CHG  1  15   1
M  END
$$$$

  -OEChem-01062216083D

 30 30  0     1  0  0  0  0  0999 V2000
   -3.6935   -1.8686    1.3934 H   0  0  0  0  0  0  0  0  0  0  0  0
   -3.4426   -1.1264    0.6305 C   0  0  0  0  0  0  0  0  0  0  0  0
   -4.1818   -0.3221    0.6686 H   0  0  0  0  0  0  0  0  0  0  0  0
   -3.4853   -1.6024   -0.3521 H   0  0  0  0  0  0  0  0  0  0  0  0
   -2.0558   -0.5653    0.8795 C   0  0  0  0  0  0  0  0  0  0  0  0
   -1.4464   -0.8750    1.8921 O   0  0  0  0  0  0  0  0  0  0  0  0
   -1.5308    0.3679    0.0086 N   0  0  0  0  0  0  0  0  0  0  0  0
   -2.1084    0.5954   -0.8045 H   0  0  0  0  0  0  0  0  0  0  0  0
   -0.1549    0.9043   -0.0276 C   0  0  1  0  0  0  0  0  0  0  0  0
    0.0685    1.4014    0.9214 H   0  0  0  0  0  0  0  0  0  0  0  0
    0.9412   -0.1425   -0.3739 C   0  0  0  0  0  0  0  0  0  0  0  0
    0.6948   -0.5801   -1.3487 H   0  0  0  0  0  0  0  0  0  0  0  0
    1.9048    0.3655   -0.4899 H   0  0  0  0  0  0  0  0  0  0  0  0
    1.1158   -1.2619    0.6216 C   0  0  0  0  0  0  0  0  0  0  0  0
    1.7295   -1.1867    1.8738 N   0  3  0  0  0  0  0  0  0  0  0  0
    2.0224   -0.3046    2.2984 H   0  0  0  0  0  0  0  0  0  0  0  0
    1.7012   -2.3573    2.4633 C   0  0  0  0  0  0  0  0  0  0  0  0
    2.0464   -2.5823    3.4737 H   0  0  0  0  0  0  0  0  0  0  0  0
    1.1221   -3.2560    1.5718 N   0  0  0  0  0  0  0  0  0  0  0  0
    0.9393   -4.2462    1.7574 H   0  0  0  0  0  0  0  0  0  0  0  0
    0.7643   -2.5736    0.4162 C   0  0  0  0  0  0  0  0  0  0  0  0
    0.2806   -2.9828   -0.4701 H   0  0  0  0  0  0  0  0  0  0  0  0
   -0.0696    1.9280   -1.1818 C   0  0  0  0  0  0  0  0  0  0  0  0
   -0.7419    1.7454   -2.1885 O   0  0  0  0  0  0  0  0  0  0  0  0
    0.7960    3.0059   -1.1237 N   0  0  0  0  0  0  0  0  0  0  0  0
    1.2584    3.2023   -0.2404 H   0  0  0  0  0  0  0  0  0  0  0  0
    0.8797    4.0074   -2.1847 C   0  0  0  0  0  0  0  0  0  0  0  0
   -0.0734    4.5372   -2.2894 H   0  0  0  0  0  0  0  0  0  0  0  0
    1.6597    4.7408   -1.9566 H   0  0  0  0  0  0  0  0  0  0  0  0
    1.1240    3.5358   -3.1430 H   0  0  0  0  0  0  0  0  0  0  0  0
  1  2  1  0  0  0  0
  2  3  1  0  0  0  0
  2  4  1  0  0  0  0
  2  5  1  0  0  0  0
  5  6  2  0  0  0  0
  5  7  1  0  0  0  0
  7  8  1  0  0  0  0
  7  9  1  0  0  0  0
  9 10  1  0  0  0  0
  9 11  1  0  0  0  0
  9 23  1  0  0  0  0
 11 12  1  0  0  0  0
 11 13  1  0  0  0  0
 11 14  1  0  0  0  0
 14 15  1  0  0  0  0
 14 21  2  0  0  0  0
 15 16  1  0  0  0  0
 15 17  2  0  0  0  0
 17 18  1  0  0  0  0
 17 19  1  0  0  0  0
 19 20  1  0  0  0  0
 19 21  1  0  0  0  0
 21 22  1  0  0  0  0
 23 24  2  0  0  0  0
 23 25  1  0  0  0  0
 25 26  1  0  0  0  0
 25 27  1  0  0  0  0
 27 28  1  0  0  0  0
 27 29  1  0  0  0  0
 27 30  1  0  0  0  0
M  CHG  1  15   1
M  END
$$$$

  -OEChem-01062216083D

 30 30  0     1  0  0  0  0  0999 V2000
   -3.7131   -1.8496    1.3899 H   0  0  0  0  0  0  0  0  0  0  0  0
   -3.4522   -1.1142    0.6239 C   0  0  0  0  0  0  0  0  0  0  0  0
   -4.1784   -0.2980    0.6599 H   0  0  0  0  0  0  0  0  0  0  0  0
   -3.5047   -1.5929   -0.3569 H   0  0  0  0  0  0  0  0  0  0  0  0
   -2.0562   -0.5742    0.8680 C   0  0  0  0  0  0  0  0  0  0  0  0
   -1.4459   -0.8994    1.8750 O   0  0  0  0  0  0  0  0  0  0  0  0
   -1.5257    0.3574   -0.0012 N   0  0  0  0  0  0  0  0  0  0  0  0
   -2.1202    0.6238   -0.7907 H   0  0  0  0  0  0  0  0  0  0  0  0
   -0.1520    0.9015   -0.0422 C   0  0  1  0  0  0  0  0  0  0  0  0
    0.0716    1.4061    0.9029 H   0  0  0  0  0  0  0  0  0  0  0  0
    0.9425   -0.1507   -0.3820 C   0  0  0  0  0  0  0  0  0  0  0  0
    0.6914   -0.5945   -1.3527 H   0  0  0  0  0  0  0  0  0  0  0  0
    1.9084    0.3507   -0.5033 H   0  0  0  0  0  0  0  0  0  0  0  0
    1.1190   -1.2630    0.6214 C   0  0  0  0  0  0  0  0  0  0  0  0
    1.7360   -1.1798    1.8715 N   0  3  0  0  0  0  0  0  0  0  0  0
    2.0225   -0.2942    2.2929 H   0  0  0  0  0  0  0  0  0  0  0  0
    1.7097   -2.3467    2.4686 C   0  0  0  0  0  0  0  0  0  0  0  0
    2.0553   -2.5643    3.4805 H   0  0  0  0  0  0  0  0  0  0  0  0
    1.1301   -3.2516    1.5840 N   0  0  0  0  0  0  0  0  0  0  0  0
    0.9448   -4.2399    1.7777 H   0  0  0  0  0  0  0  0  0  0  0  0
    0.7687   -2.5765    0.4253 C   0  0  0  0  0  0  0  0  0  0  0  0
    0.2812   -2.9916   -0.4562 H   0  0  0  0  0  0  0  0  0  0  0  0
   -0.0711    1.9235   -1.2023 C   0  0  0  0  0  0  0  0  0  0  0  0
   -0.9070    1.8828   -2.0963 O   0  0  0  0  0  0  0  0  0  0  0  0
    0.9801    2.8188   -1.3019 N   0  0  0  0  0  0  0  0  0  0  0  0
    1.6091    2.9120   -0.5097 H   0  0  0  0  0  0  0  0  0  0  0  0
    1.0856    3.7927   -2.3868 C   0  0  0  0  0  0  0  0  0  0  0  0
    0.2158    4.4589   -2.3927 H   0  0  0  0  0  0  0  0  0  0  0  0
    1.9864    4.4031   -2.2665 H   0  0  0  0  0  0  0  0  0  0  0  0
    1.1426    3.2847   -3.3560 H   0  0  0  0  0  0  0  0  0  0  0  0
  1  2  1  0  0  0  0
  2  3  1  0  0  0  0
  2  4  1  0  0  0  0
  2  5  1  0  0  0  0
  5  6  2  0  0  0  0
  5  7  1  0  0  0  0
  7  8  1  0  0  0  0
  7  9  1  0  0  0  0
  9 10  1  0  0  0  0
  9 11  1  0  0  0  0
  9 23  1  0  0  0  0
 11 12  1  0  0  0  0
 11 13  1  0  0  0  0
 11 14  1  0  0  0  0
 14 15  1  0  0  0  0
 14 21  2  0  0  0  0
 15 16  1  0  0  0  0
 15 17  2  0  0  0  0
 17 18  1  0  0  0  0
 17 19  1  0  0  0  0
 19 20  1  0  0  0  0
 19 21  1  0  0  0  0
 21 22  1  0  0  0  0
 23 24  2  0  0  0  0
 23 25  1  0  0  0  0
 25 26  1  0  0  0  0
 25 27  1  0  0  0  0
 27 28  1  0  0  0  0
 27 29  1  0  0  0  0
 27 30  1  0  0  0  0
M  CHG  1  15   1
M  END
$$$$

  -OEChem-01062216083D

 30 30  0     1  0  0  0  0  0999 V2000
   -3.6013   -1.8793    1.4863 H   0  0  0  0  0  0  0  0  0  0  0  0
   -3.3940   -1.1155    0.7317 C   0  0  0  0  0  0  0  0  0  0  0  0
   -4.0393   -0.2535    0.9190 H   0  0  0  0  0  0  0  0  0  0  0  0
   -3.6237   -1.5231   -0.2556 H   0  0  0  0  0  0  0  0  0  0  0  0
   -1.9386   -0.6951    0.7969 C   0  0  0  0  0  0  0  0  0  0  0  0
   -1.2089   -1.1531    1.6641 O   0  0  0  0  0  0  0  0  0  0  0  0
   -1.4621    0.2575   -0.0814 N   0  0  0  0  0  0  0  0  0  0  0  0
   -2.1502    0.7084   -0.6907 H   0  0  0  0  0  0  0  0  0  0  0  0
   -0.1003    0.8259   -0.1234 C   0  0  1  0  0  0  0  0  0  0  0  0
    0.2248    1.0932    0.8874 H   0  0  0  0  0  0  0  0  0  0  0  0
    0.9141   -0.1400   -0.7947 C   0  0  0  0  0  0  0  0  0  0  0  0
    0.5549   -0.3610   -1.8065 H   0  0  0  0  0  0  0  0  0  0  0  0
    1.8858    0.3522   -0.9022 H   0  0  0  0  0  0  0  0  0  0  0  0
    1.1274   -1.4382   -0.0561 C   0  0  0  0  0  0  0  0  0  0  0  0
    1.8552   -1.6307    1.1205 N   0  3  0  0  0  0  0  0  0  0  0  0
    2.2119   -0.8582    1.6864 H   0  0  0  0  0  0  0  0  0  0  0  0
    1.8148   -2.8919    1.4763 C   0  0  0  0  0  0  0  0  0  0  0  0
    2.2293   -3.3204    2.3901 H   0  0  0  0  0  0  0  0  0  0  0  0
    1.1120   -3.5786    0.4902 N   0  0  0  0  0  0  0  0  0  0  0  0
    0.8920   -4.5787    0.5014 H   0  0  0  0  0  0  0  0  0  0  0  0
    0.6848   -2.6705   -0.4701 C   0  0  0  0  0  0  0  0  0  0  0  0
    0.0953   -2.8802   -1.3621 H   0  0  0  0  0  0  0  0  0  0  0  0
   -0.1241    2.1099   -0.9926 C   0  0  0  0  0  0  0  0  0  0  0  0
   -1.1550    2.4207   -1.5764 O   0  0  0  0  0  0  0  0  0  0  0  0
    1.0173    2.8637   -1.2110 N   0  0  0  0  0  0  0  0  0  0  0  0
    1.8421    2.6609   -0.6543 H   0  0  0  0  0  0  0  0  0  0  0  0
    1.0172    4.0755   -2.0288 C   0  0  0  0  0  0  0  0  0  0  0  0
    0.3358    4.8235   -1.6083 H   0  0  0  0  0  0  0  0  0  0  0  0
    2.0216    4.5088   -2.0708 H   0  0  0  0  0  0  0  0  0  0  0  0
    0.6986    3.8495   -3.0524 H   0  0  0  0  0  0  0  0  0  0  0  0
  1  2  1  0  0  0  0
  2  3  1  0  0  0  0
  2  4  1  0  0  0  0
  2  5  1  0  0  0  0
  5  6  2  0  0  0  0
  5  7  1  0  0  0  0
  7  8  1  0  0  0  0
  7  9  1  0  0  0  0
  9 10  1  0  0  0  0
  9 11  1  0  0  0  0
  9 23  1  0  0  0  0
 11 12  1  0  0  0  0
 11 13  1  0  0  0  0
 11 14  1  0  0  0  0
 14 15  1  0  0  0  0
 14 21  2  0  0  0  0
 15 16  1  0  0  0  0
 15 17  2  0  0  0  0
 17 18  1  0  0  0  0
 17 19  1  0  0  0  0
 19 20  1  0  0  0  0
 19 21  1  0  0  0  0
 21 22  1  0  0  0  0
 23 24  2  0  0  0  0
 23 25  1  0  0  0  0
 25 26  1  0  0  0  0
 25 27  1  0  0  0  0
 27 28  1  0  0  0  0
 27 29  1  0  0  0  0
 27 30  1  0  0  0  0
M  CHG  1  15   1
M  END
$$$$

  -OEChem-01062216083D

 30 30  0     1  0  0  0  0  0999 V2000
   -3.6180   -1.8524    1.4769 H   0  0  0  0  0  0  0  0  0  0  0  0
   -3.4034   -1.0869    0.7261 C   0  0  0  0  0  0  0  0  0  0  0  0
   -4.0236   -0.2107    0.9320 H   0  0  0  0  0  0  0  0  0  0  0  0
   -3.6595   -1.4792   -0.2610 H   0  0  0  0  0  0  0  0  0  0  0  0
   -1.9370   -0.7034    0.7711 C   0  0  0  0  0  0  0  0  0  0  0  0
   -1.2087   -1.1828    1.6278 O   0  0  0  0  0  0  0  0  0  0  0  0
   -1.4560    0.2510   -0.1035 N   0  0  0  0  0  0  0  0  0  0  0  0
   -2.1551    0.7476   -0.6630 H   0  0  0  0  0  0  0  0  0  0  0  0
   -0.0916    0.8153   -0.1465 C   0  0  1  0  0  0  0  0  0  0  0  0
    0.2321    1.0874    0.8632 H   0  0  0  0  0  0  0  0  0  0  0  0
    0.9244   -0.1623   -0.8036 C   0  0  0  0  0  0  0  0  0  0  0  0
    0.5705   -0.3913   -1.8153 H   0  0  0  0  0  0  0  0  0  0  0  0
    1.9000    0.3218   -0.9062 H   0  0  0  0  0  0  0  0  0  0  0  0
    1.1347   -1.4542   -0.0534 C   0  0  0  0  0  0  0  0  0  0  0  0
    1.8600   -1.6328    1.1268 N   0  3  0  0  0  0  0  0  0  0  0  0
    2.2093   -0.8532    1.6878 H   0  0  0  0  0  0  0  0  0  0  0  0
    1.8197   -2.8899    1.4962 C   0  0  0  0  0  0  0  0  0  0  0  0
    2.2295   -3.3072    2.4174 H   0  0  0  0  0  0  0  0  0  0  0  0
    1.1238   -3.5888    0.5138 N   0  0  0  0  0  0  0  0  0  0  0  0
    0.9048   -4.5889    0.5358 H   0  0  0  0  0  0  0  0  0  0  0  0
    0.6984   -2.6921   -0.4579 C   0  0  0  0  0  0  0  0  0  0  0  0
    0.1127   -2.9130   -1.3497 H   0  0  0  0  0  0  0  0  0  0  0  0
   -0.1262    2.1044   -1.0145 C   0  0  0  0  0  0  0  0  0  0  0  0
   -1.2093    2.5564   -1.3646 O   0  0  0  0  0  0  0  0  0  0  0  0
    1.0222    2.7077   -1.5030 N   0  0  0  0  0  0  0  0  0  0  0  0
    1.9206    2.3887   -1.1550 H   0  0  0  0  0  0  0  0  0  0  0  0
    0.9923    3.9089   -2.3363 C   0  0  0  0  0  0  0  0  0  0  0  0
    0.4976    4.7319   -1.8085 H   0  0  0  0  0  0  0  0  0  0  0  0
    2.0093    4.2248   -2.5891 H   0  0  0  0  0  0  0  0  0  0  0  0
    0.4511    3.7168   -3.2693 H   0  0  0  0  0  0  0  0  0  0  0  0
  1  2  1  0  0  0  0
  2  3  1  0  0  0  0
  2  4  1  0  0  0  0
  2  5  1  0  0  0  0
  5  6  2  0  0  0  0
  5  7  1  0  0  0  0
  7  8  1  0  0  0  0
  7  9  1  0  0  0  0
  9 10  1  0  0  0  0
  9 11  1  0  0  0  0
  9 23  1  0  0  0  0
 11 12  1  0  0  0  0
 11 13  1  0  0  0  0
 11 14  1  0  0  0  0
 14 15  1  0  0  0  0
 14 21  2  0  0  0  0
 15 16  1  0  0  0  0
 15 17  2  0  0  0  0
 17 18  1  0  0  0  0
 17 19  1  0  0  0  0
 19 20  1  0  0  0  0
 19 21  1  0  0  0  0
 21 22  1  0  0  0  0
 23 24  2  0  0  0  0
 23 25  1  0  0  0  0
 25 26  1  0  0  0  0
 25 27  1  0  0  0  0
 27 28  1  0  0  0  0
 27 29  1  0  0  0  0
 27 30  1  0  0  0  0
M  CHG  1  15   1
M  END
$$$$

  -OEChem-01062216083D

 30 30  0     1  0  0  0  0  0999 V2000
   -3.6369   -1.8340    1.4558 H   0  0  0  0  0  0  0  0  0  0  0  0
   -3.4167   -1.0616    0.7135 C   0  0  0  0  0  0  0  0  0  0  0  0
   -4.0143   -0.1754    0.9425 H   0  0  0  0  0  0  0  0  0  0  0  0
   -3.6956   -1.4328   -0.2755 H   0  0  0  0  0  0  0  0  0  0  0  0
   -1.9417   -0.7112    0.7411 C   0  0  0  0  0  0  0  0  0  0  0  0
   -1.2149   -1.2171    1.5828 O   0  0  0  0  0  0  0  0  0  0  0  0
   -1.4548    0.2451   -0.1286 N   0  0  0  0  0  0  0  0  0  0  0  0
   -2.1610    0.7819   -0.6389 H   0  0  0  0  0  0  0  0  0  0  0  0
   -0.0851    0.7984   -0.1765 C   0  0  1  0  0  0  0  0  0  0  0  0
    0.2378    1.0749    0.8327 H   0  0  0  0  0  0  0  0  0  0  0  0
    0.9373   -0.1855   -0.8158 C   0  0  0  0  0  0  0  0  0  0  0  0
    0.5929   -0.4260   -1.8281 H   0  0  0  0  0  0  0  0  0  0  0  0
    1.9133    0.2993   -0.9096 H   0  0  0  0  0  0  0  0  0  0  0  0
    1.1474   -1.4685   -0.0511 C   0  0  0  0  0  0  0  0  0  0  0  0
    1.8680   -1.6279    1.1347 N   0  3  0  0  0  0  0  0  0  0  0  0
    2.2138   -0.8389    1.6850 H   0  0  0  0  0  0  0  0  0  0  0  0
    1.8299   -2.8795    1.5226 C   0  0  0  0  0  0  0  0  0  0  0  0
    2.2367   -3.2818    2.4518 H   0  0  0  0  0  0  0  0  0  0  0  0
    1.1392   -3.5944    0.5479 N   0  0  0  0  0  0  0  0  0  0  0  0
    0.9182   -4.5936    0.5861 H   0  0  0  0  0  0  0  0  0  0  0  0
    0.7159   -2.7133   -0.4390 C   0  0  0  0  0  0  0  0  0  0  0  0
    0.1332   -2.9489   -1.3290 H   0  0  0  0  0  0  0  0  0  0  0  0
   -0.1299    2.0929   -1.0383 C   0  0  0  0  0  0  0  0  0  0  0  0
   -1.1935    2.6910   -1.1365 O   0  0  0  0  0  0  0  0  0  0  0  0
    0.9412    2.5485   -1.7926 N   0  0  0  0  0  0  0  0  0  0  0  0
    1.8406    2.0914   -1.6853 H   0  0  0  0  0  0  0  0  0  0  0  0
    0.8741    3.7514   -2.6213 C   0  0  0  0  0  0  0  0  0  0  0  0
    0.6603    4.6317   -2.0052 H   0  0  0  0  0  0  0  0  0  0  0  0
    1.8260    3.9145   -3.1364 H   0  0  0  0  0  0  0  0  0  0  0  0
    0.0877    3.6553   -3.3781 H   0  0  0  0  0  0  0  0  0  0  0  0
  1  2  1  0  0  0  0
  2  3  1  0  0  0  0
  2  4  1  0  0  0  0
  2  5  1  0  0  0  0
  5  6  2  0  0  0  0
  5  7  1  0  0  0  0
  7  8  1  0  0  0  0
  7  9  1  0  0  0  0
  9 10  1  0  0  0  0
  9 11  1  0  0  0  0
  9 23  1  0  0  0  0
 11 12  1  0  0  0  0
 11 13  1  0  0  0  0
 11 14  1  0  0  0  0
 14 15  1  0  0  0  0
 14 21  2  0  0  0  0
 15 16  1  0  0  0  0
 15 17  2  0  0  0  0
 17 18  1  0  0  0  0
 17 19  1  0  0  0  0
 19 20  1  0  0  0  0
 19 21  1  0  0  0  0
 21 22  1  0  0  0  0
 23 24  2  0  0  0  0
 23 25  1  0  0  0  0
 25 26  1  0  0  0  0
 25 27  1  0  0  0  0
 27 28  1  0  0  0  0
 27 29  1  0  0  0  0
 27 30  1  0  0  0  0
M  CHG  1  15   1
M  END
$$$$

  -OEChem-01062216083D

 30 30  0     1  0  0  0  0  0999 V2000
   -3.6507   -1.8220    1.4464 H   0  0  0  0  0  0  0  0  0  0  0  0
   -3.4296   -1.0447    0.7095 C   0  0  0  0  0  0  0  0  0  0  0  0
   -4.0098   -0.1520    0.9574 H   0  0  0  0  0  0  0  0  0  0  0  0
   -3.7297   -1.4007   -0.2789 H   0  0  0  0  0  0  0  0  0  0  0  0
   -1.9490   -0.7172    0.7191 C   0  0  0  0  0  0  0  0  0  0  0  0
   -1.2199   -1.2432    1.5460 O   0  0  0  0  0  0  0  0  0  0  0  0
   -1.4620    0.2421   -0.1478 N   0  0  0  0  0  0  0  0  0  0  0  0
   -2.1732    0.8033   -0.6221 H   0  0  0  0  0  0  0  0  0  0  0  0
   -0.0874    0.7832   -0.2040 C   0  0  1  0  0  0  0  0  0  0  0  0
    0.2357    1.0616    0.8047 H   0  0  0  0  0  0  0  0  0  0  0  0
    0.9440   -0.1991   -0.8296 C   0  0  0  0  0  0  0  0  0  0  0  0
    0.6063   -0.4537   -1.8406 H   0  0  0  0  0  0  0  0  0  0  0  0
    1.9156    0.2965   -0.9202 H   0  0  0  0  0  0  0  0  0  0  0  0
    1.1600   -1.4740   -0.0542 C   0  0  0  0  0  0  0  0  0  0  0  0
    1.8779   -1.6153    1.1356 N   0  3  0  0  0  0  0  0  0  0  0  0
    2.2232   -0.8183    1.6748 H   0  0  0  0  0  0  0  0  0  0  0  0
    1.8434   -2.8620    1.5391 C   0  0  0  0  0  0  0  0  0  0  0  0
    2.2503   -3.2510    2.4740 H   0  0  0  0  0  0  0  0  0  0  0  0
    1.1578   -3.5919    0.5718 N   0  0  0  0  0  0  0  0  0  0  0  0
    0.9357   -4.5902    0.6253 H   0  0  0  0  0  0  0  0  0  0  0  0
    0.7345   -2.7251   -0.4280 C   0  0  0  0  0  0  0  0  0  0  0  0
    0.1521   -2.9737   -1.3145 H   0  0  0  0  0  0  0  0  0  0  0  0
   -0.1366    2.0825   -1.0547 C   0  0  0  0  0  0  0  0  0  0  0  0
   -1.1020    2.8199   -0.9151 O   0  0  0  0  0  0  0  0  0  0  0  0
    0.7835    2.3976   -2.0438 N   0  0  0  0  0  0  0  0  0  0  0  0
    1.5773    1.7822   -2.1865 H   0  0  0  0  0  0  0  0  0  0  0  0
    0.6841    3.6011   -2.8680 C   0  0  0  0  0  0  0  0  0  0  0  0
    0.7000    4.4995   -2.2409 H   0  0  0  0  0  0  0  0  0  0  0  0
    1.5243    3.6558   -3.5674 H   0  0  0  0  0  0  0  0  0  0  0  0
   -0.2457    3.5956   -3.4472 H   0  0  0  0  0  0  0  0  0  0  0  0
  1  2  1  0  0  0  0
  2  3  1  0  0  0  0
  2  4  1  0  0  0  0
  2  5  1  0  0  0  0
  5  6  2  0  0  0  0
  5  7  1  0  0  0  0
  7  8  1  0  0  0  0
  7  9  1  0  0  0  0
  9 10  1  0  0  0  0
  9 11  1  0  0  0  0
  9 23  1  0  0  0  0
 11 12  1  0  0  0  0
 11 13  1  0  0  0  0
 11 14  1  0  0  0  0
 14 15  1  0  0  0  0
 14 21  2  0  0  0  0
 15 16  1  0  0  0  0
 15 17  2  0  0  0  0
 17 18  1  0  0  0  0
 17 19  1  0  0  0  0
 19 20  1  0  0  0  0
 19 21  1  0  0  0  0
 21 22  1  0  0  0  0
 23 24  2  0  0  0  0
 23 25  1  0  0  0  0
 25 26  1  0  0  0  0
 25 27  1  0  0  0  0
 27 28  1  0  0  0  0
 27 29  1  0  0  0  0
 27 30  1  0  0  0  0
M  CHG  1  15   1
M  END
$$$$

  -OEChem-01062216083D

 30 30  0     1  0  0  0  0  0999 V2000
   -3.6681   -1.8092    1.4552 H   0  0  0  0  0  0  0  0  0  0  0  0
   -3.4483   -1.0324    0.7172 C   0  0  0  0  0  0  0  0  0  0  0  0
   -4.0122   -0.1329    0.9778 H   0  0  0  0  0  0  0  0  0  0  0  0
   -3.7692   -1.3810   -0.2674 H   0  0  0  0  0  0  0  0  0  0  0  0
   -1.9632   -0.7245    0.7047 C   0  0  0  0  0  0  0  0  0  0  0  0
   -1.2289   -1.2646    1.5173 O   0  0  0  0  0  0  0  0  0  0  0  0
   -1.4802    0.2374   -0.1625 N   0  0  0  0  0  0  0  0  0  0  0  0
   -2.1963    0.8028   -0.6218 H   0  0  0  0  0  0  0  0  0  0  0  0
   -0.1033    0.7713   -0.2276 C   0  0  1  0  0  0  0  0  0  0  0  0
    0.2197    1.0508    0.7811 H   0  0  0  0  0  0  0  0  0  0  0  0
    0.9375   -0.2054   -0.8449 C   0  0  0  0  0  0  0  0  0  0  0  0
    0.6004   -0.4764   -1.8514 H   0  0  0  0  0  0  0  0  0  0  0  0
    1.9020    0.3044   -0.9436 H   0  0  0  0  0  0  0  0  0  0  0  0
    1.1635   -1.4731   -0.0611 C   0  0  0  0  0  0  0  0  0  0  0  0
    1.8813   -1.5952    1.1308 N   0  3  0  0  0  0  0  0  0  0  0  0
    2.2152   -0.7892    1.6639 H   0  0  0  0  0  0  0  0  0  0  0  0
    1.8640   -2.8390    1.5436 C   0  0  0  0  0  0  0  0  0  0  0  0
    2.2757   -3.2150    2.4815 H   0  0  0  0  0  0  0  0  0  0  0  0
    1.1894   -3.5856    0.5816 N   0  0  0  0  0  0  0  0  0  0  0  0
    0.9840   -4.5870    0.6413 H   0  0  0  0  0  0  0  0  0  0  0  0
    0.7549   -2.7329   -0.4256 C   0  0  0  0  0  0  0  0  0  0  0  0
    0.1777   -2.9976   -1.3108 H   0  0  0  0  0  0  0  0  0  0  0  0
   -0.1480    2.0731   -1.0686 C   0  0  0  0  0  0  0  0  0  0  0  0
   -0.9431    2.9360   -0.7298 O   0  0  0  0  0  0  0  0  0  0  0  0
    0.5631    2.2621   -2.2442 N   0  0  0  0  0  0  0  0  0  0  0  0
    1.1717    1.5188   -2.5707 H   0  0  0  0  0  0  0  0  0  0  0  0
    0.4426    3.4681   -3.0617 C   0  0  0  0  0  0  0  0  0  0  0  0
    0.7095    4.3568   -2.4791 H   0  0  0  0  0  0  0  0  0  0  0  0
    1.1116    3.4117   -3.9263 H   0  0  0  0  0  0  0  0  0  0  0  0
   -0.5836    3.5851   -3.4272 H   0  0  0  0  0  0  0  0  0  0  0  0
  1  2  1  0  0  0  0
  2  3  1  0  0  0  0
  2  4  1  0  0  0  0
  2  5  1  0  0  0  0
  5  6  2  0  0  0  0
  5  7  1  0  0  0  0
  7  8  1  0  0  0  0
  7  9  1  0  0  0  0
  9 10  1  0  0  0  0
  9 11  1  0  0  0  0
  9 23  1  0  0  0  0
 11 12  1  0  0  0  0
 11 13  1  0  0  0  0
 11 14  1  0  0  0  0
 14 15  1  0  0  0  0
 14 21  2  0  0  0  0
 15 16  1  0  0  0  0
 15 17  2  0  0  0  0
 17 18  1  0  0  0  0
 17 19  1  0  0  0  0
 19 20  1  0  0  0  0
 19 21  1  0  0  0  0
 21 22  1  0  0  0  0
 23 24  2  0  0  0  0
 23 25  1  0  0  0  0
 25 26  1  0  0  0  0
 25 27  1  0  0  0  0
 27 28  1  0  0  0  0
 27 29  1  0  0  0  0
 27 30  1  0  0  0  0
M  CHG  1  15   1
M  END
$$$$

  -OEChem-01062216083D

 30 30  0     1  0  0  0  0  0999 V2000
   -3.6662   -1.8326    1.4725 H   0  0  0  0  0  0  0  0  0  0  0  0
   -3.4608   -1.0525    0.7339 C   0  0  0  0  0  0  0  0  0  0  0  0
   -4.0323   -0.1597    1.0008 H   0  0  0  0  0  0  0  0  0  0  0  0
   -3.7861   -1.4040   -0.2481 H   0  0  0  0  0  0  0  0  0  0  0  0
   -1.9792   -0.7288    0.7089 C   0  0  0  0  0  0  0  0  0  0  0  0
   -1.2333   -1.2647    1.5133 O   0  0  0  0  0  0  0  0  0  0  0  0
   -1.5106    0.2347   -0.1649 N   0  0  0  0  0  0  0  0  0  0  0  0
   -2.2346    0.7819   -0.6315 H   0  0  0  0  0  0  0  0  0  0  0  0
   -0.1331    0.7651   -0.2503 C   0  0  1  0  0  0  0  0  0  0  0  0
    0.1976    1.0422    0.7570 H   0  0  0  0  0  0  0  0  0  0  0  0
    0.9109   -0.2075   -0.8678 C   0  0  0  0  0  0  0  0  0  0  0  0
    0.5688   -0.4951   -1.8674 H   0  0  0  0  0  0  0  0  0  0  0  0
    1.8673    0.3144   -0.9835 H   0  0  0  0  0  0  0  0  0  0  0  0
    1.1534   -1.4670   -0.0758 C   0  0  0  0  0  0  0  0  0  0  0  0
    1.8824   -1.5671    1.1111 N   0  3  0  0  0  0  0  0  0  0  0  0
    2.2166   -0.7507    1.6285 H   0  0  0  0  0  0  0  0  0  0  0  0
    1.8849   -2.8064    1.5377 C   0  0  0  0  0  0  0  0  0  0  0  0
    2.3123   -3.1664    2.4748 H   0  0  0  0  0  0  0  0  0  0  0  0
    1.2103   -3.5719    0.5904 N   0  0  0  0  0  0  0  0  0  0  0  0
    1.0182   -4.5752    0.6627 H   0  0  0  0  0  0  0  0  0  0  0  0
    0.7575   -2.7357   -0.4226 C   0  0  0  0  0  0  0  0  0  0  0  0
    0.1782   -3.0177   -1.3005 H   0  0  0  0  0  0  0  0  0  0  0  0
   -0.1664    2.0690   -1.0830 C   0  0  0  0  0  0  0  0  0  0  0  0
   -0.7040    3.0440   -0.5843 O   0  0  0  0  0  0  0  0  0  0  0  0
    0.2822    2.1559   -2.3919 N   0  0  0  0  0  0  0  0  0  0  0  0
    0.6457    1.3195   -2.8368 H   0  0  0  0  0  0  0  0  0  0  0  0
    0.1747    3.3760   -3.1901 C   0  0  0  0  0  0  0  0  0  0  0  0
    0.6937    4.2057   -2.6972 H   0  0  0  0  0  0  0  0  0  0  0  0
    0.6256    3.2275   -4.1764 H   0  0  0  0  0  0  0  0  0  0  0  0
   -0.8757    3.6546   -3.3293 H   0  0  0  0  0  0  0  0  0  0  0  0
  1  2  1  0  0  0  0
  2  3  1  0  0  0  0
  2  4  1  0  0  0  0
  2  5  1  0  0  0  0
  5  6  2  0  0  0  0
  5  7  1  0  0  0  0
  7  8  1  0  0  0  0
  7  9  1  0  0  0  0
  9 10  1  0  0  0  0
  9 11  1  0  0  0  0
  9 23  1  0  0  0  0
 11 12  1  0  0  0  0
 11 13  1  0  0  0  0
 11 14  1  0  0  0  0
 14 15  1  0  0  0  0
 14 21  2  0  0  0  0
 15 16  1  0  0  0  0
 15 17  2  0  0  0  0
 17 18  1  0  0  0  0
 17 19  1  0  0  0  0
 19 20  1  0  0  0  0
 19 21  1  0  0  0  0
 21 22  1  0  0  0  0
 23 24  2  0  0  0  0
 23 25  1  0  0  0  0
 25 26  1  0  0  0  0
 25 27  1  0  0  0  0
 27 28  1  0  0  0  0
 27 29  1  0  0  0  0
 27 30  1  0  0  0  0
M  CHG  1  15   1
M  END
$$$$

  -OEChem-01062216083D

 30 30  0     1  0  0  0  0  0999 V2000
   -3.6604   -1.8702    1.4955 H   0  0  0  0  0  0  0  0  0  0  0  0
   -3.4720   -1.0877    0.7551 C   0  0  0  0  0  0  0  0  0  0  0  0
   -4.0571   -0.2045    1.0238 H   0  0  0  0  0  0  0  0  0  0  0  0
   -3.7959   -1.4457   -0.2250 H   0  0  0  0  0  0  0  0  0  0  0  0
   -1.9963   -0.7405    0.7229 C   0  0  0  0  0  0  0  0  0  0  0  0
   -1.2371   -1.2673    1.5204 O   0  0  0  0  0  0  0  0  0  0  0  0
   -1.5469    0.2263   -0.1575 N   0  0  0  0  0  0  0  0  0  0  0  0
   -2.2803    0.7471   -0.6378 H   0  0  0  0  0  0  0  0  0  0  0  0
   -0.1724    0.7616   -0.2613 C   0  0  1  0  0  0  0  0  0  0  0  0
    0.1656    1.0341    0.7452 H   0  0  0  0  0  0  0  0  0  0  0  0
    0.8775   -0.1975   -0.8879 C   0  0  0  0  0  0  0  0  0  0  0  0
    0.5333   -0.4909   -1.8844 H   0  0  0  0  0  0  0  0  0  0  0  0
    1.8249    0.3390   -1.0143 H   0  0  0  0  0  0  0  0  0  0  0  0
    1.1406   -1.4521   -0.0949 C   0  0  0  0  0  0  0  0  0  0  0  0
    1.8817   -1.5342    1.0858 N   0  3  0  0  0  0  0  0  0  0  0  0
    2.2167   -0.7099    1.5902 H   0  0  0  0  0  0  0  0  0  0  0  0
    1.9038   -2.7699    1.5219 C   0  0  0  0  0  0  0  0  0  0  0  0
    2.3469   -3.1179    2.4564 H   0  0  0  0  0  0  0  0  0  0  0  0
    1.2275   -3.5502    0.5879 N   0  0  0  0  0  0  0  0  0  0  0  0
    1.0488   -4.5551    0.6699 H   0  0  0  0  0  0  0  0  0  0  0  0
    0.7552   -2.7277   -0.4277 C   0  0  0  0  0  0  0  0  0  0  0  0
    0.1708   -3.0240   -1.2976 H   0  0  0  0  0  0  0  0  0  0  0  0
   -0.1981    2.0663   -1.0875 C   0  0  0  0  0  0  0  0  0  0  0  0
   -0.3893    3.1157   -0.4969 O   0  0  0  0  0  0  0  0  0  0  0  0
   -0.0463    2.0877   -2.4646 N   0  0  0  0  0  0  0  0  0  0  0  0
    0.0101    1.2021   -2.9574 H   0  0  0  0  0  0  0  0  0  0  0  0
   -0.1087    3.3185   -3.2502 C   0  0  0  0  0  0  0  0  0  0  0  0
    0.6446    4.0345   -2.9035 H   0  0  0  0  0  0  0  0  0  0  0  0
    0.0811    3.1075   -4.3074 H   0  0  0  0  0  0  0  0  0  0  0  0
   -1.0975    3.7818   -3.1625 H   0  0  0  0  0  0  0  0  0  0  0  0
  1  2  1  0  0  0  0
  2  3  1  0  0  0  0
  2  4  1  0  0  0  0
  2  5  1  0  0  0  0
  5  6  2  0  0  0  0
  5  7  1  0  0  0  0
  7  8  1  0  0  0  0
  7  9  1  0  0  0  0
  9 10  1  0  0  0  0
  9 11  1  0  0  0  0
  9 23  1  0  0  0  0
 11 12  1  0  0  0  0
 11 13  1  0  0  0  0
 11 14  1  0  0  0  0
 14 15  1  0  0  0  0
 14 21  2  0  0  0  0
 15 16  1  0  0  0  0
 15 17  2  0  0  0  0
 17 18  1  0  0  0  0
 17 19  1  0  0  0  0
 19 20  1  0  0  0  0
 19 21  1  0  0  0  0
 21 22  1  0  0  0  0
 23 24  2  0  0  0  0
 23 25  1  0  0  0  0
 25 26  1  0  0  0  0
 25 27  1  0  0  0  0
 27 28  1  0  0  0  0
 27 29  1  0  0  0  0
 27 30  1  0  0  0  0
M  CHG  1  15   1
M  END
$$$$

  -OEChem-01062216083D

 30 30  0     1  0  0  0  0  0999 V2000
   -3.6545   -1.9145    1.5279 H   0  0  0  0  0  0  0  0  0  0  0  0
   -3.4852   -1.1297    0.7851 C   0  0  0  0  0  0  0  0  0  0  0  0
   -4.0880   -0.2586    1.0547 H   0  0  0  0  0  0  0  0  0  0  0  0
   -3.8061   -1.4966   -0.1927 H   0  0  0  0  0  0  0  0  0  0  0  0
   -2.0164   -0.7528    0.7468 C   0  0  0  0  0  0  0  0  0  0  0  0
   -1.2423   -1.2656    1.5387 O   0  0  0  0  0  0  0  0  0  0  0  0
   -1.5873    0.2192   -0.1386 N   0  0  0  0  0  0  0  0  0  0  0  0
   -2.3295    0.7189   -0.6269 H   0  0  0  0  0  0  0  0  0  0  0  0
   -0.2173    0.7665   -0.2520 C   0  0  1  0  0  0  0  0  0  0  0  0
    0.1247    1.0333    0.7550 H   0  0  0  0  0  0  0  0  0  0  0  0
    0.8391   -0.1728   -0.8946 C   0  0  0  0  0  0  0  0  0  0  0  0
    0.4951   -0.4588   -1.8934 H   0  0  0  0  0  0  0  0  0  0  0  0
    1.7788    0.3771   -1.0217 H   0  0  0  0  0  0  0  0  0  0  0  0
    1.1223   -1.4294   -0.1121 C   0  0  0  0  0  0  0  0  0  0  0  0
    1.8732   -1.5050    1.0628 N   0  3  0  0  0  0  0  0  0  0  0  0
    2.2040   -0.6773    1.5648 H   0  0  0  0  0  0  0  0  0  0  0  0
    1.9181   -2.7418    1.4934 C   0  0  0  0  0  0  0  0  0  0  0  0
    2.3760   -3.0865    2.4218 H   0  0  0  0  0  0  0  0  0  0  0  0
    1.2450   -3.5281    0.5622 N   0  0  0  0  0  0  0  0  0  0  0  0
    1.0841   -4.5362    0.6406 H   0  0  0  0  0  0  0  0  0  0  0  0
    0.7523   -2.7090   -0.4467 C   0  0  0  0  0  0  0  0  0  0  0  0
    0.1670   -3.0105   -1.3141 H   0  0  0  0  0  0  0  0  0  0  0  0
   -0.2381    2.0713   -1.0735 C   0  0  0  0  0  0  0  0  0  0  0  0
   -0.0593    3.1283   -0.4928 O   0  0  0  0  0  0  0  0  0  0  0  0
   -0.3917    2.0686   -2.4499 N   0  0  0  0  0  0  0  0  0  0  0  0
   -0.5960    1.1863   -2.9093 H   0  0  0  0  0  0  0  0  0  0  0  0
   -0.3974    3.2916   -3.2500 C   0  0  0  0  0  0  0  0  0  0  0  0
    0.5424    3.8400   -3.1212 H   0  0  0  0  0  0  0  0  0  0  0  0
   -0.5118    3.0531   -4.3123 H   0  0  0  0  0  0  0  0  0  0  0  0
   -1.2258    3.9436   -2.9516 H   0  0  0  0  0  0  0  0  0  0  0  0
  1  2  1  0  0  0  0
  2  3  1  0  0  0  0
  2  4  1  0  0  0  0
  2  5  1  0  0  0  0
  5  6  2  0  0  0  0
  5  7  1  0  0  0  0
  7  8  1  0  0  0  0
  7  9  1  0  0  0  0
  9 10  1  0  0  0  0
  9 11  1  0  0  0  0
  9 23  1  0  0  0  0
 11 12  1  0  0  0  0
 11 13  1  0  0  0  0
 11 14  1  0  0  0  0
 14 15  1  0  0  0  0
 14 21  2  0  0  0  0
 15 16  1  0  0  0  0
 15 17  2  0  0  0  0
 17 18  1  0  0  0  0
 17 19  1  0  0  0  0
 19 20  1  0  0  0  0
 19 21  1  0  0  0  0
 21 22  1  0  0  0  0
 23 24  2  0  0  0  0
 23 25  1  0  0  0  0
 25 26  1  0  0  0  0
 25 27  1  0  0  0  0
 27 28  1  0  0  0  0
 27 29  1  0  0  0  0
 27 30  1  0  0  0  0
M  CHG  1  15   1
M  END
$$$$

  -OEChem-01062216083D

 30 30  0     1  0  0  0  0  0999 V2000
   -3.6497   -1.9471    1.5651 H   0  0  0  0  0  0  0  0  0  0  0  0
   -3.4949   -1.1608    0.8206 C   0  0  0  0  0  0  0  0  0  0  0  0
   -4.1043   -0.2957    1.0950 H   0  0  0  0  0  0  0  0  0  0  0  0
   -3.8195   -1.5317   -0.1546 H   0  0  0  0  0  0  0  0  0  0  0  0
   -2.0311   -0.7677    0.7705 C   0  0  0  0  0  0  0  0  0  0  0  0
   -1.2452   -1.2692    1.5581 O   0  0  0  0  0  0  0  0  0  0  0  0
   -1.6198    0.2103   -0.1170 N   0  0  0  0  0  0  0  0  0  0  0  0
   -2.3706    0.7034   -0.5985 H   0  0  0  0  0  0  0  0  0  0  0  0
   -0.2562    0.7751   -0.2263 C   0  0  1  0  0  0  0  0  0  0  0  0
    0.0843    1.0372    0.7826 H   0  0  0  0  0  0  0  0  0  0  0  0
    0.8074   -0.1414   -0.8867 C   0  0  0  0  0  0  0  0  0  0  0  0
    0.4650   -0.4103   -1.8911 H   0  0  0  0  0  0  0  0  0  0  0  0
    1.7415    0.4205   -1.0052 H   0  0  0  0  0  0  0  0  0  0  0  0
    1.1057   -1.4058   -0.1240 C   0  0  0  0  0  0  0  0  0  0  0  0
    1.8610   -1.4866    1.0472 N   0  3  0  0  0  0  0  0  0  0  0  0
    2.1838   -0.6608    1.5576 H   0  0  0  0  0  0  0  0  0  0  0  0
    1.9240   -2.7283    1.4608 C   0  0  0  0  0  0  0  0  0  0  0  0
    2.3899   -3.0794    2.3830 H   0  0  0  0  0  0  0  0  0  0  0  0
    1.2583   -3.5110    0.5209 N   0  0  0  0  0  0  0  0  0  0  0  0
    1.1151   -4.5228    0.5840 H   0  0  0  0  0  0  0  0  0  0  0  0
    0.7511   -2.6849   -0.4751 C   0  0  0  0  0  0  0  0  0  0  0  0
    0.1689   -2.9819   -1.3460 H   0  0  0  0  0  0  0  0  0  0  0  0
   -0.2763    2.0791   -1.0450 C   0  0  0  0  0  0  0  0  0  0  0  0
    0.2084    3.0844   -0.5540 O   0  0  0  0  0  0  0  0  0  0  0  0
   -0.7186    2.1009   -2.3566 N   0  0  0  0  0  0  0  0  0  0  0  0
   -1.0981    1.2456   -2.7514 H   0  0  0  0  0  0  0  0  0  0  0  0
   -0.6872    3.3042   -3.1850 C   0  0  0  0  0  0  0  0  0  0  0  0
    0.3400    3.6687   -3.2946 H   0  0  0  0  0  0  0  0  0  0  0  0
   -1.0851    3.0928   -4.1826 H   0  0  0  0  0  0  0  0  0  0  0  0
   -1.2930    4.0979   -2.7339 H   0  0  0  0  0  0  0  0  0  0  0  0
  1  2  1  0  0  0  0
  2  3  1  0  0  0  0
  2  4  1  0  0  0  0
  2  5  1  0  0  0  0
  5  6  2  0  0  0  0
  5  7  1  0  0  0  0
  7  8  1  0  0  0  0
  7  9  1  0  0  0  0
  9 10  1  0  0  0  0
  9 11  1  0  0  0  0
  9 23  1  0  0  0  0
 11 12  1  0  0  0  0
 11 13  1  0  0  0  0
 11 14  1  0  0  0  0
 14 15  1  0  0  0  0
 14 21  2  0  0  0  0
 15 16  1  0  0  0  0
 15 17  2  0  0  0  0
 17 18  1  0  0  0  0
 17 19  1  0  0  0  0
 19 20  1  0  0  0  0
 19 21  1  0  0  0  0
 21 22  1  0  0  0  0
 23 24  2  0  0  0  0
 23 25  1  0  0  0  0
 25 26  1  0  0  0  0
 25 27  1  0  0  0  0
 27 28  1  0  0  0  0
 27 29  1  0  0  0  0
 27 30  1  0  0  0  0
M  CHG  1  15   1
M  END
$$$$

  -OEChem-01062216083D

 30 30  0     1  0  0  0  0  0999 V2000
   -3.6399   -1.9831    1.5950 H   0  0  0  0  0  0  0  0  0  0  0  0
   -3.4989   -1.1937    0.8512 C   0  0  0  0  0  0  0  0  0  0  0  0
   -4.1187   -0.3378    1.1301 H   0  0  0  0  0  0  0  0  0  0  0  0
   -3.8236   -1.5676   -0.1227 H   0  0  0  0  0  0  0  0  0  0  0  0
   -2.0400   -0.7825    0.7950 C   0  0  0  0  0  0  0  0  0  0  0  0
   -1.2458   -1.2755    1.5793 O   0  0  0  0  0  0  0  0  0  0  0  0
   -1.6424    0.2010   -0.0934 N   0  0  0  0  0  0  0  0  0  0  0  0
   -2.4018    0.6958   -0.5582 H   0  0  0  0  0  0  0  0  0  0  0  0
   -0.2854    0.7862   -0.1946 C   0  0  1  0  0  0  0  0  0  0  0  0
    0.0539    1.0452    0.8154 H   0  0  0  0  0  0  0  0  0  0  0  0
    0.7817   -0.1137   -0.8711 C   0  0  0  0  0  0  0  0  0  0  0  0
    0.4378   -0.3673   -1.8793 H   0  0  0  0  0  0  0  0  0  0  0  0
    1.7132    0.4539   -0.9843 H   0  0  0  0  0  0  0  0  0  0  0  0
    1.0909   -1.3863   -0.1277 C   0  0  0  0  0  0  0  0  0  0  0  0
    1.8508   -1.4777    1.0393 N   0  3  0  0  0  0  0  0  0  0  0  0
    2.1718   -0.6564    1.5578 H   0  0  0  0  0  0  0  0  0  0  0  0
    1.9266   -2.7247    1.4341 C   0  0  0  0  0  0  0  0  0  0  0  0
    2.4016   -3.0854    2.3478 H   0  0  0  0  0  0  0  0  0  0  0  0
    1.2627   -3.4990    0.4860 N   0  0  0  0  0  0  0  0  0  0  0  0
    1.1314   -4.5133    0.5326 H   0  0  0  0  0  0  0  0  0  0  0  0
    0.7452   -2.6627   -0.4963 C   0  0  0  0  0  0  0  0  0  0  0  0
    0.1638   -2.9513   -1.3707 H   0  0  0  0  0  0  0  0  0  0  0  0
   -0.3007    2.0903   -1.0124 C   0  0  0  0  0  0  0  0  0  0  0  0
    0.4077    3.0140   -0.6481 O   0  0  0  0  0  0  0  0  0  0  0  0
   -0.9972    2.1854   -2.2052 N   0  0  0  0  0  0  0  0  0  0  0  0
   -1.4941    1.3647   -2.5381 H   0  0  0  0  0  0  0  0  0  0  0  0
   -0.9577    3.3745   -3.0538 C   0  0  0  0  0  0  0  0  0  0  0  0
    0.0599    3.5543   -3.4178 H   0  0  0  0  0  0  0  0  0  0  0  0
   -1.6163    3.2493   -3.9192 H   0  0  0  0  0  0  0  0  0  0  0  0
   -1.2898    4.2569   -2.4955 H   0  0  0  0  0  0  0  0  0  0  0  0
  1  2  1  0  0  0  0
  2  3  1  0  0  0  0
  2  4  1  0  0  0  0
  2  5  1  0  0  0  0
  5  6  2  0  0  0  0
  5  7  1  0  0  0  0
  7  8  1  0  0  0  0
  7  9  1  0  0  0  0
  9 10  1  0  0  0  0
  9 11  1  0  0  0  0
  9 23  1  0  0  0  0
 11 12  1  0  0  0  0
 11 13  1  0  0  0  0
 11 14  1  0  0  0  0
 14 15  1  0  0  0  0
 14 21  2  0  0  0  0
 15 16  1  0  0  0  0
 15 17  2  0  0  0  0
 17 18  1  0  0  0  0
 17 19  1  0  0  0  0
 19 20  1  0  0  0  0
 19 21  1  0  0  0  0
 21 22  1  0  0  0  0
 23 24  2  0  0  0  0
 23 25  1  0  0  0  0
 25 26  1  0  0  0  0
 25 27  1  0  0  0  0
 27 28  1  0  0  0  0
 27 29  1  0  0  0  0
 27 30  1  0  0  0  0
M  CHG  1  15   1
M  END
$$$$

  -OEChem-01062216083D

 30 30  0     1  0  0  0  0  0999 V2000
   -3.6284   -2.0106    1.6163 H   0  0  0  0  0  0  0  0  0  0  0  0
   -3.4949   -1.2204    0.8718 C   0  0  0  0  0  0  0  0  0  0  0  0
   -4.1225   -0.3701    1.1503 H   0  0  0  0  0  0  0  0  0  0  0  0
   -3.8162   -1.5979   -0.1019 H   0  0  0  0  0  0  0  0  0  0  0  0
   -2.0400   -0.7957    0.8137 C   0  0  0  0  0  0  0  0  0  0  0  0
   -1.2406   -1.2791    1.5985 O   0  0  0  0  0  0  0  0  0  0  0  0
   -1.6541    0.1916   -0.0757 N   0  0  0  0  0  0  0  0  0  0  0  0
   -2.4220    0.6896   -0.5209 H   0  0  0  0  0  0  0  0  0  0  0  0
   -0.3025    0.7924   -0.1718 C   0  0  1  0  0  0  0  0  0  0  0  0
    0.0360    1.0500    0.8384 H   0  0  0  0  0  0  0  0  0  0  0  0
    0.7645   -0.1034   -0.8574 C   0  0  0  0  0  0  0  0  0  0  0  0
    0.4159   -0.3497   -1.8659 H   0  0  0  0  0  0  0  0  0  0  0  0
    1.6957    0.4646   -0.9712 H   0  0  0  0  0  0  0  0  0  0  0  0
    1.0815   -1.3808   -0.1255 C   0  0  0  0  0  0  0  0  0  0  0  0
    1.8478   -1.4794    1.0368 N   0  3  0  0  0  0  0  0  0  0  0  0
    2.1719   -0.6612    1.5584 H   0  0  0  0  0  0  0  0  0  0  0  0
    1.9309   -2.7296    1.4201 C   0  0  0  0  0  0  0  0  0  0  0  0
    2.4134   -3.0967    2.3273 H   0  0  0  0  0  0  0  0  0  0  0  0
    1.2653   -3.4979    0.4681 N   0  0  0  0  0  0  0  0  0  0  0  0
    1.1402   -4.5134    0.5046 H   0  0  0  0  0  0  0  0  0  0  0  0
    0.7395   -2.6552   -0.5041 C   0  0  0  0  0  0  0  0  0  0  0  0
    0.1566   -2.9377   -1.3795 H   0  0  0  0  0  0  0  0  0  0  0  0
   -0.3121    2.0986   -0.9893 C   0  0  0  0  0  0  0  0  0  0  0  0
    0.5533    2.9287   -0.7629 O   0  0  0  0  0  0  0  0  0  0  0  0
   -1.2186    2.3123   -2.0141 N   0  0  0  0  0  0  0  0  0  0  0  0
   -1.8233    1.5437   -2.2855 H   0  0  0  0  0  0  0  0  0  0  0  0
   -1.1941    3.5086   -2.8530 C   0  0  0  0  0  0  0  0  0  0  0  0
   -0.2580    3.5632   -3.4191 H   0  0  0  0  0  0  0  0  0  0  0  0
   -2.0272    3.4947   -3.5628 H   0  0  0  0  0  0  0  0  0  0  0  0
   -1.2835    4.4111   -2.2384 H   0  0  0  0  0  0  0  0  0  0  0  0
  1  2  1  0  0  0  0
  2  3  1  0  0  0  0
  2  4  1  0  0  0  0
  2  5  1  0  0  0  0
  5  6  2  0  0  0  0
  5  7  1  0  0  0  0
  7  8  1  0  0  0  0
  7  9  1  0  0  0  0
  9 10  1  0  0  0  0
  9 11  1  0  0  0  0
  9 23  1  0  0  0  0
 11 12  1  0  0  0  0
 11 13  1  0  0  0  0
 11 14  1  0  0  0  0
 14 15  1  0  0  0  0
 14 21  2  0  0  0  0
 15 16  1  0  0  0  0
 15 17  2  0  0  0  0
 17 18  1  0  0  0  0
 17 19  1  0  0  0  0
 19 20  1  0  0  0  0
 19 21  1  0  0  0  0
 21 22  1  0  0  0  0
 23 24  2  0  0  0  0
 23 25  1  0  0  0  0
 25 26  1  0  0  0  0
 25 27  1  0  0  0  0
 27 28  1  0  0  0  0
 27 29  1  0  0  0  0
 27 30  1  0  0  0  0
M  CHG  1  15   1
M  END
$$$$

  -OEChem-01062216083D

 30 30  0     1  0  0  0  0  0999 V2000
   -3.5187   -2.1052    1.6269 H   0  0  0  0  0  0  0  0  0  0  0  0
   -3.4104   -1.3431    0.8498 C   0  0  0  0  0  0  0  0  0  0  0  0
   -4.1412   -0.5515    1.0342 H   0  0  0  0  0  0  0  0  0  0  0  0
   -3.6155   -1.7997   -0.1212 H   0  0  0  0  0  0  0  0  0  0  0  0
   -2.0071   -0.7684    0.8732 C   0  0  0  0  0  0  0  0  0  0  0  0
   -1.2155   -1.1368    1.7262 O   0  0  0  0  0  0  0  0  0  0  0  0
   -1.6536    0.2114   -0.0372 N   0  0  0  0  0  0  0  0  0  0  0  0
   -2.3770    0.4771   -0.6981 H   0  0  0  0  0  0  0  0  0  0  0  0
   -0.3047    0.8103   -0.1824 C   0  0  1  0  0  0  0  0  0  0  0  0
    0.0669    1.0716    0.8150 H   0  0  0  0  0  0  0  0  0  0  0  0
    0.7163   -0.1313   -0.8813 C   0  0  0  0  0  0  0  0  0  0  0  0
    0.3253   -0.3937   -1.8699 H   0  0  0  0  0  0  0  0  0  0  0  0
    1.6599    0.4025   -1.0446 H   0  0  0  0  0  0  0  0  0  0  0  0
    1.0287   -1.3944   -0.1223 C   0  0  0  0  0  0  0  0  0  0  0  0
    1.8342   -1.4756    1.0142 N   0  3  0  0  0  0  0  0  0  0  0  0
    2.1967   -0.6496    1.4970 H   0  0  0  0  0  0  0  0  0  0  0  0
    1.9126   -2.7165    1.4271 C   0  0  0  0  0  0  0  0  0  0  0  0
    2.4272   -3.0681    2.3229 H   0  0  0  0  0  0  0  0  0  0  0  0
    1.1974   -3.4976    0.5226 N   0  0  0  0  0  0  0  0  0  0  0  0
    1.0656   -4.5109    0.5861 H   0  0  0  0  0  0  0  0  0  0  0  0
    0.6509   -2.6719   -0.4531 C   0  0  0  0  0  0  0  0  0  0  0  0
    0.0374   -2.9680   -1.3029 H   0  0  0  0  0  0  0  0  0  0  0  0
   -0.2969    2.1189   -1.0058 C   0  0  0  0  0  0  0  0  0  0  0  0
    0.7271    2.7849   -1.0126 O   0  0  0  0  0  0  0  0  0  0  0  0
   -1.3608    2.5174   -1.7989 N   0  0  0  0  0  0  0  0  0  0  0  0
   -2.2311    2.0032   -1.7362 H   0  0  0  0  0  0  0  0  0  0  0  0
   -1.3459    3.7566   -2.5739 C   0  0  0  0  0  0  0  0  0  0  0  0
   -0.5035    3.7632   -3.2744 H   0  0  0  0  0  0  0  0  0  0  0  0
   -2.2707    3.8582   -3.1506 H   0  0  0  0  0  0  0  0  0  0  0  0
   -1.2555    4.6239   -1.9107 H   0  0  0  0  0  0  0  0  0  0  0  0
  1  2  1  0  0  0  0
  2  3  1  0  0  0  0
  2  4  1  0  0  0  0
  2  5  1  0  0  0  0
  5  6  2  0  0  0  0
  5  7  1  0  0  0  0
  7  8  1  0  0  0  0
  7  9  1  0  0  0  0
  9 10  1  0  0  0  0
  9 11  1  0  0  0  0
  9 23  1  0  0  0  0
 11 12  1  0  0  0  0
 11 13  1  0  0  0  0
 11 14  1  0  0  0  0
 14 15  1  0  0  0  0
 14 21  2  0  0  0  0
 15 16  1  0  0  0  0
 15 17  2  0  0  0  0
 17 18  1  0  0  0  0
 17 19  1  0  0  0  0
 19 20  1  0  0  0  0
 19 21  1  0  0  0  0
 21 22  1  0  0  0  0
 23 24  2  0  0  0  0
 23 25  1  0  0  0  0
 25 26  1  0  0  0  0
 25 27  1  0  0  0  0
 27 28  1  0  0  0  0
 27 29  1  0  0  0  0
 27 30  1  0  0  0  0
M  CHG  1  15   1
M  END
$$$$

  -OEChem-01062216083D

 30 30  0     1  0  0  0  0  0999 V2000
   -3.4651   -2.1184    1.5867 H   0  0  0  0  0  0  0  0  0  0  0  0
   -3.3546   -1.3638    0.8027 C   0  0  0  0  0  0  0  0  0  0  0  0
   -4.1283   -0.6040    0.9393 H   0  0  0  0  0  0  0  0  0  0  0  0
   -3.4927   -1.8435   -0.1689 H   0  0  0  0  0  0  0  0  0  0  0  0
   -1.9815   -0.7250    0.8820 C   0  0  0  0  0  0  0  0  0  0  0  0
   -1.2097   -1.0492    1.7706 O   0  0  0  0  0  0  0  0  0  0  0  0
   -1.6270    0.2562   -0.0259 N   0  0  0  0  0  0  0  0  0  0  0  0
   -2.2911    0.4124   -0.7806 H   0  0  0  0  0  0  0  0  0  0  0  0
   -0.2689    0.8307   -0.1785 C   0  0  1  0  0  0  0  0  0  0  0  0
    0.1168    1.0892    0.8140 H   0  0  0  0  0  0  0  0  0  0  0  0
    0.7286   -0.1367   -0.8800 C   0  0  0  0  0  0  0  0  0  0  0  0
    0.3291   -0.3924   -1.8670 H   0  0  0  0  0  0  0  0  0  0  0  0
    1.6856    0.3707   -1.0477 H   0  0  0  0  0  0  0  0  0  0  0  0
    1.0142   -1.4023   -0.1135 C   0  0  0  0  0  0  0  0  0  0  0  0
    1.8212   -1.4982    1.0210 N   0  3  0  0  0  0  0  0  0  0  0  0
    2.2017   -0.6792    1.5018 H   0  0  0  0  0  0  0  0  0  0  0  0
    1.8770   -2.7401    1.4348 C   0  0  0  0  0  0  0  0  0  0  0  0
    2.3874   -3.1006    2.3294 H   0  0  0  0  0  0  0  0  0  0  0  0
    1.1460   -3.5086    0.5322 N   0  0  0  0  0  0  0  0  0  0  0  0
    1.0007   -4.5204    0.5931 H   0  0  0  0  0  0  0  0  0  0  0  0
    0.6136   -2.6733   -0.4430 C   0  0  0  0  0  0  0  0  0  0  0  0
   -0.0015   -2.9594   -1.2951 H   0  0  0  0  0  0  0  0  0  0  0  0
   -0.2843    2.1457   -0.9955 C   0  0  0  0  0  0  0  0  0  0  0  0
    0.7769    2.6789   -1.2831 O   0  0  0  0  0  0  0  0  0  0  0  0
   -1.4609    2.6766   -1.4980 N   0  0  0  0  0  0  0  0  0  0  0  0
   -2.3243    2.3670   -1.0632 H   0  0  0  0  0  0  0  0  0  0  0  0
   -1.4927    3.9215   -2.2635 C   0  0  0  0  0  0  0  0  0  0  0  0
   -0.8416    3.8504   -3.1418 H   0  0  0  0  0  0  0  0  0  0  0  0
   -2.5097    4.1314   -2.6098 H   0  0  0  0  0  0  0  0  0  0  0  0
   -1.1560    4.7618   -1.6466 H   0  0  0  0  0  0  0  0  0  0  0  0
  1  2  1  0  0  0  0
  2  3  1  0  0  0  0
  2  4  1  0  0  0  0
  2  5  1  0  0  0  0
  5  6  2  0  0  0  0
  5  7  1  0  0  0  0
  7  8  1  0  0  0  0
  7  9  1  0  0  0  0
  9 10  1  0  0  0  0
  9 11  1  0  0  0  0
  9 23  1  0  0  0  0
 11 12  1  0  0  0  0
 11 13  1  0  0  0  0
 11 14  1  0  0  0  0
 14 15  1  0  0  0  0
 14 21  2  0  0  0  0
 15 16  1  0  0  0  0
 15 17  2  0  0  0  0
 17 18  1  0  0  0  0
 17 19  1  0  0  0  0
 19 20  1  0  0  0  0
 19 21  1  0  0  0  0
 21 22  1  0  0  0  0
 23 24  2  0  0  0  0
 23 25  1  0  0  0  0
 25 26  1  0  0  0  0
 25 27  1  0  0  0  0
 27 28  1  0  0  0  0
 27 29  1  0  0  0  0
 27 30  1  0  0  0  0
M  CHG  1  15   1
M  END
$$$$

  -OEChem-01062216083D

 30 30  0     1  0  0  0  0  0999 V2000
   -3.4796   -2.0860    1.5686 H   0  0  0  0  0  0  0  0  0  0  0  0
   -3.3545   -1.3323    0.7859 C   0  0  0  0  0  0  0  0  0  0  0  0
   -4.1167   -0.5607    0.9207 H   0  0  0  0  0  0  0  0  0  0  0  0
   -3.4970   -1.8086   -0.1869 H   0  0  0  0  0  0  0  0  0  0  0  0
   -1.9717   -0.7151    0.8702 C   0  0  0  0  0  0  0  0  0  0  0  0
   -1.2080   -1.0512    1.7615 O   0  0  0  0  0  0  0  0  0  0  0  0
   -1.6015    0.2681   -0.0290 N   0  0  0  0  0  0  0  0  0  0  0  0
   -2.2674    0.4551   -0.7767 H   0  0  0  0  0  0  0  0  0  0  0  0
   -0.2396    0.8353   -0.1711 C   0  0  1  0  0  0  0  0  0  0  0  0
    0.1439    1.0909    0.8228 H   0  0  0  0  0  0  0  0  0  0  0  0
    0.7548   -0.1387   -0.8707 C   0  0  0  0  0  0  0  0  0  0  0  0
    0.3604   -0.3857   -1.8621 H   0  0  0  0  0  0  0  0  0  0  0  0
    1.7175    0.3608   -1.0280 H   0  0  0  0  0  0  0  0  0  0  0  0
    1.0273   -1.4095   -0.1082 C   0  0  0  0  0  0  0  0  0  0  0  0
    1.8275   -1.5189    1.0299 N   0  3  0  0  0  0  0  0  0  0  0  0
    2.2161   -0.7066    1.5152 H   0  0  0  0  0  0  0  0  0  0  0  0
    1.8686   -2.7632    1.4382 C   0  0  0  0  0  0  0  0  0  0  0  0
    2.3705   -3.1331    2.3338 H   0  0  0  0  0  0  0  0  0  0  0  0
    1.1350   -3.5203    0.5281 N   0  0  0  0  0  0  0  0  0  0  0  0
    0.9791   -4.5308    0.5833 H   0  0  0  0  0  0  0  0  0  0  0  0
    0.6164   -2.6751   -0.4460 C   0  0  0  0  0  0  0  0  0  0  0  0
    0.0031   -2.9509   -1.3029 H   0  0  0  0  0  0  0  0  0  0  0  0
   -0.2737    2.1533   -0.9858 C   0  0  0  0  0  0  0  0  0  0  0  0
    0.7508    2.5893   -1.4893 O   0  0  0  0  0  0  0  0  0  0  0  0
   -1.4667    2.8197   -1.2101 N   0  0  0  0  0  0  0  0  0  0  0  0
   -2.2517    2.5636   -0.6179 H   0  0  0  0  0  0  0  0  0  0  0  0
   -1.5393    4.0851   -1.9382 C   0  0  0  0  0  0  0  0  0  0  0  0
   -1.1076    3.9791   -2.9397 H   0  0  0  0  0  0  0  0  0  0  0  0
   -2.5813    4.4021   -2.0483 H   0  0  0  0  0  0  0  0  0  0  0  0
   -0.9928    4.8697   -1.4034 H   0  0  0  0  0  0  0  0  0  0  0  0
  1  2  1  0  0  0  0
  2  3  1  0  0  0  0
  2  4  1  0  0  0  0
  2  5  1  0  0  0  0
  5  6  2  0  0  0  0
  5  7  1  0  0  0  0
  7  8  1  0  0  0  0
  7  9  1  0  0  0  0
  9 10  1  0  0  0  0
  9 11  1  0  0  0  0
  9 23  1  0  0  0  0
 11 12  1  0  0  0  0
 11 13  1  0  0  0  0
 11 14  1  0  0  0  0
 14 15  1  0  0  0  0
 14 21  2  0  0  0  0
 15 16  1  0  0  0  0
 15 17  2  0  0  0  0
 17 18  1  0  0  0  0
 17 19  1  0  0  0  0
 19 20  1  0  0  0  0
 19 21  1  0  0  0  0
 21 22  1  0  0  0  0
 23 24  2  0  0  0  0
 23 25  1  0  0  0  0
 25 26  1  0  0  0  0
 25 27  1  0  0  0  0
 27 28  1  0  0  0  0
 27 29  1  0  0  0  0
 27 30  1  0  0  0  0
M  CHG  1  15   1
M  END
$$$$

  -OEChem-01062216083D

 30 30  0     1  0  0  0  0  0999 V2000
   -3.4976   -2.0533    1.5561 H   0  0  0  0  0  0  0  0  0  0  0  0
   -3.3601   -1.2995    0.7754 C   0  0  0  0  0  0  0  0  0  0  0  0
   -4.1074   -0.5139    0.9139 H   0  0  0  0  0  0  0  0  0  0  0  0
   -3.5134   -1.7702   -0.1985 H   0  0  0  0  0  0  0  0  0  0  0  0
   -1.9660   -0.7082    0.8587 C   0  0  0  0  0  0  0  0  0  0  0  0
   -1.2066   -1.0629    1.7464 O   0  0  0  0  0  0  0  0  0  0  0  0
   -1.5809    0.2764   -0.0325 N   0  0  0  0  0  0  0  0  0  0  0  0
   -2.2557    0.5062   -0.7608 H   0  0  0  0  0  0  0  0  0  0  0  0
   -0.2160    0.8362   -0.1670 C   0  0  1  0  0  0  0  0  0  0  0  0
    0.1652    1.0904    0.8278 H   0  0  0  0  0  0  0  0  0  0  0  0
    0.7791   -0.1404   -0.8624 C   0  0  0  0  0  0  0  0  0  0  0  0
    0.3895   -0.3838   -1.8567 H   0  0  0  0  0  0  0  0  0  0  0  0
    1.7434    0.3587   -1.0133 H   0  0  0  0  0  0  0  0  0  0  0  0
    1.0439   -1.4144   -0.1021 C   0  0  0  0  0  0  0  0  0  0  0  0
    1.8366   -1.5363    1.0399 N   0  3  0  0  0  0  0  0  0  0  0  0
    2.2312   -0.7303    1.5302 H   0  0  0  0  0  0  0  0  0  0  0  0
    1.8652   -2.7832    1.4417 C   0  0  0  0  0  0  0  0  0  0  0  0
    2.3593   -3.1621    2.3378 H   0  0  0  0  0  0  0  0  0  0  0  0
    1.1299   -3.5293    0.5239 N   0  0  0  0  0  0  0  0  0  0  0  0
    0.9620   -4.5381    0.5743 H   0  0  0  0  0  0  0  0  0  0  0  0
    0.6237   -2.6745   -0.4481 C   0  0  0  0  0  0  0  0  0  0  0  0
    0.0103   -2.9395   -1.3083 H   0  0  0  0  0  0  0  0  0  0  0  0
   -0.2646    2.1559   -0.9790 C   0  0  0  0  0  0  0  0  0  0  0  0
    0.6688    2.4871   -1.6952 O   0  0  0  0  0  0  0  0  0  0  0  0
   -1.3898    2.9608   -0.9328 N   0  0  0  0  0  0  0  0  0  0  0  0
   -2.0820    2.7472   -0.2194 H   0  0  0  0  0  0  0  0  0  0  0  0
   -1.4787    4.2453   -1.6243 C   0  0  0  0  0  0  0  0  0  0  0  0
   -1.2871    4.1216   -2.6960 H   0  0  0  0  0  0  0  0  0  0  0  0
   -2.4784    4.6748   -1.5039 H   0  0  0  0  0  0  0  0  0  0  0  0
   -0.7470    4.9520   -1.2179 H   0  0  0  0  0  0  0  0  0  0  0  0
  1  2  1  0  0  0  0
  2  3  1  0  0  0  0
  2  4  1  0  0  0  0
  2  5  1  0  0  0  0
  5  6  2  0  0  0  0
  5  7  1  0  0  0  0
  7  8  1  0  0  0  0
  7  9  1  0  0  0  0
  9 10  1  0  0  0  0
  9 11  1  0  0  0  0
  9 23  1  0  0  0  0
 11 12  1  0  0  0  0
 11 13  1  0  0  0  0
 11 14  1  0  0  0  0
 14 15  1  0  0  0  0
 14 21  2  0  0  0  0
 15 16  1  0  0  0  0
 15 17  2  0  0  0  0
 17 18  1  0  0  0  0
 17 19  1  0  0  0  0
 19 20  1  0  0  0  0
 19 21  1  0  0  0  0
 21 22  1  0  0  0  0
 23 24  2  0  0  0  0
 23 25  1  0  0  0  0
 25 26  1  0  0  0  0
 25 27  1  0  0  0  0
 27 28  1  0  0  0  0
 27 29  1  0  0  0  0
 27 30  1  0  0  0  0
M  CHG  1  15   1
M  END
$$$$

  -OEChem-01062216083D

 30 30  0     1  0  0  0  0  0999 V2000
   -3.5130   -2.0250    1.5373 H   0  0  0  0  0  0  0  0  0  0  0  0
   -3.3645   -1.2637    0.7662 C   0  0  0  0  0  0  0  0  0  0  0  0
   -4.0983   -0.4677    0.9164 H   0  0  0  0  0  0  0  0  0  0  0  0
   -3.5276   -1.7189   -0.2135 H   0  0  0  0  0  0  0  0  0  0  0  0
   -1.9604   -0.6975    0.8531 C   0  0  0  0  0  0  0  0  0  0  0  0
   -1.2062   -1.0714    1.7377 O   0  0  0  0  0  0  0  0  0  0  0  0
   -1.5600    0.2887   -0.0288 N   0  0  0  0  0  0  0  0  0  0  0  0
   -2.2387    0.5547   -0.7416 H   0  0  0  0  0  0  0  0  0  0  0  0
   -0.1920    0.8406   -0.1494 C   0  0  1  0  0  0  0  0  0  0  0  0
    0.1861    1.0893    0.8477 H   0  0  0  0  0  0  0  0  0  0  0  0
    0.8041   -0.1354   -0.8433 C   0  0  0  0  0  0  0  0  0  0  0  0
    0.4203   -0.3715   -1.8420 H   0  0  0  0  0  0  0  0  0  0  0  0
    1.7687    0.3659   -0.9846 H   0  0  0  0  0  0  0  0  0  0  0  0
    1.0593   -1.4172   -0.0926 C   0  0  0  0  0  0  0  0  0  0  0  0
    1.8422   -1.5579    1.0541 N   0  3  0  0  0  0  0  0  0  0  0  0
    2.2371   -0.7608    1.5584 H   0  0  0  0  0  0  0  0  0  0  0  0
    1.8602   -2.8100    1.4404 C   0  0  0  0  0  0  0  0  0  0  0  0
    2.3454   -3.2038    2.3348 H   0  0  0  0  0  0  0  0  0  0  0  0
    1.1271   -3.5403    0.5085 N   0  0  0  0  0  0  0  0  0  0  0  0
    0.9527   -4.5487    0.5453 H   0  0  0  0  0  0  0  0  0  0  0  0
    0.6336   -2.6705   -0.4564 C   0  0  0  0  0  0  0  0  0  0  0  0
    0.0243   -2.9207   -1.3238 H   0  0  0  0  0  0  0  0  0  0  0  0
   -0.2467    2.1617   -0.9571 C   0  0  0  0  0  0  0  0  0  0  0  0
    0.5421    2.3870   -1.8635 O   0  0  0  0  0  0  0  0  0  0  0  0
   -1.2253    3.0975   -0.6731 N   0  0  0  0  0  0  0  0  0  0  0  0
   -1.8209    2.9250    0.1330 H   0  0  0  0  0  0  0  0  0  0  0  0
   -1.3311    4.3823   -1.3613 C   0  0  0  0  0  0  0  0  0  0  0  0
   -1.4555    4.2329   -2.4394 H   0  0  0  0  0  0  0  0  0  0  0  0
   -2.1956    4.9428   -0.9915 H   0  0  0  0  0  0  0  0  0  0  0  0
   -0.4317    4.9846   -1.1931 H   0  0  0  0  0  0  0  0  0  0  0  0
  1  2  1  0  0  0  0
  2  3  1  0  0  0  0
  2  4  1  0  0  0  0
  2  5  1  0  0  0  0
  5  6  2  0  0  0  0
  5  7  1  0  0  0  0
  7  8  1  0  0  0  0
  7  9  1  0  0  0  0
  9 10  1  0  0  0  0
  9 11  1  0  0  0  0
  9 23  1  0  0  0  0
 11 12  1  0  0  0  0
 11 13  1  0  0  0  0
 11 14  1  0  0  0  0
 14 15  1  0  0  0  0
 14 21  2  0  0  0  0
 15 16  1  0  0  0  0
 15 17  2  0  0  0  0
 17 18  1  0  0  0  0
 17 19  1  0  0  0  0
 19 20  1  0  0  0  0
 19 21  1  0  0  0  0
 21 22  1  0  0  0  0
 23 24  2  0  0  0  0
 23 25  1  0  0  0  0
 25 26  1  0  0  0  0
 25 27  1  0  0  0  0
 27 28  1  0  0  0  0
 27 29  1  0  0  0  0
 27 30  1  0  0  0  0
M  CHG  1  15   1
M  END
$$$$

  -OEChem-01062216083D

 30 30  0     1  0  0  0  0  0999 V2000
   -3.5178   -2.0147    1.5207 H   0  0  0  0  0  0  0  0  0  0  0  0
   -3.3624   -1.2469    0.7573 C   0  0  0  0  0  0  0  0  0  0  0  0
   -4.0919   -0.4479    0.9126 H   0  0  0  0  0  0  0  0  0  0  0  0
   -3.5250   -1.6916   -0.2274 H   0  0  0  0  0  0  0  0  0  0  0  0
   -1.9554   -0.6896    0.8537 C   0  0  0  0  0  0  0  0  0  0  0  0
   -1.2066   -1.0722    1.7396 O   0  0  0  0  0  0  0  0  0  0  0  0
   -1.5452    0.2979   -0.0220 N   0  0  0  0  0  0  0  0  0  0  0  0
   -2.2204    0.5759   -0.7336 H   0  0  0  0  0  0  0  0  0  0  0  0
   -0.1756    0.8443   -0.1309 C   0  0  1  0  0  0  0  0  0  0  0  0
    0.1997    1.0860    0.8689 H   0  0  0  0  0  0  0  0  0  0  0  0
    0.8209   -0.1291   -0.8261 C   0  0  0  0  0  0  0  0  0  0  0  0
    0.4391   -0.3607   -1.8267 H   0  0  0  0  0  0  0  0  0  0  0  0
    1.7842    0.3756   -0.9636 H   0  0  0  0  0  0  0  0  0  0  0  0
    1.0679   -1.4177   -0.0842 C   0  0  0  0  0  0  0  0  0  0  0  0
    1.8429   -1.5751    1.0657 N   0  3  0  0  0  0  0  0  0  0  0  0
    2.2382   -0.7860    1.5818 H   0  0  0  0  0  0  0  0  0  0  0  0
    1.8517   -2.8314    1.4385 C   0  0  0  0  0  0  0  0  0  0  0  0
    2.3294   -3.2374    2.3315 H   0  0  0  0  0  0  0  0  0  0  0  0
    1.1205   -3.5477    0.4943 N   0  0  0  0  0  0  0  0  0  0  0  0
    0.9413   -4.5556    0.5181 H   0  0  0  0  0  0  0  0  0  0  0  0
    0.6372   -2.6647   -0.4635 C   0  0  0  0  0  0  0  0  0  0  0  0
    0.0311   -2.9016   -1.3372 H   0  0  0  0  0  0  0  0  0  0  0  0
   -0.2267    2.1664   -0.9346 C   0  0  0  0  0  0  0  0  0  0  0  0
    0.3684    2.2908   -1.9955 O   0  0  0  0  0  0  0  0  0  0  0  0
   -0.9868    3.2210   -0.4638 N   0  0  0  0  0  0  0  0  0  0  0  0
   -1.4716    3.0987    0.4219 H   0  0  0  0  0  0  0  0  0  0  0  0
   -1.0932    4.5051   -1.1525 C   0  0  0  0  0  0  0  0  0  0  0  0
   -1.5274    4.3729   -2.1494 H   0  0  0  0  0  0  0  0  0  0  0  0
   -1.7338    5.1893   -0.5870 H   0  0  0  0  0  0  0  0  0  0  0  0
   -0.1060    4.9680   -1.2596 H   0  0  0  0  0  0  0  0  0  0  0  0
  1  2  1  0  0  0  0
  2  3  1  0  0  0  0
  2  4  1  0  0  0  0
  2  5  1  0  0  0  0
  5  6  2  0  0  0  0
  5  7  1  0  0  0  0
  7  8  1  0  0  0  0
  7  9  1  0  0  0  0
  9 10  1  0  0  0  0
  9 11  1  0  0  0  0
  9 23  1  0  0  0  0
 11 12  1  0  0  0  0
 11 13  1  0  0  0  0
 11 14  1  0  0  0  0
 14 15  1  0  0  0  0
 14 21  2  0  0  0  0
 15 16  1  0  0  0  0
 15 17  2  0  0  0  0
 17 18  1  0  0  0  0
 17 19  1  0  0  0  0
 19 20  1  0  0  0  0
 19 21  1  0  0  0  0
 21 22  1  0  0  0  0
 23 24  2  0  0  0  0
 23 25  1  0  0  0  0
 25 26  1  0  0  0  0
 25 27  1  0  0  0  0
 27 28  1  0  0  0  0
 27 29  1  0  0  0  0
 27 30  1  0  0  0  0
M  CHG  1  15   1
M  END
$$$$

  -OEChem-01062216083D

 30 30  0     1  0  0  0  0  0999 V2000
   -3.5215   -2.0018    1.5058 H   0  0  0  0  0  0  0  0  0  0  0  0
   -3.3577   -1.2314    0.7470 C   0  0  0  0  0  0  0  0  0  0  0  0
   -4.0829   -0.4284    0.9018 H   0  0  0  0  0  0  0  0  0  0  0  0
   -3.5181   -1.6706   -0.2405 H   0  0  0  0  0  0  0  0  0  0  0  0
   -1.9479   -0.6831    0.8531 C   0  0  0  0  0  0  0  0  0  0  0  0
   -1.2044   -1.0755    1.7395 O   0  0  0  0  0  0  0  0  0  0  0  0
   -1.5272    0.3052   -0.0160 N   0  0  0  0  0  0  0  0  0  0  0  0
   -2.1968    0.5920   -0.7297 H   0  0  0  0  0  0  0  0  0  0  0  0
   -0.1563    0.8462   -0.1141 C   0  0  1  0  0  0  0  0  0  0  0  0
    0.2167    1.0777    0.8889 H   0  0  0  0  0  0  0  0  0  0  0  0
    0.8392   -0.1244   -0.8134 C   0  0  0  0  0  0  0  0  0  0  0  0
    0.4567   -0.3535   -1.8146 H   0  0  0  0  0  0  0  0  0  0  0  0
    1.8018    0.3812   -0.9509 H   0  0  0  0  0  0  0  0  0  0  0  0
    1.0772   -1.4200   -0.0799 C   0  0  0  0  0  0  0  0  0  0  0  0
    1.8453   -1.5927    1.0726 N   0  3  0  0  0  0  0  0  0  0  0  0
    2.2438   -0.8112    1.5973 H   0  0  0  0  0  0  0  0  0  0  0  0
    1.8402   -2.8516    1.4370 C   0  0  0  0  0  0  0  0  0  0  0  0
    2.3080   -3.2683    2.3304 H   0  0  0  0  0  0  0  0  0  0  0  0
    1.1071   -3.5544    0.4844 N   0  0  0  0  0  0  0  0  0  0  0  0
    0.9149   -4.5600    0.5026 H   0  0  0  0  0  0  0  0  0  0  0  0
    0.6368   -2.6605   -0.4698 C   0  0  0  0  0  0  0  0  0  0  0  0
    0.0307   -2.8854   -1.3468 H   0  0  0  0  0  0  0  0  0  0  0  0
   -0.1991    2.1694   -0.9133 C   0  0  0  0  0  0  0  0  0  0  0  0
    0.1579    2.2112   -2.0820 O   0  0  0  0  0  0  0  0  0  0  0  0
   -0.6879    3.3163   -0.3158 N   0  0  0  0  0  0  0  0  0  0  0  0
   -1.0275    3.2479    0.6405 H   0  0  0  0  0  0  0  0  0  0  0  0
   -0.8024    4.5962   -1.0109 C   0  0  0  0  0  0  0  0  0  0  0  0
   -1.4770    4.5096   -1.8697 H   0  0  0  0  0  0  0  0  0  0  0  0
   -1.1997    5.3620   -0.3370 H   0  0  0  0  0  0  0  0  0  0  0  0
    0.1781    4.9291   -1.3685 H   0  0  0  0  0  0  0  0  0  0  0  0
  1  2  1  0  0  0  0
  2  3  1  0  0  0  0
  2  4  1  0  0  0  0
  2  5  1  0  0  0  0
  5  6  2  0  0  0  0
  5  7  1  0  0  0  0
  7  8  1  0  0  0  0
  7  9  1  0  0  0  0
  9 10  1  0  0  0  0
  9 11  1  0  0  0  0
  9 23  1  0  0  0  0
 11 12  1  0  0  0  0
 11 13  1  0  0  0  0
 11 14  1  0  0  0  0
 14 15  1  0  0  0  0
 14 21  2  0  0  0  0
 15 16  1  0  0  0  0
 15 17  2  0  0  0  0
 17 18  1  0  0  0  0
 17 19  1  0  0  0  0
 19 20  1  0  0  0  0
 19 21  1  0  0  0  0
 21 22  1  0  0  0  0
 23 24  2  0  0  0  0
 23 25  1  0  0  0  0
 25 26  1  0  0  0  0
 25 27  1  0  0  0  0
 27 28  1  0  0  0  0
 27 29  1  0  0  0  0
 27 30  1  0  0  0  0
M  CHG  1  15   1
M  END
$$$$

  -OEChem-01062216083D

 30 30  0     1  0  0  0  0  0999 V2000
   -3.5339   -1.9795    1.4953 H   0  0  0  0  0  0  0  0  0  0  0  0
   -3.3581   -1.2092    0.7392 C   0  0  0  0  0  0  0  0  0  0  0  0
   -4.0748   -0.3985    0.8934 H   0  0  0  0  0  0  0  0  0  0  0  0
   -3.5189   -1.6434   -0.2505 H   0  0  0  0  0  0  0  0  0  0  0  0
   -1.9428   -0.6767    0.8526 C   0  0  0  0  0  0  0  0  0  0  0  0
   -1.2059   -1.0798    1.7400 O   0  0  0  0  0  0  0  0  0  0  0  0
   -1.5080    0.3084   -0.0126 N   0  0  0  0  0  0  0  0  0  0  0  0
   -2.1702    0.6065   -0.7292 H   0  0  0  0  0  0  0  0  0  0  0  0
   -0.1355    0.8445   -0.0964 C   0  0  1  0  0  0  0  0  0  0  0  0
    0.2308    1.0687    0.9106 H   0  0  0  0  0  0  0  0  0  0  0  0
    0.8616   -0.1201   -0.7984 C   0  0  0  0  0  0  0  0  0  0  0  0
    0.4851   -0.3413   -1.8038 H   0  0  0  0  0  0  0  0  0  0  0  0
    1.8254    0.3850   -0.9261 H   0  0  0  0  0  0  0  0  0  0  0  0
    1.0882   -1.4229   -0.0737 C   0  0  0  0  0  0  0  0  0  0  0  0
    1.8453   -1.6118    1.0838 N   0  3  0  0  0  0  0  0  0  0  0  0
    2.2417   -0.8382    1.6217 H   0  0  0  0  0  0  0  0  0  0  0  0
    1.8272   -2.8740    1.4365 C   0  0  0  0  0  0  0  0  0  0  0  0
    2.2826   -3.3028    2.3305 H   0  0  0  0  0  0  0  0  0  0  0  0
    1.0979   -3.5628    0.4708 N   0  0  0  0  0  0  0  0  0  0  0  0
    0.8971   -4.5669    0.4786 H   0  0  0  0  0  0  0  0  0  0  0  0
    0.6419   -2.6564   -0.4783 C   0  0  0  0  0  0  0  0  0  0  0  0
    0.0401   -2.8684   -1.3614 H   0  0  0  0  0  0  0  0  0  0  0  0
   -0.1658    2.1648   -0.8976 C   0  0  0  0  0  0  0  0  0  0  0  0
   -0.0803    2.1473   -2.1172 O   0  0  0  0  0  0  0  0  0  0  0  0
   -0.3557    3.3704   -0.2479 N   0  0  0  0  0  0  0  0  0  0  0  0
   -0.5223    3.3508    0.7552 H   0  0  0  0  0  0  0  0  0  0  0  0
   -0.4800    4.6451   -0.9511 C   0  0  0  0  0  0  0  0  0  0  0  0
   -1.3595    4.6403   -1.6042 H   0  0  0  0  0  0  0  0  0  0  0  0
   -0.5866    5.4664   -0.2353 H   0  0  0  0  0  0  0  0  0  0  0  0
    0.4087    4.8365   -1.5625 H   0  0  0  0  0  0  0  0  0  0  0  0
  1  2  1  0  0  0  0
  2  3  1  0  0  0  0
  2  4  1  0  0  0  0
  2  5  1  0  0  0  0
  5  6  2  0  0  0  0
  5  7  1  0  0  0  0
  7  8  1  0  0  0  0
  7  9  1  0  0  0  0
  9 10  1  0  0  0  0
  9 11  1  0  0  0  0
  9 23  1  0  0  0  0
 11 12  1  0  0  0  0
 11 13  1  0  0  0  0
 11 14  1  0  0  0  0
 14 15  1  0  0  0  0
 14 21  2  0  0  0  0
 15 16  1  0  0  0  0
 15 17  2  0  0  0  0
 17 18  1  0  0  0  0
 17 19  1  0  0  0  0
 19 20  1  0  0  0  0
 19 21  1  0  0  0  0
 21 22  1  0  0  0  0
 23 24  2  0  0  0  0
 23 25  1  0  0  0  0
 25 26  1  0  0  0  0
 25 27  1  0  0  0  0
 27 28  1  0  0  0  0
 27 29  1  0  0  0  0
 27 30  1  0  0  0  0
M  CHG  1  15   1
M  END
$$$$

  -OEChem-01062216083D

 30 30  0     1  0  0  0  0  0999 V2000
   -3.5381   -1.9656    1.4884 H   0  0  0  0  0  0  0  0  0  0  0  0
   -3.3544   -1.1948    0.7347 C   0  0  0  0  0  0  0  0  0  0  0  0
   -4.0688   -0.3815    0.8852 H   0  0  0  0  0  0  0  0  0  0  0  0
   -3.5101   -1.6271   -0.2565 H   0  0  0  0  0  0  0  0  0  0  0  0
   -1.9383   -0.6671    0.8576 C   0  0  0  0  0  0  0  0  0  0  0  0
   -1.2068   -1.0739    1.7481 O   0  0  0  0  0  0  0  0  0  0  0  0
   -1.4912    0.3103   -0.0097 N   0  0  0  0  0  0  0  0  0  0  0  0
   -2.1441    0.6137   -0.7333 H   0  0  0  0  0  0  0  0  0  0  0  0
   -0.1181    0.8440   -0.0787 C   0  0  1  0  0  0  0  0  0  0  0  0
    0.2396    1.0672    0.9315 H   0  0  0  0  0  0  0  0  0  0  0  0
    0.8794   -0.1154   -0.7824 C   0  0  0  0  0  0  0  0  0  0  0  0
    0.5077   -0.3257   -1.7920 H   0  0  0  0  0  0  0  0  0  0  0  0
    1.8456    0.3873   -0.8989 H   0  0  0  0  0  0  0  0  0  0  0  0
    1.0946   -1.4249   -0.0664 C   0  0  0  0  0  0  0  0  0  0  0  0
    1.8408   -1.6306    1.0954 N   0  3  0  0  0  0  0  0  0  0  0  0
    2.2322   -0.8649    1.6479 H   0  0  0  0  0  0  0  0  0  0  0  0
    1.8110   -2.8960    1.4354 C   0  0  0  0  0  0  0  0  0  0  0  0
    2.2540   -3.3359    2.3304 H   0  0  0  0  0  0  0  0  0  0  0  0
    1.0866   -3.5704    0.4560 N   0  0  0  0  0  0  0  0  0  0  0  0
    0.8794   -4.5732    0.4516 H   0  0  0  0  0  0  0  0  0  0  0  0
    0.6437   -2.6513   -0.4872 C   0  0  0  0  0  0  0  0  0  0  0  0
    0.0469   -2.8496   -1.3771 H   0  0  0  0  0  0  0  0  0  0  0  0
   -0.1378    2.1557   -0.8909 C   0  0  0  0  0  0  0  0  0  0  0  0
   -0.3158    2.1104   -2.1000 O   0  0  0  0  0  0  0  0  0  0  0  0
   -0.0254    3.3823   -0.2626 N   0  0  0  0  0  0  0  0  0  0  0  0
   -0.0040    3.3987    0.7539 H   0  0  0  0  0  0  0  0  0  0  0  0
   -0.1381    4.6523   -0.9761 C   0  0  0  0  0  0  0  0  0  0  0  0
   -1.1366    4.7605   -1.4136 H   0  0  0  0  0  0  0  0  0  0  0  0
    0.0324    5.4901   -0.2926 H   0  0  0  0  0  0  0  0  0  0  0  0
    0.6041    4.7100   -1.7798 H   0  0  0  0  0  0  0  0  0  0  0  0
  1  2  1  0  0  0  0
  2  3  1  0  0  0  0
  2  4  1  0  0  0  0
  2  5  1  0  0  0  0
  5  6  2  0  0  0  0
  5  7  1  0  0  0  0
  7  8  1  0  0  0  0
  7  9  1  0  0  0  0
  9 10  1  0  0  0  0
  9 11  1  0  0  0  0
  9 23  1  0  0  0  0
 11 12  1  0  0  0  0
 11 13  1  0  0  0  0
 11 14  1  0  0  0  0
 14 15  1  0  0  0  0
 14 21  2  0  0  0  0
 15 16  1  0  0  0  0
 15 17  2  0  0  0  0
 17 18  1  0  0  0  0
 17 19  1  0  0  0  0
 19 20  1  0  0  0  0
 19 21  1  0  0  0  0
 21 22  1  0  0  0  0
 23 24  2  0  0  0  0
 23 25  1  0  0  0  0
 25 26  1  0  0  0  0
 25 27  1  0  0  0  0
 27 28  1  0  0  0  0
 27 29  1  0  0  0  0
 27 30  1  0  0  0  0
M  CHG  1  15   1
M  END
$$$$

  -OEChem-01062216083D

 30 30  0     1  0  0  0  0  0999 V2000
   -3.5547   -1.9353    1.4940 H   0  0  0  0  0  0  0  0  0  0  0  0
   -3.3604   -1.1706    0.7367 C   0  0  0  0  0  0  0  0  0  0  0  0
   -4.0609   -0.3448    0.8860 H   0  0  0  0  0  0  0  0  0  0  0  0
   -3.5262   -1.6038   -0.2526 H   0  0  0  0  0  0  0  0  0  0  0  0
   -1.9353   -0.6661    0.8534 C   0  0  0  0  0  0  0  0  0  0  0  0
   -1.2072   -1.0827    1.7426 O   0  0  0  0  0  0  0  0  0  0  0  0
   -1.4757    0.3025   -0.0167 N   0  0  0  0  0  0  0  0  0  0  0  0
   -2.1254    0.6224   -0.7370 H   0  0  0  0  0  0  0  0  0  0  0  0
   -0.1035    0.8388   -0.0722 C   0  0  1  0  0  0  0  0  0  0  0  0
    0.2436    1.0670    0.9404 H   0  0  0  0  0  0  0  0  0  0  0  0
    0.8977   -0.1150   -0.7746 C   0  0  0  0  0  0  0  0  0  0  0  0
    0.5333   -0.3170   -1.7888 H   0  0  0  0  0  0  0  0  0  0  0  0
    1.8660    0.3864   -0.8799 H   0  0  0  0  0  0  0  0  0  0  0  0
    1.1052   -1.4278   -0.0624 C   0  0  0  0  0  0  0  0  0  0  0  0
    1.8410   -1.6429    1.1043 N   0  3  0  0  0  0  0  0  0  0  0  0
    2.2294   -0.8822    1.6655 H   0  0  0  0  0  0  0  0  0  0  0  0
    1.8018   -2.9100    1.4377 C   0  0  0  0  0  0  0  0  0  0  0  0
    2.2346   -3.3568    2.3341 H   0  0  0  0  0  0  0  0  0  0  0  0
    1.0816   -3.5757    0.4494 N   0  0  0  0  0  0  0  0  0  0  0  0
    0.8668   -4.5770    0.4398 H   0  0  0  0  0  0  0  0  0  0  0  0
    0.6507   -2.6496   -0.4923 C   0  0  0  0  0  0  0  0  0  0  0  0
    0.0576   -2.8404   -1.3863 H   0  0  0  0  0  0  0  0  0  0  0  0
   -0.1191    2.1402   -0.8990 C   0  0  0  0  0  0  0  0  0  0  0  0
   -0.5270    2.1028   -2.0516 O   0  0  0  0  0  0  0  0  0  0  0  0
    0.2800    3.3450   -0.3502 N   0  0  0  0  0  0  0  0  0  0  0  0
    0.4964    3.3710    0.6427 H   0  0  0  0  0  0  0  0  0  0  0  0
    0.1917    4.6112   -1.0741 C   0  0  0  0  0  0  0  0  0  0  0  0
   -0.8504    4.8407   -1.3221 H   0  0  0  0  0  0  0  0  0  0  0  0
    0.5889    5.4282   -0.4633 H   0  0  0  0  0  0  0  0  0  0  0  0
    0.7705    4.5655   -2.0032 H   0  0  0  0  0  0  0  0  0  0  0  0
  1  2  1  0  0  0  0
  2  3  1  0  0  0  0
  2  4  1  0  0  0  0
  2  5  1  0  0  0  0
  5  6  2  0  0  0  0
  5  7  1  0  0  0  0
  7  8  1  0  0  0  0
  7  9  1  0  0  0  0
  9 10  1  0  0  0  0
  9 11  1  0  0  0  0
  9 23  1  0  0  0  0
 11 12  1  0  0  0  0
 11 13  1  0  0  0  0
 11 14  1  0  0  0  0
 14 15  1  0  0  0  0
 14 21  2  0  0  0  0
 15 16  1  0  0  0  0
 15 17  2  0  0  0  0
 17 18  1  0  0  0  0
 17 19  1  0  0  0  0
 19 20  1  0  0  0  0
 19 21  1  0  0  0  0
 21 22  1  0  0  0  0
 23 24  2  0  0  0  0
 23 25  1  0  0  0  0
 25 26  1  0  0  0  0
 25 27  1  0  0  0  0
 27 28  1  0  0  0  0
 27 29  1  0  0  0  0
 27 30  1  0  0  0  0
M  CHG  1  15   1
M  END
$$$$

  -OEChem-01062216083D

 30 30  0     1  0  0  0  0  0999 V2000
   -3.5610   -1.9313    1.4868 H   0  0  0  0  0  0  0  0  0  0  0  0
   -3.3646   -1.1640    0.7328 C   0  0  0  0  0  0  0  0  0  0  0  0
   -4.0590   -0.3345    0.8879 H   0  0  0  0  0  0  0  0  0  0  0  0
   -3.5363   -1.5915   -0.2578 H   0  0  0  0  0  0  0  0  0  0  0  0
   -1.9362   -0.6686    0.8475 C   0  0  0  0  0  0  0  0  0  0  0  0
   -1.2090   -1.0911    1.7349 O   0  0  0  0  0  0  0  0  0  0  0  0
   -1.4698    0.2932   -0.0263 N   0  0  0  0  0  0  0  0  0  0  0  0
   -2.1225    0.6336   -0.7355 H   0  0  0  0  0  0  0  0  0  0  0  0
   -0.1003    0.8370   -0.0746 C   0  0  1  0  0  0  0  0  0  0  0  0
    0.2386    1.0738    0.9390 H   0  0  0  0  0  0  0  0  0  0  0  0
    0.9032   -0.1146   -0.7735 C   0  0  0  0  0  0  0  0  0  0  0  0
    0.5393   -0.3147   -1.7883 H   0  0  0  0  0  0  0  0  0  0  0  0
    1.8716    0.3868   -0.8766 H   0  0  0  0  0  0  0  0  0  0  0  0
    1.1098   -1.4276   -0.0601 C   0  0  0  0  0  0  0  0  0  0  0  0
    1.8418   -1.6431    1.1091 N   0  3  0  0  0  0  0  0  0  0  0  0
    2.2258   -0.8827    1.6734 H   0  0  0  0  0  0  0  0  0  0  0  0
    1.7978   -2.9095    1.4443 C   0  0  0  0  0  0  0  0  0  0  0  0
    2.2242   -3.3556    2.3443 H   0  0  0  0  0  0  0  0  0  0  0  0
    1.0803   -3.5754    0.4541 N   0  0  0  0  0  0  0  0  0  0  0  0
    0.8596   -4.5754    0.4475 H   0  0  0  0  0  0  0  0  0  0  0  0
    0.6538   -2.6493   -0.4895 C   0  0  0  0  0  0  0  0  0  0  0  0
    0.0599   -2.8393   -1.3831 H   0  0  0  0  0  0  0  0  0  0  0  0
   -0.1118    2.1301   -0.9151 C   0  0  0  0  0  0  0  0  0  0  0  0
   -0.7150    2.1337   -1.9797 O   0  0  0  0  0  0  0  0  0  0  0  0
    0.5505    3.2695   -0.4957 N   0  0  0  0  0  0  0  0  0  0  0  0
    0.9434    3.2790    0.4416 H   0  0  0  0  0  0  0  0  0  0  0  0
    0.5044    4.5261   -1.2400 C   0  0  0  0  0  0  0  0  0  0  0  0
   -0.5199    4.9129   -1.2770 H   0  0  0  0  0  0  0  0  0  0  0  0
    1.1404    5.2776   -0.7613 H   0  0  0  0  0  0  0  0  0  0  0  0
    0.8604    4.3800   -2.2658 H   0  0  0  0  0  0  0  0  0  0  0  0
  1  2  1  0  0  0  0
  2  3  1  0  0  0  0
  2  4  1  0  0  0  0
  2  5  1  0  0  0  0
  5  6  2  0  0  0  0
  5  7  1  0  0  0  0
  7  8  1  0  0  0  0
  7  9  1  0  0  0  0
  9 10  1  0  0  0  0
  9 11  1  0  0  0  0
  9 23  1  0  0  0  0
 11 12  1  0  0  0  0
 11 13  1  0  0  0  0
 11 14  1  0  0  0  0
 14 15  1  0  0  0  0
 14 21  2  0  0  0  0
 15 16  1  0  0  0  0
 15 17  2  0  0  0  0
 17 18  1  0  0  0  0
 17 19  1  0  0  0  0
 19 20  1  0  0  0  0
 19 21  1  0  0  0  0
 21 22  1  0  0  0  0
 23 24  2  0  0  0  0
 23 25  1  0  0  0  0
 25 26  1  0  0  0  0
 25 27  1  0  0  0  0
 27 28  1  0  0  0  0
 27 29  1  0  0  0  0
 27 30  1  0  0  0  0
M  CHG  1  15   1
M  END
$$$$

  -OEChem-01062216083D

 30 30  0     1  0  0  0  0  0999 V2000
   -3.5830   -1.9035    1.5038 H   0  0  0  0  0  0  0  0  0  0  0  0
   -3.3805   -1.1461    0.7413 C   0  0  0  0  0  0  0  0  0  0  0  0
   -4.0572   -0.3021    0.8982 H   0  0  0  0  0  0  0  0  0  0  0  0
   -3.5726   -1.5773   -0.2441 H   0  0  0  0  0  0  0  0  0  0  0  0
   -1.9411   -0.6785    0.8354 C   0  0  0  0  0  0  0  0  0  0  0  0
   -1.2113   -1.1114    1.7155 O   0  0  0  0  0  0  0  0  0  0  0  0
   -1.4714    0.2783   -0.0418 N   0  0  0  0  0  0  0  0  0  0  0  0
   -2.1340    0.6478   -0.7276 H   0  0  0  0  0  0  0  0  0  0  0  0
   -0.1056    0.8326   -0.0868 C   0  0  1  0  0  0  0  0  0  0  0  0
    0.2270    1.0794    0.9266 H   0  0  0  0  0  0  0  0  0  0  0  0
    0.9036   -0.1168   -0.7802 C   0  0  0  0  0  0  0  0  0  0  0  0
    0.5419   -0.3209   -1.7950 H   0  0  0  0  0  0  0  0  0  0  0  0
    1.8708    0.3868   -0.8827 H   0  0  0  0  0  0  0  0  0  0  0  0
    1.1154   -1.4268   -0.0627 C   0  0  0  0  0  0  0  0  0  0  0  0
    1.8463   -1.6359    1.1085 N   0  3  0  0  0  0  0  0  0  0  0  0
    2.2208   -0.8719    1.6744 H   0  0  0  0  0  0  0  0  0  0  0  0
    1.8058   -2.9012    1.4484 C   0  0  0  0  0  0  0  0  0  0  0  0
    2.2299   -3.3418    2.3521 H   0  0  0  0  0  0  0  0  0  0  0  0
    1.0943   -3.5734    0.4583 N   0  0  0  0  0  0  0  0  0  0  0  0
    0.8763   -4.5740    0.4550 H   0  0  0  0  0  0  0  0  0  0  0  0
    0.6661   -2.6520   -0.4893 C   0  0  0  0  0  0  0  0  0  0  0  0
    0.0745   -2.8479   -1.3833 H   0  0  0  0  0  0  0  0  0  0  0  0
   -0.1165    2.1196   -0.9392 C   0  0  0  0  0  0  0  0  0  0  0  0
   -0.8883    2.1974   -1.8860 O   0  0  0  0  0  0  0  0  0  0  0  0
    0.7690    3.1531   -0.6912 N   0  0  0  0  0  0  0  0  0  0  0  0
    1.3268    3.1147    0.1573 H   0  0  0  0  0  0  0  0  0  0  0  0
    0.7657    4.3950   -1.4616 C   0  0  0  0  0  0  0  0  0  0  0  0
   -0.2002    4.9036   -1.3680 H   0  0  0  0  0  0  0  0  0  0  0  0
    1.5475    5.0709   -1.1005 H   0  0  0  0  0  0  0  0  0  0  0  0
    0.9516    4.1912   -2.5218 H   0  0  0  0  0  0  0  0  0  0  0  0
  1  2  1  0  0  0  0
  2  3  1  0  0  0  0
  2  4  1  0  0  0  0
  2  5  1  0  0  0  0
  5  6  2  0  0  0  0
  5  7  1  0  0  0  0
  7  8  1  0  0  0  0
  7  9  1  0  0  0  0
  9 10  1  0  0  0  0
  9 11  1  0  0  0  0
  9 23  1  0  0  0  0
 11 12  1  0  0  0  0
 11 13  1  0  0  0  0
 11 14  1  0  0  0  0
 14 15  1  0  0  0  0
 14 21  2  0  0  0  0
 15 16  1  0  0  0  0
 15 17  2  0  0  0  0
 17 18  1  0  0  0  0
 17 19  1  0  0  0  0
 19 20  1  0  0  0  0
 19 21  1  0  0  0  0
 21 22  1  0  0  0  0
 23 24  2  0  0  0  0
 23 25  1  0  0  0  0
 25 26  1  0  0  0  0
 25 27  1  0  0  0  0
 27 28  1  0  0  0  0
 27 29  1  0  0  0  0
 27 30  1  0  0  0  0
M  CHG  1  15   1
M  END
$$$$

  -OEChem-01062216083D

 30 30  0     1  0  0  0  0  0999 V2000
   -3.5896   -1.8984    1.4944 H   0  0  0  0  0  0  0  0  0  0  0  0
   -3.3864   -1.1366    0.7367 C   0  0  0  0  0  0  0  0  0  0  0  0
   -4.0512   -0.2861    0.9083 H   0  0  0  0  0  0  0  0  0  0  0  0
   -3.5942   -1.5564   -0.2503 H   0  0  0  0  0  0  0  0  0  0  0  0
   -1.9406   -0.6869    0.8188 C   0  0  0  0  0  0  0  0  0  0  0  0
   -1.2101   -1.1301    1.6933 O   0  0  0  0  0  0  0  0  0  0  0  0
   -1.4682    0.2666   -0.0608 N   0  0  0  0  0  0  0  0  0  0  0  0
   -2.1431    0.6720   -0.7145 H   0  0  0  0  0  0  0  0  0  0  0  0
   -0.1056    0.8309   -0.1034 C   0  0  1  0  0  0  0  0  0  0  0  0
    0.2215    1.0896    0.9087 H   0  0  0  0  0  0  0  0  0  0  0  0
    0.9075   -0.1239   -0.7869 C   0  0  0  0  0  0  0  0  0  0  0  0
    0.5472   -0.3360   -1.8003 H   0  0  0  0  0  0  0  0  0  0  0  0
    1.8757    0.3765   -0.8918 H   0  0  0  0  0  0  0  0  0  0  0  0
    1.1217   -1.4281   -0.0596 C   0  0  0  0  0  0  0  0  0  0  0  0
    1.8507   -1.6306    1.1143 N   0  3  0  0  0  0  0  0  0  0  0  0
    2.2188   -0.8633    1.6800 H   0  0  0  0  0  0  0  0  0  0  0  0
    1.8085   -2.8940    1.4612 C   0  0  0  0  0  0  0  0  0  0  0  0
    2.2277   -3.3302    2.3693 H   0  0  0  0  0  0  0  0  0  0  0  0
    1.1004   -3.5718    0.4727 N   0  0  0  0  0  0  0  0  0  0  0  0
    0.8794   -4.5717    0.4764 H   0  0  0  0  0  0  0  0  0  0  0  0
    0.6743   -2.6560   -0.4807 C   0  0  0  0  0  0  0  0  0  0  0  0
    0.0829   -2.8573   -1.3735 H   0  0  0  0  0  0  0  0  0  0  0  0
   -0.1206    2.1142   -0.9669 C   0  0  0  0  0  0  0  0  0  0  0  0
   -1.0430    2.2974   -1.7511 O   0  0  0  0  0  0  0  0  0  0  0  0
    0.9295    3.0155   -0.9344 N   0  0  0  0  0  0  0  0  0  0  0  0
    1.6382    2.9025   -0.2155 H   0  0  0  0  0  0  0  0  0  0  0  0
    0.9406    4.2417   -1.7297 C   0  0  0  0  0  0  0  0  0  0  0  0
    0.1030    4.8897   -1.4494 H   0  0  0  0  0  0  0  0  0  0  0  0
    1.8723    4.7933   -1.5686 H   0  0  0  0  0  0  0  0  0  0  0  0
    0.8606    4.0095   -2.7975 H   0  0  0  0  0  0  0  0  0  0  0  0
  1  2  1  0  0  0  0
  2  3  1  0  0  0  0
  2  4  1  0  0  0  0
  2  5  1  0  0  0  0
  5  6  2  0  0  0  0
  5  7  1  0  0  0  0
  7  8  1  0  0  0  0
  7  9  1  0  0  0  0
  9 10  1  0  0  0  0
  9 11  1  0  0  0  0
  9 23  1  0  0  0  0
 11 12  1  0  0  0  0
 11 13  1  0  0  0  0
 11 14  1  0  0  0  0
 14 15  1  0  0  0  0
 14 21  2  0  0  0  0
 15 16  1  0  0  0  0
 15 17  2  0  0  0  0
 17 18  1  0  0  0  0
 17 19  1  0  0  0  0
 19 20  1  0  0  0  0
 19 21  1  0  0  0  0
 21 22  1  0  0  0  0
 23 24  2  0  0  0  0
 23 25  1  0  0  0  0
 25 26  1  0  0  0  0
 25 27  1  0  0  0  0
 27 28  1  0  0  0  0
 27 29  1  0  0  0  0
 27 30  1  0  0  0  0
M  CHG  1  15   1
M  END
$$$$

  -OEChem-01062216083D

 30 30  0     1  0  0  0  0  0999 V2000
   -3.4633   -1.9282    1.5447 H   0  0  0  0  0  0  0  0  0  0  0  0
   -3.3154   -1.1343    0.8073 C   0  0  0  0  0  0  0  0  0  0  0  0
   -3.8779   -0.2525    1.1248 H   0  0  0  0  0  0  0  0  0  0  0  0
   -3.7004   -1.4730   -0.1575 H   0  0  0  0  0  0  0  0  0  0  0  0
   -1.8423   -0.7933    0.6917 C   0  0  0  0  0  0  0  0  0  0  0  0
   -1.0218   -1.3681    1.3937 O   0  0  0  0  0  0  0  0  0  0  0  0
   -1.4298    0.1885   -0.1880 N   0  0  0  0  0  0  0  0  0  0  0  0
   -2.1674    0.7548   -0.6157 H   0  0  0  0  0  0  0  0  0  0  0  0
   -0.0769    0.7756   -0.2159 C   0  0  1  0  0  0  0  0  0  0  0  0
    0.3518    0.7882    0.7916 H   0  0  0  0  0  0  0  0  0  0  0  0
    0.8349   -0.0118   -1.1874 C   0  0  0  0  0  0  0  0  0  0  0  0
    0.3728   -0.0027   -2.1813 H   0  0  0  0  0  0  0  0  0  0  0  0
    1.8068    0.4832   -1.2806 H   0  0  0  0  0  0  0  0  0  0  0  0
    1.0618   -1.4395   -0.7527 C   0  0  0  0  0  0  0  0  0  0  0  0
    1.8836   -1.8884    0.2838 N   0  3  0  0  0  0  0  0  0  0  0  0
    2.3331   -1.2576    0.9505 H   0  0  0  0  0  0  0  0  0  0  0  0
    1.8101   -3.1934    0.3865 C   0  0  0  0  0  0  0  0  0  0  0  0
    2.2875   -3.8104    1.1495 H   0  0  0  0  0  0  0  0  0  0  0  0
    0.9806   -3.6437   -0.6370 N   0  0  0  0  0  0  0  0  0  0  0  0
    0.7106   -4.6178   -0.8014 H   0  0  0  0  0  0  0  0  0  0  0  0
    0.5134   -2.5471   -1.3500 C   0  0  0  0  0  0  0  0  0  0  0  0
   -0.1722   -2.5514   -2.1970 H   0  0  0  0  0  0  0  0  0  0  0  0
   -0.1623    2.2402   -0.7122 C   0  0  0  0  0  0  0  0  0  0  0  0
   -1.2422    2.6861   -1.0789 O   0  0  0  0  0  0  0  0  0  0  0  0
    0.9663    3.0333   -0.8338 N   0  0  0  0  0  0  0  0  0  0  0  0
    1.8397    2.6911   -0.4451 H   0  0  0  0  0  0  0  0  0  0  0  0
    0.9107    4.4193   -1.2951 C   0  0  0  0  0  0  0  0  0  0  0  0
    0.3073    5.0278   -0.6126 H   0  0  0  0  0  0  0  0  0  0  0  0
    1.9170    4.8474   -1.3413 H   0  0  0  0  0  0  0  0  0  0  0  0
    0.4689    4.4756   -2.2960 H   0  0  0  0  0  0  0  0  0  0  0  0
  1  2  1  0  0  0  0
  2  3  1  0  0  0  0
  2  4  1  0  0  0  0
  2  5  1  0  0  0  0
  5  6  2  0  0  0  0
  5  7  1  0  0  0  0
  7  8  1  0  0  0  0
  7  9  1  0  0  0  0
  9 10  1  0  0  0  0
  9 11  1  0  0  0  0
  9 23  1  0  0  0  0
 11 12  1  0  0  0  0
 11 13  1  0  0  0  0
 11 14  1  0  0  0  0
 14 15  1  0  0  0  0
 14 21  2  0  0  0  0
 15 16  1  0  0  0  0
 15 17  2  0  0  0  0
 17 18  1  0  0  0  0
 17 19  1  0  0  0  0
 19 20  1  0  0  0  0
 19 21  1  0  0  0  0
 21 22  1  0  0  0  0
 23 24  2  0  0  0  0
 23 25  1  0  0  0  0
 25 26  1  0  0  0  0
 25 27  1  0  0  0  0
 27 28  1  0  0  0  0
 27 29  1  0  0  0  0
 27 30  1  0  0  0  0
M  CHG  1  15   1
M  END
$$$$

  -OEChem-01062216083D

 30 30  0     1  0  0  0  0  0999 V2000
   -3.4687   -1.9111    1.5407 H   0  0  0  0  0  0  0  0  0  0  0  0
   -3.3179   -1.1134    0.8081 C   0  0  0  0  0  0  0  0  0  0  0  0
   -3.8608   -0.2251    1.1414 H   0  0  0  0  0  0  0  0  0  0  0  0
   -3.7219   -1.4370   -0.1541 H   0  0  0  0  0  0  0  0  0  0  0  0
   -1.8415   -0.7959    0.6730 C   0  0  0  0  0  0  0  0  0  0  0  0
   -1.0215   -1.3866    1.3620 O   0  0  0  0  0  0  0  0  0  0  0  0
   -1.4304    0.1879   -0.2052 N   0  0  0  0  0  0  0  0  0  0  0  0
   -2.1719    0.7833   -0.5840 H   0  0  0  0  0  0  0  0  0  0  0  0
   -0.0757    0.7722   -0.2351 C   0  0  1  0  0  0  0  0  0  0  0  0
    0.3530    0.7883    0.7725 H   0  0  0  0  0  0  0  0  0  0  0  0
    0.8376   -0.0284   -1.1979 C   0  0  0  0  0  0  0  0  0  0  0  0
    0.3788   -0.0263   -2.1932 H   0  0  0  0  0  0  0  0  0  0  0  0
    1.8130    0.4584   -1.2908 H   0  0  0  0  0  0  0  0  0  0  0  0
    1.0631   -1.4530   -0.7530 C   0  0  0  0  0  0  0  0  0  0  0  0
    1.8844   -1.8905    0.2885 N   0  3  0  0  0  0  0  0  0  0  0  0
    2.3255   -1.2529    0.9546 H   0  0  0  0  0  0  0  0  0  0  0  0
    1.8142   -3.1945    0.4022 C   0  0  0  0  0  0  0  0  0  0  0  0
    2.2885   -3.8029    1.1741 H   0  0  0  0  0  0  0  0  0  0  0  0
    0.9912   -3.6563   -0.6214 N   0  0  0  0  0  0  0  0  0  0  0  0
    0.7245   -4.6326   -0.7776 H   0  0  0  0  0  0  0  0  0  0  0  0
    0.5220   -2.5672   -1.3447 C   0  0  0  0  0  0  0  0  0  0  0  0
   -0.1600   -2.5808   -2.1944 H   0  0  0  0  0  0  0  0  0  0  0  0
   -0.1703    2.2404   -0.7277 C   0  0  0  0  0  0  0  0  0  0  0  0
   -1.2741    2.7586   -0.8393 O   0  0  0  0  0  0  0  0  0  0  0  0
    0.9401    2.9551   -1.1473 N   0  0  0  0  0  0  0  0  0  0  0  0
    1.8602    2.5565   -0.9899 H   0  0  0  0  0  0  0  0  0  0  0  0
    0.8572    4.3307   -1.6353 C   0  0  0  0  0  0  0  0  0  0  0  0
    0.4366    4.9879   -0.8662 H   0  0  0  0  0  0  0  0  0  0  0  0
    1.8520    4.7031   -1.8997 H   0  0  0  0  0  0  0  0  0  0  0  0
    0.2223    4.3854   -2.5265 H   0  0  0  0  0  0  0  0  0  0  0  0
  1  2  1  0  0  0  0
  2  3  1  0  0  0  0
  2  4  1  0  0  0  0
  2  5  1  0  0  0  0
  5  6  2  0  0  0  0
  5  7  1  0  0  0  0
  7  8  1  0  0  0  0
  7  9  1  0  0  0  0
  9 10  1  0  0  0  0
  9 11  1  0  0  0  0
  9 23  1  0  0  0  0
 11 12  1  0  0  0  0
 11 13  1  0  0  0  0
 11 14  1  0  0  0  0
 14 15  1  0  0  0  0
 14 21  2  0  0  0  0
 15 16  1  0  0  0  0
 15 17  2  0  0  0  0
 17 18  1  0  0  0  0
 17 19  1  0  0  0  0
 19 20  1  0  0  0  0
 19 21  1  0  0  0  0
 21 22  1  0  0  0  0
 23 24  2  0  0  0  0
 23 25  1  0  0  0  0
 25 26  1  0  0  0  0
 25 27  1  0  0  0  0
 27 28  1  0  0  0  0
 27 29  1  0  0  0  0
 27 30  1  0  0  0  0
M  CHG  1  15   1
M  END
$$$$

  -OEChem-01062216083D

 30 30  0     1  0  0  0  0  0999 V2000
   -3.4690   -1.8988    1.5340 H   0  0  0  0  0  0  0  0  0  0  0  0
   -3.3197   -1.0939    0.8089 C   0  0  0  0  0  0  0  0  0  0  0  0
   -3.8427   -0.2019    1.1637 H   0  0  0  0  0  0  0  0  0  0  0  0
   -3.7463   -1.3993   -0.1495 H   0  0  0  0  0  0  0  0  0  0  0  0
   -1.8412   -0.7966    0.6514 C   0  0  0  0  0  0  0  0  0  0  0  0
   -1.0215   -1.3990    1.3303 O   0  0  0  0  0  0  0  0  0  0  0  0
   -1.4317    0.1895   -0.2259 N   0  0  0  0  0  0  0  0  0  0  0  0
   -2.1747    0.8046   -0.5669 H   0  0  0  0  0  0  0  0  0  0  0  0
   -0.0732    0.7662   -0.2583 C   0  0  1  0  0  0  0  0  0  0  0  0
    0.3530    0.7868    0.7506 H   0  0  0  0  0  0  0  0  0  0  0  0
    0.8460   -0.0440   -1.2092 C   0  0  0  0  0  0  0  0  0  0  0  0
    0.3962   -0.0480   -2.2083 H   0  0  0  0  0  0  0  0  0  0  0  0
    1.8241    0.4388   -1.2928 H   0  0  0  0  0  0  0  0  0  0  0  0
    1.0697   -1.4654   -0.7540 C   0  0  0  0  0  0  0  0  0  0  0  0
    1.8867   -1.8914    0.2957 N   0  3  0  0  0  0  0  0  0  0  0  0
    2.3211   -1.2461    0.9591 H   0  0  0  0  0  0  0  0  0  0  0  0
    1.8170   -3.1943    0.4223 C   0  0  0  0  0  0  0  0  0  0  0  0
    2.2870   -3.7941    1.2036 H   0  0  0  0  0  0  0  0  0  0  0  0
    1.0001   -3.6675   -0.6009 N   0  0  0  0  0  0  0  0  0  0  0  0
    0.7337   -4.6455   -0.7467 H   0  0  0  0  0  0  0  0  0  0  0  0
    0.5324   -2.5864   -1.3373 C   0  0  0  0  0  0  0  0  0  0  0  0
   -0.1473   -2.6109   -2.1886 H   0  0  0  0  0  0  0  0  0  0  0  0
   -0.1771    2.2374   -0.7450 C   0  0  0  0  0  0  0  0  0  0  0  0
   -1.2387    2.8277   -0.5947 O   0  0  0  0  0  0  0  0  0  0  0  0
    0.8323    2.8770   -1.4478 N   0  0  0  0  0  0  0  0  0  0  0  0
    1.7257    2.4076   -1.5519 H   0  0  0  0  0  0  0  0  0  0  0  0
    0.7087    4.2458   -1.9470 C   0  0  0  0  0  0  0  0  0  0  0  0
    0.4956    4.9388   -1.1254 H   0  0  0  0  0  0  0  0  0  0  0  0
    1.6390    4.5618   -2.4298 H   0  0  0  0  0  0  0  0  0  0  0  0
   -0.1010    4.3157   -2.6817 H   0  0  0  0  0  0  0  0  0  0  0  0
  1  2  1  0  0  0  0
  2  3  1  0  0  0  0
  2  4  1  0  0  0  0
  2  5  1  0  0  0  0
  5  6  2  0  0  0  0
  5  7  1  0  0  0  0
  7  8  1  0  0  0  0
  7  9  1  0  0  0  0
  9 10  1  0  0  0  0
  9 11  1  0  0  0  0
  9 23  1  0  0  0  0
 11 12  1  0  0  0  0
 11 13  1  0  0  0  0
 11 14  1  0  0  0  0
 14 15  1  0  0  0  0
 14 21  2  0  0  0  0
 15 16  1  0  0  0  0
 15 17  2  0  0  0  0
 17 18  1  0  0  0  0
 17 19  1  0  0  0  0
 19 20  1  0  0  0  0
 19 21  1  0  0  0  0
 21 22  1  0  0  0  0
 23 24  2  0  0  0  0
 23 25  1  0  0  0  0
 25 26  1  0  0  0  0
 25 27  1  0  0  0  0
 27 28  1  0  0  0  0
 27 29  1  0  0  0  0
 27 30  1  0  0  0  0
M  CHG  1  15   1
M  END
$$$$

  -OEChem-01062216083D

 30 30  0     1  0  0  0  0  0999 V2000
   -3.4781   -1.8872    1.5341 H   0  0  0  0  0  0  0  0  0  0  0  0
   -3.3307   -1.0807    0.8102 C   0  0  0  0  0  0  0  0  0  0  0  0
   -3.8386   -0.1848    1.1766 H   0  0  0  0  0  0  0  0  0  0  0  0
   -3.7749   -1.3767   -0.1430 H   0  0  0  0  0  0  0  0  0  0  0  0
   -1.8516   -0.7989    0.6315 C   0  0  0  0  0  0  0  0  0  0  0  0
   -1.0303   -1.4186    1.2922 O   0  0  0  0  0  0  0  0  0  0  0  0
   -1.4456    0.1907   -0.2440 N   0  0  0  0  0  0  0  0  0  0  0  0
   -2.1904    0.8185   -0.5541 H   0  0  0  0  0  0  0  0  0  0  0  0
   -0.0830    0.7582   -0.2868 C   0  0  1  0  0  0  0  0  0  0  0  0
    0.3427    0.7810    0.7226 H   0  0  0  0  0  0  0  0  0  0  0  0
    0.8469   -0.0541   -1.2250 C   0  0  0  0  0  0  0  0  0  0  0  0
    0.4050   -0.0703   -2.2275 H   0  0  0  0  0  0  0  0  0  0  0  0
    1.8221    0.4369   -1.3004 H   0  0  0  0  0  0  0  0  0  0  0  0
    1.0767   -1.4702   -0.7582 C   0  0  0  0  0  0  0  0  0  0  0  0
    1.8912   -1.8777    0.3006 N   0  3  0  0  0  0  0  0  0  0  0  0
    2.3160   -1.2212    0.9593 H   0  0  0  0  0  0  0  0  0  0  0  0
    1.8307   -3.1794    0.4423 C   0  0  0  0  0  0  0  0  0  0  0  0
    2.2999   -3.7660    1.2338 H   0  0  0  0  0  0  0  0  0  0  0  0
    1.0239   -3.6705   -0.5805 N   0  0  0  0  0  0  0  0  0  0  0  0
    0.7634   -4.6517   -0.7145 H   0  0  0  0  0  0  0  0  0  0  0  0
    0.5526   -2.6017   -1.3325 C   0  0  0  0  0  0  0  0  0  0  0  0
   -0.1223   -2.6416   -2.1869 H   0  0  0  0  0  0  0  0  0  0  0  0
   -0.1875    2.2314   -0.7620 C   0  0  0  0  0  0  0  0  0  0  0  0
   -1.1303    2.8971   -0.3589 O   0  0  0  0  0  0  0  0  0  0  0  0
    0.6505    2.7924   -1.7137 N   0  0  0  0  0  0  0  0  0  0  0  0
    1.4212    2.2389   -2.0725 H   0  0  0  0  0  0  0  0  0  0  0  0
    0.4949    4.1614   -2.2024 C   0  0  0  0  0  0  0  0  0  0  0  0
    0.5617    4.8760   -1.3745 H   0  0  0  0  0  0  0  0  0  0  0  0
    1.2803    4.4007   -2.9263 H   0  0  0  0  0  0  0  0  0  0  0  0
   -0.4759    4.2870   -2.6945 H   0  0  0  0  0  0  0  0  0  0  0  0
  1  2  1  0  0  0  0
  2  3  1  0  0  0  0
  2  4  1  0  0  0  0
  2  5  1  0  0  0  0
  5  6  2  0  0  0  0
  5  7  1  0  0  0  0
  7  8  1  0  0  0  0
  7  9  1  0  0  0  0
  9 10  1  0  0  0  0
  9 11  1  0  0  0  0
  9 23  1  0  0  0  0
 11 12  1  0  0  0  0
 11 13  1  0  0  0  0
 11 14  1  0  0  0  0
 14 15  1  0  0  0  0
 14 21  2  0  0  0  0
 15 16  1  0  0  0  0
 15 17  2  0  0  0  0
 17 18  1  0  0  0  0
 17 19  1  0  0  0  0
 19 20  1  0  0  0  0
 19 21  1  0  0  0  0
 21 22  1  0  0  0  0
 23 24  2  0  0  0  0
 23 25  1  0  0  0  0
 25 26  1  0  0  0  0
 25 27  1  0  0  0  0
 27 28  1  0  0  0  0
 27 29  1  0  0  0  0
 27 30  1  0  0  0  0
M  CHG  1  15   1
M  END
$$$$

  -OEChem-01062216083D

 30 30  0     1  0  0  0  0  0999 V2000
   -3.4842   -1.8889    1.5347 H   0  0  0  0  0  0  0  0  0  0  0  0
   -3.3415   -1.0790    0.8138 C   0  0  0  0  0  0  0  0  0  0  0  0
   -3.8396   -0.1825    1.1922 H   0  0  0  0  0  0  0  0  0  0  0  0
   -3.7993   -1.3672   -0.1354 H   0  0  0  0  0  0  0  0  0  0  0  0
   -1.8628   -0.8047    0.6190 C   0  0  0  0  0  0  0  0  0  0  0  0
   -1.0380   -1.4322    1.2672 O   0  0  0  0  0  0  0  0  0  0  0  0
   -1.4636    0.1890   -0.2557 N   0  0  0  0  0  0  0  0  0  0  0  0
   -2.2135    0.8113   -0.5612 H   0  0  0  0  0  0  0  0  0  0  0  0
   -0.1000    0.7532   -0.3108 C   0  0  1  0  0  0  0  0  0  0  0  0
    0.3269    0.7763    0.6982 H   0  0  0  0  0  0  0  0  0  0  0  0
    0.8386   -0.0569   -1.2415 C   0  0  0  0  0  0  0  0  0  0  0  0
    0.3964   -0.0900   -2.2432 H   0  0  0  0  0  0  0  0  0  0  0  0
    1.8071    0.4484   -1.3215 H   0  0  0  0  0  0  0  0  0  0  0  0
    1.0801   -1.4677   -0.7653 C   0  0  0  0  0  0  0  0  0  0  0  0
    1.8977   -1.8559    0.2984 N   0  3  0  0  0  0  0  0  0  0  0  0
    2.3208   -1.1879    0.9467 H   0  0  0  0  0  0  0  0  0  0  0  0
    1.8498   -3.1563    0.4545 C   0  0  0  0  0  0  0  0  0  0  0  0
    2.3261   -3.7296    1.2516 H   0  0  0  0  0  0  0  0  0  0  0  0
    1.0459   -3.6660   -0.5615 N   0  0  0  0  0  0  0  0  0  0  0  0
    0.7938   -4.6509   -0.6833 H   0  0  0  0  0  0  0  0  0  0  0  0
    0.5649   -2.6103   -1.3259 C   0  0  0  0  0  0  0  0  0  0  0  0
   -0.1108   -2.6667   -2.1785 H   0  0  0  0  0  0  0  0  0  0  0  0
   -0.2009    2.2268   -0.7754 C   0  0  0  0  0  0  0  0  0  0  0  0
   -0.9566    2.9635   -0.1611 O   0  0  0  0  0  0  0  0  0  0  0  0
    0.4074    2.7142   -1.9219 N   0  0  0  0  0  0  0  0  0  0  0  0
    0.9812    2.0854   -2.4742 H   0  0  0  0  0  0  0  0  0  0  0  0
    0.2286    4.0859   -2.3948 C   0  0  0  0  0  0  0  0  0  0  0  0
    0.5586    4.8017   -1.6338 H   0  0  0  0  0  0  0  0  0  0  0  0
    0.8152    4.2562   -3.3031 H   0  0  0  0  0  0  0  0  0  0  0  0
   -0.8249    4.2805   -2.6238 H   0  0  0  0  0  0  0  0  0  0  0  0
  1  2  1  0  0  0  0
  2  3  1  0  0  0  0
  2  4  1  0  0  0  0
  2  5  1  0  0  0  0
  5  6  2  0  0  0  0
  5  7  1  0  0  0  0
  7  8  1  0  0  0  0
  7  9  1  0  0  0  0
  9 10  1  0  0  0  0
  9 11  1  0  0  0  0
  9 23  1  0  0  0  0
 11 12  1  0  0  0  0
 11 13  1  0  0  0  0
 11 14  1  0  0  0  0
 14 15  1  0  0  0  0
 14 21  2  0  0  0  0
 15 16  1  0  0  0  0
 15 17  2  0  0  0  0
 17 18  1  0  0  0  0
 17 19  1  0  0  0  0
 19 20  1  0  0  0  0
 19 21  1  0  0  0  0
 21 22  1  0  0  0  0
 23 24  2  0  0  0  0
 23 25  1  0  0  0  0
 25 26  1  0  0  0  0
 25 27  1  0  0  0  0
 27 28  1  0  0  0  0
 27 29  1  0  0  0  0
 27 30  1  0  0  0  0
M  CHG  1  15   1
M  END
$$$$

  -OEChem-01062216083D

 30 30  0     1  0  0  0  0  0999 V2000
   -3.4778   -1.9227    1.5401 H   0  0  0  0  0  0  0  0  0  0  0  0
   -3.3496   -1.1048    0.8254 C   0  0  0  0  0  0  0  0  0  0  0  0
   -3.8577   -0.2186    1.2145 H   0  0  0  0  0  0  0  0  0  0  0  0
   -3.8090   -1.3915   -0.1235 H   0  0  0  0  0  0  0  0  0  0  0  0
   -1.8756   -0.8090    0.6252 C   0  0  0  0  0  0  0  0  0  0  0  0
   -1.0405   -1.4274    1.2684 O   0  0  0  0  0  0  0  0  0  0  0  0
   -1.4920    0.1876   -0.2539 N   0  0  0  0  0  0  0  0  0  0  0  0
   -2.2514    0.7902   -0.5722 H   0  0  0  0  0  0  0  0  0  0  0  0
   -0.1299    0.7540   -0.3286 C   0  0  1  0  0  0  0  0  0  0  0  0
    0.3046    0.7765    0.6777 H   0  0  0  0  0  0  0  0  0  0  0  0
    0.8116   -0.0524   -1.2595 C   0  0  0  0  0  0  0  0  0  0  0  0
    0.3639   -0.1017   -2.2576 H   0  0  0  0  0  0  0  0  0  0  0  0
    1.7716    0.4676   -1.3513 H   0  0  0  0  0  0  0  0  0  0  0  0
    1.0695   -1.4577   -0.7755 C   0  0  0  0  0  0  0  0  0  0  0  0
    1.8981   -1.8255    0.2871 N   0  3  0  0  0  0  0  0  0  0  0  0
    2.3190   -1.1456    0.9249 H   0  0  0  0  0  0  0  0  0  0  0  0
    1.8683   -3.1248    0.4553 C   0  0  0  0  0  0  0  0  0  0  0  0
    2.3575   -3.6839    1.2547 H   0  0  0  0  0  0  0  0  0  0  0  0
    1.0653   -3.6544   -0.5513 N   0  0  0  0  0  0  0  0  0  0  0  0
    0.8258   -4.6437   -0.6629 H   0  0  0  0  0  0  0  0  0  0  0  0
    0.5670   -2.6122   -1.3234 C   0  0  0  0  0  0  0  0  0  0  0  0
   -0.1111   -2.6864   -2.1725 H   0  0  0  0  0  0  0  0  0  0  0  0
   -0.2191    2.2277   -0.7867 C   0  0  0  0  0  0  0  0  0  0  0  0
   -0.7049    3.0347   -0.0115 O   0  0  0  0  0  0  0  0  0  0  0  0
    0.1137    2.6490   -2.0644 N   0  0  0  0  0  0  0  0  0  0  0  0
    0.4318    1.9581   -2.7363 H   0  0  0  0  0  0  0  0  0  0  0  0
   -0.0583    4.0289   -2.5155 C   0  0  0  0  0  0  0  0  0  0  0  0
    0.4872    4.7189   -1.8620 H   0  0  0  0  0  0  0  0  0  0  0  0
    0.3241    4.1486   -3.5342 H   0  0  0  0  0  0  0  0  0  0  0  0
   -1.1181    4.3068   -2.5096 H   0  0  0  0  0  0  0  0  0  0  0  0
  1  2  1  0  0  0  0
  2  3  1  0  0  0  0
  2  4  1  0  0  0  0
  2  5  1  0  0  0  0
  5  6  2  0  0  0  0
  5  7  1  0  0  0  0
  7  8  1  0  0  0  0
  7  9  1  0  0  0  0
  9 10  1  0  0  0  0
  9 11  1  0  0  0  0
  9 23  1  0  0  0  0
 11 12  1  0  0  0  0
 11 13  1  0  0  0  0
 11 14  1  0  0  0  0
 14 15  1  0  0  0  0
 14 21  2  0  0  0  0
 15 16  1  0  0  0  0
 15 17  2  0  0  0  0
 17 18  1  0  0  0  0
 17 19  1  0  0  0  0
 19 20  1  0  0  0  0
 19 21  1  0  0  0  0
 21 22  1  0  0  0  0
 23 24  2  0  0  0  0
 23 25  1  0  0  0  0
 25 26  1  0  0  0  0
 25 27  1  0  0  0  0
 27 28  1  0  0  0  0
 27 29  1  0  0  0  0
 27 30  1  0  0  0  0
M  CHG  1  15   1
M  END
$$$$

  -OEChem-01062216083D

 30 30  0     1  0  0  0  0  0999 V2000
   -3.4735   -1.9708    1.5484 H   0  0  0  0  0  0  0  0  0  0  0  0
   -3.3607   -1.1491    0.8355 C   0  0  0  0  0  0  0  0  0  0  0  0
   -3.8887   -0.2748    1.2247 H   0  0  0  0  0  0  0  0  0  0  0  0
   -3.8112   -1.4437   -0.1153 H   0  0  0  0  0  0  0  0  0  0  0  0
   -1.8927   -0.8219    0.6405 C   0  0  0  0  0  0  0  0  0  0  0  0
   -1.0462   -1.4248    1.2829 O   0  0  0  0  0  0  0  0  0  0  0  0
   -1.5267    0.1792   -0.2415 N   0  0  0  0  0  0  0  0  0  0  0  0
   -2.2966    0.7531   -0.5840 H   0  0  0  0  0  0  0  0  0  0  0  0
   -0.1692    0.7545   -0.3357 C   0  0  1  0  0  0  0  0  0  0  0  0
    0.2750    0.7733    0.6669 H   0  0  0  0  0  0  0  0  0  0  0  0
    0.7742   -0.0388   -1.2735 C   0  0  0  0  0  0  0  0  0  0  0  0
    0.3216   -0.0964   -2.2685 H   0  0  0  0  0  0  0  0  0  0  0  0
    1.7254    0.4961   -1.3749 H   0  0  0  0  0  0  0  0  0  0  0  0
    1.0516   -1.4387   -0.7865 C   0  0  0  0  0  0  0  0  0  0  0  0
    1.8934   -1.7851    0.2722 N   0  3  0  0  0  0  0  0  0  0  0  0
    2.3095   -1.0933    0.9001 H   0  0  0  0  0  0  0  0  0  0  0  0
    1.8875   -3.0834    0.4490 C   0  0  0  0  0  0  0  0  0  0  0  0
    2.3929   -3.6287    1.2478 H   0  0  0  0  0  0  0  0  0  0  0  0
    1.0864   -3.6332   -0.5484 N   0  0  0  0  0  0  0  0  0  0  0  0
    0.8656   -4.6276   -0.6533 H   0  0  0  0  0  0  0  0  0  0  0  0
    0.5644   -2.6045   -1.3237 C   0  0  0  0  0  0  0  0  0  0  0  0
   -0.1163   -2.6955   -2.1690 H   0  0  0  0  0  0  0  0  0  0  0  0
   -0.2497    2.2279   -0.7878 C   0  0  0  0  0  0  0  0  0  0  0  0
   -0.3850    3.0867    0.0671 O   0  0  0  0  0  0  0  0  0  0  0  0
   -0.2234    2.6025   -2.1211 N   0  0  0  0  0  0  0  0  0  0  0  0
   -0.2000    1.8739   -2.8276 H   0  0  0  0  0  0  0  0  0  0  0  0
   -0.3494    3.9918   -2.5571 C   0  0  0  0  0  0  0  0  0  0  0  0
    0.4309    4.6110   -2.1007 H   0  0  0  0  0  0  0  0  0  0  0  0
   -0.2488    4.0618   -3.6449 H   0  0  0  0  0  0  0  0  0  0  0  0
   -1.3267    4.3975   -2.2738 H   0  0  0  0  0  0  0  0  0  0  0  0
  1  2  1  0  0  0  0
  2  3  1  0  0  0  0
  2  4  1  0  0  0  0
  2  5  1  0  0  0  0
  5  6  2  0  0  0  0
  5  7  1  0  0  0  0
  7  8  1  0  0  0  0
  7  9  1  0  0  0  0
  9 10  1  0  0  0  0
  9 11  1  0  0  0  0
  9 23  1  0  0  0  0
 11 12  1  0  0  0  0
 11 13  1  0  0  0  0
 11 14  1  0  0  0  0
 14 15  1  0  0  0  0
 14 21  2  0  0  0  0
 15 16  1  0  0  0  0
 15 17  2  0  0  0  0
 17 18  1  0  0  0  0
 17 19  1  0  0  0  0
 19 20  1  0  0  0  0
 19 21  1  0  0  0  0
 21 22  1  0  0  0  0
 23 24  2  0  0  0  0
 23 25  1  0  0  0  0
 25 26  1  0  0  0  0
 25 27  1  0  0  0  0
 27 28  1  0  0  0  0
 27 29  1  0  0  0  0
 27 30  1  0  0  0  0
M  CHG  1  15   1
M  END
$$$$

  -OEChem-01062216083D

 30 30  0     1  0  0  0  0  0999 V2000
   -3.4728   -2.0173    1.5716 H   0  0  0  0  0  0  0  0  0  0  0  0
   -3.3766   -1.1955    0.8561 C   0  0  0  0  0  0  0  0  0  0  0  0
   -3.9227   -0.3314    1.2431 H   0  0  0  0  0  0  0  0  0  0  0  0
   -3.8205   -1.5025   -0.0939 H   0  0  0  0  0  0  0  0  0  0  0  0
   -1.9154   -0.8403    0.6595 C   0  0  0  0  0  0  0  0  0  0  0  0
   -1.0568   -1.4316    1.2964 O   0  0  0  0  0  0  0  0  0  0  0  0
   -1.5674    0.1670   -0.2234 N   0  0  0  0  0  0  0  0  0  0  0  0
   -2.3466    0.7218   -0.5751 H   0  0  0  0  0  0  0  0  0  0  0  0
   -0.2158    0.7566   -0.3213 C   0  0  1  0  0  0  0  0  0  0  0  0
    0.2300    0.7698    0.6807 H   0  0  0  0  0  0  0  0  0  0  0  0
    0.7366   -0.0118   -1.2688 C   0  0  0  0  0  0  0  0  0  0  0  0
    0.2876   -0.0619   -2.2660 H   0  0  0  0  0  0  0  0  0  0  0  0
    1.6797    0.5388   -1.3635 H   0  0  0  0  0  0  0  0  0  0  0  0
    1.0341   -1.4113   -0.7937 C   0  0  0  0  0  0  0  0  0  0  0  0
    1.8833   -1.7486    0.2619 N   0  3  0  0  0  0  0  0  0  0  0  0
    2.2916   -1.0524    0.8905 H   0  0  0  0  0  0  0  0  0  0  0  0
    1.9038   -3.0480    0.4288 C   0  0  0  0  0  0  0  0  0  0  0  0
    2.4244   -3.5888    1.2208 H   0  0  0  0  0  0  0  0  0  0  0  0
    1.1104   -3.6057   -0.5705 N   0  0  0  0  0  0  0  0  0  0  0  0
    0.9126   -4.6039   -0.6853 H   0  0  0  0  0  0  0  0  0  0  0  0
    0.5672   -2.5821   -1.3380 C   0  0  0  0  0  0  0  0  0  0  0  0
   -0.1113   -2.6803   -2.1843 H   0  0  0  0  0  0  0  0  0  0  0  0
   -0.2919    2.2291   -0.7683 C   0  0  0  0  0  0  0  0  0  0  0  0
   -0.0615    3.1024    0.0508 O   0  0  0  0  0  0  0  0  0  0  0  0
   -0.5699    2.5789   -2.0787 N   0  0  0  0  0  0  0  0  0  0  0  0
   -0.8052    1.8409   -2.7353 H   0  0  0  0  0  0  0  0  0  0  0  0
   -0.6355    3.9666   -2.5319 C   0  0  0  0  0  0  0  0  0  0  0  0
    0.3221    4.4719   -2.3639 H   0  0  0  0  0  0  0  0  0  0  0  0
   -0.8626    4.0089   -3.6019 H   0  0  0  0  0  0  0  0  0  0  0  0
   -1.4172    4.5118   -1.9916 H   0  0  0  0  0  0  0  0  0  0  0  0
  1  2  1  0  0  0  0
  2  3  1  0  0  0  0
  2  4  1  0  0  0  0
  2  5  1  0  0  0  0
  5  6  2  0  0  0  0
  5  7  1  0  0  0  0
  7  8  1  0  0  0  0
  7  9  1  0  0  0  0
  9 10  1  0  0  0  0
  9 11  1  0  0  0  0
  9 23  1  0  0  0  0
 11 12  1  0  0  0  0
 11 13  1  0  0  0  0
 11 14  1  0  0  0  0
 14 15  1  0  0  0  0
 14 21  2  0  0  0  0
 15 16  1  0  0  0  0
 15 17  2  0  0  0  0
 17 18  1  0  0  0  0
 17 19  1  0  0  0  0
 19 20  1  0  0  0  0
 19 21  1  0  0  0  0
 21 22  1  0  0  0  0
 23 24  2  0  0  0  0
 23 25  1  0  0  0  0
 25 26  1  0  0  0  0
 25 27  1  0  0  0  0
 27 28  1  0  0  0  0
 27 29  1  0  0  0  0
 27 30  1  0  0  0  0
M  CHG  1  15   1
M  END
$$$$

  -OEChem-01062216083D

 30 30  0     1  0  0  0  0  0999 V2000
   -3.4710   -2.0607    1.5855 H   0  0  0  0  0  0  0  0  0  0  0  0
   -3.3859   -1.2327    0.8760 C   0  0  0  0  0  0  0  0  0  0  0  0
   -3.9434   -0.3785    1.2688 H   0  0  0  0  0  0  0  0  0  0  0  0
   -3.8259   -1.5395   -0.0759 H   0  0  0  0  0  0  0  0  0  0  0  0
   -1.9295   -0.8567    0.6824 C   0  0  0  0  0  0  0  0  0  0  0  0
   -1.0628   -1.4390    1.3162 O   0  0  0  0  0  0  0  0  0  0  0  0
   -1.5938    0.1567   -0.1983 N   0  0  0  0  0  0  0  0  0  0  0  0
   -2.3794    0.7022   -0.5493 H   0  0  0  0  0  0  0  0  0  0  0  0
   -0.2473    0.7600   -0.2938 C   0  0  1  0  0  0  0  0  0  0  0  0
    0.2012    0.7682    0.7073 H   0  0  0  0  0  0  0  0  0  0  0  0
    0.7082    0.0144   -1.2536 C   0  0  0  0  0  0  0  0  0  0  0  0
    0.2578   -0.0231   -2.2507 H   0  0  0  0  0  0  0  0  0  0  0  0
    1.6462    0.5750   -1.3424 H   0  0  0  0  0  0  0  0  0  0  0  0
    1.0197   -1.3881   -0.7967 C   0  0  0  0  0  0  0  0  0  0  0  0
    1.8756   -1.7282    0.2524 N   0  3  0  0  0  0  0  0  0  0  0  0
    2.2817   -1.0337    0.8845 H   0  0  0  0  0  0  0  0  0  0  0  0
    1.9126   -3.0291    0.4034 C   0  0  0  0  0  0  0  0  0  0  0  0
    2.4453   -3.5732    1.1849 H   0  0  0  0  0  0  0  0  0  0  0  0
    1.1207   -3.5840   -0.5986 N   0  0  0  0  0  0  0  0  0  0  0  0
    0.9352   -4.5831   -0.7252 H   0  0  0  0  0  0  0  0  0  0  0  0
    0.5638   -2.5575   -1.3527 C   0  0  0  0  0  0  0  0  0  0  0  0
   -0.1151   -2.6525   -2.1991 H   0  0  0  0  0  0  0  0  0  0  0  0
   -0.3235    2.2323   -0.7358 C   0  0  0  0  0  0  0  0  0  0  0  0
    0.2141    3.0812   -0.0450 O   0  0  0  0  0  0  0  0  0  0  0  0
   -0.8901    2.5905   -1.9470 N   0  0  0  0  0  0  0  0  0  0  0  0
   -1.3046    1.8621   -2.5206 H   0  0  0  0  0  0  0  0  0  0  0  0
   -0.9239    3.9693   -2.4300 C   0  0  0  0  0  0  0  0  0  0  0  0
    0.0923    4.3628   -2.5421 H   0  0  0  0  0  0  0  0  0  0  0  0
   -1.4220    4.0213   -3.4032 H   0  0  0  0  0  0  0  0  0  0  0  0
   -1.4708    4.6096   -1.7290 H   0  0  0  0  0  0  0  0  0  0  0  0
  1  2  1  0  0  0  0
  2  3  1  0  0  0  0
  2  4  1  0  0  0  0
  2  5  1  0  0  0  0
  5  6  2  0  0  0  0
  5  7  1  0  0  0  0
  7  8  1  0  0  0  0
  7  9  1  0  0  0  0
  9 10  1  0  0  0  0
  9 11  1  0  0  0  0
  9 23  1  0  0  0  0
 11 12  1  0  0  0  0
 11 13  1  0  0  0  0
 11 14  1  0  0  0  0
 14 15  1  0  0  0  0
 14 21  2  0  0  0  0
 15 16  1  0  0  0  0
 15 17  2  0  0  0  0
 17 18  1  0  0  0  0
 17 19  1  0  0  0  0
 19 20  1  0  0  0  0
 19 21  1  0  0  0  0
 21 22  1  0  0  0  0
 23 24  2  0  0  0  0
 23 25  1  0  0  0  0
 25 26  1  0  0  0  0
 25 27  1  0  0  0  0
 27 28  1  0  0  0  0
 27 29  1  0  0  0  0
 27 30  1  0  0  0  0
M  CHG  1  15   1
M  END
$$$$

  -OEChem-01062216083D

 30 30  0     1  0  0  0  0  0999 V2000
   -3.4649   -2.0990    1.6048 H   0  0  0  0  0  0  0  0  0  0  0  0
   -3.3899   -1.2672    0.8984 C   0  0  0  0  0  0  0  0  0  0  0  0
   -3.9525   -0.4191    1.2968 H   0  0  0  0  0  0  0  0  0  0  0  0
   -3.8314   -1.5737   -0.0527 H   0  0  0  0  0  0  0  0  0  0  0  0
   -1.9376   -0.8786    0.6997 C   0  0  0  0  0  0  0  0  0  0  0  0
   -1.0640   -1.4539    1.3303 O   0  0  0  0  0  0  0  0  0  0  0  0
   -1.6139    0.1414   -0.1782 N   0  0  0  0  0  0  0  0  0  0  0  0
   -2.4062    0.6861   -0.5138 H   0  0  0  0  0  0  0  0  0  0  0  0
   -0.2731    0.7617   -0.2623 C   0  0  1  0  0  0  0  0  0  0  0  0
    0.1743    0.7647    0.7390 H   0  0  0  0  0  0  0  0  0  0  0  0
    0.6860    0.0367   -1.2335 C   0  0  0  0  0  0  0  0  0  0  0  0
    0.2334    0.0127   -2.2301 H   0  0  0  0  0  0  0  0  0  0  0  0
    1.6201    0.6051   -1.3164 H   0  0  0  0  0  0  0  0  0  0  0  0
    1.0086   -1.3691   -0.7971 C   0  0  0  0  0  0  0  0  0  0  0  0
    1.8688   -1.7157    0.2458 N   0  3  0  0  0  0  0  0  0  0  0  0
    2.2746   -1.0251    0.8826 H   0  0  0  0  0  0  0  0  0  0  0  0
    1.9155   -3.0182    0.3804 C   0  0  0  0  0  0  0  0  0  0  0  0
    2.4532   -3.5685    1.1541 H   0  0  0  0  0  0  0  0  0  0  0  0
    1.1265   -3.5660   -0.6279 N   0  0  0  0  0  0  0  0  0  0  0  0
    0.9492   -4.5646   -0.7679 H   0  0  0  0  0  0  0  0  0  0  0  0
    0.5612   -2.5341   -1.3683 C   0  0  0  0  0  0  0  0  0  0  0  0
   -0.1169   -2.6226   -2.2159 H   0  0  0  0  0  0  0  0  0  0  0  0
   -0.3448    2.2350   -0.6998 C   0  0  0  0  0  0  0  0  0  0  0  0
    0.4103    3.0365   -0.1753 O   0  0  0  0  0  0  0  0  0  0  0  0
   -1.1542    2.6352   -1.7492 N   0  0  0  0  0  0  0  0  0  0  0  0
   -1.6857    1.9258   -2.2444 H   0  0  0  0  0  0  0  0  0  0  0  0
   -1.1801    4.0075   -2.2506 C   0  0  0  0  0  0  0  0  0  0  0  0
   -0.1936    4.2990   -2.6274 H   0  0  0  0  0  0  0  0  0  0  0  0
   -1.9030    4.1028   -3.0670 H   0  0  0  0  0  0  0  0  0  0  0  0
   -1.4686    4.7024   -1.4541 H   0  0  0  0  0  0  0  0  0  0  0  0
  1  2  1  0  0  0  0
  2  3  1  0  0  0  0
  2  4  1  0  0  0  0
  2  5  1  0  0  0  0
  5  6  2  0  0  0  0
  5  7  1  0  0  0  0
  7  8  1  0  0  0  0
  7  9  1  0  0  0  0
  9 10  1  0  0  0  0
  9 11  1  0  0  0  0
  9 23  1  0  0  0  0
 11 12  1  0  0  0  0
 11 13  1  0  0  0  0
 11 14  1  0  0  0  0
 14 15  1  0  0  0  0
 14 21  2  0  0  0  0
 15 16  1  0  0  0  0
 15 17  2  0  0  0  0
 17 18  1  0  0  0  0
 17 19  1  0  0  0  0
 19 20  1  0  0  0  0
 19 21  1  0  0  0  0
 21 22  1  0  0  0  0
 23 24  2  0  0  0  0
 23 25  1  0  0  0  0
 25 26  1  0  0  0  0
 25 27  1  0  0  0  0
 27 28  1  0  0  0  0
 27 29  1  0  0  0  0
 27 30  1  0  0  0  0
M  CHG  1  15   1
M  END
$$$$

  -OEChem-01062216083D

 30 30  0     1  0  0  0  0  0999 V2000
   -3.4509   -2.1311    1.6265 H   0  0  0  0  0  0  0  0  0  0  0  0
   -3.3854   -1.3083    0.9087 C   0  0  0  0  0  0  0  0  0  0  0  0
   -3.9664   -0.4654    1.2913 H   0  0  0  0  0  0  0  0  0  0  0  0
   -3.8136   -1.6362   -0.0415 H   0  0  0  0  0  0  0  0  0  0  0  0
   -1.9384   -0.8967    0.7161 C   0  0  0  0  0  0  0  0  0  0  0  0
   -1.0589   -1.4576    1.3514 O   0  0  0  0  0  0  0  0  0  0  0  0
   -1.6266    0.1284   -0.1607 N   0  0  0  0  0  0  0  0  0  0  0  0
   -2.4257    0.6639   -0.4920 H   0  0  0  0  0  0  0  0  0  0  0  0
   -0.2916    0.7646   -0.2380 C   0  0  1  0  0  0  0  0  0  0  0  0
    0.1561    0.7667    0.7632 H   0  0  0  0  0  0  0  0  0  0  0  0
    0.6659    0.0465   -1.2174 C   0  0  0  0  0  0  0  0  0  0  0  0
    0.2078    0.0292   -2.2118 H   0  0  0  0  0  0  0  0  0  0  0  0
    1.5989    0.6162   -1.3026 H   0  0  0  0  0  0  0  0  0  0  0  0
    0.9970   -1.3609   -0.7920 C   0  0  0  0  0  0  0  0  0  0  0  0
    1.8642   -1.7114    0.2438 N   0  3  0  0  0  0  0  0  0  0  0  0
    2.2706   -1.0237    0.8832 H   0  0  0  0  0  0  0  0  0  0  0  0
    1.9198   -3.0148    0.3664 C   0  0  0  0  0  0  0  0  0  0  0  0
    2.4655   -3.5686    1.1320 H   0  0  0  0  0  0  0  0  0  0  0  0
    1.1289   -3.5586   -0.6429 N   0  0  0  0  0  0  0  0  0  0  0  0
    0.9601   -4.5572   -0.7940 H   0  0  0  0  0  0  0  0  0  0  0  0
    0.5539   -2.5237   -1.3714 C   0  0  0  0  0  0  0  0  0  0  0  0
   -0.1262   -2.6085   -2.2179 H   0  0  0  0  0  0  0  0  0  0  0  0
   -0.3551    2.2406   -0.6729 C   0  0  0  0  0  0  0  0  0  0  0  0
    0.5507    2.9824   -0.3288 O   0  0  0  0  0  0  0  0  0  0  0  0
   -1.3538    2.7159   -1.5062 N   0  0  0  0  0  0  0  0  0  0  0  0
   -1.9973    2.0455   -1.9137 H   0  0  0  0  0  0  0  0  0  0  0  0
   -1.3812    4.0917   -1.9975 C   0  0  0  0  0  0  0  0  0  0  0  0
   -0.5186    4.2872   -2.6437 H   0  0  0  0  0  0  0  0  0  0  0  0
   -2.2941    4.2734   -2.5736 H   0  0  0  0  0  0  0  0  0  0  0  0
   -1.3584    4.7993   -1.1612 H   0  0  0  0  0  0  0  0  0  0  0  0
  1  2  1  0  0  0  0
  2  3  1  0  0  0  0
  2  4  1  0  0  0  0
  2  5  1  0  0  0  0
  5  6  2  0  0  0  0
  5  7  1  0  0  0  0
  7  8  1  0  0  0  0
  7  9  1  0  0  0  0
  9 10  1  0  0  0  0
  9 11  1  0  0  0  0
  9 23  1  0  0  0  0
 11 12  1  0  0  0  0
 11 13  1  0  0  0  0
 11 14  1  0  0  0  0
 14 15  1  0  0  0  0
 14 21  2  0  0  0  0
 15 16  1  0  0  0  0
 15 17  2  0  0  0  0
 17 18  1  0  0  0  0
 17 19  1  0  0  0  0
 19 20  1  0  0  0  0
 19 21  1  0  0  0  0
 21 22  1  0  0  0  0
 23 24  2  0  0  0  0
 23 25  1  0  0  0  0
 25 26  1  0  0  0  0
 25 27  1  0  0  0  0
 27 28  1  0  0  0  0
 27 29  1  0  0  0  0
 27 30  1  0  0  0  0
M  CHG  1  15   1
M  END
$$$$

  -OEChem-01062216083D

 30 30  0     1  0  0  0  0  0999 V2000
   -3.3743   -2.2239    1.5716 H   0  0  0  0  0  0  0  0  0  0  0  0
   -3.3208   -1.4219    0.8297 C   0  0  0  0  0  0  0  0  0  0  0  0
   -4.0248   -0.6362    1.1152 H   0  0  0  0  0  0  0  0  0  0  0  0
   -3.6094   -1.8244   -0.1440 H   0  0  0  0  0  0  0  0  0  0  0  0
   -1.9140   -0.8589    0.7693 C   0  0  0  0  0  0  0  0  0  0  0  0
   -1.0441   -1.3117    1.4972 O   0  0  0  0  0  0  0  0  0  0  0  0
   -1.6167    0.1623   -0.1158 N   0  0  0  0  0  0  0  0  0  0  0  0
   -2.3672    0.4599   -0.7330 H   0  0  0  0  0  0  0  0  0  0  0  0
   -0.2825    0.7905   -0.2516 C   0  0  1  0  0  0  0  0  0  0  0  0
    0.2013    0.7970    0.7320 H   0  0  0  0  0  0  0  0  0  0  0  0
    0.6225    0.0245   -1.2470 C   0  0  0  0  0  0  0  0  0  0  0  0
    0.1250   -0.0140   -2.2216 H   0  0  0  0  0  0  0  0  0  0  0  0
    1.5643    0.5672   -1.3896 H   0  0  0  0  0  0  0  0  0  0  0  0
    0.9439   -1.3734   -0.7839 C   0  0  0  0  0  0  0  0  0  0  0  0
    1.8454   -1.7007    0.2296 N   0  3  0  0  0  0  0  0  0  0  0  0
    2.2902   -0.9970    0.8248 H   0  0  0  0  0  0  0  0  0  0  0  0
    1.9006   -3.0003    0.3855 C   0  0  0  0  0  0  0  0  0  0  0  0
    2.4788   -3.5359    1.1403 H   0  0  0  0  0  0  0  0  0  0  0  0
    1.0670   -3.5663   -0.5762 N   0  0  0  0  0  0  0  0  0  0  0  0
    0.8966   -4.5683   -0.7004 H   0  0  0  0  0  0  0  0  0  0  0  0
    0.4720   -2.5484   -1.3128 C   0  0  0  0  0  0  0  0  0  0  0  0
   -0.2319   -2.6517   -2.1376 H   0  0  0  0  0  0  0  0  0  0  0  0
   -0.3271    2.2712   -0.6859 C   0  0  0  0  0  0  0  0  0  0  0  0
    0.7188    2.9019   -0.6796 O   0  0  0  0  0  0  0  0  0  0  0  0
   -1.4663    2.8575   -1.2115 N   0  0  0  0  0  0  0  0  0  0  0  0
   -2.3486    2.3751   -1.0843 H   0  0  0  0  0  0  0  0  0  0  0  0
   -1.5016    4.2513   -1.6498 C   0  0  0  0  0  0  0  0  0  0  0  0
   -0.7606    4.4262   -2.4376 H   0  0  0  0  0  0  0  0  0  0  0  0
   -2.4898    4.5014   -2.0487 H   0  0  0  0  0  0  0  0  0  0  0  0
   -1.2862    4.9236   -0.8121 H   0  0  0  0  0  0  0  0  0  0  0  0
  1  2  1  0  0  0  0
  2  3  1  0  0  0  0
  2  4  1  0  0  0  0
  2  5  1  0  0  0  0
  5  6  2  0  0  0  0
  5  7  1  0  0  0  0
  7  8  1  0  0  0  0
  7  9  1  0  0  0  0
  9 10  1  0  0  0  0
  9 11  1  0  0  0  0
  9 23  1  0  0  0  0
 11 12  1  0  0  0  0
 11 13  1  0  0  0  0
 11 14  1  0  0  0  0
 14 15  1  0  0  0  0
 14 21  2  0  0  0  0
 15 16  1  0  0  0  0
 15 17  2  0  0  0  0
 17 18  1  0  0  0  0
 17 19  1  0  0  0  0
 19 20  1  0  0  0  0
 19 21  1  0  0  0  0
 21 22  1  0  0  0  0
 23 24  2  0  0  0  0
 23 25  1  0  0  0  0
 25 26  1  0  0  0  0
 25 27  1  0  0  0  0
 27 28  1  0  0  0  0
 27 29  1  0  0  0  0
 27 30  1  0  0  0  0
M  CHG  1  15   1
M  END
$$$$

  -OEChem-01062216083D

 30 30  0     1  0  0  0  0  0999 V2000
   -3.3612   -2.2102    1.5583 H   0  0  0  0  0  0  0  0  0  0  0  0
   -3.3009   -1.4128    0.8119 C   0  0  0  0  0  0  0  0  0  0  0  0
   -4.0169   -0.6314    1.0789 H   0  0  0  0  0  0  0  0  0  0  0  0
   -3.5675   -1.8241   -0.1643 H   0  0  0  0  0  0  0  0  0  0  0  0
   -1.8981   -0.8380    0.7733 C   0  0  0  0  0  0  0  0  0  0  0  0
   -1.0358   -1.2821    1.5156 O   0  0  0  0  0  0  0  0  0  0  0  0
   -1.5932    0.1838   -0.1085 N   0  0  0  0  0  0  0  0  0  0  0  0
   -2.3236    0.4562   -0.7626 H   0  0  0  0  0  0  0  0  0  0  0  0
   -0.2548    0.8026   -0.2422 C   0  0  1  0  0  0  0  0  0  0  0  0
    0.2333    0.8084    0.7391 H   0  0  0  0  0  0  0  0  0  0  0  0
    0.6374    0.0237   -1.2419 C   0  0  0  0  0  0  0  0  0  0  0  0
    0.1366   -0.0059   -2.2150 H   0  0  0  0  0  0  0  0  0  0  0  0
    1.5879    0.5496   -1.3883 H   0  0  0  0  0  0  0  0  0  0  0  0
    0.9422   -1.3788   -0.7800 C   0  0  0  0  0  0  0  0  0  0  0  0
    1.8420   -1.7224    0.2296 N   0  3  0  0  0  0  0  0  0  0  0  0
    2.2987   -1.0274    0.8258 H   0  0  0  0  0  0  0  0  0  0  0  0
    1.8811   -3.0234    0.3796 C   0  0  0  0  0  0  0  0  0  0  0  0
    2.4540   -3.5698    1.1307 H   0  0  0  0  0  0  0  0  0  0  0  0
    1.0391   -3.5748   -0.5830 N   0  0  0  0  0  0  0  0  0  0  0  0
    0.8575   -4.5743   -0.7127 H   0  0  0  0  0  0  0  0  0  0  0  0
    0.4568   -2.5461   -1.3145 C   0  0  0  0  0  0  0  0  0  0  0  0
   -0.2458   -2.6376   -2.1416 H   0  0  0  0  0  0  0  0  0  0  0  0
   -0.3159    2.2858   -0.6731 C   0  0  0  0  0  0  0  0  0  0  0  0
    0.7283    2.8734   -0.9115 O   0  0  0  0  0  0  0  0  0  0  0  0
   -1.5207    2.9297   -0.8981 N   0  0  0  0  0  0  0  0  0  0  0  0
   -2.3530    2.4986   -0.5089 H   0  0  0  0  0  0  0  0  0  0  0  0
   -1.5981    4.3332   -1.2988 C   0  0  0  0  0  0  0  0  0  0  0  0
   -1.0143    4.5076   -2.2096 H   0  0  0  0  0  0  0  0  0  0  0  0
   -2.6361    4.6157   -1.5013 H   0  0  0  0  0  0  0  0  0  0  0  0
   -1.2097    4.9819   -0.5061 H   0  0  0  0  0  0  0  0  0  0  0  0
  1  2  1  0  0  0  0
  2  3  1  0  0  0  0
  2  4  1  0  0  0  0
  2  5  1  0  0  0  0
  5  6  2  0  0  0  0
  5  7  1  0  0  0  0
  7  8  1  0  0  0  0
  7  9  1  0  0  0  0
  9 10  1  0  0  0  0
  9 11  1  0  0  0  0
  9 23  1  0  0  0  0
 11 12  1  0  0  0  0
 11 13  1  0  0  0  0
 11 14  1  0  0  0  0
 14 15  1  0  0  0  0
 14 21  2  0  0  0  0
 15 16  1  0  0  0  0
 15 17  2  0  0  0  0
 17 18  1  0  0  0  0
 17 19  1  0  0  0  0
 19 20  1  0  0  0  0
 19 21  1  0  0  0  0
 21 22  1  0  0  0  0
 23 24  2  0  0  0  0
 23 25  1  0  0  0  0
 25 26  1  0  0  0  0
 25 27  1  0  0  0  0
 27 28  1  0  0  0  0
 27 29  1  0  0  0  0
 27 30  1  0  0  0  0
M  CHG  1  15   1
M  END
$$$$

  -OEChem-01062216083D

 30 30  0     1  0  0  0  0  0999 V2000
   -3.3764   -2.1774    1.5393 H   0  0  0  0  0  0  0  0  0  0  0  0
   -3.3032   -1.3758    0.7987 C   0  0  0  0  0  0  0  0  0  0  0  0
   -4.0067   -0.5849    1.0709 H   0  0  0  0  0  0  0  0  0  0  0  0
   -3.5765   -1.7756   -0.1806 H   0  0  0  0  0  0  0  0  0  0  0  0
   -1.8910   -0.8240    0.7643 C   0  0  0  0  0  0  0  0  0  0  0  0
   -1.0371   -1.2810    1.5085 O   0  0  0  0  0  0  0  0  0  0  0  0
   -1.5690    0.1989   -0.1094 N   0  0  0  0  0  0  0  0  0  0  0  0
   -2.3001    0.5054   -0.7489 H   0  0  0  0  0  0  0  0  0  0  0  0
   -0.2255    0.8078   -0.2321 C   0  0  1  0  0  0  0  0  0  0  0  0
    0.2587    0.8098    0.7507 H   0  0  0  0  0  0  0  0  0  0  0  0
    0.6654    0.0221   -1.2298 C   0  0  0  0  0  0  0  0  0  0  0  0
    0.1700    0.0024   -2.2060 H   0  0  0  0  0  0  0  0  0  0  0  0
    1.6222    0.5387   -1.3674 H   0  0  0  0  0  0  0  0  0  0  0  0
    0.9566   -1.3857   -0.7737 C   0  0  0  0  0  0  0  0  0  0  0  0
    1.8481   -1.7466    0.2374 N   0  3  0  0  0  0  0  0  0  0  0  0
    2.3125   -1.0614    0.8384 H   0  0  0  0  0  0  0  0  0  0  0  0
    1.8746   -3.0493    0.3761 C   0  0  0  0  0  0  0  0  0  0  0  0
    2.4416   -3.6083    1.1224 H   0  0  0  0  0  0  0  0  0  0  0  0
    1.0293   -3.5847   -0.5928 N   0  0  0  0  0  0  0  0  0  0  0  0
    0.8395   -4.5814   -0.7325 H   0  0  0  0  0  0  0  0  0  0  0  0
    0.4603   -2.5440   -1.3180 C   0  0  0  0  0  0  0  0  0  0  0  0
   -0.2411   -2.6211   -2.1478 H   0  0  0  0  0  0  0  0  0  0  0  0
   -0.3035    2.2934   -0.6580 C   0  0  0  0  0  0  0  0  0  0  0  0
    0.6819    2.8419   -1.1279 O   0  0  0  0  0  0  0  0  0  0  0  0
   -1.4939    2.9960   -0.5822 N   0  0  0  0  0  0  0  0  0  0  0  0
   -2.2400    2.5816   -0.0312 H   0  0  0  0  0  0  0  0  0  0  0  0
   -1.6048    4.4068   -0.9468 C   0  0  0  0  0  0  0  0  0  0  0  0
   -1.2893    4.5624   -1.9844 H   0  0  0  0  0  0  0  0  0  0  0  0
   -2.6414    4.7456   -0.8509 H   0  0  0  0  0  0  0  0  0  0  0  0
   -0.9770    5.0239   -0.2948 H   0  0  0  0  0  0  0  0  0  0  0  0
  1  2  1  0  0  0  0
  2  3  1  0  0  0  0
  2  4  1  0  0  0  0
  2  5  1  0  0  0  0
  5  6  2  0  0  0  0
  5  7  1  0  0  0  0
  7  8  1  0  0  0  0
  7  9  1  0  0  0  0
  9 10  1  0  0  0  0
  9 11  1  0  0  0  0
  9 23  1  0  0  0  0
 11 12  1  0  0  0  0
 11 13  1  0  0  0  0
 11 14  1  0  0  0  0
 14 15  1  0  0  0  0
 14 21  2  0  0  0  0
 15 16  1  0  0  0  0
 15 17  2  0  0  0  0
 17 18  1  0  0  0  0
 17 19  1  0  0  0  0
 19 20  1  0  0  0  0
 19 21  1  0  0  0  0
 21 22  1  0  0  0  0
 23 24  2  0  0  0  0
 23 25  1  0  0  0  0
 25 26  1  0  0  0  0
 25 27  1  0  0  0  0
 27 28  1  0  0  0  0
 27 29  1  0  0  0  0
 27 30  1  0  0  0  0
M  CHG  1  15   1
M  END
$$$$

  -OEChem-01062216083D

 30 30  0     1  0  0  0  0  0999 V2000
   -3.3835   -2.1519    1.5250 H   0  0  0  0  0  0  0  0  0  0  0  0
   -3.3012   -1.3447    0.7914 C   0  0  0  0  0  0  0  0  0  0  0  0
   -3.9921   -0.5460    1.0730 H   0  0  0  0  0  0  0  0  0  0  0  0
   -3.5842   -1.7317   -0.1903 H   0  0  0  0  0  0  0  0  0  0  0  0
   -1.8813   -0.8136    0.7554 C   0  0  0  0  0  0  0  0  0  0  0  0
   -1.0320   -1.2849    1.4960 O   0  0  0  0  0  0  0  0  0  0  0  0
   -1.5470    0.2099   -0.1124 N   0  0  0  0  0  0  0  0  0  0  0  0
   -2.2857    0.5590   -0.7216 H   0  0  0  0  0  0  0  0  0  0  0  0
   -0.1998    0.8096   -0.2298 C   0  0  1  0  0  0  0  0  0  0  0  0
    0.2835    0.8090    0.7532 H   0  0  0  0  0  0  0  0  0  0  0  0
    0.6895    0.0203   -1.2266 C   0  0  0  0  0  0  0  0  0  0  0  0
    0.1980    0.0072   -2.2053 H   0  0  0  0  0  0  0  0  0  0  0  0
    1.6498    0.5319   -1.3588 H   0  0  0  0  0  0  0  0  0  0  0  0
    0.9700   -1.3902   -0.7731 C   0  0  0  0  0  0  0  0  0  0  0  0
    1.8549   -1.7629    0.2394 N   0  3  0  0  0  0  0  0  0  0  0  0
    2.3254   -1.0843    0.8429 H   0  0  0  0  0  0  0  0  0  0  0  0
    1.8640   -3.0658    0.3776 C   0  0  0  0  0  0  0  0  0  0  0  0
    2.4196   -3.6319    1.1270 H   0  0  0  0  0  0  0  0  0  0  0  0
    1.0161   -3.5895   -0.5952 N   0  0  0  0  0  0  0  0  0  0  0  0
    0.8130   -4.5833   -0.7355 H   0  0  0  0  0  0  0  0  0  0  0  0
    0.4612   -2.5414   -1.3202 C   0  0  0  0  0  0  0  0  0  0  0  0
   -0.2412   -2.6085   -2.1501 H   0  0  0  0  0  0  0  0  0  0  0  0
   -0.2904    2.2960   -0.6512 C   0  0  0  0  0  0  0  0  0  0  0  0
    0.5817    2.7982   -1.3444 O   0  0  0  0  0  0  0  0  0  0  0  0
   -1.3844    3.0611   -0.2867 N   0  0  0  0  0  0  0  0  0  0  0  0
   -2.0233    2.6634    0.3966 H   0  0  0  0  0  0  0  0  0  0  0  0
   -1.5069    4.4802   -0.6130 C   0  0  0  0  0  0  0  0  0  0  0  0
   -1.4575    4.6320   -1.6968 H   0  0  0  0  0  0  0  0  0  0  0  0
   -2.4646    4.8723   -0.2563 H   0  0  0  0  0  0  0  0  0  0  0  0
   -0.7013    5.0546   -0.1428 H   0  0  0  0  0  0  0  0  0  0  0  0
  1  2  1  0  0  0  0
  2  3  1  0  0  0  0
  2  4  1  0  0  0  0
  2  5  1  0  0  0  0
  5  6  2  0  0  0  0
  5  7  1  0  0  0  0
  7  8  1  0  0  0  0
  7  9  1  0  0  0  0
  9 10  1  0  0  0  0
  9 11  1  0  0  0  0
  9 23  1  0  0  0  0
 11 12  1  0  0  0  0
 11 13  1  0  0  0  0
 11 14  1  0  0  0  0
 14 15  1  0  0  0  0
 14 21  2  0  0  0  0
 15 16  1  0  0  0  0
 15 17  2  0  0  0  0
 17 18  1  0  0  0  0
 17 19  1  0  0  0  0
 19 20  1  0  0  0  0
 19 21  1  0  0  0  0
 21 22  1  0  0  0  0
 23 24  2  0  0  0  0
 23 25  1  0  0  0  0
 25 26  1  0  0  0  0
 25 27  1  0  0  0  0
 27 28  1  0  0  0  0
 27 29  1  0  0  0  0
 27 30  1  0  0  0  0
M  CHG  1  15   1
M  END
$$$$

  -OEChem-01062216083D

 30 30  0     1  0  0  0  0  0999 V2000
   -3.3960   -2.1182    1.5249 H   0  0  0  0  0  0  0  0  0  0  0  0
   -3.3022   -1.3092    0.7948 C   0  0  0  0  0  0  0  0  0  0  0  0
   -3.9789   -0.5003    1.0815 H   0  0  0  0  0  0  0  0  0  0  0  0
   -3.5943   -1.6870   -0.1879 H   0  0  0  0  0  0  0  0  0  0  0  0
   -1.8737   -0.8013    0.7568 C   0  0  0  0  0  0  0  0  0  0  0  0
   -1.0297   -1.2867    1.4947 O   0  0  0  0  0  0  0  0  0  0  0  0
   -1.5262    0.2209   -0.1068 N   0  0  0  0  0  0  0  0  0  0  0  0
   -2.2670    0.6011   -0.6948 H   0  0  0  0  0  0  0  0  0  0  0  0
   -0.1754    0.8112   -0.2151 C   0  0  1  0  0  0  0  0  0  0  0  0
    0.3067    0.8060    0.7687 H   0  0  0  0  0  0  0  0  0  0  0  0
    0.7112    0.0203   -1.2125 C   0  0  0  0  0  0  0  0  0  0  0  0
    0.2211    0.0140   -2.1921 H   0  0  0  0  0  0  0  0  0  0  0  0
    1.6728    0.5306   -1.3402 H   0  0  0  0  0  0  0  0  0  0  0  0
    0.9811   -1.3955   -0.7684 C   0  0  0  0  0  0  0  0  0  0  0  0
    1.8598   -1.7853    0.2431 N   0  3  0  0  0  0  0  0  0  0  0  0
    2.3347   -1.1170    0.8543 H   0  0  0  0  0  0  0  0  0  0  0  0
    1.8600   -3.0898    0.3669 C   0  0  0  0  0  0  0  0  0  0  0  0
    2.4117   -3.6684    1.1097 H   0  0  0  0  0  0  0  0  0  0  0  0
    1.0093   -3.5971   -0.6121 N   0  0  0  0  0  0  0  0  0  0  0  0
    0.7999   -4.5879   -0.7641 H   0  0  0  0  0  0  0  0  0  0  0  0
    0.4639   -2.5375   -1.3272 C   0  0  0  0  0  0  0  0  0  0  0  0
   -0.2375   -2.5910   -2.1591 H   0  0  0  0  0  0  0  0  0  0  0  0
   -0.2726    2.2970   -0.6353 C   0  0  0  0  0  0  0  0  0  0  0  0
    0.4400    2.7464   -1.5207 O   0  0  0  0  0  0  0  0  0  0  0  0
   -1.1955    3.1278   -0.0258 N   0  0  0  0  0  0  0  0  0  0  0  0
   -1.7220    2.7516    0.7585 H   0  0  0  0  0  0  0  0  0  0  0  0
   -1.3250    4.5487   -0.3412 C   0  0  0  0  0  0  0  0  0  0  0  0
   -1.5282    4.6902   -1.4085 H   0  0  0  0  0  0  0  0  0  0  0  0
   -2.1498    4.9918    0.2258 H   0  0  0  0  0  0  0  0  0  0  0  0
   -0.4042    5.0846   -0.0870 H   0  0  0  0  0  0  0  0  0  0  0  0
  1  2  1  0  0  0  0
  2  3  1  0  0  0  0
  2  4  1  0  0  0  0
  2  5  1  0  0  0  0
  5  6  2  0  0  0  0
  5  7  1  0  0  0  0
  7  8  1  0  0  0  0
  7  9  1  0  0  0  0
  9 10  1  0  0  0  0
  9 11  1  0  0  0  0
  9 23  1  0  0  0  0
 11 12  1  0  0  0  0
 11 13  1  0  0  0  0
 11 14  1  0  0  0  0
 14 15  1  0  0  0  0
 14 21  2  0  0  0  0
 15 16  1  0  0  0  0
 15 17  2  0  0  0  0
 17 18  1  0  0  0  0
 17 19  1  0  0  0  0
 19 20  1  0  0  0  0
 19 21  1  0  0  0  0
 21 22  1  0  0  0  0
 23 24  2  0  0  0  0
 23 25  1  0  0  0  0
 25 26  1  0  0  0  0
 25 27  1  0  0  0  0
 27 28  1  0  0  0  0
 27 29  1  0  0  0  0
 27 30  1  0  0  0  0
M  CHG  1  15   1
M  END
$$$$

  -OEChem-01062216083D

 30 30  0     1  0  0  0  0  0999 V2000
   -3.4032   -2.0885    1.5284 H   0  0  0  0  0  0  0  0  0  0  0  0
   -3.3001   -1.2808    0.7980 C   0  0  0  0  0  0  0  0  0  0  0  0
   -3.9648   -0.4626    1.0862 H   0  0  0  0  0  0  0  0  0  0  0  0
   -3.5995   -1.6544   -0.1840 H   0  0  0  0  0  0  0  0  0  0  0  0
   -1.8651   -0.7930    0.7561 C   0  0  0  0  0  0  0  0  0  0  0  0
   -1.0256   -1.2923    1.4903 O   0  0  0  0  0  0  0  0  0  0  0  0
   -1.5059    0.2291   -0.1026 N   0  0  0  0  0  0  0  0  0  0  0  0
   -2.2445    0.6296   -0.6801 H   0  0  0  0  0  0  0  0  0  0  0  0
   -0.1516    0.8104   -0.1983 C   0  0  1  0  0  0  0  0  0  0  0  0
    0.3269    0.7965    0.7868 H   0  0  0  0  0  0  0  0  0  0  0  0
    0.7366    0.0237   -1.1968 C   0  0  0  0  0  0  0  0  0  0  0  0
    0.2516    0.0255   -2.1792 H   0  0  0  0  0  0  0  0  0  0  0  0
    1.6988    0.5350   -1.3161 H   0  0  0  0  0  0  0  0  0  0  0  0
    0.9953   -1.3975   -0.7635 C   0  0  0  0  0  0  0  0  0  0  0  0
    1.8633   -1.8087    0.2491 N   0  3  0  0  0  0  0  0  0  0  0  0
    2.3414   -1.1534    0.8715 H   0  0  0  0  0  0  0  0  0  0  0  0
    1.8467   -3.1144    0.3590 C   0  0  0  0  0  0  0  0  0  0  0  0
    2.3851   -3.7075    1.1000 H   0  0  0  0  0  0  0  0  0  0  0  0
    0.9977   -3.6012   -0.6319 N   0  0  0  0  0  0  0  0  0  0  0  0
    0.7762   -4.5875   -0.7957 H   0  0  0  0  0  0  0  0  0  0  0  0
    0.4694   -2.5273   -1.3384 C   0  0  0  0  0  0  0  0  0  0  0  0
   -0.2276   -2.5619   -2.1752 H   0  0  0  0  0  0  0  0  0  0  0  0
   -0.2462    2.2958   -0.6153 C   0  0  0  0  0  0  0  0  0  0  0  0
    0.2615    2.6909   -1.6546 O   0  0  0  0  0  0  0  0  0  0  0  0
   -0.9353    3.1901    0.1827 N   0  0  0  0  0  0  0  0  0  0  0  0
   -1.3393    2.8415    1.0485 H   0  0  0  0  0  0  0  0  0  0  0  0
   -1.0745    4.6084   -0.1387 C   0  0  0  0  0  0  0  0  0  0  0  0
   -1.5720    4.7365   -1.1063 H   0  0  0  0  0  0  0  0  0  0  0  0
   -1.6722    5.1160    0.6252 H   0  0  0  0  0  0  0  0  0  0  0  0
   -0.0920    5.0908   -0.1841 H   0  0  0  0  0  0  0  0  0  0  0  0
  1  2  1  0  0  0  0
  2  3  1  0  0  0  0
  2  4  1  0  0  0  0
  2  5  1  0  0  0  0
  5  6  2  0  0  0  0
  5  7  1  0  0  0  0
  7  8  1  0  0  0  0
  7  9  1  0  0  0  0
  9 10  1  0  0  0  0
  9 11  1  0  0  0  0
  9 23  1  0  0  0  0
 11 12  1  0  0  0  0
 11 13  1  0  0  0  0
 11 14  1  0  0  0  0
 14 15  1  0  0  0  0
 14 21  2  0  0  0  0
 15 16  1  0  0  0  0
 15 17  2  0  0  0  0
 17 18  1  0  0  0  0
 17 19  1  0  0  0  0
 19 20  1  0  0  0  0
 19 21  1  0  0  0  0
 21 22  1  0  0  0  0
 23 24  2  0  0  0  0
 23 25  1  0  0  0  0
 25 26  1  0  0  0  0
 25 27  1  0  0  0  0
 27 28  1  0  0  0  0
 27 29  1  0  0  0  0
 27 30  1  0  0  0  0
M  CHG  1  15   1
M  END
$$$$

  -OEChem-01062216083D

 30 30  0     1  0  0  0  0  0999 V2000
   -3.4074   -2.0726    1.5226 H   0  0  0  0  0  0  0  0  0  0  0  0
   -3.2955   -1.2635    0.7953 C   0  0  0  0  0  0  0  0  0  0  0  0
   -3.9540   -0.4404    1.0843 H   0  0  0  0  0  0  0  0  0  0  0  0
   -3.5948   -1.6310   -0.1892 H   0  0  0  0  0  0  0  0  0  0  0  0
   -1.8566   -0.7867    0.7596 C   0  0  0  0  0  0  0  0  0  0  0  0
   -1.0225   -1.2920    1.4963 O   0  0  0  0  0  0  0  0  0  0  0  0
   -1.4874    0.2332   -0.0966 N   0  0  0  0  0  0  0  0  0  0  0  0
   -2.2219    0.6436   -0.6730 H   0  0  0  0  0  0  0  0  0  0  0  0
   -0.1314    0.8080   -0.1844 C   0  0  1  0  0  0  0  0  0  0  0  0
    0.3457    0.7865    0.8013 H   0  0  0  0  0  0  0  0  0  0  0  0
    0.7541    0.0245   -1.1863 C   0  0  0  0  0  0  0  0  0  0  0  0
    0.2677    0.0307   -2.1683 H   0  0  0  0  0  0  0  0  0  0  0  0
    1.7157    0.5362   -1.3048 H   0  0  0  0  0  0  0  0  0  0  0  0
    1.0037   -1.4011   -0.7617 C   0  0  0  0  0  0  0  0  0  0  0  0
    1.8662   -1.8266    0.2495 N   0  3  0  0  0  0  0  0  0  0  0  0
    2.3482   -1.1800    0.8777 H   0  0  0  0  0  0  0  0  0  0  0  0
    1.8368   -3.1328    0.3514 C   0  0  0  0  0  0  0  0  0  0  0  0
    2.3683   -3.7358    1.0895 H   0  0  0  0  0  0  0  0  0  0  0  0
    0.9839   -3.6052   -0.6429 N   0  0  0  0  0  0  0  0  0  0  0  0
    0.7514   -4.5882   -0.8117 H   0  0  0  0  0  0  0  0  0  0  0  0
    0.4669   -2.5221   -1.3435 C   0  0  0  0  0  0  0  0  0  0  0  0
   -0.2315   -2.5446   -2.1796 H   0  0  0  0  0  0  0  0  0  0  0  0
   -0.2203    2.2921   -0.6018 C   0  0  0  0  0  0  0  0  0  0  0  0
    0.0447    2.6341   -1.7451 O   0  0  0  0  0  0  0  0  0  0  0  0
   -0.6288    3.2436    0.3141 N   0  0  0  0  0  0  0  0  0  0  0  0
   -0.8841    2.9299    1.2473 H   0  0  0  0  0  0  0  0  0  0  0  0
   -0.7646    4.6612   -0.0112 C   0  0  0  0  0  0  0  0  0  0  0  0
   -1.4829    4.8022   -0.8263 H   0  0  0  0  0  0  0  0  0  0  0  0
   -1.1195    5.2205    0.8603 H   0  0  0  0  0  0  0  0  0  0  0  0
    0.2002    5.0793   -0.3186 H   0  0  0  0  0  0  0  0  0  0  0  0
  1  2  1  0  0  0  0
  2  3  1  0  0  0  0
  2  4  1  0  0  0  0
  2  5  1  0  0  0  0
  5  6  2  0  0  0  0
  5  7  1  0  0  0  0
  7  8  1  0  0  0  0
  7  9  1  0  0  0  0
  9 10  1  0  0  0  0
  9 11  1  0  0  0  0
  9 23  1  0  0  0  0
 11 12  1  0  0  0  0
 11 13  1  0  0  0  0
 11 14  1  0  0  0  0
 14 15  1  0  0  0  0
 14 21  2  0  0  0  0
 15 16  1  0  0  0  0
 15 17  2  0  0  0  0
 17 18  1  0  0  0  0
 17 19  1  0  0  0  0
 19 20  1  0  0  0  0
 19 21  1  0  0  0  0
 21 22  1  0  0  0  0
 23 24  2  0  0  0  0
 23 25  1  0  0  0  0
 25 26  1  0  0  0  0
 25 27  1  0  0  0  0
 27 28  1  0  0  0  0
 27 29  1  0  0  0  0
 27 30  1  0  0  0  0
M  CHG  1  15   1
M  END
$$$$

  -OEChem-01062216083D

 30 30  0     1  0  0  0  0  0999 V2000
   -3.4181   -2.0485    1.5191 H   0  0  0  0  0  0  0  0  0  0  0  0
   -3.2949   -1.2405    0.7924 C   0  0  0  0  0  0  0  0  0  0  0  0
   -3.9455   -0.4104    1.0792 H   0  0  0  0  0  0  0  0  0  0  0  0
   -3.5953   -1.6044   -0.1930 H   0  0  0  0  0  0  0  0  0  0  0  0
   -1.8506   -0.7795    0.7617 C   0  0  0  0  0  0  0  0  0  0  0  0
   -1.0229   -1.2987    1.4964 O   0  0  0  0  0  0  0  0  0  0  0  0
   -1.4661    0.2358   -0.0929 N   0  0  0  0  0  0  0  0  0  0  0  0
   -2.1932    0.6602   -0.6690 H   0  0  0  0  0  0  0  0  0  0  0  0
   -0.1071    0.8025   -0.1680 C   0  0  1  0  0  0  0  0  0  0  0  0
    0.3641    0.7734    0.8200 H   0  0  0  0  0  0  0  0  0  0  0  0
    0.7794    0.0250   -1.1715 C   0  0  0  0  0  0  0  0  0  0  0  0
    0.2978    0.0403   -2.1560 H   0  0  0  0  0  0  0  0  0  0  0  0
    1.7440    0.5332   -1.2809 H   0  0  0  0  0  0  0  0  0  0  0  0
    1.0166   -1.4057   -0.7567 C   0  0  0  0  0  0  0  0  0  0  0  0
    1.8681   -1.8503    0.2559 N   0  3  0  0  0  0  0  0  0  0  0  0
    2.3509   -1.2158    0.8957 H   0  0  0  0  0  0  0  0  0  0  0  0
    1.8229   -3.1570    0.3450 C   0  0  0  0  0  0  0  0  0  0  0  0
    2.3413   -3.7733    1.0814 H   0  0  0  0  0  0  0  0  0  0  0  0
    0.9720   -3.6105   -0.6596 N   0  0  0  0  0  0  0  0  0  0  0  0
    0.7290   -4.5890   -0.8389 H   0  0  0  0  0  0  0  0  0  0  0  0
    0.4708   -2.5151   -1.3521 C   0  0  0  0  0  0  0  0  0  0  0  0
   -0.2245   -2.5214   -2.1912 H   0  0  0  0  0  0  0  0  0  0  0  0
   -0.1860    2.2843   -0.5903 C   0  0  0  0  0  0  0  0  0  0  0  0
   -0.1973    2.5807   -1.7762 O   0  0  0  0  0  0  0  0  0  0  0  0
   -0.2931    3.2804    0.3622 N   0  0  0  0  0  0  0  0  0  0  0  0
   -0.3722    3.0035    1.3376 H   0  0  0  0  0  0  0  0  0  0  0  0
   -0.4390    4.6938    0.0224 C   0  0  0  0  0  0  0  0  0  0  0  0
   -1.3594    4.8595   -0.5480 H   0  0  0  0  0  0  0  0  0  0  0  0
   -0.4823    5.3022    0.9313 H   0  0  0  0  0  0  0  0  0  0  0  0
    0.4109    5.0351   -0.5787 H   0  0  0  0  0  0  0  0  0  0  0  0
  1  2  1  0  0  0  0
  2  3  1  0  0  0  0
  2  4  1  0  0  0  0
  2  5  1  0  0  0  0
  5  6  2  0  0  0  0
  5  7  1  0  0  0  0
  7  8  1  0  0  0  0
  7  9  1  0  0  0  0
  9 10  1  0  0  0  0
  9 11  1  0  0  0  0
  9 23  1  0  0  0  0
 11 12  1  0  0  0  0
 11 13  1  0  0  0  0
 11 14  1  0  0  0  0
 14 15  1  0  0  0  0
 14 21  2  0  0  0  0
 15 16  1  0  0  0  0
 15 17  2  0  0  0  0
 17 18  1  0  0  0  0
 17 19  1  0  0  0  0
 19 20  1  0  0  0  0
 19 21  1  0  0  0  0
 21 22  1  0  0  0  0
 23 24  2  0  0  0  0
 23 25  1  0  0  0  0
 25 26  1  0  0  0  0
 25 27  1  0  0  0  0
 27 28  1  0  0  0  0
 27 29  1  0  0  0  0
 27 30  1  0  0  0  0
M  CHG  1  15   1
M  END
$$$$

  -OEChem-01062216083D

 30 30  0     1  0  0  0  0  0999 V2000
   -3.4263   -2.0222    1.5194 H   0  0  0  0  0  0  0  0  0  0  0  0
   -3.2929   -1.2157    0.7930 C   0  0  0  0  0  0  0  0  0  0  0  0
   -3.9331   -0.3776    1.0795 H   0  0  0  0  0  0  0  0  0  0  0  0
   -3.5968   -1.5752   -0.1928 H   0  0  0  0  0  0  0  0  0  0  0  0
   -1.8434   -0.7729    0.7627 C   0  0  0  0  0  0  0  0  0  0  0  0
   -1.0216   -1.3017    1.4978 O   0  0  0  0  0  0  0  0  0  0  0  0
   -1.4457    0.2341   -0.0951 N   0  0  0  0  0  0  0  0  0  0  0  0
   -2.1668    0.6728   -0.6688 H   0  0  0  0  0  0  0  0  0  0  0  0
   -0.0848    0.7955   -0.1577 C   0  0  1  0  0  0  0  0  0  0  0  0
    0.3783    0.7641    0.8339 H   0  0  0  0  0  0  0  0  0  0  0  0
    0.8018    0.0220   -1.1619 C   0  0  0  0  0  0  0  0  0  0  0  0
    0.3246    0.0466   -2.1484 H   0  0  0  0  0  0  0  0  0  0  0  0
    1.7694    0.5252   -1.2634 H   0  0  0  0  0  0  0  0  0  0  0  0
    1.0272   -1.4129   -0.7541 C   0  0  0  0  0  0  0  0  0  0  0  0
    1.8690   -1.8727    0.2601 N   0  3  0  0  0  0  0  0  0  0  0  0
    2.3505   -1.2475    0.9100 H   0  0  0  0  0  0  0  0  0  0  0  0
    1.8098   -3.1796    0.3408 C   0  0  0  0  0  0  0  0  0  0  0  0
    2.3163   -3.8058    1.0771 H   0  0  0  0  0  0  0  0  0  0  0  0
    0.9604   -3.6183   -0.6717 N   0  0  0  0  0  0  0  0  0  0  0  0
    0.7064   -4.5930   -0.8568 H   0  0  0  0  0  0  0  0  0  0  0  0
    0.4737   -2.5134   -1.3591 C   0  0  0  0  0  0  0  0  0  0  0  0
   -0.2192   -2.5076   -2.2001 H   0  0  0  0  0  0  0  0  0  0  0  0
   -0.1581    2.2726   -0.5929 C   0  0  0  0  0  0  0  0  0  0  0  0
   -0.4307    2.5391   -1.7545 O   0  0  0  0  0  0  0  0  0  0  0  0
    0.0330    3.2947    0.3185 N   0  0  0  0  0  0  0  0  0  0  0  0
    0.1468    3.0473    1.2982 H   0  0  0  0  0  0  0  0  0  0  0  0
   -0.1094    4.7062   -0.0307 C   0  0  0  0  0  0  0  0  0  0  0  0
   -1.1332    4.9210   -0.3562 H   0  0  0  0  0  0  0  0  0  0  0  0
    0.1172    5.3376    0.8343 H   0  0  0  0  0  0  0  0  0  0  0  0
    0.5784    4.9746   -0.8403 H   0  0  0  0  0  0  0  0  0  0  0  0
  1  2  1  0  0  0  0
  2  3  1  0  0  0  0
  2  4  1  0  0  0  0
  2  5  1  0  0  0  0
  5  6  2  0  0  0  0
  5  7  1  0  0  0  0
  7  8  1  0  0  0  0
  7  9  1  0  0  0  0
  9 10  1  0  0  0  0
  9 11  1  0  0  0  0
  9 23  1  0  0  0  0
 11 12  1  0  0  0  0
 11 13  1  0  0  0  0
 11 14  1  0  0  0  0
 14 15  1  0  0  0  0
 14 21  2  0  0  0  0
 15 16  1  0  0  0  0
 15 17  2  0  0  0  0
 17 18  1  0  0  0  0
 17 19  1  0  0  0  0
 19 20  1  0  0  0  0
 19 21  1  0  0  0  0
 21 22  1  0  0  0  0
 23 24  2  0  0  0  0
 23 25  1  0  0  0  0
 25 26  1  0  0  0  0
 25 27  1  0  0  0  0
 27 28  1  0  0  0  0
 27 29  1  0  0  0  0
 27 30  1  0  0  0  0
M  CHG  1  15   1
M  END
$$$$

  -OEChem-01062216083D

 30 30  0     1  0  0  0  0  0999 V2000
   -3.4391   -1.9938    1.5282 H   0  0  0  0  0  0  0  0  0  0  0  0
   -3.2968   -1.1914    0.7989 C   0  0  0  0  0  0  0  0  0  0  0  0
   -3.9206   -0.3415    1.0875 H   0  0  0  0  0  0  0  0  0  0  0  0
   -3.6135   -1.5482   -0.1841 H   0  0  0  0  0  0  0  0  0  0  0  0
   -1.8401   -0.7728    0.7579 C   0  0  0  0  0  0  0  0  0  0  0  0
   -1.0218   -1.3134    1.4886 O   0  0  0  0  0  0  0  0  0  0  0  0
   -1.4310    0.2254   -0.1045 N   0  0  0  0  0  0  0  0  0  0  0  0
   -2.1496    0.6858   -0.6653 H   0  0  0  0  0  0  0  0  0  0  0  0
   -0.0699    0.7865   -0.1555 C   0  0  1  0  0  0  0  0  0  0  0  0
    0.3845    0.7594    0.8401 H   0  0  0  0  0  0  0  0  0  0  0  0
    0.8200    0.0184   -1.1582 C   0  0  0  0  0  0  0  0  0  0  0  0
    0.3474    0.0502   -2.1468 H   0  0  0  0  0  0  0  0  0  0  0  0
    1.7898    0.5189   -1.2516 H   0  0  0  0  0  0  0  0  0  0  0  0
    1.0389   -1.4186   -0.7545 C   0  0  0  0  0  0  0  0  0  0  0  0
    1.8724   -1.8870    0.2625 N   0  3  0  0  0  0  0  0  0  0  0  0
    2.3531   -1.2674    0.9182 H   0  0  0  0  0  0  0  0  0  0  0  0
    1.8020   -3.1934    0.3404 C   0  0  0  0  0  0  0  0  0  0  0  0
    2.2990   -3.8247    1.0787 H   0  0  0  0  0  0  0  0  0  0  0  0
    0.9541   -3.6234   -0.6769 N   0  0  0  0  0  0  0  0  0  0  0  0
    0.6909   -4.5954   -0.8631 H   0  0  0  0  0  0  0  0  0  0  0  0
    0.4787   -2.5133   -1.3639 C   0  0  0  0  0  0  0  0  0  0  0  0
   -0.2129   -2.4995   -2.2061 H   0  0  0  0  0  0  0  0  0  0  0  0
   -0.1420    2.2580   -0.6067 C   0  0  0  0  0  0  0  0  0  0  0  0
   -0.6454    2.5167   -1.6906 O   0  0  0  0  0  0  0  0  0  0  0  0
    0.3273    3.2811    0.1964 N   0  0  0  0  0  0  0  0  0  0  0  0
    0.6361    3.0496    1.1369 H   0  0  0  0  0  0  0  0  0  0  0  0
    0.2071    4.6910   -0.1678 C   0  0  0  0  0  0  0  0  0  0  0  0
   -0.8462    4.9729   -0.2736 H   0  0  0  0  0  0  0  0  0  0  0  0
    0.6575    5.3237    0.6036 H   0  0  0  0  0  0  0  0  0  0  0  0
    0.7190    4.8891   -1.1158 H   0  0  0  0  0  0  0  0  0  0  0  0
  1  2  1  0  0  0  0
  2  3  1  0  0  0  0
  2  4  1  0  0  0  0
  2  5  1  0  0  0  0
  5  6  2  0  0  0  0
  5  7  1  0  0  0  0
  7  8  1  0  0  0  0
  7  9  1  0  0  0  0
  9 10  1  0  0  0  0
  9 11  1  0  0  0  0
  9 23  1  0  0  0  0
 11 12  1  0  0  0  0
 11 13  1  0  0  0  0
 11 14  1  0  0  0  0
 14 15  1  0  0  0  0
 14 21  2  0  0  0  0
 15 16  1  0  0  0  0
 15 17  2  0  0  0  0
 17 18  1  0  0  0  0
 17 19  1  0  0  0  0
 19 20  1  0  0  0  0
 19 21  1  0  0  0  0
 21 22  1  0  0  0  0
 23 24  2  0  0  0  0
 23 25  1  0  0  0  0
 25 26  1  0  0  0  0
 25 27  1  0  0  0  0
 27 28  1  0  0  0  0
 27 29  1  0  0  0  0
 27 30  1  0  0  0  0
M  CHG  1  15   1
M  END
$$$$

  -OEChem-01062216083D

 30 30  0     1  0  0  0  0  0999 V2000
   -3.4532   -1.9660    1.5373 H   0  0  0  0  0  0  0  0  0  0  0  0
   -3.3052   -1.1683    0.8038 C   0  0  0  0  0  0  0  0  0  0  0  0
   -3.9129   -0.3076    1.0951 H   0  0  0  0  0  0  0  0  0  0  0  0
   -3.6369   -1.5228   -0.1750 H   0  0  0  0  0  0  0  0  0  0  0  0
   -1.8425   -0.7730    0.7478 C   0  0  0  0  0  0  0  0  0  0  0  0
   -1.0259   -1.3250    1.4720 O   0  0  0  0  0  0  0  0  0  0  0  0
   -1.4261    0.2167   -0.1203 N   0  0  0  0  0  0  0  0  0  0  0  0
   -2.1454    0.7009   -0.6612 H   0  0  0  0  0  0  0  0  0  0  0  0
   -0.0660    0.7810   -0.1621 C   0  0  1  0  0  0  0  0  0  0  0  0
    0.3779    0.7634    0.8386 H   0  0  0  0  0  0  0  0  0  0  0  0
    0.8291    0.0117   -1.1577 C   0  0  0  0  0  0  0  0  0  0  0  0
    0.3597    0.0441   -2.1478 H   0  0  0  0  0  0  0  0  0  0  0  0
    1.7995    0.5115   -1.2470 H   0  0  0  0  0  0  0  0  0  0  0  0
    1.0477   -1.4256   -0.7520 C   0  0  0  0  0  0  0  0  0  0  0  0
    1.8757   -1.8961    0.2689 N   0  3  0  0  0  0  0  0  0  0  0  0
    2.3518   -1.2781    0.9293 H   0  0  0  0  0  0  0  0  0  0  0  0
    1.8039   -3.2028    0.3451 C   0  0  0  0  0  0  0  0  0  0  0  0
    2.2959   -3.8359    1.0852 H   0  0  0  0  0  0  0  0  0  0  0  0
    0.9608   -3.6312   -0.6765 N   0  0  0  0  0  0  0  0  0  0  0  0
    0.6951   -4.6025   -0.8627 H   0  0  0  0  0  0  0  0  0  0  0  0
    0.4896   -2.5199   -1.3643 C   0  0  0  0  0  0  0  0  0  0  0  0
   -0.1992   -2.5052   -2.2086 H   0  0  0  0  0  0  0  0  0  0  0  0
   -0.1363    2.2479   -0.6301 C   0  0  0  0  0  0  0  0  0  0  0  0
   -0.8398    2.5233   -1.5923 O   0  0  0  0  0  0  0  0  0  0  0  0
    0.5814    3.2445    0.0059 N   0  0  0  0  0  0  0  0  0  0  0  0
    1.0698    3.0109    0.8659 H   0  0  0  0  0  0  0  0  0  0  0  0
    0.4884    4.6513   -0.3780 C   0  0  0  0  0  0  0  0  0  0  0  0
   -0.5373    5.0163   -0.2557 H   0  0  0  0  0  0  0  0  0  0  0  0
    1.1485    5.2620    0.2462 H   0  0  0  0  0  0  0  0  0  0  0  0
    0.7850    4.7861   -1.4240 H   0  0  0  0  0  0  0  0  0  0  0  0
  1  2  1  0  0  0  0
  2  3  1  0  0  0  0
  2  4  1  0  0  0  0
  2  5  1  0  0  0  0
  5  6  2  0  0  0  0
  5  7  1  0  0  0  0
  7  8  1  0  0  0  0
  7  9  1  0  0  0  0
  9 10  1  0  0  0  0
  9 11  1  0  0  0  0
  9 23  1  0  0  0  0
 11 12  1  0  0  0  0
 11 13  1  0  0  0  0
 11 14  1  0  0  0  0
 14 15  1  0  0  0  0
 14 21  2  0  0  0  0
 15 16  1  0  0  0  0
 15 17  2  0  0  0  0
 17 18  1  0  0  0  0
 17 19  1  0  0  0  0
 19 20  1  0  0  0  0
 19 21  1  0  0  0  0
 21 22  1  0  0  0  0
 23 24  2  0  0  0  0
 23 25  1  0  0  0  0
 25 26  1  0  0  0  0
 25 27  1  0  0  0  0
 27 28  1  0  0  0  0
 27 29  1  0  0  0  0
 27 30  1  0  0  0  0
M  CHG  1  15   1
M  END
$$$$

  -OEChem-01062216083D

 30 30  0     1  0  0  0  0  0999 V2000
   -3.4623   -1.9482    1.5443 H   0  0  0  0  0  0  0  0  0  0  0  0
   -3.3115   -1.1540    0.8079 C   0  0  0  0  0  0  0  0  0  0  0  0
   -3.9032   -0.2843    1.1052 H   0  0  0  0  0  0  0  0  0  0  0  0
   -3.6603   -1.5050   -0.1662 H   0  0  0  0  0  0  0  0  0  0  0  0
   -1.8439   -0.7798    0.7330 C   0  0  0  0  0  0  0  0  0  0  0  0
   -1.0264   -1.3386    1.4512 O   0  0  0  0  0  0  0  0  0  0  0  0
   -1.4262    0.2044   -0.1406 N   0  0  0  0  0  0  0  0  0  0  0  0
   -2.1506    0.7143   -0.6518 H   0  0  0  0  0  0  0  0  0  0  0  0
   -0.0691    0.7775   -0.1761 C   0  0  1  0  0  0  0  0  0  0  0  0
    0.3684    0.7707    0.8277 H   0  0  0  0  0  0  0  0  0  0  0  0
    0.8321    0.0070   -1.1650 C   0  0  0  0  0  0  0  0  0  0  0  0
    0.3648    0.0334   -2.1563 H   0  0  0  0  0  0  0  0  0  0  0  0
    1.8016    0.5086   -1.2542 H   0  0  0  0  0  0  0  0  0  0  0  0
    1.0540   -1.4279   -0.7522 C   0  0  0  0  0  0  0  0  0  0  0  0
    1.8791   -1.8938    0.2734 N   0  3  0  0  0  0  0  0  0  0  0  0
    2.3445   -1.2731    0.9387 H   0  0  0  0  0  0  0  0  0  0  0  0
    1.8061   -3.2000    0.3559 C   0  0  0  0  0  0  0  0  0  0  0  0
    2.2916   -3.8295    1.1034 H   0  0  0  0  0  0  0  0  0  0  0  0
    0.9691   -3.6332   -0.6688 N   0  0  0  0  0  0  0  0  0  0  0  0
    0.7023   -4.6050   -0.8506 H   0  0  0  0  0  0  0  0  0  0  0  0
    0.5001   -2.5251   -1.3631 C   0  0  0  0  0  0  0  0  0  0  0  0
   -0.1864   -2.5146   -2.2094 H   0  0  0  0  0  0  0  0  0  0  0  0
   -0.1418    2.2411   -0.6583 C   0  0  0  0  0  0  0  0  0  0  0  0
   -1.0078    2.5559   -1.4638 O   0  0  0  0  0  0  0  0  0  0  0  0
    0.7786    3.1841   -0.2374 N   0  0  0  0  0  0  0  0  0  0  0  0
    1.4203    2.9297    0.5081 H   0  0  0  0  0  0  0  0  0  0  0  0
    0.7148    4.5851   -0.6476 C   0  0  0  0  0  0  0  0  0  0  0  0
   -0.2194    5.0440   -0.3058 H   0  0  0  0  0  0  0  0  0  0  0  0
    1.5515    5.1467   -0.2201 H   0  0  0  0  0  0  0  0  0  0  0  0
    0.7673    4.6700   -1.7386 H   0  0  0  0  0  0  0  0  0  0  0  0
  1  2  1  0  0  0  0
  2  3  1  0  0  0  0
  2  4  1  0  0  0  0
  2  5  1  0  0  0  0
  5  6  2  0  0  0  0
  5  7  1  0  0  0  0
  7  8  1  0  0  0  0
  7  9  1  0  0  0  0
  9 10  1  0  0  0  0
  9 11  1  0  0  0  0
  9 23  1  0  0  0  0
 11 12  1  0  0  0  0
 11 13  1  0  0  0  0
 11 14  1  0  0  0  0
 14 15  1  0  0  0  0
 14 21  2  0  0  0  0
 15 16  1  0  0  0  0
 15 17  2  0  0  0  0
 17 18  1  0  0  0  0
 17 19  1  0  0  0  0
 19 20  1  0  0  0  0
 19 21  1  0  0  0  0
 21 22  1  0  0  0  0
 23 24  2  0  0  0  0
 23 25  1  0  0  0  0
 25 26  1  0  0  0  0
 25 27  1  0  0  0  0
 27 28  1  0  0  0  0
 27 29  1  0  0  0  0
 27 30  1  0  0  0  0
M  CHG  1  15   1
M  END
$$$$

  -OEChem-01062216083D

 30 30  0     1  0  0  0  0  0999 V2000
   -3.4665   -1.9372    1.5481 H   0  0  0  0  0  0  0  0  0  0  0  0
   -3.3176   -1.1438    0.8103 C   0  0  0  0  0  0  0  0  0  0  0  0
   -3.8942   -0.2676    1.1174 H   0  0  0  0  0  0  0  0  0  0  0  0
   -3.6851   -1.4897   -0.1586 H   0  0  0  0  0  0  0  0  0  0  0  0
   -1.8472   -0.7865    0.7140 C   0  0  0  0  0  0  0  0  0  0  0  0
   -1.0276   -1.3539    1.4230 O   0  0  0  0  0  0  0  0  0  0  0  0
   -1.4324    0.1962   -0.1629 N   0  0  0  0  0  0  0  0  0  0  0  0
   -2.1639    0.7359   -0.6326 H   0  0  0  0  0  0  0  0  0  0  0  0
   -0.0781    0.7773   -0.1950 C   0  0  1  0  0  0  0  0  0  0  0  0
    0.3544    0.7791    0.8111 H   0  0  0  0  0  0  0  0  0  0  0  0
    0.8281   -0.0004   -1.1765 C   0  0  0  0  0  0  0  0  0  0  0  0
    0.3622    0.0177   -2.1686 H   0  0  0  0  0  0  0  0  0  0  0  0
    1.7977    0.4998   -1.2688 H   0  0  0  0  0  0  0  0  0  0  0  0
    1.0544   -1.4323   -0.7544 C   0  0  0  0  0  0  0  0  0  0  0  0
    1.8805   -1.8864    0.2762 N   0  3  0  0  0  0  0  0  0  0  0  0
    2.3373   -1.2593    0.9413 H   0  0  0  0  0  0  0  0  0  0  0  0
    1.8134   -3.1921    0.3686 C   0  0  0  0  0  0  0  0  0  0  0  0
    2.2983   -3.8133    1.1235 H   0  0  0  0  0  0  0  0  0  0  0  0
    0.9816   -3.6377   -0.6550 N   0  0  0  0  0  0  0  0  0  0  0  0
    0.7192   -4.6123   -0.8287 H   0  0  0  0  0  0  0  0  0  0  0  0
    0.5078   -2.5374   -1.3585 C   0  0  0  0  0  0  0  0  0  0  0  0
   -0.1782   -2.5387   -2.2053 H   0  0  0  0  0  0  0  0  0  0  0  0
   -0.1533    2.2410   -0.6846 C   0  0  0  0  0  0  0  0  0  0  0  0
   -1.1490    2.6181   -1.2888 O   0  0  0  0  0  0  0  0  0  0  0  0
    0.9110    3.1100   -0.5199 N   0  0  0  0  0  0  0  0  0  0  0  0
    1.6863    2.8157    0.0664 H   0  0  0  0  0  0  0  0  0  0  0  0
    0.8662    4.5028   -0.9603 C   0  0  0  0  0  0  0  0  0  0  0  0
    0.0646    5.0437   -0.4455 H   0  0  0  0  0  0  0  0  0  0  0  0
    1.8149    5.0036   -0.7426 H   0  0  0  0  0  0  0  0  0  0  0  0
    0.6888    4.5599   -2.0399 H   0  0  0  0  0  0  0  0  0  0  0  0
  1  2  1  0  0  0  0
  2  3  1  0  0  0  0
  2  4  1  0  0  0  0
  2  5  1  0  0  0  0
  5  6  2  0  0  0  0
  5  7  1  0  0  0  0
  7  8  1  0  0  0  0
  7  9  1  0  0  0  0
  9 10  1  0  0  0  0
  9 11  1  0  0  0  0
  9 23  1  0  0  0  0
 11 12  1  0  0  0  0
 11 13  1  0  0  0  0
 11 14  1  0  0  0  0
 14 15  1  0  0  0  0
 14 21  2  0  0  0  0
 15 16  1  0  0  0  0
 15 17  2  0  0  0  0
 17 18  1  0  0  0  0
 17 19  1  0  0  0  0
 19 20  1  0  0  0  0
 19 21  1  0  0  0  0
 21 22  1  0  0  0  0
 23 24  2  0  0  0  0
 23 25  1  0  0  0  0
 25 26  1  0  0  0  0
 25 27  1  0  0  0  0
 27 28  1  0  0  0  0
 27 29  1  0  0  0  0
 27 30  1  0  0  0  0
M  CHG  1  15   1
M  END
$$$$

  -OEChem-01062216083D

 30 30  0     1  0  0  0  0  0999 V2000
   -3.3374   -1.9588    1.5598 H   0  0  0  0  0  0  0  0  0  0  0  0
   -3.2397   -1.1312    0.8517 C   0  0  0  0  0  0  0  0  0  0  0  0
   -3.7085   -0.2434    1.2841 H   0  0  0  0  0  0  0  0  0  0  0  0
   -3.7602   -1.3940   -0.0723 H   0  0  0  0  0  0  0  0  0  0  0  0
   -1.7764   -0.8558    0.5656 C   0  0  0  0  0  0  0  0  0  0  0  0
   -0.9044   -1.5418    1.0822 O   0  0  0  0  0  0  0  0  0  0  0  0
   -1.4204    0.1584   -0.3016 N   0  0  0  0  0  0  0  0  0  0  0  0
   -2.1770    0.8000   -0.5531 H   0  0  0  0  0  0  0  0  0  0  0  0
   -0.0715    0.7541   -0.3168 C   0  0  1  0  0  0  0  0  0  0  0  0
    0.4633    0.5193    0.6098 H   0  0  0  0  0  0  0  0  0  0  0  0
    0.7108    0.2132   -1.5309 C   0  0  0  0  0  0  0  0  0  0  0  0
    0.1482    0.4409   -2.4435 H   0  0  0  0  0  0  0  0  0  0  0  0
    1.6813    0.7121   -1.6163 H   0  0  0  0  0  0  0  0  0  0  0  0
    0.9274   -1.2776   -1.4204 C   0  0  0  0  0  0  0  0  0  0  0  0
    1.8311   -1.9392   -0.5861 N   0  3  0  0  0  0  0  0  0  0  0  0
    2.3757   -1.4617    0.1351 H   0  0  0  0  0  0  0  0  0  0  0  0
    1.7151   -3.2368   -0.7313 C   0  0  0  0  0  0  0  0  0  0  0  0
    2.2433   -4.0015   -0.1590 H   0  0  0  0  0  0  0  0  0  0  0  0
    0.7666   -3.4591   -1.7260 N   0  0  0  0  0  0  0  0  0  0  0  0
    0.4423   -4.3760   -2.0472 H   0  0  0  0  0  0  0  0  0  0  0  0
    0.2731   -2.2339   -2.1560 C   0  0  0  0  0  0  0  0  0  0  0  0
   -0.4988   -2.0568   -2.9045 H   0  0  0  0  0  0  0  0  0  0  0  0
   -0.1766    2.2956   -0.3896 C   0  0  0  0  0  0  0  0  0  0  0  0
   -1.2799    2.8132   -0.5063 O   0  0  0  0  0  0  0  0  0  0  0  0
    0.9507    3.0989   -0.4145 N   0  0  0  0  0  0  0  0  0  0  0  0
    1.8536    2.6695   -0.2373 H   0  0  0  0  0  0  0  0  0  0  0  0
    0.8799    4.5572   -0.4869 C   0  0  0  0  0  0  0  0  0  0  0  0
    0.3625    4.9617    0.3899 H   0  0  0  0  0  0  0  0  0  0  0  0
    1.8859    4.9871   -0.5224 H   0  0  0  0  0  0  0  0  0  0  0  0
    0.3408    4.8733   -1.3869 H   0  0  0  0  0  0  0  0  0  0  0  0
  1  2  1  0  0  0  0
  2  3  1  0  0  0  0
  2  4  1  0  0  0  0
  2  5  1  0  0  0  0
  5  6  2  0  0  0  0
  5  7  1  0  0  0  0
  7  8  1  0  0  0  0
  7  9  1  0  0  0  0
  9 10  1  0  0  0  0
  9 11  1  0  0  0  0
  9 23  1  0  0  0  0
 11 12  1  0  0  0  0
 11 13  1  0  0  0  0
 11 14  1  0  0  0  0
 14 15  1  0  0  0  0
 14 21  2  0  0  0  0
 15 16  1  0  0  0  0
 15 17  2  0  0  0  0
 17 18  1  0  0  0  0
 17 19  1  0  0  0  0
 19 20  1  0  0  0  0
 19 21  1  0  0  0  0
 21 22  1  0  0  0  0
 23 24  2  0  0  0  0
 23 25  1  0  0  0  0
 25 26  1  0  0  0  0
 25 27  1  0  0  0  0
 27 28  1  0  0  0  0
 27 29  1  0  0  0  0
 27 30  1  0  0  0  0
M  CHG  1  15   1
M  END
$$$$

  -OEChem-01062216083D

 30 30  0     1  0  0  0  0  0999 V2000
   -3.3293   -1.9502    1.5604 H   0  0  0  0  0  0  0  0  0  0  0  0
   -3.2365   -1.1178    0.8571 C   0  0  0  0  0  0  0  0  0  0  0  0
   -3.6854   -0.2285    1.3072 H   0  0  0  0  0  0  0  0  0  0  0  0
   -3.7797   -1.3665   -0.0577 H   0  0  0  0  0  0  0  0  0  0  0  0
   -1.7760   -0.8573    0.5428 C   0  0  0  0  0  0  0  0  0  0  0  0
   -0.9032   -1.5535    1.0441 O   0  0  0  0  0  0  0  0  0  0  0  0
   -1.4260    0.1593   -0.3251 N   0  0  0  0  0  0  0  0  0  0  0  0
   -2.1829    0.8136   -0.5395 H   0  0  0  0  0  0  0  0  0  0  0  0
   -0.0760    0.7548   -0.3388 C   0  0  1  0  0  0  0  0  0  0  0  0
    0.4560    0.5252    0.5909 H   0  0  0  0  0  0  0  0  0  0  0  0
    0.7131    0.2003   -1.5448 C   0  0  0  0  0  0  0  0  0  0  0  0
    0.1573    0.4208   -2.4632 H   0  0  0  0  0  0  0  0  0  0  0  0
    1.6872    0.6915   -1.6283 H   0  0  0  0  0  0  0  0  0  0  0  0
    0.9293   -1.2894   -1.4208 C   0  0  0  0  0  0  0  0  0  0  0  0
    1.8294   -1.9435   -0.5763 N   0  3  0  0  0  0  0  0  0  0  0  0
    2.3636   -1.4608    0.1496 H   0  0  0  0  0  0  0  0  0  0  0  0
    1.7144   -3.2422   -0.7122 C   0  0  0  0  0  0  0  0  0  0  0  0
    2.2376   -4.0021   -0.1293 H   0  0  0  0  0  0  0  0  0  0  0  0
    0.7732   -3.4731   -1.7116 N   0  0  0  0  0  0  0  0  0  0  0  0
    0.4521   -4.3927   -2.0276 H   0  0  0  0  0  0  0  0  0  0  0  0
    0.2805   -2.2519   -2.1535 C   0  0  0  0  0  0  0  0  0  0  0  0
   -0.4873   -2.0816   -2.9077 H   0  0  0  0  0  0  0  0  0  0  0  0
   -0.1886    2.2985   -0.4079 C   0  0  0  0  0  0  0  0  0  0  0  0
   -1.2871    2.8188   -0.2629 O   0  0  0  0  0  0  0  0  0  0  0  0
    0.8908    3.1027   -0.7346 N   0  0  0  0  0  0  0  0  0  0  0  0
    1.8108    2.6779   -0.7943 H   0  0  0  0  0  0  0  0  0  0  0  0
    0.7939    4.5584   -0.8287 C   0  0  0  0  0  0  0  0  0  0  0  0
    0.4860    4.9868    0.1317 H   0  0  0  0  0  0  0  0  0  0  0  0
    1.7620    4.9889   -1.1037 H   0  0  0  0  0  0  0  0  0  0  0  0
    0.0620    4.8481   -1.5910 H   0  0  0  0  0  0  0  0  0  0  0  0
  1  2  1  0  0  0  0
  2  3  1  0  0  0  0
  2  4  1  0  0  0  0
  2  5  1  0  0  0  0
  5  6  2  0  0  0  0
  5  7  1  0  0  0  0
  7  8  1  0  0  0  0
  7  9  1  0  0  0  0
  9 10  1  0  0  0  0
  9 11  1  0  0  0  0
  9 23  1  0  0  0  0
 11 12  1  0  0  0  0
 11 13  1  0  0  0  0
 11 14  1  0  0  0  0
 14 15  1  0  0  0  0
 14 21  2  0  0  0  0
 15 16  1  0  0  0  0
 15 17  2  0  0  0  0
 17 18  1  0  0  0  0
 17 19  1  0  0  0  0
 19 20  1  0  0  0  0
 19 21  1  0  0  0  0
 21 22  1  0  0  0  0
 23 24  2  0  0  0  0
 23 25  1  0  0  0  0
 25 26  1  0  0  0  0
 25 27  1  0  0  0  0
 27 28  1  0  0  0  0
 27 29  1  0  0  0  0
 27 30  1  0  0  0  0
M  CHG  1  15   1
M  END
$$$$

  -OEChem-01062216083D

 30 30  0     1  0  0  0  0  0999 V2000
   -3.3238   -1.9390    1.5545 H   0  0  0  0  0  0  0  0  0  0  0  0
   -3.2322   -1.1007    0.8581 C   0  0  0  0  0  0  0  0  0  0  0  0
   -3.6603   -0.2098    1.3249 H   0  0  0  0  0  0  0  0  0  0  0  0
   -3.7949   -1.3321   -0.0493 H   0  0  0  0  0  0  0  0  0  0  0  0
   -1.7743   -0.8566    0.5206 C   0  0  0  0  0  0  0  0  0  0  0  0
   -0.9025   -1.5646    1.0069 O   0  0  0  0  0  0  0  0  0  0  0  0
   -1.4291    0.1632   -0.3458 N   0  0  0  0  0  0  0  0  0  0  0  0
   -2.1858    0.8259   -0.5302 H   0  0  0  0  0  0  0  0  0  0  0  0
   -0.0763    0.7531   -0.3630 C   0  0  1  0  0  0  0  0  0  0  0  0
    0.4536    0.5268    0.5688 H   0  0  0  0  0  0  0  0  0  0  0  0
    0.7205    0.1873   -1.5598 C   0  0  0  0  0  0  0  0  0  0  0  0
    0.1725    0.4012   -2.4843 H   0  0  0  0  0  0  0  0  0  0  0  0
    1.6975    0.6735   -1.6360 H   0  0  0  0  0  0  0  0  0  0  0  0
    0.9352   -1.3012   -1.4228 C   0  0  0  0  0  0  0  0  0  0  0  0
    1.8301   -1.9476   -0.5669 N   0  3  0  0  0  0  0  0  0  0  0  0
    2.3576   -1.4584    0.1597 H   0  0  0  0  0  0  0  0  0  0  0  0
    1.7130   -3.2475   -0.6887 C   0  0  0  0  0  0  0  0  0  0  0  0
    2.2288   -4.0018   -0.0922 H   0  0  0  0  0  0  0  0  0  0  0  0
    0.7788   -3.4873   -1.6927 N   0  0  0  0  0  0  0  0  0  0  0  0
    0.4550   -4.4096   -1.9980 H   0  0  0  0  0  0  0  0  0  0  0  0
    0.2910   -2.2701   -2.1508 C   0  0  0  0  0  0  0  0  0  0  0  0
   -0.4724   -2.1067   -2.9111 H   0  0  0  0  0  0  0  0  0  0  0  0
   -0.1972    2.2974   -0.4231 C   0  0  0  0  0  0  0  0  0  0  0  0
   -1.2247    2.8182   -0.0106 O   0  0  0  0  0  0  0  0  0  0  0  0
    0.7524    3.1030   -1.0305 N   0  0  0  0  0  0  0  0  0  0  0  0
    1.6158    2.6796   -1.3542 H   0  0  0  0  0  0  0  0  0  0  0  0
    0.6119    4.5546   -1.1329 C   0  0  0  0  0  0  0  0  0  0  0  0
    0.5316    5.0049   -0.1373 H   0  0  0  0  0  0  0  0  0  0  0  0
    1.4812    4.9883   -1.6373 H   0  0  0  0  0  0  0  0  0  0  0  0
   -0.2837    4.8156   -1.7074 H   0  0  0  0  0  0  0  0  0  0  0  0
  1  2  1  0  0  0  0
  2  3  1  0  0  0  0
  2  4  1  0  0  0  0
  2  5  1  0  0  0  0
  5  6  2  0  0  0  0
  5  7  1  0  0  0  0
  7  8  1  0  0  0  0
  7  9  1  0  0  0  0
  9 10  1  0  0  0  0
  9 11  1  0  0  0  0
  9 23  1  0  0  0  0
 11 12  1  0  0  0  0
 11 13  1  0  0  0  0
 11 14  1  0  0  0  0
 14 15  1  0  0  0  0
 14 21  2  0  0  0  0
 15 16  1  0  0  0  0
 15 17  2  0  0  0  0
 17 18  1  0  0  0  0
 17 19  1  0  0  0  0
 19 20  1  0  0  0  0
 19 21  1  0  0  0  0
 21 22  1  0  0  0  0
 23 24  2  0  0  0  0
 23 25  1  0  0  0  0
 25 26  1  0  0  0  0
 25 27  1  0  0  0  0
 27 28  1  0  0  0  0
 27 29  1  0  0  0  0
 27 30  1  0  0  0  0
M  CHG  1  15   1
M  END
$$$$

  -OEChem-01062216083D

 30 30  0     1  0  0  0  0  0999 V2000
   -3.3279   -1.9435    1.5481 H   0  0  0  0  0  0  0  0  0  0  0  0
   -3.2399   -1.0944    0.8644 C   0  0  0  0  0  0  0  0  0  0  0  0
   -3.6567   -0.2088    1.3516 H   0  0  0  0  0  0  0  0  0  0  0  0
   -3.8160   -1.3082   -0.0390 H   0  0  0  0  0  0  0  0  0  0  0  0
   -1.7847   -0.8534    0.5121 C   0  0  0  0  0  0  0  0  0  0  0  0
   -0.9115   -1.5687    0.9847 O   0  0  0  0  0  0  0  0  0  0  0  0
   -1.4462    0.1698   -0.3538 N   0  0  0  0  0  0  0  0  0  0  0  0
   -2.2054    0.8318   -0.5240 H   0  0  0  0  0  0  0  0  0  0  0  0
   -0.0911    0.7545   -0.3829 C   0  0  1  0  0  0  0  0  0  0  0  0
    0.4390    0.5298    0.5496 H   0  0  0  0  0  0  0  0  0  0  0  0
    0.7134    0.1817   -1.5710 C   0  0  0  0  0  0  0  0  0  0  0  0
    0.1702    0.3854   -2.5003 H   0  0  0  0  0  0  0  0  0  0  0  0
    1.6894    0.6721   -1.6410 H   0  0  0  0  0  0  0  0  0  0  0  0
    0.9347   -1.3047   -1.4245 C   0  0  0  0  0  0  0  0  0  0  0  0
    1.8311   -1.9351   -0.5586 N   0  3  0  0  0  0  0  0  0  0  0  0
    2.3488   -1.4344    0.1673 H   0  0  0  0  0  0  0  0  0  0  0  0
    1.7301   -3.2370   -0.6727 C   0  0  0  0  0  0  0  0  0  0  0  0
    2.2523   -3.9813   -0.0690 H   0  0  0  0  0  0  0  0  0  0  0  0
    0.8035   -3.4943   -1.6795 N   0  0  0  0  0  0  0  0  0  0  0  0
    0.4917   -4.4225   -1.9795 H   0  0  0  0  0  0  0  0  0  0  0  0
    0.3040   -2.2857   -2.1483 C   0  0  0  0  0  0  0  0  0  0  0  0
   -0.4572   -2.1372   -2.9135 H   0  0  0  0  0  0  0  0  0  0  0  0
   -0.2076    2.2981   -0.4338 C   0  0  0  0  0  0  0  0  0  0  0  0
   -1.0922    2.8293    0.2215 O   0  0  0  0  0  0  0  0  0  0  0  0
    0.5486    3.0885   -1.2847 N   0  0  0  0  0  0  0  0  0  0  0  0
    1.2594    2.6467   -1.8583 H   0  0  0  0  0  0  0  0  0  0  0  0
    0.3756    4.5365   -1.3880 C   0  0  0  0  0  0  0  0  0  0  0  0
    0.5245    5.0132   -0.4128 H   0  0  0  0  0  0  0  0  0  0  0  0
    1.1011    4.9590   -2.0905 H   0  0  0  0  0  0  0  0  0  0  0  0
   -0.6311    4.7798   -1.7453 H   0  0  0  0  0  0  0  0  0  0  0  0
  1  2  1  0  0  0  0
  2  3  1  0  0  0  0
  2  4  1  0  0  0  0
  2  5  1  0  0  0  0
  5  6  2  0  0  0  0
  5  7  1  0  0  0  0
  7  8  1  0  0  0  0
  7  9  1  0  0  0  0
  9 10  1  0  0  0  0
  9 11  1  0  0  0  0
  9 23  1  0  0  0  0
 11 12  1  0  0  0  0
 11 13  1  0  0  0  0
 11 14  1  0  0  0  0
 14 15  1  0  0  0  0
 14 21  2  0  0  0  0
 15 16  1  0  0  0  0
 15 17  2  0  0  0  0
 17 18  1  0  0  0  0
 17 19  1  0  0  0  0
 19 20  1  0  0  0  0
 19 21  1  0  0  0  0
 21 22  1  0  0  0  0
 23 24  2  0  0  0  0
 23 25  1  0  0  0  0
 25 26  1  0  0  0  0
 25 27  1  0  0  0  0
 27 28  1  0  0  0  0
 27 29  1  0  0  0  0
 27 30  1  0  0  0  0
M  CHG  1  15   1
M  END
$$$$

  -OEChem-01062216083D

 30 30  0     1  0  0  0  0  0999 V2000
   -3.3285   -1.9528    1.5442 H   0  0  0  0  0  0  0  0  0  0  0  0
   -3.2457   -1.1036    0.8599 C   0  0  0  0  0  0  0  0  0  0  0  0
   -3.6628   -0.2192    1.3487 H   0  0  0  0  0  0  0  0  0  0  0  0
   -3.8244   -1.3189   -0.0415 H   0  0  0  0  0  0  0  0  0  0  0  0
   -1.7930   -0.8580    0.5018 C   0  0  0  0  0  0  0  0  0  0  0  0
   -0.9161   -1.5733    0.9671 O   0  0  0  0  0  0  0  0  0  0  0  0
   -1.4641    0.1697   -0.3630 N   0  0  0  0  0  0  0  0  0  0  0  0
   -2.2309    0.8202   -0.5384 H   0  0  0  0  0  0  0  0  0  0  0  0
   -0.1106    0.7569   -0.4050 C   0  0  1  0  0  0  0  0  0  0  0  0
    0.4220    0.5342    0.5267 H   0  0  0  0  0  0  0  0  0  0  0  0
    0.7005    0.1832   -1.5876 C   0  0  0  0  0  0  0  0  0  0  0  0
    0.1565    0.3715   -2.5196 H   0  0  0  0  0  0  0  0  0  0  0  0
    1.6704    0.6869   -1.6581 H   0  0  0  0  0  0  0  0  0  0  0  0
    0.9341   -1.3002   -1.4301 C   0  0  0  0  0  0  0  0  0  0  0  0
    1.8362   -1.9116   -0.5564 N   0  3  0  0  0  0  0  0  0  0  0  0
    2.3541   -1.3962    0.1590 H   0  0  0  0  0  0  0  0  0  0  0  0
    1.7462   -3.2155   -0.6527 C   0  0  0  0  0  0  0  0  0  0  0  0
    2.2763   -3.9466   -0.0400 H   0  0  0  0  0  0  0  0  0  0  0  0
    0.8204   -3.4941   -1.6545 N   0  0  0  0  0  0  0  0  0  0  0  0
    0.5143   -4.4290   -1.9392 H   0  0  0  0  0  0  0  0  0  0  0  0
    0.3107   -2.2961   -2.1400 C   0  0  0  0  0  0  0  0  0  0  0  0
   -0.4536   -2.1647   -2.9053 H   0  0  0  0  0  0  0  0  0  0  0  0
   -0.2238    2.2984   -0.4480 C   0  0  0  0  0  0  0  0  0  0  0  0
   -0.8983    2.8437    0.4112 O   0  0  0  0  0  0  0  0  0  0  0  0
    0.2813    3.0683   -1.4835 N   0  0  0  0  0  0  0  0  0  0  0  0
    0.7846    2.6064   -2.2339 H   0  0  0  0  0  0  0  0  0  0  0  0
    0.0926    4.5157   -1.5619 C   0  0  0  0  0  0  0  0  0  0  0  0
    0.5177    5.0078   -0.6801 H   0  0  0  0  0  0  0  0  0  0  0  0
    0.5879    4.9181   -2.4512 H   0  0  0  0  0  0  0  0  0  0  0  0
   -0.9731    4.7628   -1.6203 H   0  0  0  0  0  0  0  0  0  0  0  0
  1  2  1  0  0  0  0
  2  3  1  0  0  0  0
  2  4  1  0  0  0  0
  2  5  1  0  0  0  0
  5  6  2  0  0  0  0
  5  7  1  0  0  0  0
  7  8  1  0  0  0  0
  7  9  1  0  0  0  0
  9 10  1  0  0  0  0
  9 11  1  0  0  0  0
  9 23  1  0  0  0  0
 11 12  1  0  0  0  0
 11 13  1  0  0  0  0
 11 14  1  0  0  0  0
 14 15  1  0  0  0  0
 14 21  2  0  0  0  0
 15 16  1  0  0  0  0
 15 17  2  0  0  0  0
 17 18  1  0  0  0  0
 17 19  1  0  0  0  0
 19 20  1  0  0  0  0
 19 21  1  0  0  0  0
 21 22  1  0  0  0  0
 23 24  2  0  0  0  0
 23 25  1  0  0  0  0
 25 26  1  0  0  0  0
 25 27  1  0  0  0  0
 27 28  1  0  0  0  0
 27 29  1  0  0  0  0
 27 30  1  0  0  0  0
M  CHG  1  15   1
M  END
$$$$

  -OEChem-01062216083D

 30 30  0     1  0  0  0  0  0999 V2000
   -3.3226   -1.9920    1.5407 H   0  0  0  0  0  0  0  0  0  0  0  0
   -3.2541   -1.1348    0.8647 C   0  0  0  0  0  0  0  0  0  0  0  0
   -3.6815   -0.2616    1.3646 H   0  0  0  0  0  0  0  0  0  0  0  0
   -3.8332   -1.3490   -0.0366 H   0  0  0  0  0  0  0  0  0  0  0  0
   -1.8059   -0.8659    0.5049 C   0  0  0  0  0  0  0  0  0  0  0  0
   -0.9195   -1.5722    0.9649 O   0  0  0  0  0  0  0  0  0  0  0  0
   -1.4917    0.1667   -0.3605 N   0  0  0  0  0  0  0  0  0  0  0  0
   -2.2687    0.7989   -0.5516 H   0  0  0  0  0  0  0  0  0  0  0  0
   -0.1414    0.7609   -0.4174 C   0  0  1  0  0  0  0  0  0  0  0  0
    0.3969    0.5380    0.5115 H   0  0  0  0  0  0  0  0  0  0  0  0
    0.6749    0.1944   -1.5994 C   0  0  0  0  0  0  0  0  0  0  0  0
    0.1285    0.3696   -2.5320 H   0  0  0  0  0  0  0  0  0  0  0  0
    1.6365    0.7142   -1.6728 H   0  0  0  0  0  0  0  0  0  0  0  0
    0.9246   -1.2851   -1.4360 C   0  0  0  0  0  0  0  0  0  0  0  0
    1.8356   -1.8765   -0.5583 N   0  3  0  0  0  0  0  0  0  0  0  0
    2.3442   -1.3478    0.1544 H   0  0  0  0  0  0  0  0  0  0  0  0
    1.7635   -3.1821   -0.6436 C   0  0  0  0  0  0  0  0  0  0  0  0
    2.3026   -3.9005   -0.0237 H   0  0  0  0  0  0  0  0  0  0  0  0
    0.8420   -3.4816   -1.6434 N   0  0  0  0  0  0  0  0  0  0  0  0
    0.5491   -4.4230   -1.9205 H   0  0  0  0  0  0  0  0  0  0  0  0
    0.3151   -2.2948   -2.1384 C   0  0  0  0  0  0  0  0  0  0  0  0
   -0.4505   -2.1810   -2.9050 H   0  0  0  0  0  0  0  0  0  0  0  0
   -0.2444    2.3007   -0.4544 C   0  0  0  0  0  0  0  0  0  0  0  0
   -0.6370    2.8725    0.5491 O   0  0  0  0  0  0  0  0  0  0  0  0
   -0.0277    3.0400   -1.6058 N   0  0  0  0  0  0  0  0  0  0  0  0
    0.2185    2.5489   -2.4591 H   0  0  0  0  0  0  0  0  0  0  0  0
   -0.2082    4.4891   -1.6649 C   0  0  0  0  0  0  0  0  0  0  0  0
    0.4319    4.9874   -0.9284 H   0  0  0  0  0  0  0  0  0  0  0  0
    0.0547    4.8663   -2.6583 H   0  0  0  0  0  0  0  0  0  0  0  0
   -1.2505    4.7565   -1.4595 H   0  0  0  0  0  0  0  0  0  0  0  0
  1  2  1  0  0  0  0
  2  3  1  0  0  0  0
  2  4  1  0  0  0  0
  2  5  1  0  0  0  0
  5  6  2  0  0  0  0
  5  7  1  0  0  0  0
  7  8  1  0  0  0  0
  7  9  1  0  0  0  0
  9 10  1  0  0  0  0
  9 11  1  0  0  0  0
  9 23  1  0  0  0  0
 11 12  1  0  0  0  0
 11 13  1  0  0  0  0
 11 14  1  0  0  0  0
 14 15  1  0  0  0  0
 14 21  2  0  0  0  0
 15 16  1  0  0  0  0
 15 17  2  0  0  0  0
 17 18  1  0  0  0  0
 17 19  1  0  0  0  0
 19 20  1  0  0  0  0
 19 21  1  0  0  0  0
 21 22  1  0  0  0  0
 23 24  2  0  0  0  0
 23 25  1  0  0  0  0
 25 26  1  0  0  0  0
 25 27  1  0  0  0  0
 27 28  1  0  0  0  0
 27 29  1  0  0  0  0
 27 30  1  0  0  0  0
M  CHG  1  15   1
M  END
$$$$

  -OEChem-01062216083D

 30 30  0     1  0  0  0  0  0999 V2000
   -3.3247   -2.0377    1.5403 H   0  0  0  0  0  0  0  0  0  0  0  0
   -3.2697   -1.1726    0.8732 C   0  0  0  0  0  0  0  0  0  0  0  0
   -3.7125   -0.3122    1.3817 H   0  0  0  0  0  0  0  0  0  0  0  0
   -3.8445   -1.3882   -0.0305 H   0  0  0  0  0  0  0  0  0  0  0  0
   -1.8254   -0.8775    0.5173 C   0  0  0  0  0  0  0  0  0  0  0  0
   -0.9288   -1.5717    0.9752 O   0  0  0  0  0  0  0  0  0  0  0  0
   -1.5257    0.1592   -0.3490 N   0  0  0  0  0  0  0  0  0  0  0  0
   -2.3131    0.7719   -0.5579 H   0  0  0  0  0  0  0  0  0  0  0  0
   -0.1803    0.7641   -0.4165 C   0  0  1  0  0  0  0  0  0  0  0  0
    0.3635    0.5395    0.5093 H   0  0  0  0  0  0  0  0  0  0  0  0
    0.6418    0.2104   -1.5995 C   0  0  0  0  0  0  0  0  0  0  0  0
    0.0949    0.3781   -2.5327 H   0  0  0  0  0  0  0  0  0  0  0  0
    1.5953    0.7452   -1.6735 H   0  0  0  0  0  0  0  0  0  0  0  0
    0.9100   -1.2657   -1.4363 C   0  0  0  0  0  0  0  0  0  0  0  0
    1.8304   -1.8405   -0.5574 N   0  3  0  0  0  0  0  0  0  0  0  0
    2.3318   -1.3014    0.1529 H   0  0  0  0  0  0  0  0  0  0  0  0
    1.7855   -3.1471   -0.6457 C   0  0  0  0  0  0  0  0  0  0  0  0
    2.3411   -3.8551   -0.0286 H   0  0  0  0  0  0  0  0  0  0  0  0
    0.8705   -3.4630   -1.6465 N   0  0  0  0  0  0  0  0  0  0  0  0
    0.6014   -4.4096   -1.9296 H   0  0  0  0  0  0  0  0  0  0  0  0
    0.3213   -2.2860   -2.1412 C   0  0  0  0  0  0  0  0  0  0  0  0
   -0.4424   -2.1866   -2.9117 H   0  0  0  0  0  0  0  0  0  0  0  0
   -0.2749    2.3026   -0.4514 C   0  0  0  0  0  0  0  0  0  0  0  0
   -0.3277    2.9057    0.6071 O   0  0  0  0  0  0  0  0  0  0  0  0
   -0.3661    3.0086   -1.6392 N   0  0  0  0  0  0  0  0  0  0  0  0
   -0.4030    2.4881   -2.5101 H   0  0  0  0  0  0  0  0  0  0  0  0
   -0.5116    4.4619   -1.6886 C   0  0  0  0  0  0  0  0  0  0  0  0
    0.3163    4.9502   -1.1626 H   0  0  0  0  0  0  0  0  0  0  0  0
   -0.5108    4.8104   -2.7262 H   0  0  0  0  0  0  0  0  0  0  0  0
   -1.4528    4.7711   -1.2209 H   0  0  0  0  0  0  0  0  0  0  0  0
  1  2  1  0  0  0  0
  2  3  1  0  0  0  0
  2  4  1  0  0  0  0
  2  5  1  0  0  0  0
  5  6  2  0  0  0  0
  5  7  1  0  0  0  0
  7  8  1  0  0  0  0
  7  9  1  0  0  0  0
  9 10  1  0  0  0  0
  9 11  1  0  0  0  0
  9 23  1  0  0  0  0
 11 12  1  0  0  0  0
 11 13  1  0  0  0  0
 11 14  1  0  0  0  0
 14 15  1  0  0  0  0
 14 21  2  0  0  0  0
 15 16  1  0  0  0  0
 15 17  2  0  0  0  0
 17 18  1  0  0  0  0
 17 19  1  0  0  0  0
 19 20  1  0  0  0  0
 19 21  1  0  0  0  0
 21 22  1  0  0  0  0
 23 24  2  0  0  0  0
 23 25  1  0  0  0  0
 25 26  1  0  0  0  0
 25 27  1  0  0  0  0
 27 28  1  0  0  0  0
 27 29  1  0  0  0  0
 27 30  1  0  0  0  0
M  CHG  1  15   1
M  END
$$$$

  -OEChem-01062216083D

 30 30  0     1  0  0  0  0  0999 V2000
   -3.3303   -2.0922    1.5330 H   0  0  0  0  0  0  0  0  0  0  0  0
   -3.2850   -1.2203    0.8742 C   0  0  0  0  0  0  0  0  0  0  0  0
   -3.7468   -0.3723    1.3862 H   0  0  0  0  0  0  0  0  0  0  0  0
   -3.8485   -1.4381   -0.0362 H   0  0  0  0  0  0  0  0  0  0  0  0
   -1.8430   -0.8969    0.5339 C   0  0  0  0  0  0  0  0  0  0  0  0
   -0.9387   -1.5781    0.9951 O   0  0  0  0  0  0  0  0  0  0  0  0
   -1.5540    0.1465   -0.3285 N   0  0  0  0  0  0  0  0  0  0  0  0
   -2.3500    0.7420   -0.5522 H   0  0  0  0  0  0  0  0  0  0  0  0
   -0.2142    0.7648   -0.4021 C   0  0  1  0  0  0  0  0  0  0  0  0
    0.3356    0.5344    0.5190 H   0  0  0  0  0  0  0  0  0  0  0  0
    0.6103    0.2329   -1.5911 C   0  0  0  0  0  0  0  0  0  0  0  0
    0.0605    0.4042   -2.5219 H   0  0  0  0  0  0  0  0  0  0  0  0
    1.5566    0.7810   -1.6621 H   0  0  0  0  0  0  0  0  0  0  0  0
    0.8959   -1.2408   -1.4375 C   0  0  0  0  0  0  0  0  0  0  0  0
    1.8267   -1.8045   -0.5625 N   0  3  0  0  0  0  0  0  0  0  0  0
    2.3257   -1.2587    0.1447 H   0  0  0  0  0  0  0  0  0  0  0  0
    1.8010   -3.1113   -0.6545 C   0  0  0  0  0  0  0  0  0  0  0  0
    2.3702   -3.8129   -0.0424 H   0  0  0  0  0  0  0  0  0  0  0  0
    0.8867   -3.4377   -1.6527 N   0  0  0  0  0  0  0  0  0  0  0  0
    0.6312   -4.3875   -1.9380 H   0  0  0  0  0  0  0  0  0  0  0  0
    0.3195   -2.2673   -2.1433 C   0  0  0  0  0  0  0  0  0  0  0  0
   -0.4463   -2.1758   -2.9124 H   0  0  0  0  0  0  0  0  0  0  0  0
   -0.3053    2.3019   -0.4313 C   0  0  0  0  0  0  0  0  0  0  0  0
    0.0002    2.9297    0.5682 O   0  0  0  0  0  0  0  0  0  0  0  0
   -0.7053    2.9804   -1.5698 N   0  0  0  0  0  0  0  0  0  0  0  0
   -0.9893    2.4387   -2.3804 H   0  0  0  0  0  0  0  0  0  0  0  0
   -0.8087    4.4368   -1.6302 C   0  0  0  0  0  0  0  0  0  0  0  0
    0.1521    4.9020   -1.3842 H   0  0  0  0  0  0  0  0  0  0  0  0
   -1.0972    4.7585   -2.6359 H   0  0  0  0  0  0  0  0  0  0  0  0
   -1.5626    4.7986   -0.9226 H   0  0  0  0  0  0  0  0  0  0  0  0
  1  2  1  0  0  0  0
  2  3  1  0  0  0  0
  2  4  1  0  0  0  0
  2  5  1  0  0  0  0
  5  6  2  0  0  0  0
  5  7  1  0  0  0  0
  7  8  1  0  0  0  0
  7  9  1  0  0  0  0
  9 10  1  0  0  0  0
  9 11  1  0  0  0  0
  9 23  1  0  0  0  0
 11 12  1  0  0  0  0
 11 13  1  0  0  0  0
 11 14  1  0  0  0  0
 14 15  1  0  0  0  0
 14 21  2  0  0  0  0
 15 16  1  0  0  0  0
 15 17  2  0  0  0  0
 17 18  1  0  0  0  0
 17 19  1  0  0  0  0
 19 20  1  0  0  0  0
 19 21  1  0  0  0  0
 21 22  1  0  0  0  0
 23 24  2  0  0  0  0
 23 25  1  0  0  0  0
 25 26  1  0  0  0  0
 25 27  1  0  0  0  0
 27 28  1  0  0  0  0
 27 29  1  0  0  0  0
 27 30  1  0  0  0  0
M  CHG  1  15   1
M  END
$$$$

  -OEChem-01062216083D

 30 30  0     1  0  0  0  0  0999 V2000
   -3.3320   -2.1393    1.5473 H   0  0  0  0  0  0  0  0  0  0  0  0
   -3.2990   -1.2719    0.8817 C   0  0  0  0  0  0  0  0  0  0  0  0
   -3.7817   -0.4295    1.3834 H   0  0  0  0  0  0  0  0  0  0  0  0
   -3.8505   -1.5083   -0.0314 H   0  0  0  0  0  0  0  0  0  0  0  0
   -1.8612   -0.9228    0.5496 C   0  0  0  0  0  0  0  0  0  0  0  0
   -0.9483   -1.5924    1.0102 O   0  0  0  0  0  0  0  0  0  0  0  0
   -1.5846    0.1294   -0.3065 N   0  0  0  0  0  0  0  0  0  0  0  0
   -2.3883    0.7130   -0.5326 H   0  0  0  0  0  0  0  0  0  0  0  0
   -0.2506    0.7627   -0.3752 C   0  0  1  0  0  0  0  0  0  0  0  0
    0.3008    0.5269    0.5436 H   0  0  0  0  0  0  0  0  0  0  0  0
    0.5794    0.2571   -1.5704 C   0  0  0  0  0  0  0  0  0  0  0  0
    0.0296    0.4382   -2.4994 H   0  0  0  0  0  0  0  0  0  0  0  0
    1.5202    0.8160   -1.6319 H   0  0  0  0  0  0  0  0  0  0  0  0
    0.8806   -1.2146   -1.4339 C   0  0  0  0  0  0  0  0  0  0  0  0
    1.8179   -1.7740   -0.5636 N   0  3  0  0  0  0  0  0  0  0  0  0
    2.3122   -1.2269    0.1461 H   0  0  0  0  0  0  0  0  0  0  0  0
    1.8109   -3.0799   -0.6689 C   0  0  0  0  0  0  0  0  0  0  0  0
    2.3908   -3.7792   -0.0642 H   0  0  0  0  0  0  0  0  0  0  0  0
    0.9022   -3.4084   -1.6718 N   0  0  0  0  0  0  0  0  0  0  0  0
    0.6629   -4.3585   -1.9695 H   0  0  0  0  0  0  0  0  0  0  0  0
    0.3200   -2.2410   -2.1521 C   0  0  0  0  0  0  0  0  0  0  0  0
   -0.4438   -2.1517   -2.9234 H   0  0  0  0  0  0  0  0  0  0  0  0
   -0.3391    2.2987   -0.3955 C   0  0  0  0  0  0  0  0  0  0  0  0
    0.2729    2.9359    0.4449 O   0  0  0  0  0  0  0  0  0  0  0  0
   -1.0179    2.9626   -1.4027 N   0  0  0  0  0  0  0  0  0  0  0  0
   -1.4789    2.4107   -2.1198 H   0  0  0  0  0  0  0  0  0  0  0  0
   -1.0717    4.4199   -1.4952 C   0  0  0  0  0  0  0  0  0  0  0  0
   -0.0645    4.8357   -1.6086 H   0  0  0  0  0  0  0  0  0  0  0  0
   -1.6701    4.7265   -2.3590 H   0  0  0  0  0  0  0  0  0  0  0  0
   -1.5258    4.8461   -0.5938 H   0  0  0  0  0  0  0  0  0  0  0  0
  1  2  1  0  0  0  0
  2  3  1  0  0  0  0
  2  4  1  0  0  0  0
  2  5  1  0  0  0  0
  5  6  2  0  0  0  0
  5  7  1  0  0  0  0
  7  8  1  0  0  0  0
  7  9  1  0  0  0  0
  9 10  1  0  0  0  0
  9 11  1  0  0  0  0
  9 23  1  0  0  0  0
 11 12  1  0  0  0  0
 11 13  1  0  0  0  0
 11 14  1  0  0  0  0
 14 15  1  0  0  0  0
 14 21  2  0  0  0  0
 15 16  1  0  0  0  0
 15 17  2  0  0  0  0
 17 18  1  0  0  0  0
 17 19  1  0  0  0  0
 19 20  1  0  0  0  0
 19 21  1  0  0  0  0
 21 22  1  0  0  0  0
 23 24  2  0  0  0  0
 23 25  1  0  0  0  0
 25 26  1  0  0  0  0
 25 27  1  0  0  0  0
 27 28  1  0  0  0  0
 27 29  1  0  0  0  0
 27 30  1  0  0  0  0
M  CHG  1  15   1
M  END
$$$$

  -OEChem-01062216083D

 30 30  0     1  0  0  0  0  0999 V2000
   -3.3394   -2.1753    1.5656 H   0  0  0  0  0  0  0  0  0  0  0  0
   -3.3127   -1.3146    0.8910 C   0  0  0  0  0  0  0  0  0  0  0  0
   -3.8149   -0.4750    1.3782 H   0  0  0  0  0  0  0  0  0  0  0  0
   -3.8501   -1.5698   -0.0253 H   0  0  0  0  0  0  0  0  0  0  0  0
   -1.8769   -0.9464    0.5699 C   0  0  0  0  0  0  0  0  0  0  0  0
   -0.9582   -1.6054    1.0339 O   0  0  0  0  0  0  0  0  0  0  0  0
   -1.6082    0.1127   -0.2799 N   0  0  0  0  0  0  0  0  0  0  0  0
   -2.4178    0.6869   -0.5048 H   0  0  0  0  0  0  0  0  0  0  0  0
   -0.2785    0.7585   -0.3430 C   0  0  1  0  0  0  0  0  0  0  0  0
    0.2751    0.5178    0.5730 H   0  0  0  0  0  0  0  0  0  0  0  0
    0.5522    0.2735   -1.5457 C   0  0  0  0  0  0  0  0  0  0  0  0
   -0.0017    0.4642   -2.4706 H   0  0  0  0  0  0  0  0  0  0  0  0
    1.4887    0.8405   -1.6032 H   0  0  0  0  0  0  0  0  0  0  0  0
    0.8662   -1.1966   -1.4285 C   0  0  0  0  0  0  0  0  0  0  0  0
    1.8116   -1.7544   -0.5663 N   0  3  0  0  0  0  0  0  0  0  0  0
    2.3033   -1.2083    0.1460 H   0  0  0  0  0  0  0  0  0  0  0  0
    1.8234   -3.0585   -0.6899 C   0  0  0  0  0  0  0  0  0  0  0  0
    2.4161   -3.7575   -0.0976 H   0  0  0  0  0  0  0  0  0  0  0  0
    0.9177   -3.3860   -1.6959 N   0  0  0  0  0  0  0  0  0  0  0  0
    0.6938   -4.3348   -2.0092 H   0  0  0  0  0  0  0  0  0  0  0  0
    0.3188   -2.2205   -2.1599 C   0  0  0  0  0  0  0  0  0  0  0  0
   -0.4453   -2.1311   -2.9309 H   0  0  0  0  0  0  0  0  0  0  0  0
   -0.3567    2.2946   -0.3564 C   0  0  0  0  0  0  0  0  0  0  0  0
    0.4757    2.9263    0.2729 O   0  0  0  0  0  0  0  0  0  0  0  0
   -1.2641    2.9606   -1.1621 N   0  0  0  0  0  0  0  0  0  0  0  0
   -1.8559    2.4104   -1.7765 H   0  0  0  0  0  0  0  0  0  0  0  0
   -1.2949    4.4165   -1.2824 C   0  0  0  0  0  0  0  0  0  0  0  0
   -0.3582    4.7876   -1.7125 H   0  0  0  0  0  0  0  0  0  0  0  0
   -2.1200    4.7289   -1.9304 H   0  0  0  0  0  0  0  0  0  0  0  0
   -1.4363    4.8811   -0.3001 H   0  0  0  0  0  0  0  0  0  0  0  0
  1  2  1  0  0  0  0
  2  3  1  0  0  0  0
  2  4  1  0  0  0  0
  2  5  1  0  0  0  0
  5  6  2  0  0  0  0
  5  7  1  0  0  0  0
  7  8  1  0  0  0  0
  7  9  1  0  0  0  0
  9 10  1  0  0  0  0
  9 11  1  0  0  0  0
  9 23  1  0  0  0  0
 11 12  1  0  0  0  0
 11 13  1  0  0  0  0
 11 14  1  0  0  0  0
 14 15  1  0  0  0  0
 14 21  2  0  0  0  0
 15 16  1  0  0  0  0
 15 17  2  0  0  0  0
 17 18  1  0  0  0  0
 17 19  1  0  0  0  0
 19 20  1  0  0  0  0
 19 21  1  0  0  0  0
 21 22  1  0  0  0  0
 23 24  2  0  0  0  0
 23 25  1  0  0  0  0
 25 26  1  0  0  0  0
 25 27  1  0  0  0  0
 27 28  1  0  0  0  0
 27 29  1  0  0  0  0
 27 30  1  0  0  0  0
M  CHG  1  15   1
M  END
$$$$

  -OEChem-01062216083D

 30 30  0     1  0  0  0  0  0999 V2000
   -3.3270   -2.2242    1.5663 H   0  0  0  0  0  0  0  0  0  0  0  0
   -3.3108   -1.3682    0.8853 C   0  0  0  0  0  0  0  0  0  0  0  0
   -3.8407   -0.5374    1.3581 H   0  0  0  0  0  0  0  0  0  0  0  0
   -3.8273   -1.6438   -0.0372 H   0  0  0  0  0  0  0  0  0  0  0  0
   -1.8793   -0.9674    0.5847 C   0  0  0  0  0  0  0  0  0  0  0  0
   -0.9537   -1.6051    1.0643 O   0  0  0  0  0  0  0  0  0  0  0  0
   -1.6210    0.0972   -0.2622 N   0  0  0  0  0  0  0  0  0  0  0  0
   -2.4382    0.6461   -0.5152 H   0  0  0  0  0  0  0  0  0  0  0  0
   -0.2979    0.7592   -0.3212 C   0  0  1  0  0  0  0  0  0  0  0  0
    0.2593    0.5177    0.5922 H   0  0  0  0  0  0  0  0  0  0  0  0
    0.5271    0.2789   -1.5307 C   0  0  0  0  0  0  0  0  0  0  0  0
   -0.0350    0.4691   -2.4507 H   0  0  0  0  0  0  0  0  0  0  0  0
    1.4607    0.8500   -1.5957 H   0  0  0  0  0  0  0  0  0  0  0  0
    0.8519   -1.1895   -1.4199 C   0  0  0  0  0  0  0  0  0  0  0  0
    1.8071   -1.7451   -0.5676 N   0  3  0  0  0  0  0  0  0  0  0  0
    2.3046   -1.1979    0.1398 H   0  0  0  0  0  0  0  0  0  0  0  0
    1.8308   -3.0482   -0.7014 C   0  0  0  0  0  0  0  0  0  0  0  0
    2.4369   -3.7456   -0.1208 H   0  0  0  0  0  0  0  0  0  0  0  0
    0.9192   -3.3767   -1.7019 N   0  0  0  0  0  0  0  0  0  0  0  0
    0.7044   -4.3249   -2.0232 H   0  0  0  0  0  0  0  0  0  0  0  0
    0.3074   -2.2131   -2.1537 C   0  0  0  0  0  0  0  0  0  0  0  0
   -0.4605   -2.1231   -2.9208 H   0  0  0  0  0  0  0  0  0  0  0  0
   -0.3626    2.2979   -0.3323 C   0  0  0  0  0  0  0  0  0  0  0  0
    0.6096    2.9147    0.0724 O   0  0  0  0  0  0  0  0  0  0  0  0
   -1.4303    2.9877   -0.8821 N   0  0  0  0  0  0  0  0  0  0  0  0
   -2.1584    2.4582   -1.3487 H   0  0  0  0  0  0  0  0  0  0  0  0
   -1.4547    4.4450   -0.9904 C   0  0  0  0  0  0  0  0  0  0  0  0
   -0.6475    4.7969   -1.6422 H   0  0  0  0  0  0  0  0  0  0  0  0
   -2.4082    4.7814   -1.4097 H   0  0  0  0  0  0  0  0  0  0  0  0
   -1.3329    4.9066   -0.0041 H   0  0  0  0  0  0  0  0  0  0  0  0
  1  2  1  0  0  0  0
  2  3  1  0  0  0  0
  2  4  1  0  0  0  0
  2  5  1  0  0  0  0
  5  6  2  0  0  0  0
  5  7  1  0  0  0  0
  7  8  1  0  0  0  0
  7  9  1  0  0  0  0
  9 10  1  0  0  0  0
  9 11  1  0  0  0  0
  9 23  1  0  0  0  0
 11 12  1  0  0  0  0
 11 13  1  0  0  0  0
 11 14  1  0  0  0  0
 14 15  1  0  0  0  0
 14 21  2  0  0  0  0
 15 16  1  0  0  0  0
 15 17  2  0  0  0  0
 17 18  1  0  0  0  0
 17 19  1  0  0  0  0
 19 20  1  0  0  0  0
 19 21  1  0  0  0  0
 21 22  1  0  0  0  0
 23 24  2  0  0  0  0
 23 25  1  0  0  0  0
 25 26  1  0  0  0  0
 25 27  1  0  0  0  0
 27 28  1  0  0  0  0
 27 29  1  0  0  0  0
 27 30  1  0  0  0  0
M  CHG  1  15   1
M  END
$$$$

  -OEChem-01062216083D

 30 30  0     1  0  0  0  0  0999 V2000
   -3.2999   -2.2887    1.4840 H   0  0  0  0  0  0  0  0  0  0  0  0
   -3.2838   -1.4334    0.8024 C   0  0  0  0  0  0  0  0  0  0  0  0
   -3.9078   -0.6414    1.2238 H   0  0  0  0  0  0  0  0  0  0  0  0
   -3.6994   -1.7429   -0.1593 H   0  0  0  0  0  0  0  0  0  0  0  0
   -1.8626   -0.9350    0.6242 C   0  0  0  0  0  0  0  0  0  0  0  0
   -0.9397   -1.4994    1.1919 O   0  0  0  0  0  0  0  0  0  0  0  0
   -1.6007    0.1259   -0.2250 N   0  0  0  0  0  0  0  0  0  0  0  0
   -2.3968    0.5321   -0.7091 H   0  0  0  0  0  0  0  0  0  0  0  0
   -0.2796    0.7854   -0.3320 C   0  0  1  0  0  0  0  0  0  0  0  0
    0.3035    0.5532    0.5667 H   0  0  0  0  0  0  0  0  0  0  0  0
    0.5012    0.2688   -1.5578 C   0  0  0  0  0  0  0  0  0  0  0  0
   -0.0898    0.4435   -2.4628 H   0  0  0  0  0  0  0  0  0  0  0  0
    1.4388    0.8257   -1.6708 H   0  0  0  0  0  0  0  0  0  0  0  0
    0.8176   -1.1993   -1.4171 C   0  0  0  0  0  0  0  0  0  0  0  0
    1.7971   -1.7361   -0.5806 N   0  3  0  0  0  0  0  0  0  0  0  0
    2.3249   -1.1706    0.0898 H   0  0  0  0  0  0  0  0  0  0  0  0
    1.8165   -3.0420   -0.6843 C   0  0  0  0  0  0  0  0  0  0  0  0
    2.4430   -3.7260   -0.1092 H   0  0  0  0  0  0  0  0  0  0  0  0
    0.8740   -3.3929   -1.6480 N   0  0  0  0  0  0  0  0  0  0  0  0
    0.6548   -4.3479   -1.9460 H   0  0  0  0  0  0  0  0  0  0  0  0
    0.2513   -2.2392   -2.1107 C   0  0  0  0  0  0  0  0  0  0  0  0
   -0.5336   -2.1666   -2.8625 H   0  0  0  0  0  0  0  0  0  0  0  0
   -0.3291    2.3271   -0.3478 C   0  0  0  0  0  0  0  0  0  0  0  0
    0.7295    2.9334   -0.2907 O   0  0  0  0  0  0  0  0  0  0  0  0
   -1.5017    3.0288   -0.5711 N   0  0  0  0  0  0  0  0  0  0  0  0
   -2.3771    2.5237   -0.4918 H   0  0  0  0  0  0  0  0  0  0  0  0
   -1.5498    4.4893   -0.6097 C   0  0  0  0  0  0  0  0  0  0  0  0
   -0.8501    4.8798   -1.3571 H   0  0  0  0  0  0  0  0  0  0  0  0
   -2.5555    4.8313   -0.8738 H   0  0  0  0  0  0  0  0  0  0  0  0
   -1.2863    4.9087    0.3673 H   0  0  0  0  0  0  0  0  0  0  0  0
  1  2  1  0  0  0  0
  2  3  1  0  0  0  0
  2  4  1  0  0  0  0
  2  5  1  0  0  0  0
  5  6  2  0  0  0  0
  5  7  1  0  0  0  0
  7  8  1  0  0  0  0
  7  9  1  0  0  0  0
  9 10  1  0  0  0  0
  9 11  1  0  0  0  0
  9 23  1  0  0  0  0
 11 12  1  0  0  0  0
 11 13  1  0  0  0  0
 11 14  1  0  0  0  0
 14 15  1  0  0  0  0
 14 21  2  0  0  0  0
 15 16  1  0  0  0  0
 15 17  2  0  0  0  0
 17 18  1  0  0  0  0
 17 19  1  0  0  0  0
 19 20  1  0  0  0  0
 19 21  1  0  0  0  0
 21 22  1  0  0  0  0
 23 24  2  0  0  0  0
 23 25  1  0  0  0  0
 25 26  1  0  0  0  0
 25 27  1  0  0  0  0
 27 28  1  0  0  0  0
 27 29  1  0  0  0  0
 27 30  1  0  0  0  0
M  CHG  1  15   1
M  END
$$$$

  -OEChem-01062216083D

 30 30  0     1  0  0  0  0  0999 V2000
   -3.2976   -2.2742    1.4667 H   0  0  0  0  0  0  0  0  0  0  0  0
   -3.2738   -1.4213    0.7821 C   0  0  0  0  0  0  0  0  0  0  0  0
   -3.9106   -0.6312    1.1880 H   0  0  0  0  0  0  0  0  0  0  0  0
   -3.6687   -1.7369   -0.1864 H   0  0  0  0  0  0  0  0  0  0  0  0
   -1.8529   -0.9144    0.6290 C   0  0  0  0  0  0  0  0  0  0  0  0
   -0.9372   -1.4691    1.2169 O   0  0  0  0  0  0  0  0  0  0  0  0
   -1.5806    0.1457   -0.2172 N   0  0  0  0  0  0  0  0  0  0  0  0
   -2.3652    0.5436   -0.7290 H   0  0  0  0  0  0  0  0  0  0  0  0
   -0.2554    0.7959   -0.3240 C   0  0  1  0  0  0  0  0  0  0  0  0
    0.3304    0.5627    0.5722 H   0  0  0  0  0  0  0  0  0  0  0  0
    0.5145    0.2677   -1.5537 C   0  0  0  0  0  0  0  0  0  0  0  0
   -0.0791    0.4475   -2.4560 H   0  0  0  0  0  0  0  0  0  0  0  0
    1.4582    0.8119   -1.6747 H   0  0  0  0  0  0  0  0  0  0  0  0
    0.8168   -1.2036   -1.4130 C   0  0  0  0  0  0  0  0  0  0  0  0
    1.7945   -1.7523   -0.5821 N   0  3  0  0  0  0  0  0  0  0  0  0
    2.3353   -1.1935    0.0832 H   0  0  0  0  0  0  0  0  0  0  0  0
    1.8029   -3.0579   -0.6913 C   0  0  0  0  0  0  0  0  0  0  0  0
    2.4293   -3.7489   -0.1245 H   0  0  0  0  0  0  0  0  0  0  0  0
    0.8511   -3.3974   -1.6499 N   0  0  0  0  0  0  0  0  0  0  0  0
    0.6233   -4.3493   -1.9517 H   0  0  0  0  0  0  0  0  0  0  0  0
    0.2373   -2.2363   -2.1062 C   0  0  0  0  0  0  0  0  0  0  0  0
   -0.5488   -2.1534   -2.8555 H   0  0  0  0  0  0  0  0  0  0  0  0
   -0.3175    2.3383   -0.3355 C   0  0  0  0  0  0  0  0  0  0  0  0
    0.7156    2.9639   -0.5178 O   0  0  0  0  0  0  0  0  0  0  0  0
   -1.5193    3.0198   -0.2502 N   0  0  0  0  0  0  0  0  0  0  0  0
   -2.3270    2.4963    0.0717 H   0  0  0  0  0  0  0  0  0  0  0  0
   -1.5964    4.4793   -0.2418 C   0  0  0  0  0  0  0  0  0  0  0  0
   -1.1071    4.8971   -1.1286 H   0  0  0  0  0  0  0  0  0  0  0  0
   -2.6410    4.8062   -0.2436 H   0  0  0  0  0  0  0  0  0  0  0  0
   -1.1071    4.8851    0.6503 H   0  0  0  0  0  0  0  0  0  0  0  0
  1  2  1  0  0  0  0
  2  3  1  0  0  0  0
  2  4  1  0  0  0  0
  2  5  1  0  0  0  0
  5  6  2  0  0  0  0
  5  7  1  0  0  0  0
  7  8  1  0  0  0  0
  7  9  1  0  0  0  0
  9 10  1  0  0  0  0
  9 11  1  0  0  0  0
  9 23  1  0  0  0  0
 11 12  1  0  0  0  0
 11 13  1  0  0  0  0
 11 14  1  0  0  0  0
 14 15  1  0  0  0  0
 14 21  2  0  0  0  0
 15 16  1  0  0  0  0
 15 17  2  0  0  0  0
 17 18  1  0  0  0  0
 17 19  1  0  0  0  0
 19 20  1  0  0  0  0
 19 21  1  0  0  0  0
 21 22  1  0  0  0  0
 23 24  2  0  0  0  0
 23 25  1  0  0  0  0
 25 26  1  0  0  0  0
 25 27  1  0  0  0  0
 27 28  1  0  0  0  0
 27 29  1  0  0  0  0
 27 30  1  0  0  0  0
M  CHG  1  15   1
M  END
$$$$

  -OEChem-01062216083D

 30 30  0     1  0  0  0  0  0999 V2000
   -3.3103   -2.2364    1.4696 H   0  0  0  0  0  0  0  0  0  0  0  0
   -3.2747   -1.3840    0.7846 C   0  0  0  0  0  0  0  0  0  0  0  0
   -3.8979   -0.5840    1.1922 H   0  0  0  0  0  0  0  0  0  0  0  0
   -3.6778   -1.6937   -0.1825 H   0  0  0  0  0  0  0  0  0  0  0  0
   -1.8459   -0.9005    0.6266 C   0  0  0  0  0  0  0  0  0  0  0  0
   -0.9371   -1.4683    1.2129 O   0  0  0  0  0  0  0  0  0  0  0  0
   -1.5588    0.1590   -0.2153 N   0  0  0  0  0  0  0  0  0  0  0  0
   -2.3424    0.5897   -0.7030 H   0  0  0  0  0  0  0  0  0  0  0  0
   -0.2284    0.7994   -0.3119 C   0  0  1  0  0  0  0  0  0  0  0  0
    0.3541    0.5637    0.5855 H   0  0  0  0  0  0  0  0  0  0  0  0
    0.5402    0.2667   -1.5422 C   0  0  0  0  0  0  0  0  0  0  0  0
   -0.0487    0.4574   -2.4453 H   0  0  0  0  0  0  0  0  0  0  0  0
    1.4904    0.8005   -1.6587 H   0  0  0  0  0  0  0  0  0  0  0  0
    0.8285   -1.2081   -1.4084 C   0  0  0  0  0  0  0  0  0  0  0  0
    1.7974   -1.7758   -0.5799 N   0  3  0  0  0  0  0  0  0  0  0  0
    2.3441   -1.2294    0.0907 H   0  0  0  0  0  0  0  0  0  0  0  0
    1.7931   -3.0803   -0.7029 C   0  0  0  0  0  0  0  0  0  0  0  0
    2.4109   -3.7843   -0.1423 H   0  0  0  0  0  0  0  0  0  0  0  0
    0.8411   -3.3999   -1.6681 N   0  0  0  0  0  0  0  0  0  0  0  0
    0.6067   -4.3459   -1.9827 H   0  0  0  0  0  0  0  0  0  0  0  0
    0.2411   -2.2278   -2.1143 C   0  0  0  0  0  0  0  0  0  0  0  0
   -0.5407   -2.1279   -2.8664 H   0  0  0  0  0  0  0  0  0  0  0  0
   -0.3061    2.3426   -0.3192 C   0  0  0  0  0  0  0  0  0  0  0  0
    0.6471    2.9900   -0.7248 O   0  0  0  0  0  0  0  0  0  0  0  0
   -1.4606    3.0030    0.0632 N   0  0  0  0  0  0  0  0  0  0  0  0
   -2.1674    2.4575    0.5473 H   0  0  0  0  0  0  0  0  0  0  0  0
   -1.5582    4.4605    0.1083 C   0  0  0  0  0  0  0  0  0  0  0  0
   -1.3318    4.8923   -0.8729 H   0  0  0  0  0  0  0  0  0  0  0  0
   -2.5703    4.7672    0.3910 H   0  0  0  0  0  0  0  0  0  0  0  0
   -0.8546    4.8707    0.8410 H   0  0  0  0  0  0  0  0  0  0  0  0
  1  2  1  0  0  0  0
  2  3  1  0  0  0  0
  2  4  1  0  0  0  0
  2  5  1  0  0  0  0
  5  6  2  0  0  0  0
  5  7  1  0  0  0  0
  7  8  1  0  0  0  0
  7  9  1  0  0  0  0
  9 10  1  0  0  0  0
  9 11  1  0  0  0  0
  9 23  1  0  0  0  0
 11 12  1  0  0  0  0
 11 13  1  0  0  0  0
 11 14  1  0  0  0  0
 14 15  1  0  0  0  0
 14 21  2  0  0  0  0
 15 16  1  0  0  0  0
 15 17  2  0  0  0  0
 17 18  1  0  0  0  0
 17 19  1  0  0  0  0
 19 20  1  0  0  0  0
 19 21  1  0  0  0  0
 21 22  1  0  0  0  0
 23 24  2  0  0  0  0
 23 25  1  0  0  0  0
 25 26  1  0  0  0  0
 25 27  1  0  0  0  0
 27 28  1  0  0  0  0
 27 29  1  0  0  0  0
 27 30  1  0  0  0  0
M  CHG  1  15   1
M  END
$$$$

  -OEChem-01062216083D

 30 30  0     1  0  0  0  0  0999 V2000
   -3.3077   -2.2003    1.4772 H   0  0  0  0  0  0  0  0  0  0  0  0
   -3.2649   -1.3420    0.8002 C   0  0  0  0  0  0  0  0  0  0  0  0
   -3.8669   -0.5339    1.2232 H   0  0  0  0  0  0  0  0  0  0  0  0
   -3.6871   -1.6342   -0.1642 H   0  0  0  0  0  0  0  0  0  0  0  0
   -1.8294   -0.8850    0.6273 C   0  0  0  0  0  0  0  0  0  0  0  0
   -0.9254   -1.4665    1.2078 O   0  0  0  0  0  0  0  0  0  0  0  0
   -1.5316    0.1722   -0.2130 N   0  0  0  0  0  0  0  0  0  0  0  0
   -2.3167    0.6401   -0.6641 H   0  0  0  0  0  0  0  0  0  0  0  0
   -0.1961    0.8011   -0.3018 C   0  0  1  0  0  0  0  0  0  0  0  0
    0.3847    0.5621    0.5958 H   0  0  0  0  0  0  0  0  0  0  0  0
    0.5698    0.2663   -1.5334 C   0  0  0  0  0  0  0  0  0  0  0  0
   -0.0149    0.4692   -2.4368 H   0  0  0  0  0  0  0  0  0  0  0  0
    1.5257    0.7912   -1.6444 H   0  0  0  0  0  0  0  0  0  0  0  0
    0.8434   -1.2123   -1.4074 C   0  0  0  0  0  0  0  0  0  0  0  0
    1.8026   -1.8024   -0.5831 N   0  3  0  0  0  0  0  0  0  0  0  0
    2.3541   -1.2718    0.0958 H   0  0  0  0  0  0  0  0  0  0  0  0
    1.7766   -3.1057   -0.7169 C   0  0  0  0  0  0  0  0  0  0  0  0
    2.3801   -3.8249   -0.1603 H   0  0  0  0  0  0  0  0  0  0  0  0
    0.8221   -3.4014   -1.6870 N   0  0  0  0  0  0  0  0  0  0  0  0
    0.5719   -4.3404   -2.0099 H   0  0  0  0  0  0  0  0  0  0  0  0
    0.2414   -2.2163   -2.1231 C   0  0  0  0  0  0  0  0  0  0  0  0
   -0.5385   -2.0969   -2.8745 H   0  0  0  0  0  0  0  0  0  0  0  0
   -0.2892    2.3439   -0.3070 C   0  0  0  0  0  0  0  0  0  0  0  0
    0.5290    3.0055   -0.9278 O   0  0  0  0  0  0  0  0  0  0  0  0
   -1.3219    2.9876    0.3515 N   0  0  0  0  0  0  0  0  0  0  0  0
   -1.9046    2.4254    0.9655 H   0  0  0  0  0  0  0  0  0  0  0  0
   -1.4380    4.4427    0.4209 C   0  0  0  0  0  0  0  0  0  0  0  0
   -1.4216    4.8803   -0.5834 H   0  0  0  0  0  0  0  0  0  0  0  0
   -2.3799    4.7274    0.9005 H   0  0  0  0  0  0  0  0  0  0  0  0
   -0.6114    4.8677    1.0004 H   0  0  0  0  0  0  0  0  0  0  0  0
  1  2  1  0  0  0  0
  2  3  1  0  0  0  0
  2  4  1  0  0  0  0
  2  5  1  0  0  0  0
  5  6  2  0  0  0  0
  5  7  1  0  0  0  0
  7  8  1  0  0  0  0
  7  9  1  0  0  0  0
  9 10  1  0  0  0  0
  9 11  1  0  0  0  0
  9 23  1  0  0  0  0
 11 12  1  0  0  0  0
 11 13  1  0  0  0  0
 11 14  1  0  0  0  0
 14 15  1  0  0  0  0
 14 21  2  0  0  0  0
 15 16  1  0  0  0  0
 15 17  2  0  0  0  0
 17 18  1  0  0  0  0
 17 19  1  0  0  0  0
 19 20  1  0  0  0  0
 19 21  1  0  0  0  0
 21 22  1  0  0  0  0
 23 24  2  0  0  0  0
 23 25  1  0  0  0  0
 25 26  1  0  0  0  0
 25 27  1  0  0  0  0
 27 28  1  0  0  0  0
 27 29  1  0  0  0  0
 27 30  1  0  0  0  0
M  CHG  1  15   1
M  END
$$$$

  -OEChem-01062216083D

 30 30  0     1  0  0  0  0  0999 V2000
   -3.3164   -2.1626    1.4869 H   0  0  0  0  0  0  0  0  0  0  0  0
   -3.2606   -1.3113    0.8022 C   0  0  0  0  0  0  0  0  0  0  0  0
   -3.8581   -0.4934    1.2128 H   0  0  0  0  0  0  0  0  0  0  0  0
   -3.6777   -1.6083   -0.1630 H   0  0  0  0  0  0  0  0  0  0  0  0
   -1.8196   -0.8696    0.6348 C   0  0  0  0  0  0  0  0  0  0  0  0
   -0.9226   -1.4605    1.2174 O   0  0  0  0  0  0  0  0  0  0  0  0
   -1.5078    0.1852   -0.2029 N   0  0  0  0  0  0  0  0  0  0  0  0
   -2.2889    0.6745   -0.6385 H   0  0  0  0  0  0  0  0  0  0  0  0
   -0.1668    0.8008   -0.2832 C   0  0  1  0  0  0  0  0  0  0  0  0
    0.4116    0.5553    0.6140 H   0  0  0  0  0  0  0  0  0  0  0  0
    0.5961    0.2653   -1.5160 C   0  0  0  0  0  0  0  0  0  0  0  0
    0.0148    0.4800   -2.4192 H   0  0  0  0  0  0  0  0  0  0  0  0
    1.5552    0.7855   -1.6206 H   0  0  0  0  0  0  0  0  0  0  0  0
    0.8557   -1.2170   -1.4025 C   0  0  0  0  0  0  0  0  0  0  0  0
    1.8064   -1.8285   -0.5837 N   0  3  0  0  0  0  0  0  0  0  0  0
    2.3652   -1.3132    0.1008 H   0  0  0  0  0  0  0  0  0  0  0  0
    1.7647   -3.1299   -0.7325 C   0  0  0  0  0  0  0  0  0  0  0  0
    2.3593   -3.8627   -0.1842 H   0  0  0  0  0  0  0  0  0  0  0  0
    0.8066   -3.4031   -1.7055 N   0  0  0  0  0  0  0  0  0  0  0  0
    0.5444   -4.3353   -2.0388 H   0  0  0  0  0  0  0  0  0  0  0  0
    0.2413   -2.2060   -2.1285 C   0  0  0  0  0  0  0  0  0  0  0  0
   -0.5375   -2.0686   -2.8780 H   0  0  0  0  0  0  0  0  0  0  0  0
   -0.2645    2.3429   -0.2863 C   0  0  0  0  0  0  0  0  0  0  0  0
    0.3694    3.0028   -1.0959 O   0  0  0  0  0  0  0  0  0  0  0  0
   -1.1026    2.9872    0.6055 N   0  0  0  0  0  0  0  0  0  0  0  0
   -1.5561    2.4223    1.3188 H   0  0  0  0  0  0  0  0  0  0  0  0
   -1.2324    4.4410    0.6742 C   0  0  0  0  0  0  0  0  0  0  0  0
   -1.5633    4.8445   -0.2891 H   0  0  0  0  0  0  0  0  0  0  0  0
   -1.9680    4.7223    1.4344 H   0  0  0  0  0  0  0  0  0  0  0  0
   -0.2733    4.9018    0.9349 H   0  0  0  0  0  0  0  0  0  0  0  0
  1  2  1  0  0  0  0
  2  3  1  0  0  0  0
  2  4  1  0  0  0  0
  2  5  1  0  0  0  0
  5  6  2  0  0  0  0
  5  7  1  0  0  0  0
  7  8  1  0  0  0  0
  7  9  1  0  0  0  0
  9 10  1  0  0  0  0
  9 11  1  0  0  0  0
  9 23  1  0  0  0  0
 11 12  1  0  0  0  0
 11 13  1  0  0  0  0
 11 14  1  0  0  0  0
 14 15  1  0  0  0  0
 14 21  2  0  0  0  0
 15 16  1  0  0  0  0
 15 17  2  0  0  0  0
 17 18  1  0  0  0  0
 17 19  1  0  0  0  0
 19 20  1  0  0  0  0
 19 21  1  0  0  0  0
 21 22  1  0  0  0  0
 23 24  2  0  0  0  0
 23 25  1  0  0  0  0
 25 26  1  0  0  0  0
 25 27  1  0  0  0  0
 27 28  1  0  0  0  0
 27 29  1  0  0  0  0
 27 30  1  0  0  0  0
M  CHG  1  15   1
M  END
$$$$

  -OEChem-01062216083D

 30 30  0     1  0  0  0  0  0999 V2000
   -3.3192   -2.1352    1.4971 H   0  0  0  0  0  0  0  0  0  0  0  0
   -3.2544   -1.2867    0.8098 C   0  0  0  0  0  0  0  0  0  0  0  0
   -3.8429   -0.4612    1.2182 H   0  0  0  0  0  0  0  0  0  0  0  0
   -3.6757   -1.5825   -0.1540 H   0  0  0  0  0  0  0  0  0  0  0  0
   -1.8090   -0.8604    0.6397 C   0  0  0  0  0  0  0  0  0  0  0  0
   -0.9169   -1.4614    1.2198 O   0  0  0  0  0  0  0  0  0  0  0  0
   -1.4870    0.1920   -0.1965 N   0  0  0  0  0  0  0  0  0  0  0  0
   -2.2645    0.6971   -0.6207 H   0  0  0  0  0  0  0  0  0  0  0  0
   -0.1423    0.7971   -0.2709 C   0  0  1  0  0  0  0  0  0  0  0  0
    0.4350    0.5453    0.6251 H   0  0  0  0  0  0  0  0  0  0  0  0
    0.6189    0.2640   -1.5050 C   0  0  0  0  0  0  0  0  0  0  0  0
    0.0397    0.4855   -2.4083 H   0  0  0  0  0  0  0  0  0  0  0  0
    1.5792    0.7830   -1.6048 H   0  0  0  0  0  0  0  0  0  0  0  0
    0.8674   -1.2210   -1.4006 C   0  0  0  0  0  0  0  0  0  0  0  0
    1.8103   -1.8496   -0.5859 N   0  3  0  0  0  0  0  0  0  0  0  0
    2.3755   -1.3463    0.1021 H   0  0  0  0  0  0  0  0  0  0  0  0
    1.7530   -3.1492   -0.7450 C   0  0  0  0  0  0  0  0  0  0  0  0
    2.3387   -3.8934   -0.2027 H   0  0  0  0  0  0  0  0  0  0  0  0
    0.7921   -3.4039   -1.7205 N   0  0  0  0  0  0  0  0  0  0  0  0
    0.5177   -4.3304   -2.0602 H   0  0  0  0  0  0  0  0  0  0  0  0
    0.2417   -2.1970   -2.1344 C   0  0  0  0  0  0  0  0  0  0  0  0
   -0.5352   -2.0439   -2.8827 H   0  0  0  0  0  0  0  0  0  0  0  0
   -0.2390    2.3380   -0.2733 C   0  0  0  0  0  0  0  0  0  0  0  0
    0.1719    2.9835   -1.2261 O   0  0  0  0  0  0  0  0  0  0  0  0
   -0.8239    2.9968    0.7924 N   0  0  0  0  0  0  0  0  0  0  0  0
   -1.1442    2.4384    1.5797 H   0  0  0  0  0  0  0  0  0  0  0  0
   -0.9585    4.4502    0.8595 C   0  0  0  0  0  0  0  0  0  0  0  0
   -1.5611    4.8200    0.0227 H   0  0  0  0  0  0  0  0  0  0  0  0
   -1.4489    4.7454    1.7926 H   0  0  0  0  0  0  0  0  0  0  0  0
    0.0253    4.9305    0.8210 H   0  0  0  0  0  0  0  0  0  0  0  0
  1  2  1  0  0  0  0
  2  3  1  0  0  0  0
  2  4  1  0  0  0  0
  2  5  1  0  0  0  0
  5  6  2  0  0  0  0
  5  7  1  0  0  0  0
  7  8  1  0  0  0  0
  7  9  1  0  0  0  0
  9 10  1  0  0  0  0
  9 11  1  0  0  0  0
  9 23  1  0  0  0  0
 11 12  1  0  0  0  0
 11 13  1  0  0  0  0
 11 14  1  0  0  0  0
 14 15  1  0  0  0  0
 14 21  2  0  0  0  0
 15 16  1  0  0  0  0
 15 17  2  0  0  0  0
 17 18  1  0  0  0  0
 17 19  1  0  0  0  0
 19 20  1  0  0  0  0
 19 21  1  0  0  0  0
 21 22  1  0  0  0  0
 23 24  2  0  0  0  0
 23 25  1  0  0  0  0
 25 26  1  0  0  0  0
 25 27  1  0  0  0  0
 27 28  1  0  0  0  0
 27 29  1  0  0  0  0
 27 30  1  0  0  0  0
M  CHG  1  15   1
M  END
$$$$

  -OEChem-01062216083D

 30 30  0     1  0  0  0  0  0999 V2000
   -3.3199   -2.1150    1.4962 H   0  0  0  0  0  0  0  0  0  0  0  0
   -3.2463   -1.2684    0.8074 C   0  0  0  0  0  0  0  0  0  0  0  0
   -3.8329   -0.4386    1.2096 H   0  0  0  0  0  0  0  0  0  0  0  0
   -3.6626   -1.5637   -0.1586 H   0  0  0  0  0  0  0  0  0  0  0  0
   -1.7976   -0.8506    0.6465 C   0  0  0  0  0  0  0  0  0  0  0  0
   -0.9118   -1.4573    1.2309 O   0  0  0  0  0  0  0  0  0  0  0  0
   -1.4642    0.1977   -0.1899 N   0  0  0  0  0  0  0  0  0  0  0  0
   -2.2356    0.7115   -0.6153 H   0  0  0  0  0  0  0  0  0  0  0  0
   -0.1161    0.7927   -0.2581 C   0  0  1  0  0  0  0  0  0  0  0  0
    0.4606    0.5330    0.6362 H   0  0  0  0  0  0  0  0  0  0  0  0
    0.6389    0.2623   -1.4960 C   0  0  0  0  0  0  0  0  0  0  0  0
    0.0574    0.4913   -2.3959 H   0  0  0  0  0  0  0  0  0  0  0  0
    1.6009    0.7774   -1.5964 H   0  0  0  0  0  0  0  0  0  0  0  0
    0.8738   -1.2257   -1.4007 C   0  0  0  0  0  0  0  0  0  0  0  0
    1.8112   -1.8690   -0.5908 N   0  3  0  0  0  0  0  0  0  0  0  0
    2.3840   -1.3755    0.0978 H   0  0  0  0  0  0  0  0  0  0  0  0
    1.7393   -3.1671   -0.7560 C   0  0  0  0  0  0  0  0  0  0  0  0
    2.3185   -3.9201   -0.2189 H   0  0  0  0  0  0  0  0  0  0  0  0
    0.7735   -3.4064   -1.7303 N   0  0  0  0  0  0  0  0  0  0  0  0
    0.4881   -4.3281   -2.0736 H   0  0  0  0  0  0  0  0  0  0  0  0
    0.2355   -2.1915   -2.1375 C   0  0  0  0  0  0  0  0  0  0  0  0
   -0.5425   -2.0262   -2.8824 H   0  0  0  0  0  0  0  0  0  0  0  0
   -0.2073    2.3325   -0.2636 C   0  0  0  0  0  0  0  0  0  0  0  0
   -0.0448    2.9545   -1.3029 O   0  0  0  0  0  0  0  0  0  0  0  0
   -0.5021    3.0151    0.9018 N   0  0  0  0  0  0  0  0  0  0  0  0
   -0.6712    2.4712    1.7444 H   0  0  0  0  0  0  0  0  0  0  0  0
   -0.6432    4.4679    0.9632 C   0  0  0  0  0  0  0  0  0  0  0  0
   -1.4791    4.7995    0.3377 H   0  0  0  0  0  0  0  0  0  0  0  0
   -0.8334    4.7891    1.9922 H   0  0  0  0  0  0  0  0  0  0  0  0
    0.2715    4.9597    0.6144 H   0  0  0  0  0  0  0  0  0  0  0  0
  1  2  1  0  0  0  0
  2  3  1  0  0  0  0
  2  4  1  0  0  0  0
  2  5  1  0  0  0  0
  5  6  2  0  0  0  0
  5  7  1  0  0  0  0
  7  8  1  0  0  0  0
  7  9  1  0  0  0  0
  9 10  1  0  0  0  0
  9 11  1  0  0  0  0
  9 23  1  0  0  0  0
 11 12  1  0  0  0  0
 11 13  1  0  0  0  0
 11 14  1  0  0  0  0
 14 15  1  0  0  0  0
 14 21  2  0  0  0  0
 15 16  1  0  0  0  0
 15 17  2  0  0  0  0
 17 18  1  0  0  0  0
 17 19  1  0  0  0  0
 19 20  1  0  0  0  0
 19 21  1  0  0  0  0
 21 22  1  0  0  0  0
 23 24  2  0  0  0  0
 23 25  1  0  0  0  0
 25 26  1  0  0  0  0
 25 27  1  0  0  0  0
 27 28  1  0  0  0  0
 27 29  1  0  0  0  0
 27 30  1  0  0  0  0
M  CHG  1  15   1
M  END
$$$$

  -OEChem-01062216083D

 30 30  0     1  0  0  0  0  0999 V2000
   -3.3240   -2.0858    1.5067 H   0  0  0  0  0  0  0  0  0  0  0  0
   -3.2408   -1.2402    0.8180 C   0  0  0  0  0  0  0  0  0  0  0  0
   -3.8102   -0.4008    1.2249 H   0  0  0  0  0  0  0  0  0  0  0  0
   -3.6688   -1.5270   -0.1455 H   0  0  0  0  0  0  0  0  0  0  0  0
   -1.7864   -0.8468    0.6467 C   0  0  0  0  0  0  0  0  0  0  0  0
   -0.9053   -1.4681    1.2236 O   0  0  0  0  0  0  0  0  0  0  0  0
   -1.4427    0.1961   -0.1916 N   0  0  0  0  0  0  0  0  0  0  0  0
   -2.2091    0.7256   -0.6076 H   0  0  0  0  0  0  0  0  0  0  0  0
   -0.0919    0.7831   -0.2523 C   0  0  1  0  0  0  0  0  0  0  0  0
    0.4813    0.5171    0.6418 H   0  0  0  0  0  0  0  0  0  0  0  0
    0.6620    0.2576   -1.4921 C   0  0  0  0  0  0  0  0  0  0  0  0
    0.0824    0.4935   -2.3920 H   0  0  0  0  0  0  0  0  0  0  0  0
    1.6260    0.7691   -1.5881 H   0  0  0  0  0  0  0  0  0  0  0  0
    0.8862   -1.2330   -1.4047 C   0  0  0  0  0  0  0  0  0  0  0  0
    1.8163   -1.8905   -0.5975 N   0  3  0  0  0  0  0  0  0  0  0  0
    2.3928   -1.4073    0.0952 H   0  0  0  0  0  0  0  0  0  0  0  0
    1.7289   -3.1872   -0.7676 C   0  0  0  0  0  0  0  0  0  0  0  0
    2.2980   -3.9498   -0.2332 H   0  0  0  0  0  0  0  0  0  0  0  0
    0.7600   -3.4112   -1.7424 N   0  0  0  0  0  0  0  0  0  0  0  0
    0.4615   -4.3282   -2.0874 H   0  0  0  0  0  0  0  0  0  0  0  0
    0.2357   -2.1886   -2.1439 C   0  0  0  0  0  0  0  0  0  0  0  0
   -0.5430   -2.0119   -2.8853 H   0  0  0  0  0  0  0  0  0  0  0  0
   -0.1796    2.3220   -0.2641 C   0  0  0  0  0  0  0  0  0  0  0  0
   -0.2880    2.9134   -1.3279 O   0  0  0  0  0  0  0  0  0  0  0  0
   -0.1717    3.0365    0.9195 N   0  0  0  0  0  0  0  0  0  0  0  0
   -0.1615    2.5152    1.7927 H   0  0  0  0  0  0  0  0  0  0  0  0
   -0.3153    4.4894    0.9749 C   0  0  0  0  0  0  0  0  0  0  0  0
   -1.2788    4.7975    0.5548 H   0  0  0  0  0  0  0  0  0  0  0  0
   -0.2643    4.8385    2.0111 H   0  0  0  0  0  0  0  0  0  0  0  0
    0.4851    4.9779    0.4083 H   0  0  0  0  0  0  0  0  0  0  0  0
  1  2  1  0  0  0  0
  2  3  1  0  0  0  0
  2  4  1  0  0  0  0
  2  5  1  0  0  0  0
  5  6  2  0  0  0  0
  5  7  1  0  0  0  0
  7  8  1  0  0  0  0
  7  9  1  0  0  0  0
  9 10  1  0  0  0  0
  9 11  1  0  0  0  0
  9 23  1  0  0  0  0
 11 12  1  0  0  0  0
 11 13  1  0  0  0  0
 11 14  1  0  0  0  0
 14 15  1  0  0  0  0
 14 21  2  0  0  0  0
 15 16  1  0  0  0  0
 15 17  2  0  0  0  0
 17 18  1  0  0  0  0
 17 19  1  0  0  0  0
 19 20  1  0  0  0  0
 19 21  1  0  0  0  0
 21 22  1  0  0  0  0
 23 24  2  0  0  0  0
 23 25  1  0  0  0  0
 25 26  1  0  0  0  0
 25 27  1  0  0  0  0
 27 28  1  0  0  0  0
 27 29  1  0  0  0  0
 27 30  1  0  0  0  0
M  CHG  1  15   1
M  END
$$$$

  -OEChem-01062216083D

 30 30  0     1  0  0  0  0  0999 V2000
   -3.3326   -2.0538    1.5216 H   0  0  0  0  0  0  0  0  0  0  0  0
   -3.2394   -1.2109    0.8310 C   0  0  0  0  0  0  0  0  0  0  0  0
   -3.7883   -0.3597    1.2418 H   0  0  0  0  0  0  0  0  0  0  0  0
   -3.6817   -1.4909   -0.1280 H   0  0  0  0  0  0  0  0  0  0  0  0
   -1.7796   -0.8449    0.6468 C   0  0  0  0  0  0  0  0  0  0  0  0
   -0.9049   -1.4800    1.2189 O   0  0  0  0  0  0  0  0  0  0  0  0
   -1.4230    0.1893   -0.1966 N   0  0  0  0  0  0  0  0  0  0  0  0
   -2.1828    0.7356   -0.6040 H   0  0  0  0  0  0  0  0  0  0  0  0
   -0.0696    0.7697   -0.2463 C   0  0  1  0  0  0  0  0  0  0  0  0
    0.4960    0.5015    0.6521 H   0  0  0  0  0  0  0  0  0  0  0  0
    0.6869    0.2511   -1.4854 C   0  0  0  0  0  0  0  0  0  0  0  0
    0.1122    0.4961   -2.3861 H   0  0  0  0  0  0  0  0  0  0  0  0
    1.6539    0.7580   -1.5738 H   0  0  0  0  0  0  0  0  0  0  0  0
    0.9016   -1.2411   -1.4068 C   0  0  0  0  0  0  0  0  0  0  0  0
    1.8215   -1.9147   -0.6014 N   0  3  0  0  0  0  0  0  0  0  0  0
    2.3981   -1.4441    0.0995 H   0  0  0  0  0  0  0  0  0  0  0  0
    1.7179   -3.2091   -0.7795 C   0  0  0  0  0  0  0  0  0  0  0  0
    2.2733   -3.9819   -0.2453 H   0  0  0  0  0  0  0  0  0  0  0  0
    0.7513   -3.4151   -1.7605 N   0  0  0  0  0  0  0  0  0  0  0  0
    0.4406   -4.3262   -2.1102 H   0  0  0  0  0  0  0  0  0  0  0  0
    0.2424   -2.1838   -2.1548 C   0  0  0  0  0  0  0  0  0  0  0  0
   -0.5341   -1.9920   -2.8950 H   0  0  0  0  0  0  0  0  0  0  0  0
   -0.1573    2.3075   -0.2720 C   0  0  0  0  0  0  0  0  0  0  0  0
   -0.5285    2.8624   -1.2957 O   0  0  0  0  0  0  0  0  0  0  0  0
    0.1410    3.0594    0.8493 N   0  0  0  0  0  0  0  0  0  0  0  0
    0.3490    2.5677    1.7146 H   0  0  0  0  0  0  0  0  0  0  0  0
    0.0045    4.5134    0.8904 C   0  0  0  0  0  0  0  0  0  0  0  0
   -1.0363    4.8075    0.7164 H   0  0  0  0  0  0  0  0  0  0  0  0
    0.3126    4.8979    1.8679 H   0  0  0  0  0  0  0  0  0  0  0  0
    0.6331    4.9810    0.1247 H   0  0  0  0  0  0  0  0  0  0  0  0
  1  2  1  0  0  0  0
  2  3  1  0  0  0  0
  2  4  1  0  0  0  0
  2  5  1  0  0  0  0
  5  6  2  0  0  0  0
  5  7  1  0  0  0  0
  7  8  1  0  0  0  0
  7  9  1  0  0  0  0
  9 10  1  0  0  0  0
  9 11  1  0  0  0  0
  9 23  1  0  0  0  0
 11 12  1  0  0  0  0
 11 13  1  0  0  0  0
 11 14  1  0  0  0  0
 14 15  1  0  0  0  0
 14 21  2  0  0  0  0
 15 16  1  0  0  0  0
 15 17  2  0  0  0  0
 17 18  1  0  0  0  0
 17 19  1  0  0  0  0
 19 20  1  0  0  0  0
 19 21  1  0  0  0  0
 21 22  1  0  0  0  0
 23 24  2  0  0  0  0
 23 25  1  0  0  0  0
 25 26  1  0  0  0  0
 25 27  1  0  0  0  0
 27 28  1  0  0  0  0
 27 29  1  0  0  0  0
 27 30  1  0  0  0  0
M  CHG  1  15   1
M  END
$$$$

  -OEChem-01062216083D

 30 30  0     1  0  0  0  0  0999 V2000
   -3.3407   -2.0200    1.5373 H   0  0  0  0  0  0  0  0  0  0  0  0
   -3.2393   -1.1811    0.8429 C   0  0  0  0  0  0  0  0  0  0  0  0
   -3.7685   -0.3189    1.2565 H   0  0  0  0  0  0  0  0  0  0  0  0
   -3.6960   -1.4557   -0.1109 H   0  0  0  0  0  0  0  0  0  0  0  0
   -1.7752   -0.8424    0.6418 C   0  0  0  0  0  0  0  0  0  0  0  0
   -0.9055   -1.4929    1.2046 O   0  0  0  0  0  0  0  0  0  0  0  0
   -1.4085    0.1821   -0.2088 N   0  0  0  0  0  0  0  0  0  0  0  0
   -2.1625    0.7501   -0.5983 H   0  0  0  0  0  0  0  0  0  0  0  0
   -0.0531    0.7576   -0.2476 C   0  0  1  0  0  0  0  0  0  0  0  0
    0.5022    0.4921    0.6578 H   0  0  0  0  0  0  0  0  0  0  0  0
    0.7081    0.2428   -1.4833 C   0  0  0  0  0  0  0  0  0  0  0  0
    0.1385    0.4955   -2.3851 H   0  0  0  0  0  0  0  0  0  0  0  0
    1.6781    0.7452   -1.5631 H   0  0  0  0  0  0  0  0  0  0  0  0
    0.9155   -1.2507   -1.4094 C   0  0  0  0  0  0  0  0  0  0  0  0
    1.8259   -1.9355   -0.6025 N   0  3  0  0  0  0  0  0  0  0  0  0
    2.4007   -1.4736    0.1056 H   0  0  0  0  0  0  0  0  0  0  0  0
    1.7105   -3.2284   -0.7854 C   0  0  0  0  0  0  0  0  0  0  0  0
    2.2544   -4.0088   -0.2508 H   0  0  0  0  0  0  0  0  0  0  0  0
    0.7466   -3.4223   -1.7715 N   0  0  0  0  0  0  0  0  0  0  0  0
    0.4257   -4.3293   -2.1228 H   0  0  0  0  0  0  0  0  0  0  0  0
    0.2504   -2.1850   -2.1628 C   0  0  0  0  0  0  0  0  0  0  0  0
   -0.5245   -1.9840   -2.9026 H   0  0  0  0  0  0  0  0  0  0  0  0
   -0.1420    2.2942   -0.2900 C   0  0  0  0  0  0  0  0  0  0  0  0
   -0.7499    2.8186   -1.2120 O   0  0  0  0  0  0  0  0  0  0  0  0
    0.4220    3.0787    0.6992 N   0  0  0  0  0  0  0  0  0  0  0  0
    0.8255    2.6150    1.5088 H   0  0  0  0  0  0  0  0  0  0  0  0
    0.2970    4.5342    0.7223 C   0  0  0  0  0  0  0  0  0  0  0  0
   -0.7558    4.8289    0.7909 H   0  0  0  0  0  0  0  0  0  0  0  0
    0.8282    4.9489    1.5848 H   0  0  0  0  0  0  0  0  0  0  0  0
    0.7243    4.9721   -0.1865 H   0  0  0  0  0  0  0  0  0  0  0  0
  1  2  1  0  0  0  0
  2  3  1  0  0  0  0
  2  4  1  0  0  0  0
  2  5  1  0  0  0  0
  5  6  2  0  0  0  0
  5  7  1  0  0  0  0
  7  8  1  0  0  0  0
  7  9  1  0  0  0  0
  9 10  1  0  0  0  0
  9 11  1  0  0  0  0
  9 23  1  0  0  0  0
 11 12  1  0  0  0  0
 11 13  1  0  0  0  0
 11 14  1  0  0  0  0
 14 15  1  0  0  0  0
 14 21  2  0  0  0  0
 15 16  1  0  0  0  0
 15 17  2  0  0  0  0
 17 18  1  0  0  0  0
 17 19  1  0  0  0  0
 19 20  1  0  0  0  0
 19 21  1  0  0  0  0
 21 22  1  0  0  0  0
 23 24  2  0  0  0  0
 23 25  1  0  0  0  0
 25 26  1  0  0  0  0
 25 27  1  0  0  0  0
 27 28  1  0  0  0  0
 27 29  1  0  0  0  0
 27 30  1  0  0  0  0
M  CHG  1  15   1
M  END
$$$$

  -OEChem-01062216083D

 30 30  0     1  0  0  0  0  0999 V2000
   -3.3486   -1.9905    1.5495 H   0  0  0  0  0  0  0  0  0  0  0  0
   -3.2427   -1.1612    0.8444 C   0  0  0  0  0  0  0  0  0  0  0  0
   -3.7572   -0.2875    1.2525 H   0  0  0  0  0  0  0  0  0  0  0  0
   -3.7123   -1.4407   -0.1016 H   0  0  0  0  0  0  0  0  0  0  0  0
   -1.7760   -0.8438    0.6261 C   0  0  0  0  0  0  0  0  0  0  0  0
   -0.9090   -1.5072    1.1786 O   0  0  0  0  0  0  0  0  0  0  0  0
   -1.4052    0.1749   -0.2294 N   0  0  0  0  0  0  0  0  0  0  0  0
   -2.1574    0.7647   -0.5913 H   0  0  0  0  0  0  0  0  0  0  0  0
   -0.0501    0.7519   -0.2623 C   0  0  1  0  0  0  0  0  0  0  0  0
    0.4979    0.4919    0.6491 H   0  0  0  0  0  0  0  0  0  0  0  0
    0.7163    0.2359   -1.4932 C   0  0  0  0  0  0  0  0  0  0  0  0
    0.1490    0.4871   -2.3969 H   0  0  0  0  0  0  0  0  0  0  0  0
    1.6868    0.7376   -1.5710 H   0  0  0  0  0  0  0  0  0  0  0  0
    0.9231   -1.2576   -1.4138 C   0  0  0  0  0  0  0  0  0  0  0  0
    1.8296   -1.9405   -0.6009 N   0  3  0  0  0  0  0  0  0  0  0  0
    2.3995   -1.4772    0.1100 H   0  0  0  0  0  0  0  0  0  0  0  0
    1.7095   -3.2340   -0.7754 C   0  0  0  0  0  0  0  0  0  0  0  0
    2.2472   -4.0125   -0.2313 H   0  0  0  0  0  0  0  0  0  0  0  0
    0.7485   -3.4307   -1.7638 N   0  0  0  0  0  0  0  0  0  0  0  0
    0.4228   -4.3390   -2.1072 H   0  0  0  0  0  0  0  0  0  0  0  0
    0.2571   -2.1942   -2.1636 C   0  0  0  0  0  0  0  0  0  0  0  0
   -0.5163   -1.9951   -2.9052 H   0  0  0  0  0  0  0  0  0  0  0  0
   -0.1388    2.2885   -0.3166 C   0  0  0  0  0  0  0  0  0  0  0  0
   -0.9379    2.7991   -1.0889 O   0  0  0  0  0  0  0  0  0  0  0  0
    0.6590    3.0887    0.4807 N   0  0  0  0  0  0  0  0  0  0  0  0
    1.2364    2.6415    1.1874 H   0  0  0  0  0  0  0  0  0  0  0  0
    0.5546    4.5459    0.4903 C   0  0  0  0  0  0  0  0  0  0  0  0
   -0.4354    4.8580    0.8406 H   0  0  0  0  0  0  0  0  0  0  0  0
    1.3085    4.9780    1.1557 H   0  0  0  0  0  0  0  0  0  0  0  0
    0.7135    4.9505   -0.5154 H   0  0  0  0  0  0  0  0  0  0  0  0
  1  2  1  0  0  0  0
  2  3  1  0  0  0  0
  2  4  1  0  0  0  0
  2  5  1  0  0  0  0
  5  6  2  0  0  0  0
  5  7  1  0  0  0  0
  7  8  1  0  0  0  0
  7  9  1  0  0  0  0
  9 10  1  0  0  0  0
  9 11  1  0  0  0  0
  9 23  1  0  0  0  0
 11 12  1  0  0  0  0
 11 13  1  0  0  0  0
 11 14  1  0  0  0  0
 14 15  1  0  0  0  0
 14 21  2  0  0  0  0
 15 16  1  0  0  0  0
 15 17  2  0  0  0  0
 17 18  1  0  0  0  0
 17 19  1  0  0  0  0
 19 20  1  0  0  0  0
 19 21  1  0  0  0  0
 21 22  1  0  0  0  0
 23 24  2  0  0  0  0
 23 25  1  0  0  0  0
 25 26  1  0  0  0  0
 25 27  1  0  0  0  0
 27 28  1  0  0  0  0
 27 29  1  0  0  0  0
 27 30  1  0  0  0  0
M  CHG  1  15   1
M  END
$$$$

  -OEChem-01062216083D

 30 30  0     1  0  0  0  0  0999 V2000
   -3.3472   -1.9828    1.5520 H   0  0  0  0  0  0  0  0  0  0  0  0
   -3.2421   -1.1511    0.8495 C   0  0  0  0  0  0  0  0  0  0  0  0
   -3.7407   -0.2735    1.2689 H   0  0  0  0  0  0  0  0  0  0  0  0
   -3.7278   -1.4205   -0.0914 H   0  0  0  0  0  0  0  0  0  0  0  0
   -1.7758   -0.8478    0.6114 C   0  0  0  0  0  0  0  0  0  0  0  0
   -0.9072   -1.5177    1.1541 O   0  0  0  0  0  0  0  0  0  0  0  0
   -1.4080    0.1666   -0.2502 N   0  0  0  0  0  0  0  0  0  0  0  0
   -2.1610    0.7746   -0.5808 H   0  0  0  0  0  0  0  0  0  0  0  0
   -0.0553    0.7505   -0.2752 C   0  0  1  0  0  0  0  0  0  0  0  0
    0.4866    0.4999    0.6427 H   0  0  0  0  0  0  0  0  0  0  0  0
    0.7162    0.2299   -1.5009 C   0  0  0  0  0  0  0  0  0  0  0  0
    0.1508    0.4756   -2.4072 H   0  0  0  0  0  0  0  0  0  0  0  0
    1.6864    0.7323   -1.5784 H   0  0  0  0  0  0  0  0  0  0  0  0
    0.9265   -1.2632   -1.4147 C   0  0  0  0  0  0  0  0  0  0  0  0
    1.8311   -1.9434   -0.5971 N   0  3  0  0  0  0  0  0  0  0  0  0
    2.3944   -1.4789    0.1181 H   0  0  0  0  0  0  0  0  0  0  0  0
    1.7099   -3.2377   -0.7661 C   0  0  0  0  0  0  0  0  0  0  0  0
    2.2433   -4.0147   -0.2158 H   0  0  0  0  0  0  0  0  0  0  0  0
    0.7523   -3.4379   -1.7569 N   0  0  0  0  0  0  0  0  0  0  0  0
    0.4259   -4.3473   -2.0963 H   0  0  0  0  0  0  0  0  0  0  0  0
    0.2623   -2.2029   -2.1625 C   0  0  0  0  0  0  0  0  0  0  0  0
   -0.5114   -2.0074   -2.9048 H   0  0  0  0  0  0  0  0  0  0  0  0
   -0.1489    2.2881   -0.3413 C   0  0  0  0  0  0  0  0  0  0  0  0
   -1.0939    2.7949   -0.9306 O   0  0  0  0  0  0  0  0  0  0  0  0
    0.8267    3.0959    0.2144 N   0  0  0  0  0  0  0  0  0  0  0  0
    1.5529    2.6596    0.7752 H   0  0  0  0  0  0  0  0  0  0  0  0
    0.7501    4.5551    0.1915 C   0  0  0  0  0  0  0  0  0  0  0  0
   -0.1352    4.9026    0.7354 H   0  0  0  0  0  0  0  0  0  0  0  0
    1.6373    4.9913    0.6616 H   0  0  0  0  0  0  0  0  0  0  0  0
    0.6934    4.9216   -0.8395 H   0  0  0  0  0  0  0  0  0  0  0  0
  1  2  1  0  0  0  0
  2  3  1  0  0  0  0
  2  4  1  0  0  0  0
  2  5  1  0  0  0  0
  5  6  2  0  0  0  0
  5  7  1  0  0  0  0
  7  8  1  0  0  0  0
  7  9  1  0  0  0  0
  9 10  1  0  0  0  0
  9 11  1  0  0  0  0
  9 23  1  0  0  0  0
 11 12  1  0  0  0  0
 11 13  1  0  0  0  0
 11 14  1  0  0  0  0
 14 15  1  0  0  0  0
 14 21  2  0  0  0  0
 15 16  1  0  0  0  0
 15 17  2  0  0  0  0
 17 18  1  0  0  0  0
 17 19  1  0  0  0  0
 19 20  1  0  0  0  0
 19 21  1  0  0  0  0
 21 22  1  0  0  0  0
 23 24  2  0  0  0  0
 23 25  1  0  0  0  0
 25 26  1  0  0  0  0
 25 27  1  0  0  0  0
 27 28  1  0  0  0  0
 27 29  1  0  0  0  0
 27 30  1  0  0  0  0
M  CHG  1  15   1
M  END
$$$$

  -OEChem-01062216083D

 30 30  0     1  0  0  0  0  0999 V2000
   -3.3429   -1.9734    1.5539 H   0  0  0  0  0  0  0  0  0  0  0  0
   -3.2417   -1.1447    0.8474 C   0  0  0  0  0  0  0  0  0  0  0  0
   -3.7292   -0.2626    1.2703 H   0  0  0  0  0  0  0  0  0  0  0  0
   -3.7404   -1.4140   -0.0866 H   0  0  0  0  0  0  0  0  0  0  0  0
   -1.7769   -0.8517    0.5892 C   0  0  0  0  0  0  0  0  0  0  0  0
   -0.9065   -1.5285    1.1201 O   0  0  0  0  0  0  0  0  0  0  0  0
   -1.4148    0.1617   -0.2762 N   0  0  0  0  0  0  0  0  0  0  0  0
   -2.1699    0.7868   -0.5692 H   0  0  0  0  0  0  0  0  0  0  0  0
   -0.0647    0.7529   -0.2957 C   0  0  1  0  0  0  0  0  0  0  0  0
    0.4730    0.5108    0.6272 H   0  0  0  0  0  0  0  0  0  0  0  0
    0.7126    0.2234   -1.5154 C   0  0  0  0  0  0  0  0  0  0  0  0
    0.1483    0.4589   -2.4251 H   0  0  0  0  0  0  0  0  0  0  0  0
    1.6821    0.7259   -1.5968 H   0  0  0  0  0  0  0  0  0  0  0  0
    0.9270   -1.2683   -1.4163 C   0  0  0  0  0  0  0  0  0  0  0  0
    1.8311   -1.9394   -0.5904 N   0  3  0  0  0  0  0  0  0  0  0  0
    2.3852   -1.4684    0.1278 H   0  0  0  0  0  0  0  0  0  0  0  0
    1.7118   -3.2353   -0.7474 C   0  0  0  0  0  0  0  0  0  0  0  0
    2.2420   -4.0066   -0.1863 H   0  0  0  0  0  0  0  0  0  0  0  0
    0.7588   -3.4460   -1.7401 N   0  0  0  0  0  0  0  0  0  0  0  0
    0.4335   -4.3590   -2.0709 H   0  0  0  0  0  0  0  0  0  0  0  0
    0.2674   -2.2159   -2.1579 C   0  0  0  0  0  0  0  0  0  0  0  0
   -0.5053   -2.0291   -2.9033 H   0  0  0  0  0  0  0  0  0  0  0  0
   -0.1623    2.2922   -0.3678 C   0  0  0  0  0  0  0  0  0  0  0  0
   -1.2125    2.8045   -0.7326 O   0  0  0  0  0  0  0  0  0  0  0  0
    0.9290    3.0971   -0.0918 N   0  0  0  0  0  0  0  0  0  0  0  0
    1.7622    2.6643    0.2953 H   0  0  0  0  0  0  0  0  0  0  0  0
    0.8657    4.5565   -0.1397 C   0  0  0  0  0  0  0  0  0  0  0  0
    0.1616    4.9362    0.6089 H   0  0  0  0  0  0  0  0  0  0  0  0
    1.8510    4.9886    0.0624 H   0  0  0  0  0  0  0  0  0  0  0  0
    0.5400    4.8960   -1.1292 H   0  0  0  0  0  0  0  0  0  0  0  0
  1  2  1  0  0  0  0
  2  3  1  0  0  0  0
  2  4  1  0  0  0  0
  2  5  1  0  0  0  0
  5  6  2  0  0  0  0
  5  7  1  0  0  0  0
  7  8  1  0  0  0  0
  7  9  1  0  0  0  0
  9 10  1  0  0  0  0
  9 11  1  0  0  0  0
  9 23  1  0  0  0  0
 11 12  1  0  0  0  0
 11 13  1  0  0  0  0
 11 14  1  0  0  0  0
 14 15  1  0  0  0  0
 14 21  2  0  0  0  0
 15 16  1  0  0  0  0
 15 17  2  0  0  0  0
 17 18  1  0  0  0  0
 17 19  1  0  0  0  0
 19 20  1  0  0  0  0
 19 21  1  0  0  0  0
 21 22  1  0  0  0  0
 23 24  2  0  0  0  0
 23 25  1  0  0  0  0
 25 26  1  0  0  0  0
 25 27  1  0  0  0  0
 27 28  1  0  0  0  0
 27 29  1  0  0  0  0
 27 30  1  0  0  0  0
M  CHG  1  15   1
M  END
$$$$

  -OEChem-01062216083D

 30 30  0     1  0  0  0  0  0999 V2000
   -3.2343   -1.9607    1.5759 H   0  0  0  0  0  0  0  0  0  0  0  0
   -3.1778   -1.1059    0.8958 C   0  0  0  0  0  0  0  0  0  0  0  0
   -3.5530   -0.2202    1.4152 H   0  0  0  0  0  0  0  0  0  0  0  0
   -3.8100   -1.3036    0.0270 H   0  0  0  0  0  0  0  0  0  0  0  0
   -1.7445   -0.8786    0.4570 C   0  0  0  0  0  0  0  0  0  0  0  0
   -0.8575   -1.6468    0.8051 O   0  0  0  0  0  0  0  0  0  0  0  0
   -1.4338    0.1626   -0.3953 N   0  0  0  0  0  0  0  0  0  0  0  0
   -2.1923    0.8390   -0.5106 H   0  0  0  0  0  0  0  0  0  0  0  0
   -0.0853    0.7614   -0.4060 C   0  0  1  0  0  0  0  0  0  0  0  0
    0.5478    0.3110    0.3659 H   0  0  0  0  0  0  0  0  0  0  0  0
    0.5507    0.5202   -1.7853 C   0  0  0  0  0  0  0  0  0  0  0  0
   -0.0994    0.9423   -2.5602 H   0  0  0  0  0  0  0  0  0  0  0  0
    1.5180    1.0269   -1.8596 H   0  0  0  0  0  0  0  0  0  0  0  0
    0.7381   -0.9626   -2.0111 C   0  0  0  0  0  0  0  0  0  0  0  0
    1.7054   -1.7896   -1.4354 N   0  3  0  0  0  0  0  0  0  0  0  0
    2.3475   -1.4734   -0.7055 H   0  0  0  0  0  0  0  0  0  0  0  0
    1.5376   -3.0277   -1.8321 C   0  0  0  0  0  0  0  0  0  0  0  0
    2.1061   -3.8971   -1.4972 H   0  0  0  0  0  0  0  0  0  0  0  0
    0.4794   -3.0327   -2.7369 N   0  0  0  0  0  0  0  0  0  0  0  0
    0.0972   -3.8605   -3.2036 H   0  0  0  0  0  0  0  0  0  0  0  0
   -0.0217   -1.7416   -2.8473 C   0  0  0  0  0  0  0  0  0  0  0  0
   -0.8661   -1.4078   -3.4502 H   0  0  0  0  0  0  0  0  0  0  0  0
   -0.1618    2.2653   -0.0574 C   0  0  0  0  0  0  0  0  0  0  0  0
   -1.2598    2.7872    0.0860 O   0  0  0  0  0  0  0  0  0  0  0  0
    0.9744    3.0537   -0.0003 N   0  0  0  0  0  0  0  0  0  0  0  0
    1.8813    2.5996   -0.0497 H   0  0  0  0  0  0  0  0  0  0  0  0
    0.9306    4.4787    0.3220 C   0  0  0  0  0  0  0  0  0  0  0  0
    0.5245    4.6329    1.3278 H   0  0  0  0  0  0  0  0  0  0  0  0
    1.9361    4.9098    0.2864 H   0  0  0  0  0  0  0  0  0  0  0  0
    0.3015    5.0171   -0.3956 H   0  0  0  0  0  0  0  0  0  0  0  0
  1  2  1  0  0  0  0
  2  3  1  0  0  0  0
  2  4  1  0  0  0  0
  2  5  1  0  0  0  0
  5  6  2  0  0  0  0
  5  7  1  0  0  0  0
  7  8  1  0  0  0  0
  7  9  1  0  0  0  0
  9 10  1  0  0  0  0
  9 11  1  0  0  0  0
  9 23  1  0  0  0  0
 11 12  1  0  0  0  0
 11 13  1  0  0  0  0
 11 14  1  0  0  0  0
 14 15  1  0  0  0  0
 14 21  2  0  0  0  0
 15 16  1  0  0  0  0
 15 17  2  0  0  0  0
 17 18  1  0  0  0  0
 17 19  1  0  0  0  0
 19 20  1  0  0  0  0
 19 21  1  0  0  0  0
 21 22  1  0  0  0  0
 23 24  2  0  0  0  0
 23 25  1  0  0  0  0
 25 26  1  0  0  0  0
 25 27  1  0  0  0  0
 27 28  1  0  0  0  0
 27 29  1  0  0  0  0
 27 30  1  0  0  0  0
M  CHG  1  15   1
M  END
$$$$

  -OEChem-01062216083D

 30 30  0     1  0  0  0  0  0999 V2000
   -3.2145   -1.9577    1.5674 H   0  0  0  0  0  0  0  0  0  0  0  0
   -3.1655   -1.0949    0.8972 C   0  0  0  0  0  0  0  0  0  0  0  0
   -3.5141   -0.2113    1.4383 H   0  0  0  0  0  0  0  0  0  0  0  0
   -3.8236   -1.2728    0.0437 H   0  0  0  0  0  0  0  0  0  0  0  0
   -1.7414   -0.8811    0.4232 C   0  0  0  0  0  0  0  0  0  0  0  0
   -0.8552   -1.6630    0.7424 O   0  0  0  0  0  0  0  0  0  0  0  0
   -1.4401    0.1670   -0.4247 N   0  0  0  0  0  0  0  0  0  0  0  0
   -2.1979    0.8487   -0.5053 H   0  0  0  0  0  0  0  0  0  0  0  0
   -0.0910    0.7663   -0.4311 C   0  0  1  0  0  0  0  0  0  0  0  0
    0.5394    0.3171    0.3440 H   0  0  0  0  0  0  0  0  0  0  0  0
    0.5513    0.5128   -1.8071 C   0  0  0  0  0  0  0  0  0  0  0  0
   -0.0951    0.9280   -2.5885 H   0  0  0  0  0  0  0  0  0  0  0  0
    1.5215    1.0127   -1.8838 H   0  0  0  0  0  0  0  0  0  0  0  0
    0.7373   -0.9723   -2.0170 C   0  0  0  0  0  0  0  0  0  0  0  0
    1.7020   -1.7921   -1.4268 N   0  3  0  0  0  0  0  0  0  0  0  0
    2.3359   -1.4683   -0.6928 H   0  0  0  0  0  0  0  0  0  0  0  0
    1.5320   -3.0356   -1.8050 C   0  0  0  0  0  0  0  0  0  0  0  0
    2.0941   -3.9017   -1.4514 H   0  0  0  0  0  0  0  0  0  0  0  0
    0.4788   -3.0512   -2.7155 N   0  0  0  0  0  0  0  0  0  0  0  0
    0.0947   -3.8851   -3.1693 H   0  0  0  0  0  0  0  0  0  0  0  0
   -0.0192   -1.7611   -2.8470 C   0  0  0  0  0  0  0  0  0  0  0  0
   -0.8604   -1.4350   -3.4582 H   0  0  0  0  0  0  0  0  0  0  0  0
   -0.1731    2.2688   -0.0698 C   0  0  0  0  0  0  0  0  0  0  0  0
   -1.2375    2.7242    0.3272 O   0  0  0  0  0  0  0  0  0  0  0  0
    0.8831    3.1361   -0.2929 N   0  0  0  0  0  0  0  0  0  0  0  0
    1.7781    2.7486   -0.5745 H   0  0  0  0  0  0  0  0  0  0  0  0
    0.8105    4.5650    0.0075 C   0  0  0  0  0  0  0  0  0  0  0  0
    0.6137    4.7251    1.0733 H   0  0  0  0  0  0  0  0  0  0  0  0
    1.7547    5.0574   -0.2459 H   0  0  0  0  0  0  0  0  0  0  0  0
    0.0103    5.0400   -0.5706 H   0  0  0  0  0  0  0  0  0  0  0  0
  1  2  1  0  0  0  0
  2  3  1  0  0  0  0
  2  4  1  0  0  0  0
  2  5  1  0  0  0  0
  5  6  2  0  0  0  0
  5  7  1  0  0  0  0
  7  8  1  0  0  0  0
  7  9  1  0  0  0  0
  9 10  1  0  0  0  0
  9 11  1  0  0  0  0
  9 23  1  0  0  0  0
 11 12  1  0  0  0  0
 11 13  1  0  0  0  0
 11 14  1  0  0  0  0
 14 15  1  0  0  0  0
 14 21  2  0  0  0  0
 15 16  1  0  0  0  0
 15 17  2  0  0  0  0
 17 18  1  0  0  0  0
 17 19  1  0  0  0  0
 19 20  1  0  0  0  0
 19 21  1  0  0  0  0
 21 22  1  0  0  0  0
 23 24  2  0  0  0  0
 23 25  1  0  0  0  0
 25 26  1  0  0  0  0
 25 27  1  0  0  0  0
 27 28  1  0  0  0  0
 27 29  1  0  0  0  0
 27 30  1  0  0  0  0
M  CHG  1  15   1
M  END
$$$$

  -OEChem-01062216083D

 30 30  0     1  0  0  0  0  0999 V2000
   -3.2059   -1.9595    1.5553 H   0  0  0  0  0  0  0  0  0  0  0  0
   -3.1613   -1.0863    0.8982 C   0  0  0  0  0  0  0  0  0  0  0  0
   -3.4919   -0.2085    1.4597 H   0  0  0  0  0  0  0  0  0  0  0  0
   -3.8366   -1.2447    0.0541 H   0  0  0  0  0  0  0  0  0  0  0  0
   -1.7438   -0.8762    0.4028 C   0  0  0  0  0  0  0  0  0  0  0  0
   -0.8577   -1.6665    0.7012 O   0  0  0  0  0  0  0  0  0  0  0  0
   -1.4518    0.1765   -0.4433 N   0  0  0  0  0  0  0  0  0  0  0  0
   -2.2106    0.8581   -0.5022 H   0  0  0  0  0  0  0  0  0  0  0  0
   -0.1012    0.7731   -0.4560 C   0  0  1  0  0  0  0  0  0  0  0  0
    0.5275    0.3271    0.3225 H   0  0  0  0  0  0  0  0  0  0  0  0
    0.5496    0.5035   -1.8259 C   0  0  0  0  0  0  0  0  0  0  0  0
   -0.0899    0.9113   -2.6166 H   0  0  0  0  0  0  0  0  0  0  0  0
    1.5233    0.9971   -1.8991 H   0  0  0  0  0  0  0  0  0  0  0  0
    0.7369   -0.9839   -2.0186 C   0  0  0  0  0  0  0  0  0  0  0  0
    1.6992   -1.7948   -1.4123 N   0  3  0  0  0  0  0  0  0  0  0  0
    2.3216   -1.4633   -0.6718 H   0  0  0  0  0  0  0  0  0  0  0  0
    1.5353   -3.0426   -1.7786 C   0  0  0  0  0  0  0  0  0  0  0  0
    2.0955   -3.9037   -1.4096 H   0  0  0  0  0  0  0  0  0  0  0  0
    0.4907   -3.0705   -2.6987 N   0  0  0  0  0  0  0  0  0  0  0  0
    0.1123   -3.9105   -3.1462 H   0  0  0  0  0  0  0  0  0  0  0  0
   -0.0101   -1.7832   -2.8472 C   0  0  0  0  0  0  0  0  0  0  0  0
   -0.8471   -1.4657   -3.4683 H   0  0  0  0  0  0  0  0  0  0  0  0
   -0.1836    2.2740   -0.0843 C   0  0  0  0  0  0  0  0  0  0  0  0
   -1.1424    2.6627    0.5681 O   0  0  0  0  0  0  0  0  0  0  0  0
    0.7158    3.2115   -0.5648 N   0  0  0  0  0  0  0  0  0  0  0  0
    1.5168    2.8899   -1.0984 H   0  0  0  0  0  0  0  0  0  0  0  0
    0.6094    4.6388   -0.2673 C   0  0  0  0  0  0  0  0  0  0  0  0
    0.6643    4.8128    0.8130 H   0  0  0  0  0  0  0  0  0  0  0  0
    1.4244    5.1905   -0.7465 H   0  0  0  0  0  0  0  0  0  0  0  0
   -0.3406    5.0396   -0.6377 H   0  0  0  0  0  0  0  0  0  0  0  0
  1  2  1  0  0  0  0
  2  3  1  0  0  0  0
  2  4  1  0  0  0  0
  2  5  1  0  0  0  0
  5  6  2  0  0  0  0
  5  7  1  0  0  0  0
  7  8  1  0  0  0  0
  7  9  1  0  0  0  0
  9 10  1  0  0  0  0
  9 11  1  0  0  0  0
  9 23  1  0  0  0  0
 11 12  1  0  0  0  0
 11 13  1  0  0  0  0
 11 14  1  0  0  0  0
 14 15  1  0  0  0  0
 14 21  2  0  0  0  0
 15 16  1  0  0  0  0
 15 17  2  0  0  0  0
 17 18  1  0  0  0  0
 17 19  1  0  0  0  0
 19 20  1  0  0  0  0
 19 21  1  0  0  0  0
 21 22  1  0  0  0  0
 23 24  2  0  0  0  0
 23 25  1  0  0  0  0
 25 26  1  0  0  0  0
 25 27  1  0  0  0  0
 27 28  1  0  0  0  0
 27 29  1  0  0  0  0
 27 30  1  0  0  0  0
M  CHG  1  15   1
M  END
$$$$

  -OEChem-01062216083D

 30 30  0     1  0  0  0  0  0999 V2000
   -3.2042   -1.9811    1.5230 H   0  0  0  0  0  0  0  0  0  0  0  0
   -3.1574   -1.0845    0.8987 C   0  0  0  0  0  0  0  0  0  0  0  0
   -3.4697   -0.2247    1.4974 H   0  0  0  0  0  0  0  0  0  0  0  0
   -3.8456   -1.2034    0.0586 H   0  0  0  0  0  0  0  0  0  0  0  0
   -1.7442   -0.8729    0.3917 C   0  0  0  0  0  0  0  0  0  0  0  0
   -0.8573   -1.6673    0.6760 O   0  0  0  0  0  0  0  0  0  0  0  0
   -1.4605    0.1840   -0.4527 N   0  0  0  0  0  0  0  0  0  0  0  0
   -2.2234    0.8599   -0.5081 H   0  0  0  0  0  0  0  0  0  0  0  0
   -0.1097    0.7796   -0.4748 C   0  0  1  0  0  0  0  0  0  0  0  0
    0.5200    0.3359    0.3046 H   0  0  0  0  0  0  0  0  0  0  0  0
    0.5469    0.5014   -1.8402 C   0  0  0  0  0  0  0  0  0  0  0  0
   -0.0898    0.9005   -2.6377 H   0  0  0  0  0  0  0  0  0  0  0  0
    1.5204    0.9967   -1.9092 H   0  0  0  0  0  0  0  0  0  0  0  0
    0.7388   -0.9868   -2.0218 C   0  0  0  0  0  0  0  0  0  0  0  0
    1.7026   -1.7876   -1.4044 N   0  3  0  0  0  0  0  0  0  0  0  0
    2.3221   -1.4453   -0.6662 H   0  0  0  0  0  0  0  0  0  0  0  0
    1.5434   -3.0400   -1.7563 C   0  0  0  0  0  0  0  0  0  0  0  0
    2.1051   -3.8950   -1.3762 H   0  0  0  0  0  0  0  0  0  0  0  0
    0.5002   -3.0822   -2.6772 N   0  0  0  0  0  0  0  0  0  0  0  0
    0.1233   -3.9291   -3.1126 H   0  0  0  0  0  0  0  0  0  0  0  0
   -0.0051   -1.7984   -2.8413 C   0  0  0  0  0  0  0  0  0  0  0  0
   -0.8442   -1.4924   -3.4655 H   0  0  0  0  0  0  0  0  0  0  0  0
   -0.1914    2.2768   -0.0949 C   0  0  0  0  0  0  0  0  0  0  0  0
   -0.9854    2.6099    0.7723 O   0  0  0  0  0  0  0  0  0  0  0  0
    0.4873    3.2653   -0.7886 N   0  0  0  0  0  0  0  0  0  0  0  0
    1.1149    2.9929   -1.5380 H   0  0  0  0  0  0  0  0  0  0  0  0
    0.3379    4.6886   -0.4909 C   0  0  0  0  0  0  0  0  0  0  0  0
    0.5782    4.8906    0.5589 H   0  0  0  0  0  0  0  0  0  0  0  0
    1.0115    5.2827   -1.1165 H   0  0  0  0  0  0  0  0  0  0  0  0
   -0.6899    5.0159   -0.6831 H   0  0  0  0  0  0  0  0  0  0  0  0
  1  2  1  0  0  0  0
  2  3  1  0  0  0  0
  2  4  1  0  0  0  0
  2  5  1  0  0  0  0
  5  6  2  0  0  0  0
  5  7  1  0  0  0  0
  7  8  1  0  0  0  0
  7  9  1  0  0  0  0
  9 10  1  0  0  0  0
  9 11  1  0  0  0  0
  9 23  1  0  0  0  0
 11 12  1  0  0  0  0
 11 13  1  0  0  0  0
 11 14  1  0  0  0  0
 14 15  1  0  0  0  0
 14 21  2  0  0  0  0
 15 16  1  0  0  0  0
 15 17  2  0  0  0  0
 17 18  1  0  0  0  0
 17 19  1  0  0  0  0
 19 20  1  0  0  0  0
 19 21  1  0  0  0  0
 21 22  1  0  0  0  0
 23 24  2  0  0  0  0
 23 25  1  0  0  0  0
 25 26  1  0  0  0  0
 25 27  1  0  0  0  0
 27 28  1  0  0  0  0
 27 29  1  0  0  0  0
 27 30  1  0  0  0  0
M  CHG  1  15   1
M  END
$$$$

  -OEChem-01062216083D

 30 30  0     1  0  0  0  0  0999 V2000
   -3.2052   -1.9852    1.5300 H   0  0  0  0  0  0  0  0  0  0  0  0
   -3.1685   -1.0945    0.8964 C   0  0  0  0  0  0  0  0  0  0  0  0
   -3.4883   -0.2323    1.4874 H   0  0  0  0  0  0  0  0  0  0  0  0
   -3.8568   -1.2287    0.0588 H   0  0  0  0  0  0  0  0  0  0  0  0
   -1.7585   -0.8741    0.3846 C   0  0  0  0  0  0  0  0  0  0  0  0
   -0.8683   -1.6673    0.6609 O   0  0  0  0  0  0  0  0  0  0  0  0
   -1.4838    0.1865   -0.4588 N   0  0  0  0  0  0  0  0  0  0  0  0
   -2.2553    0.8501   -0.5266 H   0  0  0  0  0  0  0  0  0  0  0  0
   -0.1352    0.7864   -0.4911 C   0  0  1  0  0  0  0  0  0  0  0  0
    0.4954    0.3446    0.2891 H   0  0  0  0  0  0  0  0  0  0  0  0
    0.5310    0.5058   -1.8504 C   0  0  0  0  0  0  0  0  0  0  0  0
   -0.1047    0.8915   -2.6546 H   0  0  0  0  0  0  0  0  0  0  0  0
    1.4998    1.0125   -1.9143 H   0  0  0  0  0  0  0  0  0  0  0  0
    0.7349   -0.9814   -2.0214 C   0  0  0  0  0  0  0  0  0  0  0  0
    1.7034   -1.7652   -1.3902 N   0  3  0  0  0  0  0  0  0  0  0  0
    2.3124   -1.4088   -0.6496 H   0  0  0  0  0  0  0  0  0  0  0  0
    1.5632   -3.0219   -1.7346 C   0  0  0  0  0  0  0  0  0  0  0  0
    2.1335   -3.8666   -1.3441 H   0  0  0  0  0  0  0  0  0  0  0  0
    0.5278   -3.0839   -2.6633 N   0  0  0  0  0  0  0  0  0  0  0  0
    0.1669   -3.9388   -3.0969 H   0  0  0  0  0  0  0  0  0  0  0  0
    0.0072   -1.8081   -2.8406 C   0  0  0  0  0  0  0  0  0  0  0  0
   -0.8299   -1.5178   -3.4743 H   0  0  0  0  0  0  0  0  0  0  0  0
   -0.2094    2.2807   -0.1075 C   0  0  0  0  0  0  0  0  0  0  0  0
   -0.7682    2.5780    0.9363 O   0  0  0  0  0  0  0  0  0  0  0  0
    0.2015    3.2942   -0.9578 N   0  0  0  0  0  0  0  0  0  0  0  0
    0.5994    3.0441   -1.8574 H   0  0  0  0  0  0  0  0  0  0  0  0
    0.0435    4.7117   -0.6374 C   0  0  0  0  0  0  0  0  0  0  0  0
    0.5634    4.9558    0.2956 H   0  0  0  0  0  0  0  0  0  0  0  0
    0.4615    5.3336   -1.4353 H   0  0  0  0  0  0  0  0  0  0  0  0
   -1.0161    4.9648   -0.5228 H   0  0  0  0  0  0  0  0  0  0  0  0
  1  2  1  0  0  0  0
  2  3  1  0  0  0  0
  2  4  1  0  0  0  0
  2  5  1  0  0  0  0
  5  6  2  0  0  0  0
  5  7  1  0  0  0  0
  7  8  1  0  0  0  0
  7  9  1  0  0  0  0
  9 10  1  0  0  0  0
  9 11  1  0  0  0  0
  9 23  1  0  0  0  0
 11 12  1  0  0  0  0
 11 13  1  0  0  0  0
 11 14  1  0  0  0  0
 14 15  1  0  0  0  0
 14 21  2  0  0  0  0
 15 16  1  0  0  0  0
 15 17  2  0  0  0  0
 17 18  1  0  0  0  0
 17 19  1  0  0  0  0
 19 20  1  0  0  0  0
 19 21  1  0  0  0  0
 21 22  1  0  0  0  0
 23 24  2  0  0  0  0
 23 25  1  0  0  0  0
 25 26  1  0  0  0  0
 25 27  1  0  0  0  0
 27 28  1  0  0  0  0
 27 29  1  0  0  0  0
 27 30  1  0  0  0  0
M  CHG  1  15   1
M  END
$$$$

  -OEChem-01062216083D

 30 30  0     1  0  0  0  0  0999 V2000
   -3.2071   -2.0177    1.5205 H   0  0  0  0  0  0  0  0  0  0  0  0
   -3.1796   -1.1214    0.8942 C   0  0  0  0  0  0  0  0  0  0  0  0
   -3.5107   -0.2682    1.4921 H   0  0  0  0  0  0  0  0  0  0  0  0
   -3.8652   -1.2570    0.0546 H   0  0  0  0  0  0  0  0  0  0  0  0
   -1.7709   -0.8805    0.3873 C   0  0  0  0  0  0  0  0  0  0  0  0
   -0.8732   -1.6658    0.6610 O   0  0  0  0  0  0  0  0  0  0  0  0
   -1.5071    0.1842   -0.4555 N   0  0  0  0  0  0  0  0  0  0  0  0
   -2.2884    0.8333   -0.5398 H   0  0  0  0  0  0  0  0  0  0  0  0
   -0.1626    0.7932   -0.4979 C   0  0  1  0  0  0  0  0  0  0  0  0
    0.4723    0.3527    0.2802 H   0  0  0  0  0  0  0  0  0  0  0  0
    0.5095    0.5178   -1.8547 C   0  0  0  0  0  0  0  0  0  0  0  0
   -0.1276    0.8927   -2.6623 H   0  0  0  0  0  0  0  0  0  0  0  0
    1.4714    1.0390   -1.9155 H   0  0  0  0  0  0  0  0  0  0  0  0
    0.7288   -0.9678   -2.0208 C   0  0  0  0  0  0  0  0  0  0  0  0
    1.7050   -1.7361   -1.3826 N   0  3  0  0  0  0  0  0  0  0  0  0
    2.3069   -1.3677   -0.6420 H   0  0  0  0  0  0  0  0  0  0  0  0
    1.5815   -2.9964   -1.7200 C   0  0  0  0  0  0  0  0  0  0  0  0
    2.1607   -3.8316   -1.3223 H   0  0  0  0  0  0  0  0  0  0  0  0
    0.5501   -3.0762   -2.6519 N   0  0  0  0  0  0  0  0  0  0  0  0
    0.2014   -3.9378   -3.0821 H   0  0  0  0  0  0  0  0  0  0  0  0
    0.0146   -1.8075   -2.8385 C   0  0  0  0  0  0  0  0  0  0  0  0
   -0.8232   -1.5313   -3.4777 H   0  0  0  0  0  0  0  0  0  0  0  0
   -0.2295    2.2854   -0.1129 C   0  0  0  0  0  0  0  0  0  0  0  0
   -0.5033    2.5713    1.0409 O   0  0  0  0  0  0  0  0  0  0  0  0
   -0.1193    3.2992   -1.0500 N   0  0  0  0  0  0  0  0  0  0  0  0
    0.0272    3.0484   -2.0226 H   0  0  0  0  0  0  0  0  0  0  0  0
   -0.2748    4.7127   -0.7115 C   0  0  0  0  0  0  0  0  0  0  0  0
    0.4489    5.0069    0.0569 H   0  0  0  0  0  0  0  0  0  0  0  0
   -0.1098    5.3383   -1.5946 H   0  0  0  0  0  0  0  0  0  0  0  0
   -1.2842    4.9091   -0.3335 H   0  0  0  0  0  0  0  0  0  0  0  0
  1  2  1  0  0  0  0
  2  3  1  0  0  0  0
  2  4  1  0  0  0  0
  2  5  1  0  0  0  0
  5  6  2  0  0  0  0
  5  7  1  0  0  0  0
  7  8  1  0  0  0  0
  7  9  1  0  0  0  0
  9 10  1  0  0  0  0
  9 11  1  0  0  0  0
  9 23  1  0  0  0  0
 11 12  1  0  0  0  0
 11 13  1  0  0  0  0
 11 14  1  0  0  0  0
 14 15  1  0  0  0  0
 14 21  2  0  0  0  0
 15 16  1  0  0  0  0
 15 17  2  0  0  0  0
 17 18  1  0  0  0  0
 17 19  1  0  0  0  0
 19 20  1  0  0  0  0
 19 21  1  0  0  0  0
 21 22  1  0  0  0  0
 23 24  2  0  0  0  0
 23 25  1  0  0  0  0
 25 26  1  0  0  0  0
 25 27  1  0  0  0  0
 27 28  1  0  0  0  0
 27 29  1  0  0  0  0
 27 30  1  0  0  0  0
M  CHG  1  15   1
M  END
$$$$

  -OEChem-01062216083D

 30 30  0     1  0  0  0  0  0999 V2000
   -3.2169   -2.0564    1.5197 H   0  0  0  0  0  0  0  0  0  0  0  0
   -3.2016   -1.1657    0.8847 C   0  0  0  0  0  0  0  0  0  0  0  0
   -3.5641   -0.3154    1.4683 H   0  0  0  0  0  0  0  0  0  0  0  0
   -3.8696   -1.3272    0.0356 H   0  0  0  0  0  0  0  0  0  0  0  0
   -1.7912   -0.8950    0.3978 C   0  0  0  0  0  0  0  0  0  0  0  0
   -0.8831   -1.6646    0.6796 O   0  0  0  0  0  0  0  0  0  0  0  0
   -1.5377    0.1750   -0.4420 N   0  0  0  0  0  0  0  0  0  0  0  0
   -2.3306    0.8059   -0.5491 H   0  0  0  0  0  0  0  0  0  0  0  0
   -0.1994    0.7975   -0.4934 C   0  0  1  0  0  0  0  0  0  0  0  0
    0.4417    0.3561    0.2795 H   0  0  0  0  0  0  0  0  0  0  0  0
    0.4776    0.5352   -1.8495 C   0  0  0  0  0  0  0  0  0  0  0  0
   -0.1605    0.9034   -2.6590 H   0  0  0  0  0  0  0  0  0  0  0  0
    1.4318    1.0709   -1.9061 H   0  0  0  0  0  0  0  0  0  0  0  0
    0.7161   -0.9470   -2.0169 C   0  0  0  0  0  0  0  0  0  0  0  0
    1.7037   -1.6971   -1.3747 N   0  3  0  0  0  0  0  0  0  0  0  0
    2.2986   -1.3160   -0.6345 H   0  0  0  0  0  0  0  0  0  0  0  0
    1.6043   -2.9594   -1.7117 C   0  0  0  0  0  0  0  0  0  0  0  0
    2.1985   -3.7830   -1.3121 H   0  0  0  0  0  0  0  0  0  0  0  0
    0.5776   -3.0586   -2.6469 N   0  0  0  0  0  0  0  0  0  0  0  0
    0.2477   -3.9265   -3.0792 H   0  0  0  0  0  0  0  0  0  0  0  0
    0.0201   -1.7999   -2.8369 C   0  0  0  0  0  0  0  0  0  0  0  0
   -0.8187   -1.5399   -3.4815 H   0  0  0  0  0  0  0  0  0  0  0  0
   -0.2596    2.2879   -0.1069 C   0  0  0  0  0  0  0  0  0  0  0  0
   -0.1879    2.5900    1.0722 O   0  0  0  0  0  0  0  0  0  0  0  0
   -0.4644    3.2795   -1.0511 N   0  0  0  0  0  0  0  0  0  0  0  0
   -0.5843    3.0077   -2.0219 H   0  0  0  0  0  0  0  0  0  0  0  0
   -0.5775    4.6946   -0.7035 C   0  0  0  0  0  0  0  0  0  0  0  0
    0.3342    5.0424   -0.2053 H   0  0  0  0  0  0  0  0  0  0  0  0
   -0.7282    5.2986   -1.6040 H   0  0  0  0  0  0  0  0  0  0  0  0
   -1.4268    4.8598   -0.0314 H   0  0  0  0  0  0  0  0  0  0  0  0
  1  2  1  0  0  0  0
  2  3  1  0  0  0  0
  2  4  1  0  0  0  0
  2  5  1  0  0  0  0
  5  6  2  0  0  0  0
  5  7  1  0  0  0  0
  7  8  1  0  0  0  0
  7  9  1  0  0  0  0
  9 10  1  0  0  0  0
  9 11  1  0  0  0  0
  9 23  1  0  0  0  0
 11 12  1  0  0  0  0
 11 13  1  0  0  0  0
 11 14  1  0  0  0  0
 14 15  1  0  0  0  0
 14 21  2  0  0  0  0
 15 16  1  0  0  0  0
 15 17  2  0  0  0  0
 17 18  1  0  0  0  0
 17 19  1  0  0  0  0
 19 20  1  0  0  0  0
 19 21  1  0  0  0  0
 21 22  1  0  0  0  0
 23 24  2  0  0  0  0
 23 25  1  0  0  0  0
 25 26  1  0  0  0  0
 25 27  1  0  0  0  0
 27 28  1  0  0  0  0
 27 29  1  0  0  0  0
 27 30  1  0  0  0  0
M  CHG  1  15   1
M  END
$$$$

  -OEChem-01062216083D

 30 30  0     1  0  0  0  0  0999 V2000
   -3.2330   -2.1095    1.5110 H   0  0  0  0  0  0  0  0  0  0  0  0
   -3.2264   -1.2188    0.8760 C   0  0  0  0  0  0  0  0  0  0  0  0
   -3.6189   -0.3773    1.4527 H   0  0  0  0  0  0  0  0  0  0  0  0
   -3.8747   -1.3959    0.0146 H   0  0  0  0  0  0  0  0  0  0  0  0
   -1.8136   -0.9170    0.4150 C   0  0  0  0  0  0  0  0  0  0  0  0
   -0.8961   -1.6700    0.7089 O   0  0  0  0  0  0  0  0  0  0  0  0
   -1.5685    0.1596   -0.4192 N   0  0  0  0  0  0  0  0  0  0  0  0
   -2.3715    0.7734   -0.5451 H   0  0  0  0  0  0  0  0  0  0  0  0
   -0.2364    0.7967   -0.4748 C   0  0  1  0  0  0  0  0  0  0  0  0
    0.4095    0.3511    0.2919 H   0  0  0  0  0  0  0  0  0  0  0  0
    0.4433    0.5552   -1.8319 C   0  0  0  0  0  0  0  0  0  0  0  0
   -0.1973    0.9246   -2.6389 H   0  0  0  0  0  0  0  0  0  0  0  0
    1.3904    1.1042   -1.8824 H   0  0  0  0  0  0  0  0  0  0  0  0
    0.7006   -0.9223   -2.0097 C   0  0  0  0  0  0  0  0  0  0  0  0
    1.6996   -1.6585   -1.3694 N   0  3  0  0  0  0  0  0  0  0  0  0
    2.2890   -1.2692   -0.6288 H   0  0  0  0  0  0  0  0  0  0  0  0
    1.6253   -2.9200   -1.7154 C   0  0  0  0  0  0  0  0  0  0  0  0
    2.2360   -3.7345   -1.3216 H   0  0  0  0  0  0  0  0  0  0  0  0
    0.6014   -3.0317   -2.6523 N   0  0  0  0  0  0  0  0  0  0  0  0
    0.2905   -3.9024   -3.0927 H   0  0  0  0  0  0  0  0  0  0  0  0
    0.0209   -1.7821   -2.8359 C   0  0  0  0  0  0  0  0  0  0  0  0
   -0.8200   -1.5324   -3.4817 H   0  0  0  0  0  0  0  0  0  0  0  0
   -0.2896    2.2852   -0.0851 C   0  0  0  0  0  0  0  0  0  0  0  0
    0.1402    2.6283    1.0032 O   0  0  0  0  0  0  0  0  0  0  0  0
   -0.7972    3.2375   -0.9520 N   0  0  0  0  0  0  0  0  0  0  0  0
   -1.1590    2.9317   -1.8501 H   0  0  0  0  0  0  0  0  0  0  0  0
   -0.8579    4.6594   -0.6200 C   0  0  0  0  0  0  0  0  0  0  0  0
    0.1462    5.0521   -0.4251 H   0  0  0  0  0  0  0  0  0  0  0  0
   -1.2941    5.2273   -1.4479 H   0  0  0  0  0  0  0  0  0  0  0  0
   -1.4749    4.8209    0.2708 H   0  0  0  0  0  0  0  0  0  0  0  0
  1  2  1  0  0  0  0
  2  3  1  0  0  0  0
  2  4  1  0  0  0  0
  2  5  1  0  0  0  0
  5  6  2  0  0  0  0
  5  7  1  0  0  0  0
  7  8  1  0  0  0  0
  7  9  1  0  0  0  0
  9 10  1  0  0  0  0
  9 11  1  0  0  0  0
  9 23  1  0  0  0  0
 11 12  1  0  0  0  0
 11 13  1  0  0  0  0
 11 14  1  0  0  0  0
 14 15  1  0  0  0  0
 14 21  2  0  0  0  0
 15 16  1  0  0  0  0
 15 17  2  0  0  0  0
 17 18  1  0  0  0  0
 17 19  1  0  0  0  0
 19 20  1  0  0  0  0
 19 21  1  0  0  0  0
 21 22  1  0  0  0  0
 23 24  2  0  0  0  0
 23 25  1  0  0  0  0
 25 26  1  0  0  0  0
 25 27  1  0  0  0  0
 27 28  1  0  0  0  0
 27 29  1  0  0  0  0
 27 30  1  0  0  0  0
M  CHG  1  15   1
M  END
$$$$

  -OEChem-01062216083D

 30 30  0     1  0  0  0  0  0999 V2000
   -3.2498   -2.1607    1.5201 H   0  0  0  0  0  0  0  0  0  0  0  0
   -3.2511   -1.2697    0.8855 C   0  0  0  0  0  0  0  0  0  0  0  0
   -3.6651   -0.4357    1.4578 H   0  0  0  0  0  0  0  0  0  0  0  0
   -3.8857   -1.4580    0.0164 H   0  0  0  0  0  0  0  0  0  0  0  0
   -1.8384   -0.9437    0.4407 C   0  0  0  0  0  0  0  0  0  0  0  0
   -0.9122   -1.6810    0.7453 O   0  0  0  0  0  0  0  0  0  0  0  0
   -1.6012    0.1390   -0.3883 N   0  0  0  0  0  0  0  0  0  0  0  0
   -2.4119    0.7394   -0.5245 H   0  0  0  0  0  0  0  0  0  0  0  0
   -0.2739    0.7888   -0.4405 C   0  0  1  0  0  0  0  0  0  0  0  0
    0.3747    0.3401    0.3218 H   0  0  0  0  0  0  0  0  0  0  0  0
    0.4104    0.5715   -1.7984 C   0  0  0  0  0  0  0  0  0  0  0  0
   -0.2317    0.9475   -2.6011 H   0  0  0  0  0  0  0  0  0  0  0  0
    1.3518    1.1312   -1.8387 H   0  0  0  0  0  0  0  0  0  0  0  0
    0.6848   -0.9000   -1.9963 C   0  0  0  0  0  0  0  0  0  0  0  0
    1.6919   -1.6305   -1.3627 N   0  3  0  0  0  0  0  0  0  0  0  0
    2.2732   -1.2424   -0.6148 H   0  0  0  0  0  0  0  0  0  0  0  0
    1.6441   -2.8858   -1.7348 C   0  0  0  0  0  0  0  0  0  0  0  0
    2.2690   -3.6959   -1.3547 H   0  0  0  0  0  0  0  0  0  0  0  0
    0.6291   -2.9975   -2.6818 N   0  0  0  0  0  0  0  0  0  0  0  0
    0.3427   -3.8634   -3.1478 H   0  0  0  0  0  0  0  0  0  0  0  0
    0.0280   -1.7548   -2.8456 C   0  0  0  0  0  0  0  0  0  0  0  0
   -0.8076   -1.5055   -3.4983 H   0  0  0  0  0  0  0  0  0  0  0  0
   -0.3205    2.2756   -0.0479 C   0  0  0  0  0  0  0  0  0  0  0  0
    0.4030    2.6728    0.8499 O   0  0  0  0  0  0  0  0  0  0  0  0
   -1.0913    3.1784   -0.7597 N   0  0  0  0  0  0  0  0  0  0  0  0
   -1.6338    2.8366   -1.5470 H   0  0  0  0  0  0  0  0  0  0  0  0
   -1.1000    4.6112   -0.4725 C   0  0  0  0  0  0  0  0  0  0  0  0
   -0.0948    5.0327   -0.5840 H   0  0  0  0  0  0  0  0  0  0  0  0
   -1.7707    5.1351   -1.1612 H   0  0  0  0  0  0  0  0  0  0  0  0
   -1.4446    4.7963    0.5509 H   0  0  0  0  0  0  0  0  0  0  0  0
  1  2  1  0  0  0  0
  2  3  1  0  0  0  0
  2  4  1  0  0  0  0
  2  5  1  0  0  0  0
  5  6  2  0  0  0  0
  5  7  1  0  0  0  0
  7  8  1  0  0  0  0
  7  9  1  0  0  0  0
  9 10  1  0  0  0  0
  9 11  1  0  0  0  0
  9 23  1  0  0  0  0
 11 12  1  0  0  0  0
 11 13  1  0  0  0  0
 11 14  1  0  0  0  0
 14 15  1  0  0  0  0
 14 21  2  0  0  0  0
 15 16  1  0  0  0  0
 15 17  2  0  0  0  0
 17 18  1  0  0  0  0
 17 19  1  0  0  0  0
 19 20  1  0  0  0  0
 19 21  1  0  0  0  0
 21 22  1  0  0  0  0
 23 24  2  0  0  0  0
 23 25  1  0  0  0  0
 25 26  1  0  0  0  0
 25 27  1  0  0  0  0
 27 28  1  0  0  0  0
 27 29  1  0  0  0  0
 27 30  1  0  0  0  0
M  CHG  1  15   1
M  END
$$$$

  -OEChem-01062216083D

 30 30  0     1  0  0  0  0  0999 V2000
   -3.2559   -2.2127    1.5068 H   0  0  0  0  0  0  0  0  0  0  0  0
   -3.2638   -1.3225    0.8709 C   0  0  0  0  0  0  0  0  0  0  0  0
   -3.7075   -0.4971    1.4334 H   0  0  0  0  0  0  0  0  0  0  0  0
   -3.8763   -1.5260   -0.0105 H   0  0  0  0  0  0  0  0  0  0  0  0
   -1.8496   -0.9669    0.4547 C   0  0  0  0  0  0  0  0  0  0  0  0
   -0.9158   -1.6865    0.7767 O   0  0  0  0  0  0  0  0  0  0  0  0
   -1.6173    0.1225   -0.3669 N   0  0  0  0  0  0  0  0  0  0  0  0
   -2.4352    0.7071   -0.5203 H   0  0  0  0  0  0  0  0  0  0  0  0
   -0.2946    0.7846   -0.4151 C   0  0  1  0  0  0  0  0  0  0  0  0
    0.3569    0.3339    0.3435 H   0  0  0  0  0  0  0  0  0  0  0  0
    0.3866    0.5823   -1.7763 C   0  0  0  0  0  0  0  0  0  0  0  0
   -0.2613    0.9615   -2.5732 H   0  0  0  0  0  0  0  0  0  0  0  0
    1.3241    1.1490   -1.8153 H   0  0  0  0  0  0  0  0  0  0  0  0
    0.6716   -0.8849   -1.9861 C   0  0  0  0  0  0  0  0  0  0  0  0
    1.6873   -1.6097   -1.3603 N   0  3  0  0  0  0  0  0  0  0  0  0
    2.2719   -1.2184   -0.6165 H   0  0  0  0  0  0  0  0  0  0  0  0
    1.6518   -2.8625   -1.7423 C   0  0  0  0  0  0  0  0  0  0  0  0
    2.2884   -3.6682   -1.3728 H   0  0  0  0  0  0  0  0  0  0  0  0
    0.6338   -2.9774   -2.6859 N   0  0  0  0  0  0  0  0  0  0  0  0
    0.3559   -3.8419   -3.1596 H   0  0  0  0  0  0  0  0  0  0  0  0
    0.0201   -1.7395   -2.8393 C   0  0  0  0  0  0  0  0  0  0  0  0
   -0.8188   -1.4927   -3.4889 H   0  0  0  0  0  0  0  0  0  0  0  0
   -0.3278    2.2708   -0.0184 C   0  0  0  0  0  0  0  0  0  0  0  0
    0.5968    2.7180    0.6399 O   0  0  0  0  0  0  0  0  0  0  0  0
   -1.3020    3.1268   -0.5034 N   0  0  0  0  0  0  0  0  0  0  0  0
   -1.9911    2.7583   -1.1507 H   0  0  0  0  0  0  0  0  0  0  0  0
   -1.2982    4.5627   -0.2310 C   0  0  0  0  0  0  0  0  0  0  0  0
   -0.3904    5.0290   -0.6293 H   0  0  0  0  0  0  0  0  0  0  0  0
   -2.1646    5.0430   -0.6969 H   0  0  0  0  0  0  0  0  0  0  0  0
   -1.3417    4.7493    0.8479 H   0  0  0  0  0  0  0  0  0  0  0  0
  1  2  1  0  0  0  0
  2  3  1  0  0  0  0
  2  4  1  0  0  0  0
  2  5  1  0  0  0  0
  5  6  2  0  0  0  0
  5  7  1  0  0  0  0
  7  8  1  0  0  0  0
  7  9  1  0  0  0  0
  9 10  1  0  0  0  0
  9 11  1  0  0  0  0
  9 23  1  0  0  0  0
 11 12  1  0  0  0  0
 11 13  1  0  0  0  0
 11 14  1  0  0  0  0
 14 15  1  0  0  0  0
 14 21  2  0  0  0  0
 15 16  1  0  0  0  0
 15 17  2  0  0  0  0
 17 18  1  0  0  0  0
 17 19  1  0  0  0  0
 19 20  1  0  0  0  0
 19 21  1  0  0  0  0
 21 22  1  0  0  0  0
 23 24  2  0  0  0  0
 23 25  1  0  0  0  0
 25 26  1  0  0  0  0
 25 27  1  0  0  0  0
 27 28  1  0  0  0  0
 27 29  1  0  0  0  0
 27 30  1  0  0  0  0
M  CHG  1  15   1
M  END
$$$$

  -OEChem-01062216083D

 30 30  0     1  0  0  0  0  0999 V2000
   -3.2662   -2.2713    1.4633 H   0  0  0  0  0  0  0  0  0  0  0  0
   -3.2748   -1.3800    0.8293 C   0  0  0  0  0  0  0  0  0  0  0  0
   -3.7699   -0.5716    1.3730 H   0  0  0  0  0  0  0  0  0  0  0  0
   -3.8407   -1.6008   -0.0787 H   0  0  0  0  0  0  0  0  0  0  0  0
   -1.8555   -0.9771    0.4778 C   0  0  0  0  0  0  0  0  0  0  0  0
   -0.9133   -1.6581    0.8531 O   0  0  0  0  0  0  0  0  0  0  0  0
   -1.6238    0.1150   -0.3402 N   0  0  0  0  0  0  0  0  0  0  0  0
   -2.4502    0.6491   -0.5928 H   0  0  0  0  0  0  0  0  0  0  0  0
   -0.3075    0.7905   -0.4037 C   0  0  1  0  0  0  0  0  0  0  0  0
    0.3544    0.3436    0.3474 H   0  0  0  0  0  0  0  0  0  0  0  0
    0.3560    0.5835   -1.7739 C   0  0  0  0  0  0  0  0  0  0  0  0
   -0.3063    0.9541   -2.5629 H   0  0  0  0  0  0  0  0  0  0  0  0
    1.2887    1.1567   -1.8327 H   0  0  0  0  0  0  0  0  0  0  0  0
    0.6509   -0.8818   -1.9794 C   0  0  0  0  0  0  0  0  0  0  0  0
    1.6832   -1.5901   -1.3625 N   0  3  0  0  0  0  0  0  0  0  0  0
    2.2798   -1.1835   -0.6365 H   0  0  0  0  0  0  0  0  0  0  0  0
    1.6621   -2.8442   -1.7411 C   0  0  0  0  0  0  0  0  0  0  0  0
    2.3187   -3.6382   -1.3809 H   0  0  0  0  0  0  0  0  0  0  0  0
    0.6327   -2.9773   -2.6700 N   0  0  0  0  0  0  0  0  0  0  0  0
    0.3646   -3.8464   -3.1411 H   0  0  0  0  0  0  0  0  0  0  0  0
    0.0008   -1.7483   -2.8215 C   0  0  0  0  0  0  0  0  0  0  0  0
   -0.8465   -1.5140   -3.4646 H   0  0  0  0  0  0  0  0  0  0  0  0
   -0.3172    2.2796   -0.0112 C   0  0  0  0  0  0  0  0  0  0  0  0
    0.7351    2.7769    0.3566 O   0  0  0  0  0  0  0  0  0  0  0  0
   -1.4209    3.0920   -0.2090 N   0  0  0  0  0  0  0  0  0  0  0  0
   -2.2780    2.6735   -0.5518 H   0  0  0  0  0  0  0  0  0  0  0  0
   -1.4138    4.5226    0.0902 C   0  0  0  0  0  0  0  0  0  0  0  0
   -0.6401    5.0347   -0.4925 H   0  0  0  0  0  0  0  0  0  0  0  0
   -2.3813    4.9705   -0.1576 H   0  0  0  0  0  0  0  0  0  0  0  0
   -1.2186    4.6916    1.1549 H   0  0  0  0  0  0  0  0  0  0  0  0
  1  2  1  0  0  0  0
  2  3  1  0  0  0  0
  2  4  1  0  0  0  0
  2  5  1  0  0  0  0
  5  6  2  0  0  0  0
  5  7  1  0  0  0  0
  7  8  1  0  0  0  0
  7  9  1  0  0  0  0
  9 10  1  0  0  0  0
  9 11  1  0  0  0  0
  9 23  1  0  0  0  0
 11 12  1  0  0  0  0
 11 13  1  0  0  0  0
 11 14  1  0  0  0  0
 14 15  1  0  0  0  0
 14 21  2  0  0  0  0
 15 16  1  0  0  0  0
 15 17  2  0  0  0  0
 17 18  1  0  0  0  0
 17 19  1  0  0  0  0
 19 20  1  0  0  0  0
 19 21  1  0  0  0  0
 21 22  1  0  0  0  0
 23 24  2  0  0  0  0
 23 25  1  0  0  0  0
 25 26  1  0  0  0  0
 25 27  1  0  0  0  0
 27 28  1  0  0  0  0
 27 29  1  0  0  0  0
 27 30  1  0  0  0  0
M  CHG  1  15   1
M  END
$$$$

  -OEChem-01062216083D

 30 30  0     1  0  0  0  0  0999 V2000
   -3.2675   -2.2960    1.4138 H   0  0  0  0  0  0  0  0  0  0  0  0
   -3.2697   -1.4124    0.7689 C   0  0  0  0  0  0  0  0  0  0  0  0
   -3.8359   -0.6207    1.2657 H   0  0  0  0  0  0  0  0  0  0  0  0
   -3.7602   -1.6663   -0.1737 H   0  0  0  0  0  0  0  0  0  0  0  0
   -1.8478   -0.9518    0.5125 C   0  0  0  0  0  0  0  0  0  0  0  0
   -0.9067   -1.5850    0.9647 O   0  0  0  0  0  0  0  0  0  0  0  0
   -1.6043    0.1361   -0.3069 N   0  0  0  0  0  0  0  0  0  0  0  0
   -2.4198    0.6094   -0.6877 H   0  0  0  0  0  0  0  0  0  0  0  0
   -0.2887    0.8093   -0.3925 C   0  0  1  0  0  0  0  0  0  0  0  0
    0.3857    0.3691    0.3508 H   0  0  0  0  0  0  0  0  0  0  0  0
    0.3468    0.5845   -1.7754 C   0  0  0  0  0  0  0  0  0  0  0  0
   -0.3295    0.9519   -2.5541 H   0  0  0  0  0  0  0  0  0  0  0  0
    1.2816    1.1507   -1.8622 H   0  0  0  0  0  0  0  0  0  0  0  0
    0.6318   -0.8842   -1.9721 C   0  0  0  0  0  0  0  0  0  0  0  0
    1.6738   -1.5900   -1.3689 N   0  3  0  0  0  0  0  0  0  0  0  0
    2.2892   -1.1768   -0.6626 H   0  0  0  0  0  0  0  0  0  0  0  0
    1.6465   -2.8459   -1.7408 C   0  0  0  0  0  0  0  0  0  0  0  0
    2.3118   -3.6375   -1.3911 H   0  0  0  0  0  0  0  0  0  0  0  0
    0.6005   -2.9835   -2.6505 N   0  0  0  0  0  0  0  0  0  0  0  0
    0.3286   -3.8533   -3.1182 H   0  0  0  0  0  0  0  0  0  0  0  0
   -0.0325   -1.7546   -2.7990 C   0  0  0  0  0  0  0  0  0  0  0  0
   -0.8863   -1.5215   -3.4342 H   0  0  0  0  0  0  0  0  0  0  0  0
   -0.2954    2.3012   -0.0061 C   0  0  0  0  0  0  0  0  0  0  0  0
    0.7794    2.8760    0.0702 O   0  0  0  0  0  0  0  0  0  0  0  0
   -1.4671    3.0310    0.0966 N   0  0  0  0  0  0  0  0  0  0  0  0
   -2.3385    2.5157    0.1551 H   0  0  0  0  0  0  0  0  0  0  0  0
   -1.4803    4.4510    0.4425 C   0  0  0  0  0  0  0  0  0  0  0  0
   -0.8806    5.0274   -0.2706 H   0  0  0  0  0  0  0  0  0  0  0  0
   -2.5032    4.8402    0.4204 H   0  0  0  0  0  0  0  0  0  0  0  0
   -1.0720    4.6061    1.4472 H   0  0  0  0  0  0  0  0  0  0  0  0
  1  2  1  0  0  0  0
  2  3  1  0  0  0  0
  2  4  1  0  0  0  0
  2  5  1  0  0  0  0
  5  6  2  0  0  0  0
  5  7  1  0  0  0  0
  7  8  1  0  0  0  0
  7  9  1  0  0  0  0
  9 10  1  0  0  0  0
  9 11  1  0  0  0  0
  9 23  1  0  0  0  0
 11 12  1  0  0  0  0
 11 13  1  0  0  0  0
 11 14  1  0  0  0  0
 14 15  1  0  0  0  0
 14 21  2  0  0  0  0
 15 16  1  0  0  0  0
 15 17  2  0  0  0  0
 17 18  1  0  0  0  0
 17 19  1  0  0  0  0
 19 20  1  0  0  0  0
 19 21  1  0  0  0  0
 21 22  1  0  0  0  0
 23 24  2  0  0  0  0
 23 25  1  0  0  0  0
 25 26  1  0  0  0  0
 25 27  1  0  0  0  0
 27 28  1  0  0  0  0
 27 29  1  0  0  0  0
 27 30  1  0  0  0  0
M  CHG  1  15   1
M  END
$$$$

  -OEChem-01062216083D

 30 30  0     1  0  0  0  0  0999 V2000
   -3.2708   -2.2814    1.4041 H   0  0  0  0  0  0  0  0  0  0  0  0
   -3.2649   -1.3939    0.7645 C   0  0  0  0  0  0  0  0  0  0  0  0
   -3.8319   -0.6030    1.2617 H   0  0  0  0  0  0  0  0  0  0  0  0
   -3.7495   -1.6403   -0.1832 H   0  0  0  0  0  0  0  0  0  0  0  0
   -1.8397   -0.9371    0.5207 C   0  0  0  0  0  0  0  0  0  0  0  0
   -0.9040   -1.5656    0.9901 O   0  0  0  0  0  0  0  0  0  0  0  0
   -1.5858    0.1480   -0.2988 N   0  0  0  0  0  0  0  0  0  0  0  0
   -2.3956    0.6277   -0.6863 H   0  0  0  0  0  0  0  0  0  0  0  0
   -0.2668    0.8146   -0.3816 C   0  0  1  0  0  0  0  0  0  0  0  0
    0.4083    0.3751    0.3606 H   0  0  0  0  0  0  0  0  0  0  0  0
    0.3600    0.5836   -1.7693 C   0  0  0  0  0  0  0  0  0  0  0  0
   -0.3183    0.9566   -2.5435 H   0  0  0  0  0  0  0  0  0  0  0  0
    1.2990    1.1414   -1.8638 H   0  0  0  0  0  0  0  0  0  0  0  0
    0.6344   -0.8866   -1.9712 C   0  0  0  0  0  0  0  0  0  0  0  0
    1.6747   -1.6027   -1.3773 N   0  3  0  0  0  0  0  0  0  0  0  0
    2.3022   -1.1954   -0.6783 H   0  0  0  0  0  0  0  0  0  0  0  0
    1.6373   -2.8564   -1.7561 C   0  0  0  0  0  0  0  0  0  0  0  0
    2.3017   -3.6536   -1.4173 H   0  0  0  0  0  0  0  0  0  0  0  0
    0.5831   -2.9829   -2.6580 N   0  0  0  0  0  0  0  0  0  0  0  0
    0.3022   -3.8483   -3.1283 H   0  0  0  0  0  0  0  0  0  0  0  0
   -0.0423   -1.7489   -2.7964 C   0  0  0  0  0  0  0  0  0  0  0  0
   -0.8992   -1.5066   -3.4241 H   0  0  0  0  0  0  0  0  0  0  0  0
   -0.2866    2.3074    0.0060 C   0  0  0  0  0  0  0  0  0  0  0  0
    0.7384    2.9577   -0.1281 O   0  0  0  0  0  0  0  0  0  0  0  0
   -1.4524    2.9431    0.3960 N   0  0  0  0  0  0  0  0  0  0  0  0
   -2.2392    2.3543    0.6490 H   0  0  0  0  0  0  0  0  0  0  0  0
   -1.4853    4.3488    0.7945 C   0  0  0  0  0  0  0  0  0  0  0  0
   -1.0715    4.9842    0.0036 H   0  0  0  0  0  0  0  0  0  0  0  0
   -2.5151    4.6679    0.9839 H   0  0  0  0  0  0  0  0  0  0  0  0
   -0.9000    4.5034    1.7075 H   0  0  0  0  0  0  0  0  0  0  0  0
  1  2  1  0  0  0  0
  2  3  1  0  0  0  0
  2  4  1  0  0  0  0
  2  5  1  0  0  0  0
  5  6  2  0  0  0  0
  5  7  1  0  0  0  0
  7  8  1  0  0  0  0
  7  9  1  0  0  0  0
  9 10  1  0  0  0  0
  9 11  1  0  0  0  0
  9 23  1  0  0  0  0
 11 12  1  0  0  0  0
 11 13  1  0  0  0  0
 11 14  1  0  0  0  0
 14 15  1  0  0  0  0
 14 21  2  0  0  0  0
 15 16  1  0  0  0  0
 15 17  2  0  0  0  0
 17 18  1  0  0  0  0
 17 19  1  0  0  0  0
 19 20  1  0  0  0  0
 19 21  1  0  0  0  0
 21 22  1  0  0  0  0
 23 24  2  0  0  0  0
 23 25  1  0  0  0  0
 25 26  1  0  0  0  0
 25 27  1  0  0  0  0
 27 28  1  0  0  0  0
 27 29  1  0  0  0  0
 27 30  1  0  0  0  0
M  CHG  1  15   1
M  END
$$$$

  -OEChem-01062216083D

 30 30  0     1  0  0  0  0  0999 V2000
   -3.2744   -2.2548    1.4101 H   0  0  0  0  0  0  0  0  0  0  0  0
   -3.2594   -1.3657    0.7728 C   0  0  0  0  0  0  0  0  0  0  0  0
   -3.8164   -0.5695    1.2727 H   0  0  0  0  0  0  0  0  0  0  0  0
   -3.7488   -1.6043   -0.1744 H   0  0  0  0  0  0  0  0  0  0  0  0
   -1.8295   -0.9249    0.5263 C   0  0  0  0  0  0  0  0  0  0  0  0
   -0.8997   -1.5612    0.9964 O   0  0  0  0  0  0  0  0  0  0  0  0
   -1.5646    0.1589   -0.2909 N   0  0  0  0  0  0  0  0  0  0  0  0
   -2.3715    0.6648   -0.6523 H   0  0  0  0  0  0  0  0  0  0  0  0
   -0.2406    0.8158   -0.3676 C   0  0  1  0  0  0  0  0  0  0  0  0
    0.4330    0.3732    0.3741 H   0  0  0  0  0  0  0  0  0  0  0  0
    0.3813    0.5822   -1.7584 C   0  0  0  0  0  0  0  0  0  0  0  0
   -0.2948    0.9658   -2.5296 H   0  0  0  0  0  0  0  0  0  0  0  0
    1.3260    1.1298   -1.8541 H   0  0  0  0  0  0  0  0  0  0  0  0
    0.6423   -0.8895   -1.9683 C   0  0  0  0  0  0  0  0  0  0  0  0
    1.6761   -1.6222   -1.3832 N   0  3  0  0  0  0  0  0  0  0  0  0
    2.3111   -1.2274   -0.6843 H   0  0  0  0  0  0  0  0  0  0  0  0
    1.6251   -2.8718   -1.7740 C   0  0  0  0  0  0  0  0  0  0  0  0
    2.2827   -3.6786   -1.4454 H   0  0  0  0  0  0  0  0  0  0  0  0
    0.5671   -2.9792   -2.6737 N   0  0  0  0  0  0  0  0  0  0  0  0
    0.2772   -3.8368   -3.1530 H   0  0  0  0  0  0  0  0  0  0  0  0
   -0.0455   -1.7374   -2.7992 C   0  0  0  0  0  0  0  0  0  0  0  0
   -0.9006   -1.4798   -3.4233 H   0  0  0  0  0  0  0  0  0  0  0  0
   -0.2737    2.3083    0.0255 C   0  0  0  0  0  0  0  0  0  0  0  0
    0.6485    3.0344   -0.3120 O   0  0  0  0  0  0  0  0  0  0  0  0
   -1.3587    2.8508    0.6912 N   0  0  0  0  0  0  0  0  0  0  0  0
   -2.0284    2.2013    1.0923 H   0  0  0  0  0  0  0  0  0  0  0  0
   -1.4069    4.2479    1.1167 C   0  0  0  0  0  0  0  0  0  0  0  0
   -1.2252    4.9169    0.2682 H   0  0  0  0  0  0  0  0  0  0  0  0
   -2.3907    4.4864    1.5332 H   0  0  0  0  0  0  0  0  0  0  0  0
   -0.6487    4.4425    1.8831 H   0  0  0  0  0  0  0  0  0  0  0  0
  1  2  1  0  0  0  0
  2  3  1  0  0  0  0
  2  4  1  0  0  0  0
  2  5  1  0  0  0  0
  5  6  2  0  0  0  0
  5  7  1  0  0  0  0
  7  8  1  0  0  0  0
  7  9  1  0  0  0  0
  9 10  1  0  0  0  0
  9 11  1  0  0  0  0
  9 23  1  0  0  0  0
 11 12  1  0  0  0  0
 11 13  1  0  0  0  0
 11 14  1  0  0  0  0
 14 15  1  0  0  0  0
 14 21  2  0  0  0  0
 15 16  1  0  0  0  0
 15 17  2  0  0  0  0
 17 18  1  0  0  0  0
 17 19  1  0  0  0  0
 19 20  1  0  0  0  0
 19 21  1  0  0  0  0
 21 22  1  0  0  0  0
 23 24  2  0  0  0  0
 23 25  1  0  0  0  0
 25 26  1  0  0  0  0
 25 27  1  0  0  0  0
 27 28  1  0  0  0  0
 27 29  1  0  0  0  0
 27 30  1  0  0  0  0
M  CHG  1  15   1
M  END
$$$$

  -OEChem-01062216083D

 30 30  0     1  0  0  0  0  0999 V2000
   -3.2757   -2.2128    1.4306 H   0  0  0  0  0  0  0  0  0  0  0  0
   -3.2503   -1.3391    0.7726 C   0  0  0  0  0  0  0  0  0  0  0  0
   -3.8104   -0.5295    1.2469 H   0  0  0  0  0  0  0  0  0  0  0  0
   -3.7303   -1.5986   -0.1739 H   0  0  0  0  0  0  0  0  0  0  0  0
   -1.8159   -0.9105    0.5305 C   0  0  0  0  0  0  0  0  0  0  0  0
   -0.8926   -1.5538    1.0044 O   0  0  0  0  0  0  0  0  0  0  0  0
   -1.5389    0.1725   -0.2834 N   0  0  0  0  0  0  0  0  0  0  0  0
   -2.3416    0.6995   -0.6246 H   0  0  0  0  0  0  0  0  0  0  0  0
   -0.2090    0.8168   -0.3553 C   0  0  1  0  0  0  0  0  0  0  0  0
    0.4632    0.3691    0.3843 H   0  0  0  0  0  0  0  0  0  0  0  0
    0.4084    0.5828   -1.7486 C   0  0  0  0  0  0  0  0  0  0  0  0
   -0.2639    0.9789   -2.5169 H   0  0  0  0  0  0  0  0  0  0  0  0
    1.3591    1.1202   -1.8419 H   0  0  0  0  0  0  0  0  0  0  0  0
    0.6529   -0.8906   -1.9659 C   0  0  0  0  0  0  0  0  0  0  0  0
    1.6774   -1.6424   -1.3889 N   0  3  0  0  0  0  0  0  0  0  0  0
    2.3222   -1.2616   -0.6913 H   0  0  0  0  0  0  0  0  0  0  0  0
    1.6045   -2.8893   -1.7850 C   0  0  0  0  0  0  0  0  0  0  0  0
    2.2497   -3.7088   -1.4631 H   0  0  0  0  0  0  0  0  0  0  0  0
    0.5413   -2.9757   -2.6809 N   0  0  0  0  0  0  0  0  0  0  0  0
    0.2343   -3.8265   -3.1617 H   0  0  0  0  0  0  0  0  0  0  0  0
   -0.0514   -1.7237   -2.7980 C   0  0  0  0  0  0  0  0  0  0  0  0
   -0.9058   -1.4491   -3.4159 H   0  0  0  0  0  0  0  0  0  0  0  0
   -0.2524    2.3078    0.0451 C   0  0  0  0  0  0  0  0  0  0  0  0
    0.5128    3.1007   -0.4819 O   0  0  0  0  0  0  0  0  0  0  0  0
   -1.1829    2.7668    0.9601 N   0  0  0  0  0  0  0  0  0  0  0  0
   -1.7174    2.0704    1.4716 H   0  0  0  0  0  0  0  0  0  0  0  0
   -1.2448    4.1583    1.4015 C   0  0  0  0  0  0  0  0  0  0  0  0
   -1.3947    4.8271    0.5468 H   0  0  0  0  0  0  0  0  0  0  0  0
   -2.0774    4.3012    2.0976 H   0  0  0  0  0  0  0  0  0  0  0  0
   -0.3170    4.4431    1.9094 H   0  0  0  0  0  0  0  0  0  0  0  0
  1  2  1  0  0  0  0
  2  3  1  0  0  0  0
  2  4  1  0  0  0  0
  2  5  1  0  0  0  0
  5  6  2  0  0  0  0
  5  7  1  0  0  0  0
  7  8  1  0  0  0  0
  7  9  1  0  0  0  0
  9 10  1  0  0  0  0
  9 11  1  0  0  0  0
  9 23  1  0  0  0  0
 11 12  1  0  0  0  0
 11 13  1  0  0  0  0
 11 14  1  0  0  0  0
 14 15  1  0  0  0  0
 14 21  2  0  0  0  0
 15 16  1  0  0  0  0
 15 17  2  0  0  0  0
 17 18  1  0  0  0  0
 17 19  1  0  0  0  0
 19 20  1  0  0  0  0
 19 21  1  0  0  0  0
 21 22  1  0  0  0  0
 23 24  2  0  0  0  0
 23 25  1  0  0  0  0
 25 26  1  0  0  0  0
 25 27  1  0  0  0  0
 27 28  1  0  0  0  0
 27 29  1  0  0  0  0
 27 30  1  0  0  0  0
M  CHG  1  15   1
M  END
$$$$

  -OEChem-01062216083D

 30 30  0     1  0  0  0  0  0999 V2000
   -3.2843   -2.1633    1.4740 H   0  0  0  0  0  0  0  0  0  0  0  0
   -3.2467   -1.2910    0.8149 C   0  0  0  0  0  0  0  0  0  0  0  0
   -3.7800   -0.4669    1.2956 H   0  0  0  0  0  0  0  0  0  0  0  0
   -3.7456   -1.5393   -0.1248 H   0  0  0  0  0  0  0  0  0  0  0  0
   -1.8062   -0.8960    0.5533 C   0  0  0  0  0  0  0  0  0  0  0  0
   -0.8905   -1.5468    1.0321 O   0  0  0  0  0  0  0  0  0  0  0  0
   -1.5155    0.1774   -0.2674 N   0  0  0  0  0  0  0  0  0  0  0  0
   -2.3122    0.7251   -0.5900 H   0  0  0  0  0  0  0  0  0  0  0  0
   -0.1791    0.8053   -0.3361 C   0  0  1  0  0  0  0  0  0  0  0  0
    0.4907    0.3547    0.4039 H   0  0  0  0  0  0  0  0  0  0  0  0
    0.4374    0.5718   -1.7296 C   0  0  0  0  0  0  0  0  0  0  0  0
   -0.2300    0.9812   -2.4956 H   0  0  0  0  0  0  0  0  0  0  0  0
    1.3921    1.1032   -1.8156 H   0  0  0  0  0  0  0  0  0  0  0  0
    0.6681   -0.9016   -1.9629 C   0  0  0  0  0  0  0  0  0  0  0  0
    1.6818   -1.6768   -1.3976 N   0  3  0  0  0  0  0  0  0  0  0  0
    2.3287   -1.3183   -0.6906 H   0  0  0  0  0  0  0  0  0  0  0  0
    1.5996   -2.9134   -1.8237 C   0  0  0  0  0  0  0  0  0  0  0  0
    2.2375   -3.7457   -1.5207 H   0  0  0  0  0  0  0  0  0  0  0  0
    0.5388   -2.9692   -2.7247 N   0  0  0  0  0  0  0  0  0  0  0  0
    0.2288   -3.8044   -3.2302 H   0  0  0  0  0  0  0  0  0  0  0  0
   -0.0410   -1.7092   -2.8157 C   0  0  0  0  0  0  0  0  0  0  0  0
   -0.8875   -1.4111   -3.4338 H   0  0  0  0  0  0  0  0  0  0  0  0
   -0.2334    2.2970    0.0578 C   0  0  0  0  0  0  0  0  0  0  0  0
    0.3233    3.1362   -0.6338 O   0  0  0  0  0  0  0  0  0  0  0  0
   -0.9508    2.6984    1.1698 N   0  0  0  0  0  0  0  0  0  0  0  0
   -1.3300    1.9730    1.7728 H   0  0  0  0  0  0  0  0  0  0  0  0
   -1.0258    4.0888    1.6120 C   0  0  0  0  0  0  0  0  0  0  0  0
   -1.4259    4.7253    0.8151 H   0  0  0  0  0  0  0  0  0  0  0  0
   -1.6827    4.1769    2.4829 H   0  0  0  0  0  0  0  0  0  0  0  0
   -0.0327    4.4587    1.8894 H   0  0  0  0  0  0  0  0  0  0  0  0
  1  2  1  0  0  0  0
  2  3  1  0  0  0  0
  2  4  1  0  0  0  0
  2  5  1  0  0  0  0
  5  6  2  0  0  0  0
  5  7  1  0  0  0  0
  7  8  1  0  0  0  0
  7  9  1  0  0  0  0
  9 10  1  0  0  0  0
  9 11  1  0  0  0  0
  9 23  1  0  0  0  0
 11 12  1  0  0  0  0
 11 13  1  0  0  0  0
 11 14  1  0  0  0  0
 14 15  1  0  0  0  0
 14 21  2  0  0  0  0
 15 16  1  0  0  0  0
 15 17  2  0  0  0  0
 17 18  1  0  0  0  0
 17 19  1  0  0  0  0
 19 20  1  0  0  0  0
 19 21  1  0  0  0  0
 21 22  1  0  0  0  0
 23 24  2  0  0  0  0
 23 25  1  0  0  0  0
 25 26  1  0  0  0  0
 25 27  1  0  0  0  0
 27 28  1  0  0  0  0
 27 29  1  0  0  0  0
 27 30  1  0  0  0  0
M  CHG  1  15   1
M  END
$$$$

  -OEChem-01062216083D

 30 30  0     1  0  0  0  0  0999 V2000
   -3.2729   -2.1534    1.4716 H   0  0  0  0  0  0  0  0  0  0  0  0
   -3.2324   -1.2789    0.8157 C   0  0  0  0  0  0  0  0  0  0  0  0
   -3.7640   -0.4552    1.2987 H   0  0  0  0  0  0  0  0  0  0  0  0
   -3.7311   -1.5226   -0.1255 H   0  0  0  0  0  0  0  0  0  0  0  0
   -1.7905   -0.8869    0.5574 C   0  0  0  0  0  0  0  0  0  0  0  0
   -0.8771   -1.5406    1.0374 O   0  0  0  0  0  0  0  0  0  0  0  0
   -1.4947    0.1847   -0.2635 N   0  0  0  0  0  0  0  0  0  0  0  0
   -2.2882    0.7405   -0.5807 H   0  0  0  0  0  0  0  0  0  0  0  0
   -0.1557    0.8042   -0.3318 C   0  0  1  0  0  0  0  0  0  0  0  0
    0.5158    0.3489    0.4035 H   0  0  0  0  0  0  0  0  0  0  0  0
    0.4546    0.5727   -1.7278 C   0  0  0  0  0  0  0  0  0  0  0  0
   -0.2148    0.9865   -2.4900 H   0  0  0  0  0  0  0  0  0  0  0  0
    1.4097    1.1032   -1.8154 H   0  0  0  0  0  0  0  0  0  0  0  0
    0.6740   -0.9021   -1.9654 C   0  0  0  0  0  0  0  0  0  0  0  0
    1.6831   -1.6876   -1.4061 N   0  3  0  0  0  0  0  0  0  0  0  0
    2.3380   -1.3359   -0.7033 H   0  0  0  0  0  0  0  0  0  0  0  0
    1.5831   -2.9243   -1.8285 C   0  0  0  0  0  0  0  0  0  0  0  0
    2.2115   -3.7642   -1.5266 H   0  0  0  0  0  0  0  0  0  0  0  0
    0.5167   -2.9695   -2.7235 N   0  0  0  0  0  0  0  0  0  0  0  0
    0.1918   -3.8028   -3.2230 H   0  0  0  0  0  0  0  0  0  0  0  0
   -0.0493   -1.7033   -2.8125 C   0  0  0  0  0  0  0  0  0  0  0  0
   -0.8984   -1.3976   -3.4235 H   0  0  0  0  0  0  0  0  0  0  0  0
   -0.2114    2.2941    0.0636 C   0  0  0  0  0  0  0  0  0  0  0  0
    0.1133    3.1559   -0.7392 O   0  0  0  0  0  0  0  0  0  0  0  0
   -0.6571    2.6621    1.3195 N   0  0  0  0  0  0  0  0  0  0  0  0
   -0.8838    1.9220    1.9792 H   0  0  0  0  0  0  0  0  0  0  0  0
   -0.7269    4.0504    1.7691 C   0  0  0  0  0  0  0  0  0  0  0  0
   -1.3729    4.6378    1.1074 H   0  0  0  0  0  0  0  0  0  0  0  0
   -1.1364    4.1033    2.7829 H   0  0  0  0  0  0  0  0  0  0  0  0
    0.2705    4.5031    1.7760 H   0  0  0  0  0  0  0  0  0  0  0  0
  1  2  1  0  0  0  0
  2  3  1  0  0  0  0
  2  4  1  0  0  0  0
  2  5  1  0  0  0  0
  5  6  2  0  0  0  0
  5  7  1  0  0  0  0
  7  8  1  0  0  0  0
  7  9  1  0  0  0  0
  9 10  1  0  0  0  0
  9 11  1  0  0  0  0
  9 23  1  0  0  0  0
 11 12  1  0  0  0  0
 11 13  1  0  0  0  0
 11 14  1  0  0  0  0
 14 15  1  0  0  0  0
 14 21  2  0  0  0  0
 15 16  1  0  0  0  0
 15 17  2  0  0  0  0
 17 18  1  0  0  0  0
 17 19  1  0  0  0  0
 19 20  1  0  0  0  0
 19 21  1  0  0  0  0
 21 22  1  0  0  0  0
 23 24  2  0  0  0  0
 23 25  1  0  0  0  0
 25 26  1  0  0  0  0
 25 27  1  0  0  0  0
 27 28  1  0  0  0  0
 27 29  1  0  0  0  0
 27 30  1  0  0  0  0
M  CHG  1  15   1
M  END
$$$$

  -OEChem-01062216083D

 30 30  0     1  0  0  0  0  0999 V2000
   -3.2719   -2.1287    1.4883 H   0  0  0  0  0  0  0  0  0  0  0  0
   -3.2224   -1.2579    0.8281 C   0  0  0  0  0  0  0  0  0  0  0  0
   -3.7481   -0.4273    1.3055 H   0  0  0  0  0  0  0  0  0  0  0  0
   -3.7204   -1.5021   -0.1132 H   0  0  0  0  0  0  0  0  0  0  0  0
   -1.7769   -0.8791    0.5709 C   0  0  0  0  0  0  0  0  0  0  0  0
   -0.8696   -1.5389    1.0549 O   0  0  0  0  0  0  0  0  0  0  0  0
   -1.4695    0.1852   -0.2548 N   0  0  0  0  0  0  0  0  0  0  0  0
   -2.2564    0.7524   -0.5691 H   0  0  0  0  0  0  0  0  0  0  0  0
   -0.1257    0.7922   -0.3173 C   0  0  1  0  0  0  0  0  0  0  0  0
    0.5439    0.3307    0.4159 H   0  0  0  0  0  0  0  0  0  0  0  0
    0.4813    0.5665   -1.7146 C   0  0  0  0  0  0  0  0  0  0  0  0
   -0.1858    0.9910   -2.4730 H   0  0  0  0  0  0  0  0  0  0  0  0
    1.4388    1.0926   -1.7978 H   0  0  0  0  0  0  0  0  0  0  0  0
    0.6871   -0.9082   -1.9666 C   0  0  0  0  0  0  0  0  0  0  0  0
    1.6872   -1.7136   -1.4187 N   0  3  0  0  0  0  0  0  0  0  0  0
    2.3489   -1.3792   -0.7139 H   0  0  0  0  0  0  0  0  0  0  0  0
    1.5685   -2.9444   -1.8534 C   0  0  0  0  0  0  0  0  0  0  0  0
    2.1860   -3.7960   -1.5619 H   0  0  0  0  0  0  0  0  0  0  0  0
    0.4986   -2.9657   -2.7448 N   0  0  0  0  0  0  0  0  0  0  0  0
    0.1598   -3.7890   -3.2513 H   0  0  0  0  0  0  0  0  0  0  0  0
   -0.0498   -1.6910   -2.8189 C   0  0  0  0  0  0  0  0  0  0  0  0
   -0.8975   -1.3673   -3.4225 H   0  0  0  0  0  0  0  0  0  0  0  0
   -0.1815    2.2828    0.0710 C   0  0  0  0  0  0  0  0  0  0  0  0
   -0.1116    3.1421   -0.7948 O   0  0  0  0  0  0  0  0  0  0  0  0
   -0.3338    2.6527    1.3940 N   0  0  0  0  0  0  0  0  0  0  0  0
   -0.4132    1.9154    2.0904 H   0  0  0  0  0  0  0  0  0  0  0  0
   -0.4115    4.0445    1.8311 C   0  0  0  0  0  0  0  0  0  0  0  0
   -1.2768    4.5424    1.3802 H   0  0  0  0  0  0  0  0  0  0  0  0
   -0.5124    4.0975    2.9197 H   0  0  0  0  0  0  0  0  0  0  0  0
    0.4943    4.5893    1.5433 H   0  0  0  0  0  0  0  0  0  0  0  0
  1  2  1  0  0  0  0
  2  3  1  0  0  0  0
  2  4  1  0  0  0  0
  2  5  1  0  0  0  0
  5  6  2  0  0  0  0
  5  7  1  0  0  0  0
  7  8  1  0  0  0  0
  7  9  1  0  0  0  0
  9 10  1  0  0  0  0
  9 11  1  0  0  0  0
  9 23  1  0  0  0  0
 11 12  1  0  0  0  0
 11 13  1  0  0  0  0
 11 14  1  0  0  0  0
 14 15  1  0  0  0  0
 14 21  2  0  0  0  0
 15 16  1  0  0  0  0
 15 17  2  0  0  0  0
 17 18  1  0  0  0  0
 17 19  1  0  0  0  0
 19 20  1  0  0  0  0
 19 21  1  0  0  0  0
 21 22  1  0  0  0  0
 23 24  2  0  0  0  0
 23 25  1  0  0  0  0
 25 26  1  0  0  0  0
 25 27  1  0  0  0  0
 27 28  1  0  0  0  0
 27 29  1  0  0  0  0
 27 30  1  0  0  0  0
M  CHG  1  15   1
M  END
$$$$

  -OEChem-01062216083D

 30 30  0     1  0  0  0  0  0999 V2000
   -3.2720   -2.0965    1.5087 H   0  0  0  0  0  0  0  0  0  0  0  0
   -3.2136   -1.2301    0.8435 C   0  0  0  0  0  0  0  0  0  0  0  0
   -3.7222   -0.3884    1.3202 H   0  0  0  0  0  0  0  0  0  0  0  0
   -3.7224   -1.4707   -0.0930 H   0  0  0  0  0  0  0  0  0  0  0  0
   -1.7640   -0.8762    0.5744 C   0  0  0  0  0  0  0  0  0  0  0  0
   -0.8637   -1.5527    1.0490 O   0  0  0  0  0  0  0  0  0  0  0  0
   -1.4452    0.1813   -0.2552 N   0  0  0  0  0  0  0  0  0  0  0  0
   -2.2249    0.7644   -0.5595 H   0  0  0  0  0  0  0  0  0  0  0  0
   -0.0974    0.7775   -0.3107 C   0  0  1  0  0  0  0  0  0  0  0  0
    0.5678    0.3089    0.4220 H   0  0  0  0  0  0  0  0  0  0  0  0
    0.5077    0.5585   -1.7090 C   0  0  0  0  0  0  0  0  0  0  0  0
   -0.1569    0.9919   -2.4651 H   0  0  0  0  0  0  0  0  0  0  0  0
    1.4683    1.0790   -1.7892 H   0  0  0  0  0  0  0  0  0  0  0  0
    0.7001   -0.9157   -1.9713 C   0  0  0  0  0  0  0  0  0  0  0  0
    1.6910   -1.7371   -1.4311 N   0  3  0  0  0  0  0  0  0  0  0  0
    2.3565   -1.4168   -0.7236 H   0  0  0  0  0  0  0  0  0  0  0  0
    1.5556   -2.9633   -1.8741 C   0  0  0  0  0  0  0  0  0  0  0  0
    2.1625   -3.8248   -1.5895 H   0  0  0  0  0  0  0  0  0  0  0  0
    0.4833   -2.9649   -2.7629 N   0  0  0  0  0  0  0  0  0  0  0  0
    0.1305   -3.7811   -3.2714 H   0  0  0  0  0  0  0  0  0  0  0  0
   -0.0492   -1.6830   -2.8267 C   0  0  0  0  0  0  0  0  0  0  0  0
   -0.8956   -1.3436   -3.4235 H   0  0  0  0  0  0  0  0  0  0  0  0
   -0.1504    2.2691    0.0699 C   0  0  0  0  0  0  0  0  0  0  0  0
   -0.3479    3.1038   -0.8003 O   0  0  0  0  0  0  0  0  0  0  0  0
   -0.0018    2.6682    1.3850 N   0  0  0  0  0  0  0  0  0  0  0  0
    0.0851    1.9472    2.0974 H   0  0  0  0  0  0  0  0  0  0  0  0
   -0.0906    4.0635    1.8083 C   0  0  0  0  0  0  0  0  0  0  0  0
   -1.0868    4.4671    1.5968 H   0  0  0  0  0  0  0  0  0  0  0  0
    0.0948    4.1479    2.8838 H   0  0  0  0  0  0  0  0  0  0  0  0
    0.6528    4.6736    1.2834 H   0  0  0  0  0  0  0  0  0  0  0  0
  1  2  1  0  0  0  0
  2  3  1  0  0  0  0
  2  4  1  0  0  0  0
  2  5  1  0  0  0  0
  5  6  2  0  0  0  0
  5  7  1  0  0  0  0
  7  8  1  0  0  0  0
  7  9  1  0  0  0  0
  9 10  1  0  0  0  0
  9 11  1  0  0  0  0
  9 23  1  0  0  0  0
 11 12  1  0  0  0  0
 11 13  1  0  0  0  0
 11 14  1  0  0  0  0
 14 15  1  0  0  0  0
 14 21  2  0  0  0  0
 15 16  1  0  0  0  0
 15 17  2  0  0  0  0
 17 18  1  0  0  0  0
 17 19  1  0  0  0  0
 19 20  1  0  0  0  0
 19 21  1  0  0  0  0
 21 22  1  0  0  0  0
 23 24  2  0  0  0  0
 23 25  1  0  0  0  0
 25 26  1  0  0  0  0
 25 27  1  0  0  0  0
 27 28  1  0  0  0  0
 27 29  1  0  0  0  0
 27 30  1  0  0  0  0
M  CHG  1  15   1
M  END
$$$$

  -OEChem-01062216083D

 30 30  0     1  0  0  0  0  0999 V2000
   -3.2743   -2.0600    1.5294 H   0  0  0  0  0  0  0  0  0  0  0  0
   -3.2057   -1.1998    0.8573 C   0  0  0  0  0  0  0  0  0  0  0  0
   -3.6973   -0.3463    1.3309 H   0  0  0  0  0  0  0  0  0  0  0  0
   -3.7248   -1.4385   -0.0739 H   0  0  0  0  0  0  0  0  0  0  0  0
   -1.7523   -0.8716    0.5759 C   0  0  0  0  0  0  0  0  0  0  0  0
   -0.8593   -1.5651    1.0408 O   0  0  0  0  0  0  0  0  0  0  0  0
   -1.4219    0.1763   -0.2611 N   0  0  0  0  0  0  0  0  0  0  0  0
   -2.1931    0.7788   -0.5501 H   0  0  0  0  0  0  0  0  0  0  0  0
   -0.0703    0.7624   -0.3084 C   0  0  1  0  0  0  0  0  0  0  0  0
    0.5883    0.2907    0.4279 H   0  0  0  0  0  0  0  0  0  0  0  0
    0.5351    0.5479   -1.7061 C   0  0  0  0  0  0  0  0  0  0  0  0
   -0.1258    0.9917   -2.4596 H   0  0  0  0  0  0  0  0  0  0  0  0
    1.5002    1.0605   -1.7812 H   0  0  0  0  0  0  0  0  0  0  0  0
    0.7156   -0.9269   -1.9777 C   0  0  0  0  0  0  0  0  0  0  0  0
    1.6965   -1.7653   -1.4441 N   0  3  0  0  0  0  0  0  0  0  0  0
    2.3670   -1.4594   -0.7350 H   0  0  0  0  0  0  0  0  0  0  0  0
    1.5426   -2.9873   -1.8934 C   0  0  0  0  0  0  0  0  0  0  0  0
    2.1365   -3.8594   -1.6139 H   0  0  0  0  0  0  0  0  0  0  0  0
    0.4689   -2.9691   -2.7803 N   0  0  0  0  0  0  0  0  0  0  0  0
    0.1022   -3.7777   -3.2910 H   0  0  0  0  0  0  0  0  0  0  0  0
   -0.0465   -1.6800   -2.8347 C   0  0  0  0  0  0  0  0  0  0  0  0
   -0.8924   -1.3273   -3.4247 H   0  0  0  0  0  0  0  0  0  0  0  0
   -0.1258    2.2566    0.0594 C   0  0  0  0  0  0  0  0  0  0  0  0
   -0.5843    3.0452   -0.7539 O   0  0  0  0  0  0  0  0  0  0  0  0
    0.3047    2.7094    1.2928 N   0  0  0  0  0  0  0  0  0  0  0  0
    0.5825    2.0193    1.9864 H   0  0  0  0  0  0  0  0  0  0  0  0
    0.2102    4.1091    1.7010 C   0  0  0  0  0  0  0  0  0  0  0  0
   -0.8372    4.4254    1.7541 H   0  0  0  0  0  0  0  0  0  0  0  0
    0.6640    4.2503    2.6871 H   0  0  0  0  0  0  0  0  0  0  0  0
    0.7342    4.7549    0.9878 H   0  0  0  0  0  0  0  0  0  0  0  0
  1  2  1  0  0  0  0
  2  3  1  0  0  0  0
  2  4  1  0  0  0  0
  2  5  1  0  0  0  0
  5  6  2  0  0  0  0
  5  7  1  0  0  0  0
  7  8  1  0  0  0  0
  7  9  1  0  0  0  0
  9 10  1  0  0  0  0
  9 11  1  0  0  0  0
  9 23  1  0  0  0  0
 11 12  1  0  0  0  0
 11 13  1  0  0  0  0
 11 14  1  0  0  0  0
 14 15  1  0  0  0  0
 14 21  2  0  0  0  0
 15 16  1  0  0  0  0
 15 17  2  0  0  0  0
 17 18  1  0  0  0  0
 17 19  1  0  0  0  0
 19 20  1  0  0  0  0
 19 21  1  0  0  0  0
 21 22  1  0  0  0  0
 23 24  2  0  0  0  0
 23 25  1  0  0  0  0
 25 26  1  0  0  0  0
 25 27  1  0  0  0  0
 27 28  1  0  0  0  0
 27 29  1  0  0  0  0
 27 30  1  0  0  0  0
M  CHG  1  15   1
M  END
$$$$

  -OEChem-01062216083D

 30 30  0     1  0  0  0  0  0999 V2000
   -3.2758   -2.0050    1.5641 H   0  0  0  0  0  0  0  0  0  0  0  0
   -3.1989   -1.1534    0.8820 C   0  0  0  0  0  0  0  0  0  0  0  0
   -3.6558   -0.2823    1.3584 H   0  0  0  0  0  0  0  0  0  0  0  0
   -3.7453   -1.3860   -0.0350 H   0  0  0  0  0  0  0  0  0  0  0  0
   -1.7443   -0.8669    0.5640 C   0  0  0  0  0  0  0  0  0  0  0  0
   -0.8585   -1.5828    1.0092 O   0  0  0  0  0  0  0  0  0  0  0  0
   -1.4054    0.1717   -0.2806 N   0  0  0  0  0  0  0  0  0  0  0  0
   -2.1684    0.7982   -0.5418 H   0  0  0  0  0  0  0  0  0  0  0  0
   -0.0502    0.7493   -0.3206 C   0  0  1  0  0  0  0  0  0  0  0  0
    0.6005    0.2769    0.4222 H   0  0  0  0  0  0  0  0  0  0  0  0
    0.5576    0.5349   -1.7162 C   0  0  0  0  0  0  0  0  0  0  0  0
   -0.0998    0.9845   -2.4693 H   0  0  0  0  0  0  0  0  0  0  0  0
    1.5263    1.0406   -1.7887 H   0  0  0  0  0  0  0  0  0  0  0  0
    0.7280   -0.9409   -1.9895 C   0  0  0  0  0  0  0  0  0  0  0  0
    1.7005   -1.7879   -1.4547 N   0  3  0  0  0  0  0  0  0  0  0  0
    2.3684   -1.4898   -0.7402 H   0  0  0  0  0  0  0  0  0  0  0  0
    1.5371   -3.0082   -1.9048 C   0  0  0  0  0  0  0  0  0  0  0  0
    2.1224   -3.8857   -1.6241 H   0  0  0  0  0  0  0  0  0  0  0  0
    0.4652   -2.9808   -2.7937 N   0  0  0  0  0  0  0  0  0  0  0  0
    0.0914   -3.7869   -3.3037 H   0  0  0  0  0  0  0  0  0  0  0  0
   -0.0392   -1.6873   -2.8481 C   0  0  0  0  0  0  0  0  0  0  0  0
   -0.8825   -1.3273   -3.4375 H   0  0  0  0  0  0  0  0  0  0  0  0
   -0.1090    2.2460    0.0347 C   0  0  0  0  0  0  0  0  0  0  0  0
   -0.7940    2.9804   -0.6623 O   0  0  0  0  0  0  0  0  0  0  0  0
    0.5735    2.7622    1.1210 N   0  0  0  0  0  0  0  0  0  0  0  0
    1.0350    2.1108    1.7507 H   0  0  0  0  0  0  0  0  0  0  0  0
    0.4701    4.1625    1.5252 C   0  0  0  0  0  0  0  0  0  0  0  0
   -0.5561    4.4016    1.8247 H   0  0  0  0  0  0  0  0  0  0  0  0
    1.1336    4.3654    2.3719 H   0  0  0  0  0  0  0  0  0  0  0  0
    0.7563    4.8247    0.7006 H   0  0  0  0  0  0  0  0  0  0  0  0
  1  2  1  0  0  0  0
  2  3  1  0  0  0  0
  2  4  1  0  0  0  0
  2  5  1  0  0  0  0
  5  6  2  0  0  0  0
  5  7  1  0  0  0  0
  7  8  1  0  0  0  0
  7  9  1  0  0  0  0
  9 10  1  0  0  0  0
  9 11  1  0  0  0  0
  9 23  1  0  0  0  0
 11 12  1  0  0  0  0
 11 13  1  0  0  0  0
 11 14  1  0  0  0  0
 14 15  1  0  0  0  0
 14 21  2  0  0  0  0
 15 16  1  0  0  0  0
 15 17  2  0  0  0  0
 17 18  1  0  0  0  0
 17 19  1  0  0  0  0
 19 20  1  0  0  0  0
 19 21  1  0  0  0  0
 21 22  1  0  0  0  0
 23 24  2  0  0  0  0
 23 25  1  0  0  0  0
 25 26  1  0  0  0  0
 25 27  1  0  0  0  0
 27 28  1  0  0  0  0
 27 29  1  0  0  0  0
 27 30  1  0  0  0  0
M  CHG  1  15   1
M  END
$$$$

  -OEChem-01062216083D

 30 30  0     1  0  0  0  0  0999 V2000
   -3.2667   -1.9912    1.5728 H   0  0  0  0  0  0  0  0  0  0  0  0
   -3.1933   -1.1377    0.8928 C   0  0  0  0  0  0  0  0  0  0  0  0
   -3.6244   -0.2615    1.3839 H   0  0  0  0  0  0  0  0  0  0  0  0
   -3.7656   -1.3574   -0.0115 H   0  0  0  0  0  0  0  0  0  0  0  0
   -1.7424   -0.8721    0.5413 C   0  0  0  0  0  0  0  0  0  0  0  0
   -0.8571   -1.6040    0.9613 O   0  0  0  0  0  0  0  0  0  0  0  0
   -1.4077    0.1647   -0.3069 N   0  0  0  0  0  0  0  0  0  0  0  0
   -2.1682    0.8085   -0.5333 H   0  0  0  0  0  0  0  0  0  0  0  0
   -0.0538    0.7463   -0.3393 C   0  0  1  0  0  0  0  0  0  0  0  0
    0.5908    0.2779    0.4112 H   0  0  0  0  0  0  0  0  0  0  0  0
    0.5605    0.5322   -1.7307 C   0  0  0  0  0  0  0  0  0  0  0  0
   -0.0951    0.9791   -2.4870 H   0  0  0  0  0  0  0  0  0  0  0  0
    1.5291    1.0384   -1.8004 H   0  0  0  0  0  0  0  0  0  0  0  0
    0.7340   -0.9445   -1.9976 C   0  0  0  0  0  0  0  0  0  0  0  0
    1.7044   -1.7895   -1.4557 N   0  3  0  0  0  0  0  0  0  0  0  0
    2.3683   -1.4896   -0.7382 H   0  0  0  0  0  0  0  0  0  0  0  0
    1.5367   -3.0132   -1.8946 C   0  0  0  0  0  0  0  0  0  0  0  0
    2.1165   -3.8908   -1.6027 H   0  0  0  0  0  0  0  0  0  0  0  0
    0.4668   -2.9898   -2.7856 N   0  0  0  0  0  0  0  0  0  0  0  0
    0.0874   -3.7998   -3.2848 H   0  0  0  0  0  0  0  0  0  0  0  0
   -0.0347   -1.6958   -2.8503 C   0  0  0  0  0  0  0  0  0  0  0  0
   -0.8797   -1.3397   -3.4395 H   0  0  0  0  0  0  0  0  0  0  0  0
   -0.1173    2.2446    0.0100 C   0  0  0  0  0  0  0  0  0  0  0  0
   -0.9766    2.9293   -0.5270 O   0  0  0  0  0  0  0  0  0  0  0  0
    0.7766    2.8234    0.8922 N   0  0  0  0  0  0  0  0  0  0  0  0
    1.4046    2.2139    1.4089 H   0  0  0  0  0  0  0  0  0  0  0  0
    0.7063    4.2317    1.2746 C   0  0  0  0  0  0  0  0  0  0  0  0
   -0.2474    4.4496    1.7675 H   0  0  0  0  0  0  0  0  0  0  0  0
    1.5169    4.4802    1.9668 H   0  0  0  0  0  0  0  0  0  0  0  0
    0.7990    4.8753    0.3929 H   0  0  0  0  0  0  0  0  0  0  0  0
  1  2  1  0  0  0  0
  2  3  1  0  0  0  0
  2  4  1  0  0  0  0
  2  5  1  0  0  0  0
  5  6  2  0  0  0  0
  5  7  1  0  0  0  0
  7  8  1  0  0  0  0
  7  9  1  0  0  0  0
  9 10  1  0  0  0  0
  9 11  1  0  0  0  0
  9 23  1  0  0  0  0
 11 12  1  0  0  0  0
 11 13  1  0  0  0  0
 11 14  1  0  0  0  0
 14 15  1  0  0  0  0
 14 21  2  0  0  0  0
 15 16  1  0  0  0  0
 15 17  2  0  0  0  0
 17 18  1  0  0  0  0
 17 19  1  0  0  0  0
 19 20  1  0  0  0  0
 19 21  1  0  0  0  0
 21 22  1  0  0  0  0
 23 24  2  0  0  0  0
 23 25  1  0  0  0  0
 25 26  1  0  0  0  0
 25 27  1  0  0  0  0
 27 28  1  0  0  0  0
 27 29  1  0  0  0  0
 27 30  1  0  0  0  0
M  CHG  1  15   1
M  END
$$$$

  -OEChem-01062216083D

 30 30  0     1  0  0  0  0  0999 V2000
   -3.2619   -1.9771    1.5784 H   0  0  0  0  0  0  0  0  0  0  0  0
   -3.1924   -1.1255    0.8956 C   0  0  0  0  0  0  0  0  0  0  0  0
   -3.6061   -0.2441    1.3922 H   0  0  0  0  0  0  0  0  0  0  0  0
   -3.7830   -1.3408    0.0019 H   0  0  0  0  0  0  0  0  0  0  0  0
   -1.7458   -0.8747    0.5172 C   0  0  0  0  0  0  0  0  0  0  0  0
   -0.8603   -1.6199    0.9137 O   0  0  0  0  0  0  0  0  0  0  0  0
   -1.4171    0.1617   -0.3337 N   0  0  0  0  0  0  0  0  0  0  0  0
   -2.1763    0.8201   -0.5228 H   0  0  0  0  0  0  0  0  0  0  0  0
   -0.0653    0.7497   -0.3605 C   0  0  1  0  0  0  0  0  0  0  0  0
    0.5745    0.2870    0.3979 H   0  0  0  0  0  0  0  0  0  0  0  0
    0.5560    0.5296   -1.7477 C   0  0  0  0  0  0  0  0  0  0  0  0
   -0.0998    0.9682   -2.5088 H   0  0  0  0  0  0  0  0  0  0  0  0
    1.5227    1.0393   -1.8183 H   0  0  0  0  0  0  0  0  0  0  0  0
    0.7359   -0.9487   -2.0032 C   0  0  0  0  0  0  0  0  0  0  0  0
    1.7066   -1.7872   -1.4513 N   0  3  0  0  0  0  0  0  0  0  0  0
    2.3642   -1.4815   -0.7308 H   0  0  0  0  0  0  0  0  0  0  0  0
    1.5404   -3.0158   -1.8769 C   0  0  0  0  0  0  0  0  0  0  0  0
    2.1179   -3.8902   -1.5717 H   0  0  0  0  0  0  0  0  0  0  0  0
    0.4737   -3.0024   -2.7716 N   0  0  0  0  0  0  0  0  0  0  0  0
    0.0940   -3.8187   -3.2600 H   0  0  0  0  0  0  0  0  0  0  0  0
   -0.0293   -1.7098   -2.8505 C   0  0  0  0  0  0  0  0  0  0  0  0
   -0.8749   -1.3619   -3.4438 H   0  0  0  0  0  0  0  0  0  0  0  0
   -0.1303    2.2503   -0.0155 C   0  0  0  0  0  0  0  0  0  0  0  0
   -1.1214    2.8853   -0.3495 O   0  0  0  0  0  0  0  0  0  0  0  0
    0.9202    2.8931    0.6140 N   0  0  0  0  0  0  0  0  0  0  0  0
    1.6883    2.3292    0.9665 H   0  0  0  0  0  0  0  0  0  0  0  0
    0.8747    4.3072    0.9789 C   0  0  0  0  0  0  0  0  0  0  0  0
    0.0566    4.4972    1.6824 H   0  0  0  0  0  0  0  0  0  0  0  0
    1.8140    4.6097    1.4527 H   0  0  0  0  0  0  0  0  0  0  0  0
    0.7231    4.9298    0.0902 H   0  0  0  0  0  0  0  0  0  0  0  0
  1  2  1  0  0  0  0
  2  3  1  0  0  0  0
  2  4  1  0  0  0  0
  2  5  1  0  0  0  0
  5  6  2  0  0  0  0
  5  7  1  0  0  0  0
  7  8  1  0  0  0  0
  7  9  1  0  0  0  0
  9 10  1  0  0  0  0
  9 11  1  0  0  0  0
  9 23  1  0  0  0  0
 11 12  1  0  0  0  0
 11 13  1  0  0  0  0
 11 14  1  0  0  0  0
 14 15  1  0  0  0  0
 14 21  2  0  0  0  0
 15 16  1  0  0  0  0
 15 17  2  0  0  0  0
 17 18  1  0  0  0  0
 17 19  1  0  0  0  0
 19 20  1  0  0  0  0
 19 21  1  0  0  0  0
 21 22  1  0  0  0  0
 23 24  2  0  0  0  0
 23 25  1  0  0  0  0
 25 26  1  0  0  0  0
 25 27  1  0  0  0  0
 27 28  1  0  0  0  0
 27 29  1  0  0  0  0
 27 30  1  0  0  0  0
M  CHG  1  15   1
M  END
$$$$

  -OEChem-01062216083D

 30 30  0     1  0  0  0  0  0999 V2000
   -3.2481   -1.9790    1.5693 H   0  0  0  0  0  0  0  0  0  0  0  0
   -3.1839   -1.1153    0.9016 C   0  0  0  0  0  0  0  0  0  0  0  0
   -3.5697   -0.2378    1.4267 H   0  0  0  0  0  0  0  0  0  0  0  0
   -3.8017   -1.3032    0.0204 H   0  0  0  0  0  0  0  0  0  0  0  0
   -1.7443   -0.8796    0.4889 C   0  0  0  0  0  0  0  0  0  0  0  0
   -0.8580   -1.6371    0.8606 O   0  0  0  0  0  0  0  0  0  0  0  0
   -1.4242    0.1583   -0.3636 N   0  0  0  0  0  0  0  0  0  0  0  0
   -2.1826    0.8280   -0.5140 H   0  0  0  0  0  0  0  0  0  0  0  0
   -0.0745    0.7527   -0.3794 C   0  0  1  0  0  0  0  0  0  0  0  0
    0.5609    0.2967    0.3870 H   0  0  0  0  0  0  0  0  0  0  0  0
    0.5547    0.5255   -1.7625 C   0  0  0  0  0  0  0  0  0  0  0  0
   -0.0980    0.9576   -2.5299 H   0  0  0  0  0  0  0  0  0  0  0  0
    1.5214    1.0347   -1.8324 H   0  0  0  0  0  0  0  0  0  0  0  0
    0.7393   -0.9543   -2.0070 C   0  0  0  0  0  0  0  0  0  0  0  0
    1.7079   -1.7893   -1.4459 N   0  3  0  0  0  0  0  0  0  0  0  0
    2.3575   -1.4815   -0.7190 H   0  0  0  0  0  0  0  0  0  0  0  0
    1.5395   -3.0214   -1.8606 C   0  0  0  0  0  0  0  0  0  0  0  0
    2.1121   -3.8947   -1.5430 H   0  0  0  0  0  0  0  0  0  0  0  0
    0.4761   -3.0141   -2.7595 N   0  0  0  0  0  0  0  0  0  0  0  0
    0.0934   -3.8346   -3.2387 H   0  0  0  0  0  0  0  0  0  0  0  0
   -0.0249   -1.7216   -2.8499 C   0  0  0  0  0  0  0  0  0  0  0  0
   -0.8709   -1.3784   -3.4452 H   0  0  0  0  0  0  0  0  0  0  0  0
   -0.1471    2.2553   -0.0349 C   0  0  0  0  0  0  0  0  0  0  0  0
   -1.2190    2.8357   -0.1441 O   0  0  0  0  0  0  0  0  0  0  0  0
    0.9841    2.9703    0.3164 N   0  0  0  0  0  0  0  0  0  0  0  0
    1.8476    2.4603    0.4774 H   0  0  0  0  0  0  0  0  0  0  0  0
    0.9470    4.3935    0.6463 C   0  0  0  0  0  0  0  0  0  0  0  0
    0.2738    4.5760    1.4913 H   0  0  0  0  0  0  0  0  0  0  0  0
    1.9459    4.7486    0.9194 H   0  0  0  0  0  0  0  0  0  0  0  0
    0.5973    4.9786   -0.2113 H   0  0  0  0  0  0  0  0  0  0  0  0
  1  2  1  0  0  0  0
  2  3  1  0  0  0  0
  2  4  1  0  0  0  0
  2  5  1  0  0  0  0
  5  6  2  0  0  0  0
  5  7  1  0  0  0  0
  7  8  1  0  0  0  0
  7  9  1  0  0  0  0
  9 10  1  0  0  0  0
  9 11  1  0  0  0  0
  9 23  1  0  0  0  0
 11 12  1  0  0  0  0
 11 13  1  0  0  0  0
 11 14  1  0  0  0  0
 14 15  1  0  0  0  0
 14 21  2  0  0  0  0
 15 16  1  0  0  0  0
 15 17  2  0  0  0  0
 17 18  1  0  0  0  0
 17 19  1  0  0  0  0
 19 20  1  0  0  0  0
 19 21  1  0  0  0  0
 21 22  1  0  0  0  0
 23 24  2  0  0  0  0
 23 25  1  0  0  0  0
 25 26  1  0  0  0  0
 25 27  1  0  0  0  0
 27 28  1  0  0  0  0
 27 29  1  0  0  0  0
 27 30  1  0  0  0  0
M  CHG  1  15   1
M  END
$$$$

  -OEChem-01062216083D

 30 30  0     1  0  0  0  0  0999 V2000
   -3.1709   -1.9394    1.6239 H   0  0  0  0  0  0  0  0  0  0  0  0
   -3.1396   -1.0705    0.9605 C   0  0  0  0  0  0  0  0  0  0  0  0
   -3.4382   -0.1856    1.5290 H   0  0  0  0  0  0  0  0  0  0  0  0
   -3.8475   -1.2246    0.1428 H   0  0  0  0  0  0  0  0  0  0  0  0
   -1.7389   -0.8825    0.4117 C   0  0  0  0  0  0  0  0  0  0  0  0
   -0.8564   -1.6909    0.6632 O   0  0  0  0  0  0  0  0  0  0  0  0
   -1.4564    0.1720   -0.4339 N   0  0  0  0  0  0  0  0  0  0  0  0
   -2.2117    0.8594   -0.4660 H   0  0  0  0  0  0  0  0  0  0  0  0
   -0.1076    0.7722   -0.4487 C   0  0  1  0  0  0  0  0  0  0  0  0
    0.6044    0.1525    0.1066 H   0  0  0  0  0  0  0  0  0  0  0  0
    0.3638    0.8710   -1.9077 C   0  0  0  0  0  0  0  0  0  0  0  0
   -0.3627    1.4555   -2.4835 H   0  0  0  0  0  0  0  0  0  0  0  0
    1.3247    1.3915   -1.9706 H   0  0  0  0  0  0  0  0  0  0  0  0
    0.4988   -0.5181   -2.4897 C   0  0  0  0  0  0  0  0  0  0  0  0
    1.5133   -1.4433   -2.2316 N   0  3  0  0  0  0  0  0  0  0  0  0
    2.2499   -1.2879   -1.5395 H   0  0  0  0  0  0  0  0  0  0  0  0
    1.2912   -2.5561   -2.8877 C   0  0  0  0  0  0  0  0  0  0  0  0
    1.8913   -3.4669   -2.8392 H   0  0  0  0  0  0  0  0  0  0  0  0
    0.1339   -2.3689   -3.6391 N   0  0  0  0  0  0  0  0  0  0  0  0
   -0.3060   -3.0704   -4.2423 H   0  0  0  0  0  0  0  0  0  0  0  0
   -0.3620   -1.0950   -3.3898 C   0  0  0  0  0  0  0  0  0  0  0  0
   -1.2652   -0.6434   -3.8005 H   0  0  0  0  0  0  0  0  0  0  0  0
   -0.1124    2.1400    0.2712 C   0  0  0  0  0  0  0  0  0  0  0  0
   -1.1783    2.6100    0.6471 O   0  0  0  0  0  0  0  0  0  0  0  0
    1.0394    2.8982    0.3901 N   0  0  0  0  0  0  0  0  0  0  0  0
    1.9263    2.4731    0.1381 H   0  0  0  0  0  0  0  0  0  0  0  0
    1.0598    4.2060    1.0420 C   0  0  0  0  0  0  0  0  0  0  0  0
    0.7348    4.1220    2.0850 H   0  0  0  0  0  0  0  0  0  0  0  0
    2.0717    4.6236    1.0291 H   0  0  0  0  0  0  0  0  0  0  0  0
    0.3938    4.9049    0.5241 H   0  0  0  0  0  0  0  0  0  0  0  0
  1  2  1  0  0  0  0
  2  3  1  0  0  0  0
  2  4  1  0  0  0  0
  2  5  1  0  0  0  0
  5  6  2  0  0  0  0
  5  7  1  0  0  0  0
  7  8  1  0  0  0  0
  7  9  1  0  0  0  0
  9 10  1  0  0  0  0
  9 11  1  0  0  0  0
  9 23  1  0  0  0  0
 11 12  1  0  0  0  0
 11 13  1  0  0  0  0
 11 14  1  0  0  0  0
 14 15  1  0  0  0  0
 14 21  2  0  0  0  0
 15 16  1  0  0  0  0
 15 17  2  0  0  0  0
 17 18  1  0  0  0  0
 17 19  1  0  0  0  0
 19 20  1  0  0  0  0
 19 21  1  0  0  0  0
 21 22  1  0  0  0  0
 23 24  2  0  0  0  0
 23 25  1  0  0  0  0
 25 26  1  0  0  0  0
 25 27  1  0  0  0  0
 27 28  1  0  0  0  0
 27 29  1  0  0  0  0
 27 30  1  0  0  0  0
M  CHG  1  15   1
M  END
$$$$

  -OEChem-01062216083D

 30 30  0     1  0  0  0  0  0999 V2000
   -3.1438   -1.9467    1.5996 H   0  0  0  0  0  0  0  0  0  0  0  0
   -3.1229   -1.0640    0.9543 C   0  0  0  0  0  0  0  0  0  0  0  0
   -3.3998   -0.1895    1.5488 H   0  0  0  0  0  0  0  0  0  0  0  0
   -3.8521   -1.1960    0.1518 H   0  0  0  0  0  0  0  0  0  0  0  0
   -1.7353   -0.8736    0.3742 C   0  0  0  0  0  0  0  0  0  0  0  0
   -0.8540   -1.6961    0.5827 O   0  0  0  0  0  0  0  0  0  0  0  0
   -1.4684    0.1897   -0.4661 N   0  0  0  0  0  0  0  0  0  0  0  0
   -2.2248    0.8758   -0.4669 H   0  0  0  0  0  0  0  0  0  0  0  0
   -0.1199    0.7922   -0.4790 C   0  0  1  0  0  0  0  0  0  0  0  0
    0.5910    0.1756    0.0809 H   0  0  0  0  0  0  0  0  0  0  0  0
    0.3587    0.8718   -1.9380 C   0  0  0  0  0  0  0  0  0  0  0  0
   -0.3638    1.4478   -2.5269 H   0  0  0  0  0  0  0  0  0  0  0  0
    1.3221    1.3861   -2.0062 H   0  0  0  0  0  0  0  0  0  0  0  0
    0.4959   -0.5278   -2.4947 C   0  0  0  0  0  0  0  0  0  0  0  0
    1.5083   -1.4495   -2.2159 N   0  3  0  0  0  0  0  0  0  0  0  0
    2.2350   -1.2872   -1.5148 H   0  0  0  0  0  0  0  0  0  0  0  0
    1.2844   -2.5750   -2.8498 C   0  0  0  0  0  0  0  0  0  0  0  0
    1.8774   -3.4887   -2.7765 H   0  0  0  0  0  0  0  0  0  0  0  0
    0.1333   -2.3983   -3.6128 N   0  0  0  0  0  0  0  0  0  0  0  0
   -0.3053   -3.1100   -4.2050 H   0  0  0  0  0  0  0  0  0  0  0  0
   -0.3610   -1.1194   -3.3890 C   0  0  0  0  0  0  0  0  0  0  0  0
   -1.2616   -0.6744   -3.8116 H   0  0  0  0  0  0  0  0  0  0  0  0
   -0.1252    2.1550    0.2548 C   0  0  0  0  0  0  0  0  0  0  0  0
   -1.1297    2.4964    0.8647 O   0  0  0  0  0  0  0  0  0  0  0  0
    0.9175    3.0571    0.1285 N   0  0  0  0  0  0  0  0  0  0  0  0
    1.7686    2.7522   -0.3328 H   0  0  0  0  0  0  0  0  0  0  0  0
    0.9157    4.3646    0.7823 C   0  0  0  0  0  0  0  0  0  0  0  0
    0.8469    4.2513    1.8699 H   0  0  0  0  0  0  0  0  0  0  0  0
    1.8368    4.9089    0.5505 H   0  0  0  0  0  0  0  0  0  0  0  0
    0.0665    4.9660    0.4395 H   0  0  0  0  0  0  0  0  0  0  0  0
  1  2  1  0  0  0  0
  2  3  1  0  0  0  0
  2  4  1  0  0  0  0
  2  5  1  0  0  0  0
  5  6  2  0  0  0  0
  5  7  1  0  0  0  0
  7  8  1  0  0  0  0
  7  9  1  0  0  0  0
  9 10  1  0  0  0  0
  9 11  1  0  0  0  0
  9 23  1  0  0  0  0
 11 12  1  0  0  0  0
 11 13  1  0  0  0  0
 11 14  1  0  0  0  0
 14 15  1  0  0  0  0
 14 21  2  0  0  0  0
 15 16  1  0  0  0  0
 15 17  2  0  0  0  0
 17 18  1  0  0  0  0
 17 19  1  0  0  0  0
 19 20  1  0  0  0  0
 19 21  1  0  0  0  0
 21 22  1  0  0  0  0
 23 24  2  0  0  0  0
 23 25  1  0  0  0  0
 25 26  1  0  0  0  0
 25 27  1  0  0  0  0
 27 28  1  0  0  0  0
 27 29  1  0  0  0  0
 27 30  1  0  0  0  0
M  CHG  1  15   1
M  END
$$$$

  -OEChem-01062216083D

 30 30  0     1  0  0  0  0  0999 V2000
   -3.1280   -1.9515    1.5751 H   0  0  0  0  0  0  0  0  0  0  0  0
   -3.1104   -1.0515    0.9541 C   0  0  0  0  0  0  0  0  0  0  0  0
   -3.3564   -0.1900    1.5807 H   0  0  0  0  0  0  0  0  0  0  0  0
   -3.8632   -1.1493    0.1686 H   0  0  0  0  0  0  0  0  0  0  0  0
   -1.7361   -0.8659    0.3418 C   0  0  0  0  0  0  0  0  0  0  0  0
   -0.8582   -1.7005    0.5141 O   0  0  0  0  0  0  0  0  0  0  0  0
   -1.4813    0.2057   -0.4921 N   0  0  0  0  0  0  0  0  0  0  0  0
   -2.2400    0.8879   -0.4765 H   0  0  0  0  0  0  0  0  0  0  0  0
   -0.1322    0.8075   -0.5095 C   0  0  1  0  0  0  0  0  0  0  0  0
    0.5772    0.1910    0.0531 H   0  0  0  0  0  0  0  0  0  0  0  0
    0.3552    0.8707   -1.9668 C   0  0  0  0  0  0  0  0  0  0  0  0
   -0.3622    1.4400   -2.5681 H   0  0  0  0  0  0  0  0  0  0  0  0
    1.3220    1.3787   -2.0343 H   0  0  0  0  0  0  0  0  0  0  0  0
    0.4940   -0.5370   -2.5025 C   0  0  0  0  0  0  0  0  0  0  0  0
    1.5058   -1.4522   -2.2010 N   0  3  0  0  0  0  0  0  0  0  0  0
    2.2235   -1.2784   -1.4932 H   0  0  0  0  0  0  0  0  0  0  0  0
    1.2864   -2.5897   -2.8145 C   0  0  0  0  0  0  0  0  0  0  0  0
    1.8780   -3.5022   -2.7177 H   0  0  0  0  0  0  0  0  0  0  0  0
    0.1410   -2.4276   -3.5894 N   0  0  0  0  0  0  0  0  0  0  0  0
   -0.2946   -3.1515   -4.1687 H   0  0  0  0  0  0  0  0  0  0  0  0
   -0.3560   -1.1451   -3.3924 C   0  0  0  0  0  0  0  0  0  0  0  0
   -1.2551   -0.7103   -3.8287 H   0  0  0  0  0  0  0  0  0  0  0  0
   -0.1353    2.1628    0.2393 C   0  0  0  0  0  0  0  0  0  0  0  0
   -1.0035    2.3698    1.0754 O   0  0  0  0  0  0  0  0  0  0  0  0
    0.7229    3.1974   -0.0944 N   0  0  0  0  0  0  0  0  0  0  0  0
    1.4508    3.0254   -0.7801 H   0  0  0  0  0  0  0  0  0  0  0  0
    0.6879    4.5007    0.5674 C   0  0  0  0  0  0  0  0  0  0  0  0
    0.8500    4.3902    1.6454 H   0  0  0  0  0  0  0  0  0  0  0  0
    1.4700    5.1541    0.1678 H   0  0  0  0  0  0  0  0  0  0  0  0
   -0.2807    4.9874    0.4083 H   0  0  0  0  0  0  0  0  0  0  0  0
  1  2  1  0  0  0  0
  2  3  1  0  0  0  0
  2  4  1  0  0  0  0
  2  5  1  0  0  0  0
  5  6  2  0  0  0  0
  5  7  1  0  0  0  0
  7  8  1  0  0  0  0
  7  9  1  0  0  0  0
  9 10  1  0  0  0  0
  9 11  1  0  0  0  0
  9 23  1  0  0  0  0
 11 12  1  0  0  0  0
 11 13  1  0  0  0  0
 11 14  1  0  0  0  0
 14 15  1  0  0  0  0
 14 21  2  0  0  0  0
 15 16  1  0  0  0  0
 15 17  2  0  0  0  0
 17 18  1  0  0  0  0
 17 19  1  0  0  0  0
 19 20  1  0  0  0  0
 19 21  1  0  0  0  0
 21 22  1  0  0  0  0
 23 24  2  0  0  0  0
 23 25  1  0  0  0  0
 25 26  1  0  0  0  0
 25 27  1  0  0  0  0
 27 28  1  0  0  0  0
 27 29  1  0  0  0  0
 27 30  1  0  0  0  0
M  CHG  1  15   1
M  END
$$$$

  -OEChem-01062216083D

 30 30  0     1  0  0  0  0  0999 V2000
   -3.1208   -1.9628    1.5578 H   0  0  0  0  0  0  0  0  0  0  0  0
   -3.1106   -1.0551    0.9478 C   0  0  0  0  0  0  0  0  0  0  0  0
   -3.3522   -0.2022    1.5876 H   0  0  0  0  0  0  0  0  0  0  0  0
   -3.8710   -1.1450    0.1687 H   0  0  0  0  0  0  0  0  0  0  0  0
   -1.7422   -0.8597    0.3253 C   0  0  0  0  0  0  0  0  0  0  0  0
   -0.8634   -1.6974    0.4773 O   0  0  0  0  0  0  0  0  0  0  0  0
   -1.4977    0.2186   -0.5042 N   0  0  0  0  0  0  0  0  0  0  0  0
   -2.2627    0.8926   -0.4913 H   0  0  0  0  0  0  0  0  0  0  0  0
   -0.1495    0.8223   -0.5306 C   0  0  1  0  0  0  0  0  0  0  0  0
    0.5595    0.2072    0.0345 H   0  0  0  0  0  0  0  0  0  0  0  0
    0.3484    0.8747   -1.9844 C   0  0  0  0  0  0  0  0  0  0  0  0
   -0.3659    1.4353   -2.5973 H   0  0  0  0  0  0  0  0  0  0  0  0
    1.3160    1.3828   -2.0465 H   0  0  0  0  0  0  0  0  0  0  0  0
    0.4936   -0.5383   -2.5037 C   0  0  0  0  0  0  0  0  0  0  0  0
    1.5065   -1.4455   -2.1824 N   0  3  0  0  0  0  0  0  0  0  0  0
    2.2148   -1.2613   -1.4676 H   0  0  0  0  0  0  0  0  0  0  0  0
    1.2951   -2.5921   -2.7813 C   0  0  0  0  0  0  0  0  0  0  0  0
    1.8873   -3.5018   -2.6647 H   0  0  0  0  0  0  0  0  0  0  0  0
    0.1566   -2.4437   -3.5689 N   0  0  0  0  0  0  0  0  0  0  0  0
   -0.2731   -3.1775   -4.1402 H   0  0  0  0  0  0  0  0  0  0  0  0
   -0.3462   -1.1602   -3.3937 C   0  0  0  0  0  0  0  0  0  0  0  0
   -1.2426   -0.7340   -3.8437 H   0  0  0  0  0  0  0  0  0  0  0  0
   -0.1460    2.1708    0.2267 C   0  0  0  0  0  0  0  0  0  0  0  0
   -0.8141    2.2668    1.2451 O   0  0  0  0  0  0  0  0  0  0  0  0
    0.4700    3.3064   -0.2729 N   0  0  0  0  0  0  0  0  0  0  0  0
    0.9930    3.2377   -1.1398 H   0  0  0  0  0  0  0  0  0  0  0  0
    0.4097    4.6025    0.4006 C   0  0  0  0  0  0  0  0  0  0  0  0
    0.8364    4.5337    1.4075 H   0  0  0  0  0  0  0  0  0  0  0  0
    0.9751    5.3525   -0.1615 H   0  0  0  0  0  0  0  0  0  0  0  0
   -0.6276    4.9452    0.4837 H   0  0  0  0  0  0  0  0  0  0  0  0
  1  2  1  0  0  0  0
  2  3  1  0  0  0  0
  2  4  1  0  0  0  0
  2  5  1  0  0  0  0
  5  6  2  0  0  0  0
  5  7  1  0  0  0  0
  7  8  1  0  0  0  0
  7  9  1  0  0  0  0
  9 10  1  0  0  0  0
  9 11  1  0  0  0  0
  9 23  1  0  0  0  0
 11 12  1  0  0  0  0
 11 13  1  0  0  0  0
 11 14  1  0  0  0  0
 14 15  1  0  0  0  0
 14 21  2  0  0  0  0
 15 16  1  0  0  0  0
 15 17  2  0  0  0  0
 17 18  1  0  0  0  0
 17 19  1  0  0  0  0
 19 20  1  0  0  0  0
 19 21  1  0  0  0  0
 21 22  1  0  0  0  0
 23 24  2  0  0  0  0
 23 25  1  0  0  0  0
 25 26  1  0  0  0  0
 25 27  1  0  0  0  0
 27 28  1  0  0  0  0
 27 29  1  0  0  0  0
 27 30  1  0  0  0  0
M  CHG  1  15   1
M  END
$$$$

  -OEChem-01062216083D

 30 30  0     1  0  0  0  0  0999 V2000
   -3.1182   -1.9730    1.5543 H   0  0  0  0  0  0  0  0  0  0  0  0
   -3.1166   -1.0642    0.9458 C   0  0  0  0  0  0  0  0  0  0  0  0
   -3.3607   -0.2140    1.5882 H   0  0  0  0  0  0  0  0  0  0  0  0
   -3.8794   -1.1581    0.1696 H   0  0  0  0  0  0  0  0  0  0  0  0
   -1.7519   -0.8595    0.3181 C   0  0  0  0  0  0  0  0  0  0  0  0
   -0.8714   -1.6976    0.4568 O   0  0  0  0  0  0  0  0  0  0  0  0
   -1.5167    0.2232   -0.5091 N   0  0  0  0  0  0  0  0  0  0  0  0
   -2.2894    0.8873   -0.5061 H   0  0  0  0  0  0  0  0  0  0  0  0
   -0.1713    0.8318   -0.5429 C   0  0  1  0  0  0  0  0  0  0  0  0
    0.5386    0.2184    0.0234 H   0  0  0  0  0  0  0  0  0  0  0  0
    0.3367    0.8828   -1.9925 C   0  0  0  0  0  0  0  0  0  0  0  0
   -0.3752    1.4362   -2.6147 H   0  0  0  0  0  0  0  0  0  0  0  0
    1.3021    1.3972   -2.0446 H   0  0  0  0  0  0  0  0  0  0  0  0
    0.4925   -0.5313   -2.5041 C   0  0  0  0  0  0  0  0  0  0  0  0
    1.5099   -1.4276   -2.1676 N   0  3  0  0  0  0  0  0  0  0  0  0
    2.2111   -1.2318   -1.4487 H   0  0  0  0  0  0  0  0  0  0  0  0
    1.3113   -2.5810   -2.7574 C   0  0  0  0  0  0  0  0  0  0  0  0
    1.9091   -3.4851   -2.6272 H   0  0  0  0  0  0  0  0  0  0  0  0
    0.1779   -2.4478   -3.5553 N   0  0  0  0  0  0  0  0  0  0  0  0
   -0.2425   -3.1905   -4.1217 H   0  0  0  0  0  0  0  0  0  0  0  0
   -0.3353   -1.1662   -3.3962 C   0  0  0  0  0  0  0  0  0  0  0  0
   -1.2306   -0.7509   -3.8582 H   0  0  0  0  0  0  0  0  0  0  0  0
   -0.1633    2.1759    0.2175 C   0  0  0  0  0  0  0  0  0  0  0  0
   -0.5852    2.1946    1.3629 O   0  0  0  0  0  0  0  0  0  0  0  0
    0.1684    3.3742   -0.3929 N   0  0  0  0  0  0  0  0  0  0  0  0
    0.4529    3.3631   -1.3670 H   0  0  0  0  0  0  0  0  0  0  0  0
    0.0935    4.6620    0.2947 C   0  0  0  0  0  0  0  0  0  0  0  0
    0.7381    4.6632    1.1807 H   0  0  0  0  0  0  0  0  0  0  0  0
    0.4202    5.4691   -0.3687 H   0  0  0  0  0  0  0  0  0  0  0  0
   -0.9345    4.8709    0.6107 H   0  0  0  0  0  0  0  0  0  0  0  0
  1  2  1  0  0  0  0
  2  3  1  0  0  0  0
  2  4  1  0  0  0  0
  2  5  1  0  0  0  0
  5  6  2  0  0  0  0
  5  7  1  0  0  0  0
  7  8  1  0  0  0  0
  7  9  1  0  0  0  0
  9 10  1  0  0  0  0
  9 11  1  0  0  0  0
  9 23  1  0  0  0  0
 11 12  1  0  0  0  0
 11 13  1  0  0  0  0
 11 14  1  0  0  0  0
 14 15  1  0  0  0  0
 14 21  2  0  0  0  0
 15 16  1  0  0  0  0
 15 17  2  0  0  0  0
 17 18  1  0  0  0  0
 17 19  1  0  0  0  0
 19 20  1  0  0  0  0
 19 21  1  0  0  0  0
 21 22  1  0  0  0  0
 23 24  2  0  0  0  0
 23 25  1  0  0  0  0
 25 26  1  0  0  0  0
 25 27  1  0  0  0  0
 27 28  1  0  0  0  0
 27 29  1  0  0  0  0
 27 30  1  0  0  0  0
M  CHG  1  15   1
M  END
$$$$

  -OEChem-01062216083D

 30 30  0     1  0  0  0  0  0999 V2000
   -3.1168   -1.9839    1.5573 H   0  0  0  0  0  0  0  0  0  0  0  0
   -3.1230   -1.0736    0.9508 C   0  0  0  0  0  0  0  0  0  0  0  0
   -3.3637   -0.2259    1.5978 H   0  0  0  0  0  0  0  0  0  0  0  0
   -3.8924   -1.1674    0.1810 H   0  0  0  0  0  0  0  0  0  0  0  0
   -1.7640   -0.8642    0.3129 C   0  0  0  0  0  0  0  0  0  0  0  0
   -0.8812   -1.7006    0.4432 O   0  0  0  0  0  0  0  0  0  0  0  0
   -1.5357    0.2224   -0.5113 N   0  0  0  0  0  0  0  0  0  0  0  0
   -2.3158    0.8772   -0.5215 H   0  0  0  0  0  0  0  0  0  0  0  0
   -0.1939    0.8378   -0.5476 C   0  0  1  0  0  0  0  0  0  0  0  0
    0.5175    0.2246    0.0181 H   0  0  0  0  0  0  0  0  0  0  0  0
    0.3225    0.8923   -1.9935 C   0  0  0  0  0  0  0  0  0  0  0  0
   -0.3894    1.4376   -2.6219 H   0  0  0  0  0  0  0  0  0  0  0  0
    1.2827    1.4177   -2.0380 H   0  0  0  0  0  0  0  0  0  0  0  0
    0.4905   -0.5215   -2.5024 C   0  0  0  0  0  0  0  0  0  0  0  0
    1.5135   -1.4072   -2.1555 N   0  3  0  0  0  0  0  0  0  0  0  0
    2.2066   -1.2027   -1.4309 H   0  0  0  0  0  0  0  0  0  0  0  0
    1.3311   -2.5637   -2.7443 C   0  0  0  0  0  0  0  0  0  0  0  0
    1.9371   -3.4613   -2.6076 H   0  0  0  0  0  0  0  0  0  0  0  0
    0.2025   -2.4438   -3.5509 N   0  0  0  0  0  0  0  0  0  0  0  0
   -0.2050   -3.1916   -4.1200 H   0  0  0  0  0  0  0  0  0  0  0  0
   -0.3250   -1.1672   -3.3980 C   0  0  0  0  0  0  0  0  0  0  0  0
   -1.2212   -0.7623   -3.8669 H   0  0  0  0  0  0  0  0  0  0  0  0
   -0.1816    2.1788    0.2138 C   0  0  0  0  0  0  0  0  0  0  0  0
   -0.3263    2.1582    1.4248 O   0  0  0  0  0  0  0  0  0  0  0  0
   -0.1557    3.3986   -0.4410 N   0  0  0  0  0  0  0  0  0  0  0  0
   -0.1090    3.4061   -1.4550 H   0  0  0  0  0  0  0  0  0  0  0  0
   -0.2489    4.6774    0.2607 C   0  0  0  0  0  0  0  0  0  0  0  0
    0.5512    4.7694    1.0036 H   0  0  0  0  0  0  0  0  0  0  0  0
   -0.1572    5.5082   -0.4460 H   0  0  0  0  0  0  0  0  0  0  0  0
   -1.2129    4.7658    0.7737 H   0  0  0  0  0  0  0  0  0  0  0  0
  1  2  1  0  0  0  0
  2  3  1  0  0  0  0
  2  4  1  0  0  0  0
  2  5  1  0  0  0  0
  5  6  2  0  0  0  0
  5  7  1  0  0  0  0
  7  8  1  0  0  0  0
  7  9  1  0  0  0  0
  9 10  1  0  0  0  0
  9 11  1  0  0  0  0
  9 23  1  0  0  0  0
 11 12  1  0  0  0  0
 11 13  1  0  0  0  0
 11 14  1  0  0  0  0
 14 15  1  0  0  0  0
 14 21  2  0  0  0  0
 15 16  1  0  0  0  0
 15 17  2  0  0  0  0
 17 18  1  0  0  0  0
 17 19  1  0  0  0  0
 19 20  1  0  0  0  0
 19 21  1  0  0  0  0
 21 22  1  0  0  0  0
 23 24  2  0  0  0  0
 23 25  1  0  0  0  0
 25 26  1  0  0  0  0
 25 27  1  0  0  0  0
 27 28  1  0  0  0  0
 27 29  1  0  0  0  0
 27 30  1  0  0  0  0
M  CHG  1  15   1
M  END
$$$$

  -OEChem-01062216083D

 30 30  0     1  0  0  0  0  0999 V2000
   -3.1458   -2.0310    1.5384 H   0  0  0  0  0  0  0  0  0  0  0  0
   -3.1608   -1.1314    0.9162 C   0  0  0  0  0  0  0  0  0  0  0  0
   -3.4655   -0.2846    1.5365 H   0  0  0  0  0  0  0  0  0  0  0  0
   -3.8897   -1.2697    0.1143 H   0  0  0  0  0  0  0  0  0  0  0  0
   -1.7836   -0.8776    0.3350 C   0  0  0  0  0  0  0  0  0  0  0  0
   -0.8847   -1.6901    0.4964 O   0  0  0  0  0  0  0  0  0  0  0  0
   -1.5600    0.2129   -0.4861 N   0  0  0  0  0  0  0  0  0  0  0  0
   -2.3537    0.8491   -0.5284 H   0  0  0  0  0  0  0  0  0  0  0  0
   -0.2255    0.8446   -0.5330 C   0  0  1  0  0  0  0  0  0  0  0  0
    0.4937    0.2330    0.0250 H   0  0  0  0  0  0  0  0  0  0  0  0
    0.2905    0.9104   -1.9779 C   0  0  0  0  0  0  0  0  0  0  0  0
   -0.4268    1.4479   -2.6065 H   0  0  0  0  0  0  0  0  0  0  0  0
    1.2428    1.4507   -2.0195 H   0  0  0  0  0  0  0  0  0  0  0  0
    0.4769   -0.4997   -2.4887 C   0  0  0  0  0  0  0  0  0  0  0  0
    1.5137   -1.3678   -2.1386 N   0  3  0  0  0  0  0  0  0  0  0  0
    2.2039   -1.1489   -1.4150 H   0  0  0  0  0  0  0  0  0  0  0  0
    1.3531   -2.5268   -2.7284 C   0  0  0  0  0  0  0  0  0  0  0  0
    1.9751   -3.4134   -2.5910 H   0  0  0  0  0  0  0  0  0  0  0  0
    0.2250   -2.4255   -3.5386 N   0  0  0  0  0  0  0  0  0  0  0  0
   -0.1662   -3.1791   -4.1117 H   0  0  0  0  0  0  0  0  0  0  0  0
   -0.3243   -1.1577   -3.3880 C   0  0  0  0  0  0  0  0  0  0  0  0
   -1.2234   -0.7667   -3.8627 H   0  0  0  0  0  0  0  0  0  0  0  0
   -0.2051    2.1863    0.2237 C   0  0  0  0  0  0  0  0  0  0  0  0
    0.0100    2.1815    1.4238 O   0  0  0  0  0  0  0  0  0  0  0  0
   -0.4971    3.3820   -0.4101 N   0  0  0  0  0  0  0  0  0  0  0  0
   -0.7253    3.3649   -1.3992 H   0  0  0  0  0  0  0  0  0  0  0  0
   -0.5371    4.6622    0.2937 C   0  0  0  0  0  0  0  0  0  0  0  0
    0.4349    4.8813    0.7495 H   0  0  0  0  0  0  0  0  0  0  0  0
   -0.7812    5.4729   -0.4001 H   0  0  0  0  0  0  0  0  0  0  0  0
   -1.2967    4.6442    1.0832 H   0  0  0  0  0  0  0  0  0  0  0  0
  1  2  1  0  0  0  0
  2  3  1  0  0  0  0
  2  4  1  0  0  0  0
  2  5  1  0  0  0  0
  5  6  2  0  0  0  0
  5  7  1  0  0  0  0
  7  8  1  0  0  0  0
  7  9  1  0  0  0  0
  9 10  1  0  0  0  0
  9 11  1  0  0  0  0
  9 23  1  0  0  0  0
 11 12  1  0  0  0  0
 11 13  1  0  0  0  0
 11 14  1  0  0  0  0
 14 15  1  0  0  0  0
 14 21  2  0  0  0  0
 15 16  1  0  0  0  0
 15 17  2  0  0  0  0
 17 18  1  0  0  0  0
 17 19  1  0  0  0  0
 19 20  1  0  0  0  0
 19 21  1  0  0  0  0
 21 22  1  0  0  0  0
 23 24  2  0  0  0  0
 23 25  1  0  0  0  0
 25 26  1  0  0  0  0
 25 27  1  0  0  0  0
 27 28  1  0  0  0  0
 27 29  1  0  0  0  0
 27 30  1  0  0  0  0
M  CHG  1  15   1
M  END
$$$$

  -OEChem-01062216083D

 30 30  0     1  0  0  0  0  0999 V2000
   -3.1765   -2.0865    1.5250 H   0  0  0  0  0  0  0  0  0  0  0  0
   -3.1952   -1.1830    0.9087 C   0  0  0  0  0  0  0  0  0  0  0  0
   -3.5307   -0.3471    1.5277 H   0  0  0  0  0  0  0  0  0  0  0  0
   -3.9033   -1.3302    0.0900 H   0  0  0  0  0  0  0  0  0  0  0  0
   -1.8102   -0.8990    0.3606 C   0  0  0  0  0  0  0  0  0  0  0  0
   -0.8983   -1.6898    0.5502 O   0  0  0  0  0  0  0  0  0  0  0  0
   -1.5911    0.1955   -0.4571 N   0  0  0  0  0  0  0  0  0  0  0  0
   -2.3956    0.8152   -0.5253 H   0  0  0  0  0  0  0  0  0  0  0  0
   -0.2622    0.8408   -0.5102 C   0  0  1  0  0  0  0  0  0  0  0  0
    0.4614    0.2279    0.0407 H   0  0  0  0  0  0  0  0  0  0  0  0
    0.2564    0.9222   -1.9522 C   0  0  0  0  0  0  0  0  0  0  0  0
   -0.4634    1.4588   -2.5783 H   0  0  0  0  0  0  0  0  0  0  0  0
    1.2030    1.4734   -1.9850 H   0  0  0  0  0  0  0  0  0  0  0  0
    0.4605   -0.4814   -2.4738 C   0  0  0  0  0  0  0  0  0  0  0  0
    1.5093   -1.3348   -2.1229 N   0  3  0  0  0  0  0  0  0  0  0  0
    2.1893   -1.1105   -1.3908 H   0  0  0  0  0  0  0  0  0  0  0  0
    1.3793   -2.4881   -2.7312 C   0  0  0  0  0  0  0  0  0  0  0  0
    2.0194   -3.3629   -2.6013 H   0  0  0  0  0  0  0  0  0  0  0  0
    0.2580   -2.3975   -3.5522 N   0  0  0  0  0  0  0  0  0  0  0  0
   -0.1079   -3.1481   -4.1454 H   0  0  0  0  0  0  0  0  0  0  0  0
   -0.3176   -1.1423   -3.3916 C   0  0  0  0  0  0  0  0  0  0  0  0
   -1.2154   -0.7610   -3.8768 H   0  0  0  0  0  0  0  0  0  0  0  0
   -0.2307    2.1835    0.2429 C   0  0  0  0  0  0  0  0  0  0  0  0
    0.3355    2.2472    1.3208 O   0  0  0  0  0  0  0  0  0  0  0  0
   -0.8152    3.3192   -0.2905 N   0  0  0  0  0  0  0  0  0  0  0  0
   -1.2902    3.2463   -1.1847 H   0  0  0  0  0  0  0  0  0  0  0  0
   -0.8054    4.6109    0.3931 C   0  0  0  0  0  0  0  0  0  0  0  0
    0.2227    4.9368    0.5860 H   0  0  0  0  0  0  0  0  0  0  0  0
   -1.2971    5.3723   -0.2207 H   0  0  0  0  0  0  0  0  0  0  0  0
   -1.3355    4.5441    1.3495 H   0  0  0  0  0  0  0  0  0  0  0  0
  1  2  1  0  0  0  0
  2  3  1  0  0  0  0
  2  4  1  0  0  0  0
  2  5  1  0  0  0  0
  5  6  2  0  0  0  0
  5  7  1  0  0  0  0
  7  8  1  0  0  0  0
  7  9  1  0  0  0  0
  9 10  1  0  0  0  0
  9 11  1  0  0  0  0
  9 23  1  0  0  0  0
 11 12  1  0  0  0  0
 11 13  1  0  0  0  0
 11 14  1  0  0  0  0
 14 15  1  0  0  0  0
 14 21  2  0  0  0  0
 15 16  1  0  0  0  0
 15 17  2  0  0  0  0
 17 18  1  0  0  0  0
 17 19  1  0  0  0  0
 19 20  1  0  0  0  0
 19 21  1  0  0  0  0
 21 22  1  0  0  0  0
 23 24  2  0  0  0  0
 23 25  1  0  0  0  0
 25 26  1  0  0  0  0
 25 27  1  0  0  0  0
 27 28  1  0  0  0  0
 27 29  1  0  0  0  0
 27 30  1  0  0  0  0
M  CHG  1  15   1
M  END
$$$$

  -OEChem-01062216083D

 30 30  0     1  0  0  0  0  0999 V2000
   -3.2160   -2.1496    1.5091 H   0  0  0  0  0  0  0  0  0  0  0  0
   -3.2360   -1.2543    0.8806 C   0  0  0  0  0  0  0  0  0  0  0  0
   -3.6292   -0.4235    1.4717 H   0  0  0  0  0  0  0  0  0  0  0  0
   -3.8985   -1.4359    0.0312 H   0  0  0  0  0  0  0  0  0  0  0  0
   -1.8371   -0.9293    0.3940 C   0  0  0  0  0  0  0  0  0  0  0  0
   -0.9115   -1.6893    0.6322 O   0  0  0  0  0  0  0  0  0  0  0  0
   -1.6170    0.1700   -0.4173 N   0  0  0  0  0  0  0  0  0  0  0  0
   -2.4325    0.7684   -0.5238 H   0  0  0  0  0  0  0  0  0  0  0  0
   -0.2939    0.8299   -0.4710 C   0  0  1  0  0  0  0  0  0  0  0  0
    0.4342    0.2162    0.0731 H   0  0  0  0  0  0  0  0  0  0  0  0
    0.2228    0.9321   -1.9114 C   0  0  0  0  0  0  0  0  0  0  0  0
   -0.5017    1.4711   -2.5300 H   0  0  0  0  0  0  0  0  0  0  0  0
    1.1636    1.4939   -1.9367 H   0  0  0  0  0  0  0  0  0  0  0  0
    0.4433   -0.4607   -2.4515 C   0  0  0  0  0  0  0  0  0  0  0  0
    1.5042   -1.3019   -2.1096 N   0  3  0  0  0  0  0  0  0  0  0  0
    2.1828   -1.0728   -1.3775 H   0  0  0  0  0  0  0  0  0  0  0  0
    1.3976   -2.4459   -2.7395 C   0  0  0  0  0  0  0  0  0  0  0  0
    2.0558   -3.3094   -2.6262 H   0  0  0  0  0  0  0  0  0  0  0  0
    0.2762   -2.3609   -3.5614 N   0  0  0  0  0  0  0  0  0  0  0  0
   -0.0718   -3.1055   -4.1729 H   0  0  0  0  0  0  0  0  0  0  0  0
   -0.3214   -1.1184   -3.3818 C   0  0  0  0  0  0  0  0  0  0  0  0
   -1.2217   -0.7414   -3.8656 H   0  0  0  0  0  0  0  0  0  0  0  0
   -0.2502    2.1735    0.2786 C   0  0  0  0  0  0  0  0  0  0  0  0
    0.6088    2.3490    1.1265 O   0  0  0  0  0  0  0  0  0  0  0  0
   -1.0792    3.2218   -0.0819 N   0  0  0  0  0  0  0  0  0  0  0  0
   -1.7436    3.0782   -0.8355 H   0  0  0  0  0  0  0  0  0  0  0  0
   -1.0129    4.5369    0.5522 C   0  0  0  0  0  0  0  0  0  0  0  0
   -0.0255    4.9876    0.4028 H   0  0  0  0  0  0  0  0  0  0  0  0
   -1.7651    5.2069    0.1238 H   0  0  0  0  0  0  0  0  0  0  0  0
   -1.1992    4.4549    1.6288 H   0  0  0  0  0  0  0  0  0  0  0  0
  1  2  1  0  0  0  0
  2  3  1  0  0  0  0
  2  4  1  0  0  0  0
  2  5  1  0  0  0  0
  5  6  2  0  0  0  0
  5  7  1  0  0  0  0
  7  8  1  0  0  0  0
  7  9  1  0  0  0  0
  9 10  1  0  0  0  0
  9 11  1  0  0  0  0
  9 23  1  0  0  0  0
 11 12  1  0  0  0  0
 11 13  1  0  0  0  0
 11 14  1  0  0  0  0
 14 15  1  0  0  0  0
 14 21  2  0  0  0  0
 15 16  1  0  0  0  0
 15 17  2  0  0  0  0
 17 18  1  0  0  0  0
 17 19  1  0  0  0  0
 19 20  1  0  0  0  0
 19 21  1  0  0  0  0
 21 22  1  0  0  0  0
 23 24  2  0  0  0  0
 23 25  1  0  0  0  0
 25 26  1  0  0  0  0
 25 27  1  0  0  0  0
 27 28  1  0  0  0  0
 27 29  1  0  0  0  0
 27 30  1  0  0  0  0
M  CHG  1  15   1
M  END
$$$$

  -OEChem-01062216083D

 30 30  0     1  0  0  0  0  0999 V2000
   -3.2519   -2.2140    1.4726 H   0  0  0  0  0  0  0  0  0  0  0  0
   -3.2673   -1.3195    0.8427 C   0  0  0  0  0  0  0  0  0  0  0  0
   -3.7180   -0.5020    1.4108 H   0  0  0  0  0  0  0  0  0  0  0  0
   -3.8775   -1.5226   -0.0404 H   0  0  0  0  0  0  0  0  0  0  0  0
   -1.8557   -0.9498    0.4301 C   0  0  0  0  0  0  0  0  0  0  0  0
   -0.9196   -1.6715    0.7341 O   0  0  0  0  0  0  0  0  0  0  0  0
   -1.6306    0.1509   -0.3779 N   0  0  0  0  0  0  0  0  0  0  0  0
   -2.4555    0.7172   -0.5553 H   0  0  0  0  0  0  0  0  0  0  0  0
   -0.3121    0.8221   -0.4365 C   0  0  1  0  0  0  0  0  0  0  0  0
    0.4212    0.2093    0.1011 H   0  0  0  0  0  0  0  0  0  0  0  0
    0.1948    0.9359   -1.8797 C   0  0  0  0  0  0  0  0  0  0  0  0
   -0.5365    1.4766   -2.4889 H   0  0  0  0  0  0  0  0  0  0  0  0
    1.1310    1.5058   -1.9056 H   0  0  0  0  0  0  0  0  0  0  0  0
    0.4260   -0.4487   -2.4353 C   0  0  0  0  0  0  0  0  0  0  0  0
    1.4995   -1.2782   -2.1054 N   0  3  0  0  0  0  0  0  0  0  0  0
    2.1870   -1.0389   -1.3849 H   0  0  0  0  0  0  0  0  0  0  0  0
    1.4097   -2.4155   -2.7495 C   0  0  0  0  0  0  0  0  0  0  0  0
    2.0860   -3.2671   -2.6541 H   0  0  0  0  0  0  0  0  0  0  0  0
    0.2817   -2.3400   -3.5634 N   0  0  0  0  0  0  0  0  0  0  0  0
   -0.0543   -3.0815   -4.1854 H   0  0  0  0  0  0  0  0  0  0  0  0
   -0.3331   -1.1077   -3.3693 C   0  0  0  0  0  0  0  0  0  0  0  0
   -1.2390   -0.7373   -3.8480 H   0  0  0  0  0  0  0  0  0  0  0  0
   -0.2481    2.1697    0.3043 C   0  0  0  0  0  0  0  0  0  0  0  0
    0.7881    2.4648    0.8772 O   0  0  0  0  0  0  0  0  0  0  0  0
   -1.2496    3.1170    0.1782 N   0  0  0  0  0  0  0  0  0  0  0  0
   -2.0771    2.8811   -0.3586 H   0  0  0  0  0  0  0  0  0  0  0  0
   -1.1665    4.4422    0.7884 C   0  0  0  0  0  0  0  0  0  0  0  0
   -0.3068    4.9950    0.3940 H   0  0  0  0  0  0  0  0  0  0  0  0
   -2.0726    5.0185    0.5764 H   0  0  0  0  0  0  0  0  0  0  0  0
   -1.0588    4.3583    1.8754 H   0  0  0  0  0  0  0  0  0  0  0  0
  1  2  1  0  0  0  0
  2  3  1  0  0  0  0
  2  4  1  0  0  0  0
  2  5  1  0  0  0  0
  5  6  2  0  0  0  0
  5  7  1  0  0  0  0
  7  8  1  0  0  0  0
  7  9  1  0  0  0  0
  9 10  1  0  0  0  0
  9 11  1  0  0  0  0
  9 23  1  0  0  0  0
 11 12  1  0  0  0  0
 11 13  1  0  0  0  0
 11 14  1  0  0  0  0
 14 15  1  0  0  0  0
 14 21  2  0  0  0  0
 15 16  1  0  0  0  0
 15 17  2  0  0  0  0
 17 18  1  0  0  0  0
 17 19  1  0  0  0  0
 19 20  1  0  0  0  0
 19 21  1  0  0  0  0
 21 22  1  0  0  0  0
 23 24  2  0  0  0  0
 23 25  1  0  0  0  0
 25 26  1  0  0  0  0
 25 27  1  0  0  0  0
 27 28  1  0  0  0  0
 27 29  1  0  0  0  0
 27 30  1  0  0  0  0
M  CHG  1  15   1
M  END
$$$$

  -OEChem-01062216083D

 30 30  0     1  0  0  0  0  0999 V2000
   -3.2848   -2.2550    1.4271 H   0  0  0  0  0  0  0  0  0  0  0  0
   -3.2864   -1.3742    0.7782 C   0  0  0  0  0  0  0  0  0  0  0  0
   -3.8243   -0.5693    1.2852 H   0  0  0  0  0  0  0  0  0  0  0  0
   -3.8055   -1.6236   -0.1501 H   0  0  0  0  0  0  0  0  0  0  0  0
   -1.8625   -0.9437    0.4831 C   0  0  0  0  0  0  0  0  0  0  0  0
   -0.9248   -1.6045    0.8976 O   0  0  0  0  0  0  0  0  0  0  0  0
   -1.6200    0.1502   -0.3285 N   0  0  0  0  0  0  0  0  0  0  0  0
   -2.4419    0.6615   -0.6379 H   0  0  0  0  0  0  0  0  0  0  0  0
   -0.3041    0.8248   -0.4025 C   0  0  1  0  0  0  0  0  0  0  0  0
    0.4372    0.2169    0.1289 H   0  0  0  0  0  0  0  0  0  0  0  0
    0.1777    0.9341   -1.8562 C   0  0  0  0  0  0  0  0  0  0  0  0
   -0.5657    1.4735   -2.4518 H   0  0  0  0  0  0  0  0  0  0  0  0
    1.1115    1.5070   -1.9023 H   0  0  0  0  0  0  0  0  0  0  0  0
    0.4050   -0.4478   -2.4186 C   0  0  0  0  0  0  0  0  0  0  0  0
    1.4889   -1.2706   -2.1078 N   0  3  0  0  0  0  0  0  0  0  0  0
    2.1916   -1.0235   -1.4047 H   0  0  0  0  0  0  0  0  0  0  0  0
    1.4038   -2.4022   -2.7627 C   0  0  0  0  0  0  0  0  0  0  0  0
    2.0939   -3.2450   -2.6887 H   0  0  0  0  0  0  0  0  0  0  0  0
    0.2631   -2.3312   -3.5598 N   0  0  0  0  0  0  0  0  0  0  0  0
   -0.0693   -3.0672   -4.1902 H   0  0  0  0  0  0  0  0  0  0  0  0
   -0.3600   -1.1058   -3.3486 C   0  0  0  0  0  0  0  0  0  0  0  0
   -1.2715   -0.7367   -3.8179 H   0  0  0  0  0  0  0  0  0  0  0  0
   -0.2263    2.1809    0.3223 C   0  0  0  0  0  0  0  0  0  0  0  0
    0.8807    2.6116    0.6049 O   0  0  0  0  0  0  0  0  0  0  0  0
   -1.3311    3.0039    0.4560 N   0  0  0  0  0  0  0  0  0  0  0  0
   -2.2454    2.6095    0.2662 H   0  0  0  0  0  0  0  0  0  0  0  0
   -1.2594    4.3251    1.0753 C   0  0  0  0  0  0  0  0  0  0  0  0
   -0.5834    4.9777    0.5119 H   0  0  0  0  0  0  0  0  0  0  0  0
   -2.2494    4.7917    1.0949 H   0  0  0  0  0  0  0  0  0  0  0  0
   -0.8935    4.2478    2.1051 H   0  0  0  0  0  0  0  0  0  0  0  0
  1  2  1  0  0  0  0
  2  3  1  0  0  0  0
  2  4  1  0  0  0  0
  2  5  1  0  0  0  0
  5  6  2  0  0  0  0
  5  7  1  0  0  0  0
  7  8  1  0  0  0  0
  7  9  1  0  0  0  0
  9 10  1  0  0  0  0
  9 11  1  0  0  0  0
  9 23  1  0  0  0  0
 11 12  1  0  0  0  0
 11 13  1  0  0  0  0
 11 14  1  0  0  0  0
 14 15  1  0  0  0  0
 14 21  2  0  0  0  0
 15 16  1  0  0  0  0
 15 17  2  0  0  0  0
 17 18  1  0  0  0  0
 17 19  1  0  0  0  0
 19 20  1  0  0  0  0
 19 21  1  0  0  0  0
 21 22  1  0  0  0  0
 23 24  2  0  0  0  0
 23 25  1  0  0  0  0
 25 26  1  0  0  0  0
 25 27  1  0  0  0  0
 27 28  1  0  0  0  0
 27 29  1  0  0  0  0
 27 30  1  0  0  0  0
M  CHG  1  15   1
M  END
$$$$

  -OEChem-01062216083D

 30 30  0     1  0  0  0  0  0999 V2000
   -3.2875   -2.2603    1.4159 H   0  0  0  0  0  0  0  0  0  0  0  0
   -3.2851   -1.3819    0.7636 C   0  0  0  0  0  0  0  0  0  0  0  0
   -3.8458   -0.5827    1.2546 H   0  0  0  0  0  0  0  0  0  0  0  0
   -3.7787   -1.6416   -0.1758 H   0  0  0  0  0  0  0  0  0  0  0  0
   -1.8602   -0.9339    0.5008 C   0  0  0  0  0  0  0  0  0  0  0  0
   -0.9246   -1.5729    0.9518 O   0  0  0  0  0  0  0  0  0  0  0  0
   -1.6104    0.1562   -0.3136 N   0  0  0  0  0  0  0  0  0  0  0  0
   -2.4266    0.6556   -0.6583 H   0  0  0  0  0  0  0  0  0  0  0  0
   -0.2933    0.8285   -0.3900 C   0  0  1  0  0  0  0  0  0  0  0  0
    0.4507    0.2248    0.1414 H   0  0  0  0  0  0  0  0  0  0  0  0
    0.1777    0.9305   -1.8500 C   0  0  0  0  0  0  0  0  0  0  0  0
   -0.5696    1.4715   -2.4393 H   0  0  0  0  0  0  0  0  0  0  0  0
    1.1122    1.5010   -1.9083 H   0  0  0  0  0  0  0  0  0  0  0  0
    0.3990   -0.4517   -2.4149 C   0  0  0  0  0  0  0  0  0  0  0  0
    1.4841   -1.2772   -2.1145 N   0  3  0  0  0  0  0  0  0  0  0  0
    2.1953   -1.0311   -1.4197 H   0  0  0  0  0  0  0  0  0  0  0  0
    1.3959   -2.4043   -2.7769 C   0  0  0  0  0  0  0  0  0  0  0  0
    2.0879   -3.2467   -2.7146 H   0  0  0  0  0  0  0  0  0  0  0  0
    0.2507   -2.3285   -3.5667 N   0  0  0  0  0  0  0  0  0  0  0  0
   -0.0831   -3.0584   -4.2034 H   0  0  0  0  0  0  0  0  0  0  0  0
   -0.3704   -1.1040   -3.3453 C   0  0  0  0  0  0  0  0  0  0  0  0
   -1.2816   -0.7303   -3.8113 H   0  0  0  0  0  0  0  0  0  0  0  0
   -0.2193    2.1881    0.3312 C   0  0  0  0  0  0  0  0  0  0  0  0
    0.8683    2.7386    0.4055 O   0  0  0  0  0  0  0  0  0  0  0  0
   -1.3569    2.8674    0.7297 N   0  0  0  0  0  0  0  0  0  0  0  0
   -2.2246    2.3435    0.7664 H   0  0  0  0  0  0  0  0  0  0  0  0
   -1.3039    4.1658    1.3979 C   0  0  0  0  0  0  0  0  0  0  0  0
   -0.7954    4.9034    0.7673 H   0  0  0  0  0  0  0  0  0  0  0  0
   -2.3149    4.5315    1.6037 H   0  0  0  0  0  0  0  0  0  0  0  0
   -0.7642    4.0872    2.3481 H   0  0  0  0  0  0  0  0  0  0  0  0
  1  2  1  0  0  0  0
  2  3  1  0  0  0  0
  2  4  1  0  0  0  0
  2  5  1  0  0  0  0
  5  6  2  0  0  0  0
  5  7  1  0  0  0  0
  7  8  1  0  0  0  0
  7  9  1  0  0  0  0
  9 10  1  0  0  0  0
  9 11  1  0  0  0  0
  9 23  1  0  0  0  0
 11 12  1  0  0  0  0
 11 13  1  0  0  0  0
 11 14  1  0  0  0  0
 14 15  1  0  0  0  0
 14 21  2  0  0  0  0
 15 16  1  0  0  0  0
 15 17  2  0  0  0  0
 17 18  1  0  0  0  0
 17 19  1  0  0  0  0
 19 20  1  0  0  0  0
 19 21  1  0  0  0  0
 21 22  1  0  0  0  0
 23 24  2  0  0  0  0
 23 25  1  0  0  0  0
 25 26  1  0  0  0  0
 25 27  1  0  0  0  0
 27 28  1  0  0  0  0
 27 29  1  0  0  0  0
 27 30  1  0  0  0  0
M  CHG  1  15   1
M  END
$$$$

  -OEChem-01062216083D

 30 30  0     1  0  0  0  0  0999 V2000
   -3.2860   -2.2512    1.4110 H   0  0  0  0  0  0  0  0  0  0  0  0
   -3.2773   -1.3681    0.7653 C   0  0  0  0  0  0  0  0  0  0  0  0
   -3.8339   -0.5690    1.2612 H   0  0  0  0  0  0  0  0  0  0  0  0
   -3.7711   -1.6173   -0.1768 H   0  0  0  0  0  0  0  0  0  0  0  0
   -1.8496   -0.9271    0.5070 C   0  0  0  0  0  0  0  0  0  0  0  0
   -0.9180   -1.5612    0.9725 O   0  0  0  0  0  0  0  0  0  0  0  0
   -1.5923    0.1608   -0.3075 N   0  0  0  0  0  0  0  0  0  0  0  0
   -2.4052    0.6705   -0.6471 H   0  0  0  0  0  0  0  0  0  0  0  0
   -0.2728    0.8289   -0.3805 C   0  0  1  0  0  0  0  0  0  0  0  0
    0.4726    0.2257    0.1491 H   0  0  0  0  0  0  0  0  0  0  0  0
    0.1877    0.9287   -1.8456 C   0  0  0  0  0  0  0  0  0  0  0  0
   -0.5625    1.4733   -2.4280 H   0  0  0  0  0  0  0  0  0  0  0  0
    1.1245    1.4941   -1.9152 H   0  0  0  0  0  0  0  0  0  0  0  0
    0.3994   -0.4534   -2.4148 C   0  0  0  0  0  0  0  0  0  0  0  0
    1.4828   -1.2845   -2.1254 N   0  3  0  0  0  0  0  0  0  0  0  0
    2.2034   -1.0411   -1.4395 H   0  0  0  0  0  0  0  0  0  0  0  0
    1.3852   -2.4087   -2.7913 C   0  0  0  0  0  0  0  0  0  0  0  0
    2.0759   -3.2527   -2.7391 H   0  0  0  0  0  0  0  0  0  0  0  0
    0.2334   -2.3261   -3.5709 N   0  0  0  0  0  0  0  0  0  0  0  0
   -0.1070   -3.0516   -4.2092 H   0  0  0  0  0  0  0  0  0  0  0  0
   -0.3806   -1.0997   -3.3406 C   0  0  0  0  0  0  0  0  0  0  0  0
   -1.2935   -0.7195   -3.7983 H   0  0  0  0  0  0  0  0  0  0  0  0
   -0.2111    2.1895    0.3438 C   0  0  0  0  0  0  0  0  0  0  0  0
    0.8060    2.8582    0.2429 O   0  0  0  0  0  0  0  0  0  0  0  0
   -1.3117    2.7136    0.9984 N   0  0  0  0  0  0  0  0  0  0  0  0
   -2.0812    2.0797    1.1884 H   0  0  0  0  0  0  0  0  0  0  0  0
   -1.2721    3.9880    1.7122 C   0  0  0  0  0  0  0  0  0  0  0  0
   -0.9371    4.7930    1.0486 H   0  0  0  0  0  0  0  0  0  0  0  0
   -2.2679    4.2465    2.0858 H   0  0  0  0  0  0  0  0  0  0  0  0
   -0.5862    3.9300    2.5644 H   0  0  0  0  0  0  0  0  0  0  0  0
  1  2  1  0  0  0  0
  2  3  1  0  0  0  0
  2  4  1  0  0  0  0
  2  5  1  0  0  0  0
  5  6  2  0  0  0  0
  5  7  1  0  0  0  0
  7  8  1  0  0  0  0
  7  9  1  0  0  0  0
  9 10  1  0  0  0  0
  9 11  1  0  0  0  0
  9 23  1  0  0  0  0
 11 12  1  0  0  0  0
 11 13  1  0  0  0  0
 11 14  1  0  0  0  0
 14 15  1  0  0  0  0
 14 21  2  0  0  0  0
 15 16  1  0  0  0  0
 15 17  2  0  0  0  0
 17 18  1  0  0  0  0
 17 19  1  0  0  0  0
 19 20  1  0  0  0  0
 19 21  1  0  0  0  0
 21 22  1  0  0  0  0
 23 24  2  0  0  0  0
 23 25  1  0  0  0  0
 25 26  1  0  0  0  0
 25 27  1  0  0  0  0
 27 28  1  0  0  0  0
 27 29  1  0  0  0  0
 27 30  1  0  0  0  0
M  CHG  1  15   1
M  END
$$$$

  -OEChem-01062216083D

 30 30  0     1  0  0  0  0  0999 V2000
   -3.2923   -2.2233    1.4229 H   0  0  0  0  0  0  0  0  0  0  0  0
   -3.2729   -1.3577    0.7540 C   0  0  0  0  0  0  0  0  0  0  0  0
   -3.8452   -0.5488    1.2143 H   0  0  0  0  0  0  0  0  0  0  0  0
   -3.7434   -1.6351   -0.1923 H   0  0  0  0  0  0  0  0  0  0  0  0
   -1.8415   -0.9161    0.5166 C   0  0  0  0  0  0  0  0  0  0  0  0
   -0.9171   -1.5452    1.0026 O   0  0  0  0  0  0  0  0  0  0  0  0
   -1.5711    0.1699   -0.2956 N   0  0  0  0  0  0  0  0  0  0  0  0
   -2.3790    0.6968   -0.6222 H   0  0  0  0  0  0  0  0  0  0  0  0
   -0.2461    0.8271   -0.3636 C   0  0  1  0  0  0  0  0  0  0  0  0
    0.4965    0.2204    0.1655 H   0  0  0  0  0  0  0  0  0  0  0  0
    0.2103    0.9248   -1.8317 C   0  0  0  0  0  0  0  0  0  0  0  0
   -0.5354    1.4798   -2.4103 H   0  0  0  0  0  0  0  0  0  0  0  0
    1.1532    1.4791   -1.9042 H   0  0  0  0  0  0  0  0  0  0  0  0
    0.4079   -0.4563   -2.4078 C   0  0  0  0  0  0  0  0  0  0  0  0
    1.4819   -1.3041   -2.1318 N   0  3  0  0  0  0  0  0  0  0  0  0
    2.2121   -1.0749   -1.4514 H   0  0  0  0  0  0  0  0  0  0  0  0
    1.3651   -2.4211   -2.8072 C   0  0  0  0  0  0  0  0  0  0  0  0
    2.0448   -3.2745   -2.7683 H   0  0  0  0  0  0  0  0  0  0  0  0
    0.2091   -2.3170   -3.5780 N   0  0  0  0  0  0  0  0  0  0  0  0
   -0.1460   -3.0322   -4.2200 H   0  0  0  0  0  0  0  0  0  0  0  0
   -0.3865   -1.0847   -3.3333 C   0  0  0  0  0  0  0  0  0  0  0  0
   -1.2971   -0.6878   -3.7811 H   0  0  0  0  0  0  0  0  0  0  0  0
   -0.1948    2.1861    0.3677 C   0  0  0  0  0  0  0  0  0  0  0  0
    0.6990    2.9740    0.0979 O   0  0  0  0  0  0  0  0  0  0  0  0
   -1.1844    2.5600    1.2589 N   0  0  0  0  0  0  0  0  0  0  0  0
   -1.8293    1.8378    1.5653 H   0  0  0  0  0  0  0  0  0  0  0  0
   -1.1527    3.8228    1.9931 C   0  0  0  0  0  0  0  0  0  0  0  0
   -1.1584    4.6710    1.2998 H   0  0  0  0  0  0  0  0  0  0  0  0
   -2.0277    3.9075    2.6452 H   0  0  0  0  0  0  0  0  0  0  0  0
   -0.2520    3.8850    2.6138 H   0  0  0  0  0  0  0  0  0  0  0  0
  1  2  1  0  0  0  0
  2  3  1  0  0  0  0
  2  4  1  0  0  0  0
  2  5  1  0  0  0  0
  5  6  2  0  0  0  0
  5  7  1  0  0  0  0
  7  8  1  0  0  0  0
  7  9  1  0  0  0  0
  9 10  1  0  0  0  0
  9 11  1  0  0  0  0
  9 23  1  0  0  0  0
 11 12  1  0  0  0  0
 11 13  1  0  0  0  0
 11 14  1  0  0  0  0
 14 15  1  0  0  0  0
 14 21  2  0  0  0  0
 15 16  1  0  0  0  0
 15 17  2  0  0  0  0
 17 18  1  0  0  0  0
 17 19  1  0  0  0  0
 19 20  1  0  0  0  0
 19 21  1  0  0  0  0
 21 22  1  0  0  0  0
 23 24  2  0  0  0  0
 23 25  1  0  0  0  0
 25 26  1  0  0  0  0
 25 27  1  0  0  0  0
 27 28  1  0  0  0  0
 27 29  1  0  0  0  0
 27 30  1  0  0  0  0
M  CHG  1  15   1
M  END
$$$$

  -OEChem-01062216083D

 30 30  0     1  0  0  0  0  0999 V2000
   -3.2877   -2.1917    1.4553 H   0  0  0  0  0  0  0  0  0  0  0  0
   -3.2625   -1.3211    0.7931 C   0  0  0  0  0  0  0  0  0  0  0  0
   -3.8078   -0.5039    1.2713 H   0  0  0  0  0  0  0  0  0  0  0  0
   -3.7576   -1.5799   -0.1457 H   0  0  0  0  0  0  0  0  0  0  0  0
   -1.8276   -0.9069    0.5299 C   0  0  0  0  0  0  0  0  0  0  0  0
   -0.9057   -1.5386    1.0175 O   0  0  0  0  0  0  0  0  0  0  0  0
   -1.5520    0.1737   -0.2867 N   0  0  0  0  0  0  0  0  0  0  0  0
   -2.3583    0.7197   -0.5855 H   0  0  0  0  0  0  0  0  0  0  0  0
   -0.2231    0.8213   -0.3592 C   0  0  1  0  0  0  0  0  0  0  0  0
    0.5198    0.2144    0.1689 H   0  0  0  0  0  0  0  0  0  0  0  0
    0.2296    0.9168   -1.8291 C   0  0  0  0  0  0  0  0  0  0  0  0
   -0.5136    1.4795   -2.4038 H   0  0  0  0  0  0  0  0  0  0  0  0
    1.1761    1.4649   -1.9020 H   0  0  0  0  0  0  0  0  0  0  0  0
    0.4169   -0.4631   -2.4116 C   0  0  0  0  0  0  0  0  0  0  0  0
    1.4845   -1.3223   -2.1457 N   0  3  0  0  0  0  0  0  0  0  0  0
    2.2183   -1.1060   -1.4652 H   0  0  0  0  0  0  0  0  0  0  0  0
    1.3591   -2.4303   -2.8345 C   0  0  0  0  0  0  0  0  0  0  0  0
    2.0339   -3.2881   -2.8080 H   0  0  0  0  0  0  0  0  0  0  0  0
    0.2022   -2.3100   -3.6015 N   0  0  0  0  0  0  0  0  0  0  0  0
   -0.1578   -3.0144   -4.2527 H   0  0  0  0  0  0  0  0  0  0  0  0
   -0.3838   -1.0763   -3.3420 C   0  0  0  0  0  0  0  0  0  0  0  0
   -1.2914   -0.6675   -3.7852 H   0  0  0  0  0  0  0  0  0  0  0  0
   -0.1858    2.1803    0.3740 C   0  0  0  0  0  0  0  0  0  0  0  0
    0.5281    3.0776   -0.0478 O   0  0  0  0  0  0  0  0  0  0  0  0
   -0.9974    2.4145    1.4692 N   0  0  0  0  0  0  0  0  0  0  0  0
   -1.4707    1.6117    1.8748 H   0  0  0  0  0  0  0  0  0  0  0  0
   -0.9691    3.6633    2.2269 C   0  0  0  0  0  0  0  0  0  0  0  0
   -1.1492    4.5191    1.5672 H   0  0  0  0  0  0  0  0  0  0  0  0
   -1.7452    3.6586    2.9986 H   0  0  0  0  0  0  0  0  0  0  0  0
    0.0033    3.7957    2.7135 H   0  0  0  0  0  0  0  0  0  0  0  0
  1  2  1  0  0  0  0
  2  3  1  0  0  0  0
  2  4  1  0  0  0  0
  2  5  1  0  0  0  0
  5  6  2  0  0  0  0
  5  7  1  0  0  0  0
  7  8  1  0  0  0  0
  7  9  1  0  0  0  0
  9 10  1  0  0  0  0
  9 11  1  0  0  0  0
  9 23  1  0  0  0  0
 11 12  1  0  0  0  0
 11 13  1  0  0  0  0
 11 14  1  0  0  0  0
 14 15  1  0  0  0  0
 14 21  2  0  0  0  0
 15 16  1  0  0  0  0
 15 17  2  0  0  0  0
 17 18  1  0  0  0  0
 17 19  1  0  0  0  0
 19 20  1  0  0  0  0
 19 21  1  0  0  0  0
 21 22  1  0  0  0  0
 23 24  2  0  0  0  0
 23 25  1  0  0  0  0
 25 26  1  0  0  0  0
 25 27  1  0  0  0  0
 27 28  1  0  0  0  0
 27 29  1  0  0  0  0
 27 30  1  0  0  0  0
M  CHG  1  15   1
M  END
$$$$

  -OEChem-01062216083D

 30 30  0     1  0  0  0  0  0999 V2000
   -3.2833   -2.1715    1.4655 H   0  0  0  0  0  0  0  0  0  0  0  0
   -3.2499   -1.3005    0.8043 C   0  0  0  0  0  0  0  0  0  0  0  0
   -3.7952   -0.4809    1.2788 H   0  0  0  0  0  0  0  0  0  0  0  0
   -3.7395   -1.5567   -0.1381 H   0  0  0  0  0  0  0  0  0  0  0  0
   -1.8114   -0.8923    0.5515 C   0  0  0  0  0  0  0  0  0  0  0  0
   -0.8956   -1.5153    1.0620 O   0  0  0  0  0  0  0  0  0  0  0  0
   -1.5251    0.1807   -0.2709 N   0  0  0  0  0  0  0  0  0  0  0  0
   -2.3258    0.7348   -0.5703 H   0  0  0  0  0  0  0  0  0  0  0  0
   -0.1908    0.8138   -0.3470 C   0  0  1  0  0  0  0  0  0  0  0  0
    0.5518    0.2035    0.1775 H   0  0  0  0  0  0  0  0  0  0  0  0
    0.2552    0.9097   -1.8192 C   0  0  0  0  0  0  0  0  0  0  0  0
   -0.4855    1.4823   -2.3874 H   0  0  0  0  0  0  0  0  0  0  0  0
    1.2055    1.4516   -1.8918 H   0  0  0  0  0  0  0  0  0  0  0  0
    0.4259   -0.4681   -2.4126 C   0  0  0  0  0  0  0  0  0  0  0  0
    1.4847   -1.3426   -2.1613 N   0  3  0  0  0  0  0  0  0  0  0  0
    2.2296   -1.1381   -1.4896 H   0  0  0  0  0  0  0  0  0  0  0  0
    1.3402   -2.4442   -2.8567 C   0  0  0  0  0  0  0  0  0  0  0  0
    2.0055   -3.3098   -2.8431 H   0  0  0  0  0  0  0  0  0  0  0  0
    0.1785   -2.3046   -3.6129 N   0  0  0  0  0  0  0  0  0  0  0  0
   -0.1946   -2.9993   -4.2670 H   0  0  0  0  0  0  0  0  0  0  0  0
   -0.3899   -1.0655   -3.3403 C   0  0  0  0  0  0  0  0  0  0  0  0
   -1.2969   -0.6426   -3.7722 H   0  0  0  0  0  0  0  0  0  0  0  0
   -0.1623    2.1729    0.3850 C   0  0  0  0  0  0  0  0  0  0  0  0
    0.3290    3.1516   -0.1573 O   0  0  0  0  0  0  0  0  0  0  0  0
   -0.7372    2.3016    1.6360 N   0  0  0  0  0  0  0  0  0  0  0  0
   -1.0417    1.4492    2.1003 H   0  0  0  0  0  0  0  0  0  0  0  0
   -0.7176    3.5465    2.3998 C   0  0  0  0  0  0  0  0  0  0  0  0
   -1.1747    4.3593    1.8246 H   0  0  0  0  0  0  0  0  0  0  0  0
   -1.2789    3.4303    3.3324 H   0  0  0  0  0  0  0  0  0  0  0  0
    0.3111    3.8292    2.6481 H   0  0  0  0  0  0  0  0  0  0  0  0
  1  2  1  0  0  0  0
  2  3  1  0  0  0  0
  2  4  1  0  0  0  0
  2  5  1  0  0  0  0
  5  6  2  0  0  0  0
  5  7  1  0  0  0  0
  7  8  1  0  0  0  0
  7  9  1  0  0  0  0
  9 10  1  0  0  0  0
  9 11  1  0  0  0  0
  9 23  1  0  0  0  0
 11 12  1  0  0  0  0
 11 13  1  0  0  0  0
 11 14  1  0  0  0  0
 14 15  1  0  0  0  0
 14 21  2  0  0  0  0
 15 16  1  0  0  0  0
 15 17  2  0  0  0  0
 17 18  1  0  0  0  0
 17 19  1  0  0  0  0
 19 20  1  0  0  0  0
 19 21  1  0  0  0  0
 21 22  1  0  0  0  0
 23 24  2  0  0  0  0
 23 25  1  0  0  0  0
 25 26  1  0  0  0  0
 25 27  1  0  0  0  0
 27 28  1  0  0  0  0
 27 29  1  0  0  0  0
 27 30  1  0  0  0  0
M  CHG  1  15   1
M  END
$$$$

  -OEChem-01062216083D

 30 30  0     1  0  0  0  0  0999 V2000
   -3.2707   -2.1447    1.4918 H   0  0  0  0  0  0  0  0  0  0  0  0
   -3.2328   -1.2767    0.8270 C   0  0  0  0  0  0  0  0  0  0  0  0
   -3.7679   -0.4499    1.3009 H   0  0  0  0  0  0  0  0  0  0  0  0
   -3.7285   -1.5327   -0.1123 H   0  0  0  0  0  0  0  0  0  0  0  0
   -1.7923   -0.8816    0.5670 C   0  0  0  0  0  0  0  0  0  0  0  0
   -0.8796   -1.5054    1.0834 O   0  0  0  0  0  0  0  0  0  0  0  0
   -1.4990    0.1834   -0.2630 N   0  0  0  0  0  0  0  0  0  0  0  0
   -2.2947    0.7479   -0.5566 H   0  0  0  0  0  0  0  0  0  0  0  0
   -0.1596    0.8024   -0.3394 C   0  0  1  0  0  0  0  0  0  0  0  0
    0.5818    0.1890    0.1829 H   0  0  0  0  0  0  0  0  0  0  0  0
    0.2830    0.9018   -1.8116 C   0  0  0  0  0  0  0  0  0  0  0  0
   -0.4553    1.4831   -2.3748 H   0  0  0  0  0  0  0  0  0  0  0  0
    1.2355    1.4392   -1.8817 H   0  0  0  0  0  0  0  0  0  0  0  0
    0.4381   -0.4737   -2.4147 C   0  0  0  0  0  0  0  0  0  0  0  0
    1.4861   -1.3648   -2.1763 N   0  3  0  0  0  0  0  0  0  0  0  0
    2.2368   -1.1774   -1.5062 H   0  0  0  0  0  0  0  0  0  0  0  0
    1.3232   -2.4580   -2.8810 C   0  0  0  0  0  0  0  0  0  0  0  0
    1.9758   -3.3333   -2.8783 H   0  0  0  0  0  0  0  0  0  0  0  0
    0.1597   -2.2962   -3.6299 N   0  0  0  0  0  0  0  0  0  0  0  0
   -0.2271   -2.9803   -4.2871 H   0  0  0  0  0  0  0  0  0  0  0  0
   -0.3899   -1.0519   -3.3437 C   0  0  0  0  0  0  0  0  0  0  0  0
   -1.2929   -0.6126   -3.7675 H   0  0  0  0  0  0  0  0  0  0  0  0
   -0.1371    2.1618    0.3884 C   0  0  0  0  0  0  0  0  0  0  0  0
    0.1142    3.1865   -0.2281 O   0  0  0  0  0  0  0  0  0  0  0  0
   -0.4349    2.2258    1.7366 N   0  0  0  0  0  0  0  0  0  0  0  0
   -0.5999    1.3489    2.2265 H   0  0  0  0  0  0  0  0  0  0  0  0
   -0.4250    3.4697    2.5019 C   0  0  0  0  0  0  0  0  0  0  0  0
   -1.1380    4.1868    2.0805 H   0  0  0  0  0  0  0  0  0  0  0  0
   -0.7046    3.2785    3.5428 H   0  0  0  0  0  0  0  0  0  0  0  0
    0.5732    3.9205    2.4902 H   0  0  0  0  0  0  0  0  0  0  0  0
  1  2  1  0  0  0  0
  2  3  1  0  0  0  0
  2  4  1  0  0  0  0
  2  5  1  0  0  0  0
  5  6  2  0  0  0  0
  5  7  1  0  0  0  0
  7  8  1  0  0  0  0
  7  9  1  0  0  0  0
  9 10  1  0  0  0  0
  9 11  1  0  0  0  0
  9 23  1  0  0  0  0
 11 12  1  0  0  0  0
 11 13  1  0  0  0  0
 11 14  1  0  0  0  0
 14 15  1  0  0  0  0
 14 21  2  0  0  0  0
 15 16  1  0  0  0  0
 15 17  2  0  0  0  0
 17 18  1  0  0  0  0
 17 19  1  0  0  0  0
 19 20  1  0  0  0  0
 19 21  1  0  0  0  0
 21 22  1  0  0  0  0
 23 24  2  0  0  0  0
 23 25  1  0  0  0  0
 25 26  1  0  0  0  0
 25 27  1  0  0  0  0
 27 28  1  0  0  0  0
 27 29  1  0  0  0  0
 27 30  1  0  0  0  0
M  CHG  1  15   1
M  END
$$$$

  -OEChem-01062216083D

 30 30  0     1  0  0  0  0  0999 V2000
   -3.2597   -2.1129    1.5237 H   0  0  0  0  0  0  0  0  0  0  0  0
   -3.2155   -1.2486    0.8545 C   0  0  0  0  0  0  0  0  0  0  0  0
   -3.7352   -0.4125    1.3292 H   0  0  0  0  0  0  0  0  0  0  0  0
   -3.7235   -1.5014   -0.0792 H   0  0  0  0  0  0  0  0  0  0  0  0
   -1.7716   -0.8751    0.5802 C   0  0  0  0  0  0  0  0  0  0  0  0
   -0.8627   -1.5119    1.0881 O   0  0  0  0  0  0  0  0  0  0  0  0
   -1.4703    0.1819   -0.2570 N   0  0  0  0  0  0  0  0  0  0  0  0
   -2.2594    0.7618   -0.5390 H   0  0  0  0  0  0  0  0  0  0  0  0
   -0.1254    0.7854   -0.3333 C   0  0  1  0  0  0  0  0  0  0  0  0
    0.6139    0.1655    0.1842 H   0  0  0  0  0  0  0  0  0  0  0  0
    0.3131    0.8902   -1.8058 C   0  0  0  0  0  0  0  0  0  0  0  0
   -0.4220    1.4822   -2.3627 H   0  0  0  0  0  0  0  0  0  0  0  0
    1.2693    1.4213   -1.8737 H   0  0  0  0  0  0  0  0  0  0  0  0
    0.4506   -0.4821   -2.4212 C   0  0  0  0  0  0  0  0  0  0  0  0
    1.4872   -1.3903   -2.1970 N   0  3  0  0  0  0  0  0  0  0  0  0
    2.2420   -1.2217   -1.5268 H   0  0  0  0  0  0  0  0  0  0  0  0
    1.3054   -2.4743   -2.9116 C   0  0  0  0  0  0  0  0  0  0  0  0
    1.9451   -3.3592   -2.9202 H   0  0  0  0  0  0  0  0  0  0  0  0
    0.1416   -2.2880   -3.6542 N   0  0  0  0  0  0  0  0  0  0  0  0
   -0.2573   -2.9594   -4.3175 H   0  0  0  0  0  0  0  0  0  0  0  0
   -0.3894   -1.0395   -3.3521 C   0  0  0  0  0  0  0  0  0  0  0  0
   -1.2884   -0.5836   -3.7665 H   0  0  0  0  0  0  0  0  0  0  0  0
   -0.1018    2.1462    0.3892 C   0  0  0  0  0  0  0  0  0  0  0  0
   -0.1096    3.1827   -0.2582 O   0  0  0  0  0  0  0  0  0  0  0  0
   -0.0982    2.1950    1.7704 N   0  0  0  0  0  0  0  0  0  0  0  0
   -0.1284    1.3126    2.2776 H   0  0  0  0  0  0  0  0  0  0  0  0
   -0.1183    3.4442    2.5269 C   0  0  0  0  0  0  0  0  0  0  0  0
   -1.0235    4.0173    2.2988 H   0  0  0  0  0  0  0  0  0  0  0  0
   -0.1025    3.2390    3.6020 H   0  0  0  0  0  0  0  0  0  0  0  0
    0.7555    4.0576    2.2809 H   0  0  0  0  0  0  0  0  0  0  0  0
  1  2  1  0  0  0  0
  2  3  1  0  0  0  0
  2  4  1  0  0  0  0
  2  5  1  0  0  0  0
  5  6  2  0  0  0  0
  5  7  1  0  0  0  0
  7  8  1  0  0  0  0
  7  9  1  0  0  0  0
  9 10  1  0  0  0  0
  9 11  1  0  0  0  0
  9 23  1  0  0  0  0
 11 12  1  0  0  0  0
 11 13  1  0  0  0  0
 11 14  1  0  0  0  0
 14 15  1  0  0  0  0
 14 21  2  0  0  0  0
 15 16  1  0  0  0  0
 15 17  2  0  0  0  0
 17 18  1  0  0  0  0
 17 19  1  0  0  0  0
 19 20  1  0  0  0  0
 19 21  1  0  0  0  0
 21 22  1  0  0  0  0
 23 24  2  0  0  0  0
 23 25  1  0  0  0  0
 25 26  1  0  0  0  0
 25 27  1  0  0  0  0
 27 28  1  0  0  0  0
 27 29  1  0  0  0  0
 27 30  1  0  0  0  0
M  CHG  1  15   1
M  END
$$$$

  -OEChem-01062216083D

 30 30  0     1  0  0  0  0  0999 V2000
   -3.2529   -2.0787    1.5525 H   0  0  0  0  0  0  0  0  0  0  0  0
   -3.2021   -1.2159    0.8819 C   0  0  0  0  0  0  0  0  0  0  0  0
   -3.6914   -0.3673    1.3666 H   0  0  0  0  0  0  0  0  0  0  0  0
   -3.7346   -1.4569   -0.0410 H   0  0  0  0  0  0  0  0  0  0  0  0
   -1.7560   -0.8766    0.5770 C   0  0  0  0  0  0  0  0  0  0  0  0
   -0.8511   -1.5396    1.0592 O   0  0  0  0  0  0  0  0  0  0  0  0
   -1.4484    0.1740   -0.2660 N   0  0  0  0  0  0  0  0  0  0  0  0
   -2.2311    0.7743   -0.5236 H   0  0  0  0  0  0  0  0  0  0  0  0
   -0.1000    0.7679   -0.3365 C   0  0  1  0  0  0  0  0  0  0  0  0
    0.6355    0.1423    0.1797 H   0  0  0  0  0  0  0  0  0  0  0  0
    0.3385    0.8815   -1.8074 C   0  0  0  0  0  0  0  0  0  0  0  0
   -0.3944    1.4806   -2.3596 H   0  0  0  0  0  0  0  0  0  0  0  0
    1.2970    1.4082   -1.8719 H   0  0  0  0  0  0  0  0  0  0  0  0
    0.4652   -0.4873   -2.4328 C   0  0  0  0  0  0  0  0  0  0  0  0
    1.4938   -1.4065   -2.2176 N   0  3  0  0  0  0  0  0  0  0  0  0
    2.2519   -1.2501   -1.5485 H   0  0  0  0  0  0  0  0  0  0  0  0
    1.2965   -2.4861   -2.9346 C   0  0  0  0  0  0  0  0  0  0  0  0
    1.9257   -3.3781   -2.9487 H   0  0  0  0  0  0  0  0  0  0  0  0
    0.1303   -2.2856   -3.6696 N   0  0  0  0  0  0  0  0  0  0  0  0
   -0.2837   -2.9537   -4.3271 H   0  0  0  0  0  0  0  0  0  0  0  0
   -0.3865   -1.0331   -3.3599 C   0  0  0  0  0  0  0  0  0  0  0  0
   -1.2859   -0.5680   -3.7637 H   0  0  0  0  0  0  0  0  0  0  0  0
   -0.0780    2.1310    0.3795 C   0  0  0  0  0  0  0  0  0  0  0  0
   -0.3460    3.1449   -0.2482 O   0  0  0  0  0  0  0  0  0  0  0  0
    0.2231    2.2098    1.7259 N   0  0  0  0  0  0  0  0  0  0  0  0
    0.3506    1.3383    2.2363 H   0  0  0  0  0  0  0  0  0  0  0  0
    0.1956    3.4625    2.4763 C   0  0  0  0  0  0  0  0  0  0  0  0
   -0.8125    3.8909    2.4729 H   0  0  0  0  0  0  0  0  0  0  0  0
    0.4946    3.2911    3.5153 H   0  0  0  0  0  0  0  0  0  0  0  0
    0.8864    4.1902    2.0367 H   0  0  0  0  0  0  0  0  0  0  0  0
  1  2  1  0  0  0  0
  2  3  1  0  0  0  0
  2  4  1  0  0  0  0
  2  5  1  0  0  0  0
  5  6  2  0  0  0  0
  5  7  1  0  0  0  0
  7  8  1  0  0  0  0
  7  9  1  0  0  0  0
  9 10  1  0  0  0  0
  9 11  1  0  0  0  0
  9 23  1  0  0  0  0
 11 12  1  0  0  0  0
 11 13  1  0  0  0  0
 11 14  1  0  0  0  0
 14 15  1  0  0  0  0
 14 21  2  0  0  0  0
 15 16  1  0  0  0  0
 15 17  2  0  0  0  0
 17 18  1  0  0  0  0
 17 19  1  0  0  0  0
 19 20  1  0  0  0  0
 19 21  1  0  0  0  0
 21 22  1  0  0  0  0
 23 24  2  0  0  0  0
 23 25  1  0  0  0  0
 25 26  1  0  0  0  0
 25 27  1  0  0  0  0
 27 28  1  0  0  0  0
 27 29  1  0  0  0  0
 27 30  1  0  0  0  0
M  CHG  1  15   1
M  END
$$$$

  -OEChem-01062216083D

 30 30  0     1  0  0  0  0  0999 V2000
   -3.2459   -2.0415    1.5819 H   0  0  0  0  0  0  0  0  0  0  0  0
   -3.1913   -1.1834    0.9057 C   0  0  0  0  0  0  0  0  0  0  0  0
   -3.6509   -0.3219    1.3967 H   0  0  0  0  0  0  0  0  0  0  0  0
   -3.7502   -1.4165   -0.0036 H   0  0  0  0  0  0  0  0  0  0  0  0
   -1.7452   -0.8781    0.5663 C   0  0  0  0  0  0  0  0  0  0  0  0
   -0.8451   -1.5716    1.0139 O   0  0  0  0  0  0  0  0  0  0  0  0
   -1.4330    0.1670   -0.2814 N   0  0  0  0  0  0  0  0  0  0  0  0
   -2.2081    0.7909   -0.5062 H   0  0  0  0  0  0  0  0  0  0  0  0
   -0.0813    0.7529   -0.3460 C   0  0  1  0  0  0  0  0  0  0  0  0
    0.6482    0.1222    0.1718 H   0  0  0  0  0  0  0  0  0  0  0  0
    0.3599    0.8738   -1.8142 C   0  0  0  0  0  0  0  0  0  0  0  0
   -0.3699    1.4792   -2.3641 H   0  0  0  0  0  0  0  0  0  0  0  0
    1.3216    1.3948   -1.8756 H   0  0  0  0  0  0  0  0  0  0  0  0
    0.4778   -0.4932   -2.4444 C   0  0  0  0  0  0  0  0  0  0  0  0
    1.4982   -1.4227   -2.2332 N   0  3  0  0  0  0  0  0  0  0  0  0
    2.2584   -1.2760   -1.5644 H   0  0  0  0  0  0  0  0  0  0  0  0
    1.2874   -2.4999   -2.9500 C   0  0  0  0  0  0  0  0  0  0  0  0
    1.9068   -3.3987   -2.9656 H   0  0  0  0  0  0  0  0  0  0  0  0
    0.1208   -2.2870   -3.6813 N   0  0  0  0  0  0  0  0  0  0  0  0
   -0.3041   -2.9513   -4.3355 H   0  0  0  0  0  0  0  0  0  0  0  0
   -0.3826   -1.0300   -3.3685 C   0  0  0  0  0  0  0  0  0  0  0  0
   -1.2805   -0.5564   -3.7658 H   0  0  0  0  0  0  0  0  0  0  0  0
   -0.0603    2.1182    0.3639 C   0  0  0  0  0  0  0  0  0  0  0  0
   -0.5766    3.0775   -0.1904 O   0  0  0  0  0  0  0  0  0  0  0  0
    0.5176    2.2654    1.6110 N   0  0  0  0  0  0  0  0  0  0  0  0
    0.8220    1.4242    2.0960 H   0  0  0  0  0  0  0  0  0  0  0  0
    0.4916    3.5243    2.3515 C   0  0  0  0  0  0  0  0  0  0  0  0
   -0.5394    3.8127    2.5835 H   0  0  0  0  0  0  0  0  0  0  0  0
    1.0426    3.4248    3.2921 H   0  0  0  0  0  0  0  0  0  0  0  0
    0.9554    4.3258    1.7660 H   0  0  0  0  0  0  0  0  0  0  0  0
  1  2  1  0  0  0  0
  2  3  1  0  0  0  0
  2  4  1  0  0  0  0
  2  5  1  0  0  0  0
  5  6  2  0  0  0  0
  5  7  1  0  0  0  0
  7  8  1  0  0  0  0
  7  9  1  0  0  0  0
  9 10  1  0  0  0  0
  9 11  1  0  0  0  0
  9 23  1  0  0  0  0
 11 12  1  0  0  0  0
 11 13  1  0  0  0  0
 11 14  1  0  0  0  0
 14 15  1  0  0  0  0
 14 21  2  0  0  0  0
 15 16  1  0  0  0  0
 15 17  2  0  0  0  0
 17 18  1  0  0  0  0
 17 19  1  0  0  0  0
 19 20  1  0  0  0  0
 19 21  1  0  0  0  0
 21 22  1  0  0  0  0
 23 24  2  0  0  0  0
 23 25  1  0  0  0  0
 25 26  1  0  0  0  0
 25 27  1  0  0  0  0
 27 28  1  0  0  0  0
 27 29  1  0  0  0  0
 27 30  1  0  0  0  0
M  CHG  1  15   1
M  END
$$$$

  -OEChem-01062216083D

 30 30  0     1  0  0  0  0  0999 V2000
   -3.2346   -2.0009    1.6125 H   0  0  0  0  0  0  0  0  0  0  0  0
   -3.1764   -1.1491    0.9288 C   0  0  0  0  0  0  0  0  0  0  0  0
   -3.6063   -0.2743    1.4232 H   0  0  0  0  0  0  0  0  0  0  0  0
   -3.7596   -1.3762    0.0333 H   0  0  0  0  0  0  0  0  0  0  0  0
   -1.7321   -0.8771    0.5559 C   0  0  0  0  0  0  0  0  0  0  0  0
   -0.8385   -1.5959    0.9767 O   0  0  0  0  0  0  0  0  0  0  0  0
   -1.4151    0.1596   -0.3002 N   0  0  0  0  0  0  0  0  0  0  0  0
   -2.1814    0.8055   -0.4930 H   0  0  0  0  0  0  0  0  0  0  0  0
   -0.0607    0.7392   -0.3567 C   0  0  1  0  0  0  0  0  0  0  0  0
    0.6638    0.1083    0.1676 H   0  0  0  0  0  0  0  0  0  0  0  0
    0.3810    0.8631   -1.8235 C   0  0  0  0  0  0  0  0  0  0  0  0
   -0.3463    1.4744   -2.3702 H   0  0  0  0  0  0  0  0  0  0  0  0
    1.3455    1.3786   -1.8841 H   0  0  0  0  0  0  0  0  0  0  0  0
    0.4909   -0.5035   -2.4575 C   0  0  0  0  0  0  0  0  0  0  0  0
    1.5027   -1.4440   -2.2531 N   0  3  0  0  0  0  0  0  0  0  0  0
    2.2645   -1.3090   -1.5840 H   0  0  0  0  0  0  0  0  0  0  0  0
    1.2756   -2.5190   -2.9685 C   0  0  0  0  0  0  0  0  0  0  0  0
    1.8827   -3.4263   -2.9857 H   0  0  0  0  0  0  0  0  0  0  0  0
    0.1085   -2.2928   -3.6946 N   0  0  0  0  0  0  0  0  0  0  0  0
   -0.3291   -2.9538   -4.3439 H   0  0  0  0  0  0  0  0  0  0  0  0
   -0.3795   -1.0308   -3.3780 C   0  0  0  0  0  0  0  0  0  0  0  0
   -1.2763   -0.5490   -3.7677 H   0  0  0  0  0  0  0  0  0  0  0  0
   -0.0501    2.1098    0.3436 C   0  0  0  0  0  0  0  0  0  0  0  0
   -0.7753    2.9904   -0.0964 O   0  0  0  0  0  0  0  0  0  0  0  0
    0.7590    2.3594    1.4366 N   0  0  0  0  0  0  0  0  0  0  0  0
    1.2421    1.5712    1.8607 H   0  0  0  0  0  0  0  0  0  0  0  0
    0.7331    3.6274    2.1622 C   0  0  0  0  0  0  0  0  0  0  0  0
   -0.2570    3.8013    2.5979 H   0  0  0  0  0  0  0  0  0  0  0  0
    1.4701    3.6190    2.9715 H   0  0  0  0  0  0  0  0  0  0  0  0
    0.9708    4.4604    1.4914 H   0  0  0  0  0  0  0  0  0  0  0  0
  1  2  1  0  0  0  0
  2  3  1  0  0  0  0
  2  4  1  0  0  0  0
  2  5  1  0  0  0  0
  5  6  2  0  0  0  0
  5  7  1  0  0  0  0
  7  8  1  0  0  0  0
  7  9  1  0  0  0  0
  9 10  1  0  0  0  0
  9 11  1  0  0  0  0
  9 23  1  0  0  0  0
 11 12  1  0  0  0  0
 11 13  1  0  0  0  0
 11 14  1  0  0  0  0
 14 15  1  0  0  0  0
 14 21  2  0  0  0  0
 15 16  1  0  0  0  0
 15 17  2  0  0  0  0
 17 18  1  0  0  0  0
 17 19  1  0  0  0  0
 19 20  1  0  0  0  0
 19 21  1  0  0  0  0
 21 22  1  0  0  0  0
 23 24  2  0  0  0  0
 23 25  1  0  0  0  0
 25 26  1  0  0  0  0
 25 27  1  0  0  0  0
 27 28  1  0  0  0  0
 27 29  1  0  0  0  0
 27 30  1  0  0  0  0
M  CHG  1  15   1
M  END
$$$$

  -OEChem-01062216083D

 30 30  0     1  0  0  0  0  0999 V2000
   -3.2229   -1.9688    1.6355 H   0  0  0  0  0  0  0  0  0  0  0  0
   -3.1680   -1.1194    0.9486 C   0  0  0  0  0  0  0  0  0  0  0  0
   -3.5637   -0.2350    1.4546 H   0  0  0  0  0  0  0  0  0  0  0  0
   -3.7835   -1.3348    0.0720 H   0  0  0  0  0  0  0  0  0  0  0  0
   -1.7308   -0.8782    0.5303 C   0  0  0  0  0  0  0  0  0  0  0  0
   -0.8409   -1.6238    0.9112 O   0  0  0  0  0  0  0  0  0  0  0  0
   -1.4178    0.1567   -0.3291 N   0  0  0  0  0  0  0  0  0  0  0  0
   -2.1783    0.8214   -0.4797 H   0  0  0  0  0  0  0  0  0  0  0  0
   -0.0637    0.7381   -0.3774 C   0  0  1  0  0  0  0  0  0  0  0  0
    0.6565    0.1094    0.1558 H   0  0  0  0  0  0  0  0  0  0  0  0
    0.3846    0.8610   -1.8406 C   0  0  0  0  0  0  0  0  0  0  0  0
   -0.3420    1.4706   -2.3901 H   0  0  0  0  0  0  0  0  0  0  0  0
    1.3495    1.3761   -1.8987 H   0  0  0  0  0  0  0  0  0  0  0  0
    0.4972   -0.5092   -2.4679 C   0  0  0  0  0  0  0  0  0  0  0  0
    1.5069   -1.4505   -2.2555 N   0  3  0  0  0  0  0  0  0  0  0  0
    2.2627   -1.3170   -1.5793 H   0  0  0  0  0  0  0  0  0  0  0  0
    1.2771   -2.5308   -2.9621 C   0  0  0  0  0  0  0  0  0  0  0  0
    1.8783   -3.4421   -2.9673 H   0  0  0  0  0  0  0  0  0  0  0  0
    0.1142   -2.3057   -3.6946 N   0  0  0  0  0  0  0  0  0  0  0  0
   -0.3241   -2.9706   -4.3391 H   0  0  0  0  0  0  0  0  0  0  0  0
   -0.3723   -1.0411   -3.3870 C   0  0  0  0  0  0  0  0  0  0  0  0
   -1.2692   -0.5620   -3.7799 H   0  0  0  0  0  0  0  0  0  0  0  0
   -0.0590    2.1114    0.3190 C   0  0  0  0  0  0  0  0  0  0  0  0
   -0.9472    2.9043    0.0383 O   0  0  0  0  0  0  0  0  0  0  0  0
    0.9380    2.4728    1.2063 N   0  0  0  0  0  0  0  0  0  0  0  0
    1.5886    1.7541    1.5121 H   0  0  0  0  0  0  0  0  0  0  0  0
    0.9328    3.7490    1.9177 C   0  0  0  0  0  0  0  0  0  0  0  0
    0.0460    3.8299    2.5557 H   0  0  0  0  0  0  0  0  0  0  0  0
    1.8219    3.8369    2.5500 H   0  0  0  0  0  0  0  0  0  0  0  0
    0.9320    4.5851    1.2097 H   0  0  0  0  0  0  0  0  0  0  0  0
  1  2  1  0  0  0  0
  2  3  1  0  0  0  0
  2  4  1  0  0  0  0
  2  5  1  0  0  0  0
  5  6  2  0  0  0  0
  5  7  1  0  0  0  0
  7  8  1  0  0  0  0
  7  9  1  0  0  0  0
  9 10  1  0  0  0  0
  9 11  1  0  0  0  0
  9 23  1  0  0  0  0
 11 12  1  0  0  0  0
 11 13  1  0  0  0  0
 11 14  1  0  0  0  0
 14 15  1  0  0  0  0
 14 21  2  0  0  0  0
 15 16  1  0  0  0  0
 15 17  2  0  0  0  0
 17 18  1  0  0  0  0
 17 19  1  0  0  0  0
 19 20  1  0  0  0  0
 19 21  1  0  0  0  0
 21 22  1  0  0  0  0
 23 24  2  0  0  0  0
 23 25  1  0  0  0  0
 25 26  1  0  0  0  0
 25 27  1  0  0  0  0
 27 28  1  0  0  0  0
 27 29  1  0  0  0  0
 27 30  1  0  0  0  0
M  CHG  1  15   1
M  END
$$$$

  -OEChem-01062216083D

 30 30  0     1  0  0  0  0  0999 V2000
   -3.2161   -1.9581    1.6335 H   0  0  0  0  0  0  0  0  0  0  0  0
   -3.1643   -1.1025    0.9542 C   0  0  0  0  0  0  0  0  0  0  0  0
   -3.5294   -0.2162    1.4795 H   0  0  0  0  0  0  0  0  0  0  0  0
   -3.8072   -1.2972    0.0927 H   0  0  0  0  0  0  0  0  0  0  0  0
   -1.7348   -0.8817    0.5002 C   0  0  0  0  0  0  0  0  0  0  0  0
   -0.8475   -1.6470    0.8477 O   0  0  0  0  0  0  0  0  0  0  0  0
   -1.4278    0.1557   -0.3580 N   0  0  0  0  0  0  0  0  0  0  0  0
   -2.1859    0.8307   -0.4739 H   0  0  0  0  0  0  0  0  0  0  0  0
   -0.0752    0.7435   -0.3958 C   0  0  1  0  0  0  0  0  0  0  0  0
    0.6416    0.1178    0.1458 H   0  0  0  0  0  0  0  0  0  0  0  0
    0.3795    0.8626   -1.8570 C   0  0  0  0  0  0  0  0  0  0  0  0
   -0.3478    1.4659   -2.4127 H   0  0  0  0  0  0  0  0  0  0  0  0
    1.3426    1.3807   -1.9143 H   0  0  0  0  0  0  0  0  0  0  0  0
    0.4999   -0.5115   -2.4748 C   0  0  0  0  0  0  0  0  0  0  0  0
    1.5114   -1.4484   -2.2522 N   0  3  0  0  0  0  0  0  0  0  0  0
    2.2635   -1.3091   -1.5735 H   0  0  0  0  0  0  0  0  0  0  0  0
    1.2834   -2.5370   -2.9463 C   0  0  0  0  0  0  0  0  0  0  0  0
    1.8858   -3.4474   -2.9399 H   0  0  0  0  0  0  0  0  0  0  0  0
    0.1202   -2.3223   -3.6814 N   0  0  0  0  0  0  0  0  0  0  0  0
   -0.3199   -2.9972   -4.3144 H   0  0  0  0  0  0  0  0  0  0  0  0
   -0.3685   -1.0551   -3.3879 C   0  0  0  0  0  0  0  0  0  0  0  0
   -1.2683   -0.5835   -3.7833 H   0  0  0  0  0  0  0  0  0  0  0  0
   -0.0739    2.1180    0.3013 C   0  0  0  0  0  0  0  0  0  0  0  0
   -1.0750    2.8161    0.2136 O   0  0  0  0  0  0  0  0  0  0  0  0
    1.0500    2.6033    0.9452 N   0  0  0  0  0  0  0  0  0  0  0  0
    1.8289    1.9683    1.0956 H   0  0  0  0  0  0  0  0  0  0  0  0
    1.0673    3.8939    1.6307 C   0  0  0  0  0  0  0  0  0  0  0  0
    0.3333    3.9081    2.4440 H   0  0  0  0  0  0  0  0  0  0  0  0
    2.0570    4.0870    2.0564 H   0  0  0  0  0  0  0  0  0  0  0  0
    0.8306    4.7044    0.9324 H   0  0  0  0  0  0  0  0  0  0  0  0
  1  2  1  0  0  0  0
  2  3  1  0  0  0  0
  2  4  1  0  0  0  0
  2  5  1  0  0  0  0
  5  6  2  0  0  0  0
  5  7  1  0  0  0  0
  7  8  1  0  0  0  0
  7  9  1  0  0  0  0
  9 10  1  0  0  0  0
  9 11  1  0  0  0  0
  9 23  1  0  0  0  0
 11 12  1  0  0  0  0
 11 13  1  0  0  0  0
 11 14  1  0  0  0  0
 14 15  1  0  0  0  0
 14 21  2  0  0  0  0
 15 16  1  0  0  0  0
 15 17  2  0  0  0  0
 17 18  1  0  0  0  0
 17 19  1  0  0  0  0
 19 20  1  0  0  0  0
 19 21  1  0  0  0  0
 21 22  1  0  0  0  0
 23 24  2  0  0  0  0
 23 25  1  0  0  0  0
 25 26  1  0  0  0  0
 25 27  1  0  0  0  0
 27 28  1  0  0  0  0
 27 29  1  0  0  0  0
 27 30  1  0  0  0  0
M  CHG  1  15   1
M  END
$$$$

  -OEChem-01062216083D

 30 30  0     1  0  0  0  0  0999 V2000
   -3.1959   -1.9540    1.6267 H   0  0  0  0  0  0  0  0  0  0  0  0
   -3.1535   -1.0894    0.9581 C   0  0  0  0  0  0  0  0  0  0  0  0
   -3.4878   -0.2055    1.5073 H   0  0  0  0  0  0  0  0  0  0  0  0
   -3.8269   -1.2618    0.1155 H   0  0  0  0  0  0  0  0  0  0  0  0
   -1.7363   -0.8827    0.4609 C   0  0  0  0  0  0  0  0  0  0  0  0
   -0.8502   -1.6690    0.7628 O   0  0  0  0  0  0  0  0  0  0  0  0
   -1.4417    0.1614   -0.3933 N   0  0  0  0  0  0  0  0  0  0  0  0
   -2.1980    0.8450   -0.4641 H   0  0  0  0  0  0  0  0  0  0  0  0
   -0.0915    0.7567   -0.4195 C   0  0  1  0  0  0  0  0  0  0  0  0
    0.6232    0.1353    0.1296 H   0  0  0  0  0  0  0  0  0  0  0  0
    0.3712    0.8678   -1.8791 C   0  0  0  0  0  0  0  0  0  0  0  0
   -0.3562    1.4615   -2.4442 H   0  0  0  0  0  0  0  0  0  0  0  0
    1.3322    1.3892   -1.9378 H   0  0  0  0  0  0  0  0  0  0  0  0
    0.5005   -0.5129   -2.4812 C   0  0  0  0  0  0  0  0  0  0  0  0
    1.5137   -1.4448   -2.2435 N   0  3  0  0  0  0  0  0  0  0  0  0
    2.2586   -1.2990   -1.5582 H   0  0  0  0  0  0  0  0  0  0  0  0
    1.2879   -2.5446   -2.9205 C   0  0  0  0  0  0  0  0  0  0  0  0
    1.8885   -3.4559   -2.8951 H   0  0  0  0  0  0  0  0  0  0  0  0
    0.1271   -2.3419   -3.6625 N   0  0  0  0  0  0  0  0  0  0  0  0
   -0.3132   -3.0284   -4.2824 H   0  0  0  0  0  0  0  0  0  0  0  0
   -0.3650   -1.0719   -3.3877 C   0  0  0  0  0  0  0  0  0  0  0  0
   -1.2672   -0.6096   -3.7882 H   0  0  0  0  0  0  0  0  0  0  0  0
   -0.0939    2.1296    0.2849 C   0  0  0  0  0  0  0  0  0  0  0  0
   -1.1562    2.7237    0.4148 O   0  0  0  0  0  0  0  0  0  0  0  0
    1.0845    2.7466    0.6652 N   0  0  0  0  0  0  0  0  0  0  0  0
    1.9434    2.2052    0.6330 H   0  0  0  0  0  0  0  0  0  0  0  0
    1.1119    4.0481    1.3290 C   0  0  0  0  0  0  0  0  0  0  0  0
    0.5531    4.0122    2.2707 H   0  0  0  0  0  0  0  0  0  0  0  0
    2.1427    4.3418    1.5509 H   0  0  0  0  0  0  0  0  0  0  0  0
    0.6665    4.8169    0.6879 H   0  0  0  0  0  0  0  0  0  0  0  0
  1  2  1  0  0  0  0
  2  3  1  0  0  0  0
  2  4  1  0  0  0  0
  2  5  1  0  0  0  0
  5  6  2  0  0  0  0
  5  7  1  0  0  0  0
  7  8  1  0  0  0  0
  7  9  1  0  0  0  0
  9 10  1  0  0  0  0
  9 11  1  0  0  0  0
  9 23  1  0  0  0  0
 11 12  1  0  0  0  0
 11 13  1  0  0  0  0
 11 14  1  0  0  0  0
 14 15  1  0  0  0  0
 14 21  2  0  0  0  0
 15 16  1  0  0  0  0
 15 17  2  0  0  0  0
 17 18  1  0  0  0  0
 17 19  1  0  0  0  0
 19 20  1  0  0  0  0
 19 21  1  0  0  0  0
 21 22  1  0  0  0  0
 23 24  2  0  0  0  0
 23 25  1  0  0  0  0
 25 26  1  0  0  0  0
 25 27  1  0  0  0  0
 27 28  1  0  0  0  0
 27 29  1  0  0  0  0
 27 30  1  0  0  0  0
M  CHG  1  15   1
M  END
$$$$

  -OEChem-01062216083D

 30 30  0     1  0  0  0  0  0999 V2000
   -3.1253   -1.9482    1.6794 H   0  0  0  0  0  0  0  0  0  0  0  0
   -3.1139   -1.0786    1.0162 C   0  0  0  0  0  0  0  0  0  0  0  0
   -3.4027   -0.1957    1.5926 H   0  0  0  0  0  0  0  0  0  0  0  0
   -3.8394   -1.2364    0.2149 H   0  0  0  0  0  0  0  0  0  0  0  0
   -1.7271   -0.8827    0.4360 C   0  0  0  0  0  0  0  0  0  0  0  0
   -0.8312   -1.6748    0.6864 O   0  0  0  0  0  0  0  0  0  0  0  0
   -1.4735    0.1683   -0.4248 N   0  0  0  0  0  0  0  0  0  0  0  0
   -2.2354    0.8464   -0.4266 H   0  0  0  0  0  0  0  0  0  0  0  0
   -0.1270    0.7750   -0.4560 C   0  0  1  0  0  0  0  0  0  0  0  0
    0.6352    0.0476   -0.1572 H   0  0  0  0  0  0  0  0  0  0  0  0
    0.1722    1.2246   -1.8951 C   0  0  0  0  0  0  0  0  0  0  0  0
   -0.6061    1.9219   -2.2252 H   0  0  0  0  0  0  0  0  0  0  0  0
    1.1267    1.7587   -1.9410 H   0  0  0  0  0  0  0  0  0  0  0  0
    0.2222    0.0237   -2.8122 C   0  0  0  0  0  0  0  0  0  0  0  0
    1.2490   -0.9191   -2.9091 N   0  3  0  0  0  0  0  0  0  0  0  0
    2.0697   -0.9193   -2.2985 H   0  0  0  0  0  0  0  0  0  0  0  0
    0.9464   -1.8308   -3.8016 C   0  0  0  0  0  0  0  0  0  0  0  0
    1.5433   -2.7075   -4.0605 H   0  0  0  0  0  0  0  0  0  0  0  0
   -0.2873   -1.4826   -4.3461 N   0  0  0  0  0  0  0  0  0  0  0  0
   -0.7948   -2.0097   -5.0636 H   0  0  0  0  0  0  0  0  0  0  0  0
   -0.7389   -0.3225   -3.7288 C   0  0  0  0  0  0  0  0  0  0  0  0
   -1.6746    0.2049   -3.9147 H   0  0  0  0  0  0  0  0  0  0  0  0
   -0.0236    1.9424    0.5538 C   0  0  0  0  0  0  0  0  0  0  0  0
   -1.0368    2.3330    1.1186 O   0  0  0  0  0  0  0  0  0  0  0  0
    1.1488    2.6629    0.7040 N   0  0  0  0  0  0  0  0  0  0  0  0
    2.0001    2.2820    0.3029 H   0  0  0  0  0  0  0  0  0  0  0  0
    1.2667    3.7890    1.6285 C   0  0  0  0  0  0  0  0  0  0  0  0
    1.0813    3.4626    2.6577 H   0  0  0  0  0  0  0  0  0  0  0  0
    2.2714    4.2203    1.5791 H   0  0  0  0  0  0  0  0  0  0  0  0
    0.5448    4.5733    1.3756 H   0  0  0  0  0  0  0  0  0  0  0  0
  1  2  1  0  0  0  0
  2  3  1  0  0  0  0
  2  4  1  0  0  0  0
  2  5  1  0  0  0  0
  5  6  2  0  0  0  0
  5  7  1  0  0  0  0
  7  8  1  0  0  0  0
  7  9  1  0  0  0  0
  9 10  1  0  0  0  0
  9 11  1  0  0  0  0
  9 23  1  0  0  0  0
 11 12  1  0  0  0  0
 11 13  1  0  0  0  0
 11 14  1  0  0  0  0
 14 15  1  0  0  0  0
 14 21  2  0  0  0  0
 15 16  1  0  0  0  0
 15 17  2  0  0  0  0
 17 18  1  0  0  0  0
 17 19  1  0  0  0  0
 19 20  1  0  0  0  0
 19 21  1  0  0  0  0
 21 22  1  0  0  0  0
 23 24  2  0  0  0  0
 23 25  1  0  0  0  0
 25 26  1  0  0  0  0
 25 27  1  0  0  0  0
 27 28  1  0  0  0  0
 27 29  1  0  0  0  0
 27 30  1  0  0  0  0
M  CHG  1  15   1
M  END
$$$$

  -OEChem-01062216083D

 30 30  0     1  0  0  0  0  0999 V2000
   -3.1008   -1.9495    1.6532 H   0  0  0  0  0  0  0  0  0  0  0  0
   -3.0959   -1.0583    1.0192 C   0  0  0  0  0  0  0  0  0  0  0  0
   -3.3405   -0.1895    1.6363 H   0  0  0  0  0  0  0  0  0  0  0  0
   -3.8565   -1.1726    0.2435 H   0  0  0  0  0  0  0  0  0  0  0  0
   -1.7290   -0.8726    0.3902 C   0  0  0  0  0  0  0  0  0  0  0  0
   -0.8407   -1.6901    0.5800 O   0  0  0  0  0  0  0  0  0  0  0  0
   -1.4886    0.1925   -0.4575 N   0  0  0  0  0  0  0  0  0  0  0  0
   -2.2510    0.8686   -0.4324 H   0  0  0  0  0  0  0  0  0  0  0  0
   -0.1426    0.8021   -0.4834 C   0  0  1  0  0  0  0  0  0  0  0  0
    0.6194    0.0749   -0.1831 H   0  0  0  0  0  0  0  0  0  0  0  0
    0.1618    1.2364   -1.9271 C   0  0  0  0  0  0  0  0  0  0  0  0
   -0.6163    1.9272   -2.2706 H   0  0  0  0  0  0  0  0  0  0  0  0
    1.1168    1.7683   -1.9808 H   0  0  0  0  0  0  0  0  0  0  0  0
    0.2171    0.0188   -2.8226 C   0  0  0  0  0  0  0  0  0  0  0  0
    1.2478   -0.9221   -2.8957 N   0  3  0  0  0  0  0  0  0  0  0  0
    2.0612   -0.9111   -2.2754 H   0  0  0  0  0  0  0  0  0  0  0  0
    0.9508   -1.8549   -3.7679 C   0  0  0  0  0  0  0  0  0  0  0  0
    1.5494   -2.7373   -4.0027 H   0  0  0  0  0  0  0  0  0  0  0  0
   -0.2807   -1.5216   -4.3260 N   0  0  0  0  0  0  0  0  0  0  0  0
   -0.7843   -2.0687   -5.0311 H   0  0  0  0  0  0  0  0  0  0  0  0
   -0.7393   -0.3505   -3.7352 C   0  0  0  0  0  0  0  0  0  0  0  0
   -1.6776    0.1672   -3.9344 H   0  0  0  0  0  0  0  0  0  0  0  0
   -0.0359    1.9557    0.5455 C   0  0  0  0  0  0  0  0  0  0  0  0
   -0.9653    2.1565    1.3157 O   0  0  0  0  0  0  0  0  0  0  0  0
    1.0023    2.8716    0.5072 N   0  0  0  0  0  0  0  0  0  0  0  0
    1.8022    2.6700   -0.0841 H   0  0  0  0  0  0  0  0  0  0  0  0
    1.0958    3.9985    1.4339 C   0  0  0  0  0  0  0  0  0  0  0  0
    1.1487    3.6429    2.4689 H   0  0  0  0  0  0  0  0  0  0  0  0
    1.9930    4.5902    1.2266 H   0  0  0  0  0  0  0  0  0  0  0  0
    0.2233    4.6534    1.3336 H   0  0  0  0  0  0  0  0  0  0  0  0
  1  2  1  0  0  0  0
  2  3  1  0  0  0  0
  2  4  1  0  0  0  0
  2  5  1  0  0  0  0
  5  6  2  0  0  0  0
  5  7  1  0  0  0  0
  7  8  1  0  0  0  0
  7  9  1  0  0  0  0
  9 10  1  0  0  0  0
  9 11  1  0  0  0  0
  9 23  1  0  0  0  0
 11 12  1  0  0  0  0
 11 13  1  0  0  0  0
 11 14  1  0  0  0  0
 14 15  1  0  0  0  0
 14 21  2  0  0  0  0
 15 16  1  0  0  0  0
 15 17  2  0  0  0  0
 17 18  1  0  0  0  0
 17 19  1  0  0  0  0
 19 20  1  0  0  0  0
 19 21  1  0  0  0  0
 21 22  1  0  0  0  0
 23 24  2  0  0  0  0
 23 25  1  0  0  0  0
 25 26  1  0  0  0  0
 25 27  1  0  0  0  0
 27 28  1  0  0  0  0
 27 29  1  0  0  0  0
 27 30  1  0  0  0  0
M  CHG  1  15   1
M  END
$$$$

  -OEChem-01062216083D

 30 30  0     1  0  0  0  0  0999 V2000
   -3.0777   -1.9528    1.6294 H   0  0  0  0  0  0  0  0  0  0  0  0
   -3.0810   -1.0440    1.0210 C   0  0  0  0  0  0  0  0  0  0  0  0
   -3.2940   -0.1904    1.6700 H   0  0  0  0  0  0  0  0  0  0  0  0
   -3.8669   -1.1268    0.2669 H   0  0  0  0  0  0  0  0  0  0  0  0
   -1.7320   -0.8574    0.3553 C   0  0  0  0  0  0  0  0  0  0  0  0
   -0.8493   -1.6916    0.4929 O   0  0  0  0  0  0  0  0  0  0  0  0
   -1.5075    0.2199   -0.4819 N   0  0  0  0  0  0  0  0  0  0  0  0
   -2.2738    0.8900   -0.4403 H   0  0  0  0  0  0  0  0  0  0  0  0
   -0.1627    0.8326   -0.5127 C   0  0  1  0  0  0  0  0  0  0  0  0
    0.5985    0.1056   -0.2095 H   0  0  0  0  0  0  0  0  0  0  0  0
    0.1507    1.2465   -1.9607 C   0  0  0  0  0  0  0  0  0  0  0  0
   -0.6256    1.9303   -2.3215 H   0  0  0  0  0  0  0  0  0  0  0  0
    1.1078    1.7736   -2.0177 H   0  0  0  0  0  0  0  0  0  0  0  0
    0.2129    0.0117   -2.8323 C   0  0  0  0  0  0  0  0  0  0  0  0
    1.2466   -0.9277   -2.8782 N   0  3  0  0  0  0  0  0  0  0  0  0
    2.0507   -0.9070   -2.2458 H   0  0  0  0  0  0  0  0  0  0  0  0
    0.9578   -1.8805   -3.7312 C   0  0  0  0  0  0  0  0  0  0  0  0
    1.5581   -2.7688   -3.9384 H   0  0  0  0  0  0  0  0  0  0  0  0
   -0.2687   -1.5609   -4.3079 N   0  0  0  0  0  0  0  0  0  0  0  0
   -0.7657   -2.1245   -5.0047 H   0  0  0  0  0  0  0  0  0  0  0  0
   -0.7347   -0.3785   -3.7456 C   0  0  0  0  0  0  0  0  0  0  0  0
   -1.6727    0.1321   -3.9635 H   0  0  0  0  0  0  0  0  0  0  0  0
   -0.0483    1.9732    0.5312 C   0  0  0  0  0  0  0  0  0  0  0  0
   -0.8169    1.9865    1.4823 O   0  0  0  0  0  0  0  0  0  0  0  0
    0.7837    3.0651    0.3447 N   0  0  0  0  0  0  0  0  0  0  0  0
    1.4381    3.0518   -0.4305 H   0  0  0  0  0  0  0  0  0  0  0  0
    0.8555    4.1769    1.2916 C   0  0  0  0  0  0  0  0  0  0  0  0
    1.1419    3.8181    2.2865 H   0  0  0  0  0  0  0  0  0  0  0  0
    1.5988    4.9105    0.9640 H   0  0  0  0  0  0  0  0  0  0  0  0
   -0.1144    4.6808    1.3678 H   0  0  0  0  0  0  0  0  0  0  0  0
  1  2  1  0  0  0  0
  2  3  1  0  0  0  0
  2  4  1  0  0  0  0
  2  5  1  0  0  0  0
  5  6  2  0  0  0  0
  5  7  1  0  0  0  0
  7  8  1  0  0  0  0
  7  9  1  0  0  0  0
  9 10  1  0  0  0  0
  9 11  1  0  0  0  0
  9 23  1  0  0  0  0
 11 12  1  0  0  0  0
 11 13  1  0  0  0  0
 11 14  1  0  0  0  0
 14 15  1  0  0  0  0
 14 21  2  0  0  0  0
 15 16  1  0  0  0  0
 15 17  2  0  0  0  0
 17 18  1  0  0  0  0
 17 19  1  0  0  0  0
 19 20  1  0  0  0  0
 19 21  1  0  0  0  0
 21 22  1  0  0  0  0
 23 24  2  0  0  0  0
 23 25  1  0  0  0  0
 25 26  1  0  0  0  0
 25 27  1  0  0  0  0
 27 28  1  0  0  0  0
 27 29  1  0  0  0  0
 27 30  1  0  0  0  0
M  CHG  1  15   1
M  END
$$$$

  -OEChem-01062216083D

 30 30  0     1  0  0  0  0  0999 V2000
   -3.0646   -1.9563    1.6184 H   0  0  0  0  0  0  0  0  0  0  0  0
   -3.0808   -1.0424    1.0179 C   0  0  0  0  0  0  0  0  0  0  0  0
   -3.2871   -0.1959    1.6781 H   0  0  0  0  0  0  0  0  0  0  0  0
   -3.8780   -1.1223    0.2757 H   0  0  0  0  0  0  0  0  0  0  0  0
   -1.7426   -0.8458    0.3334 C   0  0  0  0  0  0  0  0  0  0  0  0
   -0.8643   -1.6901    0.4329 O   0  0  0  0  0  0  0  0  0  0  0  0
   -1.5291    0.2403   -0.4962 N   0  0  0  0  0  0  0  0  0  0  0  0
   -2.3011    0.9029   -0.4557 H   0  0  0  0  0  0  0  0  0  0  0  0
   -0.1862    0.8567   -0.5330 C   0  0  1  0  0  0  0  0  0  0  0  0
    0.5739    0.1299   -0.2254 H   0  0  0  0  0  0  0  0  0  0  0  0
    0.1415    1.2576   -1.9806 C   0  0  0  0  0  0  0  0  0  0  0  0
   -0.6307    1.9371   -2.3579 H   0  0  0  0  0  0  0  0  0  0  0  0
    1.1015    1.7812   -2.0294 H   0  0  0  0  0  0  0  0  0  0  0  0
    0.2133    0.0116   -2.8353 C   0  0  0  0  0  0  0  0  0  0  0  0
    1.2501   -0.9254   -2.8555 N   0  3  0  0  0  0  0  0  0  0  0  0
    2.0450   -0.8948   -2.2117 H   0  0  0  0  0  0  0  0  0  0  0  0
    0.9724   -1.8928   -3.6954 C   0  0  0  0  0  0  0  0  0  0  0  0
    1.5763   -2.7836   -3.8803 H   0  0  0  0  0  0  0  0  0  0  0  0
   -0.2481   -1.5851   -4.2909 N   0  0  0  0  0  0  0  0  0  0  0  0
   -0.7370   -2.1623   -4.9819 H   0  0  0  0  0  0  0  0  0  0  0  0
   -0.7231   -0.3947   -3.7534 C   0  0  0  0  0  0  0  0  0  0  0  0
   -1.6599    0.1097   -3.9901 H   0  0  0  0  0  0  0  0  0  0  0  0
   -0.0639    1.9871    0.5188 C   0  0  0  0  0  0  0  0  0  0  0  0
   -0.6070    1.8433    1.6037 O   0  0  0  0  0  0  0  0  0  0  0  0
    0.5095    3.2142    0.2271 N   0  0  0  0  0  0  0  0  0  0  0  0
    0.9363    3.3501   -0.6833 H   0  0  0  0  0  0  0  0  0  0  0  0
    0.5670    4.3123    1.1906 C   0  0  0  0  0  0  0  0  0  0  0  0
    1.1126    4.0068    2.0903 H   0  0  0  0  0  0  0  0  0  0  0  0
    1.0786    5.1766    0.7555 H   0  0  0  0  0  0  0  0  0  0  0  0
   -0.4425    4.6218    1.4827 H   0  0  0  0  0  0  0  0  0  0  0  0
  1  2  1  0  0  0  0
  2  3  1  0  0  0  0
  2  4  1  0  0  0  0
  2  5  1  0  0  0  0
  5  6  2  0  0  0  0
  5  7  1  0  0  0  0
  7  8  1  0  0  0  0
  7  9  1  0  0  0  0
  9 10  1  0  0  0  0
  9 11  1  0  0  0  0
  9 23  1  0  0  0  0
 11 12  1  0  0  0  0
 11 13  1  0  0  0  0
 11 14  1  0  0  0  0
 14 15  1  0  0  0  0
 14 21  2  0  0  0  0
 15 16  1  0  0  0  0
 15 17  2  0  0  0  0
 17 18  1  0  0  0  0
 17 19  1  0  0  0  0
 19 20  1  0  0  0  0
 19 21  1  0  0  0  0
 21 22  1  0  0  0  0
 23 24  2  0  0  0  0
 23 25  1  0  0  0  0
 25 26  1  0  0  0  0
 25 27  1  0  0  0  0
 27 28  1  0  0  0  0
 27 29  1  0  0  0  0
 27 30  1  0  0  0  0
M  CHG  1  15   1
M  END
$$$$

  -OEChem-01062216083D

 30 30  0     1  0  0  0  0  0999 V2000
   -3.0755   -1.9805    1.5865 H   0  0  0  0  0  0  0  0  0  0  0  0
   -3.0876   -1.0508    1.0106 C   0  0  0  0  0  0  0  0  0  0  0  0
   -3.2921   -0.2215    1.6927 H   0  0  0  0  0  0  0  0  0  0  0  0
   -3.8835   -1.1078    0.2648 H   0  0  0  0  0  0  0  0  0  0  0  0
   -1.7473   -0.8414    0.3338 C   0  0  0  0  0  0  0  0  0  0  0  0
   -0.8680   -1.6854    0.4239 O   0  0  0  0  0  0  0  0  0  0  0  0
   -1.5405    0.2485   -0.4930 N   0  0  0  0  0  0  0  0  0  0  0  0
   -2.3199    0.9025   -0.4647 H   0  0  0  0  0  0  0  0  0  0  0  0
   -0.2006    0.8700   -0.5394 C   0  0  1  0  0  0  0  0  0  0  0  0
    0.5607    0.1443   -0.2321 H   0  0  0  0  0  0  0  0  0  0  0  0
    0.1330    1.2672   -1.9860 C   0  0  0  0  0  0  0  0  0  0  0  0
   -0.6400    1.9402   -2.3722 H   0  0  0  0  0  0  0  0  0  0  0  0
    1.0912    1.7960   -2.0280 H   0  0  0  0  0  0  0  0  0  0  0  0
    0.2124    0.0173   -2.8338 C   0  0  0  0  0  0  0  0  0  0  0  0
    1.2545   -0.9136   -2.8400 N   0  3  0  0  0  0  0  0  0  0  0  0
    2.0447   -0.8731   -2.1907 H   0  0  0  0  0  0  0  0  0  0  0  0
    0.9866   -1.8899   -3.6727 C   0  0  0  0  0  0  0  0  0  0  0  0
    1.5958   -2.7797   -3.8443 H   0  0  0  0  0  0  0  0  0  0  0  0
   -0.2313   -1.5933   -4.2792 N   0  0  0  0  0  0  0  0  0  0  0  0
   -0.7129   -2.1796   -4.9678 H   0  0  0  0  0  0  0  0  0  0  0  0
   -0.7159   -0.4009   -3.7547 C   0  0  0  0  0  0  0  0  0  0  0  0
   -1.6538    0.0957   -4.0017 H   0  0  0  0  0  0  0  0  0  0  0  0
   -0.0714    1.9963    0.5122 C   0  0  0  0  0  0  0  0  0  0  0  0
   -0.3535    1.7480    1.6734 O   0  0  0  0  0  0  0  0  0  0  0  0
    0.2064    3.3077    0.1627 N   0  0  0  0  0  0  0  0  0  0  0  0
    0.3832    3.5265   -0.8123 H   0  0  0  0  0  0  0  0  0  0  0  0
    0.2339    4.3984    1.1358 C   0  0  0  0  0  0  0  0  0  0  0  0
    0.9595    4.1885    1.9296 H   0  0  0  0  0  0  0  0  0  0  0  0
    0.5190    5.3372    0.6503 H   0  0  0  0  0  0  0  0  0  0  0  0
   -0.7533    4.5321    1.5918 H   0  0  0  0  0  0  0  0  0  0  0  0
  1  2  1  0  0  0  0
  2  3  1  0  0  0  0
  2  4  1  0  0  0  0
  2  5  1  0  0  0  0
  5  6  2  0  0  0  0
  5  7  1  0  0  0  0
  7  8  1  0  0  0  0
  7  9  1  0  0  0  0
  9 10  1  0  0  0  0
  9 11  1  0  0  0  0
  9 23  1  0  0  0  0
 11 12  1  0  0  0  0
 11 13  1  0  0  0  0
 11 14  1  0  0  0  0
 14 15  1  0  0  0  0
 14 21  2  0  0  0  0
 15 16  1  0  0  0  0
 15 17  2  0  0  0  0
 17 18  1  0  0  0  0
 17 19  1  0  0  0  0
 19 20  1  0  0  0  0
 19 21  1  0  0  0  0
 21 22  1  0  0  0  0
 23 24  2  0  0  0  0
 23 25  1  0  0  0  0
 25 26  1  0  0  0  0
 25 27  1  0  0  0  0
 27 28  1  0  0  0  0
 27 29  1  0  0  0  0
 27 30  1  0  0  0  0
M  CHG  1  15   1
M  END
$$$$

  -OEChem-01062216083D

 30 30  0     1  0  0  0  0  0999 V2000
   -3.0790   -1.9832    1.6007 H   0  0  0  0  0  0  0  0  0  0  0  0
   -3.1077   -1.0703    0.9988 C   0  0  0  0  0  0  0  0  0  0  0  0
   -3.3477   -0.2293    1.6544 H   0  0  0  0  0  0  0  0  0  0  0  0
   -3.8885   -1.1714    0.2417 H   0  0  0  0  0  0  0  0  0  0  0  0
   -1.7625   -0.8422    0.3381 C   0  0  0  0  0  0  0  0  0  0  0  0
   -0.8778   -1.6793    0.4318 O   0  0  0  0  0  0  0  0  0  0  0  0
   -1.5605    0.2508   -0.4861 N   0  0  0  0  0  0  0  0  0  0  0  0
   -2.3481    0.8951   -0.4752 H   0  0  0  0  0  0  0  0  0  0  0  0
   -0.2251    0.8804   -0.5385 C   0  0  1  0  0  0  0  0  0  0  0  0
    0.5386    0.1564   -0.2314 H   0  0  0  0  0  0  0  0  0  0  0  0
    0.1162    1.2784   -1.9823 C   0  0  0  0  0  0  0  0  0  0  0  0
   -0.6580    1.9443   -2.3771 H   0  0  0  0  0  0  0  0  0  0  0  0
    1.0707    1.8151   -2.0149 H   0  0  0  0  0  0  0  0  0  0  0  0
    0.2080    0.0280   -2.8272 C   0  0  0  0  0  0  0  0  0  0  0  0
    1.2582   -0.8937   -2.8199 N   0  3  0  0  0  0  0  0  0  0  0  0
    2.0417   -0.8432   -2.1628 H   0  0  0  0  0  0  0  0  0  0  0  0
    1.0086   -1.8739   -3.6533 C   0  0  0  0  0  0  0  0  0  0  0  0
    1.6288   -2.7575   -3.8172 H   0  0  0  0  0  0  0  0  0  0  0  0
   -0.2061   -1.5899   -4.2724 N   0  0  0  0  0  0  0  0  0  0  0  0
   -0.6743   -2.1819   -4.9652 H   0  0  0  0  0  0  0  0  0  0  0  0
   -0.7075   -0.4005   -3.7562 C   0  0  0  0  0  0  0  0  0  0  0  0
   -1.6465    0.0881   -4.0151 H   0  0  0  0  0  0  0  0  0  0  0  0
   -0.0909    2.0050    0.5104 C   0  0  0  0  0  0  0  0  0  0  0  0
   -0.0676    1.7050    1.6923 O   0  0  0  0  0  0  0  0  0  0  0  0
   -0.1260    3.3442    0.1590 N   0  0  0  0  0  0  0  0  0  0  0  0
   -0.2122    3.5885   -0.8222 H   0  0  0  0  0  0  0  0  0  0  0  0
   -0.0907    4.4233    1.1445 C   0  0  0  0  0  0  0  0  0  0  0  0
    0.8188    4.3603    1.7523 H   0  0  0  0  0  0  0  0  0  0  0  0
   -0.1030    5.3976    0.6458 H   0  0  0  0  0  0  0  0  0  0  0  0
   -0.9595    4.3659    1.8094 H   0  0  0  0  0  0  0  0  0  0  0  0
  1  2  1  0  0  0  0
  2  3  1  0  0  0  0
  2  4  1  0  0  0  0
  2  5  1  0  0  0  0
  5  6  2  0  0  0  0
  5  7  1  0  0  0  0
  7  8  1  0  0  0  0
  7  9  1  0  0  0  0
  9 10  1  0  0  0  0
  9 11  1  0  0  0  0
  9 23  1  0  0  0  0
 11 12  1  0  0  0  0
 11 13  1  0  0  0  0
 11 14  1  0  0  0  0
 14 15  1  0  0  0  0
 14 21  2  0  0  0  0
 15 16  1  0  0  0  0
 15 17  2  0  0  0  0
 17 18  1  0  0  0  0
 17 19  1  0  0  0  0
 19 20  1  0  0  0  0
 19 21  1  0  0  0  0
 21 22  1  0  0  0  0
 23 24  2  0  0  0  0
 23 25  1  0  0  0  0
 25 26  1  0  0  0  0
 25 27  1  0  0  0  0
 27 28  1  0  0  0  0
 27 29  1  0  0  0  0
 27 30  1  0  0  0  0
M  CHG  1  15   1
M  END
$$$$

  -OEChem-01062216083D

 30 30  0     1  0  0  0  0  0999 V2000
   -3.1113   -2.0087    1.6044 H   0  0  0  0  0  0  0  0  0  0  0  0
   -3.1506   -1.1205    0.9670 C   0  0  0  0  0  0  0  0  0  0  0  0
   -3.4592   -0.2682    1.5775 H   0  0  0  0  0  0  0  0  0  0  0  0
   -3.8888   -1.2849    0.1789 H   0  0  0  0  0  0  0  0  0  0  0  0
   -1.7866   -0.8566    0.3604 C   0  0  0  0  0  0  0  0  0  0  0  0
   -0.8843   -1.6672    0.4980 O   0  0  0  0  0  0  0  0  0  0  0  0
   -1.5851    0.2390   -0.4605 N   0  0  0  0  0  0  0  0  0  0  0  0
   -2.3860    0.8657   -0.4856 H   0  0  0  0  0  0  0  0  0  0  0  0
   -0.2563    0.8823   -0.5194 C   0  0  1  0  0  0  0  0  0  0  0  0
    0.5115    0.1598   -0.2186 H   0  0  0  0  0  0  0  0  0  0  0  0
    0.0885    1.2894   -1.9591 C   0  0  0  0  0  0  0  0  0  0  0  0
   -0.6881    1.9510   -2.3560 H   0  0  0  0  0  0  0  0  0  0  0  0
    1.0374    1.8371   -1.9816 H   0  0  0  0  0  0  0  0  0  0  0  0
    0.1960    0.0441   -2.8091 C   0  0  0  0  0  0  0  0  0  0  0  0
    1.2578   -0.8637   -2.7955 N   0  3  0  0  0  0  0  0  0  0  0  0
    2.0323   -0.8072   -2.1281 H   0  0  0  0  0  0  0  0  0  0  0  0
    1.0318   -1.8405   -3.6396 C   0  0  0  0  0  0  0  0  0  0  0  0
    1.6658   -2.7144   -3.8027 H   0  0  0  0  0  0  0  0  0  0  0  0
   -0.1787   -1.5673   -4.2721 N   0  0  0  0  0  0  0  0  0  0  0  0
   -0.6280   -2.1577   -4.9788 H   0  0  0  0  0  0  0  0  0  0  0  0
   -0.7020   -0.3883   -3.7532 C   0  0  0  0  0  0  0  0  0  0  0  0
   -1.6418    0.0919   -4.0242 H   0  0  0  0  0  0  0  0  0  0  0  0
   -0.1129    2.0101    0.5226 C   0  0  0  0  0  0  0  0  0  0  0  0
    0.2707    1.7346    1.6464 O   0  0  0  0  0  0  0  0  0  0  0  0
   -0.4576    3.3179    0.2259 N   0  0  0  0  0  0  0  0  0  0  0  0
   -0.8165    3.5282   -0.6998 H   0  0  0  0  0  0  0  0  0  0  0  0
   -0.3745    4.4008    1.2042 C   0  0  0  0  0  0  0  0  0  0  0  0
    0.6553    4.5218    1.5581 H   0  0  0  0  0  0  0  0  0  0  0  0
   -0.6970    5.3461    0.7563 H   0  0  0  0  0  0  0  0  0  0  0  0
   -1.0172    4.1916    2.0665 H   0  0  0  0  0  0  0  0  0  0  0  0
  1  2  1  0  0  0  0
  2  3  1  0  0  0  0
  2  4  1  0  0  0  0
  2  5  1  0  0  0  0
  5  6  2  0  0  0  0
  5  7  1  0  0  0  0
  7  8  1  0  0  0  0
  7  9  1  0  0  0  0
  9 10  1  0  0  0  0
  9 11  1  0  0  0  0
  9 23  1  0  0  0  0
 11 12  1  0  0  0  0
 11 13  1  0  0  0  0
 11 14  1  0  0  0  0
 14 15  1  0  0  0  0
 14 21  2  0  0  0  0
 15 16  1  0  0  0  0
 15 17  2  0  0  0  0
 17 18  1  0  0  0  0
 17 19  1  0  0  0  0
 19 20  1  0  0  0  0
 19 21  1  0  0  0  0
 21 22  1  0  0  0  0
 23 24  2  0  0  0  0
 23 25  1  0  0  0  0
 25 26  1  0  0  0  0
 25 27  1  0  0  0  0
 27 28  1  0  0  0  0
 27 29  1  0  0  0  0
 27 30  1  0  0  0  0
M  CHG  1  15   1
M  END
$$$$

  -OEChem-01062216083D

 30 30  0     1  0  0  0  0  0999 V2000
   -3.1811   -2.1043    1.5343 H   0  0  0  0  0  0  0  0  0  0  0  0
   -3.2108   -1.2054    0.9115 C   0  0  0  0  0  0  0  0  0  0  0  0
   -3.5875   -0.3764    1.5156 H   0  0  0  0  0  0  0  0  0  0  0  0
   -3.8917   -1.3797    0.0752 H   0  0  0  0  0  0  0  0  0  0  0  0
   -1.8207   -0.8844    0.3975 C   0  0  0  0  0  0  0  0  0  0  0  0
   -0.8953   -1.6484    0.6159 O   0  0  0  0  0  0  0  0  0  0  0  0
   -1.6135    0.2147   -0.4179 N   0  0  0  0  0  0  0  0  0  0  0  0
   -2.4295    0.8160   -0.4993 H   0  0  0  0  0  0  0  0  0  0  0  0
   -0.2921    0.8755   -0.4831 C   0  0  1  0  0  0  0  0  0  0  0  0
    0.4799    0.1532   -0.1915 H   0  0  0  0  0  0  0  0  0  0  0  0
    0.0521    1.2981   -1.9179 C   0  0  0  0  0  0  0  0  0  0  0  0
   -0.7276    1.9580   -2.3107 H   0  0  0  0  0  0  0  0  0  0  0  0
    0.9954    1.8561   -1.9305 H   0  0  0  0  0  0  0  0  0  0  0  0
    0.1774    0.0644   -2.7809 C   0  0  0  0  0  0  0  0  0  0  0  0
    1.2546   -0.8248   -2.7670 N   0  3  0  0  0  0  0  0  0  0  0  0
    2.0290   -0.7530   -2.1004 H   0  0  0  0  0  0  0  0  0  0  0  0
    1.0551   -1.7948   -3.6253 C   0  0  0  0  0  0  0  0  0  0  0  0
    1.7106   -2.6512   -3.7972 H   0  0  0  0  0  0  0  0  0  0  0  0
   -0.1566   -1.5379   -4.2626 N   0  0  0  0  0  0  0  0  0  0  0  0
   -0.5877   -2.1266   -4.9819 H   0  0  0  0  0  0  0  0  0  0  0  0
   -0.7050   -0.3734   -3.7367 C   0  0  0  0  0  0  0  0  0  0  0  0
   -1.6489    0.0951   -4.0131 H   0  0  0  0  0  0  0  0  0  0  0  0
   -0.1341    2.0089    0.5490 C   0  0  0  0  0  0  0  0  0  0  0  0
    0.6217    1.8536    1.4929 O   0  0  0  0  0  0  0  0  0  0  0  0
   -0.7585    3.2320    0.3722 N   0  0  0  0  0  0  0  0  0  0  0  0
   -1.3823    3.3489   -0.4197 H   0  0  0  0  0  0  0  0  0  0  0  0
   -0.5962    4.3457    1.3048 C   0  0  0  0  0  0  0  0  0  0  0  0
    0.4553    4.6476    1.3644 H   0  0  0  0  0  0  0  0  0  0  0  0
   -1.1832    5.2090    0.9754 H   0  0  0  0  0  0  0  0  0  0  0  0
   -0.9349    4.0615    2.3073 H   0  0  0  0  0  0  0  0  0  0  0  0
  1  2  1  0  0  0  0
  2  3  1  0  0  0  0
  2  4  1  0  0  0  0
  2  5  1  0  0  0  0
  5  6  2  0  0  0  0
  5  7  1  0  0  0  0
  7  8  1  0  0  0  0
  7  9  1  0  0  0  0
  9 10  1  0  0  0  0
  9 11  1  0  0  0  0
  9 23  1  0  0  0  0
 11 12  1  0  0  0  0
 11 13  1  0  0  0  0
 11 14  1  0  0  0  0
 14 15  1  0  0  0  0
 14 21  2  0  0  0  0
 15 16  1  0  0  0  0
 15 17  2  0  0  0  0
 17 18  1  0  0  0  0
 17 19  1  0  0  0  0
 19 20  1  0  0  0  0
 19 21  1  0  0  0  0
 21 22  1  0  0  0  0
 23 24  2  0  0  0  0
 23 25  1  0  0  0  0
 25 26  1  0  0  0  0
 25 27  1  0  0  0  0
 27 28  1  0  0  0  0
 27 29  1  0  0  0  0
 27 30  1  0  0  0  0
M  CHG  1  15   1
M  END
$$$$

  -OEChem-01062216083D

 30 30  0     1  0  0  0  0  0999 V2000
   -3.2377   -2.1734    1.5031 H   0  0  0  0  0  0  0  0  0  0  0  0
   -3.2594   -1.2850    0.8648 C   0  0  0  0  0  0  0  0  0  0  0  0
   -3.7163   -0.4656    1.4248 H   0  0  0  0  0  0  0  0  0  0  0  0
   -3.8671   -1.5013   -0.0169 H   0  0  0  0  0  0  0  0  0  0  0  0
   -1.8495   -0.9096    0.4508 C   0  0  0  0  0  0  0  0  0  0  0  0
   -0.9101   -1.6159    0.7738 O   0  0  0  0  0  0  0  0  0  0  0  0
   -1.6306    0.1868   -0.3654 N   0  0  0  0  0  0  0  0  0  0  0  0
   -2.4563    0.7554   -0.5313 H   0  0  0  0  0  0  0  0  0  0  0  0
   -0.3122    0.8551   -0.4361 C   0  0  1  0  0  0  0  0  0  0  0  0
    0.4608    0.1317   -0.1499 H   0  0  0  0  0  0  0  0  0  0  0  0
    0.0284    1.2926   -1.8668 C   0  0  0  0  0  0  0  0  0  0  0  0
   -0.7531    1.9575   -2.2483 H   0  0  0  0  0  0  0  0  0  0  0  0
    0.9697    1.8547   -1.8714 H   0  0  0  0  0  0  0  0  0  0  0  0
    0.1601    0.0750   -2.7499 C   0  0  0  0  0  0  0  0  0  0  0  0
    1.2449   -0.8048   -2.7477 N   0  3  0  0  0  0  0  0  0  0  0  0
    2.0204   -0.7327   -2.0819 H   0  0  0  0  0  0  0  0  0  0  0  0
    1.0636   -1.7532   -3.6337 C   0  0  0  0  0  0  0  0  0  0  0  0
    1.7326   -2.5946   -3.8265 H   0  0  0  0  0  0  0  0  0  0  0  0
   -0.1466   -1.4928   -4.2731 N   0  0  0  0  0  0  0  0  0  0  0  0
   -0.5603   -2.0608   -5.0189 H   0  0  0  0  0  0  0  0  0  0  0  0
   -0.7106   -0.3466   -3.7233 C   0  0  0  0  0  0  0  0  0  0  0  0
   -1.6530    0.1245   -4.0009 H   0  0  0  0  0  0  0  0  0  0  0  0
   -0.1366    1.9977    0.5810 C   0  0  0  0  0  0  0  0  0  0  0  0
    0.8722    2.0220    1.2665 O   0  0  0  0  0  0  0  0  0  0  0  0
   -0.9789    3.0962    0.5752 N   0  0  0  0  0  0  0  0  0  0  0  0
   -1.8014    3.0722   -0.0181 H   0  0  0  0  0  0  0  0  0  0  0  0
   -0.7848    4.2463    1.4554 C   0  0  0  0  0  0  0  0  0  0  0  0
    0.1801    4.7251    1.2559 H   0  0  0  0  0  0  0  0  0  0  0  0
   -1.5751    4.9868    1.2972 H   0  0  0  0  0  0  0  0  0  0  0  0
   -0.8098    3.9353    2.5057 H   0  0  0  0  0  0  0  0  0  0  0  0
  1  2  1  0  0  0  0
  2  3  1  0  0  0  0
  2  4  1  0  0  0  0
  2  5  1  0  0  0  0
  5  6  2  0  0  0  0
  5  7  1  0  0  0  0
  7  8  1  0  0  0  0
  7  9  1  0  0  0  0
  9 10  1  0  0  0  0
  9 11  1  0  0  0  0
  9 23  1  0  0  0  0
 11 12  1  0  0  0  0
 11 13  1  0  0  0  0
 11 14  1  0  0  0  0
 14 15  1  0  0  0  0
 14 21  2  0  0  0  0
 15 16  1  0  0  0  0
 15 17  2  0  0  0  0
 17 18  1  0  0  0  0
 17 19  1  0  0  0  0
 19 20  1  0  0  0  0
 19 21  1  0  0  0  0
 21 22  1  0  0  0  0
 23 24  2  0  0  0  0
 23 25  1  0  0  0  0
 25 26  1  0  0  0  0
 25 27  1  0  0  0  0
 27 28  1  0  0  0  0
 27 29  1  0  0  0  0
 27 30  1  0  0  0  0
M  CHG  1  15   1
M  END
$$$$

  -OEChem-01062216083D

 30 30  0     1  0  0  0  0  0999 V2000
   -3.2741   -2.2321    1.4654 H   0  0  0  0  0  0  0  0  0  0  0  0
   -3.2862   -1.3505    0.8176 C   0  0  0  0  0  0  0  0  0  0  0  0
   -3.8141   -0.5459    1.3351 H   0  0  0  0  0  0  0  0  0  0  0  0
   -3.8209   -1.5987   -0.1022 H   0  0  0  0  0  0  0  0  0  0  0  0
   -1.8672   -0.9206    0.4988 C   0  0  0  0  0  0  0  0  0  0  0  0
   -0.9244   -1.5652    0.9232 O   0  0  0  0  0  0  0  0  0  0  0  0
   -1.6366    0.1701   -0.3216 N   0  0  0  0  0  0  0  0  0  0  0  0
   -2.4640    0.6937   -0.5929 H   0  0  0  0  0  0  0  0  0  0  0  0
   -0.3205    0.8426   -0.4013 C   0  0  1  0  0  0  0  0  0  0  0  0
    0.4541    0.1204   -0.1176 H   0  0  0  0  0  0  0  0  0  0  0  0
    0.0104    1.2848   -1.8333 C   0  0  0  0  0  0  0  0  0  0  0  0
   -0.7746    1.9514   -2.2043 H   0  0  0  0  0  0  0  0  0  0  0  0
    0.9496    1.8506   -1.8412 H   0  0  0  0  0  0  0  0  0  0  0  0
    0.1424    0.0771   -2.7287 C   0  0  0  0  0  0  0  0  0  0  0  0
    1.2324   -0.7956   -2.7387 N   0  3  0  0  0  0  0  0  0  0  0  0
    2.0118   -0.7214   -2.0775 H   0  0  0  0  0  0  0  0  0  0  0  0
    1.0612   -1.7275   -3.6439 C   0  0  0  0  0  0  0  0  0  0  0  0
    1.7401   -2.5564   -3.8549 H   0  0  0  0  0  0  0  0  0  0  0  0
   -0.1505   -1.4654   -4.2800 N   0  0  0  0  0  0  0  0  0  0  0  0
   -0.5546   -2.0183   -5.0424 H   0  0  0  0  0  0  0  0  0  0  0  0
   -0.7231   -0.3322   -3.7120 C   0  0  0  0  0  0  0  0  0  0  0  0
   -1.6642    0.1423   -3.9885 H   0  0  0  0  0  0  0  0  0  0  0  0
   -0.1265    1.9966    0.5986 C   0  0  0  0  0  0  0  0  0  0  0  0
    1.0014    2.2095    1.0142 O   0  0  0  0  0  0  0  0  0  0  0  0
   -1.1144    2.9431    0.8083 N   0  0  0  0  0  0  0  0  0  0  0  0
   -2.0525    2.7313    0.4864 H   0  0  0  0  0  0  0  0  0  0  0  0
   -0.9219    4.1049    1.6736 C   0  0  0  0  0  0  0  0  0  0  0  0
   -0.0843    4.7157    1.3189 H   0  0  0  0  0  0  0  0  0  0  0  0
   -1.8210    4.7291    1.6814 H   0  0  0  0  0  0  0  0  0  0  0  0
   -0.7120    3.7882    2.7012 H   0  0  0  0  0  0  0  0  0  0  0  0
  1  2  1  0  0  0  0
  2  3  1  0  0  0  0
  2  4  1  0  0  0  0
  2  5  1  0  0  0  0
  5  6  2  0  0  0  0
  5  7  1  0  0  0  0
  7  8  1  0  0  0  0
  7  9  1  0  0  0  0
  9 10  1  0  0  0  0
  9 11  1  0  0  0  0
  9 23  1  0  0  0  0
 11 12  1  0  0  0  0
 11 13  1  0  0  0  0
 11 14  1  0  0  0  0
 14 15  1  0  0  0  0
 14 21  2  0  0  0  0
 15 16  1  0  0  0  0
 15 17  2  0  0  0  0
 17 18  1  0  0  0  0
 17 19  1  0  0  0  0
 19 20  1  0  0  0  0
 19 21  1  0  0  0  0
 21 22  1  0  0  0  0
 23 24  2  0  0  0  0
 23 25  1  0  0  0  0
 25 26  1  0  0  0  0
 25 27  1  0  0  0  0
 27 28  1  0  0  0  0
 27 29  1  0  0  0  0
 27 30  1  0  0  0  0
M  CHG  1  15   1
M  END
$$$$

  -OEChem-01062216083D

 30 30  0     1  0  0  0  0  0999 V2000
   -3.2869   -2.2558    1.4435 H   0  0  0  0  0  0  0  0  0  0  0  0
   -3.2918   -1.3809    0.7863 C   0  0  0  0  0  0  0  0  0  0  0  0
   -3.8631   -0.5854    1.2708 H   0  0  0  0  0  0  0  0  0  0  0  0
   -3.7782   -1.6519   -0.1537 H   0  0  0  0  0  0  0  0  0  0  0  0
   -1.8709   -0.9183    0.5267 C   0  0  0  0  0  0  0  0  0  0  0  0
   -0.9329   -1.5223    1.0157 O   0  0  0  0  0  0  0  0  0  0  0  0
   -1.6291    0.1656   -0.2988 N   0  0  0  0  0  0  0  0  0  0  0  0
   -2.4499    0.6630   -0.6335 H   0  0  0  0  0  0  0  0  0  0  0  0
   -0.3122    0.8365   -0.3804 C   0  0  1  0  0  0  0  0  0  0  0  0
    0.4644    0.1170   -0.0966 H   0  0  0  0  0  0  0  0  0  0  0  0
    0.0049    1.2786   -1.8174 C   0  0  0  0  0  0  0  0  0  0  0  0
   -0.7838    1.9472   -2.1778 H   0  0  0  0  0  0  0  0  0  0  0  0
    0.9435    1.8455   -1.8361 H   0  0  0  0  0  0  0  0  0  0  0  0
    0.1299    0.0755   -2.7198 C   0  0  0  0  0  0  0  0  0  0  0  0
    1.2222   -0.7938   -2.7420 N   0  3  0  0  0  0  0  0  0  0  0  0
    2.0098   -0.7155   -2.0911 H   0  0  0  0  0  0  0  0  0  0  0  0
    1.0510   -1.7174   -3.6558 C   0  0  0  0  0  0  0  0  0  0  0  0
    1.7342   -2.5392   -3.8806 H   0  0  0  0  0  0  0  0  0  0  0  0
   -0.1655   -1.4554   -4.2824 N   0  0  0  0  0  0  0  0  0  0  0  0
   -0.5690   -2.0000   -5.0509 H   0  0  0  0  0  0  0  0  0  0  0  0
   -0.7388   -0.3284   -3.7027 C   0  0  0  0  0  0  0  0  0  0  0  0
   -1.6808    0.1474   -3.9741 H   0  0  0  0  0  0  0  0  0  0  0  0
   -0.1162    1.9987    0.6103 C   0  0  0  0  0  0  0  0  0  0  0  0
    1.0254    2.3740    0.8283 O   0  0  0  0  0  0  0  0  0  0  0  0
   -1.1812    2.7670    1.0461 N   0  0  0  0  0  0  0  0  0  0  0  0
   -2.1130    2.3853    0.9240 H   0  0  0  0  0  0  0  0  0  0  0  0
   -1.0116    3.9099    1.9406 C   0  0  0  0  0  0  0  0  0  0  0  0
   -0.3261    4.6445    1.5036 H   0  0  0  0  0  0  0  0  0  0  0  0
   -1.9727    4.4030    2.1167 H   0  0  0  0  0  0  0  0  0  0  0  0
   -0.6066    3.5857    2.9055 H   0  0  0  0  0  0  0  0  0  0  0  0
  1  2  1  0  0  0  0
  2  3  1  0  0  0  0
  2  4  1  0  0  0  0
  2  5  1  0  0  0  0
  5  6  2  0  0  0  0
  5  7  1  0  0  0  0
  7  8  1  0  0  0  0
  7  9  1  0  0  0  0
  9 10  1  0  0  0  0
  9 11  1  0  0  0  0
  9 23  1  0  0  0  0
 11 12  1  0  0  0  0
 11 13  1  0  0  0  0
 11 14  1  0  0  0  0
 14 15  1  0  0  0  0
 14 21  2  0  0  0  0
 15 16  1  0  0  0  0
 15 17  2  0  0  0  0
 17 18  1  0  0  0  0
 17 19  1  0  0  0  0
 19 20  1  0  0  0  0
 19 21  1  0  0  0  0
 21 22  1  0  0  0  0
 23 24  2  0  0  0  0
 23 25  1  0  0  0  0
 25 26  1  0  0  0  0
 25 27  1  0  0  0  0
 27 28  1  0  0  0  0
 27 29  1  0  0  0  0
 27 30  1  0  0  0  0
M  CHG  1  15   1
M  END
$$$$

  -OEChem-01062216083D

 30 30  0     1  0  0  0  0  0999 V2000
   -3.2919   -2.2509    1.4385 H   0  0  0  0  0  0  0  0  0  0  0  0
   -3.2905   -1.3866    0.7675 C   0  0  0  0  0  0  0  0  0  0  0  0
   -3.8800   -0.5892    1.2261 H   0  0  0  0  0  0  0  0  0  0  0  0
   -3.7535   -1.6774   -0.1783 H   0  0  0  0  0  0  0  0  0  0  0  0
   -1.8685   -0.9152    0.5312 C   0  0  0  0  0  0  0  0  0  0  0  0
   -0.9356   -1.5047    1.0466 O   0  0  0  0  0  0  0  0  0  0  0  0
   -1.6176    0.1665   -0.2942 N   0  0  0  0  0  0  0  0  0  0  0  0
   -2.4333    0.6652   -0.6411 H   0  0  0  0  0  0  0  0  0  0  0  0
   -0.2985    0.8347   -0.3695 C   0  0  1  0  0  0  0  0  0  0  0  0
    0.4790    0.1171   -0.0840 H   0  0  0  0  0  0  0  0  0  0  0  0
    0.0101    1.2749   -1.8107 C   0  0  0  0  0  0  0  0  0  0  0  0
   -0.7800    1.9445   -2.1659 H   0  0  0  0  0  0  0  0  0  0  0  0
    0.9488    1.8406   -1.8397 H   0  0  0  0  0  0  0  0  0  0  0  0
    0.1291    0.0728   -2.7150 C   0  0  0  0  0  0  0  0  0  0  0  0
    1.2191   -0.7988   -2.7479 N   0  3  0  0  0  0  0  0  0  0  0  0
    2.0139   -0.7212   -2.1060 H   0  0  0  0  0  0  0  0  0  0  0  0
    1.0397   -1.7181   -3.6645 C   0  0  0  0  0  0  0  0  0  0  0  0
    1.7202   -2.5395   -3.8985 H   0  0  0  0  0  0  0  0  0  0  0  0
   -0.1807   -1.4510   -4.2816 N   0  0  0  0  0  0  0  0  0  0  0  0
   -0.5903   -1.9906   -5.0505 H   0  0  0  0  0  0  0  0  0  0  0  0
   -0.7472   -0.3252   -3.6933 C   0  0  0  0  0  0  0  0  0  0  0  0
   -1.6890    0.1552   -3.9566 H   0  0  0  0  0  0  0  0  0  0  0  0
   -0.1105    1.9991    0.6230 C   0  0  0  0  0  0  0  0  0  0  0  0
    0.9887    2.5282    0.6861 O   0  0  0  0  0  0  0  0  0  0  0  0
   -1.1831    2.5699    1.2844 N   0  0  0  0  0  0  0  0  0  0  0  0
   -2.0482    2.0401    1.3041 H   0  0  0  0  0  0  0  0  0  0  0  0
   -1.0287    3.6802    2.2214 C   0  0  0  0  0  0  0  0  0  0  0  0
   -0.5566    4.5380    1.7297 H   0  0  0  0  0  0  0  0  0  0  0  0
   -2.0051    3.9987    2.5998 H   0  0  0  0  0  0  0  0  0  0  0  0
   -0.4078    3.3809    3.0730 H   0  0  0  0  0  0  0  0  0  0  0  0
  1  2  1  0  0  0  0
  2  3  1  0  0  0  0
  2  4  1  0  0  0  0
  2  5  1  0  0  0  0
  5  6  2  0  0  0  0
  5  7  1  0  0  0  0
  7  8  1  0  0  0  0
  7  9  1  0  0  0  0
  9 10  1  0  0  0  0
  9 11  1  0  0  0  0
  9 23  1  0  0  0  0
 11 12  1  0  0  0  0
 11 13  1  0  0  0  0
 11 14  1  0  0  0  0
 14 15  1  0  0  0  0
 14 21  2  0  0  0  0
 15 16  1  0  0  0  0
 15 17  2  0  0  0  0
 17 18  1  0  0  0  0
 17 19  1  0  0  0  0
 19 20  1  0  0  0  0
 19 21  1  0  0  0  0
 21 22  1  0  0  0  0
 23 24  2  0  0  0  0
 23 25  1  0  0  0  0
 25 26  1  0  0  0  0
 25 27  1  0  0  0  0
 27 28  1  0  0  0  0
 27 29  1  0  0  0  0
 27 30  1  0  0  0  0
M  CHG  1  15   1
M  END
$$$$

  -OEChem-01062216083D

 30 30  0     1  0  0  0  0  0999 V2000
   -3.2951   -2.2485    1.4238 H   0  0  0  0  0  0  0  0  0  0  0  0
   -3.2860   -1.3832    0.7542 C   0  0  0  0  0  0  0  0  0  0  0  0
   -3.8791   -0.5856    1.2080 H   0  0  0  0  0  0  0  0  0  0  0  0
   -3.7406   -1.6716   -0.1964 H   0  0  0  0  0  0  0  0  0  0  0  0
   -1.8612   -0.9136    0.5316 C   0  0  0  0  0  0  0  0  0  0  0  0
   -0.9337   -1.4927    1.0680 O   0  0  0  0  0  0  0  0  0  0  0  0
   -1.6020    0.1672   -0.2914 N   0  0  0  0  0  0  0  0  0  0  0  0
   -2.4151    0.6774   -0.6285 H   0  0  0  0  0  0  0  0  0  0  0  0
   -0.2815    0.8338   -0.3605 C   0  0  1  0  0  0  0  0  0  0  0  0
    0.4971    0.1174   -0.0762 H   0  0  0  0  0  0  0  0  0  0  0  0
    0.0160    1.2724   -1.8069 C   0  0  0  0  0  0  0  0  0  0  0  0
   -0.7775    1.9418   -2.1547 H   0  0  0  0  0  0  0  0  0  0  0  0
    0.9541    1.8381   -1.8474 H   0  0  0  0  0  0  0  0  0  0  0  0
    0.1294    0.0719   -2.7143 C   0  0  0  0  0  0  0  0  0  0  0  0
    1.2192   -0.7994   -2.7592 N   0  3  0  0  0  0  0  0  0  0  0  0
    2.0253   -0.7162   -2.1325 H   0  0  0  0  0  0  0  0  0  0  0  0
    1.0311   -1.7170   -3.6758 C   0  0  0  0  0  0  0  0  0  0  0  0
    1.7125   -2.5337   -3.9225 H   0  0  0  0  0  0  0  0  0  0  0  0
   -0.1987   -1.4535   -4.2754 N   0  0  0  0  0  0  0  0  0  0  0  0
   -0.6163   -1.9926   -5.0403 H   0  0  0  0  0  0  0  0  0  0  0  0
   -0.7595   -0.3286   -3.6800 C   0  0  0  0  0  0  0  0  0  0  0  0
   -1.7064    0.1495   -3.9294 H   0  0  0  0  0  0  0  0  0  0  0  0
   -0.1039    1.9985    0.6366 C   0  0  0  0  0  0  0  0  0  0  0  0
    0.9101    2.6765    0.5671 O   0  0  0  0  0  0  0  0  0  0  0  0
   -1.1118    2.3646    1.5103 N   0  0  0  0  0  0  0  0  0  0  0  0
   -1.8665    1.6991    1.6435 H   0  0  0  0  0  0  0  0  0  0  0  0
   -0.9586    3.4416    2.4853 C   0  0  0  0  0  0  0  0  0  0  0  0
   -0.6777    4.3765    1.9881 H   0  0  0  0  0  0  0  0  0  0  0  0
   -1.8995    3.6089    3.0190 H   0  0  0  0  0  0  0  0  0  0  0  0
   -0.1843    3.1889    3.2178 H   0  0  0  0  0  0  0  0  0  0  0  0
  1  2  1  0  0  0  0
  2  3  1  0  0  0  0
  2  4  1  0  0  0  0
  2  5  1  0  0  0  0
  5  6  2  0  0  0  0
  5  7  1  0  0  0  0
  7  8  1  0  0  0  0
  7  9  1  0  0  0  0
  9 10  1  0  0  0  0
  9 11  1  0  0  0  0
  9 23  1  0  0  0  0
 11 12  1  0  0  0  0
 11 13  1  0  0  0  0
 11 14  1  0  0  0  0
 14 15  1  0  0  0  0
 14 21  2  0  0  0  0
 15 16  1  0  0  0  0
 15 17  2  0  0  0  0
 17 18  1  0  0  0  0
 17 19  1  0  0  0  0
 19 20  1  0  0  0  0
 19 21  1  0  0  0  0
 21 22  1  0  0  0  0
 23 24  2  0  0  0  0
 23 25  1  0  0  0  0
 25 26  1  0  0  0  0
 25 27  1  0  0  0  0
 27 28  1  0  0  0  0
 27 29  1  0  0  0  0
 27 30  1  0  0  0  0
M  CHG  1  15   1
M  END
$$$$

  -OEChem-01062216083D

 30 30  0     1  0  0  0  0  0999 V2000
   -3.2946   -2.2224    1.4427 H   0  0  0  0  0  0  0  0  0  0  0  0
   -3.2791   -1.3669    0.7604 C   0  0  0  0  0  0  0  0  0  0  0  0
   -3.8696   -0.5594    1.2002 H   0  0  0  0  0  0  0  0  0  0  0  0
   -3.7322   -1.6666   -0.1875 H   0  0  0  0  0  0  0  0  0  0  0  0
   -1.8516   -0.9073    0.5345 C   0  0  0  0  0  0  0  0  0  0  0  0
   -0.9282   -1.4770    1.0878 O   0  0  0  0  0  0  0  0  0  0  0  0
   -1.5864    0.1727   -0.2867 N   0  0  0  0  0  0  0  0  0  0  0  0
   -2.3981    0.6988   -0.6032 H   0  0  0  0  0  0  0  0  0  0  0  0
   -0.2627    0.8324   -0.3560 C   0  0  1  0  0  0  0  0  0  0  0  0
    0.5152    0.1150   -0.0729 H   0  0  0  0  0  0  0  0  0  0  0  0
    0.0298    1.2683   -1.8058 C   0  0  0  0  0  0  0  0  0  0  0  0
   -0.7614    1.9427   -2.1497 H   0  0  0  0  0  0  0  0  0  0  0  0
    0.9713    1.8280   -1.8532 H   0  0  0  0  0  0  0  0  0  0  0  0
    0.1335    0.0677   -2.7150 C   0  0  0  0  0  0  0  0  0  0  0  0
    1.2170   -0.8110   -2.7697 N   0  3  0  0  0  0  0  0  0  0  0  0
    2.0280   -0.7354   -2.1486 H   0  0  0  0  0  0  0  0  0  0  0  0
    1.0186   -1.7225   -3.6904 C   0  0  0  0  0  0  0  0  0  0  0  0
    1.6936   -2.5421   -3.9459 H   0  0  0  0  0  0  0  0  0  0  0  0
   -0.2124   -1.4478   -4.2826 N   0  0  0  0  0  0  0  0  0  0  0  0
   -0.6377   -1.9799   -5.0482 H   0  0  0  0  0  0  0  0  0  0  0  0
   -0.7622   -0.3220   -3.6792 C   0  0  0  0  0  0  0  0  0  0  0  0
   -1.7059    0.1651   -3.9235 H   0  0  0  0  0  0  0  0  0  0  0  0
   -0.0962    1.9935    0.6506 C   0  0  0  0  0  0  0  0  0  0  0  0
    0.7757    2.8278    0.4583 O   0  0  0  0  0  0  0  0  0  0  0  0
   -0.9703    2.1546    1.7103 N   0  0  0  0  0  0  0  0  0  0  0  0
   -1.5602    1.3592    1.9372 H   0  0  0  0  0  0  0  0  0  0  0  0
   -0.8138    3.2065    2.7119 C   0  0  0  0  0  0  0  0  0  0  0  0
   -0.7728    4.1919    2.2347 H   0  0  0  0  0  0  0  0  0  0  0  0
   -1.6595    3.1995    3.4067 H   0  0  0  0  0  0  0  0  0  0  0  0
    0.1075    3.0569    3.2851 H   0  0  0  0  0  0  0  0  0  0  0  0
  1  2  1  0  0  0  0
  2  3  1  0  0  0  0
  2  4  1  0  0  0  0
  2  5  1  0  0  0  0
  5  6  2  0  0  0  0
  5  7  1  0  0  0  0
  7  8  1  0  0  0  0
  7  9  1  0  0  0  0
  9 10  1  0  0  0  0
  9 11  1  0  0  0  0
  9 23  1  0  0  0  0
 11 12  1  0  0  0  0
 11 13  1  0  0  0  0
 11 14  1  0  0  0  0
 14 15  1  0  0  0  0
 14 21  2  0  0  0  0
 15 16  1  0  0  0  0
 15 17  2  0  0  0  0
 17 18  1  0  0  0  0
 17 19  1  0  0  0  0
 19 20  1  0  0  0  0
 19 21  1  0  0  0  0
 21 22  1  0  0  0  0
 23 24  2  0  0  0  0
 23 25  1  0  0  0  0
 25 26  1  0  0  0  0
 25 27  1  0  0  0  0
 27 28  1  0  0  0  0
 27 29  1  0  0  0  0
 27 30  1  0  0  0  0
M  CHG  1  15   1
M  END
$$$$

  -OEChem-01062216083D

 30 30  0     1  0  0  0  0  0999 V2000
   -3.2933   -2.2166    1.4369 H   0  0  0  0  0  0  0  0  0  0  0  0
   -3.2690   -1.3584    0.7590 C   0  0  0  0  0  0  0  0  0  0  0  0
   -3.8651   -0.5524    1.1940 H   0  0  0  0  0  0  0  0  0  0  0  0
   -3.7094   -1.6543   -0.1959 H   0  0  0  0  0  0  0  0  0  0  0  0
   -1.8391   -0.8971    0.5541 C   0  0  0  0  0  0  0  0  0  0  0  0
   -0.9242   -1.4452    1.1433 O   0  0  0  0  0  0  0  0  0  0  0  0
   -1.5624    0.1767   -0.2702 N   0  0  0  0  0  0  0  0  0  0  0  0
   -2.3695    0.7089   -0.5890 H   0  0  0  0  0  0  0  0  0  0  0  0
   -0.2334    0.8234   -0.3439 C   0  0  1  0  0  0  0  0  0  0  0  0
    0.5417    0.1022   -0.0635 H   0  0  0  0  0  0  0  0  0  0  0  0
    0.0535    1.2583   -1.7956 C   0  0  0  0  0  0  0  0  0  0  0  0
   -0.7330    1.9424   -2.1315 H   0  0  0  0  0  0  0  0  0  0  0  0
    0.9999    1.8091   -1.8466 H   0  0  0  0  0  0  0  0  0  0  0  0
    0.1405    0.0617   -2.7115 C   0  0  0  0  0  0  0  0  0  0  0  0
    1.2124   -0.8300   -2.7831 N   0  3  0  0  0  0  0  0  0  0  0  0
    2.0327   -0.7661   -2.1735 H   0  0  0  0  0  0  0  0  0  0  0  0
    0.9946   -1.7305   -3.7103 C   0  0  0  0  0  0  0  0  0  0  0  0
    1.6580   -2.5546   -3.9809 H   0  0  0  0  0  0  0  0  0  0  0  0
   -0.2388   -1.4365   -4.2880 N   0  0  0  0  0  0  0  0  0  0  0  0
   -0.6764   -1.9545   -5.0562 H   0  0  0  0  0  0  0  0  0  0  0  0
   -0.7690   -0.3097   -3.6696 C   0  0  0  0  0  0  0  0  0  0  0  0
   -1.7088    0.1912   -3.9002 H   0  0  0  0  0  0  0  0  0  0  0  0
   -0.0749    1.9830    0.6666 C   0  0  0  0  0  0  0  0  0  0  0  0
    0.5980    2.9590    0.3687 O   0  0  0  0  0  0  0  0  0  0  0  0
   -0.7515    1.9661    1.8725 N   0  0  0  0  0  0  0  0  0  0  0  0
   -1.1490    1.0738    2.1574 H   0  0  0  0  0  0  0  0  0  0  0  0
   -0.6014    3.0121    2.8812 C   0  0  0  0  0  0  0  0  0  0  0  0
   -0.8330    3.9947    2.4556 H   0  0  0  0  0  0  0  0  0  0  0  0
   -1.2835    2.8344    3.7187 H   0  0  0  0  0  0  0  0  0  0  0  0
    0.4239    3.0310    3.2665 H   0  0  0  0  0  0  0  0  0  0  0  0
  1  2  1  0  0  0  0
  2  3  1  0  0  0  0
  2  4  1  0  0  0  0
  2  5  1  0  0  0  0
  5  6  2  0  0  0  0
  5  7  1  0  0  0  0
  7  8  1  0  0  0  0
  7  9  1  0  0  0  0
  9 10  1  0  0  0  0
  9 11  1  0  0  0  0
  9 23  1  0  0  0  0
 11 12  1  0  0  0  0
 11 13  1  0  0  0  0
 11 14  1  0  0  0  0
 14 15  1  0  0  0  0
 14 21  2  0  0  0  0
 15 16  1  0  0  0  0
 15 17  2  0  0  0  0
 17 18  1  0  0  0  0
 17 19  1  0  0  0  0
 19 20  1  0  0  0  0
 19 21  1  0  0  0  0
 21 22  1  0  0  0  0
 23 24  2  0  0  0  0
 23 25  1  0  0  0  0
 25 26  1  0  0  0  0
 25 27  1  0  0  0  0
 27 28  1  0  0  0  0
 27 29  1  0  0  0  0
 27 30  1  0  0  0  0
M  CHG  1  15   1
M  END
$$$$

  -OEChem-01062216083D

 30 30  0     1  0  0  0  0  0999 V2000
   -3.2690   -2.2008    1.4627 H   0  0  0  0  0  0  0  0  0  0  0  0
   -3.2464   -1.3396    0.7883 C   0  0  0  0  0  0  0  0  0  0  0  0
   -3.8393   -0.5345    1.2295 H   0  0  0  0  0  0  0  0  0  0  0  0
   -3.6915   -1.6310   -0.1659 H   0  0  0  0  0  0  0  0  0  0  0  0
   -1.8167   -0.8796    0.5791 C   0  0  0  0  0  0  0  0  0  0  0  0
   -0.9027   -1.4141    1.1836 O   0  0  0  0  0  0  0  0  0  0  0  0
   -1.5375    0.1841   -0.2577 N   0  0  0  0  0  0  0  0  0  0  0  0
   -2.3416    0.7251   -0.5692 H   0  0  0  0  0  0  0  0  0  0  0  0
   -0.2030    0.8154   -0.3416 C   0  0  1  0  0  0  0  0  0  0  0  0
    0.5701    0.0922   -0.0617 H   0  0  0  0  0  0  0  0  0  0  0  0
    0.0823    1.2493   -1.7936 C   0  0  0  0  0  0  0  0  0  0  0  0
   -0.6978    1.9434   -2.1246 H   0  0  0  0  0  0  0  0  0  0  0  0
    1.0340    1.7910   -1.8425 H   0  0  0  0  0  0  0  0  0  0  0  0
    0.1514    0.0556   -2.7155 C   0  0  0  0  0  0  0  0  0  0  0  0
    1.2094   -0.8517   -2.8005 N   0  3  0  0  0  0  0  0  0  0  0  0
    2.0341   -0.8061   -2.1951 H   0  0  0  0  0  0  0  0  0  0  0  0
    0.9722   -1.7418   -3.7333 C   0  0  0  0  0  0  0  0  0  0  0  0
    1.6206   -2.5743   -4.0139 H   0  0  0  0  0  0  0  0  0  0  0  0
   -0.2595   -1.4246   -4.3019 N   0  0  0  0  0  0  0  0  0  0  0  0
   -0.7102   -1.9309   -5.0705 H   0  0  0  0  0  0  0  0  0  0  0  0
   -0.7684   -0.2943   -3.6721 C   0  0  0  0  0  0  0  0  0  0  0  0
   -1.7012    0.2239   -3.8941 H   0  0  0  0  0  0  0  0  0  0  0  0
   -0.0549    1.9757    0.6672 C   0  0  0  0  0  0  0  0  0  0  0  0
    0.3915    3.0543    0.3045 O   0  0  0  0  0  0  0  0  0  0  0  0
   -0.4849    1.8146    1.9708 N   0  0  0  0  0  0  0  0  0  0  0  0
   -0.7238    0.8674    2.2619 H   0  0  0  0  0  0  0  0  0  0  0  0
   -0.3437    2.8472    2.9936 C   0  0  0  0  0  0  0  0  0  0  0  0
   -0.8255    3.7771    2.6717 H   0  0  0  0  0  0  0  0  0  0  0  0
   -0.8145    2.5243    3.9276 H   0  0  0  0  0  0  0  0  0  0  0  0
    0.7143    3.0512    3.1909 H   0  0  0  0  0  0  0  0  0  0  0  0
  1  2  1  0  0  0  0
  2  3  1  0  0  0  0
  2  4  1  0  0  0  0
  2  5  1  0  0  0  0
  5  6  2  0  0  0  0
  5  7  1  0  0  0  0
  7  8  1  0  0  0  0
  7  9  1  0  0  0  0
  9 10  1  0  0  0  0
  9 11  1  0  0  0  0
  9 23  1  0  0  0  0
 11 12  1  0  0  0  0
 11 13  1  0  0  0  0
 11 14  1  0  0  0  0
 14 15  1  0  0  0  0
 14 21  2  0  0  0  0
 15 16  1  0  0  0  0
 15 17  2  0  0  0  0
 17 18  1  0  0  0  0
 17 19  1  0  0  0  0
 19 20  1  0  0  0  0
 19 21  1  0  0  0  0
 21 22  1  0  0  0  0
 23 24  2  0  0  0  0
 23 25  1  0  0  0  0
 25 26  1  0  0  0  0
 25 27  1  0  0  0  0
 27 28  1  0  0  0  0
 27 29  1  0  0  0  0
 27 30  1  0  0  0  0
M  CHG  1  15   1
M  END
$$$$

  -OEChem-01062216083D

 30 30  0     1  0  0  0  0  0999 V2000
   -3.2438   -2.1724    1.5023 H   0  0  0  0  0  0  0  0  0  0  0  0
   -3.2220   -1.3133    0.8254 C   0  0  0  0  0  0  0  0  0  0  0  0
   -3.7961   -0.4992    1.2752 H   0  0  0  0  0  0  0  0  0  0  0  0
   -3.6882   -1.6006   -0.1199 H   0  0  0  0  0  0  0  0  0  0  0  0
   -1.7904   -0.8727    0.5895 C   0  0  0  0  0  0  0  0  0  0  0  0
   -0.8721   -1.4171    1.1802 O   0  0  0  0  0  0  0  0  0  0  0  0
   -1.5124    0.1836   -0.2569 N   0  0  0  0  0  0  0  0  0  0  0  0
   -2.3143    0.7383   -0.5500 H   0  0  0  0  0  0  0  0  0  0  0  0
   -0.1743    0.8031   -0.3451 C   0  0  1  0  0  0  0  0  0  0  0  0
    0.5988    0.0779   -0.0692 H   0  0  0  0  0  0  0  0  0  0  0  0
    0.1097    1.2424   -1.7949 C   0  0  0  0  0  0  0  0  0  0  0  0
   -0.6675    1.9430   -2.1197 H   0  0  0  0  0  0  0  0  0  0  0  0
    1.0638    1.7805   -1.8407 H   0  0  0  0  0  0  0  0  0  0  0  0
    0.1649    0.0538   -2.7244 C   0  0  0  0  0  0  0  0  0  0  0  0
    1.2125   -0.8644   -2.8217 N   0  3  0  0  0  0  0  0  0  0  0  0
    2.0421   -0.8306   -2.2227 H   0  0  0  0  0  0  0  0  0  0  0  0
    0.9574   -1.7491   -3.7549 C   0  0  0  0  0  0  0  0  0  0  0  0
    1.5936   -2.5885   -4.0433 H   0  0  0  0  0  0  0  0  0  0  0  0
   -0.2757   -1.4167   -4.3118 N   0  0  0  0  0  0  0  0  0  0  0  0
   -0.7394   -1.9163   -5.0771 H   0  0  0  0  0  0  0  0  0  0  0  0
   -0.7669   -0.2834   -3.6737 C   0  0  0  0  0  0  0  0  0  0  0  0
   -1.6973    0.2441   -3.8835 H   0  0  0  0  0  0  0  0  0  0  0  0
   -0.0358    1.9631    0.6624 C   0  0  0  0  0  0  0  0  0  0  0  0
    0.1773    3.1015    0.2713 O   0  0  0  0  0  0  0  0  0  0  0  0
   -0.1814    1.7117    2.0132 N   0  0  0  0  0  0  0  0  0  0  0  0
   -0.3144    0.7408    2.2971 H   0  0  0  0  0  0  0  0  0  0  0  0
   -0.0464    2.7383    3.0423 C   0  0  0  0  0  0  0  0  0  0  0  0
   -0.7603    3.5513    2.8712 H   0  0  0  0  0  0  0  0  0  0  0  0
   -0.2415    2.3132    4.0320 H   0  0  0  0  0  0  0  0  0  0  0  0
    0.9665    3.1553    3.0387 H   0  0  0  0  0  0  0  0  0  0  0  0
  1  2  1  0  0  0  0
  2  3  1  0  0  0  0
  2  4  1  0  0  0  0
  2  5  1  0  0  0  0
  5  6  2  0  0  0  0
  5  7  1  0  0  0  0
  7  8  1  0  0  0  0
  7  9  1  0  0  0  0
  9 10  1  0  0  0  0
  9 11  1  0  0  0  0
  9 23  1  0  0  0  0
 11 12  1  0  0  0  0
 11 13  1  0  0  0  0
 11 14  1  0  0  0  0
 14 15  1  0  0  0  0
 14 21  2  0  0  0  0
 15 16  1  0  0  0  0
 15 17  2  0  0  0  0
 17 18  1  0  0  0  0
 17 19  1  0  0  0  0
 19 20  1  0  0  0  0
 19 21  1  0  0  0  0
 21 22  1  0  0  0  0
 23 24  2  0  0  0  0
 23 25  1  0  0  0  0
 25 26  1  0  0  0  0
 25 27  1  0  0  0  0
 27 28  1  0  0  0  0
 27 29  1  0  0  0  0
 27 30  1  0  0  0  0
M  CHG  1  15   1
M  END
$$$$

  -OEChem-01062216083D

 30 30  0     1  0  0  0  0  0999 V2000
   -3.2170   -2.1322    1.5513 H   0  0  0  0  0  0  0  0  0  0  0  0
   -3.1931   -1.2779    0.8685 C   0  0  0  0  0  0  0  0  0  0  0  0
   -3.7406   -0.4497    1.3257 H   0  0  0  0  0  0  0  0  0  0  0  0
   -3.6855   -1.5613   -0.0646 H   0  0  0  0  0  0  0  0  0  0  0  0
   -1.7588   -0.8669    0.5986 C   0  0  0  0  0  0  0  0  0  0  0  0
   -0.8380   -1.4317    1.1669 O   0  0  0  0  0  0  0  0  0  0  0  0
   -1.4790    0.1804   -0.2588 N   0  0  0  0  0  0  0  0  0  0  0  0
   -2.2756    0.7526   -0.5325 H   0  0  0  0  0  0  0  0  0  0  0  0
   -0.1352    0.7834   -0.3498 C   0  0  1  0  0  0  0  0  0  0  0  0
    0.6348    0.0534   -0.0784 H   0  0  0  0  0  0  0  0  0  0  0  0
    0.1448    1.2288   -1.7978 C   0  0  0  0  0  0  0  0  0  0  0  0
   -0.6286    1.9379   -2.1140 H   0  0  0  0  0  0  0  0  0  0  0  0
    1.1025    1.7598   -1.8441 H   0  0  0  0  0  0  0  0  0  0  0  0
    0.1798    0.0462   -2.7357 C   0  0  0  0  0  0  0  0  0  0  0  0
    1.2131   -0.8862   -2.8496 N   0  3  0  0  0  0  0  0  0  0  0  0
    2.0480   -0.8701   -2.2574 H   0  0  0  0  0  0  0  0  0  0  0  0
    0.9370   -1.7594   -3.7879 C   0  0  0  0  0  0  0  0  0  0  0  0
    1.5581   -2.6056   -4.0890 H   0  0  0  0  0  0  0  0  0  0  0  0
   -0.2959   -1.4046   -4.3311 N   0  0  0  0  0  0  0  0  0  0  0  0
   -0.7734   -1.8905   -5.0966 H   0  0  0  0  0  0  0  0  0  0  0  0
   -0.7654   -0.2702   -3.6790 C   0  0  0  0  0  0  0  0  0  0  0  0
   -1.6908    0.2717   -3.8754 H   0  0  0  0  0  0  0  0  0  0  0  0
    0.0020    1.9453    0.6529 C   0  0  0  0  0  0  0  0  0  0  0  0
   -0.0293    3.1038    0.2636 O   0  0  0  0  0  0  0  0  0  0  0  0
    0.1568    1.6659    1.9967 N   0  0  0  0  0  0  0  0  0  0  0  0
    0.1050    0.6876    2.2813 H   0  0  0  0  0  0  0  0  0  0  0  0
    0.2454    2.6971    3.0261 C   0  0  0  0  0  0  0  0  0  0  0  0
   -0.6722    3.2947    3.0518 H   0  0  0  0  0  0  0  0  0  0  0  0
    0.3880    2.2403    4.0108 H   0  0  0  0  0  0  0  0  0  0  0  0
    1.0923    3.3639    2.8313 H   0  0  0  0  0  0  0  0  0  0  0  0
  1  2  1  0  0  0  0
  2  3  1  0  0  0  0
  2  4  1  0  0  0  0
  2  5  1  0  0  0  0
  5  6  2  0  0  0  0
  5  7  1  0  0  0  0
  7  8  1  0  0  0  0
  7  9  1  0  0  0  0
  9 10  1  0  0  0  0
  9 11  1  0  0  0  0
  9 23  1  0  0  0  0
 11 12  1  0  0  0  0
 11 13  1  0  0  0  0
 11 14  1  0  0  0  0
 14 15  1  0  0  0  0
 14 21  2  0  0  0  0
 15 16  1  0  0  0  0
 15 17  2  0  0  0  0
 17 18  1  0  0  0  0
 17 19  1  0  0  0  0
 19 20  1  0  0  0  0
 19 21  1  0  0  0  0
 21 22  1  0  0  0  0
 23 24  2  0  0  0  0
 23 25  1  0  0  0  0
 25 26  1  0  0  0  0
 25 27  1  0  0  0  0
 27 28  1  0  0  0  0
 27 29  1  0  0  0  0
 27 30  1  0  0  0  0
M  CHG  1  15   1
M  END
$$$$

  -OEChem-01062216083D

 30 30  0     1  0  0  0  0  0999 V2000
   -3.2027   -2.0936    1.5936 H   0  0  0  0  0  0  0  0  0  0  0  0
   -3.1759   -1.2438    0.9053 C   0  0  0  0  0  0  0  0  0  0  0  0
   -3.6849   -0.3979    1.3743 H   0  0  0  0  0  0  0  0  0  0  0  0
   -3.7053   -1.5173   -0.0103 H   0  0  0  0  0  0  0  0  0  0  0  0
   -1.7400   -0.8750    0.5873 C   0  0  0  0  0  0  0  0  0  0  0  0
   -0.8170   -1.4836    1.1052 O   0  0  0  0  0  0  0  0  0  0  0  0
   -1.4609    0.1693   -0.2741 N   0  0  0  0  0  0  0  0  0  0  0  0
   -2.2521    0.7700   -0.4997 H   0  0  0  0  0  0  0  0  0  0  0  0
   -0.1149    0.7654   -0.3602 C   0  0  1  0  0  0  0  0  0  0  0  0
    0.6538    0.0324   -0.0938 H   0  0  0  0  0  0  0  0  0  0  0  0
    0.1648    1.2204   -1.8048 C   0  0  0  0  0  0  0  0  0  0  0  0
   -0.6075    1.9328   -2.1166 H   0  0  0  0  0  0  0  0  0  0  0  0
    1.1231    1.7499   -1.8484 H   0  0  0  0  0  0  0  0  0  0  0  0
    0.1921    0.0436   -2.7504 C   0  0  0  0  0  0  0  0  0  0  0  0
    1.2192   -0.8945   -2.8740 N   0  3  0  0  0  0  0  0  0  0  0  0
    2.0562   -0.8877   -2.2848 H   0  0  0  0  0  0  0  0  0  0  0  0
    0.9312   -1.7641   -3.8120 C   0  0  0  0  0  0  0  0  0  0  0  0
    1.5438   -2.6149   -4.1175 H   0  0  0  0  0  0  0  0  0  0  0  0
   -0.3026   -1.3996   -4.3470 N   0  0  0  0  0  0  0  0  0  0  0  0
   -0.7894   -1.8820   -5.1089 H   0  0  0  0  0  0  0  0  0  0  0  0
   -0.7612   -0.2648   -3.6881 C   0  0  0  0  0  0  0  0  0  0  0  0
   -1.6869    0.2804   -3.8730 H   0  0  0  0  0  0  0  0  0  0  0  0
    0.0185    1.9280    0.6411 C   0  0  0  0  0  0  0  0  0  0  0  0
   -0.2642    3.0646    0.2908 O   0  0  0  0  0  0  0  0  0  0  0  0
    0.4687    1.6854    1.9245 N   0  0  0  0  0  0  0  0  0  0  0  0
    0.5600    0.7114    2.2111 H   0  0  0  0  0  0  0  0  0  0  0  0
    0.5543    2.7249    2.9465 C   0  0  0  0  0  0  0  0  0  0  0  0
   -0.4394    3.1285    3.1690 H   0  0  0  0  0  0  0  0  0  0  0  0
    0.9771    2.3169    3.8702 H   0  0  0  0  0  0  0  0  0  0  0  0
    1.1971    3.5451    2.6086 H   0  0  0  0  0  0  0  0  0  0  0  0
  1  2  1  0  0  0  0
  2  3  1  0  0  0  0
  2  4  1  0  0  0  0
  2  5  1  0  0  0  0
  5  6  2  0  0  0  0
  5  7  1  0  0  0  0
  7  8  1  0  0  0  0
  7  9  1  0  0  0  0
  9 10  1  0  0  0  0
  9 11  1  0  0  0  0
  9 23  1  0  0  0  0
 11 12  1  0  0  0  0
 11 13  1  0  0  0  0
 11 14  1  0  0  0  0
 14 15  1  0  0  0  0
 14 21  2  0  0  0  0
 15 16  1  0  0  0  0
 15 17  2  0  0  0  0
 17 18  1  0  0  0  0
 17 19  1  0  0  0  0
 19 20  1  0  0  0  0
 19 21  1  0  0  0  0
 21 22  1  0  0  0  0
 23 24  2  0  0  0  0
 23 25  1  0  0  0  0
 25 26  1  0  0  0  0
 25 27  1  0  0  0  0
 27 28  1  0  0  0  0
 27 29  1  0  0  0  0
 27 30  1  0  0  0  0
M  CHG  1  15   1
M  END
$$$$

  -OEChem-01062216083D

 30 30  0     1  0  0  0  0  0999 V2000
   -3.1884   -2.0470    1.6403 H   0  0  0  0  0  0  0  0  0  0  0  0
   -3.1590   -1.2042    0.9435 C   0  0  0  0  0  0  0  0  0  0  0  0
   -3.6261   -0.3392    1.4213 H   0  0  0  0  0  0  0  0  0  0  0  0
   -3.7269   -1.4685    0.0485 H   0  0  0  0  0  0  0  0  0  0  0  0
   -1.7239   -0.8822    0.5751 C   0  0  0  0  0  0  0  0  0  0  0  0
   -0.8037   -1.5315    1.0467 O   0  0  0  0  0  0  0  0  0  0  0  0
   -1.4428    0.1559   -0.2927 N   0  0  0  0  0  0  0  0  0  0  0  0
   -2.2253    0.7827   -0.4759 H   0  0  0  0  0  0  0  0  0  0  0  0
   -0.0938    0.7447   -0.3728 C   0  0  1  0  0  0  0  0  0  0  0  0
    0.6718    0.0086   -0.1064 H   0  0  0  0  0  0  0  0  0  0  0  0
    0.1863    1.2086   -1.8133 C   0  0  0  0  0  0  0  0  0  0  0  0
   -0.5843    1.9258   -2.1184 H   0  0  0  0  0  0  0  0  0  0  0  0
    1.1468    1.7341   -1.8552 H   0  0  0  0  0  0  0  0  0  0  0  0
    0.2056    0.0374   -2.7667 C   0  0  0  0  0  0  0  0  0  0  0  0
    1.2246   -0.9081   -2.9013 N   0  3  0  0  0  0  0  0  0  0  0  0
    2.0629   -0.9142   -2.3141 H   0  0  0  0  0  0  0  0  0  0  0  0
    0.9236   -1.7712   -3.8414 C   0  0  0  0  0  0  0  0  0  0  0  0
    1.5265   -2.6264   -4.1536 H   0  0  0  0  0  0  0  0  0  0  0  0
   -0.3104   -1.3948   -4.3668 N   0  0  0  0  0  0  0  0  0  0  0  0
   -0.8079   -1.8723   -5.1248 H   0  0  0  0  0  0  0  0  0  0  0  0
   -0.7563   -0.2602   -3.6992 C   0  0  0  0  0  0  0  0  0  0  0  0
   -1.6804    0.2913   -3.8737 H   0  0  0  0  0  0  0  0  0  0  0  0
    0.0326    1.9112    0.6237 C   0  0  0  0  0  0  0  0  0  0  0  0
   -0.4900    2.9820    0.3496 O   0  0  0  0  0  0  0  0  0  0  0  0
    0.7455    1.7641    1.7981 N   0  0  0  0  0  0  0  0  0  0  0  0
    1.0131    0.8185    2.0652 H   0  0  0  0  0  0  0  0  0  0  0  0
    0.8246    2.8165    2.8081 C   0  0  0  0  0  0  0  0  0  0  0  0
   -0.1674    3.0268    3.2226 H   0  0  0  0  0  0  0  0  0  0  0  0
    1.4840    2.5107    3.6266 H   0  0  0  0  0  0  0  0  0  0  0  0
    1.2245    3.7392    2.3734 H   0  0  0  0  0  0  0  0  0  0  0  0
  1  2  1  0  0  0  0
  2  3  1  0  0  0  0
  2  4  1  0  0  0  0
  2  5  1  0  0  0  0
  5  6  2  0  0  0  0
  5  7  1  0  0  0  0
  7  8  1  0  0  0  0
  7  9  1  0  0  0  0
  9 10  1  0  0  0  0
  9 11  1  0  0  0  0
  9 23  1  0  0  0  0
 11 12  1  0  0  0  0
 11 13  1  0  0  0  0
 11 14  1  0  0  0  0
 14 15  1  0  0  0  0
 14 21  2  0  0  0  0
 15 16  1  0  0  0  0
 15 17  2  0  0  0  0
 17 18  1  0  0  0  0
 17 19  1  0  0  0  0
 19 20  1  0  0  0  0
 19 21  1  0  0  0  0
 21 22  1  0  0  0  0
 23 24  2  0  0  0  0
 23 25  1  0  0  0  0
 25 26  1  0  0  0  0
 25 27  1  0  0  0  0
 27 28  1  0  0  0  0
 27 29  1  0  0  0  0
 27 30  1  0  0  0  0
M  CHG  1  15   1
M  END
$$$$

  -OEChem-01062216083D

 30 30  0     1  0  0  0  0  0999 V2000
   -3.1788   -2.0259    1.6510 H   0  0  0  0  0  0  0  0  0  0  0  0
   -3.1473   -1.1786    0.9600 C   0  0  0  0  0  0  0  0  0  0  0  0
   -3.5840   -0.3076    1.4549 H   0  0  0  0  0  0  0  0  0  0  0  0
   -3.7406   -1.4235    0.0761 H   0  0  0  0  0  0  0  0  0  0  0  0
   -1.7144   -0.8847    0.5611 C   0  0  0  0  0  0  0  0  0  0  0  0
   -0.7991   -1.5655    0.9969 O   0  0  0  0  0  0  0  0  0  0  0  0
   -1.4309    0.1481   -0.3123 N   0  0  0  0  0  0  0  0  0  0  0  0
   -2.2057    0.7936   -0.4625 H   0  0  0  0  0  0  0  0  0  0  0  0
   -0.0806    0.7348   -0.3862 C   0  0  1  0  0  0  0  0  0  0  0  0
    0.6826   -0.0018   -0.1148 H   0  0  0  0  0  0  0  0  0  0  0  0
    0.1986    1.2035   -1.8234 C   0  0  0  0  0  0  0  0  0  0  0  0
   -0.5710    1.9237   -2.1244 H   0  0  0  0  0  0  0  0  0  0  0  0
    1.1604    1.7259   -1.8652 H   0  0  0  0  0  0  0  0  0  0  0  0
    0.2138    0.0322   -2.7776 C   0  0  0  0  0  0  0  0  0  0  0  0
    1.2269   -0.9188   -2.9188 N   0  3  0  0  0  0  0  0  0  0  0  0
    2.0659   -0.9339   -2.3333 H   0  0  0  0  0  0  0  0  0  0  0  0
    0.9133   -1.7824   -3.8544 C   0  0  0  0  0  0  0  0  0  0  0  0
    1.5071   -2.6436   -4.1676 H   0  0  0  0  0  0  0  0  0  0  0  0
   -0.3217   -1.3994   -4.3723 N   0  0  0  0  0  0  0  0  0  0  0  0
   -0.8298   -1.8780   -5.1226 H   0  0  0  0  0  0  0  0  0  0  0  0
   -0.7566   -0.2621   -3.7024 C   0  0  0  0  0  0  0  0  0  0  0  0
   -1.6811    0.2915   -3.8676 H   0  0  0  0  0  0  0  0  0  0  0  0
    0.0386    1.9075    0.6045 C   0  0  0  0  0  0  0  0  0  0  0  0
   -0.6881    2.8781    0.4443 O   0  0  0  0  0  0  0  0  0  0  0  0
    0.9721    1.8972    1.6238 N   0  0  0  0  0  0  0  0  0  0  0  0
    1.4360    1.0144    1.8254 H   0  0  0  0  0  0  0  0  0  0  0  0
    1.0591    2.9636    2.6185 C   0  0  0  0  0  0  0  0  0  0  0  0
    0.1326    3.0242    3.1998 H   0  0  0  0  0  0  0  0  0  0  0  0
    1.8880    2.7749    3.3081 H   0  0  0  0  0  0  0  0  0  0  0  0
    1.2312    3.9308    2.1336 H   0  0  0  0  0  0  0  0  0  0  0  0
  1  2  1  0  0  0  0
  2  3  1  0  0  0  0
  2  4  1  0  0  0  0
  2  5  1  0  0  0  0
  5  6  2  0  0  0  0
  5  7  1  0  0  0  0
  7  8  1  0  0  0  0
  7  9  1  0  0  0  0
  9 10  1  0  0  0  0
  9 11  1  0  0  0  0
  9 23  1  0  0  0  0
 11 12  1  0  0  0  0
 11 13  1  0  0  0  0
 11 14  1  0  0  0  0
 14 15  1  0  0  0  0
 14 21  2  0  0  0  0
 15 16  1  0  0  0  0
 15 17  2  0  0  0  0
 17 18  1  0  0  0  0
 17 19  1  0  0  0  0
 19 20  1  0  0  0  0
 19 21  1  0  0  0  0
 21 22  1  0  0  0  0
 23 24  2  0  0  0  0
 23 25  1  0  0  0  0
 25 26  1  0  0  0  0
 25 27  1  0  0  0  0
 27 28  1  0  0  0  0
 27 29  1  0  0  0  0
 27 30  1  0  0  0  0
M  CHG  1  15   1
M  END
$$$$

  -OEChem-01062216083D

 30 30  0     1  0  0  0  0  0999 V2000
   -3.1695   -1.9801    1.6931 H   0  0  0  0  0  0  0  0  0  0  0  0
   -3.1399   -1.1403    0.9930 C   0  0  0  0  0  0  0  0  0  0  0  0
   -3.5318   -0.2525    1.4958 H   0  0  0  0  0  0  0  0  0  0  0  0
   -3.7740   -1.3748    0.1349 H   0  0  0  0  0  0  0  0  0  0  0  0
   -1.7157   -0.8910    0.5370 C   0  0  0  0  0  0  0  0  0  0  0  0
   -0.8069   -1.6074    0.9267 O   0  0  0  0  0  0  0  0  0  0  0  0
   -1.4347    0.1402   -0.3388 N   0  0  0  0  0  0  0  0  0  0  0  0
   -2.2021    0.8031   -0.4474 H   0  0  0  0  0  0  0  0  0  0  0  0
   -0.0842    0.7287   -0.4033 C   0  0  1  0  0  0  0  0  0  0  0  0
    0.6768   -0.0072   -0.1243 H   0  0  0  0  0  0  0  0  0  0  0  0
    0.2005    1.2007   -1.8374 C   0  0  0  0  0  0  0  0  0  0  0  0
   -0.5700    1.9193   -2.1400 H   0  0  0  0  0  0  0  0  0  0  0  0
    1.1618    1.7245   -1.8758 H   0  0  0  0  0  0  0  0  0  0  0  0
    0.2210    0.0295   -2.7914 C   0  0  0  0  0  0  0  0  0  0  0  0
    1.2354   -0.9205   -2.9287 N   0  3  0  0  0  0  0  0  0  0  0  0
    2.0722   -0.9353   -2.3403 H   0  0  0  0  0  0  0  0  0  0  0  0
    0.9228   -1.7886   -3.8603 C   0  0  0  0  0  0  0  0  0  0  0  0
    1.5174   -2.6510   -4.1687 H   0  0  0  0  0  0  0  0  0  0  0  0
   -0.3128   -1.4094   -4.3799 N   0  0  0  0  0  0  0  0  0  0  0  0
   -0.8224   -1.8947   -5.1248 H   0  0  0  0  0  0  0  0  0  0  0  0
   -0.7497   -0.2705   -3.7140 C   0  0  0  0  0  0  0  0  0  0  0  0
   -1.6771    0.2787   -3.8780 H   0  0  0  0  0  0  0  0  0  0  0  0
    0.0273    1.9044    0.5851 C   0  0  0  0  0  0  0  0  0  0  0  0
   -0.8514    2.7555    0.5699 O   0  0  0  0  0  0  0  0  0  0  0  0
    1.1258    2.0553    1.4110 N   0  0  0  0  0  0  0  0  0  0  0  0
    1.7580    1.2648    1.5055 H   0  0  0  0  0  0  0  0  0  0  0  0
    1.2298    3.1397    2.3845 C   0  0  0  0  0  0  0  0  0  0  0  0
    0.4286    3.0669    3.1284 H   0  0  0  0  0  0  0  0  0  0  0  0
    2.1911    3.0937    2.9061 H   0  0  0  0  0  0  0  0  0  0  0  0
    1.1577    4.1130    1.8868 H   0  0  0  0  0  0  0  0  0  0  0  0
  1  2  1  0  0  0  0
  2  3  1  0  0  0  0
  2  4  1  0  0  0  0
  2  5  1  0  0  0  0
  5  6  2  0  0  0  0
  5  7  1  0  0  0  0
  7  8  1  0  0  0  0
  7  9  1  0  0  0  0
  9 10  1  0  0  0  0
  9 11  1  0  0  0  0
  9 23  1  0  0  0  0
 11 12  1  0  0  0  0
 11 13  1  0  0  0  0
 11 14  1  0  0  0  0
 14 15  1  0  0  0  0
 14 21  2  0  0  0  0
 15 16  1  0  0  0  0
 15 17  2  0  0  0  0
 17 18  1  0  0  0  0
 17 19  1  0  0  0  0
 19 20  1  0  0  0  0
 19 21  1  0  0  0  0
 21 22  1  0  0  0  0
 23 24  2  0  0  0  0
 23 25  1  0  0  0  0
 25 26  1  0  0  0  0
 25 27  1  0  0  0  0
 27 28  1  0  0  0  0
 27 29  1  0  0  0  0
 27 30  1  0  0  0  0
M  CHG  1  15   1
M  END
$$$$

  -OEChem-01062216083D

 30 30  0     1  0  0  0  0  0999 V2000
   -3.1613   -1.9740    1.6909 H   0  0  0  0  0  0  0  0  0  0  0  0
   -3.1361   -1.1242    1.0028 C   0  0  0  0  0  0  0  0  0  0  0  0
   -3.5005   -0.2381    1.5289 H   0  0  0  0  0  0  0  0  0  0  0  0
   -3.7958   -1.3356    0.1582 H   0  0  0  0  0  0  0  0  0  0  0  0
   -1.7199   -0.8906    0.5137 C   0  0  0  0  0  0  0  0  0  0  0  0
   -0.8133   -1.6277    0.8688 O   0  0  0  0  0  0  0  0  0  0  0  0
   -1.4451    0.1423   -0.3623 N   0  0  0  0  0  0  0  0  0  0  0  0
   -2.2093    0.8144   -0.4361 H   0  0  0  0  0  0  0  0  0  0  0  0
   -0.0952    0.7360   -0.4164 C   0  0  1  0  0  0  0  0  0  0  0  0
    0.6656    0.0028   -0.1299 H   0  0  0  0  0  0  0  0  0  0  0  0
    0.1949    1.2055   -1.8494 C   0  0  0  0  0  0  0  0  0  0  0  0
   -0.5782    1.9191   -2.1570 H   0  0  0  0  0  0  0  0  0  0  0  0
    1.1542    1.7331   -1.8869 H   0  0  0  0  0  0  0  0  0  0  0  0
    0.2239    0.0286   -2.7968 C   0  0  0  0  0  0  0  0  0  0  0  0
    1.2406   -0.9207   -2.9261 N   0  3  0  0  0  0  0  0  0  0  0  0
    2.0727   -0.9348   -2.3313 H   0  0  0  0  0  0  0  0  0  0  0  0
    0.9288   -1.7987   -3.8489 C   0  0  0  0  0  0  0  0  0  0  0  0
    1.5218   -2.6662   -4.1456 H   0  0  0  0  0  0  0  0  0  0  0  0
   -0.3056   -1.4243   -4.3745 N   0  0  0  0  0  0  0  0  0  0  0  0
   -0.8162   -1.9189   -5.1127 H   0  0  0  0  0  0  0  0  0  0  0  0
   -0.7442   -0.2800   -3.7192 C   0  0  0  0  0  0  0  0  0  0  0  0
   -1.6730    0.2652   -3.8883 H   0  0  0  0  0  0  0  0  0  0  0  0
    0.0113    1.9137    0.5724 C   0  0  0  0  0  0  0  0  0  0  0  0
   -0.9649    2.6359    0.7234 O   0  0  0  0  0  0  0  0  0  0  0  0
    1.2115    2.2427    1.1758 N   0  0  0  0  0  0  0  0  0  0  0  0
    1.9656    1.5628    1.1336 H   0  0  0  0  0  0  0  0  0  0  0  0
    1.3348    3.3490    2.1224 C   0  0  0  0  0  0  0  0  0  0  0  0
    0.7039    3.1755    3.0010 H   0  0  0  0  0  0  0  0  0  0  0  0
    2.3721    3.4512    2.4567 H   0  0  0  0  0  0  0  0  0  0  0  0
    1.0316    4.2923    1.6550 H   0  0  0  0  0  0  0  0  0  0  0  0
  1  2  1  0  0  0  0
  2  3  1  0  0  0  0
  2  4  1  0  0  0  0
  2  5  1  0  0  0  0
  5  6  2  0  0  0  0
  5  7  1  0  0  0  0
  7  8  1  0  0  0  0
  7  9  1  0  0  0  0
  9 10  1  0  0  0  0
  9 11  1  0  0  0  0
  9 23  1  0  0  0  0
 11 12  1  0  0  0  0
 11 13  1  0  0  0  0
 11 14  1  0  0  0  0
 14 15  1  0  0  0  0
 14 21  2  0  0  0  0
 15 16  1  0  0  0  0
 15 17  2  0  0  0  0
 17 18  1  0  0  0  0
 17 19  1  0  0  0  0
 19 20  1  0  0  0  0
 19 21  1  0  0  0  0
 21 22  1  0  0  0  0
 23 24  2  0  0  0  0
 23 25  1  0  0  0  0
 25 26  1  0  0  0  0
 25 27  1  0  0  0  0
 27 28  1  0  0  0  0
 27 29  1  0  0  0  0
 27 30  1  0  0  0  0
M  CHG  1  15   1
M  END
$$$$

  -OEChem-01062216083D

 30 30  0     1  0  0  0  0  0999 V2000
   -3.1428   -1.9559    1.6966 H   0  0  0  0  0  0  0  0  0  0  0  0
   -3.1240   -1.0964    1.0205 C   0  0  0  0  0  0  0  0  0  0  0  0
   -3.4383   -0.2085    1.5752 H   0  0  0  0  0  0  0  0  0  0  0  0
   -3.8266   -1.2753    0.2035 H   0  0  0  0  0  0  0  0  0  0  0  0
   -1.7248   -0.8930    0.4732 C   0  0  0  0  0  0  0  0  0  0  0  0
   -0.8242   -1.6622    0.7721 O   0  0  0  0  0  0  0  0  0  0  0  0
   -1.4602    0.1490   -0.3952 N   0  0  0  0  0  0  0  0  0  0  0  0
   -2.2223    0.8266   -0.4284 H   0  0  0  0  0  0  0  0  0  0  0  0
   -0.1123    0.7504   -0.4352 C   0  0  1  0  0  0  0  0  0  0  0  0
    0.6492    0.0203   -0.1425 H   0  0  0  0  0  0  0  0  0  0  0  0
    0.1819    1.2137   -1.8698 C   0  0  0  0  0  0  0  0  0  0  0  0
   -0.5947    1.9191   -2.1868 H   0  0  0  0  0  0  0  0  0  0  0  0
    1.1379    1.7465   -1.9092 H   0  0  0  0  0  0  0  0  0  0  0  0
    0.2230    0.0273   -2.8059 C   0  0  0  0  0  0  0  0  0  0  0  0
    1.2466   -0.9166   -2.9207 N   0  3  0  0  0  0  0  0  0  0  0  0
    2.0738   -0.9220   -2.3189 H   0  0  0  0  0  0  0  0  0  0  0  0
    0.9425   -1.8096   -3.8314 C   0  0  0  0  0  0  0  0  0  0  0  0
    1.5399   -2.6795   -4.1117 H   0  0  0  0  0  0  0  0  0  0  0  0
   -0.2919   -1.4497   -4.3664 N   0  0  0  0  0  0  0  0  0  0  0  0
   -0.7988   -1.9605   -5.0958 H   0  0  0  0  0  0  0  0  0  0  0  0
   -0.7402   -0.3001   -3.7273 C   0  0  0  0  0  0  0  0  0  0  0  0
   -1.6735    0.2347   -3.9045 H   0  0  0  0  0  0  0  0  0  0  0  0
   -0.0088    1.9237    0.5634 C   0  0  0  0  0  0  0  0  0  0  0  0
   -1.0355    2.4901    0.9147 O   0  0  0  0  0  0  0  0  0  0  0  0
    1.2177    2.4448    0.9362 N   0  0  0  0  0  0  0  0  0  0  0  0
    2.0511    1.9047    0.7224 H   0  0  0  0  0  0  0  0  0  0  0  0
    1.3444    3.5675    1.8634 C   0  0  0  0  0  0  0  0  0  0  0  0
    0.8956    3.3199    2.8317 H   0  0  0  0  0  0  0  0  0  0  0  0
    2.3989    3.8126    2.0252 H   0  0  0  0  0  0  0  0  0  0  0  0
    0.8440    4.4563    1.4636 H   0  0  0  0  0  0  0  0  0  0  0  0
  1  2  1  0  0  0  0
  2  3  1  0  0  0  0
  2  4  1  0  0  0  0
  2  5  1  0  0  0  0
  5  6  2  0  0  0  0
  5  7  1  0  0  0  0
  7  8  1  0  0  0  0
  7  9  1  0  0  0  0
  9 10  1  0  0  0  0
  9 11  1  0  0  0  0
  9 23  1  0  0  0  0
 11 12  1  0  0  0  0
 11 13  1  0  0  0  0
 11 14  1  0  0  0  0
 14 15  1  0  0  0  0
 14 21  2  0  0  0  0
 15 16  1  0  0  0  0
 15 17  2  0  0  0  0
 17 18  1  0  0  0  0
 17 19  1  0  0  0  0
 19 20  1  0  0  0  0
 19 21  1  0  0  0  0
 21 22  1  0  0  0  0
 23 24  2  0  0  0  0
 23 25  1  0  0  0  0
 25 26  1  0  0  0  0
 25 27  1  0  0  0  0
 27 28  1  0  0  0  0
 27 29  1  0  0  0  0
 27 30  1  0  0  0  0
M  CHG  1  15   1
M  END
$$$$

  -OEChem-01062216083D

 30 30  0     1  0  0  0  0  0999 V2000
   -3.0628   -2.0036    1.7035 H   0  0  0  0  0  0  0  0  0  0  0  0
   -3.0795   -1.1244    1.0528 C   0  0  0  0  0  0  0  0  0  0  0  0
   -3.3686   -0.2547    1.6486 H   0  0  0  0  0  0  0  0  0  0  0  0
   -3.8194   -1.2827    0.2650 H   0  0  0  0  0  0  0  0  0  0  0  0
   -1.7084   -0.8985    0.4471 C   0  0  0  0  0  0  0  0  0  0  0  0
   -0.7871   -1.6609    0.6954 O   0  0  0  0  0  0  0  0  0  0  0  0
   -1.4909    0.1566   -0.4208 N   0  0  0  0  0  0  0  0  0  0  0  0
   -2.2655    0.8175   -0.4083 H   0  0  0  0  0  0  0  0  0  0  0  0
   -0.1503    0.7760   -0.4583 C   0  0  1  0  0  0  0  0  0  0  0  0
    0.6229    0.0004   -0.4359 H   0  0  0  0  0  0  0  0  0  0  0  0
   -0.0123    1.5653   -1.7711 C   0  0  0  0  0  0  0  0  0  0  0  0
   -0.8143    2.3097   -1.8294 H   0  0  0  0  0  0  0  0  0  0  0  0
    0.9364    2.1116   -1.7922 H   0  0  0  0  0  0  0  0  0  0  0  0
   -0.0790    0.6323   -2.9590 C   0  0  0  0  0  0  0  0  0  0  0  0
    0.9238   -0.2355   -3.3993 N   0  3  0  0  0  0  0  0  0  0  0  0
    1.8123   -0.3610   -2.9077 H   0  0  0  0  0  0  0  0  0  0  0  0
    0.5240   -0.8922   -4.4615 C   0  0  0  0  0  0  0  0  0  0  0  0
    1.0883   -1.6545   -5.0029 H   0  0  0  0  0  0  0  0  0  0  0  0
   -0.7592   -0.4441   -4.7650 N   0  0  0  0  0  0  0  0  0  0  0  0
   -1.3395   -0.7750   -5.5423 H   0  0  0  0  0  0  0  0  0  0  0  0
   -1.1346    0.5115   -3.8283 C   0  0  0  0  0  0  0  0  0  0  0  0
   -2.0788    1.0539   -3.7797 H   0  0  0  0  0  0  0  0  0  0  0  0
    0.0959    1.6774    0.7767 C   0  0  0  0  0  0  0  0  0  0  0  0
   -0.8467    1.9653    1.5026 O   0  0  0  0  0  0  0  0  0  0  0  0
    1.2936    2.3523    0.9423 N   0  0  0  0  0  0  0  0  0  0  0  0
    2.0940    2.0415    0.4005 H   0  0  0  0  0  0  0  0  0  0  0  0
    1.5343    3.2578    2.0642 C   0  0  0  0  0  0  0  0  0  0  0  0
    1.4331    2.7259    3.0168 H   0  0  0  0  0  0  0  0  0  0  0  0
    2.5445    3.6753    2.0079 H   0  0  0  0  0  0  0  0  0  0  0  0
    0.8194    4.0878    2.0500 H   0  0  0  0  0  0  0  0  0  0  0  0
  1  2  1  0  0  0  0
  2  3  1  0  0  0  0
  2  4  1  0  0  0  0
  2  5  1  0  0  0  0
  5  6  2  0  0  0  0
  5  7  1  0  0  0  0
  7  8  1  0  0  0  0
  7  9  1  0  0  0  0
  9 10  1  0  0  0  0
  9 11  1  0  0  0  0
  9 23  1  0  0  0  0
 11 12  1  0  0  0  0
 11 13  1  0  0  0  0
 11 14  1  0  0  0  0
 14 15  1  0  0  0  0
 14 21  2  0  0  0  0
 15 16  1  0  0  0  0
 15 17  2  0  0  0  0
 17 18  1  0  0  0  0
 17 19  1  0  0  0  0
 19 20  1  0  0  0  0
 19 21  1  0  0  0  0
 21 22  1  0  0  0  0
 23 24  2  0  0  0  0
 23 25  1  0  0  0  0
 25 26  1  0  0  0  0
 25 27  1  0  0  0  0
 27 28  1  0  0  0  0
 27 29  1  0  0  0  0
 27 30  1  0  0  0  0
M  CHG  1  15   1
M  END
$$$$

  -OEChem-01062216083D

 30 30  0     1  0  0  0  0  0999 V2000
   -3.0478   -2.0198    1.6624 H   0  0  0  0  0  0  0  0  0  0  0  0
   -3.0671   -1.1091    1.0569 C   0  0  0  0  0  0  0  0  0  0  0  0
   -3.3126   -0.2641    1.7056 H   0  0  0  0  0  0  0  0  0  0  0  0
   -3.8387   -1.2111    0.2907 H   0  0  0  0  0  0  0  0  0  0  0  0
   -1.7132   -0.8849    0.4127 C   0  0  0  0  0  0  0  0  0  0  0  0
   -0.7993   -1.6737    0.5996 O   0  0  0  0  0  0  0  0  0  0  0  0
   -1.5073    0.1858   -0.4399 N   0  0  0  0  0  0  0  0  0  0  0  0
   -2.2841    0.8425   -0.4062 H   0  0  0  0  0  0  0  0  0  0  0  0
   -0.1679    0.8110   -0.4728 C   0  0  1  0  0  0  0  0  0  0  0  0
    0.6062    0.0361   -0.4504 H   0  0  0  0  0  0  0  0  0  0  0  0
   -0.0280    1.5844   -1.7965 C   0  0  0  0  0  0  0  0  0  0  0  0
   -0.8333    2.3237   -1.8700 H   0  0  0  0  0  0  0  0  0  0  0  0
    0.9187    2.1322   -1.8275 H   0  0  0  0  0  0  0  0  0  0  0  0
   -0.0842    0.6287   -2.9673 C   0  0  0  0  0  0  0  0  0  0  0  0
    0.9257   -0.2416   -3.3868 N   0  3  0  0  0  0  0  0  0  0  0  0
    1.8085   -0.3606   -2.8834 H   0  0  0  0  0  0  0  0  0  0  0  0
    0.5335   -0.9223   -4.4365 C   0  0  0  0  0  0  0  0  0  0  0  0
    1.1022   -1.6951   -4.9580 H   0  0  0  0  0  0  0  0  0  0  0  0
   -0.7500   -0.4862   -4.7554 N   0  0  0  0  0  0  0  0  0  0  0  0
   -1.3265   -0.8388   -5.5259 H   0  0  0  0  0  0  0  0  0  0  0  0
   -1.1351    0.4848   -3.8388 C   0  0  0  0  0  0  0  0  0  0  0  0
   -2.0838    1.0203   -3.8042 H   0  0  0  0  0  0  0  0  0  0  0  0
    0.0891    1.6974    0.7756 C   0  0  0  0  0  0  0  0  0  0  0  0
   -0.7573    1.7568    1.6573 O   0  0  0  0  0  0  0  0  0  0  0  0
    1.1341    2.6063    0.8128 N   0  0  0  0  0  0  0  0  0  0  0  0
    1.8756    2.5128    0.1264 H   0  0  0  0  0  0  0  0  0  0  0  0
    1.3513    3.5131    1.9388 C   0  0  0  0  0  0  0  0  0  0  0  0
    1.4848    2.9484    2.8682 H   0  0  0  0  0  0  0  0  0  0  0  0
    2.2468    4.1204    1.7733 H   0  0  0  0  0  0  0  0  0  0  0  0
    0.4969    4.1882    2.0600 H   0  0  0  0  0  0  0  0  0  0  0  0
  1  2  1  0  0  0  0
  2  3  1  0  0  0  0
  2  4  1  0  0  0  0
  2  5  1  0  0  0  0
  5  6  2  0  0  0  0
  5  7  1  0  0  0  0
  7  8  1  0  0  0  0
  7  9  1  0  0  0  0
  9 10  1  0  0  0  0
  9 11  1  0  0  0  0
  9 23  1  0  0  0  0
 11 12  1  0  0  0  0
 11 13  1  0  0  0  0
 11 14  1  0  0  0  0
 14 15  1  0  0  0  0
 14 21  2  0  0  0  0
 15 16  1  0  0  0  0
 15 17  2  0  0  0  0
 17 18  1  0  0  0  0
 17 19  1  0  0  0  0
 19 20  1  0  0  0  0
 19 21  1  0  0  0  0
 21 22  1  0  0  0  0
 23 24  2  0  0  0  0
 23 25  1  0  0  0  0
 25 26  1  0  0  0  0
 25 27  1  0  0  0  0
 27 28  1  0  0  0  0
 27 29  1  0  0  0  0
 27 30  1  0  0  0  0
M  CHG  1  15   1
M  END
$$$$

  -OEChem-01062216083D

 30 30  0     1  0  0  0  0  0999 V2000
   -3.0304   -2.0134    1.6457 H   0  0  0  0  0  0  0  0  0  0  0  0
   -3.0604   -1.0942    1.0537 C   0  0  0  0  0  0  0  0  0  0  0  0
   -3.2870   -0.2579    1.7202 H   0  0  0  0  0  0  0  0  0  0  0  0
   -3.8499   -1.1825    0.3042 H   0  0  0  0  0  0  0  0  0  0  0  0
   -1.7209   -0.8658    0.3818 C   0  0  0  0  0  0  0  0  0  0  0  0
   -0.8165   -1.6771    0.5082 O   0  0  0  0  0  0  0  0  0  0  0  0
   -1.5270    0.2202   -0.4546 N   0  0  0  0  0  0  0  0  0  0  0  0
   -2.3081    0.8701   -0.4075 H   0  0  0  0  0  0  0  0  0  0  0  0
   -0.1908    0.8533   -0.4908 C   0  0  1  0  0  0  0  0  0  0  0  0
    0.5838    0.0790   -0.4666 H   0  0  0  0  0  0  0  0  0  0  0  0
   -0.0468    1.6061   -1.8260 C   0  0  0  0  0  0  0  0  0  0  0  0
   -0.8541    2.3410   -1.9184 H   0  0  0  0  0  0  0  0  0  0  0  0
    0.9004    2.1524   -1.8643 H   0  0  0  0  0  0  0  0  0  0  0  0
   -0.0911    0.6257   -2.9773 C   0  0  0  0  0  0  0  0  0  0  0  0
    0.9278   -0.2467   -3.3701 N   0  3  0  0  0  0  0  0  0  0  0  0
    1.8045   -0.3540   -2.8530 H   0  0  0  0  0  0  0  0  0  0  0  0
    0.5465   -0.9559   -4.4048 C   0  0  0  0  0  0  0  0  0  0  0  0
    1.1222   -1.7401   -4.9011 H   0  0  0  0  0  0  0  0  0  0  0  0
   -0.7366   -0.5343   -4.7441 N   0  0  0  0  0  0  0  0  0  0  0  0
   -1.3061   -0.9106   -5.5084 H   0  0  0  0  0  0  0  0  0  0  0  0
   -1.1343    0.4559   -3.8537 C   0  0  0  0  0  0  0  0  0  0  0  0
   -2.0867    0.9856   -3.8385 H   0  0  0  0  0  0  0  0  0  0  0  0
    0.0805    1.7245    0.7677 C   0  0  0  0  0  0  0  0  0  0  0  0
   -0.5861    1.5521    1.7780 O   0  0  0  0  0  0  0  0  0  0  0  0
    0.9043    2.8384    0.7229 N   0  0  0  0  0  0  0  0  0  0  0  0
    1.4892    2.9761   -0.0943 H   0  0  0  0  0  0  0  0  0  0  0  0
    1.1109    3.7173    1.8733 C   0  0  0  0  0  0  0  0  0  0  0  0
    1.5092    3.1520    2.7232 H   0  0  0  0  0  0  0  0  0  0  0  0
    1.8220    4.5116    1.6249 H   0  0  0  0  0  0  0  0  0  0  0  0
    0.1670    4.1841    2.1760 H   0  0  0  0  0  0  0  0  0  0  0  0
  1  2  1  0  0  0  0
  2  3  1  0  0  0  0
  2  4  1  0  0  0  0
  2  5  1  0  0  0  0
  5  6  2  0  0  0  0
  5  7  1  0  0  0  0
  7  8  1  0  0  0  0
  7  9  1  0  0  0  0
  9 10  1  0  0  0  0
  9 11  1  0  0  0  0
  9 23  1  0  0  0  0
 11 12  1  0  0  0  0
 11 13  1  0  0  0  0
 11 14  1  0  0  0  0
 14 15  1  0  0  0  0
 14 21  2  0  0  0  0
 15 16  1  0  0  0  0
 15 17  2  0  0  0  0
 17 18  1  0  0  0  0
 17 19  1  0  0  0  0
 19 20  1  0  0  0  0
 19 21  1  0  0  0  0
 21 22  1  0  0  0  0
 23 24  2  0  0  0  0
 23 25  1  0  0  0  0
 25 26  1  0  0  0  0
 25 27  1  0  0  0  0
 27 28  1  0  0  0  0
 27 29  1  0  0  0  0
 27 30  1  0  0  0  0
M  CHG  1  15   1
M  END
$$$$

  -OEChem-01062216083D

 30 30  0     1  0  0  0  0  0999 V2000
   -3.0172   -2.0068    1.6332 H   0  0  0  0  0  0  0  0  0  0  0  0
   -3.0605   -1.0861    1.0443 C   0  0  0  0  0  0  0  0  0  0  0  0
   -3.2843   -0.2536    1.7165 H   0  0  0  0  0  0  0  0  0  0  0  0
   -3.8586   -1.1773    0.3043 H   0  0  0  0  0  0  0  0  0  0  0  0
   -1.7312   -0.8487    0.3559 C   0  0  0  0  0  0  0  0  0  0  0  0
   -0.8381   -1.6789    0.4267 O   0  0  0  0  0  0  0  0  0  0  0  0
   -1.5478    0.2513   -0.4647 N   0  0  0  0  0  0  0  0  0  0  0  0
   -2.3332    0.8949   -0.4086 H   0  0  0  0  0  0  0  0  0  0  0  0
   -0.2148    0.8905   -0.5089 C   0  0  1  0  0  0  0  0  0  0  0  0
    0.5583    0.1143   -0.4839 H   0  0  0  0  0  0  0  0  0  0  0  0
   -0.0572    1.6306   -1.8488 C   0  0  0  0  0  0  0  0  0  0  0  0
   -0.8620    2.3653   -1.9605 H   0  0  0  0  0  0  0  0  0  0  0  0
    0.8945    2.1706   -1.8819 H   0  0  0  0  0  0  0  0  0  0  0  0
   -0.0909    0.6309   -2.9834 C   0  0  0  0  0  0  0  0  0  0  0  0
    0.9339   -0.2467   -3.3479 N   0  3  0  0  0  0  0  0  0  0  0  0
    1.8034   -0.3443   -2.8167 H   0  0  0  0  0  0  0  0  0  0  0  0
    0.5618   -0.9828   -4.3669 C   0  0  0  0  0  0  0  0  0  0  0  0
    1.1418   -1.7801   -4.8364 H   0  0  0  0  0  0  0  0  0  0  0  0
   -0.7189   -0.5717   -4.7275 N   0  0  0  0  0  0  0  0  0  0  0  0
   -1.2836   -0.9720   -5.4833 H   0  0  0  0  0  0  0  0  0  0  0  0
   -1.1263    0.4388   -3.8645 C   0  0  0  0  0  0  0  0  0  0  0  0
   -2.0809    0.9647   -3.8687 H   0  0  0  0  0  0  0  0  0  0  0  0
    0.0707    1.7440    0.7570 C   0  0  0  0  0  0  0  0  0  0  0  0
   -0.3360    1.3662    1.8448 O   0  0  0  0  0  0  0  0  0  0  0  0
    0.6234    3.0127    0.6796 N   0  0  0  0  0  0  0  0  0  0  0  0
    0.9398    3.3535   -0.2216 H   0  0  0  0  0  0  0  0  0  0  0  0
    0.8197    3.8665    1.8504 C   0  0  0  0  0  0  0  0  0  0  0  0
    1.4777    3.3781    2.5778 H   0  0  0  0  0  0  0  0  0  0  0  0
    1.2767    4.8171    1.5578 H   0  0  0  0  0  0  0  0  0  0  0  0
   -0.1387    4.0808    2.3363 H   0  0  0  0  0  0  0  0  0  0  0  0
  1  2  1  0  0  0  0
  2  3  1  0  0  0  0
  2  4  1  0  0  0  0
  2  5  1  0  0  0  0
  5  6  2  0  0  0  0
  5  7  1  0  0  0  0
  7  8  1  0  0  0  0
  7  9  1  0  0  0  0
  9 10  1  0  0  0  0
  9 11  1  0  0  0  0
  9 23  1  0  0  0  0
 11 12  1  0  0  0  0
 11 13  1  0  0  0  0
 11 14  1  0  0  0  0
 14 15  1  0  0  0  0
 14 21  2  0  0  0  0
 15 16  1  0  0  0  0
 15 17  2  0  0  0  0
 17 18  1  0  0  0  0
 17 19  1  0  0  0  0
 19 20  1  0  0  0  0
 19 21  1  0  0  0  0
 21 22  1  0  0  0  0
 23 24  2  0  0  0  0
 23 25  1  0  0  0  0
 25 26  1  0  0  0  0
 25 27  1  0  0  0  0
 27 28  1  0  0  0  0
 27 29  1  0  0  0  0
 27 30  1  0  0  0  0
M  CHG  1  15   1
M  END
$$$$

  -OEChem-01062216083D

 30 30  0     1  0  0  0  0  0999 V2000
   -3.0180   -2.0134    1.6342 H   0  0  0  0  0  0  0  0  0  0  0  0
   -3.0661   -1.0855    1.0567 C   0  0  0  0  0  0  0  0  0  0  0  0
   -3.2810   -0.2610    1.7413 H   0  0  0  0  0  0  0  0  0  0  0  0
   -3.8728   -1.1669    0.3247 H   0  0  0  0  0  0  0  0  0  0  0  0
   -1.7433   -0.8429    0.3566 C   0  0  0  0  0  0  0  0  0  0  0  0
   -0.8537   -1.6775    0.4081 O   0  0  0  0  0  0  0  0  0  0  0  0
   -1.5677    0.2598   -0.4624 N   0  0  0  0  0  0  0  0  0  0  0  0
   -2.3605    0.8951   -0.4188 H   0  0  0  0  0  0  0  0  0  0  0  0
   -0.2389    0.9061   -0.5140 C   0  0  1  0  0  0  0  0  0  0  0  0
    0.5351    0.1304   -0.4851 H   0  0  0  0  0  0  0  0  0  0  0  0
   -0.0690    1.6394   -1.8546 C   0  0  0  0  0  0  0  0  0  0  0  0
   -0.8753    2.3697   -1.9808 H   0  0  0  0  0  0  0  0  0  0  0  0
    0.8819    2.1829   -1.8750 H   0  0  0  0  0  0  0  0  0  0  0  0
   -0.0903    0.6341   -2.9842 C   0  0  0  0  0  0  0  0  0  0  0  0
    0.9427   -0.2417   -3.3296 N   0  3  0  0  0  0  0  0  0  0  0  0
    1.8055   -0.3322   -2.7858 H   0  0  0  0  0  0  0  0  0  0  0  0
    0.5890   -0.9825   -4.3517 C   0  0  0  0  0  0  0  0  0  0  0  0
    1.1799   -1.7777   -4.8111 H   0  0  0  0  0  0  0  0  0  0  0  0
   -0.6888   -0.5786   -4.7311 N   0  0  0  0  0  0  0  0  0  0  0  0
   -1.2392   -0.9820   -5.4956 H   0  0  0  0  0  0  0  0  0  0  0  0
   -1.1138    0.4322   -3.8768 C   0  0  0  0  0  0  0  0  0  0  0  0
   -2.0714    0.9520   -3.8952 H   0  0  0  0  0  0  0  0  0  0  0  0
    0.0516    1.7575    0.7481 C   0  0  0  0  0  0  0  0  0  0  0  0
   -0.0624    1.2531    1.8530 O   0  0  0  0  0  0  0  0  0  0  0  0
    0.3034    3.1182    0.6727 N   0  0  0  0  0  0  0  0  0  0  0  0
    0.3387    3.5581   -0.2408 H   0  0  0  0  0  0  0  0  0  0  0  0
    0.4892    3.9580    1.8550 C   0  0  0  0  0  0  0  0  0  0  0  0
    1.3176    3.5844    2.4673 H   0  0  0  0  0  0  0  0  0  0  0  0
    0.7175    4.9874    1.5611 H   0  0  0  0  0  0  0  0  0  0  0  0
   -0.4197    3.9674    2.4666 H   0  0  0  0  0  0  0  0  0  0  0  0
  1  2  1  0  0  0  0
  2  3  1  0  0  0  0
  2  4  1  0  0  0  0
  2  5  1  0  0  0  0
  5  6  2  0  0  0  0
  5  7  1  0  0  0  0
  7  8  1  0  0  0  0
  7  9  1  0  0  0  0
  9 10  1  0  0  0  0
  9 11  1  0  0  0  0
  9 23  1  0  0  0  0
 11 12  1  0  0  0  0
 11 13  1  0  0  0  0
 11 14  1  0  0  0  0
 14 15  1  0  0  0  0
 14 21  2  0  0  0  0
 15 16  1  0  0  0  0
 15 17  2  0  0  0  0
 17 18  1  0  0  0  0
 17 19  1  0  0  0  0
 19 20  1  0  0  0  0
 19 21  1  0  0  0  0
 21 22  1  0  0  0  0
 23 24  2  0  0  0  0
 23 25  1  0  0  0  0
 25 26  1  0  0  0  0
 25 27  1  0  0  0  0
 27 28  1  0  0  0  0
 27 29  1  0  0  0  0
 27 30  1  0  0  0  0
M  CHG  1  15   1
M  END
$$$$

  -OEChem-01062216083D

 30 30  0     1  0  0  0  0  0999 V2000
   -3.0436   -2.0286    1.6214 H   0  0  0  0  0  0  0  0  0  0  0  0
   -3.0908   -1.1040    1.0389 C   0  0  0  0  0  0  0  0  0  0  0  0
   -3.3365   -0.2805    1.7139 H   0  0  0  0  0  0  0  0  0  0  0  0
   -3.8767   -1.2016    0.2866 H   0  0  0  0  0  0  0  0  0  0  0  0
   -1.7548   -0.8432    0.3714 C   0  0  0  0  0  0  0  0  0  0  0  0
   -0.8555   -1.6641    0.4482 O   0  0  0  0  0  0  0  0  0  0  0  0
   -1.5820    0.2588   -0.4486 N   0  0  0  0  0  0  0  0  0  0  0  0
   -2.3844    0.8830   -0.4297 H   0  0  0  0  0  0  0  0  0  0  0  0
   -0.2592    0.9148   -0.5075 C   0  0  1  0  0  0  0  0  0  0  0  0
    0.5178    0.1418   -0.4771 H   0  0  0  0  0  0  0  0  0  0  0  0
   -0.0841    1.6476   -1.8468 C   0  0  0  0  0  0  0  0  0  0  0  0
   -0.8929    2.3732   -1.9815 H   0  0  0  0  0  0  0  0  0  0  0  0
    0.8635    2.1976   -1.8569 H   0  0  0  0  0  0  0  0  0  0  0  0
   -0.0943    0.6422   -2.9757 C   0  0  0  0  0  0  0  0  0  0  0  0
    0.9484   -0.2266   -3.3086 N   0  3  0  0  0  0  0  0  0  0  0  0
    1.8070   -0.3078   -2.7565 H   0  0  0  0  0  0  0  0  0  0  0  0
    0.6114   -0.9707   -4.3337 C   0  0  0  0  0  0  0  0  0  0  0  0
    1.2139   -1.7612   -4.7860 H   0  0  0  0  0  0  0  0  0  0  0  0
   -0.6649   -0.5761   -4.7275 N   0  0  0  0  0  0  0  0  0  0  0  0
   -1.2034   -0.9832   -5.4984 H   0  0  0  0  0  0  0  0  0  0  0  0
   -1.1060    0.4338   -3.8800 C   0  0  0  0  0  0  0  0  0  0  0  0
   -2.0657    0.9492   -3.9118 H   0  0  0  0  0  0  0  0  0  0  0  0
    0.0318    1.7703    0.7476 C   0  0  0  0  0  0  0  0  0  0  0  0
    0.2448    1.2181    1.8132 O   0  0  0  0  0  0  0  0  0  0  0  0
   -0.0299    3.1541    0.7167 N   0  0  0  0  0  0  0  0  0  0  0  0
   -0.2696    3.6117   -0.1566 H   0  0  0  0  0  0  0  0  0  0  0  0
    0.1668    3.9829    1.9051 C   0  0  0  0  0  0  0  0  0  0  0  0
    1.1469    3.7866    2.3540 H   0  0  0  0  0  0  0  0  0  0  0  0
    0.1161    5.0450    1.6446 H   0  0  0  0  0  0  0  0  0  0  0  0
   -0.6071    3.7739    2.6519 H   0  0  0  0  0  0  0  0  0  0  0  0
  1  2  1  0  0  0  0
  2  3  1  0  0  0  0
  2  4  1  0  0  0  0
  2  5  1  0  0  0  0
  5  6  2  0  0  0  0
  5  7  1  0  0  0  0
  7  8  1  0  0  0  0
  7  9  1  0  0  0  0
  9 10  1  0  0  0  0
  9 11  1  0  0  0  0
  9 23  1  0  0  0  0
 11 12  1  0  0  0  0
 11 13  1  0  0  0  0
 11 14  1  0  0  0  0
 14 15  1  0  0  0  0
 14 21  2  0  0  0  0
 15 16  1  0  0  0  0
 15 17  2  0  0  0  0
 17 18  1  0  0  0  0
 17 19  1  0  0  0  0
 19 20  1  0  0  0  0
 19 21  1  0  0  0  0
 21 22  1  0  0  0  0
 23 24  2  0  0  0  0
 23 25  1  0  0  0  0
 25 26  1  0  0  0  0
 25 27  1  0  0  0  0
 27 28  1  0  0  0  0
 27 29  1  0  0  0  0
 27 30  1  0  0  0  0
M  CHG  1  15   1
M  END
$$$$

  -OEChem-01062216083D

 30 30  0     1  0  0  0  0  0999 V2000
   -3.0976   -2.0636    1.6132 H   0  0  0  0  0  0  0  0  0  0  0  0
   -3.1570   -1.1722    0.9816 C   0  0  0  0  0  0  0  0  0  0  0  0
   -3.5104   -0.3374    1.5916 H   0  0  0  0  0  0  0  0  0  0  0  0
   -3.8715   -1.3581    0.1766 H   0  0  0  0  0  0  0  0  0  0  0  0
   -1.7905   -0.8543    0.4064 C   0  0  0  0  0  0  0  0  0  0  0  0
   -0.8614   -1.6250    0.5744 O   0  0  0  0  0  0  0  0  0  0  0  0
   -1.6125    0.2480   -0.4123 N   0  0  0  0  0  0  0  0  0  0  0  0
   -2.4307    0.8496   -0.4533 H   0  0  0  0  0  0  0  0  0  0  0  0
   -0.2957    0.9159   -0.4807 C   0  0  1  0  0  0  0  0  0  0  0  0
    0.4819    0.1431   -0.4551 H   0  0  0  0  0  0  0  0  0  0  0  0
   -0.1115    1.6531   -1.8157 C   0  0  0  0  0  0  0  0  0  0  0  0
   -0.9188    2.3788   -1.9555 H   0  0  0  0  0  0  0  0  0  0  0  0
    0.8347    2.2066   -1.8113 H   0  0  0  0  0  0  0  0  0  0  0  0
   -0.1085    0.6537   -2.9493 C   0  0  0  0  0  0  0  0  0  0  0  0
    0.9459   -0.2059   -3.2686 N   0  3  0  0  0  0  0  0  0  0  0  0
    1.7958   -0.2823   -2.7019 H   0  0  0  0  0  0  0  0  0  0  0  0
    0.6352   -0.9422   -4.3073 C   0  0  0  0  0  0  0  0  0  0  0  0
    1.2532   -1.7234   -4.7550 H   0  0  0  0  0  0  0  0  0  0  0  0
   -0.6354   -0.5515   -4.7234 N   0  0  0  0  0  0  0  0  0  0  0  0
   -1.1522   -0.9500   -5.5134 H   0  0  0  0  0  0  0  0  0  0  0  0
   -1.0998    0.4492   -3.8769 C   0  0  0  0  0  0  0  0  0  0  0  0
   -2.0586    0.9643   -3.9297 H   0  0  0  0  0  0  0  0  0  0  0  0
    0.0081    1.7796    0.7629 C   0  0  0  0  0  0  0  0  0  0  0  0
    0.6161    1.2904    1.6990 O   0  0  0  0  0  0  0  0  0  0  0  0
   -0.3517    3.1159    0.8193 N   0  0  0  0  0  0  0  0  0  0  0  0
   -0.8971    3.5046    0.0570 H   0  0  0  0  0  0  0  0  0  0  0  0
   -0.0802    3.9583    1.9825 C   0  0  0  0  0  0  0  0  0  0  0  0
    0.9963    4.0050    2.1813 H   0  0  0  0  0  0  0  0  0  0  0  0
   -0.4418    4.9769    1.8101 H   0  0  0  0  0  0  0  0  0  0  0  0
   -0.5820    3.5603    2.8715 H   0  0  0  0  0  0  0  0  0  0  0  0
  1  2  1  0  0  0  0
  2  3  1  0  0  0  0
  2  4  1  0  0  0  0
  2  5  1  0  0  0  0
  5  6  2  0  0  0  0
  5  7  1  0  0  0  0
  7  8  1  0  0  0  0
  7  9  1  0  0  0  0
  9 10  1  0  0  0  0
  9 11  1  0  0  0  0
  9 23  1  0  0  0  0
 11 12  1  0  0  0  0
 11 13  1  0  0  0  0
 11 14  1  0  0  0  0
 14 15  1  0  0  0  0
 14 21  2  0  0  0  0
 15 16  1  0  0  0  0
 15 17  2  0  0  0  0
 17 18  1  0  0  0  0
 17 19  1  0  0  0  0
 19 20  1  0  0  0  0
 19 21  1  0  0  0  0
 21 22  1  0  0  0  0
 23 24  2  0  0  0  0
 23 25  1  0  0  0  0
 25 26  1  0  0  0  0
 25 27  1  0  0  0  0
 27 28  1  0  0  0  0
 27 29  1  0  0  0  0
 27 30  1  0  0  0  0
M  CHG  1  15   1
M  END
$$$$

  -OEChem-01062216083D

 30 30  0     1  0  0  0  0  0999 V2000
   -3.1866   -2.1506    1.5510 H   0  0  0  0  0  0  0  0  0  0  0  0
   -3.2292   -1.2696    0.9036 C   0  0  0  0  0  0  0  0  0  0  0  0
   -3.6856   -0.4492    1.4627 H   0  0  0  0  0  0  0  0  0  0  0  0
   -3.8496   -1.5024    0.0351 H   0  0  0  0  0  0  0  0  0  0  0  0
   -1.8310   -0.8837    0.4609 C   0  0  0  0  0  0  0  0  0  0  0  0
   -0.8793   -1.5774    0.7710 O   0  0  0  0  0  0  0  0  0  0  0  0
   -1.6349    0.2154   -0.3578 N   0  0  0  0  0  0  0  0  0  0  0  0
   -2.4655    0.7842   -0.4946 H   0  0  0  0  0  0  0  0  0  0  0  0
   -0.3219    0.8912   -0.4316 C   0  0  1  0  0  0  0  0  0  0  0  0
    0.4537    0.1156   -0.4116 H   0  0  0  0  0  0  0  0  0  0  0  0
   -0.1324    1.6429   -1.7574 C   0  0  0  0  0  0  0  0  0  0  0  0
   -0.9370    2.3734   -1.8888 H   0  0  0  0  0  0  0  0  0  0  0  0
    0.8136    2.1966   -1.7395 H   0  0  0  0  0  0  0  0  0  0  0  0
   -0.1229    0.6633   -2.9071 C   0  0  0  0  0  0  0  0  0  0  0  0
    0.9374   -0.1869   -3.2302 N   0  3  0  0  0  0  0  0  0  0  0  0
    1.7843   -0.2658   -2.6587 H   0  0  0  0  0  0  0  0  0  0  0  0
    0.6451   -0.8962   -4.2929 C   0  0  0  0  0  0  0  0  0  0  0  0
    1.2742   -1.6606   -4.7542 H   0  0  0  0  0  0  0  0  0  0  0  0
   -0.6206   -0.4985   -4.7180 N   0  0  0  0  0  0  0  0  0  0  0  0
   -1.1207   -0.8715   -5.5310 H   0  0  0  0  0  0  0  0  0  0  0  0
   -1.0989    0.4819   -3.8554 C   0  0  0  0  0  0  0  0  0  0  0  0
   -2.0535    1.0039   -3.9160 H   0  0  0  0  0  0  0  0  0  0  0  0
   -0.0046    1.7676    0.7971 C   0  0  0  0  0  0  0  0  0  0  0  0
    0.9427    1.4735    1.5064 O   0  0  0  0  0  0  0  0  0  0  0  0
   -0.6233    2.9936    0.9755 N   0  0  0  0  0  0  0  0  0  0  0  0
   -1.4250    3.2171    0.3953 H   0  0  0  0  0  0  0  0  0  0  0  0
   -0.2837    3.8972    2.0729 C   0  0  0  0  0  0  0  0  0  0  0  0
    0.7744    4.1777    2.0272 H   0  0  0  0  0  0  0  0  0  0  0  0
   -0.8831    4.8113    2.0153 H   0  0  0  0  0  0  0  0  0  0  0  0
   -0.4758    3.4180    3.0392 H   0  0  0  0  0  0  0  0  0  0  0  0
  1  2  1  0  0  0  0
  2  3  1  0  0  0  0
  2  4  1  0  0  0  0
  2  5  1  0  0  0  0
  5  6  2  0  0  0  0
  5  7  1  0  0  0  0
  7  8  1  0  0  0  0
  7  9  1  0  0  0  0
  9 10  1  0  0  0  0
  9 11  1  0  0  0  0
  9 23  1  0  0  0  0
 11 12  1  0  0  0  0
 11 13  1  0  0  0  0
 11 14  1  0  0  0  0
 14 15  1  0  0  0  0
 14 21  2  0  0  0  0
 15 16  1  0  0  0  0
 15 17  2  0  0  0  0
 17 18  1  0  0  0  0
 17 19  1  0  0  0  0
 19 20  1  0  0  0  0
 19 21  1  0  0  0  0
 21 22  1  0  0  0  0
 23 24  2  0  0  0  0
 23 25  1  0  0  0  0
 25 26  1  0  0  0  0
 25 27  1  0  0  0  0
 27 28  1  0  0  0  0
 27 29  1  0  0  0  0
 27 30  1  0  0  0  0
M  CHG  1  15   1
M  END
$$$$

  -OEChem-01062216083D

 30 30  0     1  0  0  0  0  0999 V2000
   -3.2470   -2.2121    1.5038 H   0  0  0  0  0  0  0  0  0  0  0  0
   -3.2739   -1.3477    0.8336 C   0  0  0  0  0  0  0  0  0  0  0  0
   -3.8209   -0.5417    1.3285 H   0  0  0  0  0  0  0  0  0  0  0  0
   -3.7990   -1.6300   -0.0818 H   0  0  0  0  0  0  0  0  0  0  0  0
   -1.8619   -0.8990    0.5093 C   0  0  0  0  0  0  0  0  0  0  0  0
   -0.9092   -1.5237    0.9384 O   0  0  0  0  0  0  0  0  0  0  0  0
   -1.6459    0.1939   -0.3123 N   0  0  0  0  0  0  0  0  0  0  0  0
   -2.4775    0.7241   -0.5549 H   0  0  0  0  0  0  0  0  0  0  0  0
   -0.3317    0.8673   -0.3912 C   0  0  1  0  0  0  0  0  0  0  0  0
    0.4385    0.0863   -0.3723 H   0  0  0  0  0  0  0  0  0  0  0  0
   -0.1407    1.6281   -1.7111 C   0  0  0  0  0  0  0  0  0  0  0  0
   -0.9403    2.3659   -1.8305 H   0  0  0  0  0  0  0  0  0  0  0  0
    0.8083    2.1772   -1.6877 H   0  0  0  0  0  0  0  0  0  0  0  0
   -0.1358    0.6666   -2.8746 C   0  0  0  0  0  0  0  0  0  0  0  0
    0.9239   -0.1802   -3.2068 N   0  3  0  0  0  0  0  0  0  0  0  0
    1.7737   -0.2592   -2.6396 H   0  0  0  0  0  0  0  0  0  0  0  0
    0.6386   -0.8648   -4.2873 C   0  0  0  0  0  0  0  0  0  0  0  0
    1.2733   -1.6144   -4.7649 H   0  0  0  0  0  0  0  0  0  0  0  0
   -0.6255   -0.4587   -4.7096 N   0  0  0  0  0  0  0  0  0  0  0  0
   -1.1189   -0.8105   -5.5362 H   0  0  0  0  0  0  0  0  0  0  0  0
   -1.1070    0.5063   -3.8311 C   0  0  0  0  0  0  0  0  0  0  0  0
   -2.0574    1.0364   -3.8890 H   0  0  0  0  0  0  0  0  0  0  0  0
    0.0027    1.7551    0.8226 C   0  0  0  0  0  0  0  0  0  0  0  0
    1.1287    1.6948    1.2895 O   0  0  0  0  0  0  0  0  0  0  0  0
   -0.8083    2.8240    1.1634 N   0  0  0  0  0  0  0  0  0  0  0  0
   -1.7509    2.8428    0.7889 H   0  0  0  0  0  0  0  0  0  0  0  0
   -0.4618    3.7703    2.2217 C   0  0  0  0  0  0  0  0  0  0  0  0
    0.4714    4.2919    1.9821 H   0  0  0  0  0  0  0  0  0  0  0  0
   -1.2518    4.5185    2.3391 H   0  0  0  0  0  0  0  0  0  0  0  0
   -0.3350    3.2498    3.1774 H   0  0  0  0  0  0  0  0  0  0  0  0
  1  2  1  0  0  0  0
  2  3  1  0  0  0  0
  2  4  1  0  0  0  0
  2  5  1  0  0  0  0
  5  6  2  0  0  0  0
  5  7  1  0  0  0  0
  7  8  1  0  0  0  0
  7  9  1  0  0  0  0
  9 10  1  0  0  0  0
  9 11  1  0  0  0  0
  9 23  1  0  0  0  0
 11 12  1  0  0  0  0
 11 13  1  0  0  0  0
 11 14  1  0  0  0  0
 14 15  1  0  0  0  0
 14 21  2  0  0  0  0
 15 16  1  0  0  0  0
 15 17  2  0  0  0  0
 17 18  1  0  0  0  0
 17 19  1  0  0  0  0
 19 20  1  0  0  0  0
 19 21  1  0  0  0  0
 21 22  1  0  0  0  0
 23 24  2  0  0  0  0
 23 25  1  0  0  0  0
 25 26  1  0  0  0  0
 25 27  1  0  0  0  0
 27 28  1  0  0  0  0
 27 29  1  0  0  0  0
 27 30  1  0  0  0  0
M  CHG  1  15   1
M  END
$$$$

  -OEChem-01062216083D

 30 30  0     1  0  0  0  0  0999 V2000
   -3.2657   -2.2542    1.4680 H   0  0  0  0  0  0  0  0  0  0  0  0
   -3.2859   -1.3899    0.7974 C   0  0  0  0  0  0  0  0  0  0  0  0
   -3.8749   -0.5989    1.2672 H   0  0  0  0  0  0  0  0  0  0  0  0
   -3.7624   -1.6849   -0.1403 H   0  0  0  0  0  0  0  0  0  0  0  0
   -1.8733   -0.9041    0.5362 C   0  0  0  0  0  0  0  0  0  0  0  0
   -0.9257   -1.4830    1.0352 O   0  0  0  0  0  0  0  0  0  0  0  0
   -1.6465    0.1816   -0.2913 N   0  0  0  0  0  0  0  0  0  0  0  0
   -2.4725    0.6833   -0.6043 H   0  0  0  0  0  0  0  0  0  0  0  0
   -0.3307    0.8518   -0.3698 C   0  0  1  0  0  0  0  0  0  0  0  0
    0.4393    0.0709   -0.3485 H   0  0  0  0  0  0  0  0  0  0  0  0
   -0.1458    1.6170   -1.6890 C   0  0  0  0  0  0  0  0  0  0  0  0
   -0.9446    2.3577   -1.7986 H   0  0  0  0  0  0  0  0  0  0  0  0
    0.8035    2.1659   -1.6685 H   0  0  0  0  0  0  0  0  0  0  0  0
   -0.1469    0.6650   -2.8601 C   0  0  0  0  0  0  0  0  0  0  0  0
    0.9123   -0.1784   -3.2016 N   0  3  0  0  0  0  0  0  0  0  0  0
    1.7653   -0.2581   -2.6390 H   0  0  0  0  0  0  0  0  0  0  0  0
    0.6285   -0.8481   -4.2918 C   0  0  0  0  0  0  0  0  0  0  0  0
    1.2648   -1.5891   -4.7801 H   0  0  0  0  0  0  0  0  0  0  0  0
   -0.6353   -0.4364   -4.7099 N   0  0  0  0  0  0  0  0  0  0  0  0
   -1.1254   -0.7727   -5.5448 H   0  0  0  0  0  0  0  0  0  0  0  0
   -1.1171    0.5181   -3.8201 C   0  0  0  0  0  0  0  0  0  0  0  0
   -2.0649    1.0532   -3.8758 H   0  0  0  0  0  0  0  0  0  0  0  0
    0.0100    1.7502    0.8332 C   0  0  0  0  0  0  0  0  0  0  0  0
    1.1881    1.8924    1.1212 O   0  0  0  0  0  0  0  0  0  0  0  0
   -0.9251    2.6246    1.3582 N   0  0  0  0  0  0  0  0  0  0  0  0
   -1.9016    2.4464    1.1487 H   0  0  0  0  0  0  0  0  0  0  0  0
   -0.6055    3.5673    2.4279 C   0  0  0  0  0  0  0  0  0  0  0  0
    0.1982    4.2442    2.1179 H   0  0  0  0  0  0  0  0  0  0  0  0
   -1.4829    4.1710    2.6795 H   0  0  0  0  0  0  0  0  0  0  0  0
   -0.2835    3.0327    3.3286 H   0  0  0  0  0  0  0  0  0  0  0  0
  1  2  1  0  0  0  0
  2  3  1  0  0  0  0
  2  4  1  0  0  0  0
  2  5  1  0  0  0  0
  5  6  2  0  0  0  0
  5  7  1  0  0  0  0
  7  8  1  0  0  0  0
  7  9  1  0  0  0  0
  9 10  1  0  0  0  0
  9 11  1  0  0  0  0
  9 23  1  0  0  0  0
 11 12  1  0  0  0  0
 11 13  1  0  0  0  0
 11 14  1  0  0  0  0
 14 15  1  0  0  0  0
 14 21  2  0  0  0  0
 15 16  1  0  0  0  0
 15 17  2  0  0  0  0
 17 18  1  0  0  0  0
 17 19  1  0  0  0  0
 19 20  1  0  0  0  0
 19 21  1  0  0  0  0
 21 22  1  0  0  0  0
 23 24  2  0  0  0  0
 23 25  1  0  0  0  0
 25 26  1  0  0  0  0
 25 27  1  0  0  0  0
 27 28  1  0  0  0  0
 27 29  1  0  0  0  0
 27 30  1  0  0  0  0
M  CHG  1  15   1
M  END
$$$$

  -OEChem-01062216083D

 30 30  0     1  0  0  0  0  0999 V2000
   -3.2782   -2.2606    1.4606 H   0  0  0  0  0  0  0  0  0  0  0  0
   -3.2906   -1.4058    0.7776 C   0  0  0  0  0  0  0  0  0  0  0  0
   -3.9030   -0.6160    1.2192 H   0  0  0  0  0  0  0  0  0  0  0  0
   -3.7369   -1.7206   -0.1685 H   0  0  0  0  0  0  0  0  0  0  0  0
   -1.8773   -0.9059    0.5481 C   0  0  0  0  0  0  0  0  0  0  0  0
   -0.9366   -1.4603    1.0862 O   0  0  0  0  0  0  0  0  0  0  0  0
   -1.6405    0.1739   -0.2840 N   0  0  0  0  0  0  0  0  0  0  0  0
   -2.4608    0.6651   -0.6283 H   0  0  0  0  0  0  0  0  0  0  0  0
   -0.3230    0.8424   -0.3586 C   0  0  1  0  0  0  0  0  0  0  0  0
    0.4489    0.0639   -0.3337 H   0  0  0  0  0  0  0  0  0  0  0  0
   -0.1473    1.6078   -1.6804 C   0  0  0  0  0  0  0  0  0  0  0  0
   -0.9485    2.3470   -1.7829 H   0  0  0  0  0  0  0  0  0  0  0  0
    0.8002    2.1597   -1.6678 H   0  0  0  0  0  0  0  0  0  0  0  0
   -0.1524    0.6608   -2.8551 C   0  0  0  0  0  0  0  0  0  0  0  0
    0.9069   -0.1784   -3.2060 N   0  3  0  0  0  0  0  0  0  0  0  0
    1.7655   -0.2537   -2.6516 H   0  0  0  0  0  0  0  0  0  0  0  0
    0.6217   -0.8385   -4.3016 C   0  0  0  0  0  0  0  0  0  0  0  0
    1.2600   -1.5708   -4.8007 H   0  0  0  0  0  0  0  0  0  0  0  0
   -0.6453   -0.4278   -4.7110 N   0  0  0  0  0  0  0  0  0  0  0  0
   -1.1362   -0.7562   -5.5486 H   0  0  0  0  0  0  0  0  0  0  0  0
   -1.1259    0.5191   -3.8123 C   0  0  0  0  0  0  0  0  0  0  0  0
   -2.0735    1.0549   -3.8616 H   0  0  0  0  0  0  0  0  0  0  0  0
    0.0150    1.7497    0.8396 C   0  0  0  0  0  0  0  0  0  0  0  0
    1.1816    2.0785    0.9924 O   0  0  0  0  0  0  0  0  0  0  0  0
   -0.9765    2.4007    1.5515 N   0  0  0  0  0  0  0  0  0  0  0  0
   -1.9198    2.0370    1.4664 H   0  0  0  0  0  0  0  0  0  0  0  0
   -0.6811    3.3088    2.6570 C   0  0  0  0  0  0  0  0  0  0  0  0
   -0.0416    4.1321    2.3200 H   0  0  0  0  0  0  0  0  0  0  0  0
   -1.6057    3.7364    3.0570 H   0  0  0  0  0  0  0  0  0  0  0  0
   -0.1677    2.7756    3.4646 H   0  0  0  0  0  0  0  0  0  0  0  0
  1  2  1  0  0  0  0
  2  3  1  0  0  0  0
  2  4  1  0  0  0  0
  2  5  1  0  0  0  0
  5  6  2  0  0  0  0
  5  7  1  0  0  0  0
  7  8  1  0  0  0  0
  7  9  1  0  0  0  0
  9 10  1  0  0  0  0
  9 11  1  0  0  0  0
  9 23  1  0  0  0  0
 11 12  1  0  0  0  0
 11 13  1  0  0  0  0
 11 14  1  0  0  0  0
 14 15  1  0  0  0  0
 14 21  2  0  0  0  0
 15 16  1  0  0  0  0
 15 17  2  0  0  0  0
 17 18  1  0  0  0  0
 17 19  1  0  0  0  0
 19 20  1  0  0  0  0
 19 21  1  0  0  0  0
 21 22  1  0  0  0  0
 23 24  2  0  0  0  0
 23 25  1  0  0  0  0
 25 26  1  0  0  0  0
 25 27  1  0  0  0  0
 27 28  1  0  0  0  0
 27 29  1  0  0  0  0
 27 30  1  0  0  0  0
M  CHG  1  15   1
M  END
$$$$

  -OEChem-01062216083D

 30 30  0     1  0  0  0  0  0999 V2000
   -3.2876   -2.2605    1.4426 H   0  0  0  0  0  0  0  0  0  0  0  0
   -3.2917   -1.4107    0.7535 C   0  0  0  0  0  0  0  0  0  0  0  0
   -3.9145   -0.6203    1.1788 H   0  0  0  0  0  0  0  0  0  0  0  0
   -3.7213   -1.7337   -0.1974 H   0  0  0  0  0  0  0  0  0  0  0  0
   -1.8771   -0.9067    0.5431 C   0  0  0  0  0  0  0  0  0  0  0  0
   -0.9432   -1.4447    1.1090 O   0  0  0  0  0  0  0  0  0  0  0  0
   -1.6321    0.1725   -0.2868 N   0  0  0  0  0  0  0  0  0  0  0  0
   -2.4486    0.6653   -0.6383 H   0  0  0  0  0  0  0  0  0  0  0  0
   -0.3141    0.8419   -0.3525 C   0  0  1  0  0  0  0  0  0  0  0  0
    0.4611    0.0673   -0.3264 H   0  0  0  0  0  0  0  0  0  0  0  0
   -0.1510    1.6063   -1.6789 C   0  0  0  0  0  0  0  0  0  0  0  0
   -0.9574    2.3405   -1.7772 H   0  0  0  0  0  0  0  0  0  0  0  0
    0.7926    2.1650   -1.6775 H   0  0  0  0  0  0  0  0  0  0  0  0
   -0.1571    0.6587   -2.8533 C   0  0  0  0  0  0  0  0  0  0  0  0
    0.9047   -0.1742   -3.2112 N   0  3  0  0  0  0  0  0  0  0  0  0
    1.7704   -0.2384   -2.6666 H   0  0  0  0  0  0  0  0  0  0  0  0
    0.6161   -0.8361   -4.3049 C   0  0  0  0  0  0  0  0  0  0  0  0
    1.2568   -1.5622   -4.8098 H   0  0  0  0  0  0  0  0  0  0  0  0
   -0.6574   -0.4352   -4.7041 N   0  0  0  0  0  0  0  0  0  0  0  0
   -1.1518   -0.7664   -5.5386 H   0  0  0  0  0  0  0  0  0  0  0  0
   -1.1373    0.5090   -3.8025 C   0  0  0  0  0  0  0  0  0  0  0  0
   -2.0893    1.0379   -3.8441 H   0  0  0  0  0  0  0  0  0  0  0  0
    0.0165    1.7522    0.8485 C   0  0  0  0  0  0  0  0  0  0  0  0
    1.1304    2.2524    0.8986 O   0  0  0  0  0  0  0  0  0  0  0  0
   -0.9581    2.1617    1.7406 N   0  0  0  0  0  0  0  0  0  0  0  0
   -1.8243    1.6328    1.7461 H   0  0  0  0  0  0  0  0  0  0  0  0
   -0.6646    3.0205    2.8852 C   0  0  0  0  0  0  0  0  0  0  0  0
   -0.2123    3.9620    2.5550 H   0  0  0  0  0  0  0  0  0  0  0  0
   -1.5837    3.2561    3.4310 H   0  0  0  0  0  0  0  0  0  0  0  0
    0.0281    2.5217    3.5718 H   0  0  0  0  0  0  0  0  0  0  0  0
  1  2  1  0  0  0  0
  2  3  1  0  0  0  0
  2  4  1  0  0  0  0
  2  5  1  0  0  0  0
  5  6  2  0  0  0  0
  5  7  1  0  0  0  0
  7  8  1  0  0  0  0
  7  9  1  0  0  0  0
  9 10  1  0  0  0  0
  9 11  1  0  0  0  0
  9 23  1  0  0  0  0
 11 12  1  0  0  0  0
 11 13  1  0  0  0  0
 11 14  1  0  0  0  0
 14 15  1  0  0  0  0
 14 21  2  0  0  0  0
 15 16  1  0  0  0  0
 15 17  2  0  0  0  0
 17 18  1  0  0  0  0
 17 19  1  0  0  0  0
 19 20  1  0  0  0  0
 19 21  1  0  0  0  0
 21 22  1  0  0  0  0
 23 24  2  0  0  0  0
 23 25  1  0  0  0  0
 25 26  1  0  0  0  0
 25 27  1  0  0  0  0
 27 28  1  0  0  0  0
 27 29  1  0  0  0  0
 27 30  1  0  0  0  0
M  CHG  1  15   1
M  END
$$$$

  -OEChem-01062216083D

 30 30  0     1  0  0  0  0  0999 V2000
   -3.3073   -2.2592    1.4160 H   0  0  0  0  0  0  0  0  0  0  0  0
   -3.2990   -1.4126    0.7229 C   0  0  0  0  0  0  0  0  0  0  0  0
   -3.9293   -0.6198    1.1329 H   0  0  0  0  0  0  0  0  0  0  0  0
   -3.7115   -1.7401   -0.2341 H   0  0  0  0  0  0  0  0  0  0  0  0
   -1.8809   -0.9092    0.5351 C   0  0  0  0  0  0  0  0  0  0  0  0
   -0.9576   -1.4340    1.1299 O   0  0  0  0  0  0  0  0  0  0  0  0
   -1.6229    0.1721   -0.2866 N   0  0  0  0  0  0  0  0  0  0  0  0
   -2.4365    0.6757   -0.6304 H   0  0  0  0  0  0  0  0  0  0  0  0
   -0.3039    0.8414   -0.3432 C   0  0  1  0  0  0  0  0  0  0  0  0
    0.4724    0.0682   -0.3174 H   0  0  0  0  0  0  0  0  0  0  0  0
   -0.1520    1.6039   -1.6745 C   0  0  0  0  0  0  0  0  0  0  0  0
   -0.9622    2.3344   -1.7681 H   0  0  0  0  0  0  0  0  0  0  0  0
    0.7884    2.1673   -1.6846 H   0  0  0  0  0  0  0  0  0  0  0  0
   -0.1594    0.6561   -2.8489 C   0  0  0  0  0  0  0  0  0  0  0  0
    0.9031   -0.1722   -3.2152 N   0  3  0  0  0  0  0  0  0  0  0  0
    1.7751   -0.2297   -2.6801 H   0  0  0  0  0  0  0  0  0  0  0  0
    0.6095   -0.8337   -4.3080 C   0  0  0  0  0  0  0  0  0  0  0  0
    1.2502   -1.5549   -4.8199 H   0  0  0  0  0  0  0  0  0  0  0  0
   -0.6691   -0.4392   -4.6967 N   0  0  0  0  0  0  0  0  0  0  0  0
   -1.1684   -0.7714   -5.5278 H   0  0  0  0  0  0  0  0  0  0  0  0
   -1.1462    0.5021   -3.7904 C   0  0  0  0  0  0  0  0  0  0  0  0
   -2.1005    1.0273   -3.8237 H   0  0  0  0  0  0  0  0  0  0  0  0
    0.0211    1.7495    0.8649 C   0  0  0  0  0  0  0  0  0  0  0  0
    1.0350    2.4312    0.8224 O   0  0  0  0  0  0  0  0  0  0  0  0
   -0.8653    1.9124    1.9139 N   0  0  0  0  0  0  0  0  0  0  0  0
   -1.5862    1.2034    2.0068 H   0  0  0  0  0  0  0  0  0  0  0  0
   -0.5576    2.7350    3.0810 C   0  0  0  0  0  0  0  0  0  0  0  0
   -0.3287    3.7631    2.7796 H   0  0  0  0  0  0  0  0  0  0  0  0
   -1.4124    2.7620    3.7640 H   0  0  0  0  0  0  0  0  0  0  0  0
    0.3049    2.3286    3.6206 H   0  0  0  0  0  0  0  0  0  0  0  0
  1  2  1  0  0  0  0
  2  3  1  0  0  0  0
  2  4  1  0  0  0  0
  2  5  1  0  0  0  0
  5  6  2  0  0  0  0
  5  7  1  0  0  0  0
  7  8  1  0  0  0  0
  7  9  1  0  0  0  0
  9 10  1  0  0  0  0
  9 11  1  0  0  0  0
  9 23  1  0  0  0  0
 11 12  1  0  0  0  0
 11 13  1  0  0  0  0
 11 14  1  0  0  0  0
 14 15  1  0  0  0  0
 14 21  2  0  0  0  0
 15 16  1  0  0  0  0
 15 17  2  0  0  0  0
 17 18  1  0  0  0  0
 17 19  1  0  0  0  0
 19 20  1  0  0  0  0
 19 21  1  0  0  0  0
 21 22  1  0  0  0  0
 23 24  2  0  0  0  0
 23 25  1  0  0  0  0
 25 26  1  0  0  0  0
 25 27  1  0  0  0  0
 27 28  1  0  0  0  0
 27 29  1  0  0  0  0
 27 30  1  0  0  0  0
M  CHG  1  15   1
M  END
$$$$

  -OEChem-01062216083D

 30 30  0     1  0  0  0  0  0999 V2000
   -3.3151   -2.2605    1.3931 H   0  0  0  0  0  0  0  0  0  0  0  0
   -3.2983   -1.4087    0.7065 C   0  0  0  0  0  0  0  0  0  0  0  0
   -3.9301   -0.6168    1.1166 H   0  0  0  0  0  0  0  0  0  0  0  0
   -3.7036   -1.7279   -0.2565 H   0  0  0  0  0  0  0  0  0  0  0  0
   -1.8778   -0.9067    0.5352 C   0  0  0  0  0  0  0  0  0  0  0  0
   -0.9648   -1.4146    1.1607 O   0  0  0  0  0  0  0  0  0  0  0  0
   -1.6075    0.1756   -0.2800 N   0  0  0  0  0  0  0  0  0  0  0  0
   -2.4180    0.6923   -0.6122 H   0  0  0  0  0  0  0  0  0  0  0  0
   -0.2838    0.8370   -0.3357 C   0  0  1  0  0  0  0  0  0  0  0  0
    0.4896    0.0613   -0.3135 H   0  0  0  0  0  0  0  0  0  0  0  0
   -0.1378    1.5995   -1.6697 C   0  0  0  0  0  0  0  0  0  0  0  0
   -0.9438    2.3357   -1.7559 H   0  0  0  0  0  0  0  0  0  0  0  0
    0.8060    2.1566   -1.6885 H   0  0  0  0  0  0  0  0  0  0  0  0
   -0.1566    0.6533   -2.8455 C   0  0  0  0  0  0  0  0  0  0  0  0
    0.8975   -0.1802   -3.2241 N   0  3  0  0  0  0  0  0  0  0  0  0
    1.7758   -0.2411   -2.7003 H   0  0  0  0  0  0  0  0  0  0  0  0
    0.5903   -0.8360   -4.3165 C   0  0  0  0  0  0  0  0  0  0  0  0
    1.2234   -1.5570   -4.8382 H   0  0  0  0  0  0  0  0  0  0  0  0
   -0.6903   -0.4344   -4.6911 N   0  0  0  0  0  0  0  0  0  0  0  0
   -1.1995   -0.7610   -5.5184 H   0  0  0  0  0  0  0  0  0  0  0  0
   -1.1531    0.5070   -3.7781 C   0  0  0  0  0  0  0  0  0  0  0  0
   -2.1049    1.0375   -3.8015 H   0  0  0  0  0  0  0  0  0  0  0  0
    0.0374    1.7366    0.8834 C   0  0  0  0  0  0  0  0  0  0  0  0
    0.8916    2.6042    0.7710 O   0  0  0  0  0  0  0  0  0  0  0  0
   -0.6976    1.6583    2.0520 N   0  0  0  0  0  0  0  0  0  0  0  0
   -1.2090    0.7897    2.1918 H   0  0  0  0  0  0  0  0  0  0  0  0
   -0.3909    2.4667    3.2293 C   0  0  0  0  0  0  0  0  0  0  0  0
   -0.3973    3.5329    2.9779 H   0  0  0  0  0  0  0  0  0  0  0  0
   -1.1370    2.2966    4.0120 H   0  0  0  0  0  0  0  0  0  0  0  0
    0.5960    2.2072    3.6273 H   0  0  0  0  0  0  0  0  0  0  0  0
  1  2  1  0  0  0  0
  2  3  1  0  0  0  0
  2  4  1  0  0  0  0
  2  5  1  0  0  0  0
  5  6  2  0  0  0  0
  5  7  1  0  0  0  0
  7  8  1  0  0  0  0
  7  9  1  0  0  0  0
  9 10  1  0  0  0  0
  9 11  1  0  0  0  0
  9 23  1  0  0  0  0
 11 12  1  0  0  0  0
 11 13  1  0  0  0  0
 11 14  1  0  0  0  0
 14 15  1  0  0  0  0
 14 21  2  0  0  0  0
 15 16  1  0  0  0  0
 15 17  2  0  0  0  0
 17 18  1  0  0  0  0
 17 19  1  0  0  0  0
 19 20  1  0  0  0  0
 19 21  1  0  0  0  0
 21 22  1  0  0  0  0
 23 24  2  0  0  0  0
 23 25  1  0  0  0  0
 25 26  1  0  0  0  0
 25 27  1  0  0  0  0
 27 28  1  0  0  0  0
 27 29  1  0  0  0  0
 27 30  1  0  0  0  0
M  CHG  1  15   1
M  END
$$$$

  -OEChem-01062216083D

 30 30  0     1  0  0  0  0  0999 V2000
   -3.3000   -2.2490    1.4143 H   0  0  0  0  0  0  0  0  0  0  0  0
   -3.2849   -1.3875    0.7400 C   0  0  0  0  0  0  0  0  0  0  0  0
   -3.8950   -0.5922    1.1753 H   0  0  0  0  0  0  0  0  0  0  0  0
   -3.7158   -1.6862   -0.2184 H   0  0  0  0  0  0  0  0  0  0  0  0
   -1.8607   -0.9049    0.5458 C   0  0  0  0  0  0  0  0  0  0  0  0
   -0.9453   -1.4207    1.1637 O   0  0  0  0  0  0  0  0  0  0  0  0
   -1.5884    0.1738   -0.2741 N   0  0  0  0  0  0  0  0  0  0  0  0
   -2.3987    0.7047   -0.5835 H   0  0  0  0  0  0  0  0  0  0  0  0
   -0.2620    0.8285   -0.3363 C   0  0  1  0  0  0  0  0  0  0  0  0
    0.5099    0.0517   -0.3153 H   0  0  0  0  0  0  0  0  0  0  0  0
   -0.1176    1.5899   -1.6716 C   0  0  0  0  0  0  0  0  0  0  0  0
   -0.9191    2.3317   -1.7530 H   0  0  0  0  0  0  0  0  0  0  0  0
    0.8299    2.1410   -1.6917 H   0  0  0  0  0  0  0  0  0  0  0  0
   -0.1458    0.6482   -2.8511 C   0  0  0  0  0  0  0  0  0  0  0  0
    0.8984   -0.1921   -3.2429 N   0  3  0  0  0  0  0  0  0  0  0  0
    1.7808   -0.2630   -2.7277 H   0  0  0  0  0  0  0  0  0  0  0  0
    0.5771   -0.8383   -4.3373 C   0  0  0  0  0  0  0  0  0  0  0  0
    1.1992   -1.5616   -4.8691 H   0  0  0  0  0  0  0  0  0  0  0  0
   -0.7026   -0.4232   -4.6997 N   0  0  0  0  0  0  0  0  0  0  0  0
   -1.2198   -0.7384   -5.5264 H   0  0  0  0  0  0  0  0  0  0  0  0
   -1.1506    0.5154   -3.7766 C   0  0  0  0  0  0  0  0  0  0  0  0
   -2.0983    1.0535   -3.7876 H   0  0  0  0  0  0  0  0  0  0  0  0
    0.0491    1.7261    0.8885 C   0  0  0  0  0  0  0  0  0  0  0  0
    0.7049    2.7473    0.7388 O   0  0  0  0  0  0  0  0  0  0  0  0
   -0.4787    1.4376    2.1331 N   0  0  0  0  0  0  0  0  0  0  0  0
   -0.8146    0.4824    2.2590 H   0  0  0  0  0  0  0  0  0  0  0  0
   -0.1730    2.2214    3.3264 C   0  0  0  0  0  0  0  0  0  0  0  0
   -0.4108    3.2787    3.1656 H   0  0  0  0  0  0  0  0  0  0  0  0
   -0.7635    1.8646    4.1761 H   0  0  0  0  0  0  0  0  0  0  0  0
    0.8889    2.1363    3.5810 H   0  0  0  0  0  0  0  0  0  0  0  0
  1  2  1  0  0  0  0
  2  3  1  0  0  0  0
  2  4  1  0  0  0  0
  2  5  1  0  0  0  0
  5  6  2  0  0  0  0
  5  7  1  0  0  0  0
  7  8  1  0  0  0  0
  7  9  1  0  0  0  0
  9 10  1  0  0  0  0
  9 11  1  0  0  0  0
  9 23  1  0  0  0  0
 11 12  1  0  0  0  0
 11 13  1  0  0  0  0
 11 14  1  0  0  0  0
 14 15  1  0  0  0  0
 14 21  2  0  0  0  0
 15 16  1  0  0  0  0
 15 17  2  0  0  0  0
 17 18  1  0  0  0  0
 17 19  1  0  0  0  0
 19 20  1  0  0  0  0
 19 21  1  0  0  0  0
 21 22  1  0  0  0  0
 23 24  2  0  0  0  0
 23 25  1  0  0  0  0
 25 26  1  0  0  0  0
 25 27  1  0  0  0  0
 27 28  1  0  0  0  0
 27 29  1  0  0  0  0
 27 30  1  0  0  0  0
M  CHG  1  15   1
M  END
$$$$

  -OEChem-01062216083D

 30 30  0     1  0  0  0  0  0999 V2000
   -3.2720   -2.2385    1.4399 H   0  0  0  0  0  0  0  0  0  0  0  0
   -3.2606   -1.3652    0.7810 C   0  0  0  0  0  0  0  0  0  0  0  0
   -3.8417   -0.5667    1.2488 H   0  0  0  0  0  0  0  0  0  0  0  0
   -3.7257   -1.6373   -0.1693 H   0  0  0  0  0  0  0  0  0  0  0  0
   -1.8343   -0.9049    0.5524 C   0  0  0  0  0  0  0  0  0  0  0  0
   -0.9100   -1.4489    1.1338 O   0  0  0  0  0  0  0  0  0  0  0  0
   -1.5658    0.1703   -0.2741 N   0  0  0  0  0  0  0  0  0  0  0  0
   -2.3761    0.7181   -0.5533 H   0  0  0  0  0  0  0  0  0  0  0  0
   -0.2371    0.8174   -0.3412 C   0  0  1  0  0  0  0  0  0  0  0  0
    0.5350    0.0407   -0.3232 H   0  0  0  0  0  0  0  0  0  0  0  0
   -0.0938    1.5818   -1.6743 C   0  0  0  0  0  0  0  0  0  0  0  0
   -0.8924    2.3275   -1.7506 H   0  0  0  0  0  0  0  0  0  0  0  0
    0.8560    2.1291   -1.6923 H   0  0  0  0  0  0  0  0  0  0  0  0
   -0.1332    0.6440   -2.8568 C   0  0  0  0  0  0  0  0  0  0  0  0
    0.8996   -0.2042   -3.2614 N   0  3  0  0  0  0  0  0  0  0  0  0
    1.7842   -0.2888   -2.7525 H   0  0  0  0  0  0  0  0  0  0  0  0
    0.5621   -0.8430   -4.3554 C   0  0  0  0  0  0  0  0  0  0  0  0
    1.1714   -1.5717   -4.8943 H   0  0  0  0  0  0  0  0  0  0  0  0
   -0.7158   -0.4127   -4.7061 N   0  0  0  0  0  0  0  0  0  0  0  0
   -1.2436   -0.7193   -5.5293 H   0  0  0  0  0  0  0  0  0  0  0  0
   -1.1463    0.5258   -3.7751 C   0  0  0  0  0  0  0  0  0  0  0  0
   -2.0886    1.0736   -3.7751 H   0  0  0  0  0  0  0  0  0  0  0  0
    0.0638    1.7123    0.8872 C   0  0  0  0  0  0  0  0  0  0  0  0
    0.5022    2.8426    0.7274 O   0  0  0  0  0  0  0  0  0  0  0  0
   -0.2085    1.2657    2.1661 N   0  0  0  0  0  0  0  0  0  0  0  0
   -0.4325    0.2734    2.2626 H   0  0  0  0  0  0  0  0  0  0  0  0
    0.0944    2.0358    3.3688 C   0  0  0  0  0  0  0  0  0  0  0  0
   -0.3948    3.0153    3.3326 H   0  0  0  0  0  0  0  0  0  0  0  0
   -0.2638    1.5075    4.2580 H   0  0  0  0  0  0  0  0  0  0  0  0
    1.1747    2.1870    3.4668 H   0  0  0  0  0  0  0  0  0  0  0  0
  1  2  1  0  0  0  0
  2  3  1  0  0  0  0
  2  4  1  0  0  0  0
  2  5  1  0  0  0  0
  5  6  2  0  0  0  0
  5  7  1  0  0  0  0
  7  8  1  0  0  0  0
  7  9  1  0  0  0  0
  9 10  1  0  0  0  0
  9 11  1  0  0  0  0
  9 23  1  0  0  0  0
 11 12  1  0  0  0  0
 11 13  1  0  0  0  0
 11 14  1  0  0  0  0
 14 15  1  0  0  0  0
 14 21  2  0  0  0  0
 15 16  1  0  0  0  0
 15 17  2  0  0  0  0
 17 18  1  0  0  0  0
 17 19  1  0  0  0  0
 19 20  1  0  0  0  0
 19 21  1  0  0  0  0
 21 22  1  0  0  0  0
 23 24  2  0  0  0  0
 23 25  1  0  0  0  0
 25 26  1  0  0  0  0
 25 27  1  0  0  0  0
 27 28  1  0  0  0  0
 27 29  1  0  0  0  0
 27 30  1  0  0  0  0
M  CHG  1  15   1
M  END
$$$$

  -OEChem-01062216083D

 30 30  0     1  0  0  0  0  0999 V2000
   -3.2312   -2.2032    1.5011 H   0  0  0  0  0  0  0  0  0  0  0  0
   -3.2212   -1.3315    0.8400 C   0  0  0  0  0  0  0  0  0  0  0  0
   -3.7700   -0.5196    1.3237 H   0  0  0  0  0  0  0  0  0  0  0  0
   -3.7215   -1.5954   -0.0945 H   0  0  0  0  0  0  0  0  0  0  0  0
   -1.7929   -0.9030    0.5659 C   0  0  0  0  0  0  0  0  0  0  0  0
   -0.8620   -1.4705    1.1149 O   0  0  0  0  0  0  0  0  0  0  0  0
   -1.5287    0.1625   -0.2749 N   0  0  0  0  0  0  0  0  0  0  0  0
   -2.3366    0.7287   -0.5233 H   0  0  0  0  0  0  0  0  0  0  0  0
   -0.1952    0.7953   -0.3519 C   0  0  1  0  0  0  0  0  0  0  0  0
    0.5752    0.0167   -0.3392 H   0  0  0  0  0  0  0  0  0  0  0  0
   -0.0561    1.5662   -1.6809 C   0  0  0  0  0  0  0  0  0  0  0  0
   -0.8496    2.3189   -1.7454 H   0  0  0  0  0  0  0  0  0  0  0  0
    0.8972    2.1071   -1.6981 H   0  0  0  0  0  0  0  0  0  0  0  0
   -0.1161    0.6403   -2.8716 C   0  0  0  0  0  0  0  0  0  0  0  0
    0.9011   -0.2163   -3.2977 N   0  3  0  0  0  0  0  0  0  0  0  0
    1.7931   -0.3129   -2.8045 H   0  0  0  0  0  0  0  0  0  0  0  0
    0.5410   -0.8421   -4.3920 C   0  0  0  0  0  0  0  0  0  0  0  0
    1.1350   -1.5717   -4.9465 H   0  0  0  0  0  0  0  0  0  0  0  0
   -0.7379   -0.3966   -4.7195 N   0  0  0  0  0  0  0  0  0  0  0  0
   -1.2834   -0.6943   -5.5345 H   0  0  0  0  0  0  0  0  0  0  0  0
   -1.1446    0.5387   -3.7746 C   0  0  0  0  0  0  0  0  0  0  0  0
   -2.0825    1.0939   -3.7543 H   0  0  0  0  0  0  0  0  0  0  0  0
    0.0963    1.6906    0.8757 C   0  0  0  0  0  0  0  0  0  0  0  0
    0.3051    2.8865    0.7287 O   0  0  0  0  0  0  0  0  0  0  0  0
    0.1045    1.1460    2.1450 N   0  0  0  0  0  0  0  0  0  0  0  0
   -0.0639    0.1402    2.2211 H   0  0  0  0  0  0  0  0  0  0  0  0
    0.3628    1.9172    3.3570 C   0  0  0  0  0  0  0  0  0  0  0  0
   -0.3729    2.7217    3.4649 H   0  0  0  0  0  0  0  0  0  0  0  0
    0.2989    1.2717    4.2388 H   0  0  0  0  0  0  0  0  0  0  0  0
    1.3644    2.3595    3.3254 H   0  0  0  0  0  0  0  0  0  0  0  0
  1  2  1  0  0  0  0
  2  3  1  0  0  0  0
  2  4  1  0  0  0  0
  2  5  1  0  0  0  0
  5  6  2  0  0  0  0
  5  7  1  0  0  0  0
  7  8  1  0  0  0  0
  7  9  1  0  0  0  0
  9 10  1  0  0  0  0
  9 11  1  0  0  0  0
  9 23  1  0  0  0  0
 11 12  1  0  0  0  0
 11 13  1  0  0  0  0
 11 14  1  0  0  0  0
 14 15  1  0  0  0  0
 14 21  2  0  0  0  0
 15 16  1  0  0  0  0
 15 17  2  0  0  0  0
 17 18  1  0  0  0  0
 17 19  1  0  0  0  0
 19 20  1  0  0  0  0
 19 21  1  0  0  0  0
 21 22  1  0  0  0  0
 23 24  2  0  0  0  0
 23 25  1  0  0  0  0
 25 26  1  0  0  0  0
 25 27  1  0  0  0  0
 27 28  1  0  0  0  0
 27 29  1  0  0  0  0
 27 30  1  0  0  0  0
M  CHG  1  15   1
M  END
$$$$

  -OEChem-01062216083D

 30 30  0     1  0  0  0  0  0999 V2000
   -3.1782   -2.1585    1.5735 H   0  0  0  0  0  0  0  0  0  0  0  0
   -3.1782   -1.3031    0.8916 C   0  0  0  0  0  0  0  0  0  0  0  0
   -3.7094   -0.4756    1.3685 H   0  0  0  0  0  0  0  0  0  0  0  0
   -3.7023   -1.5856   -0.0243 H   0  0  0  0  0  0  0  0  0  0  0  0
   -1.7544   -0.8915    0.5727 C   0  0  0  0  0  0  0  0  0  0  0  0
   -0.8127   -1.4694    1.0932 O   0  0  0  0  0  0  0  0  0  0  0  0
   -1.5041    0.1669   -0.2815 N   0  0  0  0  0  0  0  0  0  0  0  0
   -2.3105    0.7484   -0.4982 H   0  0  0  0  0  0  0  0  0  0  0  0
   -0.1678    0.7874   -0.3693 C   0  0  1  0  0  0  0  0  0  0  0  0
    0.6006    0.0066   -0.3637 H   0  0  0  0  0  0  0  0  0  0  0  0
   -0.0301    1.5633   -1.6938 C   0  0  0  0  0  0  0  0  0  0  0  0
   -0.8190    2.3216   -1.7519 H   0  0  0  0  0  0  0  0  0  0  0  0
    0.9266    2.0977   -1.7117 H   0  0  0  0  0  0  0  0  0  0  0  0
   -0.1087    0.6398   -2.8856 C   0  0  0  0  0  0  0  0  0  0  0  0
    0.8970   -0.2265   -3.3194 N   0  3  0  0  0  0  0  0  0  0  0  0
    1.7877   -0.3392   -2.8274 H   0  0  0  0  0  0  0  0  0  0  0  0
    0.5232   -0.8478   -4.4117 C   0  0  0  0  0  0  0  0  0  0  0  0
    1.1044   -1.5855   -4.9687 H   0  0  0  0  0  0  0  0  0  0  0  0
   -0.7519   -0.3869   -4.7323 N   0  0  0  0  0  0  0  0  0  0  0  0
   -1.3049   -0.6770   -5.5449 H   0  0  0  0  0  0  0  0  0  0  0  0
   -1.1428    0.5515   -3.7839 C   0  0  0  0  0  0  0  0  0  0  0  0
   -2.0740    1.1177   -3.7582 H   0  0  0  0  0  0  0  0  0  0  0  0
    0.1212    1.6812    0.8562 C   0  0  0  0  0  0  0  0  0  0  0  0
    0.0991    2.8989    0.7474 O   0  0  0  0  0  0  0  0  0  0  0  0
    0.4274    1.0982    2.0700 N   0  0  0  0  0  0  0  0  0  0  0  0
    0.3181    0.0836    2.1341 H   0  0  0  0  0  0  0  0  0  0  0  0
    0.6555    1.8605    3.2935 C   0  0  0  0  0  0  0  0  0  0  0  0
   -0.2471    2.4125    3.5765 H   0  0  0  0  0  0  0  0  0  0  0  0
    0.9226    1.1883    4.1152 H   0  0  0  0  0  0  0  0  0  0  0  0
    1.4745    2.5747    3.1550 H   0  0  0  0  0  0  0  0  0  0  0  0
  1  2  1  0  0  0  0
  2  3  1  0  0  0  0
  2  4  1  0  0  0  0
  2  5  1  0  0  0  0
  5  6  2  0  0  0  0
  5  7  1  0  0  0  0
  7  8  1  0  0  0  0
  7  9  1  0  0  0  0
  9 10  1  0  0  0  0
  9 11  1  0  0  0  0
  9 23  1  0  0  0  0
 11 12  1  0  0  0  0
 11 13  1  0  0  0  0
 11 14  1  0  0  0  0
 14 15  1  0  0  0  0
 14 21  2  0  0  0  0
 15 16  1  0  0  0  0
 15 17  2  0  0  0  0
 17 18  1  0  0  0  0
 17 19  1  0  0  0  0
 19 20  1  0  0  0  0
 19 21  1  0  0  0  0
 21 22  1  0  0  0  0
 23 24  2  0  0  0  0
 23 25  1  0  0  0  0
 25 26  1  0  0  0  0
 25 27  1  0  0  0  0
 27 28  1  0  0  0  0
 27 29  1  0  0  0  0
 27 30  1  0  0  0  0
M  CHG  1  15   1
M  END
$$$$

  -OEChem-01062216083D

 30 30  0     1  0  0  0  0  0999 V2000
   -3.1275   -2.1299    1.6275 H   0  0  0  0  0  0  0  0  0  0  0  0
   -3.1382   -1.2810    0.9375 C   0  0  0  0  0  0  0  0  0  0  0  0
   -3.6461   -0.4433    1.4219 H   0  0  0  0  0  0  0  0  0  0  0  0
   -3.6917   -1.5660    0.0398 H   0  0  0  0  0  0  0  0  0  0  0  0
   -1.7197   -0.8887    0.5736 C   0  0  0  0  0  0  0  0  0  0  0  0
   -0.7695   -1.4786    1.0654 O   0  0  0  0  0  0  0  0  0  0  0  0
   -1.4816    0.1601   -0.2964 N   0  0  0  0  0  0  0  0  0  0  0  0
   -2.2838    0.7606   -0.4749 H   0  0  0  0  0  0  0  0  0  0  0  0
   -0.1427    0.7708   -0.3876 C   0  0  1  0  0  0  0  0  0  0  0  0
    0.6255   -0.0099   -0.3842 H   0  0  0  0  0  0  0  0  0  0  0  0
   -0.0033    1.5549   -1.7064 C   0  0  0  0  0  0  0  0  0  0  0  0
   -0.7873    2.3190   -1.7584 H   0  0  0  0  0  0  0  0  0  0  0  0
    0.9569    2.0827   -1.7220 H   0  0  0  0  0  0  0  0  0  0  0  0
   -0.0945    0.6391   -2.9036 C   0  0  0  0  0  0  0  0  0  0  0  0
    0.8974   -0.2357   -3.3522 N   0  3  0  0  0  0  0  0  0  0  0  0
    1.7892   -0.3656   -2.8668 H   0  0  0  0  0  0  0  0  0  0  0  0
    0.5048   -0.8488   -4.4426 C   0  0  0  0  0  0  0  0  0  0  0  0
    1.0699   -1.5936   -5.0068 H   0  0  0  0  0  0  0  0  0  0  0  0
   -0.7674   -0.3708   -4.7490 N   0  0  0  0  0  0  0  0  0  0  0  0
   -1.3338   -0.6530   -5.5552 H   0  0  0  0  0  0  0  0  0  0  0  0
   -1.1381    0.5670   -3.7922 C   0  0  0  0  0  0  0  0  0  0  0  0
   -2.0639    1.1415   -3.7521 H   0  0  0  0  0  0  0  0  0  0  0  0
    0.1307    1.6682    0.8365 C   0  0  0  0  0  0  0  0  0  0  0  0
   -0.1331    2.8611    0.7850 O   0  0  0  0  0  0  0  0  0  0  0  0
    0.7177    1.1302    1.9646 N   0  0  0  0  0  0  0  0  0  0  0  0
    0.7303    0.1110    2.0257 H   0  0  0  0  0  0  0  0  0  0  0  0
    0.9369    1.8997    3.1857 C   0  0  0  0  0  0  0  0  0  0  0  0
   -0.0177    2.2317    3.6079 H   0  0  0  0  0  0  0  0  0  0  0  0
    1.4524    1.2878    3.9328 H   0  0  0  0  0  0  0  0  0  0  0  0
    1.5544    2.7809    2.9798 H   0  0  0  0  0  0  0  0  0  0  0  0
  1  2  1  0  0  0  0
  2  3  1  0  0  0  0
  2  4  1  0  0  0  0
  2  5  1  0  0  0  0
  5  6  2  0  0  0  0
  5  7  1  0  0  0  0
  7  8  1  0  0  0  0
  7  9  1  0  0  0  0
  9 10  1  0  0  0  0
  9 11  1  0  0  0  0
  9 23  1  0  0  0  0
 11 12  1  0  0  0  0
 11 13  1  0  0  0  0
 11 14  1  0  0  0  0
 14 15  1  0  0  0  0
 14 21  2  0  0  0  0
 15 16  1  0  0  0  0
 15 17  2  0  0  0  0
 17 18  1  0  0  0  0
 17 19  1  0  0  0  0
 19 20  1  0  0  0  0
 19 21  1  0  0  0  0
 21 22  1  0  0  0  0
 23 24  2  0  0  0  0
 23 25  1  0  0  0  0
 25 26  1  0  0  0  0
 25 27  1  0  0  0  0
 27 28  1  0  0  0  0
 27 29  1  0  0  0  0
 27 30  1  0  0  0  0
M  CHG  1  15   1
M  END
$$$$

  -OEChem-01062216083D

 30 30  0     1  0  0  0  0  0999 V2000
   -3.1106   -2.0999    1.6627 H   0  0  0  0  0  0  0  0  0  0  0  0
   -3.1215   -1.2540    0.9690 C   0  0  0  0  0  0  0  0  0  0  0  0
   -3.5939   -0.4021    1.4642 H   0  0  0  0  0  0  0  0  0  0  0  0
   -3.7089   -1.5285    0.0897 H   0  0  0  0  0  0  0  0  0  0  0  0
   -1.7055   -0.8969    0.5615 C   0  0  0  0  0  0  0  0  0  0  0  0
   -0.7558   -1.5141    1.0191 O   0  0  0  0  0  0  0  0  0  0  0  0
   -1.4689    0.1454   -0.3165 N   0  0  0  0  0  0  0  0  0  0  0  0
   -2.2643    0.7644   -0.4608 H   0  0  0  0  0  0  0  0  0  0  0  0
   -0.1280    0.7507   -0.4024 C   0  0  1  0  0  0  0  0  0  0  0  0
    0.6393   -0.0308   -0.4004 H   0  0  0  0  0  0  0  0  0  0  0  0
    0.0116    1.5445   -1.7144 C   0  0  0  0  0  0  0  0  0  0  0  0
   -0.7714    2.3100   -1.7595 H   0  0  0  0  0  0  0  0  0  0  0  0
    0.9725    2.0711   -1.7275 H   0  0  0  0  0  0  0  0  0  0  0  0
   -0.0848    0.6386   -2.9186 C   0  0  0  0  0  0  0  0  0  0  0  0
    0.9011   -0.2368   -3.3791 N   0  3  0  0  0  0  0  0  0  0  0  0
    1.7978   -0.3692   -2.9037 H   0  0  0  0  0  0  0  0  0  0  0  0
    0.4976   -0.8447   -4.4685 C   0  0  0  0  0  0  0  0  0  0  0  0
    1.0566   -1.5873   -5.0419 H   0  0  0  0  0  0  0  0  0  0  0  0
   -0.7770   -0.3642   -4.7607 N   0  0  0  0  0  0  0  0  0  0  0  0
   -1.3523   -0.6448   -5.5612 H   0  0  0  0  0  0  0  0  0  0  0  0
   -1.1375    0.5698   -3.7965 C   0  0  0  0  0  0  0  0  0  0  0  0
   -2.0641    1.1417   -3.7427 H   0  0  0  0  0  0  0  0  0  0  0  0
    0.1355    1.6534    0.8189 C   0  0  0  0  0  0  0  0  0  0  0  0
   -0.3541    2.7738    0.8456 O   0  0  0  0  0  0  0  0  0  0  0  0
    0.9748    1.2331    1.8323 N   0  0  0  0  0  0  0  0  0  0  0  0
    1.1711    0.2337    1.8726 H   0  0  0  0  0  0  0  0  0  0  0  0
    1.2052    2.0249    3.0376 C   0  0  0  0  0  0  0  0  0  0  0  0
    0.2738    2.1482    3.6007 H   0  0  0  0  0  0  0  0  0  0  0  0
    1.9374    1.5300    3.6834 H   0  0  0  0  0  0  0  0  0  0  0  0
    1.5926    3.0167    2.7800 H   0  0  0  0  0  0  0  0  0  0  0  0
  1  2  1  0  0  0  0
  2  3  1  0  0  0  0
  2  4  1  0  0  0  0
  2  5  1  0  0  0  0
  5  6  2  0  0  0  0
  5  7  1  0  0  0  0
  7  8  1  0  0  0  0
  7  9  1  0  0  0  0
  9 10  1  0  0  0  0
  9 11  1  0  0  0  0
  9 23  1  0  0  0  0
 11 12  1  0  0  0  0
 11 13  1  0  0  0  0
 11 14  1  0  0  0  0
 14 15  1  0  0  0  0
 14 21  2  0  0  0  0
 15 16  1  0  0  0  0
 15 17  2  0  0  0  0
 17 18  1  0  0  0  0
 17 19  1  0  0  0  0
 19 20  1  0  0  0  0
 19 21  1  0  0  0  0
 21 22  1  0  0  0  0
 23 24  2  0  0  0  0
 23 25  1  0  0  0  0
 25 26  1  0  0  0  0
 25 27  1  0  0  0  0
 27 28  1  0  0  0  0
 27 29  1  0  0  0  0
 27 30  1  0  0  0  0
M  CHG  1  15   1
M  END
$$$$

  -OEChem-01062216083D

 30 30  0     1  0  0  0  0  0999 V2000
   -3.0970   -2.0605    1.6944 H   0  0  0  0  0  0  0  0  0  0  0  0
   -3.1052   -1.2198    0.9946 C   0  0  0  0  0  0  0  0  0  0  0  0
   -3.5441   -0.3529    1.4951 H   0  0  0  0  0  0  0  0  0  0  0  0
   -3.7208   -1.4865    0.1326 H   0  0  0  0  0  0  0  0  0  0  0  0
   -1.6922   -0.9007    0.5475 C   0  0  0  0  0  0  0  0  0  0  0  0
   -0.7484   -1.5533    0.9653 O   0  0  0  0  0  0  0  0  0  0  0  0
   -1.4537    0.1347   -0.3374 N   0  0  0  0  0  0  0  0  0  0  0  0
   -2.2395    0.7736   -0.4430 H   0  0  0  0  0  0  0  0  0  0  0  0
   -0.1105    0.7354   -0.4197 C   0  0  1  0  0  0  0  0  0  0  0  0
    0.6550   -0.0479   -0.4152 H   0  0  0  0  0  0  0  0  0  0  0  0
    0.0270    1.5360   -1.7262 C   0  0  0  0  0  0  0  0  0  0  0  0
   -0.7549    2.3033   -1.7637 H   0  0  0  0  0  0  0  0  0  0  0  0
    0.9890    2.0602   -1.7410 H   0  0  0  0  0  0  0  0  0  0  0  0
   -0.0766    0.6345   -2.9335 C   0  0  0  0  0  0  0  0  0  0  0  0
    0.9016   -0.2438   -3.4049 N   0  3  0  0  0  0  0  0  0  0  0  0
    1.7986   -0.3870   -2.9338 H   0  0  0  0  0  0  0  0  0  0  0  0
    0.4843   -0.8495   -4.4904 C   0  0  0  0  0  0  0  0  0  0  0  0
    1.0325   -1.5973   -5.0670 H   0  0  0  0  0  0  0  0  0  0  0  0
   -0.7902   -0.3620   -4.7709 N   0  0  0  0  0  0  0  0  0  0  0  0
   -1.3761   -0.6418   -5.5638 H   0  0  0  0  0  0  0  0  0  0  0  0
   -1.1378    0.5712   -3.8015 C   0  0  0  0  0  0  0  0  0  0  0  0
   -2.0630    1.1442   -3.7353 H   0  0  0  0  0  0  0  0  0  0  0  0
    0.1433    1.6444    0.7987 C   0  0  0  0  0  0  0  0  0  0  0  0
   -0.5517    2.6421    0.9323 O   0  0  0  0  0  0  0  0  0  0  0  0
    1.1858    1.3992    1.6722 N   0  0  0  0  0  0  0  0  0  0  0  0
    1.5950    0.4675    1.6484 H   0  0  0  0  0  0  0  0  0  0  0  0
    1.4093    2.2123    2.8652 C   0  0  0  0  0  0  0  0  0  0  0  0
    0.5598    2.1286    3.5519 H   0  0  0  0  0  0  0  0  0  0  0  0
    2.3121    1.8811    3.3882 H   0  0  0  0  0  0  0  0  0  0  0  0
    1.5382    3.2662    2.5952 H   0  0  0  0  0  0  0  0  0  0  0  0
  1  2  1  0  0  0  0
  2  3  1  0  0  0  0
  2  4  1  0  0  0  0
  2  5  1  0  0  0  0
  5  6  2  0  0  0  0
  5  7  1  0  0  0  0
  7  8  1  0  0  0  0
  7  9  1  0  0  0  0
  9 10  1  0  0  0  0
  9 11  1  0  0  0  0
  9 23  1  0  0  0  0
 11 12  1  0  0  0  0
 11 13  1  0  0  0  0
 11 14  1  0  0  0  0
 14 15  1  0  0  0  0
 14 21  2  0  0  0  0
 15 16  1  0  0  0  0
 15 17  2  0  0  0  0
 17 18  1  0  0  0  0
 17 19  1  0  0  0  0
 19 20  1  0  0  0  0
 19 21  1  0  0  0  0
 21 22  1  0  0  0  0
 23 24  2  0  0  0  0
 23 25  1  0  0  0  0
 25 26  1  0  0  0  0
 25 27  1  0  0  0  0
 27 28  1  0  0  0  0
 27 29  1  0  0  0  0
 27 30  1  0  0  0  0
M  CHG  1  15   1
M  END
$$$$

  -OEChem-01062216083D

 30 30  0     1  0  0  0  0  0999 V2000
   -3.0864   -2.0298    1.7241 H   0  0  0  0  0  0  0  0  0  0  0  0
   -3.0963   -1.1878    1.0259 C   0  0  0  0  0  0  0  0  0  0  0  0
   -3.4907   -0.3095    1.5431 H   0  0  0  0  0  0  0  0  0  0  0  0
   -3.7508   -1.4342    0.1868 H   0  0  0  0  0  0  0  0  0  0  0  0
   -1.6919   -0.9076    0.5290 C   0  0  0  0  0  0  0  0  0  0  0  0
   -0.7524   -1.5871    0.9122 O   0  0  0  0  0  0  0  0  0  0  0  0
   -1.4564    0.1252   -0.3596 N   0  0  0  0  0  0  0  0  0  0  0  0
   -2.2368    0.7755   -0.4326 H   0  0  0  0  0  0  0  0  0  0  0  0
   -0.1134    0.7286   -0.4327 C   0  0  1  0  0  0  0  0  0  0  0  0
    0.6534   -0.0532   -0.4226 H   0  0  0  0  0  0  0  0  0  0  0  0
    0.0244    1.5328   -1.7354 C   0  0  0  0  0  0  0  0  0  0  0  0
   -0.7606    2.2972   -1.7708 H   0  0  0  0  0  0  0  0  0  0  0  0
    0.9848    2.0597   -1.7478 H   0  0  0  0  0  0  0  0  0  0  0  0
   -0.0739    0.6327   -2.9447 C   0  0  0  0  0  0  0  0  0  0  0  0
    0.9079   -0.2420   -3.4160 N   0  3  0  0  0  0  0  0  0  0  0  0
    1.8056   -0.3819   -2.9453 H   0  0  0  0  0  0  0  0  0  0  0  0
    0.4925   -0.8512   -4.5005 C   0  0  0  0  0  0  0  0  0  0  0  0
    1.0433   -1.5978   -5.0763 H   0  0  0  0  0  0  0  0  0  0  0  0
   -0.7841   -0.3695   -4.7809 N   0  0  0  0  0  0  0  0  0  0  0  0
   -1.3711   -0.6565   -5.5704 H   0  0  0  0  0  0  0  0  0  0  0  0
   -1.1352    0.5632   -3.8122 C   0  0  0  0  0  0  0  0  0  0  0  0
   -2.0643    1.1297   -3.7449 H   0  0  0  0  0  0  0  0  0  0  0  0
    0.1321    1.6431    0.7835 C   0  0  0  0  0  0  0  0  0  0  0  0
   -0.7051    2.4978    1.0397 O   0  0  0  0  0  0  0  0  0  0  0  0
    1.3212    1.6036    1.4875 N   0  0  0  0  0  0  0  0  0  0  0  0
    1.9030    0.7781    1.3682 H   0  0  0  0  0  0  0  0  0  0  0  0
    1.5603    2.4433    2.6589 C   0  0  0  0  0  0  0  0  0  0  0  0
    0.8477    2.2033    3.4557 H   0  0  0  0  0  0  0  0  0  0  0  0
    2.5736    2.2843    3.0415 H   0  0  0  0  0  0  0  0  0  0  0  0
    1.4543    3.5032    2.4025 H   0  0  0  0  0  0  0  0  0  0  0  0
  1  2  1  0  0  0  0
  2  3  1  0  0  0  0
  2  4  1  0  0  0  0
  2  5  1  0  0  0  0
  5  6  2  0  0  0  0
  5  7  1  0  0  0  0
  7  8  1  0  0  0  0
  7  9  1  0  0  0  0
  9 10  1  0  0  0  0
  9 11  1  0  0  0  0
  9 23  1  0  0  0  0
 11 12  1  0  0  0  0
 11 13  1  0  0  0  0
 11 14  1  0  0  0  0
 14 15  1  0  0  0  0
 14 21  2  0  0  0  0
 15 16  1  0  0  0  0
 15 17  2  0  0  0  0
 17 18  1  0  0  0  0
 17 19  1  0  0  0  0
 19 20  1  0  0  0  0
 19 21  1  0  0  0  0
 21 22  1  0  0  0  0
 23 24  2  0  0  0  0
 23 25  1  0  0  0  0
 25 26  1  0  0  0  0
 25 27  1  0  0  0  0
 27 28  1  0  0  0  0
 27 29  1  0  0  0  0
 27 30  1  0  0  0  0
M  CHG  1  15   1
M  END
$$$$

  -OEChem-01062216083D

 30 30  0     1  0  0  0  0  0999 V2000
   -3.0829   -2.0109    1.7295 H   0  0  0  0  0  0  0  0  0  0  0  0
   -3.0946   -1.1670    1.0336 C   0  0  0  0  0  0  0  0  0  0  0  0
   -3.4654   -0.2841    1.5606 H   0  0  0  0  0  0  0  0  0  0  0  0
   -3.7694   -1.4017    0.2074 H   0  0  0  0  0  0  0  0  0  0  0  0
   -1.6965   -0.9055    0.5091 C   0  0  0  0  0  0  0  0  0  0  0  0
   -0.7619   -1.6101    0.8572 O   0  0  0  0  0  0  0  0  0  0  0  0
   -1.4646    0.1295   -0.3778 N   0  0  0  0  0  0  0  0  0  0  0  0
   -2.2411    0.7873   -0.4206 H   0  0  0  0  0  0  0  0  0  0  0  0
   -0.1217    0.7369   -0.4404 C   0  0  1  0  0  0  0  0  0  0  0  0
    0.6467   -0.0434   -0.4244 H   0  0  0  0  0  0  0  0  0  0  0  0
    0.0161    1.5391   -1.7436 C   0  0  0  0  0  0  0  0  0  0  0  0
   -0.7738    2.2979   -1.7824 H   0  0  0  0  0  0  0  0  0  0  0  0
    0.9736    2.0711   -1.7569 H   0  0  0  0  0  0  0  0  0  0  0  0
   -0.0744    0.6321   -2.9490 C   0  0  0  0  0  0  0  0  0  0  0  0
    0.9121   -0.2406   -3.4144 N   0  3  0  0  0  0  0  0  0  0  0  0
    1.8069   -0.3796   -2.9381 H   0  0  0  0  0  0  0  0  0  0  0  0
    0.4994   -0.8608   -4.4935 C   0  0  0  0  0  0  0  0  0  0  0  0
    1.0529   -1.6110   -5.0622 H   0  0  0  0  0  0  0  0  0  0  0  0
   -0.7793   -0.3876   -4.7778 N   0  0  0  0  0  0  0  0  0  0  0  0
   -1.3652   -0.6838   -5.5648 H   0  0  0  0  0  0  0  0  0  0  0  0
   -1.1355    0.5500   -3.8159 C   0  0  0  0  0  0  0  0  0  0  0  0
   -2.0688    1.1097   -3.7518 H   0  0  0  0  0  0  0  0  0  0  0  0
    0.1208    1.6529    0.7775 C   0  0  0  0  0  0  0  0  0  0  0  0
   -0.8080    2.3406    1.1805 O   0  0  0  0  0  0  0  0  0  0  0  0
    1.3898    1.8409    1.2944 N   0  0  0  0  0  0  0  0  0  0  0  0
    2.1028    1.1614    1.0445 H   0  0  0  0  0  0  0  0  0  0  0  0
    1.6433    2.7061    2.4445 C   0  0  0  0  0  0  0  0  0  0  0  0
    1.1158    2.3340    3.3295 H   0  0  0  0  0  0  0  0  0  0  0  0
    2.7143    2.7385    2.6684 H   0  0  0  0  0  0  0  0  0  0  0  0
    1.3058    3.7284    2.2410 H   0  0  0  0  0  0  0  0  0  0  0  0
  1  2  1  0  0  0  0
  2  3  1  0  0  0  0
  2  4  1  0  0  0  0
  2  5  1  0  0  0  0
  5  6  2  0  0  0  0
  5  7  1  0  0  0  0
  7  8  1  0  0  0  0
  7  9  1  0  0  0  0
  9 10  1  0  0  0  0
  9 11  1  0  0  0  0
  9 23  1  0  0  0  0
 11 12  1  0  0  0  0
 11 13  1  0  0  0  0
 11 14  1  0  0  0  0
 14 15  1  0  0  0  0
 14 21  2  0  0  0  0
 15 16  1  0  0  0  0
 15 17  2  0  0  0  0
 17 18  1  0  0  0  0
 17 19  1  0  0  0  0
 19 20  1  0  0  0  0
 19 21  1  0  0  0  0
 21 22  1  0  0  0  0
 23 24  2  0  0  0  0
 23 25  1  0  0  0  0
 25 26  1  0  0  0  0
 25 27  1  0  0  0  0
 27 28  1  0  0  0  0
 27 29  1  0  0  0  0
 27 30  1  0  0  0  0
M  CHG  1  15   1
M  END
$$$$

  -OEChem-01062216083D

 30 30  0     1  0  0  0  0  0999 V2000
   -3.0767   -2.0204    1.7085 H   0  0  0  0  0  0  0  0  0  0  0  0
   -3.0886   -1.1501    1.0462 C   0  0  0  0  0  0  0  0  0  0  0  0
   -3.4146   -0.2790    1.6203 H   0  0  0  0  0  0  0  0  0  0  0  0
   -3.7986   -1.3335    0.2368 H   0  0  0  0  0  0  0  0  0  0  0  0
   -1.7027   -0.9057    0.4824 C   0  0  0  0  0  0  0  0  0  0  0  0
   -0.7726   -1.6365    0.7863 O   0  0  0  0  0  0  0  0  0  0  0  0
   -1.4784    0.1373   -0.3977 N   0  0  0  0  0  0  0  0  0  0  0  0
   -2.2544    0.7967   -0.4130 H   0  0  0  0  0  0  0  0  0  0  0  0
   -0.1371    0.7524   -0.4475 C   0  0  1  0  0  0  0  0  0  0  0  0
    0.6339   -0.0251   -0.4269 H   0  0  0  0  0  0  0  0  0  0  0  0
    0.0013    1.5501   -1.7537 C   0  0  0  0  0  0  0  0  0  0  0  0
   -0.7953    2.3014   -1.8013 H   0  0  0  0  0  0  0  0  0  0  0  0
    0.9541    2.0902   -1.7674 H   0  0  0  0  0  0  0  0  0  0  0  0
   -0.0756    0.6329   -2.9526 C   0  0  0  0  0  0  0  0  0  0  0  0
    0.9196   -0.2361   -3.4071 N   0  3  0  0  0  0  0  0  0  0  0  0
    1.8103   -0.3708   -2.9222 H   0  0  0  0  0  0  0  0  0  0  0  0
    0.5139   -0.8721   -4.4796 C   0  0  0  0  0  0  0  0  0  0  0  0
    1.0722   -1.6281   -5.0357 H   0  0  0  0  0  0  0  0  0  0  0  0
   -0.7667   -0.4097   -4.7737 N   0  0  0  0  0  0  0  0  0  0  0  0
   -1.3502   -0.7228   -5.5560 H   0  0  0  0  0  0  0  0  0  0  0  0
   -1.1334    0.5340   -3.8217 C   0  0  0  0  0  0  0  0  0  0  0  0
   -2.0727    1.0845   -3.7641 H   0  0  0  0  0  0  0  0  0  0  0  0
    0.1058    1.6647    0.7760 C   0  0  0  0  0  0  0  0  0  0  0  0
   -0.8594    2.1641    1.3392 O   0  0  0  0  0  0  0  0  0  0  0  0
    1.3791    2.0952    1.1051 N   0  0  0  0  0  0  0  0  0  0  0  0
    2.1662    1.5879    0.7118 H   0  0  0  0  0  0  0  0  0  0  0  0
    1.6351    2.9872    2.2341 C   0  0  0  0  0  0  0  0  0  0  0  0
    1.2848    2.5351    3.1686 H   0  0  0  0  0  0  0  0  0  0  0  0
    2.7072    3.1870    2.3283 H   0  0  0  0  0  0  0  0  0  0  0  0
    1.1197    3.9436    2.0941 H   0  0  0  0  0  0  0  0  0  0  0  0
  1  2  1  0  0  0  0
  2  3  1  0  0  0  0
  2  4  1  0  0  0  0
  2  5  1  0  0  0  0
  5  6  2  0  0  0  0
  5  7  1  0  0  0  0
  7  8  1  0  0  0  0
  7  9  1  0  0  0  0
  9 10  1  0  0  0  0
  9 11  1  0  0  0  0
  9 23  1  0  0  0  0
 11 12  1  0  0  0  0
 11 13  1  0  0  0  0
 11 14  1  0  0  0  0
 14 15  1  0  0  0  0
 14 21  2  0  0  0  0
 15 16  1  0  0  0  0
 15 17  2  0  0  0  0
 17 18  1  0  0  0  0
 17 19  1  0  0  0  0
 19 20  1  0  0  0  0
 19 21  1  0  0  0  0
 21 22  1  0  0  0  0
 23 24  2  0  0  0  0
 23 25  1  0  0  0  0
 25 26  1  0  0  0  0
 25 27  1  0  0  0  0
 27 28  1  0  0  0  0
 27 29  1  0  0  0  0
 27 30  1  0  0  0  0
M  CHG  1  15   1
M  END
$$$$

  -OEChem-01062216083D

 30 30  0     1  0  0  0  0  0999 V2000
   -3.0249   -2.0902    1.6716 H   0  0  0  0  0  0  0  0  0  0  0  0
   -3.0649   -1.1980    1.0402 C   0  0  0  0  0  0  0  0  0  0  0  0
   -3.3743   -0.3493    1.6554 H   0  0  0  0  0  0  0  0  0  0  0  0
   -3.8011   -1.3584    0.2494 H   0  0  0  0  0  0  0  0  0  0  0  0
   -1.7002   -0.9261    0.4392 C   0  0  0  0  0  0  0  0  0  0  0  0
   -0.7616   -1.6752    0.6616 O   0  0  0  0  0  0  0  0  0  0  0  0
   -1.5062    0.1420   -0.4202 N   0  0  0  0  0  0  0  0  0  0  0  0
   -2.2962    0.7814   -0.4071 H   0  0  0  0  0  0  0  0  0  0  0  0
   -0.1739    0.7818   -0.4507 C   0  0  1  0  0  0  0  0  0  0  0  0
    0.5770    0.0247   -0.7008 H   0  0  0  0  0  0  0  0  0  0  0  0
   -0.1749    1.8674   -1.5420 C   0  0  0  0  0  0  0  0  0  0  0  0
   -0.9717    2.5891   -1.3292 H   0  0  0  0  0  0  0  0  0  0  0  0
    0.7696    2.4212   -1.5307 H   0  0  0  0  0  0  0  0  0  0  0  0
   -0.3742    1.2557   -2.9103 C   0  0  0  0  0  0  0  0  0  0  0  0
    0.5712    0.5450   -3.6545 N   0  3  0  0  0  0  0  0  0  0  0  0
    1.5078    0.3241   -3.3067 H   0  0  0  0  0  0  0  0  0  0  0  0
    0.0611    0.1732   -4.8038 C   0  0  0  0  0  0  0  0  0  0  0  0
    0.5626   -0.4126   -5.5772 H   0  0  0  0  0  0  0  0  0  0  0  0
   -1.2430    0.6592   -4.8530 N   0  0  0  0  0  0  0  0  0  0  0  0
   -1.9006    0.5283   -5.6283 H   0  0  0  0  0  0  0  0  0  0  0  0
   -1.5132    1.3412   -3.6726 C   0  0  0  0  0  0  0  0  0  0  0  0
   -2.4417    1.8421   -3.3982 H   0  0  0  0  0  0  0  0  0  0  0  0
    0.2440    1.3746    0.9216 C   0  0  0  0  0  0  0  0  0  0  0  0
   -0.6094    1.5503    1.7815 O   0  0  0  0  0  0  0  0  0  0  0  0
    1.4664    2.0077    1.0763 N   0  0  0  0  0  0  0  0  0  0  0  0
    2.2000    1.7834    0.4115 H   0  0  0  0  0  0  0  0  0  0  0  0
    1.8550    2.6660    2.3225 C   0  0  0  0  0  0  0  0  0  0  0  0
    1.8609    1.9485    3.1507 H   0  0  0  0  0  0  0  0  0  0  0  0
    2.8575    3.0958    2.2310 H   0  0  0  0  0  0  0  0  0  0  0  0
    1.1571    3.4748    2.5662 H   0  0  0  0  0  0  0  0  0  0  0  0
  1  2  1  0  0  0  0
  2  3  1  0  0  0  0
  2  4  1  0  0  0  0
  2  5  1  0  0  0  0
  5  6  2  0  0  0  0
  5  7  1  0  0  0  0
  7  8  1  0  0  0  0
  7  9  1  0  0  0  0
  9 10  1  0  0  0  0
  9 11  1  0  0  0  0
  9 23  1  0  0  0  0
 11 12  1  0  0  0  0
 11 13  1  0  0  0  0
 11 14  1  0  0  0  0
 14 15  1  0  0  0  0
 14 21  2  0  0  0  0
 15 16  1  0  0  0  0
 15 17  2  0  0  0  0
 17 18  1  0  0  0  0
 17 19  1  0  0  0  0
 19 20  1  0  0  0  0
 19 21  1  0  0  0  0
 21 22  1  0  0  0  0
 23 24  2  0  0  0  0
 23 25  1  0  0  0  0
 25 26  1  0  0  0  0
 25 27  1  0  0  0  0
 27 28  1  0  0  0  0
 27 29  1  0  0  0  0
 27 30  1  0  0  0  0
M  CHG  1  15   1
M  END
$$$$

  -OEChem-01062216083D

 30 30  0     1  0  0  0  0  0999 V2000
   -3.0093   -2.0955    1.6439 H   0  0  0  0  0  0  0  0  0  0  0  0
   -3.0503   -1.1759    1.0531 C   0  0  0  0  0  0  0  0  0  0  0  0
   -3.3051   -0.3461    1.7174 H   0  0  0  0  0  0  0  0  0  0  0  0
   -3.8255   -1.2802    0.2909 H   0  0  0  0  0  0  0  0  0  0  0  0
   -1.7056   -0.9175    0.4028 C   0  0  0  0  0  0  0  0  0  0  0  0
   -0.7797   -1.6999    0.5520 O   0  0  0  0  0  0  0  0  0  0  0  0
   -1.5189    0.1704   -0.4339 N   0  0  0  0  0  0  0  0  0  0  0  0
   -2.3097    0.8076   -0.3943 H   0  0  0  0  0  0  0  0  0  0  0  0
   -0.1886    0.8180   -0.4547 C   0  0  1  0  0  0  0  0  0  0  0  0
    0.5642    0.0634   -0.7080 H   0  0  0  0  0  0  0  0  0  0  0  0
   -0.1967    1.8919   -1.5597 C   0  0  0  0  0  0  0  0  0  0  0  0
   -1.0024    2.6074   -1.3605 H   0  0  0  0  0  0  0  0  0  0  0  0
    0.7414    2.4555   -1.5589 H   0  0  0  0  0  0  0  0  0  0  0  0
   -0.3826    1.2560   -2.9196 C   0  0  0  0  0  0  0  0  0  0  0  0
    0.5752    0.5450   -3.6481 N   0  3  0  0  0  0  0  0  0  0  0  0
    1.5102    0.3347   -3.2895 H   0  0  0  0  0  0  0  0  0  0  0  0
    0.0742    0.1450   -4.7921 C   0  0  0  0  0  0  0  0  0  0  0  0
    0.5848   -0.4516   -5.5513 H   0  0  0  0  0  0  0  0  0  0  0  0
   -1.2351    0.6152   -4.8557 N   0  0  0  0  0  0  0  0  0  0  0  0
   -1.8882    0.4605   -5.6305 H   0  0  0  0  0  0  0  0  0  0  0  0
   -1.5194    1.3134   -3.6880 C   0  0  0  0  0  0  0  0  0  0  0  0
   -2.4566    1.8044   -3.4256 H   0  0  0  0  0  0  0  0  0  0  0  0
    0.2466    1.3920    0.9257 C   0  0  0  0  0  0  0  0  0  0  0  0
   -0.5116    1.3148    1.8830 O   0  0  0  0  0  0  0  0  0  0  0  0
    1.3040    2.2830    1.0262 N   0  0  0  0  0  0  0  0  0  0  0  0
    1.9810    2.3041    0.2706 H   0  0  0  0  0  0  0  0  0  0  0  0
    1.6629    2.9399    2.2829 C   0  0  0  0  0  0  0  0  0  0  0  0
    1.8789    2.1962    3.0582 H   0  0  0  0  0  0  0  0  0  0  0  0
    2.5513    3.5647    2.1478 H   0  0  0  0  0  0  0  0  0  0  0  0
    0.8442    3.5793    2.6313 H   0  0  0  0  0  0  0  0  0  0  0  0
  1  2  1  0  0  0  0
  2  3  1  0  0  0  0
  2  4  1  0  0  0  0
  2  5  1  0  0  0  0
  5  6  2  0  0  0  0
  5  7  1  0  0  0  0
  7  8  1  0  0  0  0
  7  9  1  0  0  0  0
  9 10  1  0  0  0  0
  9 11  1  0  0  0  0
  9 23  1  0  0  0  0
 11 12  1  0  0  0  0
 11 13  1  0  0  0  0
 11 14  1  0  0  0  0
 14 15  1  0  0  0  0
 14 21  2  0  0  0  0
 15 16  1  0  0  0  0
 15 17  2  0  0  0  0
 17 18  1  0  0  0  0
 17 19  1  0  0  0  0
 19 20  1  0  0  0  0
 19 21  1  0  0  0  0
 21 22  1  0  0  0  0
 23 24  2  0  0  0  0
 23 25  1  0  0  0  0
 25 26  1  0  0  0  0
 25 27  1  0  0  0  0
 27 28  1  0  0  0  0
 27 29  1  0  0  0  0
 27 30  1  0  0  0  0
M  CHG  1  15   1
M  END
$$$$

  -OEChem-01062216083D

 30 30  0     1  0  0  0  0  0999 V2000
   -2.9970   -2.1038    1.6116 H   0  0  0  0  0  0  0  0  0  0  0  0
   -3.0456   -1.1636    1.0547 C   0  0  0  0  0  0  0  0  0  0  0  0
   -3.2676   -0.3551    1.7559 H   0  0  0  0  0  0  0  0  0  0  0  0
   -3.8467   -1.2323    0.3156 H   0  0  0  0  0  0  0  0  0  0  0  0
   -1.7190   -0.8992    0.3708 C   0  0  0  0  0  0  0  0  0  0  0  0
   -0.8110   -1.7131    0.4347 O   0  0  0  0  0  0  0  0  0  0  0  0
   -1.5421    0.2111   -0.4381 N   0  0  0  0  0  0  0  0  0  0  0  0
   -2.3369    0.8410   -0.3787 H   0  0  0  0  0  0  0  0  0  0  0  0
   -0.2174    0.8719   -0.4588 C   0  0  1  0  0  0  0  0  0  0  0  0
    0.5350    0.1174   -0.7146 H   0  0  0  0  0  0  0  0  0  0  0  0
   -0.2232    1.9277   -1.5818 C   0  0  0  0  0  0  0  0  0  0  0  0
   -1.0351    2.6417   -1.4048 H   0  0  0  0  0  0  0  0  0  0  0  0
    0.7128    2.4937   -1.5897 H   0  0  0  0  0  0  0  0  0  0  0  0
   -0.3908    1.2584   -2.9282 C   0  0  0  0  0  0  0  0  0  0  0  0
    0.5816    0.5391   -3.6293 N   0  3  0  0  0  0  0  0  0  0  0  0
    1.5113    0.3372   -3.2519 H   0  0  0  0  0  0  0  0  0  0  0  0
    0.0940    0.1017   -4.7652 C   0  0  0  0  0  0  0  0  0  0  0  0
    0.6153   -0.5150   -5.5005 H   0  0  0  0  0  0  0  0  0  0  0  0
   -1.2180    0.5597   -4.8549 N   0  0  0  0  0  0  0  0  0  0  0  0
   -1.8633    0.3752   -5.6296 H   0  0  0  0  0  0  0  0  0  0  0  0
   -1.5197    1.2865   -3.7094 C   0  0  0  0  0  0  0  0  0  0  0  0
   -2.4637    1.7754   -3.4689 H   0  0  0  0  0  0  0  0  0  0  0  0
    0.2451    1.4256    0.9244 C   0  0  0  0  0  0  0  0  0  0  0  0
   -0.3107    1.0690    1.9528 O   0  0  0  0  0  0  0  0  0  0  0  0
    1.0723    2.5350    1.0172 N   0  0  0  0  0  0  0  0  0  0  0  0
    1.5713    2.8356    0.1871 H   0  0  0  0  0  0  0  0  0  0  0  0
    1.4266    3.1565    2.2929 C   0  0  0  0  0  0  0  0  0  0  0  0
    1.8951    2.4254    2.9614 H   0  0  0  0  0  0  0  0  0  0  0  0
    2.1315    3.9787    2.1346 H   0  0  0  0  0  0  0  0  0  0  0  0
    0.5345    3.5585    2.7860 H   0  0  0  0  0  0  0  0  0  0  0  0
  1  2  1  0  0  0  0
  2  3  1  0  0  0  0
  2  4  1  0  0  0  0
  2  5  1  0  0  0  0
  5  6  2  0  0  0  0
  5  7  1  0  0  0  0
  7  8  1  0  0  0  0
  7  9  1  0  0  0  0
  9 10  1  0  0  0  0
  9 11  1  0  0  0  0
  9 23  1  0  0  0  0
 11 12  1  0  0  0  0
 11 13  1  0  0  0  0
 11 14  1  0  0  0  0
 14 15  1  0  0  0  0
 14 21  2  0  0  0  0
 15 16  1  0  0  0  0
 15 17  2  0  0  0  0
 17 18  1  0  0  0  0
 17 19  1  0  0  0  0
 19 20  1  0  0  0  0
 19 21  1  0  0  0  0
 21 22  1  0  0  0  0
 23 24  2  0  0  0  0
 23 25  1  0  0  0  0
 25 26  1  0  0  0  0
 25 27  1  0  0  0  0
 27 28  1  0  0  0  0
 27 29  1  0  0  0  0
 27 30  1  0  0  0  0
M  CHG  1  15   1
M  END
$$$$

  -OEChem-01062216083D

 30 30  0     1  0  0  0  0  0999 V2000
   -2.9820   -2.0890    1.6188 H   0  0  0  0  0  0  0  0  0  0  0  0
   -3.0467   -1.1494    1.0622 C   0  0  0  0  0  0  0  0  0  0  0  0
   -3.2580   -0.3423    1.7680 H   0  0  0  0  0  0  0  0  0  0  0  0
   -3.8628   -1.2223    0.3401 H   0  0  0  0  0  0  0  0  0  0  0  0
   -1.7357   -0.8807    0.3500 C   0  0  0  0  0  0  0  0  0  0  0  0
   -0.8487   -1.7189    0.3421 O   0  0  0  0  0  0  0  0  0  0  0  0
   -1.5693    0.2445   -0.4397 N   0  0  0  0  0  0  0  0  0  0  0  0
   -2.3694    0.8665   -0.3698 H   0  0  0  0  0  0  0  0  0  0  0  0
   -0.2513    0.9188   -0.4666 C   0  0  1  0  0  0  0  0  0  0  0  0
    0.5014    0.1631   -0.7198 H   0  0  0  0  0  0  0  0  0  0  0  0
   -0.2438    1.9595   -1.6020 C   0  0  0  0  0  0  0  0  0  0  0  0
   -1.0583    2.6759   -1.4490 H   0  0  0  0  0  0  0  0  0  0  0  0
    0.6960    2.5204   -1.6057 H   0  0  0  0  0  0  0  0  0  0  0  0
   -0.3923    1.2648   -2.9370 C   0  0  0  0  0  0  0  0  0  0  0  0
    0.5939    0.5359   -3.6077 N   0  3  0  0  0  0  0  0  0  0  0  0
    1.5184    0.3460   -3.2109 H   0  0  0  0  0  0  0  0  0  0  0  0
    0.1244    0.0689   -4.7394 C   0  0  0  0  0  0  0  0  0  0  0  0
    0.6596   -0.5624   -5.4519 H   0  0  0  0  0  0  0  0  0  0  0  0
   -1.1892    0.5161   -4.8572 N   0  0  0  0  0  0  0  0  0  0  0  0
   -1.8236    0.3064   -5.6345 H   0  0  0  0  0  0  0  0  0  0  0  0
   -1.5114    1.2667   -3.7325 C   0  0  0  0  0  0  0  0  0  0  0  0
   -2.4633    1.7507   -3.5142 H   0  0  0  0  0  0  0  0  0  0  0  0
    0.2285    1.4577    0.9149 C   0  0  0  0  0  0  0  0  0  0  0  0
   -0.0148    0.8476    1.9434 O   0  0  0  0  0  0  0  0  0  0  0  0
    0.7777    2.7243    1.0485 N   0  0  0  0  0  0  0  0  0  0  0  0
    0.9526    3.2713    0.2128 H   0  0  0  0  0  0  0  0  0  0  0  0
    1.1479    3.3010    2.3406 C   0  0  0  0  0  0  0  0  0  0  0  0
    1.8739    2.6610    2.8544 H   0  0  0  0  0  0  0  0  0  0  0  0
    1.5982    4.2892    2.2035 H   0  0  0  0  0  0  0  0  0  0  0  0
    0.2652    3.4105    2.9804 H   0  0  0  0  0  0  0  0  0  0  0  0
  1  2  1  0  0  0  0
  2  3  1  0  0  0  0
  2  4  1  0  0  0  0
  2  5  1  0  0  0  0
  5  6  2  0  0  0  0
  5  7  1  0  0  0  0
  7  8  1  0  0  0  0
  7  9  1  0  0  0  0
  9 10  1  0  0  0  0
  9 11  1  0  0  0  0
  9 23  1  0  0  0  0
 11 12  1  0  0  0  0
 11 13  1  0  0  0  0
 11 14  1  0  0  0  0
 14 15  1  0  0  0  0
 14 21  2  0  0  0  0
 15 16  1  0  0  0  0
 15 17  2  0  0  0  0
 17 18  1  0  0  0  0
 17 19  1  0  0  0  0
 19 20  1  0  0  0  0
 19 21  1  0  0  0  0
 21 22  1  0  0  0  0
 23 24  2  0  0  0  0
 23 25  1  0  0  0  0
 25 26  1  0  0  0  0
 25 27  1  0  0  0  0
 27 28  1  0  0  0  0
 27 29  1  0  0  0  0
 27 30  1  0  0  0  0
M  CHG  1  15   1
M  END
$$$$

  -OEChem-01062216083D

 30 30  0     1  0  0  0  0  0999 V2000
   -2.9900   -2.0938    1.6119 H   0  0  0  0  0  0  0  0  0  0  0  0
   -3.0602   -1.1536    1.0571 C   0  0  0  0  0  0  0  0  0  0  0  0
   -3.2914   -0.3511    1.7617 H   0  0  0  0  0  0  0  0  0  0  0  0
   -3.8664   -1.2358    0.3249 H   0  0  0  0  0  0  0  0  0  0  0  0
   -1.7452   -0.8673    0.3592 C   0  0  0  0  0  0  0  0  0  0  0  0
   -0.8583   -1.7043    0.3426 O   0  0  0  0  0  0  0  0  0  0  0  0
   -1.5901    0.2595   -0.4302 N   0  0  0  0  0  0  0  0  0  0  0  0
   -2.3997    0.8705   -0.3759 H   0  0  0  0  0  0  0  0  0  0  0  0
   -0.2796    0.9452   -0.4668 C   0  0  1  0  0  0  0  0  0  0  0  0
    0.4758    0.1901   -0.7144 H   0  0  0  0  0  0  0  0  0  0  0  0
   -0.2597    1.9779   -1.6072 C   0  0  0  0  0  0  0  0  0  0  0  0
   -1.0766    2.6945   -1.4709 H   0  0  0  0  0  0  0  0  0  0  0  0
    0.6816    2.5380   -1.5969 H   0  0  0  0  0  0  0  0  0  0  0  0
   -0.3944    1.2715   -2.9374 C   0  0  0  0  0  0  0  0  0  0  0  0
    0.6036    0.5380   -3.5853 N   0  3  0  0  0  0  0  0  0  0  0  0
    1.5221    0.3543   -3.1715 H   0  0  0  0  0  0  0  0  0  0  0  0
    0.1521    0.0567   -4.7180 C   0  0  0  0  0  0  0  0  0  0  0  0
    0.6991   -0.5822   -5.4146 H   0  0  0  0  0  0  0  0  0  0  0  0
   -1.1604    0.5002   -4.8608 N   0  0  0  0  0  0  0  0  0  0  0  0
   -1.7823    0.2807   -5.6453 H   0  0  0  0  0  0  0  0  0  0  0  0
   -1.5014    1.2628   -3.7497 C   0  0  0  0  0  0  0  0  0  0  0  0
   -2.4573    1.7478   -3.5524 H   0  0  0  0  0  0  0  0  0  0  0  0
    0.2006    1.4848    0.9094 C   0  0  0  0  0  0  0  0  0  0  0  0
    0.3015    0.7395    1.8686 O   0  0  0  0  0  0  0  0  0  0  0  0
    0.4461    2.8342    1.1125 N   0  0  0  0  0  0  0  0  0  0  0  0
    0.3025    3.4772    0.3414 H   0  0  0  0  0  0  0  0  0  0  0  0
    0.8414    3.3842    2.4083 C   0  0  0  0  0  0  0  0  0  0  0  0
    1.7667    2.9146    2.7599 H   0  0  0  0  0  0  0  0  0  0  0  0
    1.0128    4.4623    2.3301 H   0  0  0  0  0  0  0  0  0  0  0  0
    0.0580    3.2128    3.1545 H   0  0  0  0  0  0  0  0  0  0  0  0
  1  2  1  0  0  0  0
  2  3  1  0  0  0  0
  2  4  1  0  0  0  0
  2  5  1  0  0  0  0
  5  6  2  0  0  0  0
  5  7  1  0  0  0  0
  7  8  1  0  0  0  0
  7  9  1  0  0  0  0
  9 10  1  0  0  0  0
  9 11  1  0  0  0  0
  9 23  1  0  0  0  0
 11 12  1  0  0  0  0
 11 13  1  0  0  0  0
 11 14  1  0  0  0  0
 14 15  1  0  0  0  0
 14 21  2  0  0  0  0
 15 16  1  0  0  0  0
 15 17  2  0  0  0  0
 17 18  1  0  0  0  0
 17 19  1  0  0  0  0
 19 20  1  0  0  0  0
 19 21  1  0  0  0  0
 21 22  1  0  0  0  0
 23 24  2  0  0  0  0
 23 25  1  0  0  0  0
 25 26  1  0  0  0  0
 25 27  1  0  0  0  0
 27 28  1  0  0  0  0
 27 29  1  0  0  0  0
 27 30  1  0  0  0  0
M  CHG  1  15   1
M  END
$$$$

  -OEChem-01062216083D

 30 30  0     1  0  0  0  0  0999 V2000
   -3.0361   -2.1040    1.6028 H   0  0  0  0  0  0  0  0  0  0  0  0
   -3.1103   -1.1853    1.0134 C   0  0  0  0  0  0  0  0  0  0  0  0
   -3.4226   -0.3728    1.6737 H   0  0  0  0  0  0  0  0  0  0  0  0
   -3.8627   -1.3279    0.2345 H   0  0  0  0  0  0  0  0  0  0  0  0
   -1.7660   -0.8622    0.3909 C   0  0  0  0  0  0  0  0  0  0  0  0
   -0.8531   -1.6664    0.4510 O   0  0  0  0  0  0  0  0  0  0  0  0
   -1.6077    0.2608   -0.4031 N   0  0  0  0  0  0  0  0  0  0  0  0
   -2.4294    0.8577   -0.3953 H   0  0  0  0  0  0  0  0  0  0  0  0
   -0.3027    0.9543   -0.4513 C   0  0  1  0  0  0  0  0  0  0  0  0
    0.4539    0.1988   -0.6957 H   0  0  0  0  0  0  0  0  0  0  0  0
   -0.2719    1.9838   -1.5935 C   0  0  0  0  0  0  0  0  0  0  0  0
   -1.0888    2.7022   -1.4685 H   0  0  0  0  0  0  0  0  0  0  0  0
    0.6700    2.5440   -1.5706 H   0  0  0  0  0  0  0  0  0  0  0  0
   -0.3990    1.2761   -2.9236 C   0  0  0  0  0  0  0  0  0  0  0  0
    0.6073    0.5409   -3.5563 N   0  3  0  0  0  0  0  0  0  0  0  0
    1.5206    0.3592   -3.1295 H   0  0  0  0  0  0  0  0  0  0  0  0
    0.1739    0.0631   -4.6974 C   0  0  0  0  0  0  0  0  0  0  0  0
    0.7320   -0.5732   -5.3877 H   0  0  0  0  0  0  0  0  0  0  0  0
   -1.1358    0.5084   -4.8598 N   0  0  0  0  0  0  0  0  0  0  0  0
   -1.7435    0.2949   -5.6571 H   0  0  0  0  0  0  0  0  0  0  0  0
   -1.4931    1.2709   -3.7534 C   0  0  0  0  0  0  0  0  0  0  0  0
   -2.4496    1.7610   -3.5735 H   0  0  0  0  0  0  0  0  0  0  0  0
    0.1763    1.5022    0.9173 C   0  0  0  0  0  0  0  0  0  0  0  0
    0.6503    0.7482    1.7485 O   0  0  0  0  0  0  0  0  0  0  0  0
    0.1185    2.8549    1.2133 N   0  0  0  0  0  0  0  0  0  0  0  0
   -0.3289    3.4781    0.5495 H   0  0  0  0  0  0  0  0  0  0  0  0
    0.5529    3.4040    2.4969 C   0  0  0  0  0  0  0  0  0  0  0  0
    1.6118    3.1836    2.6720 H   0  0  0  0  0  0  0  0  0  0  0  0
    0.4216    4.4904    2.5126 H   0  0  0  0  0  0  0  0  0  0  0  0
   -0.0327    2.9744    3.3171 H   0  0  0  0  0  0  0  0  0  0  0  0
  1  2  1  0  0  0  0
  2  3  1  0  0  0  0
  2  4  1  0  0  0  0
  2  5  1  0  0  0  0
  5  6  2  0  0  0  0
  5  7  1  0  0  0  0
  7  8  1  0  0  0  0
  7  9  1  0  0  0  0
  9 10  1  0  0  0  0
  9 11  1  0  0  0  0
  9 23  1  0  0  0  0
 11 12  1  0  0  0  0
 11 13  1  0  0  0  0
 11 14  1  0  0  0  0
 14 15  1  0  0  0  0
 14 21  2  0  0  0  0
 15 16  1  0  0  0  0
 15 17  2  0  0  0  0
 17 18  1  0  0  0  0
 17 19  1  0  0  0  0
 19 20  1  0  0  0  0
 19 21  1  0  0  0  0
 21 22  1  0  0  0  0
 23 24  2  0  0  0  0
 23 25  1  0  0  0  0
 25 26  1  0  0  0  0
 25 27  1  0  0  0  0
 27 28  1  0  0  0  0
 27 29  1  0  0  0  0
 27 30  1  0  0  0  0
M  CHG  1  15   1
M  END
$$$$

  -OEChem-01062216083D

 30 30  0     1  0  0  0  0  0999 V2000
   -3.1315   -2.1671    1.5532 H   0  0  0  0  0  0  0  0  0  0  0  0
   -3.1933   -1.2704    0.9291 C   0  0  0  0  0  0  0  0  0  0  0  0
   -3.6296   -0.4636    1.5225 H   0  0  0  0  0  0  0  0  0  0  0  0
   -3.8410   -1.4816    0.0753 H   0  0  0  0  0  0  0  0  0  0  0  0
   -1.8092   -0.8767    0.4505 C   0  0  0  0  0  0  0  0  0  0  0  0
   -0.8545   -1.5909    0.6925 O   0  0  0  0  0  0  0  0  0  0  0  0
   -1.6341    0.2386   -0.3509 N   0  0  0  0  0  0  0  0  0  0  0  0
   -2.4715    0.8043   -0.4513 H   0  0  0  0  0  0  0  0  0  0  0  0
   -0.3321    0.9367   -0.4123 C   0  0  1  0  0  0  0  0  0  0  0  0
    0.4188    0.1756   -0.6586 H   0  0  0  0  0  0  0  0  0  0  0  0
   -0.2871    1.9694   -1.5497 C   0  0  0  0  0  0  0  0  0  0  0  0
   -1.0966    2.6954   -1.4245 H   0  0  0  0  0  0  0  0  0  0  0  0
    0.6591    2.5219   -1.5132 H   0  0  0  0  0  0  0  0  0  0  0  0
   -0.4117    1.2767   -2.8865 C   0  0  0  0  0  0  0  0  0  0  0  0
    0.6005    0.5425   -3.5102 N   0  3  0  0  0  0  0  0  0  0  0  0
    1.5060    0.3530   -3.0695 H   0  0  0  0  0  0  0  0  0  0  0  0
    0.1893    0.0936   -4.6709 C   0  0  0  0  0  0  0  0  0  0  0  0
    0.7593   -0.5292   -5.3638 H   0  0  0  0  0  0  0  0  0  0  0  0
   -1.1128    0.5541   -4.8522 N   0  0  0  0  0  0  0  0  0  0  0  0
   -1.7004    0.3713   -5.6718 H   0  0  0  0  0  0  0  0  0  0  0  0
   -1.4873    1.3003   -3.7399 C   0  0  0  0  0  0  0  0  0  0  0  0
   -2.4390    1.8055   -3.5764 H   0  0  0  0  0  0  0  0  0  0  0  0
    0.1580    1.5029    0.9413 C   0  0  0  0  0  0  0  0  0  0  0  0
    1.0178    0.9059    1.5661 O   0  0  0  0  0  0  0  0  0  0  0  0
   -0.1787    2.7861    1.3408 N   0  0  0  0  0  0  0  0  0  0  0  0
   -0.9284    3.2599    0.8483 H   0  0  0  0  0  0  0  0  0  0  0  0
    0.3247    3.3844    2.5761 C   0  0  0  0  0  0  0  0  0  0  0  0
    1.4200    3.4113    2.5733 H   0  0  0  0  0  0  0  0  0  0  0  0
   -0.0422    4.4103    2.6818 H   0  0  0  0  0  0  0  0  0  0  0  0
   -0.0072    2.8070    3.4461 H   0  0  0  0  0  0  0  0  0  0  0  0
  1  2  1  0  0  0  0
  2  3  1  0  0  0  0
  2  4  1  0  0  0  0
  2  5  1  0  0  0  0
  5  6  2  0  0  0  0
  5  7  1  0  0  0  0
  7  8  1  0  0  0  0
  7  9  1  0  0  0  0
  9 10  1  0  0  0  0
  9 11  1  0  0  0  0
  9 23  1  0  0  0  0
 11 12  1  0  0  0  0
 11 13  1  0  0  0  0
 11 14  1  0  0  0  0
 14 15  1  0  0  0  0
 14 21  2  0  0  0  0
 15 16  1  0  0  0  0
 15 17  2  0  0  0  0
 17 18  1  0  0  0  0
 17 19  1  0  0  0  0
 19 20  1  0  0  0  0
 19 21  1  0  0  0  0
 21 22  1  0  0  0  0
 23 24  2  0  0  0  0
 23 25  1  0  0  0  0
 25 26  1  0  0  0  0
 25 27  1  0  0  0  0
 27 28  1  0  0  0  0
 27 29  1  0  0  0  0
 27 30  1  0  0  0  0
M  CHG  1  15   1
M  END
$$$$

  -OEChem-01062216083D

 30 30  0     1  0  0  0  0  0999 V2000
   -3.2138   -2.2266    1.4970 H   0  0  0  0  0  0  0  0  0  0  0  0
   -3.2565   -1.3555    0.8363 C   0  0  0  0  0  0  0  0  0  0  0  0
   -3.8071   -0.5605    1.3445 H   0  0  0  0  0  0  0  0  0  0  0  0
   -3.7870   -1.6348   -0.0768 H   0  0  0  0  0  0  0  0  0  0  0  0
   -1.8521   -0.8894    0.5030 C   0  0  0  0  0  0  0  0  0  0  0  0
   -0.8906   -1.5167    0.9049 O   0  0  0  0  0  0  0  0  0  0  0  0
   -1.6526    0.2171   -0.3045 N   0  0  0  0  0  0  0  0  0  0  0  0
   -2.4916    0.7459   -0.5220 H   0  0  0  0  0  0  0  0  0  0  0  0
   -0.3476    0.9085   -0.3732 C   0  0  1  0  0  0  0  0  0  0  0  0
    0.3939    0.1388   -0.6204 H   0  0  0  0  0  0  0  0  0  0  0  0
   -0.2886    1.9495   -1.5015 C   0  0  0  0  0  0  0  0  0  0  0  0
   -1.0862    2.6869   -1.3665 H   0  0  0  0  0  0  0  0  0  0  0  0
    0.6647    2.4892   -1.4562 H   0  0  0  0  0  0  0  0  0  0  0  0
   -0.4197    1.2769   -2.8467 C   0  0  0  0  0  0  0  0  0  0  0  0
    0.5882    0.5399   -3.4728 N   0  3  0  0  0  0  0  0  0  0  0  0
    1.4917    0.3422   -3.0311 H   0  0  0  0  0  0  0  0  0  0  0  0
    0.1841    0.1201   -4.6467 C   0  0  0  0  0  0  0  0  0  0  0  0
    0.7560   -0.4924   -5.3471 H   0  0  0  0  0  0  0  0  0  0  0  0
   -1.1107    0.6003   -4.8319 N   0  0  0  0  0  0  0  0  0  0  0  0
   -1.6893    0.4472   -5.6640 H   0  0  0  0  0  0  0  0  0  0  0  0
   -1.4861    1.3319   -3.7099 C   0  0  0  0  0  0  0  0  0  0  0  0
   -2.4289    1.8543   -3.5494 H   0  0  0  0  0  0  0  0  0  0  0  0
    0.1556    1.4889    0.9660 C   0  0  0  0  0  0  0  0  0  0  0  0
    1.2481    1.1359    1.3799 O   0  0  0  0  0  0  0  0  0  0  0  0
   -0.4107    2.6384    1.4914 N   0  0  0  0  0  0  0  0  0  0  0  0
   -1.3397    2.8938    1.1732 H   0  0  0  0  0  0  0  0  0  0  0  0
    0.1181    3.3006    2.6824 C   0  0  0  0  0  0  0  0  0  0  0  0
    1.1507    3.6264    2.5164 H   0  0  0  0  0  0  0  0  0  0  0  0
   -0.4830    4.1814    2.9287 H   0  0  0  0  0  0  0  0  0  0  0  0
    0.1012    2.6192    3.5403 H   0  0  0  0  0  0  0  0  0  0  0  0
  1  2  1  0  0  0  0
  2  3  1  0  0  0  0
  2  4  1  0  0  0  0
  2  5  1  0  0  0  0
  5  6  2  0  0  0  0
  5  7  1  0  0  0  0
  7  8  1  0  0  0  0
  7  9  1  0  0  0  0
  9 10  1  0  0  0  0
  9 11  1  0  0  0  0
  9 23  1  0  0  0  0
 11 12  1  0  0  0  0
 11 13  1  0  0  0  0
 11 14  1  0  0  0  0
 14 15  1  0  0  0  0
 14 21  2  0  0  0  0
 15 16  1  0  0  0  0
 15 17  2  0  0  0  0
 17 18  1  0  0  0  0
 17 19  1  0  0  0  0
 19 20  1  0  0  0  0
 19 21  1  0  0  0  0
 21 22  1  0  0  0  0
 23 24  2  0  0  0  0
 23 25  1  0  0  0  0
 25 26  1  0  0  0  0
 25 27  1  0  0  0  0
 27 28  1  0  0  0  0
 27 29  1  0  0  0  0
 27 30  1  0  0  0  0
M  CHG  1  15   1
M  END
$$$$

  -OEChem-01062216083D

 30 30  0     1  0  0  0  0  0999 V2000
   -3.2571   -2.2564    1.4721 H   0  0  0  0  0  0  0  0  0  0  0  0
   -3.2824   -1.4021    0.7887 C   0  0  0  0  0  0  0  0  0  0  0  0
   -3.8880   -0.6127    1.2398 H   0  0  0  0  0  0  0  0  0  0  0  0
   -3.7437   -1.7187   -0.1496 H   0  0  0  0  0  0  0  0  0  0  0  0
   -1.8740   -0.8997    0.5356 C   0  0  0  0  0  0  0  0  0  0  0  0
   -0.9219   -1.4752    1.0279 O   0  0  0  0  0  0  0  0  0  0  0  0
   -1.6555    0.1961   -0.2808 N   0  0  0  0  0  0  0  0  0  0  0  0
   -2.4868    0.6942   -0.5837 H   0  0  0  0  0  0  0  0  0  0  0  0
   -0.3460    0.8784   -0.3514 C   0  0  1  0  0  0  0  0  0  0  0  0
    0.3925    0.1052   -0.5958 H   0  0  0  0  0  0  0  0  0  0  0  0
   -0.2829    1.9280   -1.4715 C   0  0  0  0  0  0  0  0  0  0  0  0
   -1.0722    2.6720   -1.3231 H   0  0  0  0  0  0  0  0  0  0  0  0
    0.6756    2.4591   -1.4243 H   0  0  0  0  0  0  0  0  0  0  0  0
   -0.4243    1.2750   -2.8247 C   0  0  0  0  0  0  0  0  0  0  0  0
    0.5772    0.5387   -3.4613 N   0  3  0  0  0  0  0  0  0  0  0  0
    1.4831    0.3366   -3.0261 H   0  0  0  0  0  0  0  0  0  0  0  0
    0.1714    0.1436   -4.6432 C   0  0  0  0  0  0  0  0  0  0  0  0
    0.7405   -0.4580   -5.3552 H   0  0  0  0  0  0  0  0  0  0  0  0
   -1.1195    0.6373   -4.8208 N   0  0  0  0  0  0  0  0  0  0  0  0
   -1.6973    0.5062   -5.6571 H   0  0  0  0  0  0  0  0  0  0  0  0
   -1.4888    1.3555   -3.6881 C   0  0  0  0  0  0  0  0  0  0  0  0
   -2.4247    1.8889   -3.5223 H   0  0  0  0  0  0  0  0  0  0  0  0
    0.1599    1.4715    0.9788 C   0  0  0  0  0  0  0  0  0  0  0  0
    1.3479    1.3585    1.2384 O   0  0  0  0  0  0  0  0  0  0  0  0
   -0.5804    2.4328    1.6449 N   0  0  0  0  0  0  0  0  0  0  0  0
   -1.5764    2.4680    1.4538 H   0  0  0  0  0  0  0  0  0  0  0  0
   -0.0791    3.1246    2.8306 C   0  0  0  0  0  0  0  0  0  0  0  0
    0.8292    3.6889    2.5919 H   0  0  0  0  0  0  0  0  0  0  0  0
   -0.8283    3.8270    3.2091 H   0  0  0  0  0  0  0  0  0  0  0  0
    0.1545    2.4067    3.6245 H   0  0  0  0  0  0  0  0  0  0  0  0
  1  2  1  0  0  0  0
  2  3  1  0  0  0  0
  2  4  1  0  0  0  0
  2  5  1  0  0  0  0
  5  6  2  0  0  0  0
  5  7  1  0  0  0  0
  7  8  1  0  0  0  0
  7  9  1  0  0  0  0
  9 10  1  0  0  0  0
  9 11  1  0  0  0  0
  9 23  1  0  0  0  0
 11 12  1  0  0  0  0
 11 13  1  0  0  0  0
 11 14  1  0  0  0  0
 14 15  1  0  0  0  0
 14 21  2  0  0  0  0
 15 16  1  0  0  0  0
 15 17  2  0  0  0  0
 17 18  1  0  0  0  0
 17 19  1  0  0  0  0
 19 20  1  0  0  0  0
 19 21  1  0  0  0  0
 21 22  1  0  0  0  0
 23 24  2  0  0  0  0
 23 25  1  0  0  0  0
 25 26  1  0  0  0  0
 25 27  1  0  0  0  0
 27 28  1  0  0  0  0
 27 29  1  0  0  0  0
 27 30  1  0  0  0  0
M  CHG  1  15   1
M  END
$$$$

  -OEChem-01062216083D

 30 30  0     1  0  0  0  0  0999 V2000
   -3.2797   -2.2694    1.4562 H   0  0  0  0  0  0  0  0  0  0  0  0
   -3.2921   -1.4246    0.7609 C   0  0  0  0  0  0  0  0  0  0  0  0
   -3.9245   -0.6381    1.1793 H   0  0  0  0  0  0  0  0  0  0  0  0
   -3.7152   -1.7598   -0.1889 H   0  0  0  0  0  0  0  0  0  0  0  0
   -1.8828   -0.9059    0.5511 C   0  0  0  0  0  0  0  0  0  0  0  0
   -0.9416   -1.4511    1.0965 O   0  0  0  0  0  0  0  0  0  0  0  0
   -1.6495    0.1807   -0.2730 N   0  0  0  0  0  0  0  0  0  0  0  0
   -2.4716    0.6605   -0.6265 H   0  0  0  0  0  0  0  0  0  0  0  0
   -0.3369    0.8580   -0.3404 C   0  0  1  0  0  0  0  0  0  0  0  0
    0.4038    0.0855   -0.5802 H   0  0  0  0  0  0  0  0  0  0  0  0
   -0.2801    1.9118   -1.4578 C   0  0  0  0  0  0  0  0  0  0  0  0
   -1.0678    2.6556   -1.2991 H   0  0  0  0  0  0  0  0  0  0  0  0
    0.6780    2.4439   -1.4146 H   0  0  0  0  0  0  0  0  0  0  0  0
   -0.4282    1.2701   -2.8153 C   0  0  0  0  0  0  0  0  0  0  0  0
    0.5697    0.5391   -3.4634 N   0  3  0  0  0  0  0  0  0  0  0  0
    1.4803    0.3388   -3.0374 H   0  0  0  0  0  0  0  0  0  0  0  0
    0.1598    0.1603   -4.6492 C   0  0  0  0  0  0  0  0  0  0  0  0
    0.7272   -0.4293   -5.3727 H   0  0  0  0  0  0  0  0  0  0  0  0
   -1.1320    0.6558   -4.8153 N   0  0  0  0  0  0  0  0  0  0  0  0
   -1.7117    0.5386   -5.6525 H   0  0  0  0  0  0  0  0  0  0  0  0
   -1.4960    1.3615   -3.6732 C   0  0  0  0  0  0  0  0  0  0  0  0
   -2.4293    1.8963   -3.4980 H   0  0  0  0  0  0  0  0  0  0  0  0
    0.1658    1.4643    0.9844 C   0  0  0  0  0  0  0  0  0  0  0  0
    1.3736    1.5727    1.1338 O   0  0  0  0  0  0  0  0  0  0  0  0
   -0.6844    2.1949    1.7955 N   0  0  0  0  0  0  0  0  0  0  0  0
   -1.6784    2.0150    1.6982 H   0  0  0  0  0  0  0  0  0  0  0  0
   -0.2214    2.8726    3.0042 C   0  0  0  0  0  0  0  0  0  0  0  0
    0.5489    3.6123    2.7602 H   0  0  0  0  0  0  0  0  0  0  0  0
   -1.0519    3.3923    3.4924 H   0  0  0  0  0  0  0  0  0  0  0  0
    0.1996    2.1504    3.7124 H   0  0  0  0  0  0  0  0  0  0  0  0
  1  2  1  0  0  0  0
  2  3  1  0  0  0  0
  2  4  1  0  0  0  0
  2  5  1  0  0  0  0
  5  6  2  0  0  0  0
  5  7  1  0  0  0  0
  7  8  1  0  0  0  0
  7  9  1  0  0  0  0
  9 10  1  0  0  0  0
  9 11  1  0  0  0  0
  9 23  1  0  0  0  0
 11 12  1  0  0  0  0
 11 13  1  0  0  0  0
 11 14  1  0  0  0  0
 14 15  1  0  0  0  0
 14 21  2  0  0  0  0
 15 16  1  0  0  0  0
 15 17  2  0  0  0  0
 17 18  1  0  0  0  0
 17 19  1  0  0  0  0
 19 20  1  0  0  0  0
 19 21  1  0  0  0  0
 21 22  1  0  0  0  0
 23 24  2  0  0  0  0
 23 25  1  0  0  0  0
 25 26  1  0  0  0  0
 25 27  1  0  0  0  0
 27 28  1  0  0  0  0
 27 29  1  0  0  0  0
 27 30  1  0  0  0  0
M  CHG  1  15   1
M  END
$$$$

  -OEChem-01062216083D

 30 30  0     1  0  0  0  0  0999 V2000
   -3.2959   -2.2832    1.4315 H   0  0  0  0  0  0  0  0  0  0  0  0
   -3.3011   -1.4399    0.7343 C   0  0  0  0  0  0  0  0  0  0  0  0
   -3.9510   -0.6591    1.1360 H   0  0  0  0  0  0  0  0  0  0  0  0
   -3.6992   -1.7816   -0.2240 H   0  0  0  0  0  0  0  0  0  0  0  0
   -1.8923   -0.9083    0.5543 C   0  0  0  0  0  0  0  0  0  0  0  0
   -0.9601   -1.4336    1.1335 O   0  0  0  0  0  0  0  0  0  0  0  0
   -1.6485    0.1735   -0.2731 N   0  0  0  0  0  0  0  0  0  0  0  0
   -2.4649    0.6458   -0.6498 H   0  0  0  0  0  0  0  0  0  0  0  0
   -0.3349    0.8512   -0.3333 C   0  0  1  0  0  0  0  0  0  0  0  0
    0.4100    0.0820   -0.5685 H   0  0  0  0  0  0  0  0  0  0  0  0
   -0.2895    1.9047   -1.4540 C   0  0  0  0  0  0  0  0  0  0  0  0
   -1.0827    2.6420   -1.2911 H   0  0  0  0  0  0  0  0  0  0  0  0
    0.6636    2.4462   -1.4172 H   0  0  0  0  0  0  0  0  0  0  0  0
   -0.4370    1.2651   -2.8123 C   0  0  0  0  0  0  0  0  0  0  0  0
    0.5647    0.5429   -3.4640 N   0  3  0  0  0  0  0  0  0  0  0  0
    1.4784    0.3511   -3.0410 H   0  0  0  0  0  0  0  0  0  0  0  0
    0.1576    0.1688   -4.6524 C   0  0  0  0  0  0  0  0  0  0  0  0
    0.7295   -0.4113   -5.3800 H   0  0  0  0  0  0  0  0  0  0  0  0
   -1.1376    0.6567   -4.8154 N   0  0  0  0  0  0  0  0  0  0  0  0
   -1.7152    0.5435   -5.6545 H   0  0  0  0  0  0  0  0  0  0  0  0
   -1.5055    1.3548   -3.6696 C   0  0  0  0  0  0  0  0  0  0  0  0
   -2.4409    1.8858   -3.4929 H   0  0  0  0  0  0  0  0  0  0  0  0
    0.1651    1.4700    0.9884 C   0  0  0  0  0  0  0  0  0  0  0  0
    1.3479    1.7698    1.0603 O   0  0  0  0  0  0  0  0  0  0  0  0
   -0.7184    1.9427    1.9418 N   0  0  0  0  0  0  0  0  0  0  0  0
   -1.6640    1.5762    1.9064 H   0  0  0  0  0  0  0  0  0  0  0  0
   -0.2679    2.5665    3.1832 C   0  0  0  0  0  0  0  0  0  0  0  0
    0.3566    3.4413    2.9714 H   0  0  0  0  0  0  0  0  0  0  0  0
   -1.1258    2.8953    3.7781 H   0  0  0  0  0  0  0  0  0  0  0  0
    0.3157    1.8565    3.7794 H   0  0  0  0  0  0  0  0  0  0  0  0
  1  2  1  0  0  0  0
  2  3  1  0  0  0  0
  2  4  1  0  0  0  0
  2  5  1  0  0  0  0
  5  6  2  0  0  0  0
  5  7  1  0  0  0  0
  7  8  1  0  0  0  0
  7  9  1  0  0  0  0
  9 10  1  0  0  0  0
  9 11  1  0  0  0  0
  9 23  1  0  0  0  0
 11 12  1  0  0  0  0
 11 13  1  0  0  0  0
 11 14  1  0  0  0  0
 14 15  1  0  0  0  0
 14 21  2  0  0  0  0
 15 16  1  0  0  0  0
 15 17  2  0  0  0  0
 17 18  1  0  0  0  0
 17 19  1  0  0  0  0
 19 20  1  0  0  0  0
 19 21  1  0  0  0  0
 21 22  1  0  0  0  0
 23 24  2  0  0  0  0
 23 25  1  0  0  0  0
 25 26  1  0  0  0  0
 25 27  1  0  0  0  0
 27 28  1  0  0  0  0
 27 29  1  0  0  0  0
 27 30  1  0  0  0  0
M  CHG  1  15   1
M  END
$$$$

  -OEChem-01062216083D

 30 30  0     1  0  0  0  0  0999 V2000
   -3.3354   -2.2889    1.3844 H   0  0  0  0  0  0  0  0  0  0  0  0
   -3.3226   -1.4477    0.6849 C   0  0  0  0  0  0  0  0  0  0  0  0
   -3.9837   -0.6661    1.0665 H   0  0  0  0  0  0  0  0  0  0  0  0
   -3.6948   -1.7924   -0.2827 H   0  0  0  0  0  0  0  0  0  0  0  0
   -1.9103   -0.9148    0.5404 C   0  0  0  0  0  0  0  0  0  0  0  0
   -0.9943   -1.4273    1.1557 O   0  0  0  0  0  0  0  0  0  0  0  0
   -1.6480    0.1690   -0.2773 N   0  0  0  0  0  0  0  0  0  0  0  0
   -2.4580    0.6447   -0.6639 H   0  0  0  0  0  0  0  0  0  0  0  0
   -0.3335    0.8483   -0.3214 C   0  0  1  0  0  0  0  0  0  0  0  0
    0.4160    0.0835   -0.5546 H   0  0  0  0  0  0  0  0  0  0  0  0
   -0.3020    1.9006   -1.4469 C   0  0  0  0  0  0  0  0  0  0  0  0
   -1.1033    2.6290   -1.2829 H   0  0  0  0  0  0  0  0  0  0  0  0
    0.6435    2.4551   -1.4175 H   0  0  0  0  0  0  0  0  0  0  0  0
   -0.4437    1.2589   -2.8054 C   0  0  0  0  0  0  0  0  0  0  0  0
    0.5636    0.5479   -3.4608 N   0  3  0  0  0  0  0  0  0  0  0  0
    1.4820    0.3691   -3.0424 H   0  0  0  0  0  0  0  0  0  0  0  0
    0.1579    0.1731   -4.6495 C   0  0  0  0  0  0  0  0  0  0  0  0
    0.7352   -0.3967   -5.3810 H   0  0  0  0  0  0  0  0  0  0  0  0
   -1.1430    0.6466   -4.8080 N   0  0  0  0  0  0  0  0  0  0  0  0
   -1.7210    0.5308   -5.6466 H   0  0  0  0  0  0  0  0  0  0  0  0
   -1.5154    1.3379   -3.6597 C   0  0  0  0  0  0  0  0  0  0  0  0
   -2.4559    1.8589   -3.4796 H   0  0  0  0  0  0  0  0  0  0  0  0
    0.1642    1.4704    1.0039 C   0  0  0  0  0  0  0  0  0  0  0  0
    1.2841    1.9613    1.0148 O   0  0  0  0  0  0  0  0  0  0  0  0
   -0.6781    1.6713    2.0822 N   0  0  0  0  0  0  0  0  0  0  0  0
   -1.5160    1.0985    2.1059 H   0  0  0  0  0  0  0  0  0  0  0  0
   -0.2116    2.2512    3.3391 C   0  0  0  0  0  0  0  0  0  0  0  0
    0.1999    3.2529    3.1733 H   0  0  0  0  0  0  0  0  0  0  0  0
   -1.0394    2.3357    4.0501 H   0  0  0  0  0  0  0  0  0  0  0  0
    0.5669    1.6233    3.7862 H   0  0  0  0  0  0  0  0  0  0  0  0
  1  2  1  0  0  0  0
  2  3  1  0  0  0  0
  2  4  1  0  0  0  0
  2  5  1  0  0  0  0
  5  6  2  0  0  0  0
  5  7  1  0  0  0  0
  7  8  1  0  0  0  0
  7  9  1  0  0  0  0
  9 10  1  0  0  0  0
  9 11  1  0  0  0  0
  9 23  1  0  0  0  0
 11 12  1  0  0  0  0
 11 13  1  0  0  0  0
 11 14  1  0  0  0  0
 14 15  1  0  0  0  0
 14 21  2  0  0  0  0
 15 16  1  0  0  0  0
 15 17  2  0  0  0  0
 17 18  1  0  0  0  0
 17 19  1  0  0  0  0
 19 20  1  0  0  0  0
 19 21  1  0  0  0  0
 21 22  1  0  0  0  0
 23 24  2  0  0  0  0
 23 25  1  0  0  0  0
 25 26  1  0  0  0  0
 25 27  1  0  0  0  0
 27 28  1  0  0  0  0
 27 29  1  0  0  0  0
 27 30  1  0  0  0  0
M  CHG  1  15   1
M  END
$$$$

  -OEChem-01062216083D

 30 30  0     1  0  0  0  0  0999 V2000
   -3.3738   -2.3062    1.3136 H   0  0  0  0  0  0  0  0  0  0  0  0
   -3.3443   -1.4476    0.6359 C   0  0  0  0  0  0  0  0  0  0  0  0
   -4.0037   -0.6699    1.0287 H   0  0  0  0  0  0  0  0  0  0  0  0
   -3.7066   -1.7647   -0.3448 H   0  0  0  0  0  0  0  0  0  0  0  0
   -1.9260   -0.9231    0.5237 C   0  0  0  0  0  0  0  0  0  0  0  0
   -1.0288   -1.4342    1.1679 O   0  0  0  0  0  0  0  0  0  0  0  0
   -1.6400    0.1656   -0.2786 N   0  0  0  0  0  0  0  0  0  0  0  0
   -2.4431    0.6518   -0.6664 H   0  0  0  0  0  0  0  0  0  0  0  0
   -0.3230    0.8437   -0.3095 C   0  0  1  0  0  0  0  0  0  0  0  0
    0.4284    0.0824   -0.5463 H   0  0  0  0  0  0  0  0  0  0  0  0
   -0.3064    1.8977   -1.4376 C   0  0  0  0  0  0  0  0  0  0  0  0
   -1.1124    2.6195   -1.2682 H   0  0  0  0  0  0  0  0  0  0  0  0
    0.6333    2.4620   -1.4193 H   0  0  0  0  0  0  0  0  0  0  0  0
   -0.4488    1.2563   -2.7962 C   0  0  0  0  0  0  0  0  0  0  0  0
    0.5604    0.5550   -3.4589 N   0  3  0  0  0  0  0  0  0  0  0  0
    1.4853    0.3903   -3.0498 H   0  0  0  0  0  0  0  0  0  0  0  0
    0.1500    0.1778   -4.6452 C   0  0  0  0  0  0  0  0  0  0  0  0
    0.7285   -0.3836   -5.3821 H   0  0  0  0  0  0  0  0  0  0  0  0
   -1.1575    0.6365   -4.7931 N   0  0  0  0  0  0  0  0  0  0  0  0
   -1.7411    0.5138   -5.6268 H   0  0  0  0  0  0  0  0  0  0  0  0
   -1.5276    1.3248   -3.6424 C   0  0  0  0  0  0  0  0  0  0  0  0
   -2.4716    1.8362   -3.4543 H   0  0  0  0  0  0  0  0  0  0  0  0
    0.1736    1.4603    1.0239 C   0  0  0  0  0  0  0  0  0  0  0  0
    1.1854    2.1472    0.9980 O   0  0  0  0  0  0  0  0  0  0  0  0
   -0.5633    1.3873    2.1915 N   0  0  0  0  0  0  0  0  0  0  0  0
   -1.2104    0.6039    2.2419 H   0  0  0  0  0  0  0  0  0  0  0  0
   -0.0817    1.9423    3.4538 C   0  0  0  0  0  0  0  0  0  0  0  0
    0.1528    3.0067    3.3442 H   0  0  0  0  0  0  0  0  0  0  0  0
   -0.8468    1.8406    4.2299 H   0  0  0  0  0  0  0  0  0  0  0  0
    0.8209    1.4173    3.7845 H   0  0  0  0  0  0  0  0  0  0  0  0
  1  2  1  0  0  0  0
  2  3  1  0  0  0  0
  2  4  1  0  0  0  0
  2  5  1  0  0  0  0
  5  6  2  0  0  0  0
  5  7  1  0  0  0  0
  7  8  1  0  0  0  0
  7  9  1  0  0  0  0
  9 10  1  0  0  0  0
  9 11  1  0  0  0  0
  9 23  1  0  0  0  0
 11 12  1  0  0  0  0
 11 13  1  0  0  0  0
 11 14  1  0  0  0  0
 14 15  1  0  0  0  0
 14 21  2  0  0  0  0
 15 16  1  0  0  0  0
 15 17  2  0  0  0  0
 17 18  1  0  0  0  0
 17 19  1  0  0  0  0
 19 20  1  0  0  0  0
 19 21  1  0  0  0  0
 21 22  1  0  0  0  0
 23 24  2  0  0  0  0
 23 25  1  0  0  0  0
 25 26  1  0  0  0  0
 25 27  1  0  0  0  0
 27 28  1  0  0  0  0
 27 29  1  0  0  0  0
 27 30  1  0  0  0  0
M  CHG  1  15   1
M  END
$$$$

  -OEChem-01062216083D

 30 30  0     1  0  0  0  0  0999 V2000
   -3.3856   -2.2917    1.3137 H   0  0  0  0  0  0  0  0  0  0  0  0
   -3.3537   -1.4195    0.6541 C   0  0  0  0  0  0  0  0  0  0  0  0
   -3.9701   -0.6293    1.0897 H   0  0  0  0  0  0  0  0  0  0  0  0
   -3.7655   -1.7017   -0.3177 H   0  0  0  0  0  0  0  0  0  0  0  0
   -1.9242   -0.9387    0.4968 C   0  0  0  0  0  0  0  0  0  0  0  0
   -1.0194   -1.4973    1.0909 O   0  0  0  0  0  0  0  0  0  0  0  0
   -1.6349    0.1611   -0.2888 N   0  0  0  0  0  0  0  0  0  0  0  0
   -2.4434    0.6826   -0.6150 H   0  0  0  0  0  0  0  0  0  0  0  0
   -0.3184    0.8422   -0.3102 C   0  0  1  0  0  0  0  0  0  0  0  0
    0.4345    0.0845   -0.5519 H   0  0  0  0  0  0  0  0  0  0  0  0
   -0.3082    1.8969   -1.4402 C   0  0  0  0  0  0  0  0  0  0  0  0
   -1.1163    2.6162   -1.2706 H   0  0  0  0  0  0  0  0  0  0  0  0
    0.6295    2.4641   -1.4259 H   0  0  0  0  0  0  0  0  0  0  0  0
   -0.4456    1.2547   -2.7996 C   0  0  0  0  0  0  0  0  0  0  0  0
    0.5668    0.5598   -3.4643 N   0  3  0  0  0  0  0  0  0  0  0  0
    1.4938    0.4019   -3.0577 H   0  0  0  0  0  0  0  0  0  0  0  0
    0.1569    0.1799   -4.6499 C   0  0  0  0  0  0  0  0  0  0  0  0
    0.7376   -0.3777   -5.3879 H   0  0  0  0  0  0  0  0  0  0  0  0
   -1.1535    0.6305   -4.7959 N   0  0  0  0  0  0  0  0  0  0  0  0
   -1.7383    0.5035   -5.6281 H   0  0  0  0  0  0  0  0  0  0  0  0
   -1.5266    1.3149   -3.6439 C   0  0  0  0  0  0  0  0  0  0  0  0
   -2.4747    1.8177   -3.4531 H   0  0  0  0  0  0  0  0  0  0  0  0
    0.1752    1.4434    1.0358 C   0  0  0  0  0  0  0  0  0  0  0  0
    1.0315    2.3164    1.0070 O   0  0  0  0  0  0  0  0  0  0  0  0
   -0.3915    1.1066    2.2512 N   0  0  0  0  0  0  0  0  0  0  0  0
   -0.8619    0.2015    2.2680 H   0  0  0  0  0  0  0  0  0  0  0  0
    0.1026    1.6318    3.5216 C   0  0  0  0  0  0  0  0  0  0  0  0
    0.0861    2.7272    3.5199 H   0  0  0  0  0  0  0  0  0  0  0  0
   -0.5263    1.2827    4.3467 H   0  0  0  0  0  0  0  0  0  0  0  0
    1.1298    1.2972    3.7023 H   0  0  0  0  0  0  0  0  0  0  0  0
  1  2  1  0  0  0  0
  2  3  1  0  0  0  0
  2  4  1  0  0  0  0
  2  5  1  0  0  0  0
  5  6  2  0  0  0  0
  5  7  1  0  0  0  0
  7  8  1  0  0  0  0
  7  9  1  0  0  0  0
  9 10  1  0  0  0  0
  9 11  1  0  0  0  0
  9 23  1  0  0  0  0
 11 12  1  0  0  0  0
 11 13  1  0  0  0  0
 11 14  1  0  0  0  0
 14 15  1  0  0  0  0
 14 21  2  0  0  0  0
 15 16  1  0  0  0  0
 15 17  2  0  0  0  0
 17 18  1  0  0  0  0
 17 19  1  0  0  0  0
 19 20  1  0  0  0  0
 19 21  1  0  0  0  0
 21 22  1  0  0  0  0
 23 24  2  0  0  0  0
 23 25  1  0  0  0  0
 25 26  1  0  0  0  0
 25 27  1  0  0  0  0
 27 28  1  0  0  0  0
 27 29  1  0  0  0  0
 27 30  1  0  0  0  0
M  CHG  1  15   1
M  END
$$$$

  -OEChem-01062216083D

 30 30  0     1  0  0  0  0  0999 V2000
   -3.3653   -2.2809    1.3371 H   0  0  0  0  0  0  0  0  0  0  0  0
   -3.3391   -1.3898    0.7029 C   0  0  0  0  0  0  0  0  0  0  0  0
   -3.9029   -0.5942    1.1962 H   0  0  0  0  0  0  0  0  0  0  0  0
   -3.8128   -1.6268   -0.2523 H   0  0  0  0  0  0  0  0  0  0  0  0
   -1.9047   -0.9516    0.4799 C   0  0  0  0  0  0  0  0  0  0  0  0
   -0.9864   -1.5695    0.9911 O   0  0  0  0  0  0  0  0  0  0  0  0
   -1.6213    0.1549   -0.2991 N   0  0  0  0  0  0  0  0  0  0  0  0
   -2.4342    0.7077   -0.5566 H   0  0  0  0  0  0  0  0  0  0  0  0
   -0.3045    0.8357   -0.3179 C   0  0  1  0  0  0  0  0  0  0  0  0
    0.4492    0.0801   -0.5644 H   0  0  0  0  0  0  0  0  0  0  0  0
   -0.2946    1.8929   -1.4459 C   0  0  0  0  0  0  0  0  0  0  0  0
   -1.1026    2.6119   -1.2739 H   0  0  0  0  0  0  0  0  0  0  0  0
    0.6437    2.4598   -1.4297 H   0  0  0  0  0  0  0  0  0  0  0  0
   -0.4326    1.2535   -2.8068 C   0  0  0  0  0  0  0  0  0  0  0  0
    0.5742    0.5583   -3.4800 N   0  3  0  0  0  0  0  0  0  0  0  0
    1.5034    0.3964   -3.0807 H   0  0  0  0  0  0  0  0  0  0  0  0
    0.1540    0.1789   -4.6622 C   0  0  0  0  0  0  0  0  0  0  0  0
    0.7269   -0.3810   -5.4045 H   0  0  0  0  0  0  0  0  0  0  0  0
   -1.1567    0.6321   -4.7980 N   0  0  0  0  0  0  0  0  0  0  0  0
   -1.7489    0.5055   -5.6248 H   0  0  0  0  0  0  0  0  0  0  0  0
   -1.5192    1.3165   -3.6431 C   0  0  0  0  0  0  0  0  0  0  0  0
   -2.4652    1.8196   -3.4435 H   0  0  0  0  0  0  0  0  0  0  0  0
    0.1824    1.4232    1.0384 C   0  0  0  0  0  0  0  0  0  0  0  0
    0.8441    2.4519    1.0365 O   0  0  0  0  0  0  0  0  0  0  0  0
   -0.1660    0.8662    2.2543 N   0  0  0  0  0  0  0  0  0  0  0  0
   -0.5103   -0.0953    2.2163 H   0  0  0  0  0  0  0  0  0  0  0  0
    0.3274    1.3677    3.5340 C   0  0  0  0  0  0  0  0  0  0  0  0
    0.0729    2.4259    3.6580 H   0  0  0  0  0  0  0  0  0  0  0  0
   -0.1249    0.8089    4.3595 H   0  0  0  0  0  0  0  0  0  0  0  0
    1.4154    1.2589    3.5960 H   0  0  0  0  0  0  0  0  0  0  0  0
  1  2  1  0  0  0  0
  2  3  1  0  0  0  0
  2  4  1  0  0  0  0
  2  5  1  0  0  0  0
  5  6  2  0  0  0  0
  5  7  1  0  0  0  0
  7  8  1  0  0  0  0
  7  9  1  0  0  0  0
  9 10  1  0  0  0  0
  9 11  1  0  0  0  0
  9 23  1  0  0  0  0
 11 12  1  0  0  0  0
 11 13  1  0  0  0  0
 11 14  1  0  0  0  0
 14 15  1  0  0  0  0
 14 21  2  0  0  0  0
 15 16  1  0  0  0  0
 15 17  2  0  0  0  0
 17 18  1  0  0  0  0
 17 19  1  0  0  0  0
 19 20  1  0  0  0  0
 19 21  1  0  0  0  0
 21 22  1  0  0  0  0
 23 24  2  0  0  0  0
 23 25  1  0  0  0  0
 25 26  1  0  0  0  0
 25 27  1  0  0  0  0
 27 28  1  0  0  0  0
 27 29  1  0  0  0  0
 27 30  1  0  0  0  0
M  CHG  1  15   1
M  END
$$$$

  -OEChem-01062216083D

 30 30  0     1  0  0  0  0  0999 V2000
   -3.3268   -2.2754    1.3731 H   0  0  0  0  0  0  0  0  0  0  0  0
   -3.3084   -1.3687    0.7612 C   0  0  0  0  0  0  0  0  0  0  0  0
   -3.8272   -0.5727    1.3010 H   0  0  0  0  0  0  0  0  0  0  0  0
   -3.8330   -1.5688   -0.1759 H   0  0  0  0  0  0  0  0  0  0  0  0
   -1.8754   -0.9596    0.4812 C   0  0  0  0  0  0  0  0  0  0  0  0
   -0.9497   -1.6175    0.9267 O   0  0  0  0  0  0  0  0  0  0  0  0
   -1.6000    0.1453   -0.3034 N   0  0  0  0  0  0  0  0  0  0  0  0
   -2.4129    0.7169   -0.5172 H   0  0  0  0  0  0  0  0  0  0  0  0
   -0.2806    0.8188   -0.3299 C   0  0  1  0  0  0  0  0  0  0  0  0
    0.4698    0.0621   -0.5824 H   0  0  0  0  0  0  0  0  0  0  0  0
   -0.2691    1.8806   -1.4525 C   0  0  0  0  0  0  0  0  0  0  0  0
   -1.0701    2.6058   -1.2730 H   0  0  0  0  0  0  0  0  0  0  0  0
    0.6747    2.4380   -1.4339 H   0  0  0  0  0  0  0  0  0  0  0  0
   -0.4195    1.2504   -2.8160 C   0  0  0  0  0  0  0  0  0  0  0  0
    0.5746    0.5507   -3.5032 N   0  3  0  0  0  0  0  0  0  0  0  0
    1.5048    0.3748   -3.1128 H   0  0  0  0  0  0  0  0  0  0  0  0
    0.1401    0.1840   -4.6843 C   0  0  0  0  0  0  0  0  0  0  0  0
    0.7009   -0.3761   -5.4357 H   0  0  0  0  0  0  0  0  0  0  0  0
   -1.1675    0.6497   -4.8049 N   0  0  0  0  0  0  0  0  0  0  0  0
   -1.7685    0.5340   -5.6270 H   0  0  0  0  0  0  0  0  0  0  0  0
   -1.5136    1.3277   -3.6412 C   0  0  0  0  0  0  0  0  0  0  0  0
   -2.4542    1.8356   -3.4275 H   0  0  0  0  0  0  0  0  0  0  0  0
    0.2020    1.3988    1.0304 C   0  0  0  0  0  0  0  0  0  0  0  0
    0.6483    2.5369    1.0720 O   0  0  0  0  0  0  0  0  0  0  0  0
    0.1084    0.6848    2.2092 N   0  0  0  0  0  0  0  0  0  0  0  0
   -0.1563   -0.3000    2.1280 H   0  0  0  0  0  0  0  0  0  0  0  0
    0.5853    1.1790    3.4975 C   0  0  0  0  0  0  0  0  0  0  0  0
    0.0930    2.1233    3.7541 H   0  0  0  0  0  0  0  0  0  0  0  0
    0.3661    0.4530    4.2869 H   0  0  0  0  0  0  0  0  0  0  0  0
    1.6676    1.3443    3.4697 H   0  0  0  0  0  0  0  0  0  0  0  0
  1  2  1  0  0  0  0
  2  3  1  0  0  0  0
  2  4  1  0  0  0  0
  2  5  1  0  0  0  0
  5  6  2  0  0  0  0
  5  7  1  0  0  0  0
  7  8  1  0  0  0  0
  7  9  1  0  0  0  0
  9 10  1  0  0  0  0
  9 11  1  0  0  0  0
  9 23  1  0  0  0  0
 11 12  1  0  0  0  0
 11 13  1  0  0  0  0
 11 14  1  0  0  0  0
 14 15  1  0  0  0  0
 14 21  2  0  0  0  0
 15 16  1  0  0  0  0
 15 17  2  0  0  0  0
 17 18  1  0  0  0  0
 17 19  1  0  0  0  0
 19 20  1  0  0  0  0
 19 21  1  0  0  0  0
 21 22  1  0  0  0  0
 23 24  2  0  0  0  0
 23 25  1  0  0  0  0
 25 26  1  0  0  0  0
 25 27  1  0  0  0  0
 27 28  1  0  0  0  0
 27 29  1  0  0  0  0
 27 30  1  0  0  0  0
M  CHG  1  15   1
M  END
$$$$

  -OEChem-01062216083D

 30 30  0     1  0  0  0  0  0999 V2000
   -3.2591   -2.2398    1.4601 H   0  0  0  0  0  0  0  0  0  0  0  0
   -3.2487   -1.3429    0.8338 C   0  0  0  0  0  0  0  0  0  0  0  0
   -3.7343   -0.5304    1.3798 H   0  0  0  0  0  0  0  0  0  0  0  0
   -3.8108   -1.5476   -0.0803 H   0  0  0  0  0  0  0  0  0  0  0  0
   -1.8209   -0.9612    0.4951 C   0  0  0  0  0  0  0  0  0  0  0  0
   -0.8895   -1.6377    0.9007 O   0  0  0  0  0  0  0  0  0  0  0  0
   -1.5588    0.1345   -0.3071 N   0  0  0  0  0  0  0  0  0  0  0  0
   -2.3702    0.7207   -0.4840 H   0  0  0  0  0  0  0  0  0  0  0  0
   -0.2355    0.7959   -0.3526 C   0  0  1  0  0  0  0  0  0  0  0  0
    0.5111    0.0381   -0.6130 H   0  0  0  0  0  0  0  0  0  0  0  0
   -0.2275    1.8647   -1.4670 C   0  0  0  0  0  0  0  0  0  0  0  0
   -1.0202    2.5954   -1.2720 H   0  0  0  0  0  0  0  0  0  0  0  0
    0.7214    2.4135   -1.4490 H   0  0  0  0  0  0  0  0  0  0  0  0
   -0.4043    1.2485   -2.8344 C   0  0  0  0  0  0  0  0  0  0  0  0
    0.5682    0.5427   -3.5460 N   0  3  0  0  0  0  0  0  0  0  0  0
    1.5023    0.3495   -3.1739 H   0  0  0  0  0  0  0  0  0  0  0  0
    0.1076    0.1912   -4.7221 C   0  0  0  0  0  0  0  0  0  0  0  0
    0.6464   -0.3710   -5.4879 H   0  0  0  0  0  0  0  0  0  0  0  0
   -1.1952    0.6757   -4.8158 N   0  0  0  0  0  0  0  0  0  0  0  0
   -1.8129    0.5735   -5.6272 H   0  0  0  0  0  0  0  0  0  0  0  0
   -1.5112    1.3481   -3.6405 C   0  0  0  0  0  0  0  0  0  0  0  0
   -2.4412    1.8662   -3.4057 H   0  0  0  0  0  0  0  0  0  0  0  0
    0.2419    1.3738    1.0077 C   0  0  0  0  0  0  0  0  0  0  0  0
    0.4595    2.5731    1.1097 O   0  0  0  0  0  0  0  0  0  0  0  0
    0.4206    0.5677    2.1144 N   0  0  0  0  0  0  0  0  0  0  0  0
    0.1977   -0.4253    2.0058 H   0  0  0  0  0  0  0  0  0  0  0  0
    0.8280    1.0625    3.4258 C   0  0  0  0  0  0  0  0  0  0  0  0
    0.1011    1.7882    3.8062 H   0  0  0  0  0  0  0  0  0  0  0  0
    0.8939    0.2352    4.1392 H   0  0  0  0  0  0  0  0  0  0  0  0
    1.8091    1.5458    3.3670 H   0  0  0  0  0  0  0  0  0  0  0  0
  1  2  1  0  0  0  0
  2  3  1  0  0  0  0
  2  4  1  0  0  0  0
  2  5  1  0  0  0  0
  5  6  2  0  0  0  0
  5  7  1  0  0  0  0
  7  8  1  0  0  0  0
  7  9  1  0  0  0  0
  9 10  1  0  0  0  0
  9 11  1  0  0  0  0
  9 23  1  0  0  0  0
 11 12  1  0  0  0  0
 11 13  1  0  0  0  0
 11 14  1  0  0  0  0
 14 15  1  0  0  0  0
 14 21  2  0  0  0  0
 15 16  1  0  0  0  0
 15 17  2  0  0  0  0
 17 18  1  0  0  0  0
 17 19  1  0  0  0  0
 19 20  1  0  0  0  0
 19 21  1  0  0  0  0
 21 22  1  0  0  0  0
 23 24  2  0  0  0  0
 23 25  1  0  0  0  0
 25 26  1  0  0  0  0
 25 27  1  0  0  0  0
 27 28  1  0  0  0  0
 27 29  1  0  0  0  0
 27 30  1  0  0  0  0
M  CHG  1  15   1
M  END
$$$$

  -OEChem-01062216083D

 30 30  0     1  0  0  0  0  0999 V2000
   -3.1881   -2.2002    1.5452 H   0  0  0  0  0  0  0  0  0  0  0  0
   -3.1936   -1.3248    0.8888 C   0  0  0  0  0  0  0  0  0  0  0  0
   -3.6717   -0.4959    1.4167 H   0  0  0  0  0  0  0  0  0  0  0  0
   -3.7724   -1.5622   -0.0069 H   0  0  0  0  0  0  0  0  0  0  0  0
   -1.7743   -0.9502    0.5093 C   0  0  0  0  0  0  0  0  0  0  0  0
   -0.8324   -1.6181    0.9060 O   0  0  0  0  0  0  0  0  0  0  0  0
   -1.5304    0.1335   -0.3151 N   0  0  0  0  0  0  0  0  0  0  0  0
   -2.3414    0.7259   -0.4722 H   0  0  0  0  0  0  0  0  0  0  0  0
   -0.2051    0.7851   -0.3747 C   0  0  1  0  0  0  0  0  0  0  0  0
    0.5403    0.0271   -0.6382 H   0  0  0  0  0  0  0  0  0  0  0  0
   -0.1961    1.8590   -1.4825 C   0  0  0  0  0  0  0  0  0  0  0  0
   -0.9826    2.5946   -1.2790 H   0  0  0  0  0  0  0  0  0  0  0  0
    0.7571    2.4002   -1.4633 H   0  0  0  0  0  0  0  0  0  0  0  0
   -0.3912    1.2519   -2.8515 C   0  0  0  0  0  0  0  0  0  0  0  0
    0.5657    0.5399   -3.5781 N   0  3  0  0  0  0  0  0  0  0  0  0
    1.5032    0.3377   -3.2195 H   0  0  0  0  0  0  0  0  0  0  0  0
    0.0860    0.1964   -4.7490 C   0  0  0  0  0  0  0  0  0  0  0  0
    0.6097   -0.3666   -5.5244 H   0  0  0  0  0  0  0  0  0  0  0  0
   -1.2144    0.6908   -4.8228 N   0  0  0  0  0  0  0  0  0  0  0  0
   -1.8453    0.5941   -5.6247 H   0  0  0  0  0  0  0  0  0  0  0  0
   -1.5090    1.3610   -3.6410 C   0  0  0  0  0  0  0  0  0  0  0  0
   -2.4324    1.8829   -3.3898 H   0  0  0  0  0  0  0  0  0  0  0  0
    0.2588    1.3664    0.9851 C   0  0  0  0  0  0  0  0  0  0  0  0
    0.2570    2.5777    1.1552 O   0  0  0  0  0  0  0  0  0  0  0  0
    0.7124    0.5381    1.9927 N   0  0  0  0  0  0  0  0  0  0  0  0
    0.5373   -0.4627    1.8692 H   0  0  0  0  0  0  0  0  0  0  0  0
    1.1015    1.0207    3.3144 C   0  0  0  0  0  0  0  0  0  0  0  0
    0.2452    1.4718    3.8268 H   0  0  0  0  0  0  0  0  0  0  0  0
    1.4749    0.1929    3.9257 H   0  0  0  0  0  0  0  0  0  0  0  0
    1.8958    1.7706    3.2322 H   0  0  0  0  0  0  0  0  0  0  0  0
  1  2  1  0  0  0  0
  2  3  1  0  0  0  0
  2  4  1  0  0  0  0
  2  5  1  0  0  0  0
  5  6  2  0  0  0  0
  5  7  1  0  0  0  0
  7  8  1  0  0  0  0
  7  9  1  0  0  0  0
  9 10  1  0  0  0  0
  9 11  1  0  0  0  0
  9 23  1  0  0  0  0
 11 12  1  0  0  0  0
 11 13  1  0  0  0  0
 11 14  1  0  0  0  0
 14 15  1  0  0  0  0
 14 21  2  0  0  0  0
 15 16  1  0  0  0  0
 15 17  2  0  0  0  0
 17 18  1  0  0  0  0
 17 19  1  0  0  0  0
 19 20  1  0  0  0  0
 19 21  1  0  0  0  0
 21 22  1  0  0  0  0
 23 24  2  0  0  0  0
 23 25  1  0  0  0  0
 25 26  1  0  0  0  0
 25 27  1  0  0  0  0
 27 28  1  0  0  0  0
 27 29  1  0  0  0  0
 27 30  1  0  0  0  0
M  CHG  1  15   1
M  END
$$$$

  -OEChem-01062216083D

 30 30  0     1  0  0  0  0  0999 V2000
   -3.1100   -2.1912    1.5948 H   0  0  0  0  0  0  0  0  0  0  0  0
   -3.1334   -1.3166    0.9381 C   0  0  0  0  0  0  0  0  0  0  0  0
   -3.5997   -0.4878    1.4768 H   0  0  0  0  0  0  0  0  0  0  0  0
   -3.7336   -1.5559    0.0571 H   0  0  0  0  0  0  0  0  0  0  0  0
   -1.7243   -0.9402    0.5233 C   0  0  0  0  0  0  0  0  0  0  0  0
   -0.7682   -1.5894    0.9196 O   0  0  0  0  0  0  0  0  0  0  0  0
   -1.5023    0.1277   -0.3284 N   0  0  0  0  0  0  0  0  0  0  0  0
   -2.3129    0.7259   -0.4661 H   0  0  0  0  0  0  0  0  0  0  0  0
   -0.1756    0.7704   -0.4003 C   0  0  1  0  0  0  0  0  0  0  0  0
    0.5708    0.0132   -0.6634 H   0  0  0  0  0  0  0  0  0  0  0  0
   -0.1680    1.8507   -1.5003 C   0  0  0  0  0  0  0  0  0  0  0  0
   -0.9492    2.5890   -1.2869 H   0  0  0  0  0  0  0  0  0  0  0  0
    0.7879    2.3866   -1.4830 H   0  0  0  0  0  0  0  0  0  0  0  0
   -0.3817    1.2536   -2.8703 C   0  0  0  0  0  0  0  0  0  0  0  0
    0.5587    0.5370   -3.6135 N   0  3  0  0  0  0  0  0  0  0  0  0
    1.4974    0.3203   -3.2673 H   0  0  0  0  0  0  0  0  0  0  0  0
    0.0602    0.2047   -4.7799 C   0  0  0  0  0  0  0  0  0  0  0  0
    0.5671   -0.3605   -5.5648 H   0  0  0  0  0  0  0  0  0  0  0  0
   -1.2356    0.7138   -4.8345 N   0  0  0  0  0  0  0  0  0  0  0  0
   -1.8780    0.6289   -5.6286 H   0  0  0  0  0  0  0  0  0  0  0  0
   -1.5080    1.3797   -3.6450 C   0  0  0  0  0  0  0  0  0  0  0  0
   -2.4229    1.9091   -3.3781 H   0  0  0  0  0  0  0  0  0  0  0  0
    0.2644    1.3600    0.9605 C   0  0  0  0  0  0  0  0  0  0  0  0
    0.0415    2.5378    1.2042 O   0  0  0  0  0  0  0  0  0  0  0  0
    0.9784    0.5912    1.8583 N   0  0  0  0  0  0  0  0  0  0  0  0
    0.9118   -0.4197    1.7217 H   0  0  0  0  0  0  0  0  0  0  0  0
    1.3545    1.0783    3.1824 C   0  0  0  0  0  0  0  0  0  0  0  0
    0.4630    1.3228    3.7702 H   0  0  0  0  0  0  0  0  0  0  0  0
    1.9252    0.3147    3.7202 H   0  0  0  0  0  0  0  0  0  0  0  0
    1.9767    1.9762    3.1000 H   0  0  0  0  0  0  0  0  0  0  0  0
  1  2  1  0  0  0  0
  2  3  1  0  0  0  0
  2  4  1  0  0  0  0
  2  5  1  0  0  0  0
  5  6  2  0  0  0  0
  5  7  1  0  0  0  0
  7  8  1  0  0  0  0
  7  9  1  0  0  0  0
  9 10  1  0  0  0  0
  9 11  1  0  0  0  0
  9 23  1  0  0  0  0
 11 12  1  0  0  0  0
 11 13  1  0  0  0  0
 11 14  1  0  0  0  0
 14 15  1  0  0  0  0
 14 21  2  0  0  0  0
 15 16  1  0  0  0  0
 15 17  2  0  0  0  0
 17 18  1  0  0  0  0
 17 19  1  0  0  0  0
 19 20  1  0  0  0  0
 19 21  1  0  0  0  0
 21 22  1  0  0  0  0
 23 24  2  0  0  0  0
 23 25  1  0  0  0  0
 25 26  1  0  0  0  0
 25 27  1  0  0  0  0
 27 28  1  0  0  0  0
 27 29  1  0  0  0  0
 27 30  1  0  0  0  0
M  CHG  1  15   1
M  END
$$$$

  -OEChem-01062216083D

 30 30  0     1  0  0  0  0  0999 V2000
   -3.0581   -2.1398    1.6767 H   0  0  0  0  0  0  0  0  0  0  0  0
   -3.0958   -1.2920    0.9865 C   0  0  0  0  0  0  0  0  0  0  0  0
   -3.5439   -0.4402    1.5042 H   0  0  0  0  0  0  0  0  0  0  0  0
   -3.7201   -1.5626    0.1318 H   0  0  0  0  0  0  0  0  0  0  0  0
   -1.6972   -0.9388    0.5202 C   0  0  0  0  0  0  0  0  0  0  0  0
   -0.7335   -1.5857    0.9018 O   0  0  0  0  0  0  0  0  0  0  0  0
   -1.4907    0.1176   -0.3494 N   0  0  0  0  0  0  0  0  0  0  0  0
   -2.2975    0.7274   -0.4556 H   0  0  0  0  0  0  0  0  0  0  0  0
   -0.1624    0.7536   -0.4240 C   0  0  1  0  0  0  0  0  0  0  0  0
    0.5833   -0.0046   -0.6867 H   0  0  0  0  0  0  0  0  0  0  0  0
   -0.1511    1.8408   -1.5153 C   0  0  0  0  0  0  0  0  0  0  0  0
   -0.9293    2.5805   -1.2951 H   0  0  0  0  0  0  0  0  0  0  0  0
    0.8066    2.3728   -1.4955 H   0  0  0  0  0  0  0  0  0  0  0  0
   -0.3732    1.2557   -2.8893 C   0  0  0  0  0  0  0  0  0  0  0  0
    0.5578    0.5383   -3.6438 N   0  3  0  0  0  0  0  0  0  0  0  0
    1.4966    0.3114   -3.3049 H   0  0  0  0  0  0  0  0  0  0  0  0
    0.0491    0.2168   -4.8088 C   0  0  0  0  0  0  0  0  0  0  0  0
    0.5465   -0.3479   -5.6002 H   0  0  0  0  0  0  0  0  0  0  0  0
   -1.2441    0.7333   -4.8510 N   0  0  0  0  0  0  0  0  0  0  0  0
   -1.8936    0.6550   -5.6399 H   0  0  0  0  0  0  0  0  0  0  0  0
   -1.5043    1.3920   -3.6549 C   0  0  0  0  0  0  0  0  0  0  0  0
   -2.4156    1.9216   -3.3763 H   0  0  0  0  0  0  0  0  0  0  0  0
    0.2591    1.3487    0.9378 C   0  0  0  0  0  0  0  0  0  0  0  0
   -0.1863    2.4388    1.2691 O   0  0  0  0  0  0  0  0  0  0  0  0
    1.2075    0.7165    1.7178 N   0  0  0  0  0  0  0  0  0  0  0  0
    1.3272   -0.2808    1.5411 H   0  0  0  0  0  0  0  0  0  0  0  0
    1.5910    1.2197    3.0340 C   0  0  0  0  0  0  0  0  0  0  0  0
    0.7349    1.2005    3.7171 H   0  0  0  0  0  0  0  0  0  0  0  0
    2.3883    0.6020    3.4595 H   0  0  0  0  0  0  0  0  0  0  0  0
    1.9581    2.2493    2.9619 H   0  0  0  0  0  0  0  0  0  0  0  0
  1  2  1  0  0  0  0
  2  3  1  0  0  0  0
  2  4  1  0  0  0  0
  2  5  1  0  0  0  0
  5  6  2  0  0  0  0
  5  7  1  0  0  0  0
  7  8  1  0  0  0  0
  7  9  1  0  0  0  0
  9 10  1  0  0  0  0
  9 11  1  0  0  0  0
  9 23  1  0  0  0  0
 11 12  1  0  0  0  0
 11 13  1  0  0  0  0
 11 14  1  0  0  0  0
 14 15  1  0  0  0  0
 14 21  2  0  0  0  0
 15 16  1  0  0  0  0
 15 17  2  0  0  0  0
 17 18  1  0  0  0  0
 17 19  1  0  0  0  0
 19 20  1  0  0  0  0
 19 21  1  0  0  0  0
 21 22  1  0  0  0  0
 23 24  2  0  0  0  0
 23 25  1  0  0  0  0
 25 26  1  0  0  0  0
 25 27  1  0  0  0  0
 27 28  1  0  0  0  0
 27 29  1  0  0  0  0
 27 30  1  0  0  0  0
M  CHG  1  15   1
M  END
$$$$

  -OEChem-01062216083D

 30 30  0     1  0  0  0  0  0999 V2000
   -3.0306   -2.1097    1.7103 H   0  0  0  0  0  0  0  0  0  0  0  0
   -3.0734   -1.2675    1.0135 C   0  0  0  0  0  0  0  0  0  0  0  0
   -3.4983   -0.4053    1.5337 H   0  0  0  0  0  0  0  0  0  0  0  0
   -3.7211   -1.5370    0.1761 H   0  0  0  0  0  0  0  0  0  0  0  0
   -1.6813   -0.9368    0.5124 C   0  0  0  0  0  0  0  0  0  0  0  0
   -0.7188   -1.5984    0.8703 O   0  0  0  0  0  0  0  0  0  0  0  0
   -1.4797    0.1113   -0.3682 N   0  0  0  0  0  0  0  0  0  0  0  0
   -2.2801    0.7343   -0.4431 H   0  0  0  0  0  0  0  0  0  0  0  0
   -0.1491    0.7425   -0.4440 C   0  0  1  0  0  0  0  0  0  0  0  0
    0.5950   -0.0172   -0.7050 H   0  0  0  0  0  0  0  0  0  0  0  0
   -0.1386    1.8346   -1.5285 C   0  0  0  0  0  0  0  0  0  0  0  0
   -0.9135    2.5756   -1.3009 H   0  0  0  0  0  0  0  0  0  0  0  0
    0.8211    2.3631   -1.5121 H   0  0  0  0  0  0  0  0  0  0  0  0
   -0.3691    1.2539   -2.9032 C   0  0  0  0  0  0  0  0  0  0  0  0
    0.5530    0.5349   -3.6670 N   0  3  0  0  0  0  0  0  0  0  0  0
    1.4920    0.2995   -3.3347 H   0  0  0  0  0  0  0  0  0  0  0  0
    0.0329    0.2167   -4.8280 C   0  0  0  0  0  0  0  0  0  0  0  0
    0.5210   -0.3492   -5.6244 H   0  0  0  0  0  0  0  0  0  0  0  0
   -1.2583    0.7386   -4.8585 N   0  0  0  0  0  0  0  0  0  0  0  0
   -1.9155    0.6629   -5.6414 H   0  0  0  0  0  0  0  0  0  0  0  0
   -1.5063    1.3949   -3.6588 C   0  0  0  0  0  0  0  0  0  0  0  0
   -2.4144    1.9248   -3.3704 H   0  0  0  0  0  0  0  0  0  0  0  0
    0.2634    1.3447    0.9166 C   0  0  0  0  0  0  0  0  0  0  0  0
   -0.3754    2.2959    1.3456 O   0  0  0  0  0  0  0  0  0  0  0  0
    1.4007    0.9161    1.5742 N   0  0  0  0  0  0  0  0  0  0  0  0
    1.7442   -0.0081    1.3207 H   0  0  0  0  0  0  0  0  0  0  0  0
    1.7785    1.4403    2.8843 C   0  0  0  0  0  0  0  0  0  0  0  0
    1.0135    1.1970    3.6298 H   0  0  0  0  0  0  0  0  0  0  0  0
    2.7293    1.0061    3.2091 H   0  0  0  0  0  0  0  0  0  0  0  0
    1.8958    2.5289    2.8461 H   0  0  0  0  0  0  0  0  0  0  0  0
  1  2  1  0  0  0  0
  2  3  1  0  0  0  0
  2  4  1  0  0  0  0
  2  5  1  0  0  0  0
  5  6  2  0  0  0  0
  5  7  1  0  0  0  0
  7  8  1  0  0  0  0
  7  9  1  0  0  0  0
  9 10  1  0  0  0  0
  9 11  1  0  0  0  0
  9 23  1  0  0  0  0
 11 12  1  0  0  0  0
 11 13  1  0  0  0  0
 11 14  1  0  0  0  0
 14 15  1  0  0  0  0
 14 21  2  0  0  0  0
 15 16  1  0  0  0  0
 15 17  2  0  0  0  0
 17 18  1  0  0  0  0
 17 19  1  0  0  0  0
 19 20  1  0  0  0  0
 19 21  1  0  0  0  0
 21 22  1  0  0  0  0
 23 24  2  0  0  0  0
 23 25  1  0  0  0  0
 25 26  1  0  0  0  0
 25 27  1  0  0  0  0
 27 28  1  0  0  0  0
 27 29  1  0  0  0  0
 27 30  1  0  0  0  0
M  CHG  1  15   1
M  END
$$$$

  -OEChem-01062216083D

 30 30  0     1  0  0  0  0  0999 V2000
   -3.0226   -2.0997    1.7081 H   0  0  0  0  0  0  0  0  0  0  0  0
   -3.0639   -1.2461    1.0253 C   0  0  0  0  0  0  0  0  0  0  0  0
   -3.4588   -0.3834    1.5679 H   0  0  0  0  0  0  0  0  0  0  0  0
   -3.7350   -1.4894    0.1984 H   0  0  0  0  0  0  0  0  0  0  0  0
   -1.6767   -0.9353    0.4990 C   0  0  0  0  0  0  0  0  0  0  0  0
   -0.7183   -1.6135    0.8354 O   0  0  0  0  0  0  0  0  0  0  0  0
   -1.4767    0.1093   -0.3861 N   0  0  0  0  0  0  0  0  0  0  0  0
   -2.2726    0.7403   -0.4375 H   0  0  0  0  0  0  0  0  0  0  0  0
   -0.1452    0.7403   -0.4552 C   0  0  1  0  0  0  0  0  0  0  0  0
    0.6005   -0.0196   -0.7115 H   0  0  0  0  0  0  0  0  0  0  0  0
   -0.1366    1.8356   -1.5348 C   0  0  0  0  0  0  0  0  0  0  0  0
   -0.9122    2.5747   -1.3028 H   0  0  0  0  0  0  0  0  0  0  0  0
    0.8228    2.3646   -1.5185 H   0  0  0  0  0  0  0  0  0  0  0  0
   -0.3668    1.2550   -2.9103 C   0  0  0  0  0  0  0  0  0  0  0  0
    0.5544    0.5378   -3.6774 N   0  3  0  0  0  0  0  0  0  0  0  0
    1.4950    0.3042   -3.3491 H   0  0  0  0  0  0  0  0  0  0  0  0
    0.0283    0.2107   -4.8332 C   0  0  0  0  0  0  0  0  0  0  0  0
    0.5129   -0.3594   -5.6288 H   0  0  0  0  0  0  0  0  0  0  0  0
   -1.2651    0.7271   -4.8586 N   0  0  0  0  0  0  0  0  0  0  0  0
   -1.9282    0.6405   -5.6354 H   0  0  0  0  0  0  0  0  0  0  0  0
   -1.5090    1.3877   -3.6603 C   0  0  0  0  0  0  0  0  0  0  0  0
   -2.4196    1.9114   -3.3683 H   0  0  0  0  0  0  0  0  0  0  0  0
    0.2587    1.3477    0.9061 C   0  0  0  0  0  0  0  0  0  0  0  0
   -0.5140    2.1361    1.4345 O   0  0  0  0  0  0  0  0  0  0  0  0
    1.5239    1.1613    1.4314 N   0  0  0  0  0  0  0  0  0  0  0  0
    2.0499    0.3631    1.0842 H   0  0  0  0  0  0  0  0  0  0  0  0
    1.9127    1.7168    2.7257 C   0  0  0  0  0  0  0  0  0  0  0  0
    1.2808    1.3112    3.5235 H   0  0  0  0  0  0  0  0  0  0  0  0
    2.9547    1.4678    2.9497 H   0  0  0  0  0  0  0  0  0  0  0  0
    1.8148    2.8079    2.7231 H   0  0  0  0  0  0  0  0  0  0  0  0
  1  2  1  0  0  0  0
  2  3  1  0  0  0  0
  2  4  1  0  0  0  0
  2  5  1  0  0  0  0
  5  6  2  0  0  0  0
  5  7  1  0  0  0  0
  7  8  1  0  0  0  0
  7  9  1  0  0  0  0
  9 10  1  0  0  0  0
  9 11  1  0  0  0  0
  9 23  1  0  0  0  0
 11 12  1  0  0  0  0
 11 13  1  0  0  0  0
 11 14  1  0  0  0  0
 14 15  1  0  0  0  0
 14 21  2  0  0  0  0
 15 16  1  0  0  0  0
 15 17  2  0  0  0  0
 17 18  1  0  0  0  0
 17 19  1  0  0  0  0
 19 20  1  0  0  0  0
 19 21  1  0  0  0  0
 21 22  1  0  0  0  0
 23 24  2  0  0  0  0
 23 25  1  0  0  0  0
 25 26  1  0  0  0  0
 25 27  1  0  0  0  0
 27 28  1  0  0  0  0
 27 29  1  0  0  0  0
 27 30  1  0  0  0  0
M  CHG  1  15   1
M  END
$$$$

  -OEChem-01062216083D

 30 30  0     1  0  0  0  0  0999 V2000
   -3.0171   -2.0946    1.7105 H   0  0  0  0  0  0  0  0  0  0  0  0
   -3.0554   -1.2229    1.0508 C   0  0  0  0  0  0  0  0  0  0  0  0
   -3.4011   -0.3626    1.6295 H   0  0  0  0  0  0  0  0  0  0  0  0
   -3.7642   -1.4227    0.2443 H   0  0  0  0  0  0  0  0  0  0  0  0
   -1.6794   -0.9410    0.4804 C   0  0  0  0  0  0  0  0  0  0  0  0
   -0.7260   -1.6416    0.7834 O   0  0  0  0  0  0  0  0  0  0  0  0
   -1.4832    0.1048   -0.4045 N   0  0  0  0  0  0  0  0  0  0  0  0
   -2.2756    0.7416   -0.4310 H   0  0  0  0  0  0  0  0  0  0  0  0
   -0.1516    0.7393   -0.4606 C   0  0  1  0  0  0  0  0  0  0  0  0
    0.5974   -0.0190   -0.7119 H   0  0  0  0  0  0  0  0  0  0  0  0
   -0.1451    1.8364   -1.5382 C   0  0  0  0  0  0  0  0  0  0  0  0
   -0.9283    2.5683   -1.3084 H   0  0  0  0  0  0  0  0  0  0  0  0
    0.8096    2.3737   -1.5180 H   0  0  0  0  0  0  0  0  0  0  0  0
   -0.3657    1.2552   -2.9156 C   0  0  0  0  0  0  0  0  0  0  0  0
    0.5623    0.5442   -3.6805 N   0  3  0  0  0  0  0  0  0  0  0  0
    1.5031    0.3153   -3.3496 H   0  0  0  0  0  0  0  0  0  0  0  0
    0.0401    0.2099   -4.8360 C   0  0  0  0  0  0  0  0  0  0  0  0
    0.5293   -0.3596   -5.6292 H   0  0  0  0  0  0  0  0  0  0  0  0
   -1.2573    0.7158   -4.8641 N   0  0  0  0  0  0  0  0  0  0  0  0
   -1.9200    0.6186   -5.6399 H   0  0  0  0  0  0  0  0  0  0  0  0
   -1.5081    1.3765   -3.6673 C   0  0  0  0  0  0  0  0  0  0  0  0
   -2.4243    1.8904   -3.3757 H   0  0  0  0  0  0  0  0  0  0  0  0
    0.2462    1.3490    0.9025 C   0  0  0  0  0  0  0  0  0  0  0  0
   -0.6092    1.9542    1.5355 O   0  0  0  0  0  0  0  0  0  0  0  0
    1.5709    1.4306    1.2923 N   0  0  0  0  0  0  0  0  0  0  0  0
    2.2251    0.7943    0.8453 H   0  0  0  0  0  0  0  0  0  0  0  0
    1.9680    2.0290    2.5650 C   0  0  0  0  0  0  0  0  0  0  0  0
    1.4986    1.5005    3.4021 H   0  0  0  0  0  0  0  0  0  0  0  0
    3.0542    1.9756    2.6894 H   0  0  0  0  0  0  0  0  0  0  0  0
    1.6700    3.0824    2.6058 H   0  0  0  0  0  0  0  0  0  0  0  0
  1  2  1  0  0  0  0
  2  3  1  0  0  0  0
  2  4  1  0  0  0  0
  2  5  1  0  0  0  0
  5  6  2  0  0  0  0
  5  7  1  0  0  0  0
  7  8  1  0  0  0  0
  7  9  1  0  0  0  0
  9 10  1  0  0  0  0
  9 11  1  0  0  0  0
  9 23  1  0  0  0  0
 11 12  1  0  0  0  0
 11 13  1  0  0  0  0
 11 14  1  0  0  0  0
 14 15  1  0  0  0  0
 14 21  2  0  0  0  0
 15 16  1  0  0  0  0
 15 17  2  0  0  0  0
 17 18  1  0  0  0  0
 17 19  1  0  0  0  0
 19 20  1  0  0  0  0
 19 21  1  0  0  0  0
 21 22  1  0  0  0  0
 23 24  2  0  0  0  0
 23 25  1  0  0  0  0
 25 26  1  0  0  0  0
 25 27  1  0  0  0  0
 27 28  1  0  0  0  0
 27 29  1  0  0  0  0
 27 30  1  0  0  0  0
M  CHG  1  15   1
M  END
$$$$

  -OEChem-01062216083D

 30 30  0     1  0  0  0  0  0999 V2000
   -3.0140   -2.0800    1.7117 H   0  0  0  0  0  0  0  0  0  0  0  0
   -3.0571   -1.2067    1.0545 C   0  0  0  0  0  0  0  0  0  0  0  0
   -3.3842   -0.3444    1.6413 H   0  0  0  0  0  0  0  0  0  0  0  0
   -3.7824   -1.3987    0.2608 H   0  0  0  0  0  0  0  0  0  0  0  0
   -1.6889   -0.9361    0.4608 C   0  0  0  0  0  0  0  0  0  0  0  0
   -0.7421   -1.6609    0.7250 O   0  0  0  0  0  0  0  0  0  0  0  0
   -1.4950    0.1177   -0.4155 N   0  0  0  0  0  0  0  0  0  0  0  0
   -2.2856    0.7569   -0.4207 H   0  0  0  0  0  0  0  0  0  0  0  0
   -0.1629    0.7544   -0.4584 C   0  0  1  0  0  0  0  0  0  0  0  0
    0.5881   -0.0029   -0.7076 H   0  0  0  0  0  0  0  0  0  0  0  0
   -0.1580    1.8481   -1.5394 C   0  0  0  0  0  0  0  0  0  0  0  0
   -0.9463    2.5759   -1.3159 H   0  0  0  0  0  0  0  0  0  0  0  0
    0.7931    2.3913   -1.5211 H   0  0  0  0  0  0  0  0  0  0  0  0
   -0.3685    1.2550   -2.9135 C   0  0  0  0  0  0  0  0  0  0  0  0
    0.5674    0.5444   -3.6694 N   0  3  0  0  0  0  0  0  0  0  0  0
    1.5049    0.3154   -3.3295 H   0  0  0  0  0  0  0  0  0  0  0  0
    0.0514    0.1960   -4.8235 C   0  0  0  0  0  0  0  0  0  0  0  0
    0.5462   -0.3805   -5.6080 H   0  0  0  0  0  0  0  0  0  0  0  0
   -1.2481    0.6956   -4.8619 N   0  0  0  0  0  0  0  0  0  0  0  0
   -1.9072    0.5871   -5.6392 H   0  0  0  0  0  0  0  0  0  0  0  0
   -1.5083    1.3634   -3.6712 C   0  0  0  0  0  0  0  0  0  0  0  0
   -2.4296    1.8727   -3.3882 H   0  0  0  0  0  0  0  0  0  0  0  0
    0.2400    1.3588    0.9088 C   0  0  0  0  0  0  0  0  0  0  0  0
   -0.6435    1.7592    1.6559 O   0  0  0  0  0  0  0  0  0  0  0  0
    1.5513    1.7177    1.1689 N   0  0  0  0  0  0  0  0  0  0  0  0
    2.2759    1.2766    0.6103 H   0  0  0  0  0  0  0  0  0  0  0  0
    1.9501    2.3495    2.4253 C   0  0  0  0  0  0  0  0  0  0  0  0
    1.7113    1.7004    3.2750 H   0  0  0  0  0  0  0  0  0  0  0  0
    3.0275    2.5423    2.4303 H   0  0  0  0  0  0  0  0  0  0  0  0
    1.4310    3.3049    2.5589 H   0  0  0  0  0  0  0  0  0  0  0  0
  1  2  1  0  0  0  0
  2  3  1  0  0  0  0
  2  4  1  0  0  0  0
  2  5  1  0  0  0  0
  5  6  2  0  0  0  0
  5  7  1  0  0  0  0
  7  8  1  0  0  0  0
  7  9  1  0  0  0  0
  9 10  1  0  0  0  0
  9 11  1  0  0  0  0
  9 23  1  0  0  0  0
 11 12  1  0  0  0  0
 11 13  1  0  0  0  0
 11 14  1  0  0  0  0
 14 15  1  0  0  0  0
 14 21  2  0  0  0  0
 15 16  1  0  0  0  0
 15 17  2  0  0  0  0
 17 18  1  0  0  0  0
 17 19  1  0  0  0  0
 19 20  1  0  0  0  0
 19 21  1  0  0  0  0
 21 22  1  0  0  0  0
 23 24  2  0  0  0  0
 23 25  1  0  0  0  0
 25 26  1  0  0  0  0
 25 27  1  0  0  0  0
 27 28  1  0  0  0  0
 27 29  1  0  0  0  0
 27 30  1  0  0  0  0
M  CHG  1  15   1
M  END
$$$$

  -OEChem-01062216083D

 30 30  0     1  0  0  0  0  0999 V2000
   -3.0428   -2.1755    1.5876 H   0  0  0  0  0  0  0  0  0  0  0  0
   -3.0723   -1.2513    1.0033 C   0  0  0  0  0  0  0  0  0  0  0  0
   -3.3531   -0.4288    1.6660 H   0  0  0  0  0  0  0  0  0  0  0  0
   -3.8231   -1.3556    0.2170 H   0  0  0  0  0  0  0  0  0  0  0  0
   -1.7103   -0.9796    0.3962 C   0  0  0  0  0  0  0  0  0  0  0  0
   -0.7889   -1.7650    0.5541 O   0  0  0  0  0  0  0  0  0  0  0  0
   -1.5049    0.1081   -0.4366 N   0  0  0  0  0  0  0  0  0  0  0  0
   -2.3039    0.7339   -0.4352 H   0  0  0  0  0  0  0  0  0  0  0  0
   -0.1800    0.7688   -0.4401 C   0  0  1  0  0  0  0  0  0  0  0  0
    0.5279    0.1047   -0.9464 H   0  0  0  0  0  0  0  0  0  0  0  0
   -0.2999    2.0900   -1.2239 C   0  0  0  0  0  0  0  0  0  0  0  0
   -1.0680    2.7153   -0.7544 H   0  0  0  0  0  0  0  0  0  0  0  0
    0.6396    2.6504   -1.1735 H   0  0  0  0  0  0  0  0  0  0  0  0
   -0.6426    1.8373   -2.6753 C   0  0  0  0  0  0  0  0  0  0  0  0
    0.2198    1.3635   -3.6679 N   0  3  0  0  0  0  0  0  0  0  0  0
    1.1880    1.0875   -3.4852 H   0  0  0  0  0  0  0  0  0  0  0  0
   -0.4038    1.2937   -4.8195 C   0  0  0  0  0  0  0  0  0  0  0  0
    0.0158    0.9439   -5.7653 H   0  0  0  0  0  0  0  0  0  0  0  0
   -1.7042    1.7468   -4.6124 N   0  0  0  0  0  0  0  0  0  0  0  0
   -2.4347    1.8134   -5.3284 H   0  0  0  0  0  0  0  0  0  0  0  0
   -1.8513    2.0947   -3.2748 C   0  0  0  0  0  0  0  0  0  0  0  0
   -2.7436    2.4958   -2.7935 H   0  0  0  0  0  0  0  0  0  0  0  0
    0.4176    1.0355    0.9715 C   0  0  0  0  0  0  0  0  0  0  0  0
   -0.3370    1.0957    1.9337 O   0  0  0  0  0  0  0  0  0  0  0  0
    1.6568    1.6427    1.1022 N   0  0  0  0  0  0  0  0  0  0  0  0
    2.3182    1.5193    0.3422 H   0  0  0  0  0  0  0  0  0  0  0  0
    2.1863    2.0681    2.3975 C   0  0  0  0  0  0  0  0  0  0  0  0
    2.2341    1.2210    3.0908 H   0  0  0  0  0  0  0  0  0  0  0  0
    3.1951    2.4770    2.2827 H   0  0  0  0  0  0  0  0  0  0  0  0
    1.5505    2.8439    2.8379 H   0  0  0  0  0  0  0  0  0  0  0  0
  1  2  1  0  0  0  0
  2  3  1  0  0  0  0
  2  4  1  0  0  0  0
  2  5  1  0  0  0  0
  5  6  2  0  0  0  0
  5  7  1  0  0  0  0
  7  8  1  0  0  0  0
  7  9  1  0  0  0  0
  9 10  1  0  0  0  0
  9 11  1  0  0  0  0
  9 23  1  0  0  0  0
 11 12  1  0  0  0  0
 11 13  1  0  0  0  0
 11 14  1  0  0  0  0
 14 15  1  0  0  0  0
 14 21  2  0  0  0  0
 15 16  1  0  0  0  0
 15 17  2  0  0  0  0
 17 18  1  0  0  0  0
 17 19  1  0  0  0  0
 19 20  1  0  0  0  0
 19 21  1  0  0  0  0
 21 22  1  0  0  0  0
 23 24  2  0  0  0  0
 23 25  1  0  0  0  0
 25 26  1  0  0  0  0
 25 27  1  0  0  0  0
 27 28  1  0  0  0  0
 27 29  1  0  0  0  0
 27 30  1  0  0  0  0
M  CHG  1  15   1
M  END
$$$$

  -OEChem-01062216083D

 30 30  0     1  0  0  0  0  0999 V2000
   -3.0281   -2.1690    1.5748 H   0  0  0  0  0  0  0  0  0  0  0  0
   -3.0685   -1.2360    1.0053 C   0  0  0  0  0  0  0  0  0  0  0  0
   -3.3239   -0.4225    1.6889 H   0  0  0  0  0  0  0  0  0  0  0  0
   -3.8427   -1.3236    0.2400 H   0  0  0  0  0  0  0  0  0  0  0  0
   -1.7221   -0.9651    0.3636 C   0  0  0  0  0  0  0  0  0  0  0  0
   -0.8194   -1.7837    0.4370 O   0  0  0  0  0  0  0  0  0  0  0  0
   -1.5192    0.1477   -0.4357 N   0  0  0  0  0  0  0  0  0  0  0  0
   -2.3179    0.7728   -0.4035 H   0  0  0  0  0  0  0  0  0  0  0  0
   -0.1959    0.8156   -0.4271 C   0  0  1  0  0  0  0  0  0  0  0  0
    0.5099    0.1538   -0.9400 H   0  0  0  0  0  0  0  0  0  0  0  0
   -0.3270    2.1277   -1.2284 C   0  0  0  0  0  0  0  0  0  0  0  0
   -1.1067    2.7495   -0.7744 H   0  0  0  0  0  0  0  0  0  0  0  0
    0.6032    2.7026   -1.1885 H   0  0  0  0  0  0  0  0  0  0  0  0
   -0.6539    1.8441   -2.6778 C   0  0  0  0  0  0  0  0  0  0  0  0
    0.2251    1.3653   -3.6533 N   0  3  0  0  0  0  0  0  0  0  0  0
    1.1939    1.1019   -3.4554 H   0  0  0  0  0  0  0  0  0  0  0  0
   -0.3887    1.2570   -4.8070 C   0  0  0  0  0  0  0  0  0  0  0  0
    0.0436    0.8890   -5.7401 H   0  0  0  0  0  0  0  0  0  0  0  0
   -1.6979    1.6932   -4.6203 N   0  0  0  0  0  0  0  0  0  0  0  0
   -2.4247    1.7270   -5.3424 H   0  0  0  0  0  0  0  0  0  0  0  0
   -1.8620    2.0675   -3.2919 C   0  0  0  0  0  0  0  0  0  0  0  0
   -2.7660    2.4603   -2.8258 H   0  0  0  0  0  0  0  0  0  0  0  0
    0.4334    1.0602    0.9811 C   0  0  0  0  0  0  0  0  0  0  0  0
   -0.2191    0.8368    1.9914 O   0  0  0  0  0  0  0  0  0  0  0  0
    1.5027    1.9315    1.1298 N   0  0  0  0  0  0  0  0  0  0  0  0
    2.0993    2.0863    0.3241 H   0  0  0  0  0  0  0  0  0  0  0  0
    2.0127    2.3392    2.4392 C   0  0  0  0  0  0  0  0  0  0  0  0
    2.2955    1.4626    3.0327 H   0  0  0  0  0  0  0  0  0  0  0  0
    2.8950    2.9766    2.3249 H   0  0  0  0  0  0  0  0  0  0  0  0
    1.2520    2.9028    2.9904 H   0  0  0  0  0  0  0  0  0  0  0  0
  1  2  1  0  0  0  0
  2  3  1  0  0  0  0
  2  4  1  0  0  0  0
  2  5  1  0  0  0  0
  5  6  2  0  0  0  0
  5  7  1  0  0  0  0
  7  8  1  0  0  0  0
  7  9  1  0  0  0  0
  9 10  1  0  0  0  0
  9 11  1  0  0  0  0
  9 23  1  0  0  0  0
 11 12  1  0  0  0  0
 11 13  1  0  0  0  0
 11 14  1  0  0  0  0
 14 15  1  0  0  0  0
 14 21  2  0  0  0  0
 15 16  1  0  0  0  0
 15 17  2  0  0  0  0
 17 18  1  0  0  0  0
 17 19  1  0  0  0  0
 19 20  1  0  0  0  0
 19 21  1  0  0  0  0
 21 22  1  0  0  0  0
 23 24  2  0  0  0  0
 23 25  1  0  0  0  0
 25 26  1  0  0  0  0
 25 27  1  0  0  0  0
 27 28  1  0  0  0  0
 27 29  1  0  0  0  0
 27 30  1  0  0  0  0
M  CHG  1  15   1
M  END
$$$$

  -OEChem-01062216083D

 30 30  0     1  0  0  0  0  0999 V2000
   -3.0141   -2.1746    1.5455 H   0  0  0  0  0  0  0  0  0  0  0  0
   -3.0584   -1.2165    1.0198 C   0  0  0  0  0  0  0  0  0  0  0  0
   -3.2657   -0.4300    1.7496 H   0  0  0  0  0  0  0  0  0  0  0  0
   -3.8665   -1.2540    0.2862 H   0  0  0  0  0  0  0  0  0  0  0  0
   -1.7351   -0.9458    0.3316 C   0  0  0  0  0  0  0  0  0  0  0  0
   -0.8649   -1.8004    0.2927 O   0  0  0  0  0  0  0  0  0  0  0  0
   -1.5411    0.1936   -0.4303 N   0  0  0  0  0  0  0  0  0  0  0  0
   -2.3435    0.8114   -0.3674 H   0  0  0  0  0  0  0  0  0  0  0  0
   -0.2267    0.8805   -0.4156 C   0  0  1  0  0  0  0  0  0  0  0  0
    0.4804    0.2216   -0.9310 H   0  0  0  0  0  0  0  0  0  0  0  0
   -0.3641    2.1760   -1.2435 C   0  0  0  0  0  0  0  0  0  0  0  0
   -1.1570    2.7983   -0.8138 H   0  0  0  0  0  0  0  0  0  0  0  0
    0.5594    2.7610   -1.2123 H   0  0  0  0  0  0  0  0  0  0  0  0
   -0.6665    1.8507   -2.6901 C   0  0  0  0  0  0  0  0  0  0  0  0
    0.2342    1.3604   -3.6405 N   0  3  0  0  0  0  0  0  0  0  0  0
    1.2013    1.1077   -3.4200 H   0  0  0  0  0  0  0  0  0  0  0  0
   -0.3628    1.2057   -4.7977 C   0  0  0  0  0  0  0  0  0  0  0  0
    0.0862    0.8120   -5.7123 H   0  0  0  0  0  0  0  0  0  0  0  0
   -1.6804    1.6281   -4.6418 N   0  0  0  0  0  0  0  0  0  0  0  0
   -2.3988    1.6258   -5.3730 H   0  0  0  0  0  0  0  0  0  0  0  0
   -1.8688    2.0381   -3.3271 C   0  0  0  0  0  0  0  0  0  0  0  0
   -2.7858    2.4278   -2.8851 H   0  0  0  0  0  0  0  0  0  0  0  0
    0.4354    1.1059    0.9850 C   0  0  0  0  0  0  0  0  0  0  0  0
    0.0146    0.5460    1.9854 O   0  0  0  0  0  0  0  0  0  0  0  0
    1.2696    2.1919    1.2113 N   0  0  0  0  0  0  0  0  0  0  0  0
    1.6638    2.6705    0.4091 H   0  0  0  0  0  0  0  0  0  0  0  0
    1.7886    2.5364    2.5353 C   0  0  0  0  0  0  0  0  0  0  0  0
    2.3254    1.6870    2.9724 H   0  0  0  0  0  0  0  0  0  0  0  0
    2.4803    3.3817    2.4670 H   0  0  0  0  0  0  0  0  0  0  0  0
    0.9706    2.8156    3.2085 H   0  0  0  0  0  0  0  0  0  0  0  0
  1  2  1  0  0  0  0
  2  3  1  0  0  0  0
  2  4  1  0  0  0  0
  2  5  1  0  0  0  0
  5  6  2  0  0  0  0
  5  7  1  0  0  0  0
  7  8  1  0  0  0  0
  7  9  1  0  0  0  0
  9 10  1  0  0  0  0
  9 11  1  0  0  0  0
  9 23  1  0  0  0  0
 11 12  1  0  0  0  0
 11 13  1  0  0  0  0
 11 14  1  0  0  0  0
 14 15  1  0  0  0  0
 14 21  2  0  0  0  0
 15 16  1  0  0  0  0
 15 17  2  0  0  0  0
 17 18  1  0  0  0  0
 17 19  1  0  0  0  0
 19 20  1  0  0  0  0
 19 21  1  0  0  0  0
 21 22  1  0  0  0  0
 23 24  2  0  0  0  0
 23 25  1  0  0  0  0
 25 26  1  0  0  0  0
 25 27  1  0  0  0  0
 27 28  1  0  0  0  0
 27 29  1  0  0  0  0
 27 30  1  0  0  0  0
M  CHG  1  15   1
M  END
$$$$

  -OEChem-01062216083D

 30 30  0     1  0  0  0  0  0999 V2000
   -2.9964   -2.1627    1.5521 H   0  0  0  0  0  0  0  0  0  0  0  0
   -3.0527   -1.1973    1.0407 C   0  0  0  0  0  0  0  0  0  0  0  0
   -3.2365   -0.4203    1.7863 H   0  0  0  0  0  0  0  0  0  0  0  0
   -3.8825   -1.2223    0.3310 H   0  0  0  0  0  0  0  0  0  0  0  0
   -1.7496   -0.9212    0.3165 C   0  0  0  0  0  0  0  0  0  0  0  0
   -0.9118   -1.7977    0.1889 O   0  0  0  0  0  0  0  0  0  0  0  0
   -1.5738    0.2358   -0.4218 N   0  0  0  0  0  0  0  0  0  0  0  0
   -2.3848    0.8406   -0.3432 H   0  0  0  0  0  0  0  0  0  0  0  0
   -0.2723    0.9462   -0.4107 C   0  0  1  0  0  0  0  0  0  0  0  0
    0.4382    0.2869   -0.9219 H   0  0  0  0  0  0  0  0  0  0  0  0
   -0.3993    2.2265   -1.2607 C   0  0  0  0  0  0  0  0  0  0  0  0
   -1.2013    2.8561   -0.8601 H   0  0  0  0  0  0  0  0  0  0  0  0
    0.5275    2.8075   -1.2253 H   0  0  0  0  0  0  0  0  0  0  0  0
   -0.6747    1.8650   -2.7036 C   0  0  0  0  0  0  0  0  0  0  0  0
    0.2522    1.3572   -3.6186 N   0  3  0  0  0  0  0  0  0  0  0  0
    1.2161    1.1198   -3.3677 H   0  0  0  0  0  0  0  0  0  0  0  0
   -0.3178    1.1577   -4.7822 C   0  0  0  0  0  0  0  0  0  0  0  0
    0.1560    0.7392   -5.6729 H   0  0  0  0  0  0  0  0  0  0  0  0
   -1.6438    1.5678   -4.6675 N   0  0  0  0  0  0  0  0  0  0  0  0
   -2.3470    1.5282   -5.4122 H   0  0  0  0  0  0  0  0  0  0  0  0
   -1.8661    2.0155   -3.3703 C   0  0  0  0  0  0  0  0  0  0  0  0
   -2.7989    2.4015   -2.9593 H   0  0  0  0  0  0  0  0  0  0  0  0
    0.4063    1.1591    0.9808 C   0  0  0  0  0  0  0  0  0  0  0  0
    0.3657    0.3095    1.8536 O   0  0  0  0  0  0  0  0  0  0  0  0
    0.9613    2.3814    1.3328 N   0  0  0  0  0  0  0  0  0  0  0  0
    0.9660    3.1305    0.6500 H   0  0  0  0  0  0  0  0  0  0  0  0
    1.5336    2.6490    2.6524 C   0  0  0  0  0  0  0  0  0  0  0  0
    2.3407    1.9416    2.8732 H   0  0  0  0  0  0  0  0  0  0  0  0
    1.9455    3.6623    2.6925 H   0  0  0  0  0  0  0  0  0  0  0  0
    0.7675    2.5576    3.4303 H   0  0  0  0  0  0  0  0  0  0  0  0
  1  2  1  0  0  0  0
  2  3  1  0  0  0  0
  2  4  1  0  0  0  0
  2  5  1  0  0  0  0
  5  6  2  0  0  0  0
  5  7  1  0  0  0  0
  7  8  1  0  0  0  0
  7  9  1  0  0  0  0
  9 10  1  0  0  0  0
  9 11  1  0  0  0  0
  9 23  1  0  0  0  0
 11 12  1  0  0  0  0
 11 13  1  0  0  0  0
 11 14  1  0  0  0  0
 14 15  1  0  0  0  0
 14 21  2  0  0  0  0
 15 16  1  0  0  0  0
 15 17  2  0  0  0  0
 17 18  1  0  0  0  0
 17 19  1  0  0  0  0
 19 20  1  0  0  0  0
 19 21  1  0  0  0  0
 21 22  1  0  0  0  0
 23 24  2  0  0  0  0
 23 25  1  0  0  0  0
 25 26  1  0  0  0  0
 25 27  1  0  0  0  0
 27 28  1  0  0  0  0
 27 29  1  0  0  0  0
 27 30  1  0  0  0  0
M  CHG  1  15   1
M  END
$$$$

  -OEChem-01062216083D

 30 30  0     1  0  0  0  0  0999 V2000
   -3.0104   -2.1558    1.5744 H   0  0  0  0  0  0  0  0  0  0  0  0
   -3.0816   -1.2090    1.0309 C   0  0  0  0  0  0  0  0  0  0  0  0
   -3.3215   -0.4169    1.7439 H   0  0  0  0  0  0  0  0  0  0  0  0
   -3.8826   -1.2866    0.2924 H   0  0  0  0  0  0  0  0  0  0  0  0
   -1.7632   -0.9099    0.3445 C   0  0  0  0  0  0  0  0  0  0  0  0
   -0.9087   -1.7724    0.2555 O   0  0  0  0  0  0  0  0  0  0  0  0
   -1.5967    0.2441   -0.4007 N   0  0  0  0  0  0  0  0  0  0  0  0
   -2.4202    0.8353   -0.3551 H   0  0  0  0  0  0  0  0  0  0  0  0
   -0.3041    0.9677   -0.4007 C   0  0  1  0  0  0  0  0  0  0  0  0
    0.4108    0.3052   -0.9030 H   0  0  0  0  0  0  0  0  0  0  0  0
   -0.4121    2.2411   -1.2602 C   0  0  0  0  0  0  0  0  0  0  0  0
   -1.2160    2.8784   -0.8769 H   0  0  0  0  0  0  0  0  0  0  0  0
    0.5204    2.8139   -1.2083 H   0  0  0  0  0  0  0  0  0  0  0  0
   -0.6734    1.8711   -2.7032 C   0  0  0  0  0  0  0  0  0  0  0  0
    0.2655    1.3503   -3.5985 N   0  3  0  0  0  0  0  0  0  0  0  0
    1.2230    1.1073   -3.3284 H   0  0  0  0  0  0  0  0  0  0  0  0
   -0.2844    1.1512   -4.7716 C   0  0  0  0  0  0  0  0  0  0  0  0
    0.2024    0.7252   -5.6517 H   0  0  0  0  0  0  0  0  0  0  0  0
   -1.6082    1.5747   -4.6833 N   0  0  0  0  0  0  0  0  0  0  0  0
   -2.2966    1.5416   -5.4421 H   0  0  0  0  0  0  0  0  0  0  0  0
   -1.8506    2.0308   -3.3925 C   0  0  0  0  0  0  0  0  0  0  0  0
   -2.7860    2.4311   -3.0020 H   0  0  0  0  0  0  0  0  0  0  0  0
    0.3659    1.1882    0.9875 C   0  0  0  0  0  0  0  0  0  0  0  0
    0.7233    0.2481    1.6739 O   0  0  0  0  0  0  0  0  0  0  0  0
    0.6261    2.4636    1.4665 N   0  0  0  0  0  0  0  0  0  0  0  0
    0.2818    3.2591    0.9400 H   0  0  0  0  0  0  0  0  0  0  0  0
    1.2456    2.7126    2.7678 C   0  0  0  0  0  0  0  0  0  0  0  0
    2.2369    2.2485    2.8174 H   0  0  0  0  0  0  0  0  0  0  0  0
    1.3615    3.7877    2.9371 H   0  0  0  0  0  0  0  0  0  0  0  0
    0.6274    2.3015    3.5735 H   0  0  0  0  0  0  0  0  0  0  0  0
  1  2  1  0  0  0  0
  2  3  1  0  0  0  0
  2  4  1  0  0  0  0
  2  5  1  0  0  0  0
  5  6  2  0  0  0  0
  5  7  1  0  0  0  0
  7  8  1  0  0  0  0
  7  9  1  0  0  0  0
  9 10  1  0  0  0  0
  9 11  1  0  0  0  0
  9 23  1  0  0  0  0
 11 12  1  0  0  0  0
 11 13  1  0  0  0  0
 11 14  1  0  0  0  0
 14 15  1  0  0  0  0
 14 21  2  0  0  0  0
 15 16  1  0  0  0  0
 15 17  2  0  0  0  0
 17 18  1  0  0  0  0
 17 19  1  0  0  0  0
 19 20  1  0  0  0  0
 19 21  1  0  0  0  0
 21 22  1  0  0  0  0
 23 24  2  0  0  0  0
 23 25  1  0  0  0  0
 25 26  1  0  0  0  0
 25 27  1  0  0  0  0
 27 28  1  0  0  0  0
 27 29  1  0  0  0  0
 27 30  1  0  0  0  0
M  CHG  1  15   1
M  END
$$$$

  -OEChem-01062216083D

 30 30  0     1  0  0  0  0  0999 V2000
   -3.1784   -2.2135    1.4652 H   0  0  0  0  0  0  0  0  0  0  0  0
   -3.2170   -1.2972    0.8685 C   0  0  0  0  0  0  0  0  0  0  0  0
   -3.6572   -0.5042    1.4774 H   0  0  0  0  0  0  0  0  0  0  0  0
   -3.8479   -1.4746   -0.0053 H   0  0  0  0  0  0  0  0  0  0  0  0
   -1.8181   -0.9065    0.4323 C   0  0  0  0  0  0  0  0  0  0  0  0
   -0.8881   -1.6608    0.6372 O   0  0  0  0  0  0  0  0  0  0  0  0
   -1.6183    0.2353   -0.3245 N   0  0  0  0  0  0  0  0  0  0  0  0
   -2.4592    0.7925   -0.4341 H   0  0  0  0  0  0  0  0  0  0  0  0
   -0.3285    0.9620   -0.3478 C   0  0  1  0  0  0  0  0  0  0  0  0
    0.3785    0.2896   -0.8487 H   0  0  0  0  0  0  0  0  0  0  0  0
   -0.4190    2.2311   -1.2139 C   0  0  0  0  0  0  0  0  0  0  0  0
   -1.2144    2.8813   -0.8358 H   0  0  0  0  0  0  0  0  0  0  0  0
    0.5215    2.7913   -1.1546 H   0  0  0  0  0  0  0  0  0  0  0  0
   -0.6842    1.8645   -2.6558 C   0  0  0  0  0  0  0  0  0  0  0  0
    0.2585    1.3306   -3.5386 N   0  3  0  0  0  0  0  0  0  0  0  0
    1.2110    1.0800   -3.2559 H   0  0  0  0  0  0  0  0  0  0  0  0
   -0.2749    1.1508   -4.7224 C   0  0  0  0  0  0  0  0  0  0  0  0
    0.2207    0.7266   -5.5985 H   0  0  0  0  0  0  0  0  0  0  0  0
   -1.5929    1.5961   -4.6517 N   0  0  0  0  0  0  0  0  0  0  0  0
   -2.2665    1.5880   -5.4244 H   0  0  0  0  0  0  0  0  0  0  0  0
   -1.8474    2.0509   -3.3620 C   0  0  0  0  0  0  0  0  0  0  0  0
   -2.7788    2.4745   -2.9867 H   0  0  0  0  0  0  0  0  0  0  0  0
    0.3498    1.2084    1.0265 C   0  0  0  0  0  0  0  0  0  0  0  0
    1.1502    0.3974    1.4588 O   0  0  0  0  0  0  0  0  0  0  0  0
    0.3286    2.4633    1.6163 N   0  0  0  0  0  0  0  0  0  0  0  0
   -0.3712    3.1261    1.2998 H   0  0  0  0  0  0  0  0  0  0  0  0
    1.0570    2.7678    2.8473 C   0  0  0  0  0  0  0  0  0  0  0  0
    2.1316    2.6032    2.7102 H   0  0  0  0  0  0  0  0  0  0  0  0
    0.9050    3.8134    3.1331 H   0  0  0  0  0  0  0  0  0  0  0  0
    0.7086    2.1305    3.6676 H   0  0  0  0  0  0  0  0  0  0  0  0
  1  2  1  0  0  0  0
  2  3  1  0  0  0  0
  2  4  1  0  0  0  0
  2  5  1  0  0  0  0
  5  6  2  0  0  0  0
  5  7  1  0  0  0  0
  7  8  1  0  0  0  0
  7  9  1  0  0  0  0
  9 10  1  0  0  0  0
  9 11  1  0  0  0  0
  9 23  1  0  0  0  0
 11 12  1  0  0  0  0
 11 13  1  0  0  0  0
 11 14  1  0  0  0  0
 14 15  1  0  0  0  0
 14 21  2  0  0  0  0
 15 16  1  0  0  0  0
 15 17  2  0  0  0  0
 17 18  1  0  0  0  0
 17 19  1  0  0  0  0
 19 20  1  0  0  0  0
 19 21  1  0  0  0  0
 21 22  1  0  0  0  0
 23 24  2  0  0  0  0
 23 25  1  0  0  0  0
 25 26  1  0  0  0  0
 25 27  1  0  0  0  0
 27 28  1  0  0  0  0
 27 29  1  0  0  0  0
 27 30  1  0  0  0  0
M  CHG  1  15   1
M  END
$$$$

  -OEChem-01062216083D

 30 30  0     1  0  0  0  0  0999 V2000
   -3.2881   -2.2543    1.4085 H   0  0  0  0  0  0  0  0  0  0  0  0
   -3.2906   -1.3898    0.7378 C   0  0  0  0  0  0  0  0  0  0  0  0
   -3.8968   -0.6011    1.1893 H   0  0  0  0  0  0  0  0  0  0  0  0
   -3.7358   -1.6871   -0.2144 H   0  0  0  0  0  0  0  0  0  0  0  0
   -1.8718   -0.9001    0.5196 C   0  0  0  0  0  0  0  0  0  0  0  0
   -0.9400   -1.5255    0.9846 O   0  0  0  0  0  0  0  0  0  0  0  0
   -1.6356    0.2201   -0.2593 N   0  0  0  0  0  0  0  0  0  0  0  0
   -2.4678    0.7144   -0.5632 H   0  0  0  0  0  0  0  0  0  0  0  0
   -0.3384    0.9312   -0.3073 C   0  0  1  0  0  0  0  0  0  0  0  0
    0.3530    0.2423   -0.8074 H   0  0  0  0  0  0  0  0  0  0  0  0
   -0.4055    2.2010   -1.1734 C   0  0  0  0  0  0  0  0  0  0  0  0
   -1.1811    2.8698   -0.7868 H   0  0  0  0  0  0  0  0  0  0  0  0
    0.5479    2.7393   -1.1142 H   0  0  0  0  0  0  0  0  0  0  0  0
   -0.6897    1.8522   -2.6150 C   0  0  0  0  0  0  0  0  0  0  0  0
    0.2374    1.3016   -3.5034 N   0  3  0  0  0  0  0  0  0  0  0  0
    1.1855    1.0295   -3.2247 H   0  0  0  0  0  0  0  0  0  0  0  0
   -0.2955    1.1658   -4.6932 C   0  0  0  0  0  0  0  0  0  0  0  0
    0.1930    0.7517   -5.5783 H   0  0  0  0  0  0  0  0  0  0  0  0
   -1.5994    1.6506   -4.6174 N   0  0  0  0  0  0  0  0  0  0  0  0
   -2.2651    1.6921   -5.3958 H   0  0  0  0  0  0  0  0  0  0  0  0
   -1.8435    2.0910   -3.3206 C   0  0  0  0  0  0  0  0  0  0  0  0
   -2.7575    2.5493   -2.9431 H   0  0  0  0  0  0  0  0  0  0  0  0
    0.3503    1.2036    1.0529 C   0  0  0  0  0  0  0  0  0  0  0  0
    1.3908    0.6155    1.3016 O   0  0  0  0  0  0  0  0  0  0  0  0
    0.0876    2.3704    1.7531 N   0  0  0  0  0  0  0  0  0  0  0  0
   -0.8098    2.8160    1.5928 H   0  0  0  0  0  0  0  0  0  0  0  0
    0.8332    2.7464    2.9533 C   0  0  0  0  0  0  0  0  0  0  0  0
    1.8961    2.8781    2.7221 H   0  0  0  0  0  0  0  0  0  0  0  0
    0.4526    3.6885    3.3602 H   0  0  0  0  0  0  0  0  0  0  0  0
    0.7373    1.9730    3.7235 H   0  0  0  0  0  0  0  0  0  0  0  0
  1  2  1  0  0  0  0
  2  3  1  0  0  0  0
  2  4  1  0  0  0  0
  2  5  1  0  0  0  0
  5  6  2  0  0  0  0
  5  7  1  0  0  0  0
  7  8  1  0  0  0  0
  7  9  1  0  0  0  0
  9 10  1  0  0  0  0
  9 11  1  0  0  0  0
  9 23  1  0  0  0  0
 11 12  1  0  0  0  0
 11 13  1  0  0  0  0
 11 14  1  0  0  0  0
 14 15  1  0  0  0  0
 14 21  2  0  0  0  0
 15 16  1  0  0  0  0
 15 17  2  0  0  0  0
 17 18  1  0  0  0  0
 17 19  1  0  0  0  0
 19 20  1  0  0  0  0
 19 21  1  0  0  0  0
 21 22  1  0  0  0  0
 23 24  2  0  0  0  0
 23 25  1  0  0  0  0
 25 26  1  0  0  0  0
 25 27  1  0  0  0  0
 27 28  1  0  0  0  0
 27 29  1  0  0  0  0
 27 30  1  0  0  0  0
M  CHG  1  15   1
M  END
$$$$

  -OEChem-01062216083D

 30 30  0     1  0  0  0  0  0999 V2000
   -3.3273   -2.2856    1.3776 H   0  0  0  0  0  0  0  0  0  0  0  0
   -3.3114   -1.4357    0.6884 C   0  0  0  0  0  0  0  0  0  0  0  0
   -3.9769   -0.6608    1.0753 H   0  0  0  0  0  0  0  0  0  0  0  0
   -3.6739   -1.7697   -0.2864 H   0  0  0  0  0  0  0  0  0  0  0  0
   -1.8993   -0.8972    0.5632 C   0  0  0  0  0  0  0  0  0  0  0  0
   -0.9868   -1.4540    1.1412 O   0  0  0  0  0  0  0  0  0  0  0  0
   -1.6433    0.2048   -0.2351 N   0  0  0  0  0  0  0  0  0  0  0  0
   -2.4535    0.6412   -0.6620 H   0  0  0  0  0  0  0  0  0  0  0  0
   -0.3394    0.9010   -0.2946 C   0  0  1  0  0  0  0  0  0  0  0  0
    0.3454    0.2029   -0.7902 H   0  0  0  0  0  0  0  0  0  0  0  0
   -0.3917    2.1758   -1.1535 C   0  0  0  0  0  0  0  0  0  0  0  0
   -1.1514    2.8558   -0.7547 H   0  0  0  0  0  0  0  0  0  0  0  0
    0.5713    2.6973   -1.0950 H   0  0  0  0  0  0  0  0  0  0  0  0
   -0.6912    1.8472   -2.5964 C   0  0  0  0  0  0  0  0  0  0  0  0
    0.2233    1.2902   -3.4936 N   0  3  0  0  0  0  0  0  0  0  0  0
    1.1704    1.0066   -3.2221 H   0  0  0  0  0  0  0  0  0  0  0  0
   -0.3129    1.1840   -4.6849 C   0  0  0  0  0  0  0  0  0  0  0  0
    0.1680    0.7774   -5.5774 H   0  0  0  0  0  0  0  0  0  0  0  0
   -1.6073    1.6926   -4.6000 N   0  0  0  0  0  0  0  0  0  0  0  0
   -2.2710    1.7639   -5.3780 H   0  0  0  0  0  0  0  0  0  0  0  0
   -1.8404    2.1207   -3.2970 C   0  0  0  0  0  0  0  0  0  0  0  0
   -2.7418    2.5986   -2.9129 H   0  0  0  0  0  0  0  0  0  0  0  0
    0.3480    1.1914    1.0590 C   0  0  0  0  0  0  0  0  0  0  0  0
    1.5069    0.8293    1.1941 O   0  0  0  0  0  0  0  0  0  0  0  0
   -0.1224    2.2031    1.8793 N   0  0  0  0  0  0  0  0  0  0  0  0
   -1.1099    2.4271    1.8080 H   0  0  0  0  0  0  0  0  0  0  0  0
    0.5850    2.6110    3.0915 C   0  0  0  0  0  0  0  0  0  0  0  0
    1.5768    3.0053    2.8444 H   0  0  0  0  0  0  0  0  0  0  0  0
    0.0264    3.3929    3.6152 H   0  0  0  0  0  0  0  0  0  0  0  0
    0.7078    1.7593    3.7699 H   0  0  0  0  0  0  0  0  0  0  0  0
  1  2  1  0  0  0  0
  2  3  1  0  0  0  0
  2  4  1  0  0  0  0
  2  5  1  0  0  0  0
  5  6  2  0  0  0  0
  5  7  1  0  0  0  0
  7  8  1  0  0  0  0
  7  9  1  0  0  0  0
  9 10  1  0  0  0  0
  9 11  1  0  0  0  0
  9 23  1  0  0  0  0
 11 12  1  0  0  0  0
 11 13  1  0  0  0  0
 11 14  1  0  0  0  0
 14 15  1  0  0  0  0
 14 21  2  0  0  0  0
 15 16  1  0  0  0  0
 15 17  2  0  0  0  0
 17 18  1  0  0  0  0
 17 19  1  0  0  0  0
 19 20  1  0  0  0  0
 19 21  1  0  0  0  0
 21 22  1  0  0  0  0
 23 24  2  0  0  0  0
 23 25  1  0  0  0  0
 25 26  1  0  0  0  0
 25 27  1  0  0  0  0
 27 28  1  0  0  0  0
 27 29  1  0  0  0  0
 27 30  1  0  0  0  0
M  CHG  1  15   1
M  END
$$$$

  -OEChem-01062216083D

 30 30  0     1  0  0  0  0  0999 V2000
   -3.3544   -2.3080    1.3510 H   0  0  0  0  0  0  0  0  0  0  0  0
   -3.3240   -1.4625    0.6571 C   0  0  0  0  0  0  0  0  0  0  0  0
   -4.0172   -0.6960    1.0111 H   0  0  0  0  0  0  0  0  0  0  0  0
   -3.6419   -1.8086   -0.3289 H   0  0  0  0  0  0  0  0  0  0  0  0
   -1.9168   -0.9020    0.5847 C   0  0  0  0  0  0  0  0  0  0  0  0
   -1.0247   -1.4191    1.2287 O   0  0  0  0  0  0  0  0  0  0  0  0
   -1.6407    0.1836   -0.2291 N   0  0  0  0  0  0  0  0  0  0  0  0
   -2.4267    0.5766   -0.7362 H   0  0  0  0  0  0  0  0  0  0  0  0
   -0.3299    0.8673   -0.2901 C   0  0  1  0  0  0  0  0  0  0  0  0
    0.3548    0.1660   -0.7807 H   0  0  0  0  0  0  0  0  0  0  0  0
   -0.3791    2.1489   -1.1387 C   0  0  0  0  0  0  0  0  0  0  0  0
   -1.1294    2.8306   -0.7248 H   0  0  0  0  0  0  0  0  0  0  0  0
    0.5880    2.6633   -1.0825 H   0  0  0  0  0  0  0  0  0  0  0  0
   -0.6913    1.8419   -2.5827 C   0  0  0  0  0  0  0  0  0  0  0  0
    0.2130    1.2892   -3.4924 N   0  3  0  0  0  0  0  0  0  0  0  0
    1.1625    1.0033   -3.2320 H   0  0  0  0  0  0  0  0  0  0  0  0
   -0.3295    1.2088   -4.6829 C   0  0  0  0  0  0  0  0  0  0  0  0
    0.1446    0.8169   -5.5857 H   0  0  0  0  0  0  0  0  0  0  0  0
   -1.6197    1.7257   -4.5825 N   0  0  0  0  0  0  0  0  0  0  0  0
   -2.2853    1.8189   -5.3566 H   0  0  0  0  0  0  0  0  0  0  0  0
   -1.8417    2.1367   -3.2721 C   0  0  0  0  0  0  0  0  0  0  0  0
   -2.7349    2.6201   -2.8757 H   0  0  0  0  0  0  0  0  0  0  0  0
    0.3512    1.1757    1.0602 C   0  0  0  0  0  0  0  0  0  0  0  0
    1.5648    1.0438    1.1188 O   0  0  0  0  0  0  0  0  0  0  0  0
   -0.2807    1.9791    1.9930 N   0  0  0  0  0  0  0  0  0  0  0  0
   -1.2957    1.9797    1.9730 H   0  0  0  0  0  0  0  0  0  0  0  0
    0.3777    2.3957    3.2286 C   0  0  0  0  0  0  0  0  0  0  0  0
    1.2801    2.9759    3.0074 H   0  0  0  0  0  0  0  0  0  0  0  0
   -0.2928    3.0209    3.8264 H   0  0  0  0  0  0  0  0  0  0  0  0
    0.6616    1.5219    3.8254 H   0  0  0  0  0  0  0  0  0  0  0  0
  1  2  1  0  0  0  0
  2  3  1  0  0  0  0
  2  4  1  0  0  0  0
  2  5  1  0  0  0  0
  5  6  2  0  0  0  0
  5  7  1  0  0  0  0
  7  8  1  0  0  0  0
  7  9  1  0  0  0  0
  9 10  1  0  0  0  0
  9 11  1  0  0  0  0
  9 23  1  0  0  0  0
 11 12  1  0  0  0  0
 11 13  1  0  0  0  0
 11 14  1  0  0  0  0
 14 15  1  0  0  0  0
 14 21  2  0  0  0  0
 15 16  1  0  0  0  0
 15 17  2  0  0  0  0
 17 18  1  0  0  0  0
 17 19  1  0  0  0  0
 19 20  1  0  0  0  0
 19 21  1  0  0  0  0
 21 22  1  0  0  0  0
 23 24  2  0  0  0  0
 23 25  1  0  0  0  0
 25 26  1  0  0  0  0
 25 27  1  0  0  0  0
 27 28  1  0  0  0  0
 27 29  1  0  0  0  0
 27 30  1  0  0  0  0
M  CHG  1  15   1
M  END
$$$$

  -OEChem-01062216083D

 30 30  0     1  0  0  0  0  0999 V2000
   -3.3892   -2.3151    1.3231 H   0  0  0  0  0  0  0  0  0  0  0  0
   -3.3436   -1.4767    0.6214 C   0  0  0  0  0  0  0  0  0  0  0  0
   -4.0546   -0.7128    0.9448 H   0  0  0  0  0  0  0  0  0  0  0  0
   -3.6269   -1.8365   -0.3703 H   0  0  0  0  0  0  0  0  0  0  0  0
   -1.9394   -0.9040    0.5887 C   0  0  0  0  0  0  0  0  0  0  0  0
   -1.0676   -1.3962    1.2785 O   0  0  0  0  0  0  0  0  0  0  0  0
   -1.6429    0.1711   -0.2316 N   0  0  0  0  0  0  0  0  0  0  0  0
   -2.4075    0.5367   -0.7897 H   0  0  0  0  0  0  0  0  0  0  0  0
   -0.3269    0.8473   -0.2849 C   0  0  1  0  0  0  0  0  0  0  0  0
    0.3620    0.1466   -0.7701 H   0  0  0  0  0  0  0  0  0  0  0  0
   -0.3818    2.1318   -1.1303 C   0  0  0  0  0  0  0  0  0  0  0  0
   -1.1327    2.8089   -0.7092 H   0  0  0  0  0  0  0  0  0  0  0  0
    0.5829    2.6511   -1.0759 H   0  0  0  0  0  0  0  0  0  0  0  0
   -0.6965    1.8335   -2.5755 C   0  0  0  0  0  0  0  0  0  0  0  0
    0.2068    1.2889   -3.4909 N   0  3  0  0  0  0  0  0  0  0  0  0
    1.1594    1.0088   -3.2355 H   0  0  0  0  0  0  0  0  0  0  0  0
   -0.3355    1.2224   -4.6823 C   0  0  0  0  0  0  0  0  0  0  0  0
    0.1402    0.8450   -5.5903 H   0  0  0  0  0  0  0  0  0  0  0  0
   -1.6265    1.7360   -4.5757 N   0  0  0  0  0  0  0  0  0  0  0  0
   -2.2909    1.8414   -5.3494 H   0  0  0  0  0  0  0  0  0  0  0  0
   -1.8477    2.1337   -3.2610 C   0  0  0  0  0  0  0  0  0  0  0  0
   -2.7402    2.6145   -2.8597 H   0  0  0  0  0  0  0  0  0  0  0  0
    0.3516    1.1727    1.0632 C   0  0  0  0  0  0  0  0  0  0  0  0
    1.5714    1.2566    1.0675 O   0  0  0  0  0  0  0  0  0  0  0  0
   -0.3705    1.7250    2.1055 N   0  0  0  0  0  0  0  0  0  0  0  0
   -1.3630    1.5112    2.1202 H   0  0  0  0  0  0  0  0  0  0  0  0
    0.2615    2.1104    3.3646 C   0  0  0  0  0  0  0  0  0  0  0  0
    1.0124    2.8901    3.1967 H   0  0  0  0  0  0  0  0  0  0  0  0
   -0.4858    2.5001    4.0629 H   0  0  0  0  0  0  0  0  0  0  0  0
    0.7513    1.2469    3.8283 H   0  0  0  0  0  0  0  0  0  0  0  0
  1  2  1  0  0  0  0
  2  3  1  0  0  0  0
  2  4  1  0  0  0  0
  2  5  1  0  0  0  0
  5  6  2  0  0  0  0
  5  7  1  0  0  0  0
  7  8  1  0  0  0  0
  7  9  1  0  0  0  0
  9 10  1  0  0  0  0
  9 11  1  0  0  0  0
  9 23  1  0  0  0  0
 11 12  1  0  0  0  0
 11 13  1  0  0  0  0
 11 14  1  0  0  0  0
 14 15  1  0  0  0  0
 14 21  2  0  0  0  0
 15 16  1  0  0  0  0
 15 17  2  0  0  0  0
 17 18  1  0  0  0  0
 17 19  1  0  0  0  0
 19 20  1  0  0  0  0
 19 21  1  0  0  0  0
 21 22  1  0  0  0  0
 23 24  2  0  0  0  0
 23 25  1  0  0  0  0
 25 26  1  0  0  0  0
 25 27  1  0  0  0  0
 27 28  1  0  0  0  0
 27 29  1  0  0  0  0
 27 30  1  0  0  0  0
M  CHG  1  15   1
M  END
$$$$

  -OEChem-01062216083D

 30 30  0     1  0  0  0  0  0999 V2000
   -3.4331   -2.3329    1.2522 H   0  0  0  0  0  0  0  0  0  0  0  0
   -3.3705   -1.4858    0.5623 C   0  0  0  0  0  0  0  0  0  0  0  0
   -4.0923   -0.7274    0.8746 H   0  0  0  0  0  0  0  0  0  0  0  0
   -3.6255   -1.8340   -0.4413 H   0  0  0  0  0  0  0  0  0  0  0  0
   -1.9674   -0.9101    0.5746 C   0  0  0  0  0  0  0  0  0  0  0  0
   -1.1194   -1.3941    1.2992 O   0  0  0  0  0  0  0  0  0  0  0  0
   -1.6450    0.1612   -0.2400 N   0  0  0  0  0  0  0  0  0  0  0  0
   -2.3943    0.5246   -0.8201 H   0  0  0  0  0  0  0  0  0  0  0  0
   -0.3252    0.8342   -0.2754 C   0  0  1  0  0  0  0  0  0  0  0  0
    0.3703    0.1383   -0.7574 H   0  0  0  0  0  0  0  0  0  0  0  0
   -0.3952    2.1212   -1.1195 C   0  0  0  0  0  0  0  0  0  0  0  0
   -1.1537    2.7882   -0.6956 H   0  0  0  0  0  0  0  0  0  0  0  0
    0.5620    2.6544   -1.0683 H   0  0  0  0  0  0  0  0  0  0  0  0
   -0.7057    1.8254   -2.5655 C   0  0  0  0  0  0  0  0  0  0  0  0
    0.2032    1.2950   -3.4831 N   0  3  0  0  0  0  0  0  0  0  0  0
    1.1590    1.0256   -3.2289 H   0  0  0  0  0  0  0  0  0  0  0  0
   -0.3384    1.2306   -4.6750 C   0  0  0  0  0  0  0  0  0  0  0  0
    0.1413    0.8637   -5.5852 H   0  0  0  0  0  0  0  0  0  0  0  0
   -1.6344    1.7316   -4.5657 N   0  0  0  0  0  0  0  0  0  0  0  0
   -2.2990    1.8372   -5.3391 H   0  0  0  0  0  0  0  0  0  0  0  0
   -1.8597    2.1193   -3.2488 C   0  0  0  0  0  0  0  0  0  0  0  0
   -2.7555    2.5906   -2.8435 H   0  0  0  0  0  0  0  0  0  0  0  0
    0.3510    1.1717    1.0737 C   0  0  0  0  0  0  0  0  0  0  0  0
    1.5404    1.4558    1.0442 O   0  0  0  0  0  0  0  0  0  0  0  0
   -0.3889    1.4464    2.2091 N   0  0  0  0  0  0  0  0  0  0  0  0
   -1.3027    1.0039    2.2479 H   0  0  0  0  0  0  0  0  0  0  0  0
    0.2451    1.7937    3.4780 C   0  0  0  0  0  0  0  0  0  0  0  0
    0.8748    2.6829    3.3652 H   0  0  0  0  0  0  0  0  0  0  0  0
   -0.5140    2.0074    4.2369 H   0  0  0  0  0  0  0  0  0  0  0  0
    0.8686    0.9663    3.8338 H   0  0  0  0  0  0  0  0  0  0  0  0
  1  2  1  0  0  0  0
  2  3  1  0  0  0  0
  2  4  1  0  0  0  0
  2  5  1  0  0  0  0
  5  6  2  0  0  0  0
  5  7  1  0  0  0  0
  7  8  1  0  0  0  0
  7  9  1  0  0  0  0
  9 10  1  0  0  0  0
  9 11  1  0  0  0  0
  9 23  1  0  0  0  0
 11 12  1  0  0  0  0
 11 13  1  0  0  0  0
 11 14  1  0  0  0  0
 14 15  1  0  0  0  0
 14 21  2  0  0  0  0
 15 16  1  0  0  0  0
 15 17  2  0  0  0  0
 17 18  1  0  0  0  0
 17 19  1  0  0  0  0
 19 20  1  0  0  0  0
 19 21  1  0  0  0  0
 21 22  1  0  0  0  0
 23 24  2  0  0  0  0
 23 25  1  0  0  0  0
 25 26  1  0  0  0  0
 25 27  1  0  0  0  0
 27 28  1  0  0  0  0
 27 29  1  0  0  0  0
 27 30  1  0  0  0  0
M  CHG  1  15   1
M  END
$$$$

  -OEChem-01062216083D

 30 30  0     1  0  0  0  0  0999 V2000
   -3.4991   -2.3301    1.1857 H   0  0  0  0  0  0  0  0  0  0  0  0
   -3.4151   -1.4690    0.5158 C   0  0  0  0  0  0  0  0  0  0  0  0
   -4.1155   -0.6988    0.8477 H   0  0  0  0  0  0  0  0  0  0  0  0
   -3.6812   -1.7867   -0.4950 H   0  0  0  0  0  0  0  0  0  0  0  0
   -1.9978   -0.9303    0.5379 C   0  0  0  0  0  0  0  0  0  0  0  0
   -1.1635   -1.4470    1.2562 O   0  0  0  0  0  0  0  0  0  0  0  0
   -1.6497    0.1489   -0.2543 N   0  0  0  0  0  0  0  0  0  0  0  0
   -2.4011    0.5521   -0.8045 H   0  0  0  0  0  0  0  0  0  0  0  0
   -0.3287    0.8237   -0.2650 C   0  0  1  0  0  0  0  0  0  0  0  0
    0.3737    0.1362   -0.7480 H   0  0  0  0  0  0  0  0  0  0  0  0
   -0.4155    2.1131   -1.1094 C   0  0  0  0  0  0  0  0  0  0  0  0
   -1.1861    2.7669   -0.6867 H   0  0  0  0  0  0  0  0  0  0  0  0
    0.5304    2.6652   -1.0577 H   0  0  0  0  0  0  0  0  0  0  0  0
   -0.7136    1.8173   -2.5587 C   0  0  0  0  0  0  0  0  0  0  0  0
    0.2083    1.3048   -3.4737 N   0  3  0  0  0  0  0  0  0  0  0  0
    1.1680    1.0532   -3.2163 H   0  0  0  0  0  0  0  0  0  0  0  0
   -0.3254    1.2375   -4.6690 C   0  0  0  0  0  0  0  0  0  0  0  0
    0.1653    0.8845   -5.5788 H   0  0  0  0  0  0  0  0  0  0  0  0
   -1.6302    1.7156   -4.5644 N   0  0  0  0  0  0  0  0  0  0  0  0
   -2.2928    1.8121   -5.3406 H   0  0  0  0  0  0  0  0  0  0  0  0
   -1.8684    2.0952   -3.2474 C   0  0  0  0  0  0  0  0  0  0  0  0
   -2.7739    2.5514   -2.8466 H   0  0  0  0  0  0  0  0  0  0  0  0
    0.3488    1.1589    1.0894 C   0  0  0  0  0  0  0  0  0  0  0  0
    1.4724    1.6418    1.0472 O   0  0  0  0  0  0  0  0  0  0  0  0
   -0.3334    1.1373    2.2914 N   0  0  0  0  0  0  0  0  0  0  0  0
   -1.1043    0.4730    2.3242 H   0  0  0  0  0  0  0  0  0  0  0  0
    0.3208    1.4592    3.5566 C   0  0  0  0  0  0  0  0  0  0  0  0
    0.7300    2.4750    3.5318 H   0  0  0  0  0  0  0  0  0  0  0  0
   -0.3967    1.3998    4.3810 H   0  0  0  0  0  0  0  0  0  0  0  0
    1.1376    0.7571    3.7564 H   0  0  0  0  0  0  0  0  0  0  0  0
  1  2  1  0  0  0  0
  2  3  1  0  0  0  0
  2  4  1  0  0  0  0
  2  5  1  0  0  0  0
  5  6  2  0  0  0  0
  5  7  1  0  0  0  0
  7  8  1  0  0  0  0
  7  9  1  0  0  0  0
  9 10  1  0  0  0  0
  9 11  1  0  0  0  0
  9 23  1  0  0  0  0
 11 12  1  0  0  0  0
 11 13  1  0  0  0  0
 11 14  1  0  0  0  0
 14 15  1  0  0  0  0
 14 21  2  0  0  0  0
 15 16  1  0  0  0  0
 15 17  2  0  0  0  0
 17 18  1  0  0  0  0
 17 19  1  0  0  0  0
 19 20  1  0  0  0  0
 19 21  1  0  0  0  0
 21 22  1  0  0  0  0
 23 24  2  0  0  0  0
 23 25  1  0  0  0  0
 25 26  1  0  0  0  0
 25 27  1  0  0  0  0
 27 28  1  0  0  0  0
 27 29  1  0  0  0  0
 27 30  1  0  0  0  0
M  CHG  1  15   1
M  END
$$$$

  -OEChem-01062216083D

 30 30  0     1  0  0  0  0  0999 V2000
   -3.5259   -2.3139    1.1649 H   0  0  0  0  0  0  0  0  0  0  0  0
   -3.4392   -1.4306    0.5248 C   0  0  0  0  0  0  0  0  0  0  0  0
   -4.0790   -0.6426    0.9293 H   0  0  0  0  0  0  0  0  0  0  0  0
   -3.7816   -1.6926   -0.4791 H   0  0  0  0  0  0  0  0  0  0  0  0
   -1.9982   -0.9605    0.4789 C   0  0  0  0  0  0  0  0  0  0  0  0
   -1.1424   -1.5611    1.1016 O   0  0  0  0  0  0  0  0  0  0  0  0
   -1.6492    0.1400   -0.2823 N   0  0  0  0  0  0  0  0  0  0  0  0
   -2.4285    0.6248   -0.7151 H   0  0  0  0  0  0  0  0  0  0  0  0
   -0.3344    0.8286   -0.2648 C   0  0  1  0  0  0  0  0  0  0  0  0
    0.3790    0.1554   -0.7514 H   0  0  0  0  0  0  0  0  0  0  0  0
   -0.4420    2.1195   -1.1095 C   0  0  0  0  0  0  0  0  0  0  0  0
   -1.2305    2.7557   -0.6935 H   0  0  0  0  0  0  0  0  0  0  0  0
    0.4893    2.6950   -1.0546 H   0  0  0  0  0  0  0  0  0  0  0  0
   -0.7186    1.8167   -2.5621 C   0  0  0  0  0  0  0  0  0  0  0  0
    0.2231    1.3254   -3.4683 N   0  3  0  0  0  0  0  0  0  0  0  0
    1.1856    1.0954   -3.2019 H   0  0  0  0  0  0  0  0  0  0  0  0
   -0.2990    1.2406   -4.6677 C   0  0  0  0  0  0  0  0  0  0  0  0
    0.2076    0.8951   -5.5715 H   0  0  0  0  0  0  0  0  0  0  0  0
   -1.6157    1.6876   -4.5755 N   0  0  0  0  0  0  0  0  0  0  0  0
   -2.2748    1.7640   -5.3570 H   0  0  0  0  0  0  0  0  0  0  0  0
   -1.8740    2.0646   -3.2615 C   0  0  0  0  0  0  0  0  0  0  0  0
   -2.7943    2.4973   -2.8686 H   0  0  0  0  0  0  0  0  0  0  0  0
    0.3384    1.1473    1.1014 C   0  0  0  0  0  0  0  0  0  0  0  0
    1.3611    1.8190    1.0834 O   0  0  0  0  0  0  0  0  0  0  0  0
   -0.2210    0.8228    2.3232 N   0  0  0  0  0  0  0  0  0  0  0  0
   -0.8512    0.0208    2.2986 H   0  0  0  0  0  0  0  0  0  0  0  0
    0.4531    1.0994    3.5892 C   0  0  0  0  0  0  0  0  0  0  0  0
    0.6834    2.1664    3.6805 H   0  0  0  0  0  0  0  0  0  0  0  0
   -0.1881    0.8163    4.4300 H   0  0  0  0  0  0  0  0  0  0  0  0
    1.3878    0.5324    3.6584 H   0  0  0  0  0  0  0  0  0  0  0  0
  1  2  1  0  0  0  0
  2  3  1  0  0  0  0
  2  4  1  0  0  0  0
  2  5  1  0  0  0  0
  5  6  2  0  0  0  0
  5  7  1  0  0  0  0
  7  8  1  0  0  0  0
  7  9  1  0  0  0  0
  9 10  1  0  0  0  0
  9 11  1  0  0  0  0
  9 23  1  0  0  0  0
 11 12  1  0  0  0  0
 11 13  1  0  0  0  0
 11 14  1  0  0  0  0
 14 15  1  0  0  0  0
 14 21  2  0  0  0  0
 15 16  1  0  0  0  0
 15 17  2  0  0  0  0
 17 18  1  0  0  0  0
 17 19  1  0  0  0  0
 19 20  1  0  0  0  0
 19 21  1  0  0  0  0
 21 22  1  0  0  0  0
 23 24  2  0  0  0  0
 23 25  1  0  0  0  0
 25 26  1  0  0  0  0
 25 27  1  0  0  0  0
 27 28  1  0  0  0  0
 27 29  1  0  0  0  0
 27 30  1  0  0  0  0
M  CHG  1  15   1
M  END
$$$$

  -OEChem-01062216083D

 30 30  0     1  0  0  0  0  0999 V2000
   -3.5217   -2.2843    1.1959 H   0  0  0  0  0  0  0  0  0  0  0  0
   -3.4428   -1.3869    0.5750 C   0  0  0  0  0  0  0  0  0  0  0  0
   -4.0116   -0.5836    1.0496 H   0  0  0  0  0  0  0  0  0  0  0  0
   -3.8732   -1.6016   -0.4060 H   0  0  0  0  0  0  0  0  0  0  0  0
   -1.9889   -0.9818    0.4298 C   0  0  0  0  0  0  0  0  0  0  0  0
   -1.1129   -1.6675    0.9253 O   0  0  0  0  0  0  0  0  0  0  0  0
   -1.6477    0.1374   -0.3070 N   0  0  0  0  0  0  0  0  0  0  0  0
   -2.4445    0.6805   -0.6244 H   0  0  0  0  0  0  0  0  0  0  0  0
   -0.3355    0.8321   -0.2712 C   0  0  1  0  0  0  0  0  0  0  0  0
    0.3819    0.1665   -0.7624 H   0  0  0  0  0  0  0  0  0  0  0  0
   -0.4494    2.1251   -1.1150 C   0  0  0  0  0  0  0  0  0  0  0  0
   -1.2450    2.7551   -0.7035 H   0  0  0  0  0  0  0  0  0  0  0  0
    0.4767    2.7084   -1.0578 H   0  0  0  0  0  0  0  0  0  0  0  0
   -0.7118    1.8203   -2.5702 C   0  0  0  0  0  0  0  0  0  0  0  0
    0.2391    1.3392   -3.4724 N   0  3  0  0  0  0  0  0  0  0  0  0
    1.2037    1.1228   -3.2029 H   0  0  0  0  0  0  0  0  0  0  0  0
   -0.2792    1.2410   -4.6722 C   0  0  0  0  0  0  0  0  0  0  0  0
    0.2337    0.8970   -5.5730 H   0  0  0  0  0  0  0  0  0  0  0  0
   -1.6023    1.6695   -4.5852 N   0  0  0  0  0  0  0  0  0  0  0  0
   -2.2624    1.7276   -5.3674 H   0  0  0  0  0  0  0  0  0  0  0  0
   -1.8691    2.0476   -3.2735 C   0  0  0  0  0  0  0  0  0  0  0  0
   -2.7982    2.4639   -2.8838 H   0  0  0  0  0  0  0  0  0  0  0  0
    0.3322    1.1242    1.1078 C   0  0  0  0  0  0  0  0  0  0  0  0
    1.2104    1.9751    1.1519 O   0  0  0  0  0  0  0  0  0  0  0  0
   -0.0542    0.5287    2.2938 N   0  0  0  0  0  0  0  0  0  0  0  0
   -0.5632   -0.3510    2.1915 H   0  0  0  0  0  0  0  0  0  0  0  0
    0.6316    0.7662    3.5613 C   0  0  0  0  0  0  0  0  0  0  0  0
    0.6078    1.8304    3.8192 H   0  0  0  0  0  0  0  0  0  0  0  0
    0.1434    0.2079    4.3663 H   0  0  0  0  0  0  0  0  0  0  0  0
    1.6764    0.4431    3.4997 H   0  0  0  0  0  0  0  0  0  0  0  0
  1  2  1  0  0  0  0
  2  3  1  0  0  0  0
  2  4  1  0  0  0  0
  2  5  1  0  0  0  0
  5  6  2  0  0  0  0
  5  7  1  0  0  0  0
  7  8  1  0  0  0  0
  7  9  1  0  0  0  0
  9 10  1  0  0  0  0
  9 11  1  0  0  0  0
  9 23  1  0  0  0  0
 11 12  1  0  0  0  0
 11 13  1  0  0  0  0
 11 14  1  0  0  0  0
 14 15  1  0  0  0  0
 14 21  2  0  0  0  0
 15 16  1  0  0  0  0
 15 17  2  0  0  0  0
 17 18  1  0  0  0  0
 17 19  1  0  0  0  0
 19 20  1  0  0  0  0
 19 21  1  0  0  0  0
 21 22  1  0  0  0  0
 23 24  2  0  0  0  0
 23 25  1  0  0  0  0
 25 26  1  0  0  0  0
 25 27  1  0  0  0  0
 27 28  1  0  0  0  0
 27 29  1  0  0  0  0
 27 30  1  0  0  0  0
M  CHG  1  15   1
M  END
$$$$

  -OEChem-01062216083D

 30 30  0     1  0  0  0  0  0999 V2000
   -3.5596   -2.2084    1.2526 H   0  0  0  0  0  0  0  0  0  0  0  0
   -3.4704   -1.2787    0.6825 C   0  0  0  0  0  0  0  0  0  0  0  0
   -3.9354   -0.4727    1.2557 H   0  0  0  0  0  0  0  0  0  0  0  0
   -3.9999   -1.3983   -0.2657 H   0  0  0  0  0  0  0  0  0  0  0  0
   -2.0091   -0.9618    0.4294 C   0  0  0  0  0  0  0  0  0  0  0  0
   -1.1430   -1.7295    0.8103 O   0  0  0  0  0  0  0  0  0  0  0  0
   -1.6541    0.1517   -0.3092 N   0  0  0  0  0  0  0  0  0  0  0  0
   -2.4429    0.7477   -0.5403 H   0  0  0  0  0  0  0  0  0  0  0  0
   -0.3218    0.8074   -0.2894 C   0  0  1  0  0  0  0  0  0  0  0  0
    0.3691    0.1201   -0.7885 H   0  0  0  0  0  0  0  0  0  0  0  0
   -0.4031    2.0997   -1.1393 C   0  0  0  0  0  0  0  0  0  0  0  0
   -1.1723    2.7582   -0.7221 H   0  0  0  0  0  0  0  0  0  0  0  0
    0.5433    2.6506   -1.0946 H   0  0  0  0  0  0  0  0  0  0  0  0
   -0.6880    1.7985   -2.5914 C   0  0  0  0  0  0  0  0  0  0  0  0
    0.2346    1.2849   -3.5055 N   0  3  0  0  0  0  0  0  0  0  0  0
    1.1944    1.0350   -3.2487 H   0  0  0  0  0  0  0  0  0  0  0  0
   -0.3025    1.2027   -4.6985 C   0  0  0  0  0  0  0  0  0  0  0  0
    0.1859    0.8404   -5.6055 H   0  0  0  0  0  0  0  0  0  0  0  0
   -1.6092    1.6749   -4.5950 N   0  0  0  0  0  0  0  0  0  0  0  0
   -2.2774    1.7546   -5.3682 H   0  0  0  0  0  0  0  0  0  0  0  0
   -1.8459    2.0624   -3.2804 C   0  0  0  0  0  0  0  0  0  0  0  0
   -2.7557    2.5081   -2.8785 H   0  0  0  0  0  0  0  0  0  0  0  0
    0.3656    1.0677    1.0888 C   0  0  0  0  0  0  0  0  0  0  0  0
    1.0865    2.0495    1.2045 O   0  0  0  0  0  0  0  0  0  0  0  0
    0.1838    0.2741    2.2054 N   0  0  0  0  0  0  0  0  0  0  0  0
   -0.2538   -0.6358    2.0440 H   0  0  0  0  0  0  0  0  0  0  0  0
    0.8833    0.4866    3.4700 C   0  0  0  0  0  0  0  0  0  0  0  0
    0.6972    1.4974    3.8492 H   0  0  0  0  0  0  0  0  0  0  0  0
    0.5340   -0.2293    4.2208 H   0  0  0  0  0  0  0  0  0  0  0  0
    1.9628    0.3542    3.3401 H   0  0  0  0  0  0  0  0  0  0  0  0
  1  2  1  0  0  0  0
  2  3  1  0  0  0  0
  2  4  1  0  0  0  0
  2  5  1  0  0  0  0
  5  6  2  0  0  0  0
  5  7  1  0  0  0  0
  7  8  1  0  0  0  0
  7  9  1  0  0  0  0
  9 10  1  0  0  0  0
  9 11  1  0  0  0  0
  9 23  1  0  0  0  0
 11 12  1  0  0  0  0
 11 13  1  0  0  0  0
 11 14  1  0  0  0  0
 14 15  1  0  0  0  0
 14 21  2  0  0  0  0
 15 16  1  0  0  0  0
 15 17  2  0  0  0  0
 17 18  1  0  0  0  0
 17 19  1  0  0  0  0
 19 20  1  0  0  0  0
 19 21  1  0  0  0  0
 21 22  1  0  0  0  0
 23 24  2  0  0  0  0
 23 25  1  0  0  0  0
 25 26  1  0  0  0  0
 25 27  1  0  0  0  0
 27 28  1  0  0  0  0
 27 29  1  0  0  0  0
 27 30  1  0  0  0  0
M  CHG  1  15   1
M  END
$$$$

  -OEChem-01062216083D

 30 30  0     1  0  0  0  0  0999 V2000
   -3.4234   -2.2704    1.2969 H   0  0  0  0  0  0  0  0  0  0  0  0
   -3.3703   -1.3483    0.7103 C   0  0  0  0  0  0  0  0  0  0  0  0
   -3.8303   -0.5421    1.2869 H   0  0  0  0  0  0  0  0  0  0  0  0
   -3.9284   -1.4911   -0.2181 H   0  0  0  0  0  0  0  0  0  0  0  0
   -1.9242   -1.0107    0.4032 C   0  0  0  0  0  0  0  0  0  0  0  0
   -1.0366   -1.7874    0.7115 O   0  0  0  0  0  0  0  0  0  0  0  0
   -1.6111    0.1191   -0.3299 N   0  0  0  0  0  0  0  0  0  0  0  0
   -2.4173    0.7093   -0.5119 H   0  0  0  0  0  0  0  0  0  0  0  0
   -0.2972    0.8088   -0.3066 C   0  0  1  0  0  0  0  0  0  0  0  0
    0.4132    0.1478   -0.8136 H   0  0  0  0  0  0  0  0  0  0  0  0
   -0.4083    2.1091   -1.1381 C   0  0  0  0  0  0  0  0  0  0  0  0
   -1.1912    2.7454   -0.7115 H   0  0  0  0  0  0  0  0  0  0  0  0
    0.5277    2.6772   -1.0821 H   0  0  0  0  0  0  0  0  0  0  0  0
   -0.6888    1.8206   -2.5938 C   0  0  0  0  0  0  0  0  0  0  0  0
    0.2390    1.3396   -3.5203 N   0  3  0  0  0  0  0  0  0  0  0  0
    1.2056    1.1079   -3.2735 H   0  0  0  0  0  0  0  0  0  0  0  0
   -0.3051    1.2573   -4.7102 C   0  0  0  0  0  0  0  0  0  0  0  0
    0.1848    0.9159   -5.6247 H   0  0  0  0  0  0  0  0  0  0  0  0
   -1.6219    1.6968   -4.5920 N   0  0  0  0  0  0  0  0  0  0  0  0
   -2.2983    1.7669   -5.3590 H   0  0  0  0  0  0  0  0  0  0  0  0
   -1.8582    2.0629   -3.2715 C   0  0  0  0  0  0  0  0  0  0  0  0
   -2.7766    2.4789   -2.8572 H   0  0  0  0  0  0  0  0  0  0  0  0
    0.3683    1.0635    1.0821 C   0  0  0  0  0  0  0  0  0  0  0  0
    0.8447    2.1661    1.3152 O   0  0  0  0  0  0  0  0  0  0  0  0
    0.4411    0.1109    2.0793 N   0  0  0  0  0  0  0  0  0  0  0  0
    0.0930   -0.8243    1.8526 H   0  0  0  0  0  0  0  0  0  0  0  0
    1.0775    0.3278    3.3752 C   0  0  0  0  0  0  0  0  0  0  0  0
    0.5947    1.1540    3.9080 H   0  0  0  0  0  0  0  0  0  0  0  0
    0.9970   -0.5729    3.9922 H   0  0  0  0  0  0  0  0  0  0  0  0
    2.1392    0.5648    3.2478 H   0  0  0  0  0  0  0  0  0  0  0  0
  1  2  1  0  0  0  0
  2  3  1  0  0  0  0
  2  4  1  0  0  0  0
  2  5  1  0  0  0  0
  5  6  2  0  0  0  0
  5  7  1  0  0  0  0
  7  8  1  0  0  0  0
  7  9  1  0  0  0  0
  9 10  1  0  0  0  0
  9 11  1  0  0  0  0
  9 23  1  0  0  0  0
 11 12  1  0  0  0  0
 11 13  1  0  0  0  0
 11 14  1  0  0  0  0
 14 15  1  0  0  0  0
 14 21  2  0  0  0  0
 15 16  1  0  0  0  0
 15 17  2  0  0  0  0
 17 18  1  0  0  0  0
 17 19  1  0  0  0  0
 19 20  1  0  0  0  0
 19 21  1  0  0  0  0
 21 22  1  0  0  0  0
 23 24  2  0  0  0  0
 23 25  1  0  0  0  0
 25 26  1  0  0  0  0
 25 27  1  0  0  0  0
 27 28  1  0  0  0  0
 27 29  1  0  0  0  0
 27 30  1  0  0  0  0
M  CHG  1  15   1
M  END
$$$$

  -OEChem-01062216083D

 30 30  0     1  0  0  0  0  0999 V2000
   -3.3367   -2.2353    1.4027 H   0  0  0  0  0  0  0  0  0  0  0  0
   -3.3013   -1.3314    0.7871 C   0  0  0  0  0  0  0  0  0  0  0  0
   -3.7365   -0.5058    1.3555 H   0  0  0  0  0  0  0  0  0  0  0  0
   -3.8936   -1.4989   -0.1155 H   0  0  0  0  0  0  0  0  0  0  0  0
   -1.8659   -1.0106    0.4182 C   0  0  0  0  0  0  0  0  0  0  0  0
   -0.9730   -1.7921    0.6983 O   0  0  0  0  0  0  0  0  0  0  0  0
   -1.5718    0.1099   -0.3372 N   0  0  0  0  0  0  0  0  0  0  0  0
   -2.3782    0.7088   -0.4876 H   0  0  0  0  0  0  0  0  0  0  0  0
   -0.2539    0.7893   -0.3404 C   0  0  1  0  0  0  0  0  0  0  0  0
    0.4478    0.1254   -0.8559 H   0  0  0  0  0  0  0  0  0  0  0  0
   -0.3619    2.0948   -1.1615 C   0  0  0  0  0  0  0  0  0  0  0  0
   -1.1303    2.7377   -0.7183 H   0  0  0  0  0  0  0  0  0  0  0  0
    0.5830    2.6484   -1.1088 H   0  0  0  0  0  0  0  0  0  0  0  0
   -0.6725    1.8220   -2.6141 C   0  0  0  0  0  0  0  0  0  0  0  0
    0.2279    1.3355   -3.5645 N   0  3  0  0  0  0  0  0  0  0  0  0
    1.1958    1.0866   -3.3409 H   0  0  0  0  0  0  0  0  0  0  0  0
   -0.3436    1.2699   -4.7426 C   0  0  0  0  0  0  0  0  0  0  0  0
    0.1204    0.9281   -5.6703 H   0  0  0  0  0  0  0  0  0  0  0  0
   -1.6507    1.7278   -4.5924 N   0  0  0  0  0  0  0  0  0  0  0  0
   -2.3432    1.8124   -5.3433 H   0  0  0  0  0  0  0  0  0  0  0  0
   -1.8526    2.0864   -3.2643 C   0  0  0  0  0  0  0  0  0  0  0  0
   -2.7559    2.5113   -2.8263 H   0  0  0  0  0  0  0  0  0  0  0  0
    0.4110    1.0393    1.0462 C   0  0  0  0  0  0  0  0  0  0  0  0
    0.6668    2.1873    1.3835 O   0  0  0  0  0  0  0  0  0  0  0  0
    0.7377    0.0159    1.9135 N   0  0  0  0  0  0  0  0  0  0  0  0
    0.4193   -0.9227    1.6572 H   0  0  0  0  0  0  0  0  0  0  0  0
    1.3000    0.2251    3.2443 C   0  0  0  0  0  0  0  0  0  0  0  0
    0.6052    0.7956    3.8700 H   0  0  0  0  0  0  0  0  0  0  0  0
    1.4920   -0.7371    3.7297 H   0  0  0  0  0  0  0  0  0  0  0  0
    2.2466    0.7725    3.1807 H   0  0  0  0  0  0  0  0  0  0  0  0
  1  2  1  0  0  0  0
  2  3  1  0  0  0  0
  2  4  1  0  0  0  0
  2  5  1  0  0  0  0
  5  6  2  0  0  0  0
  5  7  1  0  0  0  0
  7  8  1  0  0  0  0
  7  9  1  0  0  0  0
  9 10  1  0  0  0  0
  9 11  1  0  0  0  0
  9 23  1  0  0  0  0
 11 12  1  0  0  0  0
 11 13  1  0  0  0  0
 11 14  1  0  0  0  0
 14 15  1  0  0  0  0
 14 21  2  0  0  0  0
 15 16  1  0  0  0  0
 15 17  2  0  0  0  0
 17 18  1  0  0  0  0
 17 19  1  0  0  0  0
 19 20  1  0  0  0  0
 19 21  1  0  0  0  0
 21 22  1  0  0  0  0
 23 24  2  0  0  0  0
 23 25  1  0  0  0  0
 25 26  1  0  0  0  0
 25 27  1  0  0  0  0
 27 28  1  0  0  0  0
 27 29  1  0  0  0  0
 27 30  1  0  0  0  0
M  CHG  1  15   1
M  END
$$$$

  -OEChem-01062216083D

 30 30  0     1  0  0  0  0  0999 V2000
   -3.2415   -2.2206    1.4894 H   0  0  0  0  0  0  0  0  0  0  0  0
   -3.2315   -1.3364    0.8454 C   0  0  0  0  0  0  0  0  0  0  0  0
   -3.6717   -0.5011    1.3954 H   0  0  0  0  0  0  0  0  0  0  0  0
   -3.8354   -1.5418   -0.0415 H   0  0  0  0  0  0  0  0  0  0  0  0
   -1.8084   -1.0030    0.4423 C   0  0  0  0  0  0  0  0  0  0  0  0
   -0.8957   -1.7595    0.7297 O   0  0  0  0  0  0  0  0  0  0  0  0
   -1.5441    0.1046   -0.3433 N   0  0  0  0  0  0  0  0  0  0  0  0
   -2.3554    0.7004   -0.4792 H   0  0  0  0  0  0  0  0  0  0  0  0
   -0.2274    0.7816   -0.3678 C   0  0  1  0  0  0  0  0  0  0  0  0
    0.4732    0.1179   -0.8848 H   0  0  0  0  0  0  0  0  0  0  0  0
   -0.3323    2.0897   -1.1820 C   0  0  0  0  0  0  0  0  0  0  0  0
   -1.0938    2.7354   -0.7303 H   0  0  0  0  0  0  0  0  0  0  0  0
    0.6171    2.6353   -1.1284 H   0  0  0  0  0  0  0  0  0  0  0  0
   -0.6620    1.8266   -2.6323 C   0  0  0  0  0  0  0  0  0  0  0  0
    0.2203    1.3360   -3.5976 N   0  3  0  0  0  0  0  0  0  0  0  0
    1.1873    1.0723   -3.3882 H   0  0  0  0  0  0  0  0  0  0  0  0
   -0.3674    1.2841   -4.7686 C   0  0  0  0  0  0  0  0  0  0  0  0
    0.0802    0.9417   -5.7041 H   0  0  0  0  0  0  0  0  0  0  0  0
   -1.6668    1.7566   -4.5988 N   0  0  0  0  0  0  0  0  0  0  0  0
   -2.3680    1.8544   -5.3402 H   0  0  0  0  0  0  0  0  0  0  0  0
   -1.8470    2.1089   -3.2657 C   0  0  0  0  0  0  0  0  0  0  0  0
   -2.7394    2.5414   -2.8129 H   0  0  0  0  0  0  0  0  0  0  0  0
    0.4213    1.0383    1.0212 C   0  0  0  0  0  0  0  0  0  0  0  0
    0.4676    2.1815    1.4548 O   0  0  0  0  0  0  0  0  0  0  0  0
    1.0029    0.0199    1.7502 N   0  0  0  0  0  0  0  0  0  0  0  0
    0.7412   -0.9293    1.4695 H   0  0  0  0  0  0  0  0  0  0  0  0
    1.5477    0.2118    3.0910 C   0  0  0  0  0  0  0  0  0  0  0  0
    0.7605    0.5268    3.7842 H   0  0  0  0  0  0  0  0  0  0  0  0
    1.9817   -0.7226    3.4608 H   0  0  0  0  0  0  0  0  0  0  0  0
    2.3337    0.9748    3.0825 H   0  0  0  0  0  0  0  0  0  0  0  0
  1  2  1  0  0  0  0
  2  3  1  0  0  0  0
  2  4  1  0  0  0  0
  2  5  1  0  0  0  0
  5  6  2  0  0  0  0
  5  7  1  0  0  0  0
  7  8  1  0  0  0  0
  7  9  1  0  0  0  0
  9 10  1  0  0  0  0
  9 11  1  0  0  0  0
  9 23  1  0  0  0  0
 11 12  1  0  0  0  0
 11 13  1  0  0  0  0
 11 14  1  0  0  0  0
 14 15  1  0  0  0  0
 14 21  2  0  0  0  0
 15 16  1  0  0  0  0
 15 17  2  0  0  0  0
 17 18  1  0  0  0  0
 17 19  1  0  0  0  0
 19 20  1  0  0  0  0
 19 21  1  0  0  0  0
 21 22  1  0  0  0  0
 23 24  2  0  0  0  0
 23 25  1  0  0  0  0
 25 26  1  0  0  0  0
 25 27  1  0  0  0  0
 27 28  1  0  0  0  0
 27 29  1  0  0  0  0
 27 30  1  0  0  0  0
M  CHG  1  15   1
M  END
$$$$

  -OEChem-01062216083D

 30 30  0     1  0  0  0  0  0999 V2000
   -3.1505   -2.2149    1.5518 H   0  0  0  0  0  0  0  0  0  0  0  0
   -3.1678   -1.3418    0.8928 C   0  0  0  0  0  0  0  0  0  0  0  0
   -3.6129   -0.5044    1.4356 H   0  0  0  0  0  0  0  0  0  0  0  0
   -3.7829   -1.5728    0.0202 H   0  0  0  0  0  0  0  0  0  0  0  0
   -1.7580   -0.9909    0.4591 C   0  0  0  0  0  0  0  0  0  0  0  0
   -0.8221   -1.7145    0.7605 O   0  0  0  0  0  0  0  0  0  0  0  0
   -1.5238    0.1015   -0.3579 N   0  0  0  0  0  0  0  0  0  0  0  0
   -2.3388    0.6949   -0.4827 H   0  0  0  0  0  0  0  0  0  0  0  0
   -0.2076    0.7741   -0.3956 C   0  0  1  0  0  0  0  0  0  0  0  0
    0.4949    0.1108   -0.9106 H   0  0  0  0  0  0  0  0  0  0  0  0
   -0.3078    2.0862   -1.2014 C   0  0  0  0  0  0  0  0  0  0  0  0
   -1.0627    2.7344   -0.7425 H   0  0  0  0  0  0  0  0  0  0  0  0
    0.6454    2.6247   -1.1468 H   0  0  0  0  0  0  0  0  0  0  0  0
   -0.6517    1.8336   -2.6503 C   0  0  0  0  0  0  0  0  0  0  0  0
    0.2147    1.3408   -3.6290 N   0  3  0  0  0  0  0  0  0  0  0  0
    1.1815    1.0663   -3.4332 H   0  0  0  0  0  0  0  0  0  0  0  0
   -0.3881    1.2996   -4.7928 C   0  0  0  0  0  0  0  0  0  0  0  0
    0.0443    0.9576   -5.7357 H   0  0  0  0  0  0  0  0  0  0  0  0
   -1.6814    1.7820   -4.6044 N   0  0  0  0  0  0  0  0  0  0  0  0
   -2.3912    1.8896   -5.3362 H   0  0  0  0  0  0  0  0  0  0  0  0
   -1.8422    2.1287   -3.2676 C   0  0  0  0  0  0  0  0  0  0  0  0
   -2.7255    2.5656   -2.8012 H   0  0  0  0  0  0  0  0  0  0  0  0
    0.4135    1.0374    1.0011 C   0  0  0  0  0  0  0  0  0  0  0  0
    0.2553    2.1321    1.5244 O   0  0  0  0  0  0  0  0  0  0  0  0
    1.2345    0.1023    1.6005 N   0  0  0  0  0  0  0  0  0  0  0  0
    1.0850   -0.8597    1.2885 H   0  0  0  0  0  0  0  0  0  0  0  0
    1.7893    0.2949    2.9375 C   0  0  0  0  0  0  0  0  0  0  0  0
    0.9871    0.3696    3.6796 H   0  0  0  0  0  0  0  0  0  0  0  0
    2.4327   -0.5490    3.2062 H   0  0  0  0  0  0  0  0  0  0  0  0
    2.3904    1.2097    2.9788 H   0  0  0  0  0  0  0  0  0  0  0  0
  1  2  1  0  0  0  0
  2  3  1  0  0  0  0
  2  4  1  0  0  0  0
  2  5  1  0  0  0  0
  5  6  2  0  0  0  0
  5  7  1  0  0  0  0
  7  8  1  0  0  0  0
  7  9  1  0  0  0  0
  9 10  1  0  0  0  0
  9 11  1  0  0  0  0
  9 23  1  0  0  0  0
 11 12  1  0  0  0  0
 11 13  1  0  0  0  0
 11 14  1  0  0  0  0
 14 15  1  0  0  0  0
 14 21  2  0  0  0  0
 15 16  1  0  0  0  0
 15 17  2  0  0  0  0
 17 18  1  0  0  0  0
 17 19  1  0  0  0  0
 19 20  1  0  0  0  0
 19 21  1  0  0  0  0
 21 22  1  0  0  0  0
 23 24  2  0  0  0  0
 23 25  1  0  0  0  0
 25 26  1  0  0  0  0
 25 27  1  0  0  0  0
 27 28  1  0  0  0  0
 27 29  1  0  0  0  0
 27 30  1  0  0  0  0
M  CHG  1  15   1
M  END
$$$$

  -OEChem-01062216083D

 30 30  0     1  0  0  0  0  0999 V2000
   -3.0803   -2.1870    1.6220 H   0  0  0  0  0  0  0  0  0  0  0  0
   -3.1182   -1.3316    0.9411 C   0  0  0  0  0  0  0  0  0  0  0  0
   -3.5518   -0.4816    1.4736 H   0  0  0  0  0  0  0  0  0  0  0  0
   -3.7552   -1.5869    0.0912 H   0  0  0  0  0  0  0  0  0  0  0  0
   -1.7217   -0.9872    0.4620 C   0  0  0  0  0  0  0  0  0  0  0  0
   -0.7722   -1.6947    0.7607 O   0  0  0  0  0  0  0  0  0  0  0  0
   -1.5109    0.0922   -0.3786 N   0  0  0  0  0  0  0  0  0  0  0  0
   -2.3259    0.6908   -0.4751 H   0  0  0  0  0  0  0  0  0  0  0  0
   -0.1944    0.7609   -0.4243 C   0  0  1  0  0  0  0  0  0  0  0  0
    0.5081    0.0963   -0.9371 H   0  0  0  0  0  0  0  0  0  0  0  0
   -0.2913    2.0779   -1.2197 C   0  0  0  0  0  0  0  0  0  0  0  0
   -1.0419    2.7263   -0.7527 H   0  0  0  0  0  0  0  0  0  0  0  0
    0.6649    2.6108   -1.1653 H   0  0  0  0  0  0  0  0  0  0  0  0
   -0.6464    1.8383   -2.6679 C   0  0  0  0  0  0  0  0  0  0  0  0
    0.2090    1.3473   -3.6569 N   0  3  0  0  0  0  0  0  0  0  0  0
    1.1754    1.0655   -3.4711 H   0  0  0  0  0  0  0  0  0  0  0  0
   -0.4040    1.3170   -4.8157 C   0  0  0  0  0  0  0  0  0  0  0  0
    0.0184    0.9789   -5.7643 H   0  0  0  0  0  0  0  0  0  0  0  0
   -1.6929    1.8052   -4.6132 N   0  0  0  0  0  0  0  0  0  0  0  0
   -2.4091    1.9194   -5.3375 H   0  0  0  0  0  0  0  0  0  0  0  0
   -1.8403    2.1434   -3.2730 C   0  0  0  0  0  0  0  0  0  0  0  0
   -2.7177    2.5800   -2.7953 H   0  0  0  0  0  0  0  0  0  0  0  0
    0.4055    1.0305    0.9776 C   0  0  0  0  0  0  0  0  0  0  0  0
    0.0374    2.0226    1.5918 O   0  0  0  0  0  0  0  0  0  0  0  0
    1.4432    0.2588    1.4639 N   0  0  0  0  0  0  0  0  0  0  0  0
    1.4920   -0.6861    1.0836 H   0  0  0  0  0  0  0  0  0  0  0  0
    2.0009    0.4698    2.7972 C   0  0  0  0  0  0  0  0  0  0  0  0
    1.2397    0.2917    3.5645 H   0  0  0  0  0  0  0  0  0  0  0  0
    2.8362   -0.2155    2.9722 H   0  0  0  0  0  0  0  0  0  0  0  0
    2.3719    1.4950    2.9036 H   0  0  0  0  0  0  0  0  0  0  0  0
  1  2  1  0  0  0  0
  2  3  1  0  0  0  0
  2  4  1  0  0  0  0
  2  5  1  0  0  0  0
  5  6  2  0  0  0  0
  5  7  1  0  0  0  0
  7  8  1  0  0  0  0
  7  9  1  0  0  0  0
  9 10  1  0  0  0  0
  9 11  1  0  0  0  0
  9 23  1  0  0  0  0
 11 12  1  0  0  0  0
 11 13  1  0  0  0  0
 11 14  1  0  0  0  0
 14 15  1  0  0  0  0
 14 21  2  0  0  0  0
 15 16  1  0  0  0  0
 15 17  2  0  0  0  0
 17 18  1  0  0  0  0
 17 19  1  0  0  0  0
 19 20  1  0  0  0  0
 19 21  1  0  0  0  0
 21 22  1  0  0  0  0
 23 24  2  0  0  0  0
 23 25  1  0  0  0  0
 25 26  1  0  0  0  0
 25 27  1  0  0  0  0
 27 28  1  0  0  0  0
 27 29  1  0  0  0  0
 27 30  1  0  0  0  0
M  CHG  1  15   1
M  END
$$$$

  -OEChem-01062216083D

 30 30  0     1  0  0  0  0  0999 V2000
   -3.0491   -2.1692    1.6394 H   0  0  0  0  0  0  0  0  0  0  0  0
   -3.0900   -1.3098    0.9639 C   0  0  0  0  0  0  0  0  0  0  0  0
   -3.5000   -0.4566    1.5099 H   0  0  0  0  0  0  0  0  0  0  0  0
   -3.7484   -1.5522    0.1266 H   0  0  0  0  0  0  0  0  0  0  0  0
   -1.6995   -0.9815    0.4570 C   0  0  0  0  0  0  0  0  0  0  0  0
   -0.7493   -1.6902    0.7495 O   0  0  0  0  0  0  0  0  0  0  0  0
   -1.4949    0.0870   -0.3990 N   0  0  0  0  0  0  0  0  0  0  0  0
   -2.3065    0.6923   -0.4780 H   0  0  0  0  0  0  0  0  0  0  0  0
   -0.1766    0.7509   -0.4478 C   0  0  1  0  0  0  0  0  0  0  0  0
    0.5250    0.0846   -0.9594 H   0  0  0  0  0  0  0  0  0  0  0  0
   -0.2758    2.0725   -1.2328 C   0  0  0  0  0  0  0  0  0  0  0  0
   -1.0227    2.7182   -0.7563 H   0  0  0  0  0  0  0  0  0  0  0  0
    0.6810    2.6042   -1.1817 H   0  0  0  0  0  0  0  0  0  0  0  0
   -0.6419    1.8402   -2.6796 C   0  0  0  0  0  0  0  0  0  0  0  0
    0.2019    1.3525   -3.6802 N   0  3  0  0  0  0  0  0  0  0  0  0
    1.1705    1.0703   -3.5068 H   0  0  0  0  0  0  0  0  0  0  0  0
   -0.4257    1.3222   -4.8312 C   0  0  0  0  0  0  0  0  0  0  0  0
   -0.0148    0.9853   -5.7854 H   0  0  0  0  0  0  0  0  0  0  0  0
   -1.7132    1.8067   -4.6116 N   0  0  0  0  0  0  0  0  0  0  0  0
   -2.4402    1.9161   -5.3259 H   0  0  0  0  0  0  0  0  0  0  0  0
   -1.8448    2.1418   -3.2689 C   0  0  0  0  0  0  0  0  0  0  0  0
   -2.7188    2.5710   -2.7782 H   0  0  0  0  0  0  0  0  0  0  0  0
    0.4104    1.0295    0.9566 C   0  0  0  0  0  0  0  0  0  0  0  0
   -0.1405    1.8706    1.6542 O   0  0  0  0  0  0  0  0  0  0  0  0
    1.6193    0.4863    1.3493 N   0  0  0  0  0  0  0  0  0  0  0  0
    1.8924   -0.3730    0.8775 H   0  0  0  0  0  0  0  0  0  0  0  0
    2.1693    0.7197    2.6822 C   0  0  0  0  0  0  0  0  0  0  0  0
    1.5005    0.3148    3.4497 H   0  0  0  0  0  0  0  0  0  0  0  0
    3.1449    0.2336    2.7820 H   0  0  0  0  0  0  0  0  0  0  0  0
    2.3017    1.7919    2.8636 H   0  0  0  0  0  0  0  0  0  0  0  0
  1  2  1  0  0  0  0
  2  3  1  0  0  0  0
  2  4  1  0  0  0  0
  2  5  1  0  0  0  0
  5  6  2  0  0  0  0
  5  7  1  0  0  0  0
  7  8  1  0  0  0  0
  7  9  1  0  0  0  0
  9 10  1  0  0  0  0
  9 11  1  0  0  0  0
  9 23  1  0  0  0  0
 11 12  1  0  0  0  0
 11 13  1  0  0  0  0
 11 14  1  0  0  0  0
 14 15  1  0  0  0  0
 14 21  2  0  0  0  0
 15 16  1  0  0  0  0
 15 17  2  0  0  0  0
 17 18  1  0  0  0  0
 17 19  1  0  0  0  0
 19 20  1  0  0  0  0
 19 21  1  0  0  0  0
 21 22  1  0  0  0  0
 23 24  2  0  0  0  0
 23 25  1  0  0  0  0
 25 26  1  0  0  0  0
 25 27  1  0  0  0  0
 27 28  1  0  0  0  0
 27 29  1  0  0  0  0
 27 30  1  0  0  0  0
M  CHG  1  15   1
M  END
$$$$

  -OEChem-01062216083D

 30 30  0     1  0  0  0  0  0999 V2000
   -3.0333   -2.1681    1.6363 H   0  0  0  0  0  0  0  0  0  0  0  0
   -3.0734   -1.2915    0.9835 C   0  0  0  0  0  0  0  0  0  0  0  0
   -3.4506   -0.4438    1.5608 H   0  0  0  0  0  0  0  0  0  0  0  0
   -3.7578   -1.4992    0.1580 H   0  0  0  0  0  0  0  0  0  0  0  0
   -1.6896   -0.9788    0.4494 C   0  0  0  0  0  0  0  0  0  0  0  0
   -0.7410   -1.6962    0.7258 O   0  0  0  0  0  0  0  0  0  0  0  0
   -1.4894    0.0842   -0.4148 N   0  0  0  0  0  0  0  0  0  0  0  0
   -2.2983    0.6953   -0.4743 H   0  0  0  0  0  0  0  0  0  0  0  0
   -0.1700    0.7475   -0.4599 C   0  0  1  0  0  0  0  0  0  0  0  0
    0.5340    0.0800   -0.9665 H   0  0  0  0  0  0  0  0  0  0  0  0
   -0.2715    2.0710   -1.2392 C   0  0  0  0  0  0  0  0  0  0  0  0
   -1.0183    2.7136   -0.7584 H   0  0  0  0  0  0  0  0  0  0  0  0
    0.6848    2.6039   -1.1886 H   0  0  0  0  0  0  0  0  0  0  0  0
   -0.6390    1.8403   -2.6864 C   0  0  0  0  0  0  0  0  0  0  0  0
    0.2019    1.3558   -3.6913 N   0  3  0  0  0  0  0  0  0  0  0  0
    1.1714    1.0745   -3.5229 H   0  0  0  0  0  0  0  0  0  0  0  0
   -0.4322    1.3201   -4.8386 C   0  0  0  0  0  0  0  0  0  0  0  0
   -0.0261    0.9821   -5.7945 H   0  0  0  0  0  0  0  0  0  0  0  0
   -1.7205    1.7995   -4.6130 N   0  0  0  0  0  0  0  0  0  0  0  0
   -2.4529    1.9018   -5.3230 H   0  0  0  0  0  0  0  0  0  0  0  0
   -1.8465    2.1353   -3.2701 C   0  0  0  0  0  0  0  0  0  0  0  0
   -2.7214    2.5581   -2.7756 H   0  0  0  0  0  0  0  0  0  0  0  0
    0.4073    1.0332    0.9468 C   0  0  0  0  0  0  0  0  0  0  0  0
   -0.2704    1.6998    1.7179 O   0  0  0  0  0  0  0  0  0  0  0  0
    1.7281    0.7592    1.2505 N   0  0  0  0  0  0  0  0  0  0  0  0
    2.1820    0.0430    0.6897 H   0  0  0  0  0  0  0  0  0  0  0  0
    2.2820    1.0262    2.5758 C   0  0  0  0  0  0  0  0  0  0  0  0
    1.7457    0.4510    3.3386 H   0  0  0  0  0  0  0  0  0  0  0  0
    3.3395    0.7458    2.6107 H   0  0  0  0  0  0  0  0  0  0  0  0
    2.2021    2.0910    2.8207 H   0  0  0  0  0  0  0  0  0  0  0  0
  1  2  1  0  0  0  0
  2  3  1  0  0  0  0
  2  4  1  0  0  0  0
  2  5  1  0  0  0  0
  5  6  2  0  0  0  0
  5  7  1  0  0  0  0
  7  8  1  0  0  0  0
  7  9  1  0  0  0  0
  9 10  1  0  0  0  0
  9 11  1  0  0  0  0
  9 23  1  0  0  0  0
 11 12  1  0  0  0  0
 11 13  1  0  0  0  0
 11 14  1  0  0  0  0
 14 15  1  0  0  0  0
 14 21  2  0  0  0  0
 15 16  1  0  0  0  0
 15 17  2  0  0  0  0
 17 18  1  0  0  0  0
 17 19  1  0  0  0  0
 19 20  1  0  0  0  0
 19 21  1  0  0  0  0
 21 22  1  0  0  0  0
 23 24  2  0  0  0  0
 23 25  1  0  0  0  0
 25 26  1  0  0  0  0
 25 27  1  0  0  0  0
 27 28  1  0  0  0  0
 27 29  1  0  0  0  0
 27 30  1  0  0  0  0
M  CHG  1  15   1
M  END
$$$$

  -OEChem-01062216083D

 30 30  0     1  0  0  0  0  0999 V2000
   -3.0410   -2.1782    1.6164 H   0  0  0  0  0  0  0  0  0  0  0  0
   -3.0732   -1.2780    0.9957 C   0  0  0  0  0  0  0  0  0  0  0  0
   -3.4097   -0.4408    1.6125 H   0  0  0  0  0  0  0  0  0  0  0  0
   -3.7854   -1.4367    0.1828 H   0  0  0  0  0  0  0  0  0  0  0  0
   -1.6950   -0.9850    0.4362 C   0  0  0  0  0  0  0  0  0  0  0  0
   -0.7531   -1.7208    0.6856 O   0  0  0  0  0  0  0  0  0  0  0  0
   -1.4933    0.0789   -0.4265 N   0  0  0  0  0  0  0  0  0  0  0  0
   -2.2982    0.6964   -0.4680 H   0  0  0  0  0  0  0  0  0  0  0  0
   -0.1724    0.7411   -0.4592 C   0  0  1  0  0  0  0  0  0  0  0  0
    0.5344    0.0738   -0.9626 H   0  0  0  0  0  0  0  0  0  0  0  0
   -0.2770    2.0663   -1.2340 C   0  0  0  0  0  0  0  0  0  0  0  0
   -1.0285    2.7031   -0.7529 H   0  0  0  0  0  0  0  0  0  0  0  0
    0.6760    2.6048   -1.1803 H   0  0  0  0  0  0  0  0  0  0  0  0
   -0.6384    1.8373   -2.6832 C   0  0  0  0  0  0  0  0  0  0  0  0
    0.2077    1.3591   -3.6869 N   0  3  0  0  0  0  0  0  0  0  0  0
    1.1762    1.0765   -3.5157 H   0  0  0  0  0  0  0  0  0  0  0  0
   -0.4230    1.3213   -4.8360 C   0  0  0  0  0  0  0  0  0  0  0  0
   -0.0131    0.9844   -5.7906 H   0  0  0  0  0  0  0  0  0  0  0  0
   -1.7142    1.7937   -4.6130 N   0  0  0  0  0  0  0  0  0  0  0  0
   -2.4464    1.8901   -5.3239 H   0  0  0  0  0  0  0  0  0  0  0  0
   -1.8460    2.1259   -3.2698 C   0  0  0  0  0  0  0  0  0  0  0  0
   -2.7256    2.5404   -2.7765 H   0  0  0  0  0  0  0  0  0  0  0  0
    0.4025    1.0286    0.9494 C   0  0  0  0  0  0  0  0  0  0  0  0
   -0.3477    1.5134    1.7867 O   0  0  0  0  0  0  0  0  0  0  0  0
    1.7681    1.0466    1.1719 N   0  0  0  0  0  0  0  0  0  0  0  0
    2.3445    0.5012    0.5373 H   0  0  0  0  0  0  0  0  0  0  0  0
    2.3329    1.3827    2.4772 C   0  0  0  0  0  0  0  0  0  0  0  0
    1.9689    0.6895    3.2437 H   0  0  0  0  0  0  0  0  0  0  0  0
    3.4254    1.3215    2.4476 H   0  0  0  0  0  0  0  0  0  0  0  0
    2.0549    2.4019    2.7671 H   0  0  0  0  0  0  0  0  0  0  0  0
  1  2  1  0  0  0  0
  2  3  1  0  0  0  0
  2  4  1  0  0  0  0
  2  5  1  0  0  0  0
  5  6  2  0  0  0  0
  5  7  1  0  0  0  0
  7  8  1  0  0  0  0
  7  9  1  0  0  0  0
  9 10  1  0  0  0  0
  9 11  1  0  0  0  0
  9 23  1  0  0  0  0
 11 12  1  0  0  0  0
 11 13  1  0  0  0  0
 11 14  1  0  0  0  0
 14 15  1  0  0  0  0
 14 21  2  0  0  0  0
 15 16  1  0  0  0  0
 15 17  2  0  0  0  0
 17 18  1  0  0  0  0
 17 19  1  0  0  0  0
 19 20  1  0  0  0  0
 19 21  1  0  0  0  0
 21 22  1  0  0  0  0
 23 24  2  0  0  0  0
 23 25  1  0  0  0  0
 25 26  1  0  0  0  0
 25 27  1  0  0  0  0
 27 28  1  0  0  0  0
 27 29  1  0  0  0  0
 27 30  1  0  0  0  0
M  CHG  1  15   1
M  END
$$$$

  -OEChem-01062216083D

 30 30  0     1  0  0  0  0  0999 V2000
   -3.0364   -2.1664    1.6207 H   0  0  0  0  0  0  0  0  0  0  0  0
   -3.0708   -1.2634    1.0044 C   0  0  0  0  0  0  0  0  0  0  0  0
   -3.3826   -0.4250    1.6323 H   0  0  0  0  0  0  0  0  0  0  0  0
   -3.8020   -1.4096    0.2063 H   0  0  0  0  0  0  0  0  0  0  0  0
   -1.7012   -0.9851    0.4171 C   0  0  0  0  0  0  0  0  0  0  0  0
   -0.7670   -1.7422    0.6294 O   0  0  0  0  0  0  0  0  0  0  0  0
   -1.4988    0.0874   -0.4354 N   0  0  0  0  0  0  0  0  0  0  0  0
   -2.3008    0.7095   -0.4557 H   0  0  0  0  0  0  0  0  0  0  0  0
   -0.1757    0.7489   -0.4531 C   0  0  1  0  0  0  0  0  0  0  0  0
    0.5328    0.0834   -0.9566 H   0  0  0  0  0  0  0  0  0  0  0  0
   -0.2856    2.0741   -1.2283 C   0  0  0  0  0  0  0  0  0  0  0  0
   -1.0450    2.7047   -0.7516 H   0  0  0  0  0  0  0  0  0  0  0  0
    0.6620    2.6209   -1.1726 H   0  0  0  0  0  0  0  0  0  0  0  0
   -0.6379    1.8385   -2.6794 C   0  0  0  0  0  0  0  0  0  0  0  0
    0.2154    1.3644   -3.6794 N   0  3  0  0  0  0  0  0  0  0  0  0
    1.1847    1.0872   -3.5043 H   0  0  0  0  0  0  0  0  0  0  0  0
   -0.4130    1.3128   -4.8292 C   0  0  0  0  0  0  0  0  0  0  0  0
    0.0009    0.9720   -5.7806 H   0  0  0  0  0  0  0  0  0  0  0  0
   -1.7088    1.7749   -4.6118 N   0  0  0  0  0  0  0  0  0  0  0  0
   -2.4410    1.8576   -5.3246 H   0  0  0  0  0  0  0  0  0  0  0  0
   -1.8469    2.1125   -3.2706 C   0  0  0  0  0  0  0  0  0  0  0  0
   -2.7326    2.5188   -2.7814 H   0  0  0  0  0  0  0  0  0  0  0  0
    0.4046    1.0295    0.9575 C   0  0  0  0  0  0  0  0  0  0  0  0
   -0.3730    1.3147    1.8594 O   0  0  0  0  0  0  0  0  0  0  0  0
    1.7430    1.3470    1.1181 N   0  0  0  0  0  0  0  0  0  0  0  0
    2.3888    0.9991    0.4157 H   0  0  0  0  0  0  0  0  0  0  0  0
    2.2973    1.7335    2.4146 C   0  0  0  0  0  0  0  0  0  0  0  0
    2.1207    0.9483    3.1583 H   0  0  0  0  0  0  0  0  0  0  0  0
    3.3765    1.8973    2.3356 H   0  0  0  0  0  0  0  0  0  0  0  0
    1.8351    2.6610    2.7703 H   0  0  0  0  0  0  0  0  0  0  0  0
  1  2  1  0  0  0  0
  2  3  1  0  0  0  0
  2  4  1  0  0  0  0
  2  5  1  0  0  0  0
  5  6  2  0  0  0  0
  5  7  1  0  0  0  0
  7  8  1  0  0  0  0
  7  9  1  0  0  0  0
  9 10  1  0  0  0  0
  9 11  1  0  0  0  0
  9 23  1  0  0  0  0
 11 12  1  0  0  0  0
 11 13  1  0  0  0  0
 11 14  1  0  0  0  0
 14 15  1  0  0  0  0
 14 21  2  0  0  0  0
 15 16  1  0  0  0  0
 15 17  2  0  0  0  0
 17 18  1  0  0  0  0
 17 19  1  0  0  0  0
 19 20  1  0  0  0  0
 19 21  1  0  0  0  0
 21 22  1  0  0  0  0
 23 24  2  0  0  0  0
 23 25  1  0  0  0  0
 25 26  1  0  0  0  0
 25 27  1  0  0  0  0
 27 28  1  0  0  0  0
 27 29  1  0  0  0  0
 27 30  1  0  0  0  0
M  CHG  1  15   1
M  END
$$$$

  -OEChem-01062216083D

 30 30  0     1  0  0  0  0  0999 V2000
   -3.1438   -2.2004    1.4754 H   0  0  0  0  0  0  0  0  0  0  0  0
   -3.1309   -1.2600    0.9166 C   0  0  0  0  0  0  0  0  0  0  0  0
   -3.3943   -0.4470    1.5974 H   0  0  0  0  0  0  0  0  0  0  0  0
   -3.8707   -1.3167    0.1150 H   0  0  0  0  0  0  0  0  0  0  0  0
   -1.7491   -1.0216    0.3410 C   0  0  0  0  0  0  0  0  0  0  0  0
   -0.8790   -1.8712    0.4426 O   0  0  0  0  0  0  0  0  0  0  0  0
   -1.4909    0.0791   -0.4592 N   0  0  0  0  0  0  0  0  0  0  0  0
   -2.2889    0.7025   -0.5044 H   0  0  0  0  0  0  0  0  0  0  0  0
   -0.1658    0.7455   -0.4304 C   0  0  1  0  0  0  0  0  0  0  0  0
    0.4755    0.2375   -1.1572 H   0  0  0  0  0  0  0  0  0  0  0  0
   -0.3712    2.2166   -0.8480 C   0  0  0  0  0  0  0  0  0  0  0  0
   -1.0831    2.6857   -0.1590 H   0  0  0  0  0  0  0  0  0  0  0  0
    0.5671    2.7739   -0.7588 H   0  0  0  0  0  0  0  0  0  0  0  0
   -0.8659    2.3287   -2.2726 C   0  0  0  0  0  0  0  0  0  0  0  0
   -0.1123    2.1427   -3.4347 N   0  3  0  0  0  0  0  0  0  0  0  0
    0.8703    1.8572   -3.4267 H   0  0  0  0  0  0  0  0  0  0  0  0
   -0.8498    2.3605   -4.4970 C   0  0  0  0  0  0  0  0  0  0  0  0
   -0.5296    2.2775   -5.5381 H   0  0  0  0  0  0  0  0  0  0  0  0
   -2.1191    2.7205   -4.0510 N   0  0  0  0  0  0  0  0  0  0  0  0
   -2.9162    2.9619   -4.6489 H   0  0  0  0  0  0  0  0  0  0  0  0
   -2.1265    2.7127   -2.6610 C   0  0  0  0  0  0  0  0  0  0  0  0
   -2.9598    2.9708   -2.0067 H   0  0  0  0  0  0  0  0  0  0  0  0
    0.6099    0.7011    0.9208 C   0  0  0  0  0  0  0  0  0  0  0  0
   -0.0272    0.6275    1.9636 O   0  0  0  0  0  0  0  0  0  0  0  0
    1.8592    1.2965    1.0155 N   0  0  0  0  0  0  0  0  0  0  0  0
    2.4342    1.2954    0.1791 H   0  0  0  0  0  0  0  0  0  0  0  0
    2.5384    1.4916    2.2968 C   0  0  0  0  0  0  0  0  0  0  0  0
    2.6356    0.5394    2.8302 H   0  0  0  0  0  0  0  0  0  0  0  0
    3.5408    1.9019    2.1393 H   0  0  0  0  0  0  0  0  0  0  0  0
    1.9777    2.1891    2.9287 H   0  0  0  0  0  0  0  0  0  0  0  0
  1  2  1  0  0  0  0
  2  3  1  0  0  0  0
  2  4  1  0  0  0  0
  2  5  1  0  0  0  0
  5  6  2  0  0  0  0
  5  7  1  0  0  0  0
  7  8  1  0  0  0  0
  7  9  1  0  0  0  0
  9 10  1  0  0  0  0
  9 11  1  0  0  0  0
  9 23  1  0  0  0  0
 11 12  1  0  0  0  0
 11 13  1  0  0  0  0
 11 14  1  0  0  0  0
 14 15  1  0  0  0  0
 14 21  2  0  0  0  0
 15 16  1  0  0  0  0
 15 17  2  0  0  0  0
 17 18  1  0  0  0  0
 17 19  1  0  0  0  0
 19 20  1  0  0  0  0
 19 21  1  0  0  0  0
 21 22  1  0  0  0  0
 23 24  2  0  0  0  0
 23 25  1  0  0  0  0
 25 26  1  0  0  0  0
 25 27  1  0  0  0  0
 27 28  1  0  0  0  0
 27 29  1  0  0  0  0
 27 30  1  0  0  0  0
M  CHG  1  15   1
M  END
$$$$

  -OEChem-01062216083D

 30 30  0     1  0  0  0  0  0999 V2000
   -3.1307   -2.2023    1.4570 H   0  0  0  0  0  0  0  0  0  0  0  0
   -3.1215   -1.2441    0.9291 C   0  0  0  0  0  0  0  0  0  0  0  0
   -3.3461   -0.4510    1.6462 H   0  0  0  0  0  0  0  0  0  0  0  0
   -3.8902   -1.2617    0.1536 H   0  0  0  0  0  0  0  0  0  0  0  0
   -1.7571   -1.0095    0.3113 C   0  0  0  0  0  0  0  0  0  0  0  0
   -0.9193   -1.8961    0.3005 O   0  0  0  0  0  0  0  0  0  0  0  0
   -1.4986    0.1197   -0.4472 N   0  0  0  0  0  0  0  0  0  0  0  0
   -2.2957    0.7455   -0.4513 H   0  0  0  0  0  0  0  0  0  0  0  0
   -0.1761    0.7946   -0.4031 C   0  0  1  0  0  0  0  0  0  0  0  0
    0.4629    0.2928   -1.1364 H   0  0  0  0  0  0  0  0  0  0  0  0
   -0.4023    2.2595   -0.8414 C   0  0  0  0  0  0  0  0  0  0  0  0
   -1.1309    2.7257   -0.1681 H   0  0  0  0  0  0  0  0  0  0  0  0
    0.5212    2.8401   -0.7584 H   0  0  0  0  0  0  0  0  0  0  0  0
   -0.8802    2.3357   -2.2751 C   0  0  0  0  0  0  0  0  0  0  0  0
   -0.1068    2.1434   -3.4237 N   0  3  0  0  0  0  0  0  0  0  0  0
    0.8787    1.8686   -3.3977 H   0  0  0  0  0  0  0  0  0  0  0  0
   -0.8347    2.3209   -4.5000 C   0  0  0  0  0  0  0  0  0  0  0  0
   -0.4997    2.2178   -5.5346 H   0  0  0  0  0  0  0  0  0  0  0  0
   -2.1168    2.6642   -4.0785 N   0  0  0  0  0  0  0  0  0  0  0  0
   -2.9116    2.8719   -4.6921 H   0  0  0  0  0  0  0  0  0  0  0  0
   -2.1430    2.6848   -2.6888 C   0  0  0  0  0  0  0  0  0  0  0  0
   -2.9915    2.9362   -2.0520 H   0  0  0  0  0  0  0  0  0  0  0  0
    0.6358    0.7298    0.9338 C   0  0  0  0  0  0  0  0  0  0  0  0
    0.1030    0.3370    1.9616 O   0  0  0  0  0  0  0  0  0  0  0  0
    1.7154    1.5810    1.1286 N   0  0  0  0  0  0  0  0  0  0  0  0
    2.2220    1.8886    0.3053 H   0  0  0  0  0  0  0  0  0  0  0  0
    2.3755    1.7423    2.4253 C   0  0  0  0  0  0  0  0  0  0  0  0
    2.6982    0.7715    2.8181 H   0  0  0  0  0  0  0  0  0  0  0  0
    3.2570    2.3837    2.3283 H   0  0  0  0  0  0  0  0  0  0  0  0
    1.6943    2.2026    3.1493 H   0  0  0  0  0  0  0  0  0  0  0  0
  1  2  1  0  0  0  0
  2  3  1  0  0  0  0
  2  4  1  0  0  0  0
  2  5  1  0  0  0  0
  5  6  2  0  0  0  0
  5  7  1  0  0  0  0
  7  8  1  0  0  0  0
  7  9  1  0  0  0  0
  9 10  1  0  0  0  0
  9 11  1  0  0  0  0
  9 23  1  0  0  0  0
 11 12  1  0  0  0  0
 11 13  1  0  0  0  0
 11 14  1  0  0  0  0
 14 15  1  0  0  0  0
 14 21  2  0  0  0  0
 15 16  1  0  0  0  0
 15 17  2  0  0  0  0
 17 18  1  0  0  0  0
 17 19  1  0  0  0  0
 19 20  1  0  0  0  0
 19 21  1  0  0  0  0
 21 22  1  0  0  0  0
 23 24  2  0  0  0  0
 23 25  1  0  0  0  0
 25 26  1  0  0  0  0
 25 27  1  0  0  0  0
 27 28  1  0  0  0  0
 27 29  1  0  0  0  0
 27 30  1  0  0  0  0
M  CHG  1  15   1
M  END
$$$$

  -OEChem-01062216083D

 30 30  0     1  0  0  0  0  0999 V2000
   -3.0894   -2.2018    1.4608 H   0  0  0  0  0  0  0  0  0  0  0  0
   -3.0904   -1.2215    0.9750 C   0  0  0  0  0  0  0  0  0  0  0  0
   -3.2475   -0.4565    1.7390 H   0  0  0  0  0  0  0  0  0  0  0  0
   -3.9083   -1.1872    0.2521 H   0  0  0  0  0  0  0  0  0  0  0  0
   -1.7634   -0.9924    0.2785 C   0  0  0  0  0  0  0  0  0  0  0  0
   -0.9818   -1.9139    0.1183 O   0  0  0  0  0  0  0  0  0  0  0  0
   -1.5197    0.1680   -0.4343 N   0  0  0  0  0  0  0  0  0  0  0  0
   -2.3227    0.7847   -0.3901 H   0  0  0  0  0  0  0  0  0  0  0  0
   -0.2120    0.8708   -0.3754 C   0  0  1  0  0  0  0  0  0  0  0  0
    0.4320    0.3736   -1.1081 H   0  0  0  0  0  0  0  0  0  0  0  0
   -0.4538    2.3223   -0.8486 C   0  0  0  0  0  0  0  0  0  0  0  0
   -1.2042    2.7926   -0.2033 H   0  0  0  0  0  0  0  0  0  0  0  0
    0.4589    2.9196   -0.7690 H   0  0  0  0  0  0  0  0  0  0  0  0
   -0.9000    2.3497   -2.2949 C   0  0  0  0  0  0  0  0  0  0  0  0
   -0.0943    2.1410   -3.4186 N   0  3  0  0  0  0  0  0  0  0  0  0
    0.8927    1.8755   -3.3609 H   0  0  0  0  0  0  0  0  0  0  0  0
   -0.7992    2.2697   -4.5168 C   0  0  0  0  0  0  0  0  0  0  0  0
   -0.4379    2.1380   -5.5394 H   0  0  0  0  0  0  0  0  0  0  0  0
   -2.0973    2.6010   -4.1369 N   0  0  0  0  0  0  0  0  0  0  0  0
   -2.8810    2.7714   -4.7756 H   0  0  0  0  0  0  0  0  0  0  0  0
   -2.1588    2.6609   -2.7494 C   0  0  0  0  0  0  0  0  0  0  0  0
   -3.0291    2.9107   -2.1422 H   0  0  0  0  0  0  0  0  0  0  0  0
    0.6320    0.7929    0.9451 C   0  0  0  0  0  0  0  0  0  0  0  0
    0.3726    0.0034    1.8375 O   0  0  0  0  0  0  0  0  0  0  0  0
    1.4781    1.8324    1.3094 N   0  0  0  0  0  0  0  0  0  0  0  0
    1.7509    2.5026    0.5996 H   0  0  0  0  0  0  0  0  0  0  0  0
    2.1659    1.8889    2.6004 C   0  0  0  0  0  0  0  0  0  0  0  0
    2.7803    0.9940    2.7498 H   0  0  0  0  0  0  0  0  0  0  0  0
    2.8188    2.7660    2.6486 H   0  0  0  0  0  0  0  0  0  0  0  0
    1.4414    1.9551    3.4195 H   0  0  0  0  0  0  0  0  0  0  0  0
  1  2  1  0  0  0  0
  2  3  1  0  0  0  0
  2  4  1  0  0  0  0
  2  5  1  0  0  0  0
  5  6  2  0  0  0  0
  5  7  1  0  0  0  0
  7  8  1  0  0  0  0
  7  9  1  0  0  0  0
  9 10  1  0  0  0  0
  9 11  1  0  0  0  0
  9 23  1  0  0  0  0
 11 12  1  0  0  0  0
 11 13  1  0  0  0  0
 11 14  1  0  0  0  0
 14 15  1  0  0  0  0
 14 21  2  0  0  0  0
 15 16  1  0  0  0  0
 15 17  2  0  0  0  0
 17 18  1  0  0  0  0
 17 19  1  0  0  0  0
 19 20  1  0  0  0  0
 19 21  1  0  0  0  0
 21 22  1  0  0  0  0
 23 24  2  0  0  0  0
 23 25  1  0  0  0  0
 25 26  1  0  0  0  0
 25 27  1  0  0  0  0
 27 28  1  0  0  0  0
 27 29  1  0  0  0  0
 27 30  1  0  0  0  0
M  CHG  1  15   1
M  END
$$$$

  -OEChem-01062216083D

 30 30  0     1  0  0  0  0  0999 V2000
   -3.5393   -2.1965    1.1448 H   0  0  0  0  0  0  0  0  0  0  0  0
   -3.3951   -1.3175    0.5091 C   0  0  0  0  0  0  0  0  0  0  0  0
   -4.0229   -0.5081    0.8883 H   0  0  0  0  0  0  0  0  0  0  0  0
   -3.7026   -1.5690   -0.5084 H   0  0  0  0  0  0  0  0  0  0  0  0
   -1.9364   -0.9004    0.5252 C   0  0  0  0  0  0  0  0  0  0  0  0
   -1.1411   -1.6087    1.1010 O   0  0  0  0  0  0  0  0  0  0  0  0
   -1.5577    0.2282   -0.1863 N   0  0  0  0  0  0  0  0  0  0  0  0
   -2.3280    0.6846   -0.6604 H   0  0  0  0  0  0  0  0  0  0  0  0
   -0.2506    0.9369   -0.1911 C   0  0  1  0  0  0  0  0  0  0  0  0
    0.3759    0.3969   -0.9092 H   0  0  0  0  0  0  0  0  0  0  0  0
   -0.4718    2.3613   -0.7456 C   0  0  0  0  0  0  0  0  0  0  0  0
   -1.2068    2.8843   -0.1238 H   0  0  0  0  0  0  0  0  0  0  0  0
    0.4601    2.9357   -0.7112 H   0  0  0  0  0  0  0  0  0  0  0  0
   -0.9287    2.3180   -2.1860 C   0  0  0  0  0  0  0  0  0  0  0  0
   -0.1171    2.0312   -3.2872 N   0  3  0  0  0  0  0  0  0  0  0  0
    0.8663    1.7558   -3.2024 H   0  0  0  0  0  0  0  0  0  0  0  0
   -0.8024    2.1381   -4.3996 C   0  0  0  0  0  0  0  0  0  0  0  0
   -0.4287    1.9599   -5.4106 H   0  0  0  0  0  0  0  0  0  0  0  0
   -2.0947    2.5252   -4.0517 N   0  0  0  0  0  0  0  0  0  0  0  0
   -2.8584    2.7109   -4.7104 H   0  0  0  0  0  0  0  0  0  0  0  0
   -2.1713    2.6513   -2.6685 C   0  0  0  0  0  0  0  0  0  0  0  0
   -3.0353    2.9727   -2.0857 H   0  0  0  0  0  0  0  0  0  0  0  0
    0.6369    0.9221    1.0939 C   0  0  0  0  0  0  0  0  0  0  0  0
    1.2017   -0.1082    1.4154 O   0  0  0  0  0  0  0  0  0  0  0  0
    1.2382    2.0834    1.5635 N   0  0  0  0  0  0  0  0  0  0  0  0
    0.7665    2.9610    1.3756 H   0  0  0  0  0  0  0  0  0  0  0  0
    2.2578    2.0787    2.6137 C   0  0  0  0  0  0  0  0  0  0  0  0
    3.1450    1.5242    2.2880 H   0  0  0  0  0  0  0  0  0  0  0  0
    2.5639    3.1014    2.8544 H   0  0  0  0  0  0  0  0  0  0  0  0
    1.8697    1.6104    3.5251 H   0  0  0  0  0  0  0  0  0  0  0  0
  1  2  1  0  0  0  0
  2  3  1  0  0  0  0
  2  4  1  0  0  0  0
  2  5  1  0  0  0  0
  5  6  2  0  0  0  0
  5  7  1  0  0  0  0
  7  8  1  0  0  0  0
  7  9  1  0  0  0  0
  9 10  1  0  0  0  0
  9 11  1  0  0  0  0
  9 23  1  0  0  0  0
 11 12  1  0  0  0  0
 11 13  1  0  0  0  0
 11 14  1  0  0  0  0
 14 15  1  0  0  0  0
 14 21  2  0  0  0  0
 15 16  1  0  0  0  0
 15 17  2  0  0  0  0
 17 18  1  0  0  0  0
 17 19  1  0  0  0  0
 19 20  1  0  0  0  0
 19 21  1  0  0  0  0
 21 22  1  0  0  0  0
 23 24  2  0  0  0  0
 23 25  1  0  0  0  0
 25 26  1  0  0  0  0
 25 27  1  0  0  0  0
 27 28  1  0  0  0  0
 27 29  1  0  0  0  0
 27 30  1  0  0  0  0
M  CHG  1  15   1
M  END
$$$$

  -OEChem-01062216083D

 30 30  0     1  0  0  0  0  0999 V2000
   -3.4536   -2.3014    1.0537 H   0  0  0  0  0  0  0  0  0  0  0  0
   -3.3174   -1.4664    0.3598 C   0  0  0  0  0  0  0  0  0  0  0  0
   -4.1820   -0.8033    0.4371 H   0  0  0  0  0  0  0  0  0  0  0  0
   -3.2558   -1.8655   -0.6550 H   0  0  0  0  0  0  0  0  0  0  0  0
   -2.0485   -0.7100    0.7043 C   0  0  0  0  0  0  0  0  0  0  0  0
   -1.4749   -0.9778    1.7391 O   0  0  0  0  0  0  0  0  0  0  0  0
   -1.6439    0.3376   -0.1104 N   0  0  0  0  0  0  0  0  0  0  0  0
   -2.2194    0.4408   -0.9392 H   0  0  0  0  0  0  0  0  0  0  0  0
   -0.2911    0.9488   -0.1708 C   0  0  1  0  0  0  0  0  0  0  0  0
    0.2938    0.3469   -0.8751 H   0  0  0  0  0  0  0  0  0  0  0  0
   -0.4243    2.3704   -0.7547 C   0  0  0  0  0  0  0  0  0  0  0  0
   -1.1071    2.9545   -0.1276 H   0  0  0  0  0  0  0  0  0  0  0  0
    0.5486    2.8752   -0.7435 H   0  0  0  0  0  0  0  0  0  0  0  0
   -0.9240    2.3403   -2.1799 C   0  0  0  0  0  0  0  0  0  0  0  0
   -0.1745    1.9785   -3.3024 N   0  3  0  0  0  0  0  0  0  0  0  0
    0.7990    1.6624   -3.2485 H   0  0  0  0  0  0  0  0  0  0  0  0
   -0.8882    2.1254   -4.3926 C   0  0  0  0  0  0  0  0  0  0  0  0
   -0.5600    1.9218   -5.4147 H   0  0  0  0  0  0  0  0  0  0  0  0
   -2.1395    2.6015   -4.0056 N   0  0  0  0  0  0  0  0  0  0  0  0
   -2.9094    2.8398   -4.6398 H   0  0  0  0  0  0  0  0  0  0  0  0
   -2.1580    2.7488   -2.6227 C   0  0  0  0  0  0  0  0  0  0  0  0
   -2.9750    3.1330   -2.0100 H   0  0  0  0  0  0  0  0  0  0  0  0
    0.5818    0.9438    1.1176 C   0  0  0  0  0  0  0  0  0  0  0  0
    1.2768   -0.0453    1.2960 O   0  0  0  0  0  0  0  0  0  0  0  0
    1.0245    2.1177    1.7121 N   0  0  0  0  0  0  0  0  0  0  0  0
    0.4005    2.9159    1.6574 H   0  0  0  0  0  0  0  0  0  0  0  0
    2.0117    2.1144    2.7918 C   0  0  0  0  0  0  0  0  0  0  0  0
    2.9607    1.6894    2.4467 H   0  0  0  0  0  0  0  0  0  0  0  0
    2.2012    3.1346    3.1397 H   0  0  0  0  0  0  0  0  0  0  0  0
    1.6522    1.5203    3.6395 H   0  0  0  0  0  0  0  0  0  0  0  0
  1  2  1  0  0  0  0
  2  3  1  0  0  0  0
  2  4  1  0  0  0  0
  2  5  1  0  0  0  0
  5  6  2  0  0  0  0
  5  7  1  0  0  0  0
  7  8  1  0  0  0  0
  7  9  1  0  0  0  0
  9 10  1  0  0  0  0
  9 11  1  0  0  0  0
  9 23  1  0  0  0  0
 11 12  1  0  0  0  0
 11 13  1  0  0  0  0
 11 14  1  0  0  0  0
 14 15  1  0  0  0  0
 14 21  2  0  0  0  0
 15 16  1  0  0  0  0
 15 17  2  0  0  0  0
 17 18  1  0  0  0  0
 17 19  1  0  0  0  0
 19 20  1  0  0  0  0
 19 21  1  0  0  0  0
 21 22  1  0  0  0  0
 23 24  2  0  0  0  0
 23 25  1  0  0  0  0
 25 26  1  0  0  0  0
 25 27  1  0  0  0  0
 27 28  1  0  0  0  0
 27 29  1  0  0  0  0
 27 30  1  0  0  0  0
M  CHG  1  15   1
M  END
$$$$

  -OEChem-01062216083D

 30 30  0     1  0  0  0  0  0999 V2000
   -3.4669   -2.3067    1.1012 H   0  0  0  0  0  0  0  0  0  0  0  0
   -3.3444   -1.4639    0.4140 C   0  0  0  0  0  0  0  0  0  0  0  0
   -4.1701   -0.7654    0.5674 H   0  0  0  0  0  0  0  0  0  0  0  0
   -3.3760   -1.8432   -0.6097 H   0  0  0  0  0  0  0  0  0  0  0  0
   -2.0205   -0.7711    0.6750 C   0  0  0  0  0  0  0  0  0  0  0  0
   -1.3438   -1.1342    1.6148 O   0  0  0  0  0  0  0  0  0  0  0  0
   -1.6425    0.2924   -0.1313 N   0  0  0  0  0  0  0  0  0  0  0  0
   -2.2681    0.4607   -0.9117 H   0  0  0  0  0  0  0  0  0  0  0  0
   -0.3030    0.9283   -0.1882 C   0  0  1  0  0  0  0  0  0  0  0  0
    0.2862    0.3363   -0.8972 H   0  0  0  0  0  0  0  0  0  0  0  0
   -0.4314    2.3544   -0.7580 C   0  0  0  0  0  0  0  0  0  0  0  0
   -1.1203    2.9325   -0.1325 H   0  0  0  0  0  0  0  0  0  0  0  0
    0.5425    2.8569   -0.7242 H   0  0  0  0  0  0  0  0  0  0  0  0
   -0.9199    2.3412   -2.1869 C   0  0  0  0  0  0  0  0  0  0  0  0
   -0.1554    1.9904   -3.3026 N   0  3  0  0  0  0  0  0  0  0  0  0
    0.8160    1.6696   -3.2376 H   0  0  0  0  0  0  0  0  0  0  0  0
   -0.8519    2.1533   -4.4015 C   0  0  0  0  0  0  0  0  0  0  0  0
   -0.5084    1.9620   -5.4210 H   0  0  0  0  0  0  0  0  0  0  0  0
   -2.1075    2.6276   -4.0268 N   0  0  0  0  0  0  0  0  0  0  0  0
   -2.8663    2.8767   -4.6699 H   0  0  0  0  0  0  0  0  0  0  0  0
   -2.1465    2.7581   -2.6424 C   0  0  0  0  0  0  0  0  0  0  0  0
   -2.9715    3.1381   -2.0380 H   0  0  0  0  0  0  0  0  0  0  0  0
    0.5668    0.9250    1.0990 C   0  0  0  0  0  0  0  0  0  0  0  0
    1.4421    0.0747    1.1667 O   0  0  0  0  0  0  0  0  0  0  0  0
    0.7304    2.0664    1.8701 N   0  0  0  0  0  0  0  0  0  0  0  0
   -0.0599    2.7021    1.9064 H   0  0  0  0  0  0  0  0  0  0  0  0
    1.6820    2.1171    2.9791 C   0  0  0  0  0  0  0  0  0  0  0  0
    2.7041    1.9558    2.6189 H   0  0  0  0  0  0  0  0  0  0  0  0
    1.6437    3.0938    3.4716 H   0  0  0  0  0  0  0  0  0  0  0  0
    1.4481    1.3454    3.7209 H   0  0  0  0  0  0  0  0  0  0  0  0
  1  2  1  0  0  0  0
  2  3  1  0  0  0  0
  2  4  1  0  0  0  0
  2  5  1  0  0  0  0
  5  6  2  0  0  0  0
  5  7  1  0  0  0  0
  7  8  1  0  0  0  0
  7  9  1  0  0  0  0
  9 10  1  0  0  0  0
  9 11  1  0  0  0  0
  9 23  1  0  0  0  0
 11 12  1  0  0  0  0
 11 13  1  0  0  0  0
 11 14  1  0  0  0  0
 14 15  1  0  0  0  0
 14 21  2  0  0  0  0
 15 16  1  0  0  0  0
 15 17  2  0  0  0  0
 17 18  1  0  0  0  0
 17 19  1  0  0  0  0
 19 20  1  0  0  0  0
 19 21  1  0  0  0  0
 21 22  1  0  0  0  0
 23 24  2  0  0  0  0
 23 25  1  0  0  0  0
 25 26  1  0  0  0  0
 25 27  1  0  0  0  0
 27 28  1  0  0  0  0
 27 29  1  0  0  0  0
 27 30  1  0  0  0  0
M  CHG  1  15   1
M  END
$$$$

  -OEChem-01062216083D

 30 30  0     1  0  0  0  0  0999 V2000
   -3.4728   -2.3126    1.1406 H   0  0  0  0  0  0  0  0  0  0  0  0
   -3.3570   -1.4764    0.4443 C   0  0  0  0  0  0  0  0  0  0  0  0
   -4.1660   -0.7631    0.6181 H   0  0  0  0  0  0  0  0  0  0  0  0
   -3.4267   -1.8611   -0.5757 H   0  0  0  0  0  0  0  0  0  0  0  0
   -2.0138   -0.8052    0.6590 C   0  0  0  0  0  0  0  0  0  0  0  0
   -1.2921   -1.2010    1.5518 O   0  0  0  0  0  0  0  0  0  0  0  0
   -1.6494    0.2618   -0.1484 N   0  0  0  0  0  0  0  0  0  0  0  0
   -2.2975    0.4591   -0.9035 H   0  0  0  0  0  0  0  0  0  0  0  0
   -0.3141    0.9047   -0.2041 C   0  0  1  0  0  0  0  0  0  0  0  0
    0.2752    0.3158   -0.9159 H   0  0  0  0  0  0  0  0  0  0  0  0
   -0.4278    2.3371   -0.7580 C   0  0  0  0  0  0  0  0  0  0  0  0
   -1.1125    2.9159   -0.1287 H   0  0  0  0  0  0  0  0  0  0  0  0
    0.5511    2.8295   -0.7110 H   0  0  0  0  0  0  0  0  0  0  0  0
   -0.9128    2.3431   -2.1875 C   0  0  0  0  0  0  0  0  0  0  0  0
   -0.1454    1.9961   -3.3019 N   0  3  0  0  0  0  0  0  0  0  0  0
    0.8223    1.6647   -3.2335 H   0  0  0  0  0  0  0  0  0  0  0  0
   -0.8335    2.1779   -4.4029 C   0  0  0  0  0  0  0  0  0  0  0  0
   -0.4856    1.9934   -5.4220 H   0  0  0  0  0  0  0  0  0  0  0  0
   -2.0862    2.6623   -4.0308 N   0  0  0  0  0  0  0  0  0  0  0  0
   -2.8382    2.9273   -4.6757 H   0  0  0  0  0  0  0  0  0  0  0  0
   -2.1315    2.7795   -2.6455 C   0  0  0  0  0  0  0  0  0  0  0  0
   -2.9544    3.1653   -2.0422 H   0  0  0  0  0  0  0  0  0  0  0  0
    0.5519    0.9042    1.0820 C   0  0  0  0  0  0  0  0  0  0  0  0
    1.5802    0.2438    1.0561 O   0  0  0  0  0  0  0  0  0  0  0  0
    0.4623    1.9339    2.0049 N   0  0  0  0  0  0  0  0  0  0  0  0
   -0.4522    2.3641    2.1025 H   0  0  0  0  0  0  0  0  0  0  0  0
    1.3700    2.0228    3.1470 C   0  0  0  0  0  0  0  0  0  0  0  0
    2.4071    2.1248    2.8093 H   0  0  0  0  0  0  0  0  0  0  0  0
    1.1239    2.8933    3.7630 H   0  0  0  0  0  0  0  0  0  0  0  0
    1.2928    1.1243    3.7696 H   0  0  0  0  0  0  0  0  0  0  0  0
  1  2  1  0  0  0  0
  2  3  1  0  0  0  0
  2  4  1  0  0  0  0
  2  5  1  0  0  0  0
  5  6  2  0  0  0  0
  5  7  1  0  0  0  0
  7  8  1  0  0  0  0
  7  9  1  0  0  0  0
  9 10  1  0  0  0  0
  9 11  1  0  0  0  0
  9 23  1  0  0  0  0
 11 12  1  0  0  0  0
 11 13  1  0  0  0  0
 11 14  1  0  0  0  0
 14 15  1  0  0  0  0
 14 21  2  0  0  0  0
 15 16  1  0  0  0  0
 15 17  2  0  0  0  0
 17 18  1  0  0  0  0
 17 19  1  0  0  0  0
 19 20  1  0  0  0  0
 19 21  1  0  0  0  0
 21 22  1  0  0  0  0
 23 24  2  0  0  0  0
 23 25  1  0  0  0  0
 25 26  1  0  0  0  0
 25 27  1  0  0  0  0
 27 28  1  0  0  0  0
 27 29  1  0  0  0  0
 27 30  1  0  0  0  0
M  CHG  1  15   1
M  END
$$$$

  -OEChem-01062216083D

 30 30  0     1  0  0  0  0  0999 V2000
   -3.4832   -2.3236    1.1607 H   0  0  0  0  0  0  0  0  0  0  0  0
   -3.3736   -1.4875    0.4632 C   0  0  0  0  0  0  0  0  0  0  0  0
   -4.1679   -0.7635    0.6594 H   0  0  0  0  0  0  0  0  0  0  0  0
   -3.4759   -1.8691   -0.5554 H   0  0  0  0  0  0  0  0  0  0  0  0
   -2.0158   -0.8357    0.6442 C   0  0  0  0  0  0  0  0  0  0  0  0
   -1.2702   -1.2494    1.5097 O   0  0  0  0  0  0  0  0  0  0  0  0
   -1.6549    0.2304   -0.1658 N   0  0  0  0  0  0  0  0  0  0  0  0
   -2.3149    0.4475   -0.9053 H   0  0  0  0  0  0  0  0  0  0  0  0
   -0.3215    0.8770   -0.2174 C   0  0  1  0  0  0  0  0  0  0  0  0
    0.2702    0.2904   -0.9291 H   0  0  0  0  0  0  0  0  0  0  0  0
   -0.4257    2.3151   -0.7554 C   0  0  0  0  0  0  0  0  0  0  0  0
   -1.1067    2.8900   -0.1186 H   0  0  0  0  0  0  0  0  0  0  0  0
    0.5557    2.8014   -0.6993 H   0  0  0  0  0  0  0  0  0  0  0  0
   -0.9077    2.3422   -2.1850 C   0  0  0  0  0  0  0  0  0  0  0  0
   -0.1367    2.0036   -3.2995 N   0  3  0  0  0  0  0  0  0  0  0  0
    0.8302    1.6697   -3.2298 H   0  0  0  0  0  0  0  0  0  0  0  0
   -0.8174    2.2048   -4.4018 C   0  0  0  0  0  0  0  0  0  0  0  0
   -0.4642    2.0341   -5.4214 H   0  0  0  0  0  0  0  0  0  0  0  0
   -2.0695    2.6910   -4.0300 N   0  0  0  0  0  0  0  0  0  0  0  0
   -2.8161    2.9692   -4.6755 H   0  0  0  0  0  0  0  0  0  0  0  0
   -2.1212    2.7921   -2.6434 C   0  0  0  0  0  0  0  0  0  0  0  0
   -2.9438    3.1776   -2.0396 H   0  0  0  0  0  0  0  0  0  0  0  0
    0.5404    0.8850    1.0675 C   0  0  0  0  0  0  0  0  0  0  0  0
    1.6839    0.4639    0.9684 O   0  0  0  0  0  0  0  0  0  0  0  0
    0.2338    1.7334    2.1177 N   0  0  0  0  0  0  0  0  0  0  0  0
   -0.7546    1.9263    2.2506 H   0  0  0  0  0  0  0  0  0  0  0  0
    1.1016    1.8469    3.2877 C   0  0  0  0  0  0  0  0  0  0  0  0
    2.0910    2.2192    3.0004 H   0  0  0  0  0  0  0  0  0  0  0  0
    0.6725    2.5428    4.0151 H   0  0  0  0  0  0  0  0  0  0  0  0
    1.2225    0.8710    3.7712 H   0  0  0  0  0  0  0  0  0  0  0  0
  1  2  1  0  0  0  0
  2  3  1  0  0  0  0
  2  4  1  0  0  0  0
  2  5  1  0  0  0  0
  5  6  2  0  0  0  0
  5  7  1  0  0  0  0
  7  8  1  0  0  0  0
  7  9  1  0  0  0  0
  9 10  1  0  0  0  0
  9 11  1  0  0  0  0
  9 23  1  0  0  0  0
 11 12  1  0  0  0  0
 11 13  1  0  0  0  0
 11 14  1  0  0  0  0
 14 15  1  0  0  0  0
 14 21  2  0  0  0  0
 15 16  1  0  0  0  0
 15 17  2  0  0  0  0
 17 18  1  0  0  0  0
 17 19  1  0  0  0  0
 19 20  1  0  0  0  0
 19 21  1  0  0  0  0
 21 22  1  0  0  0  0
 23 24  2  0  0  0  0
 23 25  1  0  0  0  0
 25 26  1  0  0  0  0
 25 27  1  0  0  0  0
 27 28  1  0  0  0  0
 27 29  1  0  0  0  0
 27 30  1  0  0  0  0
M  CHG  1  15   1
M  END
$$$$

  -OEChem-01062216083D

 30 30  0     1  0  0  0  0  0999 V2000
   -3.5162   -2.3281    1.1506 H   0  0  0  0  0  0  0  0  0  0  0  0
   -3.3974   -1.4959    0.4497 C   0  0  0  0  0  0  0  0  0  0  0  0
   -4.1860   -0.7643    0.6400 H   0  0  0  0  0  0  0  0  0  0  0  0
   -3.4996   -1.8805   -0.5677 H   0  0  0  0  0  0  0  0  0  0  0  0
   -2.0350   -0.8543    0.6326 C   0  0  0  0  0  0  0  0  0  0  0  0
   -1.2943   -1.2690    1.5020 O   0  0  0  0  0  0  0  0  0  0  0  0
   -1.6593    0.2020   -0.1825 N   0  0  0  0  0  0  0  0  0  0  0  0
   -2.3131    0.4217   -0.9273 H   0  0  0  0  0  0  0  0  0  0  0  0
   -0.3220    0.8421   -0.2267 C   0  0  1  0  0  0  0  0  0  0  0  0
    0.2744    0.2561   -0.9348 H   0  0  0  0  0  0  0  0  0  0  0  0
   -0.4222    2.2858   -0.7496 C   0  0  0  0  0  0  0  0  0  0  0  0
   -1.0992    2.8554   -0.1035 H   0  0  0  0  0  0  0  0  0  0  0  0
    0.5608    2.7688   -0.6893 H   0  0  0  0  0  0  0  0  0  0  0  0
   -0.9045    2.3341   -2.1780 C   0  0  0  0  0  0  0  0  0  0  0  0
   -0.1356    2.0077   -3.2973 N   0  3  0  0  0  0  0  0  0  0  0  0
    0.8314    1.6731   -3.2325 H   0  0  0  0  0  0  0  0  0  0  0  0
   -0.8149    2.2308   -4.3962 C   0  0  0  0  0  0  0  0  0  0  0  0
   -0.4623    2.0756   -5.4185 H   0  0  0  0  0  0  0  0  0  0  0  0
   -2.0641    2.7186   -4.0164 N   0  0  0  0  0  0  0  0  0  0  0  0
   -2.8076    3.0152   -4.6572 H   0  0  0  0  0  0  0  0  0  0  0  0
   -2.1151    2.7984   -2.6286 C   0  0  0  0  0  0  0  0  0  0  0  0
   -2.9340    3.1810   -2.0180 H   0  0  0  0  0  0  0  0  0  0  0  0
    0.5351    0.8649    1.0593 C   0  0  0  0  0  0  0  0  0  0  0  0
    1.7374    0.6881    0.9217 O   0  0  0  0  0  0  0  0  0  0  0  0
    0.0708    1.4842    2.2061 N   0  0  0  0  0  0  0  0  0  0  0  0
   -0.9345    1.4312    2.3460 H   0  0  0  0  0  0  0  0  0  0  0  0
    0.9056    1.6070    3.3988 C   0  0  0  0  0  0  0  0  0  0  0  0
    1.8093    2.1865    3.1808 H   0  0  0  0  0  0  0  0  0  0  0  0
    0.3575    2.1168    4.1971 H   0  0  0  0  0  0  0  0  0  0  0  0
    1.2041    0.6168    3.7604 H   0  0  0  0  0  0  0  0  0  0  0  0
  1  2  1  0  0  0  0
  2  3  1  0  0  0  0
  2  4  1  0  0  0  0
  2  5  1  0  0  0  0
  5  6  2  0  0  0  0
  5  7  1  0  0  0  0
  7  8  1  0  0  0  0
  7  9  1  0  0  0  0
  9 10  1  0  0  0  0
  9 11  1  0  0  0  0
  9 23  1  0  0  0  0
 11 12  1  0  0  0  0
 11 13  1  0  0  0  0
 11 14  1  0  0  0  0
 14 15  1  0  0  0  0
 14 21  2  0  0  0  0
 15 16  1  0  0  0  0
 15 17  2  0  0  0  0
 17 18  1  0  0  0  0
 17 19  1  0  0  0  0
 19 20  1  0  0  0  0
 19 21  1  0  0  0  0
 21 22  1  0  0  0  0
 23 24  2  0  0  0  0
 23 25  1  0  0  0  0
 25 26  1  0  0  0  0
 25 27  1  0  0  0  0
 27 28  1  0  0  0  0
 27 29  1  0  0  0  0
 27 30  1  0  0  0  0
M  CHG  1  15   1
M  END
$$$$

  -OEChem-01062216083D

 30 30  0     1  0  0  0  0  0999 V2000
   -3.5747   -2.3331    1.0938 H   0  0  0  0  0  0  0  0  0  0  0  0
   -3.4429   -1.4857    0.4141 C   0  0  0  0  0  0  0  0  0  0  0  0
   -4.2156   -0.7434    0.6273 H   0  0  0  0  0  0  0  0  0  0  0  0
   -3.5580   -1.8420   -0.6122 H   0  0  0  0  0  0  0  0  0  0  0  0
   -2.0671   -0.8762    0.6049 C   0  0  0  0  0  0  0  0  0  0  0  0
   -1.3373   -1.3125    1.4730 O   0  0  0  0  0  0  0  0  0  0  0  0
   -1.6638    0.1748   -0.2027 N   0  0  0  0  0  0  0  0  0  0  0  0
   -2.3151    0.4209   -0.9412 H   0  0  0  0  0  0  0  0  0  0  0  0
   -0.3219    0.8087   -0.2291 C   0  0  1  0  0  0  0  0  0  0  0  0
    0.2817    0.2289   -0.9357 H   0  0  0  0  0  0  0  0  0  0  0  0
   -0.4313    2.2576   -0.7391 C   0  0  0  0  0  0  0  0  0  0  0  0
   -1.1135    2.8150   -0.0874 H   0  0  0  0  0  0  0  0  0  0  0  0
    0.5468    2.7499   -0.6724 H   0  0  0  0  0  0  0  0  0  0  0  0
   -0.9085    2.3205   -2.1683 C   0  0  0  0  0  0  0  0  0  0  0  0
   -0.1318    2.0128   -3.2870 N   0  3  0  0  0  0  0  0  0  0  0  0
    0.8378    1.6861   -3.2204 H   0  0  0  0  0  0  0  0  0  0  0  0
   -0.8051    2.2497   -4.3866 C   0  0  0  0  0  0  0  0  0  0  0  0
   -0.4442    2.1140   -5.4086 H   0  0  0  0  0  0  0  0  0  0  0  0
   -2.0599    2.7243   -4.0076 N   0  0  0  0  0  0  0  0  0  0  0  0
   -2.8009    3.0271   -4.6483 H   0  0  0  0  0  0  0  0  0  0  0  0
   -2.1197    2.7834   -2.6190 C   0  0  0  0  0  0  0  0  0  0  0  0
   -2.9440    3.1524   -2.0070 H   0  0  0  0  0  0  0  0  0  0  0  0
    0.5349    0.8442    1.0583 C   0  0  0  0  0  0  0  0  0  0  0  0
    1.7471    0.9065    0.9052 O   0  0  0  0  0  0  0  0  0  0  0  0
   -0.0149    1.1907    2.2787 N   0  0  0  0  0  0  0  0  0  0  0  0
   -0.9735    0.8749    2.4090 H   0  0  0  0  0  0  0  0  0  0  0  0
    0.8074    1.3251    3.4783 C   0  0  0  0  0  0  0  0  0  0  0  0
    1.5568    2.1130    3.3465 H   0  0  0  0  0  0  0  0  0  0  0  0
    0.1838    1.5864    4.3390 H   0  0  0  0  0  0  0  0  0  0  0  0
    1.3237    0.3839    3.6973 H   0  0  0  0  0  0  0  0  0  0  0  0
  1  2  1  0  0  0  0
  2  3  1  0  0  0  0
  2  4  1  0  0  0  0
  2  5  1  0  0  0  0
  5  6  2  0  0  0  0
  5  7  1  0  0  0  0
  7  8  1  0  0  0  0
  7  9  1  0  0  0  0
  9 10  1  0  0  0  0
  9 11  1  0  0  0  0
  9 23  1  0  0  0  0
 11 12  1  0  0  0  0
 11 13  1  0  0  0  0
 11 14  1  0  0  0  0
 14 15  1  0  0  0  0
 14 21  2  0  0  0  0
 15 16  1  0  0  0  0
 15 17  2  0  0  0  0
 17 18  1  0  0  0  0
 17 19  1  0  0  0  0
 19 20  1  0  0  0  0
 19 21  1  0  0  0  0
 21 22  1  0  0  0  0
 23 24  2  0  0  0  0
 23 25  1  0  0  0  0
 25 26  1  0  0  0  0
 25 27  1  0  0  0  0
 27 28  1  0  0  0  0
 27 29  1  0  0  0  0
 27 30  1  0  0  0  0
M  CHG  1  15   1
M  END
$$$$

  -OEChem-01062216083D

 30 30  0     1  0  0  0  0  0999 V2000
   -3.6516   -2.3022    1.0446 H   0  0  0  0  0  0  0  0  0  0  0  0
   -3.4922   -1.4486    0.3788 C   0  0  0  0  0  0  0  0  0  0  0  0
   -4.2255   -0.6757    0.6210 H   0  0  0  0  0  0  0  0  0  0  0  0
   -3.6429   -1.7783   -0.6519 H   0  0  0  0  0  0  0  0  0  0  0  0
   -2.0861   -0.9076    0.5540 C   0  0  0  0  0  0  0  0  0  0  0  0
   -1.3477   -1.4196    1.3723 O   0  0  0  0  0  0  0  0  0  0  0  0
   -1.6579    0.1517   -0.2285 N   0  0  0  0  0  0  0  0  0  0  0  0
   -2.3287    0.4693   -0.9205 H   0  0  0  0  0  0  0  0  0  0  0  0
   -0.3192    0.7953   -0.2261 C   0  0  1  0  0  0  0  0  0  0  0  0
    0.3005    0.2307   -0.9310 H   0  0  0  0  0  0  0  0  0  0  0  0
   -0.4574    2.2468   -0.7294 C   0  0  0  0  0  0  0  0  0  0  0  0
   -1.1583    2.7832   -0.0804 H   0  0  0  0  0  0  0  0  0  0  0  0
    0.5058    2.7658   -0.6530 H   0  0  0  0  0  0  0  0  0  0  0  0
   -0.9203    2.3082   -2.1640 C   0  0  0  0  0  0  0  0  0  0  0  0
   -0.1251    2.0263   -3.2767 N   0  3  0  0  0  0  0  0  0  0  0  0
    0.8509    1.7214   -3.2018 H   0  0  0  0  0  0  0  0  0  0  0  0
   -0.7919    2.2552   -4.3820 C   0  0  0  0  0  0  0  0  0  0  0  0
   -0.4180    2.1326   -5.4012 H   0  0  0  0  0  0  0  0  0  0  0  0
   -2.0598    2.7016   -4.0135 N   0  0  0  0  0  0  0  0  0  0  0  0
   -2.7994    2.9950   -4.6603 H   0  0  0  0  0  0  0  0  0  0  0  0
   -2.1350    2.7511   -2.6254 C   0  0  0  0  0  0  0  0  0  0  0  0
   -2.9720    3.1031   -2.0211 H   0  0  0  0  0  0  0  0  0  0  0  0
    0.5353    0.8404    1.0666 C   0  0  0  0  0  0  0  0  0  0  0  0
    1.7195    1.1165    0.9273 O   0  0  0  0  0  0  0  0  0  0  0  0
   -0.0247    0.8785    2.3296 N   0  0  0  0  0  0  0  0  0  0  0  0
   -0.8940    0.3515    2.4093 H   0  0  0  0  0  0  0  0  0  0  0  0
    0.7973    0.9794    3.5324 C   0  0  0  0  0  0  0  0  0  0  0  0
    1.3914    1.8995    3.5187 H   0  0  0  0  0  0  0  0  0  0  0  0
    0.1640    0.9953    4.4249 H   0  0  0  0  0  0  0  0  0  0  0  0
    1.4778    0.1240    3.6051 H   0  0  0  0  0  0  0  0  0  0  0  0
  1  2  1  0  0  0  0
  2  3  1  0  0  0  0
  2  4  1  0  0  0  0
  2  5  1  0  0  0  0
  5  6  2  0  0  0  0
  5  7  1  0  0  0  0
  7  8  1  0  0  0  0
  7  9  1  0  0  0  0
  9 10  1  0  0  0  0
  9 11  1  0  0  0  0
  9 23  1  0  0  0  0
 11 12  1  0  0  0  0
 11 13  1  0  0  0  0
 11 14  1  0  0  0  0
 14 15  1  0  0  0  0
 14 21  2  0  0  0  0
 15 16  1  0  0  0  0
 15 17  2  0  0  0  0
 17 18  1  0  0  0  0
 17 19  1  0  0  0  0
 19 20  1  0  0  0  0
 19 21  1  0  0  0  0
 21 22  1  0  0  0  0
 23 24  2  0  0  0  0
 23 25  1  0  0  0  0
 25 26  1  0  0  0  0
 25 27  1  0  0  0  0
 27 28  1  0  0  0  0
 27 29  1  0  0  0  0
 27 30  1  0  0  0  0
M  CHG  1  15   1
M  END
$$$$

  -OEChem-01062216083D

 30 30  0     1  0  0  0  0  0999 V2000
   -3.7124   -2.2757    1.0071 H   0  0  0  0  0  0  0  0  0  0  0  0
   -3.5420   -1.4004    0.3729 C   0  0  0  0  0  0  0  0  0  0  0  0
   -4.2147   -0.6014    0.6936 H   0  0  0  0  0  0  0  0  0  0  0  0
   -3.7694   -1.6700   -0.6611 H   0  0  0  0  0  0  0  0  0  0  0  0
   -2.0993   -0.9468    0.4889 C   0  0  0  0  0  0  0  0  0  0  0  0
   -1.3351   -1.5646    1.2045 O   0  0  0  0  0  0  0  0  0  0  0  0
   -1.6583    0.1316   -0.2587 N   0  0  0  0  0  0  0  0  0  0  0  0
   -2.3637    0.5460   -0.8586 H   0  0  0  0  0  0  0  0  0  0  0  0
   -0.3265    0.7909   -0.2218 C   0  0  1  0  0  0  0  0  0  0  0  0
    0.3088    0.2439   -0.9264 H   0  0  0  0  0  0  0  0  0  0  0  0
   -0.4957    2.2436   -0.7212 C   0  0  0  0  0  0  0  0  0  0  0  0
   -1.2213    2.7575   -0.0812 H   0  0  0  0  0  0  0  0  0  0  0  0
    0.4485    2.7935   -0.6313 H   0  0  0  0  0  0  0  0  0  0  0  0
   -0.9356    2.2991   -2.1633 C   0  0  0  0  0  0  0  0  0  0  0  0
   -0.1098    2.0431   -3.2596 N   0  3  0  0  0  0  0  0  0  0  0  0
    0.8711    1.7610   -3.1648 H   0  0  0  0  0  0  0  0  0  0  0  0
   -0.7579    2.2602   -4.3782 C   0  0  0  0  0  0  0  0  0  0  0  0
   -0.3588    2.1519   -5.3894 H   0  0  0  0  0  0  0  0  0  0  0  0
   -2.0446    2.6720   -4.0350 N   0  0  0  0  0  0  0  0  0  0  0  0
   -2.7774    2.9480   -4.6968 H   0  0  0  0  0  0  0  0  0  0  0  0
   -2.1513    2.7137   -2.6485 C   0  0  0  0  0  0  0  0  0  0  0  0
   -3.0096    3.0429   -2.0617 H   0  0  0  0  0  0  0  0  0  0  0  0
    0.5268    0.8354    1.0769 C   0  0  0  0  0  0  0  0  0  0  0  0
    1.6547    1.3003    0.9737 O   0  0  0  0  0  0  0  0  0  0  0  0
    0.0339    0.5573    2.3372 N   0  0  0  0  0  0  0  0  0  0  0  0
   -0.7429   -0.1051    2.3458 H   0  0  0  0  0  0  0  0  0  0  0  0
    0.8739    0.6099    3.5308 C   0  0  0  0  0  0  0  0  0  0  0  0
    1.2954    1.6123    3.6625 H   0  0  0  0  0  0  0  0  0  0  0  0
    0.2838    0.3676    4.4202 H   0  0  0  0  0  0  0  0  0  0  0  0
    1.6966   -0.1092    3.4542 H   0  0  0  0  0  0  0  0  0  0  0  0
  1  2  1  0  0  0  0
  2  3  1  0  0  0  0
  2  4  1  0  0  0  0
  2  5  1  0  0  0  0
  5  6  2  0  0  0  0
  5  7  1  0  0  0  0
  7  8  1  0  0  0  0
  7  9  1  0  0  0  0
  9 10  1  0  0  0  0
  9 11  1  0  0  0  0
  9 23  1  0  0  0  0
 11 12  1  0  0  0  0
 11 13  1  0  0  0  0
 11 14  1  0  0  0  0
 14 15  1  0  0  0  0
 14 21  2  0  0  0  0
 15 16  1  0  0  0  0
 15 17  2  0  0  0  0
 17 18  1  0  0  0  0
 17 19  1  0  0  0  0
 19 20  1  0  0  0  0
 19 21  1  0  0  0  0
 21 22  1  0  0  0  0
 23 24  2  0  0  0  0
 23 25  1  0  0  0  0
 25 26  1  0  0  0  0
 25 27  1  0  0  0  0
 27 28  1  0  0  0  0
 27 29  1  0  0  0  0
 27 30  1  0  0  0  0
M  CHG  1  15   1
M  END
$$$$

  -OEChem-01062216083D

 30 30  0     1  0  0  0  0  0999 V2000
   -3.7379   -2.2504    0.9999 H   0  0  0  0  0  0  0  0  0  0  0  0
   -3.5691   -1.3485    0.4037 C   0  0  0  0  0  0  0  0  0  0  0  0
   -4.1685   -0.5369    0.8229 H   0  0  0  0  0  0  0  0  0  0  0  0
   -3.8920   -1.5434   -0.6216 H   0  0  0  0  0  0  0  0  0  0  0  0
   -2.0987   -0.9774    0.4267 C   0  0  0  0  0  0  0  0  0  0  0  0
   -1.3092   -1.6991    1.0052 O   0  0  0  0  0  0  0  0  0  0  0  0
   -1.6585    0.1233   -0.2872 N   0  0  0  0  0  0  0  0  0  0  0  0
   -2.3980    0.6246   -0.7677 H   0  0  0  0  0  0  0  0  0  0  0  0
   -0.3335    0.7958   -0.2198 C   0  0  1  0  0  0  0  0  0  0  0  0
    0.3151    0.2649   -0.9241 H   0  0  0  0  0  0  0  0  0  0  0  0
   -0.5250    2.2489   -0.7192 C   0  0  0  0  0  0  0  0  0  0  0  0
   -1.2698    2.7472   -0.0892 H   0  0  0  0  0  0  0  0  0  0  0  0
    0.4043    2.8214   -0.6193 H   0  0  0  0  0  0  0  0  0  0  0  0
   -0.9423    2.2973   -2.1690 C   0  0  0  0  0  0  0  0  0  0  0  0
   -0.0931    2.0605   -3.2518 N   0  3  0  0  0  0  0  0  0  0  0  0
    0.8917    1.7988   -3.1410 H   0  0  0  0  0  0  0  0  0  0  0  0
   -0.7280    2.2609   -4.3810 C   0  0  0  0  0  0  0  0  0  0  0  0
   -0.3108    2.1591   -5.3854 H   0  0  0  0  0  0  0  0  0  0  0  0
   -2.0288    2.6439   -4.0593 N   0  0  0  0  0  0  0  0  0  0  0  0
   -2.7577    2.8998   -4.7333 H   0  0  0  0  0  0  0  0  0  0  0  0
   -2.1587    2.6847   -2.6748 C   0  0  0  0  0  0  0  0  0  0  0  0
   -3.0344    2.9950   -2.1038 H   0  0  0  0  0  0  0  0  0  0  0  0
    0.5139    0.8235    1.0890 C   0  0  0  0  0  0  0  0  0  0  0  0
    1.5589    1.4604    1.0565 O   0  0  0  0  0  0  0  0  0  0  0  0
    0.1414    0.2483    2.2884 N   0  0  0  0  0  0  0  0  0  0  0  0
   -0.5518   -0.4979    2.2125 H   0  0  0  0  0  0  0  0  0  0  0  0
    1.0079    0.2397    3.4643 C   0  0  0  0  0  0  0  0  0  0  0  0
    1.2759    1.2612    3.7547 H   0  0  0  0  0  0  0  0  0  0  0  0
    0.4952   -0.2318    4.3086 H   0  0  0  0  0  0  0  0  0  0  0  0
    1.9272   -0.3200    3.2606 H   0  0  0  0  0  0  0  0  0  0  0  0
  1  2  1  0  0  0  0
  2  3  1  0  0  0  0
  2  4  1  0  0  0  0
  2  5  1  0  0  0  0
  5  6  2  0  0  0  0
  5  7  1  0  0  0  0
  7  8  1  0  0  0  0
  7  9  1  0  0  0  0
  9 10  1  0  0  0  0
  9 11  1  0  0  0  0
  9 23  1  0  0  0  0
 11 12  1  0  0  0  0
 11 13  1  0  0  0  0
 11 14  1  0  0  0  0
 14 15  1  0  0  0  0
 14 21  2  0  0  0  0
 15 16  1  0  0  0  0
 15 17  2  0  0  0  0
 17 18  1  0  0  0  0
 17 19  1  0  0  0  0
 19 20  1  0  0  0  0
 19 21  1  0  0  0  0
 21 22  1  0  0  0  0
 23 24  2  0  0  0  0
 23 25  1  0  0  0  0
 25 26  1  0  0  0  0
 25 27  1  0  0  0  0
 27 28  1  0  0  0  0
 27 29  1  0  0  0  0
 27 30  1  0  0  0  0
M  CHG  1  15   1
M  END
$$$$

  -OEChem-01062216083D

 30 30  0     1  0  0  0  0  0999 V2000
   -3.3444   -2.0515    1.6311 H   0  0  0  0  0  0  0  0  0  0  0  0
   -3.3221   -1.1607    0.9963 C   0  0  0  0  0  0  0  0  0  0  0  0
   -3.7166   -0.3172    1.5676 H   0  0  0  0  0  0  0  0  0  0  0  0
   -3.9565   -1.3341    0.1238 H   0  0  0  0  0  0  0  0  0  0  0  0
   -1.8993   -0.8736    0.5586 C   0  0  0  0  0  0  0  0  0  0  0  0
   -1.0407   -1.7262    0.6787 O   0  0  0  0  0  0  0  0  0  0  0  0
   -1.6158    0.2206   -0.2319 N   0  0  0  0  0  0  0  0  0  0  0  0
   -2.4585    0.7463   -0.4373 H   0  0  0  0  0  0  0  0  0  0  0  0
   -0.4009    1.0632   -0.1056 C   0  0  1  0  0  0  0  0  0  0  0  0
    0.3722    0.5553   -0.6905 H   0  0  0  0  0  0  0  0  0  0  0  0
   -0.7055    2.4190   -0.7932 C   0  0  0  0  0  0  0  0  0  0  0  0
   -1.5697    2.8850   -0.3078 H   0  0  0  0  0  0  0  0  0  0  0  0
    0.1352    3.1120   -0.6763 H   0  0  0  0  0  0  0  0  0  0  0  0
   -0.9501    2.2492   -2.2747 C   0  0  0  0  0  0  0  0  0  0  0  0
    0.0360    2.0097   -3.2341 N   0  3  0  0  0  0  0  0  0  0  0  0
    1.0266    1.8963   -2.9997 H   0  0  0  0  0  0  0  0  0  0  0  0
   -0.4931    1.9692   -4.4327 C   0  0  0  0  0  0  0  0  0  0  0  0
    0.0391    1.7964   -5.3707 H   0  0  0  0  0  0  0  0  0  0  0  0
   -1.8598    2.1966   -4.2868 N   0  0  0  0  0  0  0  0  0  0  0  0
   -2.5419    2.2389   -5.0508 H   0  0  0  0  0  0  0  0  0  0  0  0
   -2.1442    2.3864   -2.9388 C   0  0  0  0  0  0  0  0  0  0  0  0
   -3.1139    2.6163   -2.4971 H   0  0  0  0  0  0  0  0  0  0  0  0
    0.2987    1.2632    1.2831 C   0  0  0  0  0  0  0  0  0  0  0  0
    0.8019    2.3474    1.5272 O   0  0  0  0  0  0  0  0  0  0  0  0
    0.1274    0.5403    2.4401 N   0  0  0  0  0  0  0  0  0  0  0  0
    0.2528    1.1587    3.2399 H   0  0  0  0  0  0  0  0  0  0  0  0
    0.8607   -0.7140    2.5979 C   0  0  0  0  0  0  0  0  0  0  0  0
    0.2109   -1.4833    3.0279 H   0  0  0  0  0  0  0  0  0  0  0  0
    1.2474   -1.0821    1.6412 H   0  0  0  0  0  0  0  0  0  0  0  0
    1.7131   -0.5677    3.2695 H   0  0  0  0  0  0  0  0  0  0  0  0
  1  2  1  0  0  0  0
  2  3  1  0  0  0  0
  2  4  1  0  0  0  0
  2  5  1  0  0  0  0
  5  6  2  0  0  0  0
  5  7  1  0  0  0  0
  7  8  1  0  0  0  0
  7  9  1  0  0  0  0
  9 10  1  0  0  0  0
  9 11  1  0  0  0  0
  9 23  1  0  0  0  0
 11 12  1  0  0  0  0
 11 13  1  0  0  0  0
 11 14  1  0  0  0  0
 14 15  1  0  0  0  0
 14 21  2  0  0  0  0
 15 16  1  0  0  0  0
 15 17  2  0  0  0  0
 17 18  1  0  0  0  0
 17 19  1  0  0  0  0
 19 20  1  0  0  0  0
 19 21  1  0  0  0  0
 21 22  1  0  0  0  0
 23 24  2  0  0  0  0
 23 25  1  0  0  0  0
 25 26  1  0  0  0  0
 25 27  1  0  0  0  0
 27 28  1  0  0  0  0
 27 29  1  0  0  0  0
 27 30  1  0  0  0  0
M  CHG  1  15   1
M  END
$$$$

  -OEChem-01062216083D

 30 30  0     1  0  0  0  0  0999 V2000
   -3.4488   -0.3399    1.7032 H   0  0  0  0  0  0  0  0  0  0  0  0
   -3.1670   -1.1755    1.0584 C   0  0  0  0  0  0  0  0  0  0  0  0
   -3.2070   -2.0980    1.6453 H   0  0  0  0  0  0  0  0  0  0  0  0
   -3.8816   -1.2532    0.2356 H   0  0  0  0  0  0  0  0  0  0  0  0
   -1.7668   -0.9698    0.5139 C   0  0  0  0  0  0  0  0  0  0  0  0
   -0.9618   -1.8793    0.5574 O   0  0  0  0  0  0  0  0  0  0  0  0
   -1.4634    0.1582   -0.2214 N   0  0  0  0  0  0  0  0  0  0  0  0
   -2.2449    0.8001   -0.2939 H   0  0  0  0  0  0  0  0  0  0  0  0
   -0.1178    0.7698   -0.3609 C   0  0  1  0  0  0  0  0  0  0  0  0
    0.3595    0.2128   -1.1739 H   0  0  0  0  0  0  0  0  0  0  0  0
   -0.3216    2.2308   -0.8370 C   0  0  0  0  0  0  0  0  0  0  0  0
   -0.9399    2.7652   -0.1083 H   0  0  0  0  0  0  0  0  0  0  0  0
    0.6328    2.7666   -0.8924 H   0  0  0  0  0  0  0  0  0  0  0  0
   -0.9537    2.2775   -2.2077 C   0  0  0  0  0  0  0  0  0  0  0  0
   -0.2870    1.9925   -3.4011 N   0  3  0  0  0  0  0  0  0  0  0  0
    0.6904    1.6857   -3.4339 H   0  0  0  0  0  0  0  0  0  0  0  0
   -1.0843    2.1778   -4.4246 C   0  0  0  0  0  0  0  0  0  0  0  0
   -0.8331    2.0275   -5.4770 H   0  0  0  0  0  0  0  0  0  0  0  0
   -2.3083    2.6114   -3.9191 N   0  0  0  0  0  0  0  0  0  0  0  0
   -3.1299    2.8589   -4.4797 H   0  0  0  0  0  0  0  0  0  0  0  0
   -2.2226    2.6896   -2.5329 C   0  0  0  0  0  0  0  0  0  0  0  0
   -2.9957    3.0306   -1.8444 H   0  0  0  0  0  0  0  0  0  0  0  0
    0.9843    0.7101    0.7507 C   0  0  0  0  0  0  0  0  0  0  0  0
    1.9916    1.3702    0.5522 O   0  0  0  0  0  0  0  0  0  0  0  0
    1.2252   -0.2425    1.7129 N   0  0  0  0  0  0  0  0  0  0  0  0
    2.2125   -0.2525    1.9625 H   0  0  0  0  0  0  0  0  0  0  0  0
    0.3243   -0.4327    2.8458 C   0  0  0  0  0  0  0  0  0  0  0  0
   -0.5933    0.1531    2.7364 H   0  0  0  0  0  0  0  0  0  0  0  0
    0.0589   -1.4903    2.9474 H   0  0  0  0  0  0  0  0  0  0  0  0
    0.8168   -0.1134    3.7703 H   0  0  0  0  0  0  0  0  0  0  0  0
  1  2  1  0  0  0  0
  2  3  1  0  0  0  0
  2  4  1  0  0  0  0
  2  5  1  0  0  0  0
  5  6  2  0  0  0  0
  5  7  1  0  0  0  0
  7  8  1  0  0  0  0
  7  9  1  0  0  0  0
  9 10  1  0  0  0  0
  9 11  1  0  0  0  0
  9 23  1  0  0  0  0
 11 12  1  0  0  0  0
 11 13  1  0  0  0  0
 11 14  1  0  0  0  0
 14 15  1  0  0  0  0
 14 21  2  0  0  0  0
 15 16  1  0  0  0  0
 15 17  2  0  0  0  0
 17 18  1  0  0  0  0
 17 19  1  0  0  0  0
 19 20  1  0  0  0  0
 19 21  1  0  0  0  0
 21 22  1  0  0  0  0
 23 24  2  0  0  0  0
 23 25  1  0  0  0  0
 25 26  1  0  0  0  0
 25 27  1  0  0  0  0
 27 28  1  0  0  0  0
 27 29  1  0  0  0  0
 27 30  1  0  0  0  0
M  CHG  1  15   1
M  END
$$$$

  -OEChem-01062216083D

 30 30  0     1  0  0  0  0  0999 V2000
   -3.5775   -2.2002    1.2160 H   0  0  0  0  0  0  0  0  0  0  0  0
   -3.4626   -1.2836    0.6297 C   0  0  0  0  0  0  0  0  0  0  0  0
   -3.8839   -0.4519    1.1994 H   0  0  0  0  0  0  0  0  0  0  0  0
   -4.0142   -1.3954   -0.3067 H   0  0  0  0  0  0  0  0  0  0  0  0
   -1.9950   -1.0313    0.3435 C   0  0  0  0  0  0  0  0  0  0  0  0
   -1.1794   -1.9048    0.5745 O   0  0  0  0  0  0  0  0  0  0  0  0
   -1.6107    0.1072   -0.3416 N   0  0  0  0  0  0  0  0  0  0  0  0
   -2.3958    0.7164   -0.5465 H   0  0  0  0  0  0  0  0  0  0  0  0
   -0.2877    0.7832   -0.2829 C   0  0  1  0  0  0  0  0  0  0  0  0
    0.3484    0.2704   -1.0110 H   0  0  0  0  0  0  0  0  0  0  0  0
   -0.4813    2.2438   -0.7640 C   0  0  0  0  0  0  0  0  0  0  0  0
   -1.2097    2.7432   -0.1161 H   0  0  0  0  0  0  0  0  0  0  0  0
    0.4566    2.8045   -0.6768 H   0  0  0  0  0  0  0  0  0  0  0  0
   -0.9156    2.3086   -2.2094 C   0  0  0  0  0  0  0  0  0  0  0  0
   -0.0911    2.0838   -3.3141 N   0  3  0  0  0  0  0  0  0  0  0  0
    0.8949    1.8195   -3.2301 H   0  0  0  0  0  0  0  0  0  0  0  0
   -0.7538    2.2860   -4.4269 C   0  0  0  0  0  0  0  0  0  0  0  0
   -0.3618    2.1870   -5.4417 H   0  0  0  0  0  0  0  0  0  0  0  0
   -2.0474    2.6633   -4.0729 N   0  0  0  0  0  0  0  0  0  0  0  0
   -2.7958    2.9119   -4.7279 H   0  0  0  0  0  0  0  0  0  0  0  0
   -2.1446    2.6942   -2.6859 C   0  0  0  0  0  0  0  0  0  0  0  0
   -3.0101    2.9904   -2.0926 H   0  0  0  0  0  0  0  0  0  0  0  0
    0.5637    0.7229    1.0278 C   0  0  0  0  0  0  0  0  0  0  0  0
    1.1001    1.7484    1.4256 O   0  0  0  0  0  0  0  0  0  0  0  0
    0.7705   -0.4219    1.7707 N   0  0  0  0  0  0  0  0  0  0  0  0
    0.2968   -1.2722    1.4550 H   0  0  0  0  0  0  0  0  0  0  0  0
    1.5464   -0.4715    3.0067 C   0  0  0  0  0  0  0  0  0  0  0  0
    1.1122    0.1937    3.7607 H   0  0  0  0  0  0  0  0  0  0  0  0
    1.5536   -1.4898    3.4083 H   0  0  0  0  0  0  0  0  0  0  0  0
    2.5822   -0.1665    2.8236 H   0  0  0  0  0  0  0  0  0  0  0  0
  1  2  1  0  0  0  0
  2  3  1  0  0  0  0
  2  4  1  0  0  0  0
  2  5  1  0  0  0  0
  5  6  2  0  0  0  0
  5  7  1  0  0  0  0
  7  8  1  0  0  0  0
  7  9  1  0  0  0  0
  9 10  1  0  0  0  0
  9 11  1  0  0  0  0
  9 23  1  0  0  0  0
 11 12  1  0  0  0  0
 11 13  1  0  0  0  0
 11 14  1  0  0  0  0
 14 15  1  0  0  0  0
 14 21  2  0  0  0  0
 15 16  1  0  0  0  0
 15 17  2  0  0  0  0
 17 18  1  0  0  0  0
 17 19  1  0  0  0  0
 19 20  1  0  0  0  0
 19 21  1  0  0  0  0
 21 22  1  0  0  0  0
 23 24  2  0  0  0  0
 23 25  1  0  0  0  0
 25 26  1  0  0  0  0
 25 27  1  0  0  0  0
 27 28  1  0  0  0  0
 27 29  1  0  0  0  0
 27 30  1  0  0  0  0
M  CHG  1  15   1
M  END
$$$$

  -OEChem-01062216083D

 30 30  0     1  0  0  0  0  0999 V2000
   -3.4838   -2.1975    1.3027 H   0  0  0  0  0  0  0  0  0  0  0  0
   -3.3929   -1.2948    0.6912 C   0  0  0  0  0  0  0  0  0  0  0  0
   -3.8110   -0.4539    1.2495 H   0  0  0  0  0  0  0  0  0  0  0  0
   -3.9639   -1.4364   -0.2295 H   0  0  0  0  0  0  0  0  0  0  0  0
   -1.9350   -1.0329    0.3662 C   0  0  0  0  0  0  0  0  0  0  0  0
   -1.1019   -1.8878    0.6054 O   0  0  0  0  0  0  0  0  0  0  0  0
   -1.5779    0.0973   -0.3477 N   0  0  0  0  0  0  0  0  0  0  0  0
   -2.3699    0.7022   -0.5389 H   0  0  0  0  0  0  0  0  0  0  0  0
   -0.2552    0.7727   -0.3181 C   0  0  1  0  0  0  0  0  0  0  0  0
    0.3727    0.2586   -1.0527 H   0  0  0  0  0  0  0  0  0  0  0  0
   -0.4427    2.2348   -0.7915 C   0  0  0  0  0  0  0  0  0  0  0  0
   -1.1555    2.7391   -0.1297 H   0  0  0  0  0  0  0  0  0  0  0  0
    0.5050    2.7805   -0.7108 H   0  0  0  0  0  0  0  0  0  0  0  0
   -0.9035    2.3133   -2.2276 C   0  0  0  0  0  0  0  0  0  0  0  0
   -0.1053    2.0867   -3.3510 N   0  3  0  0  0  0  0  0  0  0  0  0
    0.8790    1.8100   -3.2904 H   0  0  0  0  0  0  0  0  0  0  0  0
   -0.7888    2.3068   -4.4480 C   0  0  0  0  0  0  0  0  0  0  0  0
   -0.4195    2.2123   -5.4716 H   0  0  0  0  0  0  0  0  0  0  0  0
   -2.0701    2.6968   -4.0637 N   0  0  0  0  0  0  0  0  0  0  0  0
   -2.8289    2.9618   -4.7003 H   0  0  0  0  0  0  0  0  0  0  0  0
   -2.1376    2.7172   -2.6748 C   0  0  0  0  0  0  0  0  0  0  0  0
   -2.9866    3.0187   -2.0607 H   0  0  0  0  0  0  0  0  0  0  0  0
    0.5929    0.7125    0.9915 C   0  0  0  0  0  0  0  0  0  0  0  0
    0.9330    1.7605    1.5245 O   0  0  0  0  0  0  0  0  0  0  0  0
    1.0277   -0.4691    1.5579 N   0  0  0  0  0  0  0  0  0  0  0  0
    0.5824   -1.3234    1.2117 H   0  0  0  0  0  0  0  0  0  0  0  0
    1.7631   -0.5399    2.8174 C   0  0  0  0  0  0  0  0  0  0  0  0
    1.1669   -0.1237    3.6364 H   0  0  0  0  0  0  0  0  0  0  0  0
    2.0013   -1.5810    3.0575 H   0  0  0  0  0  0  0  0  0  0  0  0
    2.7024    0.0189    2.7471 H   0  0  0  0  0  0  0  0  0  0  0  0
  1  2  1  0  0  0  0
  2  3  1  0  0  0  0
  2  4  1  0  0  0  0
  2  5  1  0  0  0  0
  5  6  2  0  0  0  0
  5  7  1  0  0  0  0
  7  8  1  0  0  0  0
  7  9  1  0  0  0  0
  9 10  1  0  0  0  0
  9 11  1  0  0  0  0
  9 23  1  0  0  0  0
 11 12  1  0  0  0  0
 11 13  1  0  0  0  0
 11 14  1  0  0  0  0
 14 15  1  0  0  0  0
 14 21  2  0  0  0  0
 15 16  1  0  0  0  0
 15 17  2  0  0  0  0
 17 18  1  0  0  0  0
 17 19  1  0  0  0  0
 19 20  1  0  0  0  0
 19 21  1  0  0  0  0
 21 22  1  0  0  0  0
 23 24  2  0  0  0  0
 23 25  1  0  0  0  0
 25 26  1  0  0  0  0
 25 27  1  0  0  0  0
 27 28  1  0  0  0  0
 27 29  1  0  0  0  0
 27 30  1  0  0  0  0
M  CHG  1  15   1
M  END
$$$$

  -OEChem-01062216083D

 30 30  0     1  0  0  0  0  0999 V2000
   -3.3855   -2.2059    1.3650 H   0  0  0  0  0  0  0  0  0  0  0  0
   -3.3218   -1.3152    0.7329 C   0  0  0  0  0  0  0  0  0  0  0  0
   -3.7602   -0.4734    1.2744 H   0  0  0  0  0  0  0  0  0  0  0  0
   -3.8925   -1.4927   -0.1815 H   0  0  0  0  0  0  0  0  0  0  0  0
   -1.8731   -1.0213    0.3944 C   0  0  0  0  0  0  0  0  0  0  0  0
   -1.0108   -1.8388    0.6629 O   0  0  0  0  0  0  0  0  0  0  0  0
   -1.5483    0.0954   -0.3558 N   0  0  0  0  0  0  0  0  0  0  0  0
   -2.3480    0.6898   -0.5469 H   0  0  0  0  0  0  0  0  0  0  0  0
   -0.2279    0.7711   -0.3483 C   0  0  1  0  0  0  0  0  0  0  0  0
    0.3997    0.2558   -1.0819 H   0  0  0  0  0  0  0  0  0  0  0  0
   -0.4090    2.2341   -0.8142 C   0  0  0  0  0  0  0  0  0  0  0  0
   -1.1118    2.7409   -0.1432 H   0  0  0  0  0  0  0  0  0  0  0  0
    0.5449    2.7691   -0.7346 H   0  0  0  0  0  0  0  0  0  0  0  0
   -0.8896    2.3214   -2.2434 C   0  0  0  0  0  0  0  0  0  0  0  0
   -0.1151    2.0928   -3.3831 N   0  3  0  0  0  0  0  0  0  0  0  0
    0.8672    1.8060   -3.3430 H   0  0  0  0  0  0  0  0  0  0  0  0
   -0.8180    2.3228   -4.4657 C   0  0  0  0  0  0  0  0  0  0  0  0
   -0.4700    2.2287   -5.4967 H   0  0  0  0  0  0  0  0  0  0  0  0
   -2.0880    2.7226   -4.0555 N   0  0  0  0  0  0  0  0  0  0  0  0
   -2.8568    2.9960   -4.6761 H   0  0  0  0  0  0  0  0  0  0  0  0
   -2.1285    2.7374   -2.6656 C   0  0  0  0  0  0  0  0  0  0  0  0
   -2.9633    3.0429   -2.0342 H   0  0  0  0  0  0  0  0  0  0  0  0
    0.5985    0.7166    0.9704 C   0  0  0  0  0  0  0  0  0  0  0  0
    0.7514    1.7433    1.6191 O   0  0  0  0  0  0  0  0  0  0  0  0
    1.2577   -0.4288    1.3711 N   0  0  0  0  0  0  0  0  0  0  0  0
    0.8724   -1.2978    0.9920 H   0  0  0  0  0  0  0  0  0  0  0  0
    1.9898   -0.5147    2.6316 C   0  0  0  0  0  0  0  0  0  0  0  0
    1.3146   -0.3584    3.4799 H   0  0  0  0  0  0  0  0  0  0  0  0
    2.4524   -1.5014    2.7340 H   0  0  0  0  0  0  0  0  0  0  0  0
    2.7823    0.2402    2.6704 H   0  0  0  0  0  0  0  0  0  0  0  0
  1  2  1  0  0  0  0
  2  3  1  0  0  0  0
  2  4  1  0  0  0  0
  2  5  1  0  0  0  0
  5  6  2  0  0  0  0
  5  7  1  0  0  0  0
  7  8  1  0  0  0  0
  7  9  1  0  0  0  0
  9 10  1  0  0  0  0
  9 11  1  0  0  0  0
  9 23  1  0  0  0  0
 11 12  1  0  0  0  0
 11 13  1  0  0  0  0
 11 14  1  0  0  0  0
 14 15  1  0  0  0  0
 14 21  2  0  0  0  0
 15 16  1  0  0  0  0
 15 17  2  0  0  0  0
 17 18  1  0  0  0  0
 17 19  1  0  0  0  0
 19 20  1  0  0  0  0
 19 21  1  0  0  0  0
 21 22  1  0  0  0  0
 23 24  2  0  0  0  0
 23 25  1  0  0  0  0
 25 26  1  0  0  0  0
 25 27  1  0  0  0  0
 27 28  1  0  0  0  0
 27 29  1  0  0  0  0
 27 30  1  0  0  0  0
M  CHG  1  15   1
M  END
$$$$

  -OEChem-01062216083D

 30 30  0     1  0  0  0  0  0999 V2000
   -3.2764   -2.2186    1.4317 H   0  0  0  0  0  0  0  0  0  0  0  0
   -3.2483   -1.3339    0.7886 C   0  0  0  0  0  0  0  0  0  0  0  0
   -3.6867   -0.4940    1.3330 H   0  0  0  0  0  0  0  0  0  0  0  0
   -3.8412   -1.5324   -0.1074 H   0  0  0  0  0  0  0  0  0  0  0  0
   -1.8156   -1.0164    0.4066 C   0  0  0  0  0  0  0  0  0  0  0  0
   -0.9223   -1.7986    0.6835 O   0  0  0  0  0  0  0  0  0  0  0  0
   -1.5303    0.0886   -0.3772 N   0  0  0  0  0  0  0  0  0  0  0  0
   -2.3389    0.6774   -0.5479 H   0  0  0  0  0  0  0  0  0  0  0  0
   -0.2142    0.7678   -0.3809 C   0  0  1  0  0  0  0  0  0  0  0  0
    0.4190    0.2540   -1.1108 H   0  0  0  0  0  0  0  0  0  0  0  0
   -0.3905    2.2328   -0.8373 C   0  0  0  0  0  0  0  0  0  0  0  0
   -1.0899    2.7382   -0.1612 H   0  0  0  0  0  0  0  0  0  0  0  0
    0.5661    2.7620   -0.7540 H   0  0  0  0  0  0  0  0  0  0  0  0
   -0.8811    2.3319   -2.2617 C   0  0  0  0  0  0  0  0  0  0  0  0
   -0.1192    2.1064   -3.4105 N   0  3  0  0  0  0  0  0  0  0  0  0
    0.8615    1.8132   -3.3828 H   0  0  0  0  0  0  0  0  0  0  0  0
   -0.8320    2.3467   -4.4845 C   0  0  0  0  0  0  0  0  0  0  0  0
   -0.4959    2.2565   -5.5198 H   0  0  0  0  0  0  0  0  0  0  0  0
   -2.0953    2.7512   -4.0587 N   0  0  0  0  0  0  0  0  0  0  0  0
   -2.8697    3.0309   -4.6695 H   0  0  0  0  0  0  0  0  0  0  0  0
   -2.1216    2.7574   -2.6686 C   0  0  0  0  0  0  0  0  0  0  0  0
   -2.9479    3.0633   -2.0260 H   0  0  0  0  0  0  0  0  0  0  0  0
    0.5810    0.7176    0.9529 C   0  0  0  0  0  0  0  0  0  0  0  0
    0.5361    1.6808    1.7069 O   0  0  0  0  0  0  0  0  0  0  0  0
    1.4622   -0.3137    1.2153 N   0  0  0  0  0  0  0  0  0  0  0  0
    1.2150   -1.1982    0.7685 H   0  0  0  0  0  0  0  0  0  0  0  0
    2.2050   -0.3936    2.4701 C   0  0  0  0  0  0  0  0  0  0  0  0
    1.5177   -0.4835    3.3184 H   0  0  0  0  0  0  0  0  0  0  0  0
    2.8649   -1.2669    2.4648 H   0  0  0  0  0  0  0  0  0  0  0  0
    2.8217    0.5005    2.6121 H   0  0  0  0  0  0  0  0  0  0  0  0
  1  2  1  0  0  0  0
  2  3  1  0  0  0  0
  2  4  1  0  0  0  0
  2  5  1  0  0  0  0
  5  6  2  0  0  0  0
  5  7  1  0  0  0  0
  7  8  1  0  0  0  0
  7  9  1  0  0  0  0
  9 10  1  0  0  0  0
  9 11  1  0  0  0  0
  9 23  1  0  0  0  0
 11 12  1  0  0  0  0
 11 13  1  0  0  0  0
 11 14  1  0  0  0  0
 14 15  1  0  0  0  0
 14 21  2  0  0  0  0
 15 16  1  0  0  0  0
 15 17  2  0  0  0  0
 17 18  1  0  0  0  0
 17 19  1  0  0  0  0
 19 20  1  0  0  0  0
 19 21  1  0  0  0  0
 21 22  1  0  0  0  0
 23 24  2  0  0  0  0
 23 25  1  0  0  0  0
 25 26  1  0  0  0  0
 25 27  1  0  0  0  0
 27 28  1  0  0  0  0
 27 29  1  0  0  0  0
 27 30  1  0  0  0  0
M  CHG  1  15   1
M  END
$$$$

  -OEChem-01062216083D

 30 30  0     1  0  0  0  0  0999 V2000
   -3.1991   -2.2106    1.4856 H   0  0  0  0  0  0  0  0  0  0  0  0
   -3.1918   -1.3309    0.8351 C   0  0  0  0  0  0  0  0  0  0  0  0
   -3.6130   -0.4870    1.3867 H   0  0  0  0  0  0  0  0  0  0  0  0
   -3.8126   -1.5363   -0.0401 H   0  0  0  0  0  0  0  0  0  0  0  0
   -1.7722   -1.0146    0.4062 C   0  0  0  0  0  0  0  0  0  0  0  0
   -0.8633   -1.7804    0.6810 O   0  0  0  0  0  0  0  0  0  0  0  0
   -1.5119    0.0782   -0.4036 N   0  0  0  0  0  0  0  0  0  0  0  0
   -2.3245    0.6668   -0.5535 H   0  0  0  0  0  0  0  0  0  0  0  0
   -0.1977    0.7584   -0.4156 C   0  0  1  0  0  0  0  0  0  0  0  0
    0.4375    0.2458   -1.1444 H   0  0  0  0  0  0  0  0  0  0  0  0
   -0.3724    2.2262   -0.8585 C   0  0  0  0  0  0  0  0  0  0  0  0
   -1.0668    2.7274   -0.1741 H   0  0  0  0  0  0  0  0  0  0  0  0
    0.5863    2.7513   -0.7745 H   0  0  0  0  0  0  0  0  0  0  0  0
   -0.8748    2.3385   -2.2781 C   0  0  0  0  0  0  0  0  0  0  0  0
   -0.1271    2.1206   -3.4376 N   0  3  0  0  0  0  0  0  0  0  0  0
    0.8538    1.8272   -3.4238 H   0  0  0  0  0  0  0  0  0  0  0  0
   -0.8527    2.3689   -4.5014 C   0  0  0  0  0  0  0  0  0  0  0  0
   -0.5292    2.2873   -5.5415 H   0  0  0  0  0  0  0  0  0  0  0  0
   -2.1113    2.7685   -4.0578 N   0  0  0  0  0  0  0  0  0  0  0  0
   -2.8940    3.0498   -4.6572 H   0  0  0  0  0  0  0  0  0  0  0  0
   -2.1205    2.7653   -2.6676 C   0  0  0  0  0  0  0  0  0  0  0  0
   -2.9402    3.0640   -2.0133 H   0  0  0  0  0  0  0  0  0  0  0  0
    0.5750    0.7155    0.9287 C   0  0  0  0  0  0  0  0  0  0  0  0
    0.3213    1.5609    1.7769 O   0  0  0  0  0  0  0  0  0  0  0  0
    1.6597   -0.1246    1.0956 N   0  0  0  0  0  0  0  0  0  0  0  0
    1.6323   -0.9754    0.5360 H   0  0  0  0  0  0  0  0  0  0  0  0
    2.3920   -0.1876    2.3577 C   0  0  0  0  0  0  0  0  0  0  0  0
    1.7336   -0.5221    3.1669 H   0  0  0  0  0  0  0  0  0  0  0  0
    3.2271   -0.8905    2.2773 H   0  0  0  0  0  0  0  0  0  0  0  0
    2.7968    0.7960    2.6196 H   0  0  0  0  0  0  0  0  0  0  0  0
  1  2  1  0  0  0  0
  2  3  1  0  0  0  0
  2  4  1  0  0  0  0
  2  5  1  0  0  0  0
  5  6  2  0  0  0  0
  5  7  1  0  0  0  0
  7  8  1  0  0  0  0
  7  9  1  0  0  0  0
  9 10  1  0  0  0  0
  9 11  1  0  0  0  0
  9 23  1  0  0  0  0
 11 12  1  0  0  0  0
 11 13  1  0  0  0  0
 11 14  1  0  0  0  0
 14 15  1  0  0  0  0
 14 21  2  0  0  0  0
 15 16  1  0  0  0  0
 15 17  2  0  0  0  0
 17 18  1  0  0  0  0
 17 19  1  0  0  0  0
 19 20  1  0  0  0  0
 19 21  1  0  0  0  0
 21 22  1  0  0  0  0
 23 24  2  0  0  0  0
 23 25  1  0  0  0  0
 25 26  1  0  0  0  0
 25 27  1  0  0  0  0
 27 28  1  0  0  0  0
 27 29  1  0  0  0  0
 27 30  1  0  0  0  0
M  CHG  1  15   1
M  END
$$$$

  -OEChem-01062216083D

 30 30  0     1  0  0  0  0  0999 V2000
   -3.1456   -2.1959    1.5290 H   0  0  0  0  0  0  0  0  0  0  0  0
   -3.1546   -1.3225    0.8701 C   0  0  0  0  0  0  0  0  0  0  0  0
   -3.5631   -0.4736    1.4236 H   0  0  0  0  0  0  0  0  0  0  0  0
   -3.7959   -1.5365    0.0122 H   0  0  0  0  0  0  0  0  0  0  0  0
   -1.7455   -1.0109    0.4049 C   0  0  0  0  0  0  0  0  0  0  0  0
   -0.8311   -1.7765    0.6620 O   0  0  0  0  0  0  0  0  0  0  0  0
   -1.5006    0.0732   -0.4219 N   0  0  0  0  0  0  0  0  0  0  0  0
   -2.3143    0.6653   -0.5495 H   0  0  0  0  0  0  0  0  0  0  0  0
   -0.1870    0.7543   -0.4395 C   0  0  1  0  0  0  0  0  0  0  0  0
    0.4475    0.2390   -1.1668 H   0  0  0  0  0  0  0  0  0  0  0  0
   -0.3604    2.2233   -0.8737 C   0  0  0  0  0  0  0  0  0  0  0  0
   -1.0509    2.7219   -0.1833 H   0  0  0  0  0  0  0  0  0  0  0  0
    0.5995    2.7463   -0.7925 H   0  0  0  0  0  0  0  0  0  0  0  0
   -0.8711    2.3413   -2.2900 C   0  0  0  0  0  0  0  0  0  0  0  0
   -0.1339    2.1265   -3.4570 N   0  3  0  0  0  0  0  0  0  0  0  0
    0.8452    1.8277   -3.4537 H   0  0  0  0  0  0  0  0  0  0  0  0
   -0.8696    2.3764   -4.5134 C   0  0  0  0  0  0  0  0  0  0  0  0
   -0.5565    2.2943   -5.5565 H   0  0  0  0  0  0  0  0  0  0  0  0
   -2.1235    2.7767   -4.0574 N   0  0  0  0  0  0  0  0  0  0  0  0
   -2.9120    3.0586   -4.6489 H   0  0  0  0  0  0  0  0  0  0  0  0
   -2.1201    2.7692   -2.6673 C   0  0  0  0  0  0  0  0  0  0  0  0
   -2.9345    3.0637   -2.0045 H   0  0  0  0  0  0  0  0  0  0  0  0
    0.5759    0.7212    0.9089 C   0  0  0  0  0  0  0  0  0  0  0  0
    0.1463    1.4033    1.8301 O   0  0  0  0  0  0  0  0  0  0  0  0
    1.8225    0.1317    1.0106 N   0  0  0  0  0  0  0  0  0  0  0  0
    2.0183   -0.6061    0.3384 H   0  0  0  0  0  0  0  0  0  0  0  0
    2.5432    0.0832    2.2804 C   0  0  0  0  0  0  0  0  0  0  0  0
    1.9695   -0.4792    3.0256 H   0  0  0  0  0  0  0  0  0  0  0  0
    3.5133   -0.4061    2.1487 H   0  0  0  0  0  0  0  0  0  0  0  0
    2.7194    1.0937    2.6649 H   0  0  0  0  0  0  0  0  0  0  0  0
  1  2  1  0  0  0  0
  2  3  1  0  0  0  0
  2  4  1  0  0  0  0
  2  5  1  0  0  0  0
  5  6  2  0  0  0  0
  5  7  1  0  0  0  0
  7  8  1  0  0  0  0
  7  9  1  0  0  0  0
  9 10  1  0  0  0  0
  9 11  1  0  0  0  0
  9 23  1  0  0  0  0
 11 12  1  0  0  0  0
 11 13  1  0  0  0  0
 11 14  1  0  0  0  0
 14 15  1  0  0  0  0
 14 21  2  0  0  0  0
 15 16  1  0  0  0  0
 15 17  2  0  0  0  0
 17 18  1  0  0  0  0
 17 19  1  0  0  0  0
 19 20  1  0  0  0  0
 19 21  1  0  0  0  0
 21 22  1  0  0  0  0
 23 24  2  0  0  0  0
 23 25  1  0  0  0  0
 25 26  1  0  0  0  0
 25 27  1  0  0  0  0
 27 28  1  0  0  0  0
 27 29  1  0  0  0  0
 27 30  1  0  0  0  0
M  CHG  1  15   1
M  END
$$$$

  -OEChem-01062216083D

 30 30  0     1  0  0  0  0  0999 V2000
   -3.1363   -2.1948    1.5248 H   0  0  0  0  0  0  0  0  0  0  0  0
   -3.1416   -1.3048    0.8886 C   0  0  0  0  0  0  0  0  0  0  0  0
   -3.5118   -0.4604    1.4751 H   0  0  0  0  0  0  0  0  0  0  0  0
   -3.8117   -1.4806    0.0443 H   0  0  0  0  0  0  0  0  0  0  0  0
   -1.7388   -1.0154    0.3920 C   0  0  0  0  0  0  0  0  0  0  0  0
   -0.8299   -1.7949    0.6262 O   0  0  0  0  0  0  0  0  0  0  0  0
   -1.4949    0.0642   -0.4410 N   0  0  0  0  0  0  0  0  0  0  0  0
   -2.3054    0.6643   -0.5486 H   0  0  0  0  0  0  0  0  0  0  0  0
   -0.1792    0.7421   -0.4517 C   0  0  1  0  0  0  0  0  0  0  0  0
    0.4579    0.2263   -1.1760 H   0  0  0  0  0  0  0  0  0  0  0  0
   -0.3557    2.2129   -0.8757 C   0  0  0  0  0  0  0  0  0  0  0  0
   -1.0469    2.7044   -0.1808 H   0  0  0  0  0  0  0  0  0  0  0  0
    0.6025    2.7381   -0.7924 H   0  0  0  0  0  0  0  0  0  0  0  0
   -0.8673    2.3379   -2.2916 C   0  0  0  0  0  0  0  0  0  0  0  0
   -0.1326    2.1325   -3.4620 N   0  3  0  0  0  0  0  0  0  0  0  0
    0.8471    1.8363   -3.4635 H   0  0  0  0  0  0  0  0  0  0  0  0
   -0.8733    2.3819   -4.5150 C   0  0  0  0  0  0  0  0  0  0  0  0
   -0.5635    2.3045   -5.5596 H   0  0  0  0  0  0  0  0  0  0  0  0
   -2.1281    2.7730   -4.0534 N   0  0  0  0  0  0  0  0  0  0  0  0
   -2.9214    3.0491   -4.6410 H   0  0  0  0  0  0  0  0  0  0  0  0
   -2.1204    2.7593   -2.6634 C   0  0  0  0  0  0  0  0  0  0  0  0
   -2.9358    3.0430   -1.9969 H   0  0  0  0  0  0  0  0  0  0  0  0
    0.5741    0.7134    0.9024 C   0  0  0  0  0  0  0  0  0  0  0  0
    0.0270    1.2279    1.8695 O   0  0  0  0  0  0  0  0  0  0  0  0
    1.9219    0.4076    0.9639 N   0  0  0  0  0  0  0  0  0  0  0  0
    2.2848   -0.1855    0.2226 H   0  0  0  0  0  0  0  0  0  0  0  0
    2.6551    0.4248    2.2278 C   0  0  0  0  0  0  0  0  0  0  0  0
    2.2234   -0.2950    2.9321 H   0  0  0  0  0  0  0  0  0  0  0  0
    3.7046    0.1614    2.0633 H   0  0  0  0  0  0  0  0  0  0  0  0
    2.6202    1.4214    2.6812 H   0  0  0  0  0  0  0  0  0  0  0  0
  1  2  1  0  0  0  0
  2  3  1  0  0  0  0
  2  4  1  0  0  0  0
  2  5  1  0  0  0  0
  5  6  2  0  0  0  0
  5  7  1  0  0  0  0
  7  8  1  0  0  0  0
  7  9  1  0  0  0  0
  9 10  1  0  0  0  0
  9 11  1  0  0  0  0
  9 23  1  0  0  0  0
 11 12  1  0  0  0  0
 11 13  1  0  0  0  0
 11 14  1  0  0  0  0
 14 15  1  0  0  0  0
 14 21  2  0  0  0  0
 15 16  1  0  0  0  0
 15 17  2  0  0  0  0
 17 18  1  0  0  0  0
 17 19  1  0  0  0  0
 19 20  1  0  0  0  0
 19 21  1  0  0  0  0
 21 22  1  0  0  0  0
 23 24  2  0  0  0  0
 23 25  1  0  0  0  0
 25 26  1  0  0  0  0
 25 27  1  0  0  0  0
 27 28  1  0  0  0  0
 27 29  1  0  0  0  0
 27 30  1  0  0  0  0
M  CHG  1  15   1
M  END
$$$$

  -OEChem-01062216083D

 30 30  0     1  0  0  0  0  0999 V2000
   -3.1247   -2.1886    1.5345 H   0  0  0  0  0  0  0  0  0  0  0  0
   -3.1306   -1.2920    0.9078 C   0  0  0  0  0  0  0  0  0  0  0  0
   -3.4698   -0.4474    1.5125 H   0  0  0  0  0  0  0  0  0  0  0  0
   -3.8246   -1.4468    0.0787 H   0  0  0  0  0  0  0  0  0  0  0  0
   -1.7357   -1.0221    0.3791 C   0  0  0  0  0  0  0  0  0  0  0  0
   -0.8335   -1.8179    0.5830 O   0  0  0  0  0  0  0  0  0  0  0  0
   -1.4921    0.0574   -0.4543 N   0  0  0  0  0  0  0  0  0  0  0  0
   -2.3004    0.6627   -0.5463 H   0  0  0  0  0  0  0  0  0  0  0  0
   -0.1749    0.7346   -0.4546 C   0  0  1  0  0  0  0  0  0  0  0  0
    0.4669    0.2205   -1.1763 H   0  0  0  0  0  0  0  0  0  0  0  0
   -0.3570    2.2062   -0.8711 C   0  0  0  0  0  0  0  0  0  0  0  0
   -1.0525    2.6898   -0.1750 H   0  0  0  0  0  0  0  0  0  0  0  0
    0.5977    2.7369   -0.7834 H   0  0  0  0  0  0  0  0  0  0  0  0
   -0.8650    2.3346   -2.2882 C   0  0  0  0  0  0  0  0  0  0  0  0
   -0.1263    2.1380   -3.4579 N   0  3  0  0  0  0  0  0  0  0  0  0
    0.8541    1.8442   -3.4591 H   0  0  0  0  0  0  0  0  0  0  0  0
   -0.8665    2.3847   -4.5118 C   0  0  0  0  0  0  0  0  0  0  0  0
   -0.5546    2.3107   -5.5560 H   0  0  0  0  0  0  0  0  0  0  0  0
   -2.1248    2.7664   -4.0520 N   0  0  0  0  0  0  0  0  0  0  0  0
   -2.9192    3.0368   -4.6411 H   0  0  0  0  0  0  0  0  0  0  0  0
   -2.1202    2.7481   -2.6620 C   0  0  0  0  0  0  0  0  0  0  0  0
   -2.9402    3.0224   -1.9974 H   0  0  0  0  0  0  0  0  0  0  0  0
    0.5747    0.7099    0.9023 C   0  0  0  0  0  0  0  0  0  0  0  0
   -0.0454    1.0494    1.9023 O   0  0  0  0  0  0  0  0  0  0  0  0
    1.9582    0.7108    0.9441 N   0  0  0  0  0  0  0  0  0  0  0  0
    2.4389    0.2924    0.1530 H   0  0  0  0  0  0  0  0  0  0  0  0
    2.6883    0.7898    2.2079 C   0  0  0  0  0  0  0  0  0  0  0  0
    2.4089   -0.0416    2.8648 H   0  0  0  0  0  0  0  0  0  0  0  0
    3.7671    0.7414    2.0293 H   0  0  0  0  0  0  0  0  0  0  0  0
    2.4689    1.7314    2.7231 H   0  0  0  0  0  0  0  0  0  0  0  0
  1  2  1  0  0  0  0
  2  3  1  0  0  0  0
  2  4  1  0  0  0  0
  2  5  1  0  0  0  0
  5  6  2  0  0  0  0
  5  7  1  0  0  0  0
  7  8  1  0  0  0  0
  7  9  1  0  0  0  0
  9 10  1  0  0  0  0
  9 11  1  0  0  0  0
  9 23  1  0  0  0  0
 11 12  1  0  0  0  0
 11 13  1  0  0  0  0
 11 14  1  0  0  0  0
 14 15  1  0  0  0  0
 14 21  2  0  0  0  0
 15 16  1  0  0  0  0
 15 17  2  0  0  0  0
 17 18  1  0  0  0  0
 17 19  1  0  0  0  0
 19 20  1  0  0  0  0
 19 21  1  0  0  0  0
 21 22  1  0  0  0  0
 23 24  2  0  0  0  0
 23 25  1  0  0  0  0
 25 26  1  0  0  0  0
 25 27  1  0  0  0  0
 27 28  1  0  0  0  0
 27 29  1  0  0  0  0
 27 30  1  0  0  0  0
M  CHG  1  15   1
M  END
$$$$

  -OEChem-01062216083D

 30 30  0     1  0  0  0  0  0999 V2000
   -3.1342   -2.1910    1.5170 H   0  0  0  0  0  0  0  0  0  0  0  0
   -3.1334   -1.2802    0.9113 C   0  0  0  0  0  0  0  0  0  0  0  0
   -3.4437   -0.4434    1.5417 H   0  0  0  0  0  0  0  0  0  0  0  0
   -3.8455   -1.4018    0.0922 H   0  0  0  0  0  0  0  0  0  0  0  0
   -1.7431   -1.0259    0.3634 C   0  0  0  0  0  0  0  0  0  0  0  0
   -0.8538   -1.8451    0.5284 O   0  0  0  0  0  0  0  0  0  0  0  0
   -1.4919    0.0597   -0.4600 N   0  0  0  0  0  0  0  0  0  0  0  0
   -2.2943    0.6751   -0.5329 H   0  0  0  0  0  0  0  0  0  0  0  0
   -0.1698    0.7294   -0.4469 C   0  0  1  0  0  0  0  0  0  0  0  0
    0.4721    0.2164   -1.1694 H   0  0  0  0  0  0  0  0  0  0  0  0
   -0.3577    2.2026   -0.8586 C   0  0  0  0  0  0  0  0  0  0  0  0
   -1.0587    2.6790   -0.1633 H   0  0  0  0  0  0  0  0  0  0  0  0
    0.5920    2.7418   -0.7673 H   0  0  0  0  0  0  0  0  0  0  0  0
   -0.8606    2.3305   -2.2782 C   0  0  0  0  0  0  0  0  0  0  0  0
   -0.1178    2.1403   -3.4465 N   0  3  0  0  0  0  0  0  0  0  0  0
    0.8629    1.8478   -3.4461 H   0  0  0  0  0  0  0  0  0  0  0  0
   -0.8578    2.3798   -4.5024 C   0  0  0  0  0  0  0  0  0  0  0  0
   -0.5447    2.3033   -5.5461 H   0  0  0  0  0  0  0  0  0  0  0  0
   -2.1189    2.7547   -4.0453 N   0  0  0  0  0  0  0  0  0  0  0  0
   -2.9148    3.0166   -4.6361 H   0  0  0  0  0  0  0  0  0  0  0  0
   -2.1174    2.7368   -2.6553 C   0  0  0  0  0  0  0  0  0  0  0  0
   -2.9413    3.0050   -1.9932 H   0  0  0  0  0  0  0  0  0  0  0  0
    0.5862    0.6978    0.9096 C   0  0  0  0  0  0  0  0  0  0  0  0
   -0.0654    0.8555    1.9346 O   0  0  0  0  0  0  0  0  0  0  0  0
    1.9369    1.0026    0.9578 N   0  0  0  0  0  0  0  0  0  0  0  0
    2.4893    0.7663    0.1391 H   0  0  0  0  0  0  0  0  0  0  0  0
    2.6485    1.1651    2.2248 C   0  0  0  0  0  0  0  0  0  0  0  0
    2.5685    0.2556    2.8307 H   0  0  0  0  0  0  0  0  0  0  0  0
    3.7088    1.3676    2.0442 H   0  0  0  0  0  0  0  0  0  0  0  0
    2.2329    2.0024    2.7961 H   0  0  0  0  0  0  0  0  0  0  0  0
  1  2  1  0  0  0  0
  2  3  1  0  0  0  0
  2  4  1  0  0  0  0
  2  5  1  0  0  0  0
  5  6  2  0  0  0  0
  5  7  1  0  0  0  0
  7  8  1  0  0  0  0
  7  9  1  0  0  0  0
  9 10  1  0  0  0  0
  9 11  1  0  0  0  0
  9 23  1  0  0  0  0
 11 12  1  0  0  0  0
 11 13  1  0  0  0  0
 11 14  1  0  0  0  0
 14 15  1  0  0  0  0
 14 21  2  0  0  0  0
 15 16  1  0  0  0  0
 15 17  2  0  0  0  0
 17 18  1  0  0  0  0
 17 19  1  0  0  0  0
 19 20  1  0  0  0  0
 19 21  1  0  0  0  0
 21 22  1  0  0  0  0
 23 24  2  0  0  0  0
 23 25  1  0  0  0  0
 25 26  1  0  0  0  0
 25 27  1  0  0  0  0
 27 28  1  0  0  0  0
 27 29  1  0  0  0  0
 27 30  1  0  0  0  0
M  CHG  1  15   1
M  END
$$$$

  -OEChem-01062216083D

 30 30  0     1  0  0  0  0  0999 V2000
   -3.2799   -2.1420    1.3903 H   0  0  0  0  0  0  0  0  0  0  0  0
   -3.2076   -1.2003    0.8383 C   0  0  0  0  0  0  0  0  0  0  0  0
   -3.4379   -0.3794    1.5212 H   0  0  0  0  0  0  0  0  0  0  0  0
   -3.9357   -1.2124    0.0243 H   0  0  0  0  0  0  0  0  0  0  0  0
   -1.8059   -1.0349    0.2851 C   0  0  0  0  0  0  0  0  0  0  0  0
   -1.0190   -1.9654    0.3195 O   0  0  0  0  0  0  0  0  0  0  0  0
   -1.4750    0.0660   -0.4874 N   0  0  0  0  0  0  0  0  0  0  0  0
   -2.2586    0.6985   -0.5946 H   0  0  0  0  0  0  0  0  0  0  0  0
   -0.1420    0.7199   -0.4337 C   0  0  1  0  0  0  0  0  0  0  0  0
    0.4115    0.4112   -1.3254 H   0  0  0  0  0  0  0  0  0  0  0  0
   -0.3874    2.2451   -0.4606 C   0  0  0  0  0  0  0  0  0  0  0  0
   -1.0206    2.5153    0.3928 H   0  0  0  0  0  0  0  0  0  0  0  0
    0.5553    2.7881   -0.3353 H   0  0  0  0  0  0  0  0  0  0  0  0
   -1.0291    2.6939   -1.7545 C   0  0  0  0  0  0  0  0  0  0  0  0
   -0.4058    2.8167   -2.9994 N   0  3  0  0  0  0  0  0  0  0  0  0
    0.5705    2.5594   -3.1663 H   0  0  0  0  0  0  0  0  0  0  0  0
   -1.2469    3.2905   -3.8870 C   0  0  0  0  0  0  0  0  0  0  0  0
   -1.0382    3.4825   -4.9421 H   0  0  0  0  0  0  0  0  0  0  0  0
   -2.4564    3.5109   -3.2324 N   0  0  0  0  0  0  0  0  0  0  0  0
   -3.3048    3.8972   -3.6597 H   0  0  0  0  0  0  0  0  0  0  0  0
   -2.3165    3.1525   -1.8966 C   0  0  0  0  0  0  0  0  0  0  0  0
   -3.0686    3.2381   -1.1113 H   0  0  0  0  0  0  0  0  0  0  0  0
    0.7934    0.3946    0.7719 C   0  0  0  0  0  0  0  0  0  0  0  0
    0.2880    0.1536    1.8599 O   0  0  0  0  0  0  0  0  0  0  0  0
    2.0469    0.9876    0.8331 N   0  0  0  0  0  0  0  0  0  0  0  0
    2.5227    1.1426   -0.0499 H   0  0  0  0  0  0  0  0  0  0  0  0
    2.8742    0.9521    2.0401 C   0  0  0  0  0  0  0  0  0  0  0  0
    3.0262   -0.0810    2.3728 H   0  0  0  0  0  0  0  0  0  0  0  0
    3.8542    1.3989    1.8452 H   0  0  0  0  0  0  0  0  0  0  0  0
    2.3978    1.5128    2.8518 H   0  0  0  0  0  0  0  0  0  0  0  0
  1  2  1  0  0  0  0
  2  3  1  0  0  0  0
  2  4  1  0  0  0  0
  2  5  1  0  0  0  0
  5  6  2  0  0  0  0
  5  7  1  0  0  0  0
  7  8  1  0  0  0  0
  7  9  1  0  0  0  0
  9 10  1  0  0  0  0
  9 11  1  0  0  0  0
  9 23  1  0  0  0  0
 11 12  1  0  0  0  0
 11 13  1  0  0  0  0
 11 14  1  0  0  0  0
 14 15  1  0  0  0  0
 14 21  2  0  0  0  0
 15 16  1  0  0  0  0
 15 17  2  0  0  0  0
 17 18  1  0  0  0  0
 17 19  1  0  0  0  0
 19 20  1  0  0  0  0
 19 21  1  0  0  0  0
 21 22  1  0  0  0  0
 23 24  2  0  0  0  0
 23 25  1  0  0  0  0
 25 26  1  0  0  0  0
 25 27  1  0  0  0  0
 27 28  1  0  0  0  0
 27 29  1  0  0  0  0
 27 30  1  0  0  0  0
M  CHG  1  15   1
M  END
$$$$

  -OEChem-01062216083D

 30 30  0     1  0  0  0  0  0999 V2000
   -3.2579   -2.1396    1.3777 H   0  0  0  0  0  0  0  0  0  0  0  0
   -3.1836   -1.1757    0.8657 C   0  0  0  0  0  0  0  0  0  0  0  0
   -3.3516   -0.3813    1.5964 H   0  0  0  0  0  0  0  0  0  0  0  0
   -3.9527   -1.1276    0.0919 H   0  0  0  0  0  0  0  0  0  0  0  0
   -1.8073   -1.0278    0.2474 C   0  0  0  0  0  0  0  0  0  0  0  0
   -1.0783   -1.9980    0.1378 O   0  0  0  0  0  0  0  0  0  0  0  0
   -1.4725    0.1039   -0.4755 N   0  0  0  0  0  0  0  0  0  0  0  0
   -2.2561    0.7427   -0.5302 H   0  0  0  0  0  0  0  0  0  0  0  0
   -0.1447    0.7694   -0.3971 C   0  0  1  0  0  0  0  0  0  0  0  0
    0.4101    0.4722   -1.2921 H   0  0  0  0  0  0  0  0  0  0  0  0
   -0.4230    2.2907   -0.4420 C   0  0  0  0  0  0  0  0  0  0  0  0
   -1.0783    2.5568    0.3955 H   0  0  0  0  0  0  0  0  0  0  0  0
    0.5005    2.8630   -0.3130 H   0  0  0  0  0  0  0  0  0  0  0  0
   -1.0465    2.7052   -1.7574 C   0  0  0  0  0  0  0  0  0  0  0  0
   -0.3980    2.8254   -2.9904 N   0  3  0  0  0  0  0  0  0  0  0  0
    0.5845    2.5774   -3.1358 H   0  0  0  0  0  0  0  0  0  0  0  0
   -1.2327    3.2559   -3.9058 C   0  0  0  0  0  0  0  0  0  0  0  0
   -1.0074    3.4274   -4.9609 H   0  0  0  0  0  0  0  0  0  0  0  0
   -2.4617    3.4552   -3.2822 N   0  0  0  0  0  0  0  0  0  0  0  0
   -3.3123    3.8032   -3.7371 H   0  0  0  0  0  0  0  0  0  0  0  0
   -2.3429    3.1240   -1.9374 C   0  0  0  0  0  0  0  0  0  0  0  0
   -3.1172    3.1978   -1.1729 H   0  0  0  0  0  0  0  0  0  0  0  0
    0.8239    0.4314    0.7881 C   0  0  0  0  0  0  0  0  0  0  0  0
    0.4254   -0.1751    1.7698 O   0  0  0  0  0  0  0  0  0  0  0  0
    1.9163    1.2531    1.0372 N   0  0  0  0  0  0  0  0  0  0  0  0
    2.3212    1.7421    0.2463 H   0  0  0  0  0  0  0  0  0  0  0  0
    2.7284    1.1515    2.2515 C   0  0  0  0  0  0  0  0  0  0  0  0
    3.1245    0.1362    2.3664 H   0  0  0  0  0  0  0  0  0  0  0  0
    3.5719    1.8475    2.2072 H   0  0  0  0  0  0  0  0  0  0  0  0
    2.1306    1.3945    3.1369 H   0  0  0  0  0  0  0  0  0  0  0  0
  1  2  1  0  0  0  0
  2  3  1  0  0  0  0
  2  4  1  0  0  0  0
  2  5  1  0  0  0  0
  5  6  2  0  0  0  0
  5  7  1  0  0  0  0
  7  8  1  0  0  0  0
  7  9  1  0  0  0  0
  9 10  1  0  0  0  0
  9 11  1  0  0  0  0
  9 23  1  0  0  0  0
 11 12  1  0  0  0  0
 11 13  1  0  0  0  0
 11 14  1  0  0  0  0
 14 15  1  0  0  0  0
 14 21  2  0  0  0  0
 15 16  1  0  0  0  0
 15 17  2  0  0  0  0
 17 18  1  0  0  0  0
 17 19  1  0  0  0  0
 19 20  1  0  0  0  0
 19 21  1  0  0  0  0
 21 22  1  0  0  0  0
 23 24  2  0  0  0  0
 23 25  1  0  0  0  0
 25 26  1  0  0  0  0
 25 27  1  0  0  0  0
 27 28  1  0  0  0  0
 27 29  1  0  0  0  0
 27 30  1  0  0  0  0
M  CHG  1  15   1
M  END
$$$$

  -OEChem-01062216083D

 30 30  0     1  0  0  0  0  0999 V2000
   -3.2739   -2.2031    1.2790 H   0  0  0  0  0  0  0  0  0  0  0  0
   -3.0430   -1.5736    0.4144 C   0  0  0  0  0  0  0  0  0  0  0  0
   -3.9761   -1.1754    0.0095 H   0  0  0  0  0  0  0  0  0  0  0  0
   -2.5531   -2.1910   -0.3422 H   0  0  0  0  0  0  0  0  0  0  0  0
   -2.1256   -0.4410    0.8325 C   0  0  0  0  0  0  0  0  0  0  0  0
   -1.9966   -0.1687    2.0126 O   0  0  0  0  0  0  0  0  0  0  0  0
   -1.6951    0.4936   -0.0932 N   0  0  0  0  0  0  0  0  0  0  0  0
   -2.1268    0.3211   -0.9951 H   0  0  0  0  0  0  0  0  0  0  0  0
   -0.2841    0.9507   -0.1961 C   0  0  1  0  0  0  0  0  0  0  0  0
    0.1774    0.4745   -1.0667 H   0  0  0  0  0  0  0  0  0  0  0  0
   -0.3677    2.4763   -0.4199 C   0  0  0  0  0  0  0  0  0  0  0  0
   -0.9133    2.9255    0.4190 H   0  0  0  0  0  0  0  0  0  0  0  0
    0.6317    2.9207   -0.4369 H   0  0  0  0  0  0  0  0  0  0  0  0
   -1.0448    2.8226   -1.7260 C   0  0  0  0  0  0  0  0  0  0  0  0
   -0.5085    2.7154   -3.0121 N   0  3  0  0  0  0  0  0  0  0  0  0
    0.4379    2.3720   -3.1995 H   0  0  0  0  0  0  0  0  0  0  0  0
   -1.3702    3.1518   -3.9000 C   0  0  0  0  0  0  0  0  0  0  0  0
   -1.2204    3.2004   -4.9810 H   0  0  0  0  0  0  0  0  0  0  0  0
   -2.5108    3.5541   -3.2076 N   0  0  0  0  0  0  0  0  0  0  0  0
   -3.3550    3.9578   -3.6271 H   0  0  0  0  0  0  0  0  0  0  0  0
   -2.3038    3.3554   -1.8478 C   0  0  0  0  0  0  0  0  0  0  0  0
   -2.9915    3.5801   -1.0304 H   0  0  0  0  0  0  0  0  0  0  0  0
    0.6749    0.6170    0.9878 C   0  0  0  0  0  0  0  0  0  0  0  0
    0.8088   -0.5664    1.2643 O   0  0  0  0  0  0  0  0  0  0  0  0
    1.7431    1.4364    1.3282 N   0  0  0  0  0  0  0  0  0  0  0  0
    1.6299    2.4325    1.1756 H   0  0  0  0  0  0  0  0  0  0  0  0
    2.7781    1.0182    2.2746 C   0  0  0  0  0  0  0  0  0  0  0  0
    3.3217    0.1471    1.8924 H   0  0  0  0  0  0  0  0  0  0  0  0
    3.4984    1.8263    2.4357 H   0  0  0  0  0  0  0  0  0  0  0  0
    2.3324    0.7549    3.2403 H   0  0  0  0  0  0  0  0  0  0  0  0
  1  2  1  0  0  0  0
  2  3  1  0  0  0  0
  2  4  1  0  0  0  0
  2  5  1  0  0  0  0
  5  6  2  0  0  0  0
  5  7  1  0  0  0  0
  7  8  1  0  0  0  0
  7  9  1  0  0  0  0
  9 10  1  0  0  0  0
  9 11  1  0  0  0  0
  9 23  1  0  0  0  0
 11 12  1  0  0  0  0
 11 13  1  0  0  0  0
 11 14  1  0  0  0  0
 14 15  1  0  0  0  0
 14 21  2  0  0  0  0
 15 16  1  0  0  0  0
 15 17  2  0  0  0  0
 17 18  1  0  0  0  0
 17 19  1  0  0  0  0
 19 20  1  0  0  0  0
 19 21  1  0  0  0  0
 21 22  1  0  0  0  0
 23 24  2  0  0  0  0
 23 25  1  0  0  0  0
 25 26  1  0  0  0  0
 25 27  1  0  0  0  0
 27 28  1  0  0  0  0
 27 29  1  0  0  0  0
 27 30  1  0  0  0  0
M  CHG  1  15   1
M  END
$$$$

  -OEChem-01062216083D

 30 30  0     1  0  0  0  0  0999 V2000
   -3.3135   -2.2082    1.2628 H   0  0  0  0  0  0  0  0  0  0  0  0
   -3.0974   -1.5541    0.4128 C   0  0  0  0  0  0  0  0  0  0  0  0
   -4.0300   -1.0965    0.0756 H   0  0  0  0  0  0  0  0  0  0  0  0
   -2.6788   -2.1606   -0.3937 H   0  0  0  0  0  0  0  0  0  0  0  0
   -2.1062   -0.4834    0.8251 C   0  0  0  0  0  0  0  0  0  0  0  0
   -1.8666   -0.3061    2.0057 O   0  0  0  0  0  0  0  0  0  0  0  0
   -1.6950    0.4745   -0.0874 N   0  0  0  0  0  0  0  0  0  0  0  0
   -2.1502    0.3375   -0.9841 H   0  0  0  0  0  0  0  0  0  0  0  0
   -0.2933    0.9559   -0.1937 C   0  0  1  0  0  0  0  0  0  0  0  0
    0.1682    0.4839   -1.0670 H   0  0  0  0  0  0  0  0  0  0  0  0
   -0.3726    2.4796   -0.4231 C   0  0  0  0  0  0  0  0  0  0  0  0
   -0.9197    2.9348    0.4109 H   0  0  0  0  0  0  0  0  0  0  0  0
    0.6312    2.9165   -0.4377 H   0  0  0  0  0  0  0  0  0  0  0  0
   -1.0462    2.8188   -1.7324 C   0  0  0  0  0  0  0  0  0  0  0  0
   -0.4998    2.6999   -3.0133 N   0  3  0  0  0  0  0  0  0  0  0  0
    0.4470    2.3509   -3.1899 H   0  0  0  0  0  0  0  0  0  0  0  0
   -1.3527    3.1311   -3.9120 C   0  0  0  0  0  0  0  0  0  0  0  0
   -1.1949    3.1673   -4.9924 H   0  0  0  0  0  0  0  0  0  0  0  0
   -2.4959    3.5466   -3.2318 N   0  0  0  0  0  0  0  0  0  0  0  0
   -3.3347    3.9501   -3.6622 H   0  0  0  0  0  0  0  0  0  0  0  0
   -2.3007    3.3592   -1.8684 C   0  0  0  0  0  0  0  0  0  0  0  0
   -2.9925    3.5989   -1.0590 H   0  0  0  0  0  0  0  0  0  0  0  0
    0.6676    0.6126    0.9819 C   0  0  0  0  0  0  0  0  0  0  0  0
    0.9733   -0.5664    1.0915 O   0  0  0  0  0  0  0  0  0  0  0  0
    1.5301    1.5396    1.5493 N   0  0  0  0  0  0  0  0  0  0  0  0
    1.2183    2.5048    1.5631 H   0  0  0  0  0  0  0  0  0  0  0  0
    2.5444    1.1513    2.5288 C   0  0  0  0  0  0  0  0  0  0  0  0
    3.2632    0.4534    2.0851 H   0  0  0  0  0  0  0  0  0  0  0  0
    3.0938    2.0305    2.8795 H   0  0  0  0  0  0  0  0  0  0  0  0
    2.0772    0.6674    3.3938 H   0  0  0  0  0  0  0  0  0  0  0  0
  1  2  1  0  0  0  0
  2  3  1  0  0  0  0
  2  4  1  0  0  0  0
  2  5  1  0  0  0  0
  5  6  2  0  0  0  0
  5  7  1  0  0  0  0
  7  8  1  0  0  0  0
  7  9  1  0  0  0  0
  9 10  1  0  0  0  0
  9 11  1  0  0  0  0
  9 23  1  0  0  0  0
 11 12  1  0  0  0  0
 11 13  1  0  0  0  0
 11 14  1  0  0  0  0
 14 15  1  0  0  0  0
 14 21  2  0  0  0  0
 15 16  1  0  0  0  0
 15 17  2  0  0  0  0
 17 18  1  0  0  0  0
 17 19  1  0  0  0  0
 19 20  1  0  0  0  0
 19 21  1  0  0  0  0
 21 22  1  0  0  0  0
 23 24  2  0  0  0  0
 23 25  1  0  0  0  0
 25 26  1  0  0  0  0
 25 27  1  0  0  0  0
 27 28  1  0  0  0  0
 27 29  1  0  0  0  0
 27 30  1  0  0  0  0
M  CHG  1  15   1
M  END
$$$$

  -OEChem-01062216083D

 30 30  0     1  0  0  0  0  0999 V2000
   -3.3409   -2.2637    1.1935 H   0  0  0  0  0  0  0  0  0  0  0  0
   -3.1908   -1.5239    0.4013 C   0  0  0  0  0  0  0  0  0  0  0  0
   -4.1281   -0.9862    0.2416 H   0  0  0  0  0  0  0  0  0  0  0  0
   -2.9138   -2.0494   -0.5155 H   0  0  0  0  0  0  0  0  0  0  0  0
   -2.0937   -0.5557    0.7999 C   0  0  0  0  0  0  0  0  0  0  0  0
   -1.7232   -0.5209    1.9584 O   0  0  0  0  0  0  0  0  0  0  0  0
   -1.6879    0.4314   -0.0855 N   0  0  0  0  0  0  0  0  0  0  0  0
   -2.1796    0.3660   -0.9710 H   0  0  0  0  0  0  0  0  0  0  0  0
   -0.2984    0.9484   -0.1834 C   0  0  1  0  0  0  0  0  0  0  0  0
    0.1663    0.4896   -1.0625 H   0  0  0  0  0  0  0  0  0  0  0  0
   -0.3851    2.4710   -0.4100 C   0  0  0  0  0  0  0  0  0  0  0  0
   -0.9458    2.9212    0.4171 H   0  0  0  0  0  0  0  0  0  0  0  0
    0.6183    2.9116   -0.4081 H   0  0  0  0  0  0  0  0  0  0  0  0
   -1.0486    2.8069   -1.7244 C   0  0  0  0  0  0  0  0  0  0  0  0
   -0.4783    2.6890   -2.9946 N   0  3  0  0  0  0  0  0  0  0  0  0
    0.4746    2.3468   -3.1520 H   0  0  0  0  0  0  0  0  0  0  0  0
   -1.3160    3.1153   -3.9094 C   0  0  0  0  0  0  0  0  0  0  0  0
   -1.1363    3.1532   -4.9863 H   0  0  0  0  0  0  0  0  0  0  0  0
   -2.4744    3.5236   -3.2506 N   0  0  0  0  0  0  0  0  0  0  0  0
   -3.3065    3.9232   -3.6972 H   0  0  0  0  0  0  0  0  0  0  0  0
   -2.3033    3.3398   -1.8831 C   0  0  0  0  0  0  0  0  0  0  0  0
   -3.0110    3.5779   -1.0874 H   0  0  0  0  0  0  0  0  0  0  0  0
    0.6785    0.6098    0.9770 C   0  0  0  0  0  0  0  0  0  0  0  0
    1.1864   -0.5016    0.9380 O   0  0  0  0  0  0  0  0  0  0  0  0
    1.2942    1.5778    1.7562 N   0  0  0  0  0  0  0  0  0  0  0  0
    0.7737    2.4368    1.9022 H   0  0  0  0  0  0  0  0  0  0  0  0
    2.2978    1.2272    2.7599 C   0  0  0  0  0  0  0  0  0  0  0  0
    3.1634    0.7479    2.2894 H   0  0  0  0  0  0  0  0  0  0  0  0
    2.6456    2.1238    3.2825 H   0  0  0  0  0  0  0  0  0  0  0  0
    1.8761    0.5368    3.4990 H   0  0  0  0  0  0  0  0  0  0  0  0
  1  2  1  0  0  0  0
  2  3  1  0  0  0  0
  2  4  1  0  0  0  0
  2  5  1  0  0  0  0
  5  6  2  0  0  0  0
  5  7  1  0  0  0  0
  7  8  1  0  0  0  0
  7  9  1  0  0  0  0
  9 10  1  0  0  0  0
  9 11  1  0  0  0  0
  9 23  1  0  0  0  0
 11 12  1  0  0  0  0
 11 13  1  0  0  0  0
 11 14  1  0  0  0  0
 14 15  1  0  0  0  0
 14 21  2  0  0  0  0
 15 16  1  0  0  0  0
 15 17  2  0  0  0  0
 17 18  1  0  0  0  0
 17 19  1  0  0  0  0
 19 20  1  0  0  0  0
 19 21  1  0  0  0  0
 21 22  1  0  0  0  0
 23 24  2  0  0  0  0
 23 25  1  0  0  0  0
 25 26  1  0  0  0  0
 25 27  1  0  0  0  0
 27 28  1  0  0  0  0
 27 29  1  0  0  0  0
 27 30  1  0  0  0  0
M  CHG  1  15   1
M  END
$$$$

  -OEChem-01062216083D

 30 30  0     1  0  0  0  0  0999 V2000
   -3.4363   -2.2653    1.1454 H   0  0  0  0  0  0  0  0  0  0  0  0
   -3.2773   -1.4953    0.3847 C   0  0  0  0  0  0  0  0  0  0  0  0
   -4.1784   -0.8820    0.3135 H   0  0  0  0  0  0  0  0  0  0  0  0
   -3.0982   -1.9871   -0.5742 H   0  0  0  0  0  0  0  0  0  0  0  0
   -2.0867   -0.6342    0.7610 C   0  0  0  0  0  0  0  0  0  0  0  0
   -1.6039   -0.7440    1.8717 O   0  0  0  0  0  0  0  0  0  0  0  0
   -1.6757    0.3752   -0.0969 N   0  0  0  0  0  0  0  0  0  0  0  0
   -2.2010    0.3827   -0.9654 H   0  0  0  0  0  0  0  0  0  0  0  0
   -0.2989    0.9256   -0.1791 C   0  0  1  0  0  0  0  0  0  0  0  0
    0.1732    0.4819   -1.0624 H   0  0  0  0  0  0  0  0  0  0  0  0
   -0.3949    2.4485   -0.3932 C   0  0  0  0  0  0  0  0  0  0  0  0
   -0.9674    2.8904    0.4299 H   0  0  0  0  0  0  0  0  0  0  0  0
    0.6069    2.8927   -0.3709 H   0  0  0  0  0  0  0  0  0  0  0  0
   -1.0474    2.7884   -1.7118 C   0  0  0  0  0  0  0  0  0  0  0  0
   -0.4596    2.6828   -2.9748 N   0  3  0  0  0  0  0  0  0  0  0  0
    0.4949    2.3403   -3.1221 H   0  0  0  0  0  0  0  0  0  0  0  0
   -1.2862    3.1132   -3.8977 C   0  0  0  0  0  0  0  0  0  0  0  0
   -1.0930    3.1573   -4.9722 H   0  0  0  0  0  0  0  0  0  0  0  0
   -2.4535    3.5159   -3.2513 N   0  0  0  0  0  0  0  0  0  0  0  0
   -3.2789    3.9200   -3.7062 H   0  0  0  0  0  0  0  0  0  0  0  0
   -2.2999    3.3234   -1.8829 C   0  0  0  0  0  0  0  0  0  0  0  0
   -3.0163    3.5614   -1.0951 H   0  0  0  0  0  0  0  0  0  0  0  0
    0.6890    0.6011    0.9739 C   0  0  0  0  0  0  0  0  0  0  0  0
    1.4143   -0.3691    0.8087 O   0  0  0  0  0  0  0  0  0  0  0  0
    1.0370    1.5303    1.9419 N   0  0  0  0  0  0  0  0  0  0  0  0
    0.3201    2.2075    2.1833 H   0  0  0  0  0  0  0  0  0  0  0  0
    2.0347    1.2264    2.9658 C   0  0  0  0  0  0  0  0  0  0  0  0
    3.0080    1.0199    2.5076 H   0  0  0  0  0  0  0  0  0  0  0  0
    2.1511    2.0736    3.6487 H   0  0  0  0  0  0  0  0  0  0  0  0
    1.7306    0.3502    3.5493 H   0  0  0  0  0  0  0  0  0  0  0  0
  1  2  1  0  0  0  0
  2  3  1  0  0  0  0
  2  4  1  0  0  0  0
  2  5  1  0  0  0  0
  5  6  2  0  0  0  0
  5  7  1  0  0  0  0
  7  8  1  0  0  0  0
  7  9  1  0  0  0  0
  9 10  1  0  0  0  0
  9 11  1  0  0  0  0
  9 23  1  0  0  0  0
 11 12  1  0  0  0  0
 11 13  1  0  0  0  0
 11 14  1  0  0  0  0
 14 15  1  0  0  0  0
 14 21  2  0  0  0  0
 15 16  1  0  0  0  0
 15 17  2  0  0  0  0
 17 18  1  0  0  0  0
 17 19  1  0  0  0  0
 19 20  1  0  0  0  0
 19 21  1  0  0  0  0
 21 22  1  0  0  0  0
 23 24  2  0  0  0  0
 23 25  1  0  0  0  0
 25 26  1  0  0  0  0
 25 27  1  0  0  0  0
 27 28  1  0  0  0  0
 27 29  1  0  0  0  0
 27 30  1  0  0  0  0
M  CHG  1  15   1
M  END
$$$$

  -OEChem-01062216083D

 30 30  0     1  0  0  0  0  0999 V2000
   -3.4986   -2.2854    1.1239 H   0  0  0  0  0  0  0  0  0  0  0  0
   -3.3428   -1.4916    0.3871 C   0  0  0  0  0  0  0  0  0  0  0  0
   -4.2141   -0.8327    0.3929 H   0  0  0  0  0  0  0  0  0  0  0  0
   -3.2422   -1.9492   -0.5999 H   0  0  0  0  0  0  0  0  0  0  0  0
   -2.0910   -0.7057    0.7282 C   0  0  0  0  0  0  0  0  0  0  0  0
   -1.5295   -0.9181    1.7855 O   0  0  0  0  0  0  0  0  0  0  0  0
   -1.6799    0.3194   -0.1110 N   0  0  0  0  0  0  0  0  0  0  0  0
   -2.2362    0.3890   -0.9573 H   0  0  0  0  0  0  0  0  0  0  0  0
   -0.3127    0.8948   -0.1792 C   0  0  1  0  0  0  0  0  0  0  0  0
    0.1629    0.4623   -1.0662 H   0  0  0  0  0  0  0  0  0  0  0  0
   -0.4093    2.4187   -0.3799 C   0  0  0  0  0  0  0  0  0  0  0  0
   -0.9898    2.8523    0.4419 H   0  0  0  0  0  0  0  0  0  0  0  0
    0.5927    2.8622   -0.3395 H   0  0  0  0  0  0  0  0  0  0  0  0
   -1.0491    2.7733   -1.7000 C   0  0  0  0  0  0  0  0  0  0  0  0
   -0.4401    2.6789   -2.9536 N   0  3  0  0  0  0  0  0  0  0  0  0
    0.5160    2.3345   -3.0872 H   0  0  0  0  0  0  0  0  0  0  0  0
   -1.2454    3.1302   -3.8849 C   0  0  0  0  0  0  0  0  0  0  0  0
   -1.0305    3.1906   -4.9543 H   0  0  0  0  0  0  0  0  0  0  0  0
   -2.4209    3.5335   -3.2539 N   0  0  0  0  0  0  0  0  0  0  0  0
   -3.2314    3.9576   -3.7172 H   0  0  0  0  0  0  0  0  0  0  0  0
   -2.2938    3.3212   -1.8853 C   0  0  0  0  0  0  0  0  0  0  0  0
   -3.0206    3.5595   -1.1072 H   0  0  0  0  0  0  0  0  0  0  0  0
    0.6849    0.5871    0.9672 C   0  0  0  0  0  0  0  0  0  0  0  0
    1.6137   -0.1610    0.6984 O   0  0  0  0  0  0  0  0  0  0  0  0
    0.7774    1.3934    2.0896 N   0  0  0  0  0  0  0  0  0  0  0  0
   -0.0959    1.8173    2.3893 H   0  0  0  0  0  0  0  0  0  0  0  0
    1.7773    1.1395    3.1245 C   0  0  0  0  0  0  0  0  0  0  0  0
    2.7890    1.1976    2.7082 H   0  0  0  0  0  0  0  0  0  0  0  0
    1.6946    1.8809    3.9254 H   0  0  0  0  0  0  0  0  0  0  0  0
    1.6344    0.1432    3.5574 H   0  0  0  0  0  0  0  0  0  0  0  0
  1  2  1  0  0  0  0
  2  3  1  0  0  0  0
  2  4  1  0  0  0  0
  2  5  1  0  0  0  0
  5  6  2  0  0  0  0
  5  7  1  0  0  0  0
  7  8  1  0  0  0  0
  7  9  1  0  0  0  0
  9 10  1  0  0  0  0
  9 11  1  0  0  0  0
  9 23  1  0  0  0  0
 11 12  1  0  0  0  0
 11 13  1  0  0  0  0
 11 14  1  0  0  0  0
 14 15  1  0  0  0  0
 14 21  2  0  0  0  0
 15 16  1  0  0  0  0
 15 17  2  0  0  0  0
 17 18  1  0  0  0  0
 17 19  1  0  0  0  0
 19 20  1  0  0  0  0
 19 21  1  0  0  0  0
 21 22  1  0  0  0  0
 23 24  2  0  0  0  0
 23 25  1  0  0  0  0
 25 26  1  0  0  0  0
 25 27  1  0  0  0  0
 27 28  1  0  0  0  0
 27 29  1  0  0  0  0
 27 30  1  0  0  0  0
M  CHG  1  15   1
M  END
$$$$

  -OEChem-01062216083D

 30 30  0     1  0  0  0  0  0999 V2000
   -3.5695   -2.2867    1.1060 H   0  0  0  0  0  0  0  0  0  0  0  0
   -3.4005   -1.4891    0.3761 C   0  0  0  0  0  0  0  0  0  0  0  0
   -4.2454   -0.7974    0.4122 H   0  0  0  0  0  0  0  0  0  0  0  0
   -3.3420   -1.9360   -0.6191 H   0  0  0  0  0  0  0  0  0  0  0  0
   -2.1114   -0.7568    0.6966 C   0  0  0  0  0  0  0  0  0  0  0  0
   -1.5149   -1.0293    1.7202 O   0  0  0  0  0  0  0  0  0  0  0  0
   -1.6877    0.2709   -0.1326 N   0  0  0  0  0  0  0  0  0  0  0  0
   -2.2602    0.3825   -0.9637 H   0  0  0  0  0  0  0  0  0  0  0  0
   -0.3227    0.8530   -0.1889 C   0  0  1  0  0  0  0  0  0  0  0  0
    0.1564    0.4268   -1.0771 H   0  0  0  0  0  0  0  0  0  0  0  0
   -0.4116    2.3792   -0.3692 C   0  0  0  0  0  0  0  0  0  0  0  0
   -0.9904    2.8044    0.4580 H   0  0  0  0  0  0  0  0  0  0  0  0
    0.5929    2.8163   -0.3182 H   0  0  0  0  0  0  0  0  0  0  0  0
   -1.0436    2.7575   -1.6856 C   0  0  0  0  0  0  0  0  0  0  0  0
   -0.4259    2.6774   -2.9356 N   0  3  0  0  0  0  0  0  0  0  0  0
    0.5288    2.3274   -3.0660 H   0  0  0  0  0  0  0  0  0  0  0  0
   -1.2194    3.1525   -3.8650 C   0  0  0  0  0  0  0  0  0  0  0  0
   -0.9951    3.2293   -4.9314 H   0  0  0  0  0  0  0  0  0  0  0  0
   -2.3958    3.5569   -3.2361 N   0  0  0  0  0  0  0  0  0  0  0  0
   -3.1980    3.9976   -3.6982 H   0  0  0  0  0  0  0  0  0  0  0  0
   -2.2808    3.3218   -1.8701 C   0  0  0  0  0  0  0  0  0  0  0  0
   -3.0087    3.5582   -1.0926 H   0  0  0  0  0  0  0  0  0  0  0  0
    0.6780    0.5595    0.9555 C   0  0  0  0  0  0  0  0  0  0  0  0
    1.7582    0.0869    0.6315 O   0  0  0  0  0  0  0  0  0  0  0  0
    0.5526    1.1747    2.1888 N   0  0  0  0  0  0  0  0  0  0  0  0
   -0.4087    1.3134    2.4914 H   0  0  0  0  0  0  0  0  0  0  0  0
    1.5492    0.9805    3.2390 C   0  0  0  0  0  0  0  0  0  0  0  0
    2.5356    1.3199    2.9047 H   0  0  0  0  0  0  0  0  0  0  0  0
    1.2766    1.5508    4.1325 H   0  0  0  0  0  0  0  0  0  0  0  0
    1.6175   -0.0788    3.5106 H   0  0  0  0  0  0  0  0  0  0  0  0
  1  2  1  0  0  0  0
  2  3  1  0  0  0  0
  2  4  1  0  0  0  0
  2  5  1  0  0  0  0
  5  6  2  0  0  0  0
  5  7  1  0  0  0  0
  7  8  1  0  0  0  0
  7  9  1  0  0  0  0
  9 10  1  0  0  0  0
  9 11  1  0  0  0  0
  9 23  1  0  0  0  0
 11 12  1  0  0  0  0
 11 13  1  0  0  0  0
 11 14  1  0  0  0  0
 14 15  1  0  0  0  0
 14 21  2  0  0  0  0
 15 16  1  0  0  0  0
 15 17  2  0  0  0  0
 17 18  1  0  0  0  0
 17 19  1  0  0  0  0
 19 20  1  0  0  0  0
 19 21  1  0  0  0  0
 21 22  1  0  0  0  0
 23 24  2  0  0  0  0
 23 25  1  0  0  0  0
 25 26  1  0  0  0  0
 25 27  1  0  0  0  0
 27 28  1  0  0  0  0
 27 29  1  0  0  0  0
 27 30  1  0  0  0  0
M  CHG  1  15   1
M  END
$$$$

  -OEChem-01062216083D

 30 30  0     1  0  0  0  0  0999 V2000
   -3.6592   -2.2807    1.0530 H   0  0  0  0  0  0  0  0  0  0  0  0
   -3.4740   -1.4662    0.3462 C   0  0  0  0  0  0  0  0  0  0  0  0
   -4.2834   -0.7379    0.4325 H   0  0  0  0  0  0  0  0  0  0  0  0
   -3.4664   -1.8793   -0.6652 H   0  0  0  0  0  0  0  0  0  0  0  0
   -2.1429   -0.8061    0.6516 C   0  0  0  0  0  0  0  0  0  0  0  0
   -1.5219   -1.1563    1.6359 O   0  0  0  0  0  0  0  0  0  0  0  0
   -1.6925    0.2247   -0.1588 N   0  0  0  0  0  0  0  0  0  0  0  0
   -2.2826    0.3989   -0.9665 H   0  0  0  0  0  0  0  0  0  0  0  0
   -0.3279    0.8118   -0.1949 C   0  0  1  0  0  0  0  0  0  0  0  0
    0.1599    0.3946   -1.0827 H   0  0  0  0  0  0  0  0  0  0  0  0
   -0.4226    2.3401   -0.3548 C   0  0  0  0  0  0  0  0  0  0  0  0
   -1.0068    2.7505    0.4763 H   0  0  0  0  0  0  0  0  0  0  0  0
    0.5794    2.7816   -0.2907 H   0  0  0  0  0  0  0  0  0  0  0  0
   -1.0446    2.7363   -1.6704 C   0  0  0  0  0  0  0  0  0  0  0  0
   -0.4132    2.6768   -2.9145 N   0  3  0  0  0  0  0  0  0  0  0  0
    0.5451    2.3343   -3.0386 H   0  0  0  0  0  0  0  0  0  0  0  0
   -1.1967    3.1670   -3.8446 C   0  0  0  0  0  0  0  0  0  0  0  0
   -0.9598    3.2627   -4.9067 H   0  0  0  0  0  0  0  0  0  0  0  0
   -2.3805    3.5601   -3.2221 N   0  0  0  0  0  0  0  0  0  0  0  0
   -3.1771    4.0097   -3.6852 H   0  0  0  0  0  0  0  0  0  0  0  0
   -2.2800    3.3036   -1.8588 C   0  0  0  0  0  0  0  0  0  0  0  0
   -3.0152    3.5301   -1.0852 H   0  0  0  0  0  0  0  0  0  0  0  0
    0.6792    0.5358    0.9476 C   0  0  0  0  0  0  0  0  0  0  0  0
    1.8422    0.3587    0.6128 O   0  0  0  0  0  0  0  0  0  0  0  0
    0.3982    0.8961    2.2530 N   0  0  0  0  0  0  0  0  0  0  0  0
   -0.5735    0.7381    2.5173 H   0  0  0  0  0  0  0  0  0  0  0  0
    1.3938    0.7585    3.3131 C   0  0  0  0  0  0  0  0  0  0  0  0
    2.2784    1.3665    3.0948 H   0  0  0  0  0  0  0  0  0  0  0  0
    0.9784    1.0912    4.2696 H   0  0  0  0  0  0  0  0  0  0  0  0
    1.7042   -0.2873    3.4150 H   0  0  0  0  0  0  0  0  0  0  0  0
  1  2  1  0  0  0  0
  2  3  1  0  0  0  0
  2  4  1  0  0  0  0
  2  5  1  0  0  0  0
  5  6  2  0  0  0  0
  5  7  1  0  0  0  0
  7  8  1  0  0  0  0
  7  9  1  0  0  0  0
  9 10  1  0  0  0  0
  9 11  1  0  0  0  0
  9 23  1  0  0  0  0
 11 12  1  0  0  0  0
 11 13  1  0  0  0  0
 11 14  1  0  0  0  0
 14 15  1  0  0  0  0
 14 21  2  0  0  0  0
 15 16  1  0  0  0  0
 15 17  2  0  0  0  0
 17 18  1  0  0  0  0
 17 19  1  0  0  0  0
 19 20  1  0  0  0  0
 19 21  1  0  0  0  0
 21 22  1  0  0  0  0
 23 24  2  0  0  0  0
 23 25  1  0  0  0  0
 25 26  1  0  0  0  0
 25 27  1  0  0  0  0
 27 28  1  0  0  0  0
 27 29  1  0  0  0  0
 27 30  1  0  0  0  0
M  CHG  1  15   1
M  END
$$$$

  -OEChem-01062216083D

 30 30  0     1  0  0  0  0  0999 V2000
   -3.7610   -2.2521    0.9827 H   0  0  0  0  0  0  0  0  0  0  0  0
   -3.5515   -1.4149    0.3099 C   0  0  0  0  0  0  0  0  0  0  0  0
   -4.3115   -0.6451    0.4628 H   0  0  0  0  0  0  0  0  0  0  0  0
   -3.6049   -1.7757   -0.7200 H   0  0  0  0  0  0  0  0  0  0  0  0
   -2.1724   -0.8513    0.5949 C   0  0  0  0  0  0  0  0  0  0  0  0
   -1.5297   -1.3080    1.5191 O   0  0  0  0  0  0  0  0  0  0  0  0
   -1.6873    0.1829   -0.1900 N   0  0  0  0  0  0  0  0  0  0  0  0
   -2.2973    0.4353   -0.9614 H   0  0  0  0  0  0  0  0  0  0  0  0
   -0.3249    0.7794   -0.1971 C   0  0  1  0  0  0  0  0  0  0  0  0
    0.1794    0.3761   -1.0816 H   0  0  0  0  0  0  0  0  0  0  0  0
   -0.4481    2.3082   -0.3418 C   0  0  0  0  0  0  0  0  0  0  0  0
   -1.0517    2.6945    0.4873 H   0  0  0  0  0  0  0  0  0  0  0  0
    0.5421    2.7731   -0.2587 H   0  0  0  0  0  0  0  0  0  0  0  0
   -1.0582    2.7105   -1.6611 C   0  0  0  0  0  0  0  0  0  0  0  0
   -0.4055    2.6789   -2.8950 N   0  3  0  0  0  0  0  0  0  0  0  0
    0.5608    2.3549   -3.0070 H   0  0  0  0  0  0  0  0  0  0  0  0
   -1.1795    3.1748   -3.8302 C   0  0  0  0  0  0  0  0  0  0  0  0
   -0.9253    3.2932   -4.8860 H   0  0  0  0  0  0  0  0  0  0  0  0
   -2.3788    3.5421   -3.2217 N   0  0  0  0  0  0  0  0  0  0  0  0
   -3.1713    3.9932   -3.6905 H   0  0  0  0  0  0  0  0  0  0  0  0
   -2.2974    3.2656   -1.8610 C   0  0  0  0  0  0  0  0  0  0  0  0
   -3.0464    3.4745   -1.0959 H   0  0  0  0  0  0  0  0  0  0  0  0
    0.6894    0.5306    0.9477 C   0  0  0  0  0  0  0  0  0  0  0  0
    1.8720    0.6021    0.6411 O   0  0  0  0  0  0  0  0  0  0  0  0
    0.3331    0.5986    2.2811 N   0  0  0  0  0  0  0  0  0  0  0  0
   -0.6011    0.2320    2.4700 H   0  0  0  0  0  0  0  0  0  0  0  0
    1.3198    0.4594    3.3485 C   0  0  0  0  0  0  0  0  0  0  0  0
    2.0842    1.2406    3.2742 H   0  0  0  0  0  0  0  0  0  0  0  0
    0.8352    0.5473    4.3260 H   0  0  0  0  0  0  0  0  0  0  0  0
    1.8111   -0.5180    3.2914 H   0  0  0  0  0  0  0  0  0  0  0  0
  1  2  1  0  0  0  0
  2  3  1  0  0  0  0
  2  4  1  0  0  0  0
  2  5  1  0  0  0  0
  5  6  2  0  0  0  0
  5  7  1  0  0  0  0
  7  8  1  0  0  0  0
  7  9  1  0  0  0  0
  9 10  1  0  0  0  0
  9 11  1  0  0  0  0
  9 23  1  0  0  0  0
 11 12  1  0  0  0  0
 11 13  1  0  0  0  0
 11 14  1  0  0  0  0
 14 15  1  0  0  0  0
 14 21  2  0  0  0  0
 15 16  1  0  0  0  0
 15 17  2  0  0  0  0
 17 18  1  0  0  0  0
 17 19  1  0  0  0  0
 19 20  1  0  0  0  0
 19 21  1  0  0  0  0
 21 22  1  0  0  0  0
 23 24  2  0  0  0  0
 23 25  1  0  0  0  0
 25 26  1  0  0  0  0
 25 27  1  0  0  0  0
 27 28  1  0  0  0  0
 27 29  1  0  0  0  0
 27 30  1  0  0  0  0
M  CHG  1  15   1
M  END
$$$$

  -OEChem-01062216083D

 30 30  0     1  0  0  0  0  0999 V2000
   -3.8659   -2.1969    0.9135 H   0  0  0  0  0  0  0  0  0  0  0  0
   -3.6236   -1.3420    0.2749 C   0  0  0  0  0  0  0  0  0  0  0  0
   -4.3204   -0.5309    0.4985 H   0  0  0  0  0  0  0  0  0  0  0  0
   -3.7429   -1.6430   -0.7686 H   0  0  0  0  0  0  0  0  0  0  0  0
   -2.1980   -0.8902    0.5282 C   0  0  0  0  0  0  0  0  0  0  0  0
   -1.5377   -1.4705    1.3661 O   0  0  0  0  0  0  0  0  0  0  0  0
   -1.6816    0.1557   -0.2192 N   0  0  0  0  0  0  0  0  0  0  0  0
   -2.3149    0.5005   -0.9335 H   0  0  0  0  0  0  0  0  0  0  0  0
   -0.3245    0.7654   -0.1890 C   0  0  1  0  0  0  0  0  0  0  0  0
    0.1997    0.3797   -1.0699 H   0  0  0  0  0  0  0  0  0  0  0  0
   -0.4877    2.2941   -0.3243 C   0  0  0  0  0  0  0  0  0  0  0  0
   -1.1189    2.6562    0.4950 H   0  0  0  0  0  0  0  0  0  0  0  0
    0.4844    2.7909   -0.2184 H   0  0  0  0  0  0  0  0  0  0  0  0
   -1.0801    2.6908   -1.6535 C   0  0  0  0  0  0  0  0  0  0  0  0
   -0.3958    2.6863   -2.8703 N   0  3  0  0  0  0  0  0  0  0  0  0
    0.5805    2.3862   -2.9597 H   0  0  0  0  0  0  0  0  0  0  0  0
   -1.1576    3.1700   -3.8215 C   0  0  0  0  0  0  0  0  0  0  0  0
   -0.8792    3.3025   -4.8696 H   0  0  0  0  0  0  0  0  0  0  0  0
   -2.3806    3.5028   -3.2411 N   0  0  0  0  0  0  0  0  0  0  0  0
   -3.1720    3.9372   -3.7274 H   0  0  0  0  0  0  0  0  0  0  0  0
   -2.3271    3.2179   -1.8805 C   0  0  0  0  0  0  0  0  0  0  0  0
   -3.0997    3.4061   -1.1336 H   0  0  0  0  0  0  0  0  0  0  0  0
    0.6937    0.5349    0.9607 C   0  0  0  0  0  0  0  0  0  0  0  0
    1.8587    0.8082    0.7030 O   0  0  0  0  0  0  0  0  0  0  0  0
    0.3413    0.2902    2.2734 N   0  0  0  0  0  0  0  0  0  0  0  0
   -0.5477   -0.2017    2.3829 H   0  0  0  0  0  0  0  0  0  0  0  0
    1.3364    0.1022    3.3255 C   0  0  0  0  0  0  0  0  0  0  0  0
    1.9759    0.9869    3.4164 H   0  0  0  0  0  0  0  0  0  0  0  0
    0.8422   -0.0628    4.2880 H   0  0  0  0  0  0  0  0  0  0  0  0
    1.9675   -0.7658    3.1064 H   0  0  0  0  0  0  0  0  0  0  0  0
  1  2  1  0  0  0  0
  2  3  1  0  0  0  0
  2  4  1  0  0  0  0
  2  5  1  0  0  0  0
  5  6  2  0  0  0  0
  5  7  1  0  0  0  0
  7  8  1  0  0  0  0
  7  9  1  0  0  0  0
  9 10  1  0  0  0  0
  9 11  1  0  0  0  0
  9 23  1  0  0  0  0
 11 12  1  0  0  0  0
 11 13  1  0  0  0  0
 11 14  1  0  0  0  0
 14 15  1  0  0  0  0
 14 21  2  0  0  0  0
 15 16  1  0  0  0  0
 15 17  2  0  0  0  0
 17 18  1  0  0  0  0
 17 19  1  0  0  0  0
 19 20  1  0  0  0  0
 19 21  1  0  0  0  0
 21 22  1  0  0  0  0
 23 24  2  0  0  0  0
 23 25  1  0  0  0  0
 25 26  1  0  0  0  0
 25 27  1  0  0  0  0
 27 28  1  0  0  0  0
 27 29  1  0  0  0  0
 27 30  1  0  0  0  0
M  CHG  1  15   1
M  END
$$$$

  -OEChem-01062216083D

 30 30  0     1  0  0  0  0  0999 V2000
   -3.9521   -2.1484    0.8554 H   0  0  0  0  0  0  0  0  0  0  0  0
   -3.6865   -1.2747    0.2523 C   0  0  0  0  0  0  0  0  0  0  0  0
   -4.3290   -0.4412    0.5453 H   0  0  0  0  0  0  0  0  0  0  0  0
   -3.8600   -1.5125   -0.8000 H   0  0  0  0  0  0  0  0  0  0  0  0
   -2.2300   -0.9130    0.4726 C   0  0  0  0  0  0  0  0  0  0  0  0
   -1.5654   -1.5977    1.2231 O   0  0  0  0  0  0  0  0  0  0  0  0
   -1.6859    0.1428   -0.2404 N   0  0  0  0  0  0  0  0  0  0  0  0
   -2.3335    0.5610   -0.9002 H   0  0  0  0  0  0  0  0  0  0  0  0
   -0.3287    0.7534   -0.1803 C   0  0  1  0  0  0  0  0  0  0  0  0
    0.2075    0.3814   -1.0594 H   0  0  0  0  0  0  0  0  0  0  0  0
   -0.5159    2.2832   -0.3091 C   0  0  0  0  0  0  0  0  0  0  0  0
   -1.1660    2.6296    0.5020 H   0  0  0  0  0  0  0  0  0  0  0  0
    0.4423    2.8021   -0.1872 H   0  0  0  0  0  0  0  0  0  0  0  0
   -1.0925    2.6770   -1.6467 C   0  0  0  0  0  0  0  0  0  0  0  0
   -0.3870    2.6906   -2.8515 N   0  3  0  0  0  0  0  0  0  0  0  0
    0.5953    2.4065   -2.9255 H   0  0  0  0  0  0  0  0  0  0  0  0
   -1.1408    3.1632   -3.8144 C   0  0  0  0  0  0  0  0  0  0  0  0
   -0.8479    3.3020   -4.8576 H   0  0  0  0  0  0  0  0  0  0  0  0
   -2.3785    3.4746   -3.2539 N   0  0  0  0  0  0  0  0  0  0  0  0
   -3.1688    3.8966   -3.7526 H   0  0  0  0  0  0  0  0  0  0  0  0
   -2.3431    3.1869   -1.8933 C   0  0  0  0  0  0  0  0  0  0  0  0
   -3.1309    3.3621   -1.1595 H   0  0  0  0  0  0  0  0  0  0  0  0
    0.6918    0.5217    0.9726 C   0  0  0  0  0  0  0  0  0  0  0  0
    1.8207    0.9545    0.7783 O   0  0  0  0  0  0  0  0  0  0  0  0
    0.4043   -0.0171    2.2106 N   0  0  0  0  0  0  0  0  0  0  0  0
   -0.4440   -0.5855    2.2525 H   0  0  0  0  0  0  0  0  0  0  0  0
    1.4245   -0.2557    3.2277 C   0  0  0  0  0  0  0  0  0  0  0  0
    1.9473    0.6740    3.4768 H   0  0  0  0  0  0  0  0  0  0  0  0
    0.9643   -0.6446    4.1415 H   0  0  0  0  0  0  0  0  0  0  0  0
    2.1581   -0.9864    2.8710 H   0  0  0  0  0  0  0  0  0  0  0  0
  1  2  1  0  0  0  0
  2  3  1  0  0  0  0
  2  4  1  0  0  0  0
  2  5  1  0  0  0  0
  5  6  2  0  0  0  0
  5  7  1  0  0  0  0
  7  8  1  0  0  0  0
  7  9  1  0  0  0  0
  9 10  1  0  0  0  0
  9 11  1  0  0  0  0
  9 23  1  0  0  0  0
 11 12  1  0  0  0  0
 11 13  1  0  0  0  0
 11 14  1  0  0  0  0
 14 15  1  0  0  0  0
 14 21  2  0  0  0  0
 15 16  1  0  0  0  0
 15 17  2  0  0  0  0
 17 18  1  0  0  0  0
 17 19  1  0  0  0  0
 19 20  1  0  0  0  0
 19 21  1  0  0  0  0
 21 22  1  0  0  0  0
 23 24  2  0  0  0  0
 23 25  1  0  0  0  0
 25 26  1  0  0  0  0
 25 27  1  0  0  0  0
 27 28  1  0  0  0  0
 27 29  1  0  0  0  0
 27 30  1  0  0  0  0
M  CHG  1  15   1
M  END
$$$$

  -OEChem-01062216083D

 30 30  0     1  0  0  0  0  0999 V2000
   -3.4678   -2.1267    1.4240 H   0  0  0  0  0  0  0  0  0  0  0  0
   -3.3690   -1.2168    0.8246 C   0  0  0  0  0  0  0  0  0  0  0  0
   -3.8318   -0.3906    1.3691 H   0  0  0  0  0  0  0  0  0  0  0  0
   -3.8918   -1.3636   -0.1235 H   0  0  0  0  0  0  0  0  0  0  0  0
   -1.9032   -0.9194    0.5731 C   0  0  0  0  0  0  0  0  0  0  0  0
   -1.0723   -1.7696    0.8196 O   0  0  0  0  0  0  0  0  0  0  0  0
   -1.5431    0.1717   -0.1935 N   0  0  0  0  0  0  0  0  0  0  0  0
   -2.3560    0.6669   -0.5415 H   0  0  0  0  0  0  0  0  0  0  0  0
   -0.3336    1.0200   -0.0312 C   0  0  1  0  0  0  0  0  0  0  0  0
    0.3698    0.6788   -0.7968 H   0  0  0  0  0  0  0  0  0  0  0  0
   -0.7628    2.4718   -0.3689 C   0  0  0  0  0  0  0  0  0  0  0  0
   -1.5713    2.7729    0.3059 H   0  0  0  0  0  0  0  0  0  0  0  0
    0.0614    3.1750   -0.2056 H   0  0  0  0  0  0  0  0  0  0  0  0
   -1.1930    2.6080   -1.8104 C   0  0  0  0  0  0  0  0  0  0  0  0
   -0.3294    2.6316   -2.9076 N   0  3  0  0  0  0  0  0  0  0  0  0
    0.6858    2.5233   -2.8207 H   0  0  0  0  0  0  0  0  0  0  0  0
   -1.0029    2.8311   -4.0143 C   0  0  0  0  0  0  0  0  0  0  0  0
   -0.5877    2.8979   -5.0224 H   0  0  0  0  0  0  0  0  0  0  0  0
   -2.3453    2.9552   -3.6623 N   0  0  0  0  0  0  0  0  0  0  0  0
   -3.1169    3.1395   -4.3117 H   0  0  0  0  0  0  0  0  0  0  0  0
   -2.4633    2.8337   -2.2816 C   0  0  0  0  0  0  0  0  0  0  0  0
   -3.3736    2.9263   -1.6885 H   0  0  0  0  0  0  0  0  0  0  0  0
    0.5473    1.0099    1.2631 C   0  0  0  0  0  0  0  0  0  0  0  0
    1.3250    1.9346    1.4362 O   0  0  0  0  0  0  0  0  0  0  0  0
    0.3768    0.2681    2.4073 N   0  0  0  0  0  0  0  0  0  0  0  0
    0.5582    0.8621    3.2140 H   0  0  0  0  0  0  0  0  0  0  0  0
    1.1352   -0.9780    2.5070 C   0  0  0  0  0  0  0  0  0  0  0  0
    0.5567   -1.7294    3.0545 H   0  0  0  0  0  0  0  0  0  0  0  0
    1.3770   -1.3853    1.5190 H   0  0  0  0  0  0  0  0  0  0  0  0
    2.0759   -0.8060    3.0404 H   0  0  0  0  0  0  0  0  0  0  0  0
  1  2  1  0  0  0  0
  2  3  1  0  0  0  0
  2  4  1  0  0  0  0
  2  5  1  0  0  0  0
  5  6  2  0  0  0  0
  5  7  1  0  0  0  0
  7  8  1  0  0  0  0
  7  9  1  0  0  0  0
  9 10  1  0  0  0  0
  9 11  1  0  0  0  0
  9 23  1  0  0  0  0
 11 12  1  0  0  0  0
 11 13  1  0  0  0  0
 11 14  1  0  0  0  0
 14 15  1  0  0  0  0
 14 21  2  0  0  0  0
 15 16  1  0  0  0  0
 15 17  2  0  0  0  0
 17 18  1  0  0  0  0
 17 19  1  0  0  0  0
 19 20  1  0  0  0  0
 19 21  1  0  0  0  0
 21 22  1  0  0  0  0
 23 24  2  0  0  0  0
 23 25  1  0  0  0  0
 25 26  1  0  0  0  0
 25 27  1  0  0  0  0
 27 28  1  0  0  0  0
 27 29  1  0  0  0  0
 27 30  1  0  0  0  0
M  CHG  1  15   1
M  END
$$$$

  -OEChem-01062216083D

 30 30  0     1  0  0  0  0  0999 V2000
   -3.3911   -2.1846    1.4284 H   0  0  0  0  0  0  0  0  0  0  0  0
   -3.2800   -1.2477    0.8741 C   0  0  0  0  0  0  0  0  0  0  0  0
   -3.6116   -0.4249    1.5114 H   0  0  0  0  0  0  0  0  0  0  0  0
   -3.9109   -1.2926   -0.0167 H   0  0  0  0  0  0  0  0  0  0  0  0
   -1.8299   -1.0497    0.4762 C   0  0  0  0  0  0  0  0  0  0  0  0
   -1.0473   -1.9653    0.6217 O   0  0  0  0  0  0  0  0  0  0  0  0
   -1.4675    0.0690   -0.2496 N   0  0  0  0  0  0  0  0  0  0  0  0
   -2.2553    0.6668   -0.4716 H   0  0  0  0  0  0  0  0  0  0  0  0
   -0.1275    0.7016   -0.3766 C   0  0  1  0  0  0  0  0  0  0  0  0
    0.2490    0.3595   -1.3463 H   0  0  0  0  0  0  0  0  0  0  0  0
   -0.3536    2.2319   -0.4469 C   0  0  0  0  0  0  0  0  0  0  0  0
   -0.8819    2.5577    0.4557 H   0  0  0  0  0  0  0  0  0  0  0  0
    0.6015    2.7697   -0.4630 H   0  0  0  0  0  0  0  0  0  0  0  0
   -1.1267    2.6249   -1.6826 C   0  0  0  0  0  0  0  0  0  0  0  0
   -0.5965    2.6596   -2.9738 N   0  3  0  0  0  0  0  0  0  0  0  0
    0.3655    2.3783   -3.1891 H   0  0  0  0  0  0  0  0  0  0  0  0
   -1.4888    3.1117   -3.8208 C   0  0  0  0  0  0  0  0  0  0  0  0
   -1.3509    3.2471   -4.8959 H   0  0  0  0  0  0  0  0  0  0  0  0
   -2.6404    3.3996   -3.0907 N   0  0  0  0  0  0  0  0  0  0  0  0
   -3.5045    3.7964   -3.4742 H   0  0  0  0  0  0  0  0  0  0  0  0
   -2.4090    3.1119   -1.7494 C   0  0  0  0  0  0  0  0  0  0  0  0
   -3.0925    3.2702   -0.9148 H   0  0  0  0  0  0  0  0  0  0  0  0
    1.1022    0.4360    0.5527 C   0  0  0  0  0  0  0  0  0  0  0  0
    2.1439    0.9759    0.2139 O   0  0  0  0  0  0  0  0  0  0  0  0
    1.3432   -0.5613    1.4663 N   0  0  0  0  0  0  0  0  0  0  0  0
    2.3434   -0.7070    1.5877 H   0  0  0  0  0  0  0  0  0  0  0  0
    0.5654   -0.6614    2.6975 C   0  0  0  0  0  0  0  0  0  0  0  0
   -0.3664   -0.0915    2.6346 H   0  0  0  0  0  0  0  0  0  0  0  0
    0.3199   -1.7085    2.9046 H   0  0  0  0  0  0  0  0  0  0  0  0
    1.1451   -0.2695    3.5396 H   0  0  0  0  0  0  0  0  0  0  0  0
  1  2  1  0  0  0  0
  2  3  1  0  0  0  0
  2  4  1  0  0  0  0
  2  5  1  0  0  0  0
  5  6  2  0  0  0  0
  5  7  1  0  0  0  0
  7  8  1  0  0  0  0
  7  9  1  0  0  0  0
  9 10  1  0  0  0  0
  9 11  1  0  0  0  0
  9 23  1  0  0  0  0
 11 12  1  0  0  0  0
 11 13  1  0  0  0  0
 11 14  1  0  0  0  0
 14 15  1  0  0  0  0
 14 21  2  0  0  0  0
 15 16  1  0  0  0  0
 15 17  2  0  0  0  0
 17 18  1  0  0  0  0
 17 19  1  0  0  0  0
 19 20  1  0  0  0  0
 19 21  1  0  0  0  0
 21 22  1  0  0  0  0
 23 24  2  0  0  0  0
 23 25  1  0  0  0  0
 25 26  1  0  0  0  0
 25 27  1  0  0  0  0
 27 28  1  0  0  0  0
 27 29  1  0  0  0  0
 27 30  1  0  0  0  0
M  CHG  1  15   1
M  END
$$$$

  -OEChem-01062216083D

 30 30  0     1  0  0  0  0  0999 V2000
   -3.9458   -2.1144    0.8588 H   0  0  0  0  0  0  0  0  0  0  0  0
   -3.6624   -1.2451    0.2573 C   0  0  0  0  0  0  0  0  0  0  0  0
   -4.2285   -0.3801    0.6102 H   0  0  0  0  0  0  0  0  0  0  0  0
   -3.9192   -1.4448   -0.7858 H   0  0  0  0  0  0  0  0  0  0  0  0
   -2.1732   -0.9845    0.3877 C   0  0  0  0  0  0  0  0  0  0  0  0
   -1.4971   -1.7923    0.9892 O   0  0  0  0  0  0  0  0  0  0  0  0
   -1.6286    0.1074   -0.2699 N   0  0  0  0  0  0  0  0  0  0  0  0
   -2.3171    0.6202   -0.8103 H   0  0  0  0  0  0  0  0  0  0  0  0
   -0.2733    0.7288   -0.2143 C   0  0  1  0  0  0  0  0  0  0  0  0
    0.2508    0.3949   -1.1152 H   0  0  0  0  0  0  0  0  0  0  0  0
   -0.5197    2.2601   -0.3177 C   0  0  0  0  0  0  0  0  0  0  0  0
   -1.1605    2.5733    0.5140 H   0  0  0  0  0  0  0  0  0  0  0  0
    0.4158    2.8215   -0.2198 H   0  0  0  0  0  0  0  0  0  0  0  0
   -1.1307    2.6588   -1.6397 C   0  0  0  0  0  0  0  0  0  0  0  0
   -0.4510    2.7220   -2.8579 N   0  3  0  0  0  0  0  0  0  0  0  0
    0.5384    2.4742   -2.9579 H   0  0  0  0  0  0  0  0  0  0  0  0
   -1.2372    3.1963   -3.7937 C   0  0  0  0  0  0  0  0  0  0  0  0
   -0.9690    3.3704   -4.8383 H   0  0  0  0  0  0  0  0  0  0  0  0
   -2.4714    3.4584   -3.2015 N   0  0  0  0  0  0  0  0  0  0  0  0
   -3.2820    3.8735   -3.6728 H   0  0  0  0  0  0  0  0  0  0  0  0
   -2.3992    3.1411   -1.8491 C   0  0  0  0  0  0  0  0  0  0  0  0
   -3.1747    3.2835   -1.0952 H   0  0  0  0  0  0  0  0  0  0  0  0
    0.7779    0.4379    0.9122 C   0  0  0  0  0  0  0  0  0  0  0  0
    1.6358    1.2856    1.1240 O   0  0  0  0  0  0  0  0  0  0  0  0
    0.9038   -0.7419    1.6161 N   0  0  0  0  0  0  0  0  0  0  0  0
    0.1756   -1.4449    1.4763 H   0  0  0  0  0  0  0  0  0  0  0  0
    1.9101   -0.9845    2.6463 C   0  0  0  0  0  0  0  0  0  0  0  0
    1.8200   -0.2504    3.4541 H   0  0  0  0  0  0  0  0  0  0  0  0
    1.7792   -1.9838    3.0734 H   0  0  0  0  0  0  0  0  0  0  0  0
    2.9182   -0.9206    2.2230 H   0  0  0  0  0  0  0  0  0  0  0  0
  1  2  1  0  0  0  0
  2  3  1  0  0  0  0
  2  4  1  0  0  0  0
  2  5  1  0  0  0  0
  5  6  2  0  0  0  0
  5  7  1  0  0  0  0
  7  8  1  0  0  0  0
  7  9  1  0  0  0  0
  9 10  1  0  0  0  0
  9 11  1  0  0  0  0
  9 23  1  0  0  0  0
 11 12  1  0  0  0  0
 11 13  1  0  0  0  0
 11 14  1  0  0  0  0
 14 15  1  0  0  0  0
 14 21  2  0  0  0  0
 15 16  1  0  0  0  0
 15 17  2  0  0  0  0
 17 18  1  0  0  0  0
 17 19  1  0  0  0  0
 19 20  1  0  0  0  0
 19 21  1  0  0  0  0
 21 22  1  0  0  0  0
 23 24  2  0  0  0  0
 23 25  1  0  0  0  0
 25 26  1  0  0  0  0
 25 27  1  0  0  0  0
 27 28  1  0  0  0  0
 27 29  1  0  0  0  0
 27 30  1  0  0  0  0
M  CHG  1  15   1
M  END
$$$$

  -OEChem-01062216083D

 30 30  0     1  0  0  0  0  0999 V2000
   -3.9160   -2.0348    0.9978 H   0  0  0  0  0  0  0  0  0  0  0  0
   -3.6452   -1.1781    0.3732 C   0  0  0  0  0  0  0  0  0  0  0  0
   -4.1801   -0.2989    0.7395 H   0  0  0  0  0  0  0  0  0  0  0  0
   -3.9514   -1.3857   -0.6547 H   0  0  0  0  0  0  0  0  0  0  0  0
   -2.1479   -0.9422    0.4348 C   0  0  0  0  0  0  0  0  0  0  0  0
   -1.4589   -1.7497    1.0228 O   0  0  0  0  0  0  0  0  0  0  0  0
   -1.6125    0.1332   -0.2567 N   0  0  0  0  0  0  0  0  0  0  0  0
   -2.3118    0.6602   -0.7687 H   0  0  0  0  0  0  0  0  0  0  0  0
   -0.2433    0.7231   -0.2492 C   0  0  1  0  0  0  0  0  0  0  0  0
    0.2495    0.3654   -1.1581 H   0  0  0  0  0  0  0  0  0  0  0  0
   -0.4400    2.2593   -0.3663 C   0  0  0  0  0  0  0  0  0  0  0  0
   -1.0426    2.6056    0.4807 H   0  0  0  0  0  0  0  0  0  0  0  0
    0.5211    2.7822   -0.3041 H   0  0  0  0  0  0  0  0  0  0  0  0
   -1.0751    2.6655   -1.6747 C   0  0  0  0  0  0  0  0  0  0  0  0
   -0.4331    2.6936   -2.9146 N   0  3  0  0  0  0  0  0  0  0  0  0
    0.5447    2.4153   -3.0430 H   0  0  0  0  0  0  0  0  0  0  0  0
   -1.2334    3.1831   -3.8306 C   0  0  0  0  0  0  0  0  0  0  0  0
   -0.9933    3.3389   -4.8849 H   0  0  0  0  0  0  0  0  0  0  0  0
   -2.4400    3.4884   -3.2035 N   0  0  0  0  0  0  0  0  0  0  0  0
   -3.2534    3.9197   -3.6548 H   0  0  0  0  0  0  0  0  0  0  0  0
   -2.3350    3.1824   -1.8506 C   0  0  0  0  0  0  0  0  0  0  0  0
   -3.0829    3.3526   -1.0748 H   0  0  0  0  0  0  0  0  0  0  0  0
    0.8098    0.3943    0.8633 C   0  0  0  0  0  0  0  0  0  0  0  0
    1.5395    1.2910    1.2668 O   0  0  0  0  0  0  0  0  0  0  0  0
    1.0700   -0.8766    1.3347 N   0  0  0  0  0  0  0  0  0  0  0  0
    0.3493   -1.5772    1.1462 H   0  0  0  0  0  0  0  0  0  0  0  0
    2.0350   -1.1644    2.3924 C   0  0  0  0  0  0  0  0  0  0  0  0
    1.7551   -0.6517    3.3188 H   0  0  0  0  0  0  0  0  0  0  0  0
    2.0692   -2.2405    2.5894 H   0  0  0  0  0  0  0  0  0  0  0  0
    3.0384   -0.8380    2.0988 H   0  0  0  0  0  0  0  0  0  0  0  0
  1  2  1  0  0  0  0
  2  3  1  0  0  0  0
  2  4  1  0  0  0  0
  2  5  1  0  0  0  0
  5  6  2  0  0  0  0
  5  7  1  0  0  0  0
  7  8  1  0  0  0  0
  7  9  1  0  0  0  0
  9 10  1  0  0  0  0
  9 11  1  0  0  0  0
  9 23  1  0  0  0  0
 11 12  1  0  0  0  0
 11 13  1  0  0  0  0
 11 14  1  0  0  0  0
 14 15  1  0  0  0  0
 14 21  2  0  0  0  0
 15 16  1  0  0  0  0
 15 17  2  0  0  0  0
 17 18  1  0  0  0  0
 17 19  1  0  0  0  0
 19 20  1  0  0  0  0
 19 21  1  0  0  0  0
 21 22  1  0  0  0  0
 23 24  2  0  0  0  0
 23 25  1  0  0  0  0
 25 26  1  0  0  0  0
 25 27  1  0  0  0  0
 27 28  1  0  0  0  0
 27 29  1  0  0  0  0
 27 30  1  0  0  0  0
M  CHG  1  15   1
M  END
$$$$

  -OEChem-01062216083D

 30 30  0     1  0  0  0  0  0999 V2000
   -3.7541   -2.0890    1.1122 H   0  0  0  0  0  0  0  0  0  0  0  0
   -3.5448   -1.2174    0.4844 C   0  0  0  0  0  0  0  0  0  0  0  0
   -4.0601   -0.3528    0.9089 H   0  0  0  0  0  0  0  0  0  0  0  0
   -3.9292   -1.4101   -0.5200 H   0  0  0  0  0  0  0  0  0  0  0  0
   -2.0507   -0.9616    0.4315 C   0  0  0  0  0  0  0  0  0  0  0  0
   -1.2995   -1.7756    0.9301 O   0  0  0  0  0  0  0  0  0  0  0  0
   -1.5772    0.1266   -0.2842 N   0  0  0  0  0  0  0  0  0  0  0  0
   -2.3138    0.6743   -0.7161 H   0  0  0  0  0  0  0  0  0  0  0  0
   -0.2221    0.7421   -0.2867 C   0  0  1  0  0  0  0  0  0  0  0  0
    0.2789    0.3913   -1.1937 H   0  0  0  0  0  0  0  0  0  0  0  0
   -0.4179    2.2760   -0.3987 C   0  0  0  0  0  0  0  0  0  0  0  0
   -1.0153    2.6220    0.4523 H   0  0  0  0  0  0  0  0  0  0  0  0
    0.5492    2.7885   -0.3359 H   0  0  0  0  0  0  0  0  0  0  0  0
   -1.0615    2.6849   -1.7020 C   0  0  0  0  0  0  0  0  0  0  0  0
   -0.4324    2.7161   -2.9485 N   0  3  0  0  0  0  0  0  0  0  0  0
    0.5420    2.4330   -3.0899 H   0  0  0  0  0  0  0  0  0  0  0  0
   -1.2430    3.2056   -3.8555 C   0  0  0  0  0  0  0  0  0  0  0  0
   -1.0155    3.3593   -4.9129 H   0  0  0  0  0  0  0  0  0  0  0  0
   -2.4419    3.5122   -3.2146 N   0  0  0  0  0  0  0  0  0  0  0  0
   -3.2606    3.9434   -3.6565 H   0  0  0  0  0  0  0  0  0  0  0  0
   -2.3224    3.2041   -1.8637 C   0  0  0  0  0  0  0  0  0  0  0  0
   -3.0621    3.3734   -1.0798 H   0  0  0  0  0  0  0  0  0  0  0  0
    0.8061    0.4072    0.8416 C   0  0  0  0  0  0  0  0  0  0  0  0
    1.3433    1.3225    1.4527 O   0  0  0  0  0  0  0  0  0  0  0  0
    1.2558   -0.8768    1.0786 N   0  0  0  0  0  0  0  0  0  0  0  0
    0.6036   -1.6122    0.7949 H   0  0  0  0  0  0  0  0  0  0  0  0
    2.1892   -1.1982    2.1551 C   0  0  0  0  0  0  0  0  0  0  0  0
    1.7616   -0.9297    3.1272 H   0  0  0  0  0  0  0  0  0  0  0  0
    2.4084   -2.2706    2.1576 H   0  0  0  0  0  0  0  0  0  0  0  0
    3.1321   -0.6565    2.0245 H   0  0  0  0  0  0  0  0  0  0  0  0
  1  2  1  0  0  0  0
  2  3  1  0  0  0  0
  2  4  1  0  0  0  0
  2  5  1  0  0  0  0
  5  6  2  0  0  0  0
  5  7  1  0  0  0  0
  7  8  1  0  0  0  0
  7  9  1  0  0  0  0
  9 10  1  0  0  0  0
  9 11  1  0  0  0  0
  9 23  1  0  0  0  0
 11 12  1  0  0  0  0
 11 13  1  0  0  0  0
 11 14  1  0  0  0  0
 14 15  1  0  0  0  0
 14 21  2  0  0  0  0
 15 16  1  0  0  0  0
 15 17  2  0  0  0  0
 17 18  1  0  0  0  0
 17 19  1  0  0  0  0
 19 20  1  0  0  0  0
 19 21  1  0  0  0  0
 21 22  1  0  0  0  0
 23 24  2  0  0  0  0
 23 25  1  0  0  0  0
 25 26  1  0  0  0  0
 25 27  1  0  0  0  0
 27 28  1  0  0  0  0
 27 29  1  0  0  0  0
 27 30  1  0  0  0  0
M  CHG  1  15   1
M  END
$$$$

  -OEChem-01062216083D

 30 30  0     1  0  0  0  0  0999 V2000
   -3.5886   -2.1523    1.1993 H   0  0  0  0  0  0  0  0  0  0  0  0
   -3.4422   -1.2559    0.5892 C   0  0  0  0  0  0  0  0  0  0  0  0
   -3.9235   -0.4126    1.0901 H   0  0  0  0  0  0  0  0  0  0  0  0
   -3.9127   -1.4146   -0.3839 H   0  0  0  0  0  0  0  0  0  0  0  0
   -1.9606   -0.9826    0.4154 C   0  0  0  0  0  0  0  0  0  0  0  0
   -1.1543   -1.7939    0.8288 O   0  0  0  0  0  0  0  0  0  0  0  0
   -1.5502    0.1109   -0.3300 N   0  0  0  0  0  0  0  0  0  0  0  0
   -2.3170    0.6730   -0.6838 H   0  0  0  0  0  0  0  0  0  0  0  0
   -0.2099    0.7513   -0.3288 C   0  0  1  0  0  0  0  0  0  0  0  0
    0.3109    0.4103   -1.2284 H   0  0  0  0  0  0  0  0  0  0  0  0
   -0.4090    2.2831   -0.4298 C   0  0  0  0  0  0  0  0  0  0  0  0
   -1.0120    2.6212    0.4209 H   0  0  0  0  0  0  0  0  0  0  0  0
    0.5601    2.7902   -0.3513 H   0  0  0  0  0  0  0  0  0  0  0  0
   -1.0523    2.7021   -1.7299 C   0  0  0  0  0  0  0  0  0  0  0  0
   -0.4266    2.7470   -2.9778 N   0  3  0  0  0  0  0  0  0  0  0  0
    0.5461    2.4623   -3.1261 H   0  0  0  0  0  0  0  0  0  0  0  0
   -1.2414    3.2420   -3.8781 C   0  0  0  0  0  0  0  0  0  0  0  0
   -1.0186    3.4044   -4.9351 H   0  0  0  0  0  0  0  0  0  0  0  0
   -2.4390    3.5400   -3.2312 N   0  0  0  0  0  0  0  0  0  0  0  0
   -3.2611    3.9711   -3.6668 H   0  0  0  0  0  0  0  0  0  0  0  0
   -2.3147    3.2199   -1.8837 C   0  0  0  0  0  0  0  0  0  0  0  0
   -3.0527    3.3793   -1.0964 H   0  0  0  0  0  0  0  0  0  0  0  0
    0.7767    0.4173    0.8309 C   0  0  0  0  0  0  0  0  0  0  0  0
    1.1087    1.3014    1.6109 O   0  0  0  0  0  0  0  0  0  0  0  0
    1.4373   -0.7955    0.8793 N   0  0  0  0  0  0  0  0  0  0  0  0
    0.9031   -1.5707    0.4821 H   0  0  0  0  0  0  0  0  0  0  0  0
    2.3658   -1.1267    1.9571 C   0  0  0  0  0  0  0  0  0  0  0  0
    1.8498   -1.1227    2.9233 H   0  0  0  0  0  0  0  0  0  0  0  0
    2.7933   -2.1214    1.7970 H   0  0  0  0  0  0  0  0  0  0  0  0
    3.1876   -0.4036    1.9955 H   0  0  0  0  0  0  0  0  0  0  0  0
  1  2  1  0  0  0  0
  2  3  1  0  0  0  0
  2  4  1  0  0  0  0
  2  5  1  0  0  0  0
  5  6  2  0  0  0  0
  5  7  1  0  0  0  0
  7  8  1  0  0  0  0
  7  9  1  0  0  0  0
  9 10  1  0  0  0  0
  9 11  1  0  0  0  0
  9 23  1  0  0  0  0
 11 12  1  0  0  0  0
 11 13  1  0  0  0  0
 11 14  1  0  0  0  0
 14 15  1  0  0  0  0
 14 21  2  0  0  0  0
 15 16  1  0  0  0  0
 15 17  2  0  0  0  0
 17 18  1  0  0  0  0
 17 19  1  0  0  0  0
 19 20  1  0  0  0  0
 19 21  1  0  0  0  0
 21 22  1  0  0  0  0
 23 24  2  0  0  0  0
 23 25  1  0  0  0  0
 25 26  1  0  0  0  0
 25 27  1  0  0  0  0
 27 28  1  0  0  0  0
 27 29  1  0  0  0  0
 27 30  1  0  0  0  0
M  CHG  1  15   1
M  END
$$$$

  -OEChem-01062216083D

 30 30  0     1  0  0  0  0  0999 V2000
   -3.4558   -2.1687    1.2940 H   0  0  0  0  0  0  0  0  0  0  0  0
   -3.3557   -1.2801    0.6638 C   0  0  0  0  0  0  0  0  0  0  0  0
   -3.8218   -0.4360    1.1773 H   0  0  0  0  0  0  0  0  0  0  0  0
   -3.8751   -1.4608   -0.2802 H   0  0  0  0  0  0  0  0  0  0  0  0
   -1.8897   -0.9896    0.4063 C   0  0  0  0  0  0  0  0  0  0  0  0
   -1.0472   -1.7898    0.7697 O   0  0  0  0  0  0  0  0  0  0  0  0
   -1.5287    0.1027   -0.3665 N   0  0  0  0  0  0  0  0  0  0  0  0
   -2.3142    0.6710   -0.6640 H   0  0  0  0  0  0  0  0  0  0  0  0
   -0.1979    0.7581   -0.3681 C   0  0  1  0  0  0  0  0  0  0  0  0
    0.3319    0.4253   -1.2656 H   0  0  0  0  0  0  0  0  0  0  0  0
   -0.3979    2.2886   -0.4547 C   0  0  0  0  0  0  0  0  0  0  0  0
   -1.0032    2.6176    0.3981 H   0  0  0  0  0  0  0  0  0  0  0  0
    0.5717    2.7928   -0.3658 H   0  0  0  0  0  0  0  0  0  0  0  0
   -1.0474    2.7175   -1.7482 C   0  0  0  0  0  0  0  0  0  0  0  0
   -0.4284    2.7732   -2.9989 N   0  3  0  0  0  0  0  0  0  0  0  0
    0.5446    2.4936   -3.1540 H   0  0  0  0  0  0  0  0  0  0  0  0
   -1.2500    3.2700   -3.8920 C   0  0  0  0  0  0  0  0  0  0  0  0
   -1.0327    3.4404   -4.9489 H   0  0  0  0  0  0  0  0  0  0  0  0
   -2.4459    3.5580   -3.2373 N   0  0  0  0  0  0  0  0  0  0  0  0
   -3.2724    3.9872   -3.6663 H   0  0  0  0  0  0  0  0  0  0  0  0
   -2.3138    3.2288   -1.8927 C   0  0  0  0  0  0  0  0  0  0  0  0
   -3.0500    3.3767   -1.1013 H   0  0  0  0  0  0  0  0  0  0  0  0
    0.7601    0.4264    0.8107 C   0  0  0  0  0  0  0  0  0  0  0  0
    0.8756    1.2264    1.7308 O   0  0  0  0  0  0  0  0  0  0  0  0
    1.6392   -0.6369    0.7208 N   0  0  0  0  0  0  0  0  0  0  0  0
    1.2991   -1.4137    0.1556 H   0  0  0  0  0  0  0  0  0  0  0  0
    2.5450   -0.9738    1.8159 C   0  0  0  0  0  0  0  0  0  0  0  0
    1.9773   -1.2314    2.7167 H   0  0  0  0  0  0  0  0  0  0  0  0
    3.1687   -1.8308    1.5430 H   0  0  0  0  0  0  0  0  0  0  0  0
    3.2045   -0.1304    2.0469 H   0  0  0  0  0  0  0  0  0  0  0  0
  1  2  1  0  0  0  0
  2  3  1  0  0  0  0
  2  4  1  0  0  0  0
  2  5  1  0  0  0  0
  5  6  2  0  0  0  0
  5  7  1  0  0  0  0
  7  8  1  0  0  0  0
  7  9  1  0  0  0  0
  9 10  1  0  0  0  0
  9 11  1  0  0  0  0
  9 23  1  0  0  0  0
 11 12  1  0  0  0  0
 11 13  1  0  0  0  0
 11 14  1  0  0  0  0
 14 15  1  0  0  0  0
 14 21  2  0  0  0  0
 15 16  1  0  0  0  0
 15 17  2  0  0  0  0
 17 18  1  0  0  0  0
 17 19  1  0  0  0  0
 19 20  1  0  0  0  0
 19 21  1  0  0  0  0
 21 22  1  0  0  0  0
 23 24  2  0  0  0  0
 23 25  1  0  0  0  0
 25 26  1  0  0  0  0
 25 27  1  0  0  0  0
 27 28  1  0  0  0  0
 27 29  1  0  0  0  0
 27 30  1  0  0  0  0
M  CHG  1  15   1
M  END
$$$$

  -OEChem-01062216083D

 30 30  0     1  0  0  0  0  0999 V2000
   -3.3679   -2.1682    1.3582 H   0  0  0  0  0  0  0  0  0  0  0  0
   -3.2964   -1.2839    0.7178 C   0  0  0  0  0  0  0  0  0  0  0  0
   -3.7345   -0.4350    1.2478 H   0  0  0  0  0  0  0  0  0  0  0  0
   -3.8609   -1.4683   -0.1992 H   0  0  0  0  0  0  0  0  0  0  0  0
   -1.8437   -0.9995    0.3884 C   0  0  0  0  0  0  0  0  0  0  0  0
   -0.9857   -1.8043    0.7048 O   0  0  0  0  0  0  0  0  0  0  0  0
   -1.5132    0.0895   -0.4029 N   0  0  0  0  0  0  0  0  0  0  0  0
   -2.3092    0.6656   -0.6536 H   0  0  0  0  0  0  0  0  0  0  0  0
   -0.1883    0.7545   -0.4036 C   0  0  1  0  0  0  0  0  0  0  0  0
    0.3468    0.4269   -1.2997 H   0  0  0  0  0  0  0  0  0  0  0  0
   -0.3892    2.2842   -0.4754 C   0  0  0  0  0  0  0  0  0  0  0  0
   -0.9953    2.6044    0.3803 H   0  0  0  0  0  0  0  0  0  0  0  0
    0.5806    2.7864   -0.3792 H   0  0  0  0  0  0  0  0  0  0  0  0
   -1.0437    2.7239   -1.7630 C   0  0  0  0  0  0  0  0  0  0  0  0
   -0.4331    2.7926   -3.0174 N   0  3  0  0  0  0  0  0  0  0  0  0
    0.5387    2.5155   -3.1824 H   0  0  0  0  0  0  0  0  0  0  0  0
   -1.2628    3.2932   -3.9009 C   0  0  0  0  0  0  0  0  0  0  0  0
   -1.0542    3.4719   -4.9582 H   0  0  0  0  0  0  0  0  0  0  0  0
   -2.4553    3.5710   -3.2362 N   0  0  0  0  0  0  0  0  0  0  0  0
   -3.2872    3.9984   -3.6564 H   0  0  0  0  0  0  0  0  0  0  0  0
   -2.3129    3.2313   -1.8955 C   0  0  0  0  0  0  0  0  0  0  0  0
   -3.0457    3.3679   -1.0989 H   0  0  0  0  0  0  0  0  0  0  0  0
    0.7507    0.4281    0.7890 C   0  0  0  0  0  0  0  0  0  0  0  0
    0.6560    1.0955    1.8115 O   0  0  0  0  0  0  0  0  0  0  0  0
    1.8324   -0.4173    0.6234 N   0  0  0  0  0  0  0  0  0  0  0  0
    1.7215   -1.1266   -0.0974 H   0  0  0  0  0  0  0  0  0  0  0  0
    2.7235   -0.7396    1.7352 C   0  0  0  0  0  0  0  0  0  0  0  0
    2.1650   -1.2190    2.5469 H   0  0  0  0  0  0  0  0  0  0  0  0
    3.5118   -1.4237    1.4055 H   0  0  0  0  0  0  0  0  0  0  0  0
    3.1981    0.1671    2.1255 H   0  0  0  0  0  0  0  0  0  0  0  0
  1  2  1  0  0  0  0
  2  3  1  0  0  0  0
  2  4  1  0  0  0  0
  2  5  1  0  0  0  0
  5  6  2  0  0  0  0
  5  7  1  0  0  0  0
  7  8  1  0  0  0  0
  7  9  1  0  0  0  0
  9 10  1  0  0  0  0
  9 11  1  0  0  0  0
  9 23  1  0  0  0  0
 11 12  1  0  0  0  0
 11 13  1  0  0  0  0
 11 14  1  0  0  0  0
 14 15  1  0  0  0  0
 14 21  2  0  0  0  0
 15 16  1  0  0  0  0
 15 17  2  0  0  0  0
 17 18  1  0  0  0  0
 17 19  1  0  0  0  0
 19 20  1  0  0  0  0
 19 21  1  0  0  0  0
 21 22  1  0  0  0  0
 23 24  2  0  0  0  0
 23 25  1  0  0  0  0
 25 26  1  0  0  0  0
 25 27  1  0  0  0  0
 27 28  1  0  0  0  0
 27 29  1  0  0  0  0
 27 30  1  0  0  0  0
M  CHG  1  15   1
M  END
$$$$

  -OEChem-01062216083D

 30 30  0     1  0  0  0  0  0999 V2000
   -3.3183   -2.1647    1.3915 H   0  0  0  0  0  0  0  0  0  0  0  0
   -3.2616   -1.2775    0.7537 C   0  0  0  0  0  0  0  0  0  0  0  0
   -3.6723   -0.4274    1.3033 H   0  0  0  0  0  0  0  0  0  0  0  0
   -3.8594   -1.4520   -0.1438 H   0  0  0  0  0  0  0  0  0  0  0  0
   -1.8190   -1.0047    0.3754 C   0  0  0  0  0  0  0  0  0  0  0  0
   -0.9582   -1.8221    0.6507 O   0  0  0  0  0  0  0  0  0  0  0  0
   -1.5039    0.0803   -0.4279 N   0  0  0  0  0  0  0  0  0  0  0  0
   -2.3035    0.6641   -0.6463 H   0  0  0  0  0  0  0  0  0  0  0  0
   -0.1814    0.7492   -0.4266 C   0  0  1  0  0  0  0  0  0  0  0  0
    0.3565    0.4222   -1.3207 H   0  0  0  0  0  0  0  0  0  0  0  0
   -0.3823    2.2779   -0.4867 C   0  0  0  0  0  0  0  0  0  0  0  0
   -0.9868    2.5923    0.3725 H   0  0  0  0  0  0  0  0  0  0  0  0
    0.5876    2.7790   -0.3890 H   0  0  0  0  0  0  0  0  0  0  0  0
   -1.0401    2.7250   -1.7705 C   0  0  0  0  0  0  0  0  0  0  0  0
   -0.4353    2.8026   -3.0272 N   0  3  0  0  0  0  0  0  0  0  0  0
    0.5352    2.5256   -3.1994 H   0  0  0  0  0  0  0  0  0  0  0  0
   -1.2713    3.3024   -3.9054 C   0  0  0  0  0  0  0  0  0  0  0  0
   -1.0696    3.4833   -4.9635 H   0  0  0  0  0  0  0  0  0  0  0  0
   -2.4614    3.5738   -3.2338 N   0  0  0  0  0  0  0  0  0  0  0  0
   -3.2986    3.9955   -3.6491 H   0  0  0  0  0  0  0  0  0  0  0  0
   -2.3120    3.2278   -1.8955 C   0  0  0  0  0  0  0  0  0  0  0  0
   -3.0431    3.3552   -1.0958 H   0  0  0  0  0  0  0  0  0  0  0  0
    0.7466    0.4292    0.7749 C   0  0  0  0  0  0  0  0  0  0  0  0
    0.4826    0.9353    1.8583 O   0  0  0  0  0  0  0  0  0  0  0  0
    1.9866   -0.1523    0.5795 N   0  0  0  0  0  0  0  0  0  0  0  0
    2.0800   -0.7342   -0.2487 H   0  0  0  0  0  0  0  0  0  0  0  0
    2.8792   -0.4411    1.6999 C   0  0  0  0  0  0  0  0  0  0  0  0
    2.3976   -1.1254    2.4074 H   0  0  0  0  0  0  0  0  0  0  0  0
    3.8023   -0.9074    1.3416 H   0  0  0  0  0  0  0  0  0  0  0  0
    3.1448    0.4798    2.2304 H   0  0  0  0  0  0  0  0  0  0  0  0
  1  2  1  0  0  0  0
  2  3  1  0  0  0  0
  2  4  1  0  0  0  0
  2  5  1  0  0  0  0
  5  6  2  0  0  0  0
  5  7  1  0  0  0  0
  7  8  1  0  0  0  0
  7  9  1  0  0  0  0
  9 10  1  0  0  0  0
  9 11  1  0  0  0  0
  9 23  1  0  0  0  0
 11 12  1  0  0  0  0
 11 13  1  0  0  0  0
 11 14  1  0  0  0  0
 14 15  1  0  0  0  0
 14 21  2  0  0  0  0
 15 16  1  0  0  0  0
 15 17  2  0  0  0  0
 17 18  1  0  0  0  0
 17 19  1  0  0  0  0
 19 20  1  0  0  0  0
 19 21  1  0  0  0  0
 21 22  1  0  0  0  0
 23 24  2  0  0  0  0
 23 25  1  0  0  0  0
 25 26  1  0  0  0  0
 25 27  1  0  0  0  0
 27 28  1  0  0  0  0
 27 29  1  0  0  0  0
 27 30  1  0  0  0  0
M  CHG  1  15   1
M  END
$$$$

  -OEChem-01062216083D

 30 30  0     1  0  0  0  0  0999 V2000
   -3.2948   -2.1577    1.4110 H   0  0  0  0  0  0  0  0  0  0  0  0
   -3.2421   -1.2659    0.7795 C   0  0  0  0  0  0  0  0  0  0  0  0
   -3.6165   -0.4134    1.3509 H   0  0  0  0  0  0  0  0  0  0  0  0
   -3.8736   -1.4195   -0.0985 H   0  0  0  0  0  0  0  0  0  0  0  0
   -1.8078   -1.0171    0.3553 C   0  0  0  0  0  0  0  0  0  0  0  0
   -0.9533   -1.8550    0.5869 O   0  0  0  0  0  0  0  0  0  0  0  0
   -1.4972    0.0659   -0.4524 N   0  0  0  0  0  0  0  0  0  0  0  0
   -2.2963    0.6597   -0.6428 H   0  0  0  0  0  0  0  0  0  0  0  0
   -0.1747    0.7357   -0.4419 C   0  0  1  0  0  0  0  0  0  0  0  0
    0.3688    0.4105   -1.3333 H   0  0  0  0  0  0  0  0  0  0  0  0
   -0.3778    2.2640   -0.4890 C   0  0  0  0  0  0  0  0  0  0  0  0
   -0.9853    2.5687    0.3716 H   0  0  0  0  0  0  0  0  0  0  0  0
    0.5904    2.7671   -0.3841 H   0  0  0  0  0  0  0  0  0  0  0  0
   -1.0337    2.7200   -1.7712 C   0  0  0  0  0  0  0  0  0  0  0  0
   -0.4298    2.8101   -3.0278 N   0  3  0  0  0  0  0  0  0  0  0  0
    0.5413    2.5379   -3.2035 H   0  0  0  0  0  0  0  0  0  0  0  0
   -1.2697    3.3100   -3.9022 C   0  0  0  0  0  0  0  0  0  0  0  0
   -1.0709    3.4973   -4.9598 H   0  0  0  0  0  0  0  0  0  0  0  0
   -2.4608    3.5705   -3.2282 N   0  0  0  0  0  0  0  0  0  0  0  0
   -3.3022    3.9862   -3.6414 H   0  0  0  0  0  0  0  0  0  0  0  0
   -2.3083    3.2171   -1.8924 C   0  0  0  0  0  0  0  0  0  0  0  0
   -3.0397    3.3339   -1.0916 H   0  0  0  0  0  0  0  0  0  0  0  0
    0.7438    0.4210    0.7674 C   0  0  0  0  0  0  0  0  0  0  0  0
    0.3613    0.7664    1.8783 O   0  0  0  0  0  0  0  0  0  0  0  0
    2.0845    0.1333    0.5805 N   0  0  0  0  0  0  0  0  0  0  0  0
    2.3346   -0.2995   -0.3040 H   0  0  0  0  0  0  0  0  0  0  0  0
    2.9836   -0.0874    1.7113 C   0  0  0  0  0  0  0  0  0  0  0  0
    2.6270   -0.9208    2.3272 H   0  0  0  0  0  0  0  0  0  0  0  0
    3.9913   -0.3259    1.3568 H   0  0  0  0  0  0  0  0  0  0  0  0
    3.0441    0.8094    2.3377 H   0  0  0  0  0  0  0  0  0  0  0  0
  1  2  1  0  0  0  0
  2  3  1  0  0  0  0
  2  4  1  0  0  0  0
  2  5  1  0  0  0  0
  5  6  2  0  0  0  0
  5  7  1  0  0  0  0
  7  8  1  0  0  0  0
  7  9  1  0  0  0  0
  9 10  1  0  0  0  0
  9 11  1  0  0  0  0
  9 23  1  0  0  0  0
 11 12  1  0  0  0  0
 11 13  1  0  0  0  0
 11 14  1  0  0  0  0
 14 15  1  0  0  0  0
 14 21  2  0  0  0  0
 15 16  1  0  0  0  0
 15 17  2  0  0  0  0
 17 18  1  0  0  0  0
 17 19  1  0  0  0  0
 19 20  1  0  0  0  0
 19 21  1  0  0  0  0
 21 22  1  0  0  0  0
 23 24  2  0  0  0  0
 23 25  1  0  0  0  0
 25 26  1  0  0  0  0
 25 27  1  0  0  0  0
 27 28  1  0  0  0  0
 27 29  1  0  0  0  0
 27 30  1  0  0  0  0
M  CHG  1  15   1
M  END
$$$$

  -OEChem-01062216083D

 30 30  0     1  0  0  0  0  0999 V2000
   -3.2739   -2.1349    1.4436 H   0  0  0  0  0  0  0  0  0  0  0  0
   -3.2280   -1.2469    0.8062 C   0  0  0  0  0  0  0  0  0  0  0  0
   -3.5614   -0.3846    1.3881 H   0  0  0  0  0  0  0  0  0  0  0  0
   -3.8964   -1.3904   -0.0456 H   0  0  0  0  0  0  0  0  0  0  0  0
   -1.8065   -1.0306    0.3254 C   0  0  0  0  0  0  0  0  0  0  0  0
   -0.9667   -1.8976    0.4971 O   0  0  0  0  0  0  0  0  0  0  0  0
   -1.4949    0.0547   -0.4783 N   0  0  0  0  0  0  0  0  0  0  0  0
   -2.2892    0.6645   -0.6333 H   0  0  0  0  0  0  0  0  0  0  0  0
   -0.1688    0.7181   -0.4517 C   0  0  1  0  0  0  0  0  0  0  0  0
    0.3800    0.3989   -1.3423 H   0  0  0  0  0  0  0  0  0  0  0  0
   -0.3766    2.2454   -0.4825 C   0  0  0  0  0  0  0  0  0  0  0  0
   -0.9897    2.5372    0.3785 H   0  0  0  0  0  0  0  0  0  0  0  0
    0.5884    2.7519   -0.3665 H   0  0  0  0  0  0  0  0  0  0  0  0
   -1.0268    2.7116   -1.7645 C   0  0  0  0  0  0  0  0  0  0  0  0
   -0.4169    2.8171   -3.0172 N   0  3  0  0  0  0  0  0  0  0  0  0
    0.5548    2.5467   -3.1921 H   0  0  0  0  0  0  0  0  0  0  0  0
   -1.2554    3.3186   -3.8921 C   0  0  0  0  0  0  0  0  0  0  0  0
   -1.0524    3.5154   -4.9472 H   0  0  0  0  0  0  0  0  0  0  0  0
   -2.4519    3.5651   -3.2227 N   0  0  0  0  0  0  0  0  0  0  0  0
   -3.2945    3.9770   -3.6375 H   0  0  0  0  0  0  0  0  0  0  0  0
   -2.3045    3.2000   -1.8893 C   0  0  0  0  0  0  0  0  0  0  0  0
   -3.0432    3.3017   -1.0931 H   0  0  0  0  0  0  0  0  0  0  0  0
    0.7440    0.3991    0.7621 C   0  0  0  0  0  0  0  0  0  0  0  0
    0.2813    0.5783    1.8819 O   0  0  0  0  0  0  0  0  0  0  0  0
    2.1214    0.4153    0.6188 N   0  0  0  0  0  0  0  0  0  0  0  0
    2.4872    0.1397   -0.2877 H   0  0  0  0  0  0  0  0  0  0  0  0
    3.0164    0.2922    1.7684 C   0  0  0  0  0  0  0  0  0  0  0  0
    2.8302   -0.6463    2.3024 H   0  0  0  0  0  0  0  0  0  0  0  0
    4.0611    0.3027    1.4419 H   0  0  0  0  0  0  0  0  0  0  0  0
    2.8675    1.1248    2.4647 H   0  0  0  0  0  0  0  0  0  0  0  0
  1  2  1  0  0  0  0
  2  3  1  0  0  0  0
  2  4  1  0  0  0  0
  2  5  1  0  0  0  0
  5  6  2  0  0  0  0
  5  7  1  0  0  0  0
  7  8  1  0  0  0  0
  7  9  1  0  0  0  0
  9 10  1  0  0  0  0
  9 11  1  0  0  0  0
  9 23  1  0  0  0  0
 11 12  1  0  0  0  0
 11 13  1  0  0  0  0
 11 14  1  0  0  0  0
 14 15  1  0  0  0  0
 14 21  2  0  0  0  0
 15 16  1  0  0  0  0
 15 17  2  0  0  0  0
 17 18  1  0  0  0  0
 17 19  1  0  0  0  0
 19 20  1  0  0  0  0
 19 21  1  0  0  0  0
 21 22  1  0  0  0  0
 23 24  2  0  0  0  0
 23 25  1  0  0  0  0
 25 26  1  0  0  0  0
 25 27  1  0  0  0  0
 27 28  1  0  0  0  0
 27 29  1  0  0  0  0
 27 30  1  0  0  0  0
M  CHG  1  15   1
M  END
$$$$

  -OEChem-01062216083D

 30 30  0     1  0  0  0  0  0999 V2000
   -3.2916   -2.1461    1.4023 H   0  0  0  0  0  0  0  0  0  0  0  0
   -3.2267   -1.2252    0.8151 C   0  0  0  0  0  0  0  0  0  0  0  0
   -3.5104   -0.3858    1.4539 H   0  0  0  0  0  0  0  0  0  0  0  0
   -3.9214   -1.2941   -0.0249 H   0  0  0  0  0  0  0  0  0  0  0  0
   -1.8100   -1.0346    0.3101 C   0  0  0  0  0  0  0  0  0  0  0  0
   -0.9907   -1.9290    0.4339 O   0  0  0  0  0  0  0  0  0  0  0  0
   -1.4865    0.0524   -0.4859 N   0  0  0  0  0  0  0  0  0  0  0  0
   -2.2748    0.6730   -0.6266 H   0  0  0  0  0  0  0  0  0  0  0  0
   -0.1555    0.7079   -0.4483 C   0  0  1  0  0  0  0  0  0  0  0  0
    0.3956    0.3903   -1.3381 H   0  0  0  0  0  0  0  0  0  0  0  0
   -0.3734    2.2347   -0.4724 C   0  0  0  0  0  0  0  0  0  0  0  0
   -0.9925    2.5167    0.3879 H   0  0  0  0  0  0  0  0  0  0  0  0
    0.5849    2.7518   -0.3523 H   0  0  0  0  0  0  0  0  0  0  0  0
   -1.0207    2.6996   -1.7565 C   0  0  0  0  0  0  0  0  0  0  0  0
   -0.4086    2.8143   -3.0073 N   0  3  0  0  0  0  0  0  0  0  0  0
    0.5631    2.5455   -3.1833 H   0  0  0  0  0  0  0  0  0  0  0  0
   -1.2503    3.3081   -3.8835 C   0  0  0  0  0  0  0  0  0  0  0  0
   -1.0485    3.5030   -4.9394 H   0  0  0  0  0  0  0  0  0  0  0  0
   -2.4488    3.5475   -3.2151 N   0  0  0  0  0  0  0  0  0  0  0  0
   -3.2939    3.9529   -3.6309 H   0  0  0  0  0  0  0  0  0  0  0  0
   -2.3009    3.1815   -1.8822 C   0  0  0  0  0  0  0  0  0  0  0  0
   -3.0413    3.2778   -1.0869 H   0  0  0  0  0  0  0  0  0  0  0  0
    0.7633    0.3901    0.7649 C   0  0  0  0  0  0  0  0  0  0  0  0
    0.2571    0.3915    1.8801 O   0  0  0  0  0  0  0  0  0  0  0  0
    2.1120    0.7057    0.6995 N   0  0  0  0  0  0  0  0  0  0  0  0
    2.5568    0.6203   -0.2093 H   0  0  0  0  0  0  0  0  0  0  0  0
    2.9791    0.6524    1.8767 C   0  0  0  0  0  0  0  0  0  0  0  0
    2.9536   -0.3455    2.3287 H   0  0  0  0  0  0  0  0  0  0  0  0
    4.0136    0.8794    1.6008 H   0  0  0  0  0  0  0  0  0  0  0  0
    2.6571    1.3830    2.6268 H   0  0  0  0  0  0  0  0  0  0  0  0
  1  2  1  0  0  0  0
  2  3  1  0  0  0  0
  2  4  1  0  0  0  0
  2  5  1  0  0  0  0
  5  6  2  0  0  0  0
  5  7  1  0  0  0  0
  7  8  1  0  0  0  0
  7  9  1  0  0  0  0
  9 10  1  0  0  0  0
  9 11  1  0  0  0  0
  9 23  1  0  0  0  0
 11 12  1  0  0  0  0
 11 13  1  0  0  0  0
 11 14  1  0  0  0  0
 14 15  1  0  0  0  0
 14 21  2  0  0  0  0
 15 16  1  0  0  0  0
 15 17  2  0  0  0  0
 17 18  1  0  0  0  0
 17 19  1  0  0  0  0
 19 20  1  0  0  0  0
 19 21  1  0  0  0  0
 21 22  1  0  0  0  0
 23 24  2  0  0  0  0
 23 25  1  0  0  0  0
 25 26  1  0  0  0  0
 25 27  1  0  0  0  0
 27 28  1  0  0  0  0
 27 29  1  0  0  0  0
 27 30  1  0  0  0  0
M  CHG  1  15   1
M  END
$$$$

  -OEChem-01062216083D

 30 30  0     1  0  0  0  0  0999 V2000
   -3.2984   -2.1309    1.3839 H   0  0  0  0  0  0  0  0  0  0  0  0
   -3.0055   -1.6016    0.4725 C   0  0  0  0  0  0  0  0  0  0  0  0
   -3.9063   -1.2782   -0.0534 H   0  0  0  0  0  0  0  0  0  0  0  0
   -2.4423   -2.2902   -0.1620 H   0  0  0  0  0  0  0  0  0  0  0  0
   -2.1449   -0.4052    0.8280 C   0  0  0  0  0  0  0  0  0  0  0  0
   -2.1060    0.0085    1.9738 O   0  0  0  0  0  0  0  0  0  0  0  0
   -1.6838    0.4607   -0.1454 N   0  0  0  0  0  0  0  0  0  0  0  0
   -2.0947    0.2184   -1.0417 H   0  0  0  0  0  0  0  0  0  0  0  0
   -0.2585    0.8719   -0.2614 C   0  0  1  0  0  0  0  0  0  0  0  0
    0.1068    0.6265   -1.2626 H   0  0  0  0  0  0  0  0  0  0  0  0
   -0.3075    2.4024   -0.0488 C   0  0  0  0  0  0  0  0  0  0  0  0
   -0.7645    2.5991    0.9299 H   0  0  0  0  0  0  0  0  0  0  0  0
    0.7014    2.8240   -0.0154 H   0  0  0  0  0  0  0  0  0  0  0  0
   -1.0834    3.1218   -1.1288 C   0  0  0  0  0  0  0  0  0  0  0  0
   -0.6943    3.3952   -2.4430 N   0  3  0  0  0  0  0  0  0  0  0  0
    0.2147    3.1265   -2.8283 H   0  0  0  0  0  0  0  0  0  0  0  0
   -1.6346    4.0697   -3.0624 C   0  0  0  0  0  0  0  0  0  0  0  0
   -1.6037    4.4317   -4.0926 H   0  0  0  0  0  0  0  0  0  0  0  0
   -2.6801    4.2494   -2.1589 N   0  0  0  0  0  0  0  0  0  0  0  0
   -3.5561    4.7482   -2.3456 H   0  0  0  0  0  0  0  0  0  0  0  0
   -2.3317    3.6627   -0.9492 C   0  0  0  0  0  0  0  0  0  0  0  0
   -2.9206    3.6271   -0.0303 H   0  0  0  0  0  0  0  0  0  0  0  0
    0.8043    0.3093    0.7366 C   0  0  0  0  0  0  0  0  0  0  0  0
    0.6280   -0.7492    1.3177 O   0  0  0  0  0  0  0  0  0  0  0  0
    2.1296    0.7054    0.6198 N   0  0  0  0  0  0  0  0  0  0  0  0
    2.3433    1.5266    0.0656 H   0  0  0  0  0  0  0  0  0  0  0  0
    3.2213    0.0753    1.3634 C   0  0  0  0  0  0  0  0  0  0  0  0
    3.3199   -0.9798    1.0849 H   0  0  0  0  0  0  0  0  0  0  0  0
    4.1703    0.5764    1.1488 H   0  0  0  0  0  0  0  0  0  0  0  0
    3.0367    0.1356    2.4418 H   0  0  0  0  0  0  0  0  0  0  0  0
  1  2  1  0  0  0  0
  2  3  1  0  0  0  0
  2  4  1  0  0  0  0
  2  5  1  0  0  0  0
  5  6  2  0  0  0  0
  5  7  1  0  0  0  0
  7  8  1  0  0  0  0
  7  9  1  0  0  0  0
  9 10  1  0  0  0  0
  9 11  1  0  0  0  0
  9 23  1  0  0  0  0
 11 12  1  0  0  0  0
 11 13  1  0  0  0  0
 11 14  1  0  0  0  0
 14 15  1  0  0  0  0
 14 21  2  0  0  0  0
 15 16  1  0  0  0  0
 15 17  2  0  0  0  0
 17 18  1  0  0  0  0
 17 19  1  0  0  0  0
 19 20  1  0  0  0  0
 19 21  1  0  0  0  0
 21 22  1  0  0  0  0
 23 24  2  0  0  0  0
 23 25  1  0  0  0  0
 25 26  1  0  0  0  0
 25 27  1  0  0  0  0
 27 28  1  0  0  0  0
 27 29  1  0  0  0  0
 27 30  1  0  0  0  0
M  CHG  1  15   1
M  END
$$$$

  -OEChem-01062216083D

 30 30  0     1  0  0  0  0  0999 V2000
   -3.2745   -2.1497    1.3752 H   0  0  0  0  0  0  0  0  0  0  0  0
   -3.0385   -1.5655    0.4807 C   0  0  0  0  0  0  0  0  0  0  0  0
   -3.9671   -1.1739    0.0600 H   0  0  0  0  0  0  0  0  0  0  0  0
   -2.5599   -2.2249   -0.2473 H   0  0  0  0  0  0  0  0  0  0  0  0
   -2.1028   -0.4284    0.8408 C   0  0  0  0  0  0  0  0  0  0  0  0
   -1.9330   -0.1146    2.0068 O   0  0  0  0  0  0  0  0  0  0  0  0
   -1.6751    0.4749   -0.1158 N   0  0  0  0  0  0  0  0  0  0  0  0
   -2.1061    0.2681   -1.0116 H   0  0  0  0  0  0  0  0  0  0  0  0
   -0.2583    0.9137   -0.2349 C   0  0  1  0  0  0  0  0  0  0  0  0
    0.1124    0.6658   -1.2338 H   0  0  0  0  0  0  0  0  0  0  0  0
   -0.3186    2.4464   -0.0479 C   0  0  0  0  0  0  0  0  0  0  0  0
   -0.7758    2.6601    0.9265 H   0  0  0  0  0  0  0  0  0  0  0  0
    0.6854    2.8792   -0.0334 H   0  0  0  0  0  0  0  0  0  0  0  0
   -1.1007    3.1294   -1.1462 C   0  0  0  0  0  0  0  0  0  0  0  0
   -0.6999    3.3689   -2.4632 N   0  3  0  0  0  0  0  0  0  0  0  0
    0.2135    3.0910   -2.8321 H   0  0  0  0  0  0  0  0  0  0  0  0
   -1.6381    4.0186   -3.1111 C   0  0  0  0  0  0  0  0  0  0  0  0
   -1.5992    4.3508   -4.1509 H   0  0  0  0  0  0  0  0  0  0  0  0
   -2.6936    4.2168   -2.2232 N   0  0  0  0  0  0  0  0  0  0  0  0
   -3.5700    4.7058   -2.4329 H   0  0  0  0  0  0  0  0  0  0  0  0
   -2.3542    3.6663   -0.9936 C   0  0  0  0  0  0  0  0  0  0  0  0
   -2.9522    3.6546   -0.0803 H   0  0  0  0  0  0  0  0  0  0  0  0
    0.7881    0.3136    0.7568 C   0  0  0  0  0  0  0  0  0  0  0  0
    0.7312   -0.8822    1.0049 O   0  0  0  0  0  0  0  0  0  0  0  0
    2.0397    0.8927    0.9171 N   0  0  0  0  0  0  0  0  0  0  0  0
    2.1340    1.8829    0.7229 H   0  0  0  0  0  0  0  0  0  0  0  0
    3.1243    0.2404    1.6517 C   0  0  0  0  0  0  0  0  0  0  0  0
    3.4131   -0.6970    1.1634 H   0  0  0  0  0  0  0  0  0  0  0  0
    4.0042    0.8900    1.6912 H   0  0  0  0  0  0  0  0  0  0  0  0
    2.8133    0.0174    2.6784 H   0  0  0  0  0  0  0  0  0  0  0  0
  1  2  1  0  0  0  0
  2  3  1  0  0  0  0
  2  4  1  0  0  0  0
  2  5  1  0  0  0  0
  5  6  2  0  0  0  0
  5  7  1  0  0  0  0
  7  8  1  0  0  0  0
  7  9  1  0  0  0  0
  9 10  1  0  0  0  0
  9 11  1  0  0  0  0
  9 23  1  0  0  0  0
 11 12  1  0  0  0  0
 11 13  1  0  0  0  0
 11 14  1  0  0  0  0
 14 15  1  0  0  0  0
 14 21  2  0  0  0  0
 15 16  1  0  0  0  0
 15 17  2  0  0  0  0
 17 18  1  0  0  0  0
 17 19  1  0  0  0  0
 19 20  1  0  0  0  0
 19 21  1  0  0  0  0
 21 22  1  0  0  0  0
 23 24  2  0  0  0  0
 23 25  1  0  0  0  0
 25 26  1  0  0  0  0
 25 27  1  0  0  0  0
 27 28  1  0  0  0  0
 27 29  1  0  0  0  0
 27 30  1  0  0  0  0
M  CHG  1  15   1
M  END
$$$$

  -OEChem-01062216083D

 30 30  0     1  0  0  0  0  0999 V2000
   -3.2495   -2.1723    1.3604 H   0  0  0  0  0  0  0  0  0  0  0  0
   -3.0531   -1.5483    0.4836 C   0  0  0  0  0  0  0  0  0  0  0  0
   -3.9953   -1.1165    0.1392 H   0  0  0  0  0  0  0  0  0  0  0  0
   -2.6350   -2.1794   -0.3042 H   0  0  0  0  0  0  0  0  0  0  0  0
   -2.0717   -0.4501    0.8428 C   0  0  0  0  0  0  0  0  0  0  0  0
   -1.8198   -0.2083    2.0111 O   0  0  0  0  0  0  0  0  0  0  0  0
   -1.6711    0.4798   -0.1011 N   0  0  0  0  0  0  0  0  0  0  0  0
   -2.1213    0.3004   -0.9935 H   0  0  0  0  0  0  0  0  0  0  0  0
   -0.2631    0.9401   -0.2267 C   0  0  1  0  0  0  0  0  0  0  0  0
    0.1067    0.6924   -1.2263 H   0  0  0  0  0  0  0  0  0  0  0  0
   -0.3222    2.4730   -0.0541 C   0  0  0  0  0  0  0  0  0  0  0  0
   -0.7735    2.6991    0.9200 H   0  0  0  0  0  0  0  0  0  0  0  0
    0.6838    2.9022   -0.0569 H   0  0  0  0  0  0  0  0  0  0  0  0
   -1.1097    3.1382   -1.1586 C   0  0  0  0  0  0  0  0  0  0  0  0
   -0.7061    3.3563   -2.4784 N   0  3  0  0  0  0  0  0  0  0  0  0
    0.2082    3.0714   -2.8407 H   0  0  0  0  0  0  0  0  0  0  0  0
   -1.6438    3.9933   -3.1392 C   0  0  0  0  0  0  0  0  0  0  0  0
   -1.6033    4.3063   -4.1849 H   0  0  0  0  0  0  0  0  0  0  0  0
   -2.7010    4.2063   -2.2563 N   0  0  0  0  0  0  0  0  0  0  0  0
   -3.5774    4.6907   -2.4763 H   0  0  0  0  0  0  0  0  0  0  0  0
   -2.3637    3.6768   -1.0166 C   0  0  0  0  0  0  0  0  0  0  0  0
   -2.9634    3.6810   -0.1046 H   0  0  0  0  0  0  0  0  0  0  0  0
    0.7753    0.3159    0.7547 C   0  0  0  0  0  0  0  0  0  0  0  0
    0.8422   -0.9054    0.7783 O   0  0  0  0  0  0  0  0  0  0  0  0
    1.8975    1.0047    1.1929 N   0  0  0  0  0  0  0  0  0  0  0  0
    1.8282    2.0142    1.2587 H   0  0  0  0  0  0  0  0  0  0  0  0
    2.9602    0.3535    1.9585 C   0  0  0  0  0  0  0  0  0  0  0  0
    3.4300   -0.4413    1.3685 H   0  0  0  0  0  0  0  0  0  0  0  0
    3.7334    1.0780    2.2326 H   0  0  0  0  0  0  0  0  0  0  0  0
    2.5572   -0.0866    2.8775 H   0  0  0  0  0  0  0  0  0  0  0  0
  1  2  1  0  0  0  0
  2  3  1  0  0  0  0
  2  4  1  0  0  0  0
  2  5  1  0  0  0  0
  5  6  2  0  0  0  0
  5  7  1  0  0  0  0
  7  8  1  0  0  0  0
  7  9  1  0  0  0  0
  9 10  1  0  0  0  0
  9 11  1  0  0  0  0
  9 23  1  0  0  0  0
 11 12  1  0  0  0  0
 11 13  1  0  0  0  0
 11 14  1  0  0  0  0
 14 15  1  0  0  0  0
 14 21  2  0  0  0  0
 15 16  1  0  0  0  0
 15 17  2  0  0  0  0
 17 18  1  0  0  0  0
 17 19  1  0  0  0  0
 19 20  1  0  0  0  0
 19 21  1  0  0  0  0
 21 22  1  0  0  0  0
 23 24  2  0  0  0  0
 23 25  1  0  0  0  0
 25 26  1  0  0  0  0
 25 27  1  0  0  0  0
 27 28  1  0  0  0  0
 27 29  1  0  0  0  0
 27 30  1  0  0  0  0
M  CHG  1  15   1
M  END
$$$$

  -OEChem-01062216083D

 30 30  0     1  0  0  0  0  0999 V2000
   -3.2393   -2.2037    1.3428 H   0  0  0  0  0  0  0  0  0  0  0  0
   -3.0695   -1.5488    0.4831 C   0  0  0  0  0  0  0  0  0  0  0  0
   -4.0181   -1.0889    0.1977 H   0  0  0  0  0  0  0  0  0  0  0  0
   -2.6962   -2.1548   -0.3460 H   0  0  0  0  0  0  0  0  0  0  0  0
   -2.0555   -0.4805    0.8412 C   0  0  0  0  0  0  0  0  0  0  0  0
   -1.7402   -0.3027    2.0055 O   0  0  0  0  0  0  0  0  0  0  0  0
   -1.6752    0.4707   -0.0910 N   0  0  0  0  0  0  0  0  0  0  0  0
   -2.1434    0.3176   -0.9791 H   0  0  0  0  0  0  0  0  0  0  0  0
   -0.2751    0.9496   -0.2215 C   0  0  1  0  0  0  0  0  0  0  0  0
    0.0898    0.7030   -1.2234 H   0  0  0  0  0  0  0  0  0  0  0  0
   -0.3251    2.4826   -0.0572 C   0  0  0  0  0  0  0  0  0  0  0  0
   -0.7725    2.7180    0.9159 H   0  0  0  0  0  0  0  0  0  0  0  0
    0.6866    2.9014   -0.0662 H   0  0  0  0  0  0  0  0  0  0  0  0
   -1.1137    3.1436   -1.1633 C   0  0  0  0  0  0  0  0  0  0  0  0
   -0.7070    3.3469   -2.4845 N   0  3  0  0  0  0  0  0  0  0  0  0
    0.2068    3.0537   -2.8419 H   0  0  0  0  0  0  0  0  0  0  0  0
   -1.6384    3.9854   -3.1525 C   0  0  0  0  0  0  0  0  0  0  0  0
   -1.5936    4.2888   -4.2010 H   0  0  0  0  0  0  0  0  0  0  0  0
   -2.6944    4.2152   -2.2725 N   0  0  0  0  0  0  0  0  0  0  0  0
   -3.5661    4.7055   -2.4979 H   0  0  0  0  0  0  0  0  0  0  0  0
   -2.3627    3.6957   -1.0271 C   0  0  0  0  0  0  0  0  0  0  0  0
   -2.9627    3.7175   -0.1156 H   0  0  0  0  0  0  0  0  0  0  0  0
    0.7658    0.3144    0.7456 C   0  0  0  0  0  0  0  0  0  0  0  0
    0.9683   -0.8836    0.6048 O   0  0  0  0  0  0  0  0  0  0  0  0
    1.7128    1.0525    1.4394 N   0  0  0  0  0  0  0  0  0  0  0  0
    1.4673    2.0091    1.6715 H   0  0  0  0  0  0  0  0  0  0  0  0
    2.7449    0.4102    2.2515 C   0  0  0  0  0  0  0  0  0  0  0  0
    3.3756   -0.2381    1.6330 H   0  0  0  0  0  0  0  0  0  0  0  0
    3.3855    1.1636    2.7203 H   0  0  0  0  0  0  0  0  0  0  0  0
    2.2890   -0.1972    3.0414 H   0  0  0  0  0  0  0  0  0  0  0  0
  1  2  1  0  0  0  0
  2  3  1  0  0  0  0
  2  4  1  0  0  0  0
  2  5  1  0  0  0  0
  5  6  2  0  0  0  0
  5  7  1  0  0  0  0
  7  8  1  0  0  0  0
  7  9  1  0  0  0  0
  9 10  1  0  0  0  0
  9 11  1  0  0  0  0
  9 23  1  0  0  0  0
 11 12  1  0  0  0  0
 11 13  1  0  0  0  0
 11 14  1  0  0  0  0
 14 15  1  0  0  0  0
 14 21  2  0  0  0  0
 15 16  1  0  0  0  0
 15 17  2  0  0  0  0
 17 18  1  0  0  0  0
 17 19  1  0  0  0  0
 19 20  1  0  0  0  0
 19 21  1  0  0  0  0
 21 22  1  0  0  0  0
 23 24  2  0  0  0  0
 23 25  1  0  0  0  0
 25 26  1  0  0  0  0
 25 27  1  0  0  0  0
 27 28  1  0  0  0  0
 27 29  1  0  0  0  0
 27 30  1  0  0  0  0
M  CHG  1  15   1
M  END
$$$$

  -OEChem-01062216083D

 30 30  0     1  0  0  0  0  0999 V2000
   -3.2628   -2.2325    1.3083 H   0  0  0  0  0  0  0  0  0  0  0  0
   -3.1186   -1.5380    0.4753 C   0  0  0  0  0  0  0  0  0  0  0  0
   -4.0665   -1.0370    0.2667 H   0  0  0  0  0  0  0  0  0  0  0  0
   -2.8108   -2.1098   -0.4034 H   0  0  0  0  0  0  0  0  0  0  0  0
   -2.0539   -0.5188    0.8310 C   0  0  0  0  0  0  0  0  0  0  0  0
   -1.6772   -0.4111    1.9852 O   0  0  0  0  0  0  0  0  0  0  0  0
   -1.6768    0.4479   -0.0871 N   0  0  0  0  0  0  0  0  0  0  0  0
   -2.1626    0.3299   -0.9713 H   0  0  0  0  0  0  0  0  0  0  0  0
   -0.2828    0.9434   -0.2137 C   0  0  1  0  0  0  0  0  0  0  0  0
    0.0794    0.7012   -1.2180 H   0  0  0  0  0  0  0  0  0  0  0  0
   -0.3293    2.4755   -0.0525 C   0  0  0  0  0  0  0  0  0  0  0  0
   -0.7801    2.7154    0.9175 H   0  0  0  0  0  0  0  0  0  0  0  0
    0.6866    2.8859   -0.0554 H   0  0  0  0  0  0  0  0  0  0  0  0
   -1.1136    3.1367   -1.1610 C   0  0  0  0  0  0  0  0  0  0  0  0
   -0.6981    3.3343   -2.4804 N   0  3  0  0  0  0  0  0  0  0  0  0
    0.2173    3.0372   -2.8310 H   0  0  0  0  0  0  0  0  0  0  0  0
   -1.6207    3.9791   -3.1543 C   0  0  0  0  0  0  0  0  0  0  0  0
   -1.5660    4.2832   -4.2021 H   0  0  0  0  0  0  0  0  0  0  0  0
   -2.6812    4.2158   -2.2815 N   0  0  0  0  0  0  0  0  0  0  0  0
   -3.5465    4.7149   -2.5124 H   0  0  0  0  0  0  0  0  0  0  0  0
   -2.3607    3.6951   -1.0333 C   0  0  0  0  0  0  0  0  0  0  0  0
   -2.9662    3.7227   -0.1258 H   0  0  0  0  0  0  0  0  0  0  0  0
    0.7678    0.3117    0.7419 C   0  0  0  0  0  0  0  0  0  0  0  0
    1.1334   -0.8214    0.4642 O   0  0  0  0  0  0  0  0  0  0  0  0
    1.5029    1.0427    1.6621 N   0  0  0  0  0  0  0  0  0  0  0  0
    1.0652    1.8866    2.0177 H   0  0  0  0  0  0  0  0  0  0  0  0
    2.5132    0.4101    2.5077 C   0  0  0  0  0  0  0  0  0  0  0  0
    3.2987   -0.0469    1.8958 H   0  0  0  0  0  0  0  0  0  0  0  0
    2.9797    1.1513    3.1643 H   0  0  0  0  0  0  0  0  0  0  0  0
    2.0587   -0.3683    3.1309 H   0  0  0  0  0  0  0  0  0  0  0  0
  1  2  1  0  0  0  0
  2  3  1  0  0  0  0
  2  4  1  0  0  0  0
  2  5  1  0  0  0  0
  5  6  2  0  0  0  0
  5  7  1  0  0  0  0
  7  8  1  0  0  0  0
  7  9  1  0  0  0  0
  9 10  1  0  0  0  0
  9 11  1  0  0  0  0
  9 23  1  0  0  0  0
 11 12  1  0  0  0  0
 11 13  1  0  0  0  0
 11 14  1  0  0  0  0
 14 15  1  0  0  0  0
 14 21  2  0  0  0  0
 15 16  1  0  0  0  0
 15 17  2  0  0  0  0
 17 18  1  0  0  0  0
 17 19  1  0  0  0  0
 19 20  1  0  0  0  0
 19 21  1  0  0  0  0
 21 22  1  0  0  0  0
 23 24  2  0  0  0  0
 23 25  1  0  0  0  0
 25 26  1  0  0  0  0
 25 27  1  0  0  0  0
 27 28  1  0  0  0  0
 27 29  1  0  0  0  0
 27 30  1  0  0  0  0
M  CHG  1  15   1
M  END
$$$$

  -OEChem-01062216083D

 30 30  0     1  0  0  0  0  0999 V2000
   -3.3356   -2.2418    1.2781 H   0  0  0  0  0  0  0  0  0  0  0  0
   -3.1826   -1.5322    0.4593 C   0  0  0  0  0  0  0  0  0  0  0  0
   -4.1141   -0.9885    0.2866 H   0  0  0  0  0  0  0  0  0  0  0  0
   -2.9196   -2.0930   -0.4407 H   0  0  0  0  0  0  0  0  0  0  0  0
   -2.0695   -0.5653    0.8134 C   0  0  0  0  0  0  0  0  0  0  0  0
   -1.6400   -0.5303    1.9530 O   0  0  0  0  0  0  0  0  0  0  0  0
   -1.6857    0.4146   -0.0882 N   0  0  0  0  0  0  0  0  0  0  0  0
   -2.1850    0.3349   -0.9694 H   0  0  0  0  0  0  0  0  0  0  0  0
   -0.2966    0.9253   -0.2028 C   0  0  1  0  0  0  0  0  0  0  0  0
    0.0648    0.6908   -1.2095 H   0  0  0  0  0  0  0  0  0  0  0  0
   -0.3400    2.4567   -0.0376 C   0  0  0  0  0  0  0  0  0  0  0  0
   -0.8004    2.6958    0.9278 H   0  0  0  0  0  0  0  0  0  0  0  0
    0.6789    2.8608   -0.0243 H   0  0  0  0  0  0  0  0  0  0  0  0
   -1.1147    3.1245   -1.1487 C   0  0  0  0  0  0  0  0  0  0  0  0
   -0.6811    3.3209   -2.4622 N   0  3  0  0  0  0  0  0  0  0  0  0
    0.2367    3.0165   -2.8006 H   0  0  0  0  0  0  0  0  0  0  0  0
   -1.5882    3.9768   -3.1462 C   0  0  0  0  0  0  0  0  0  0  0  0
   -1.5163    4.2832   -4.1923 H   0  0  0  0  0  0  0  0  0  0  0  0
   -2.6569    4.2219   -2.2857 N   0  0  0  0  0  0  0  0  0  0  0  0
   -3.5131    4.7319   -2.5261 H   0  0  0  0  0  0  0  0  0  0  0  0
   -2.3572    3.6956   -1.0344 C   0  0  0  0  0  0  0  0  0  0  0  0
   -2.9722    3.7307   -0.1339 H   0  0  0  0  0  0  0  0  0  0  0  0
    0.7675    0.3066    0.7433 C   0  0  0  0  0  0  0  0  0  0  0  0
    1.3325   -0.6990    0.3389 O   0  0  0  0  0  0  0  0  0  0  0  0
    1.2687    0.9658    1.8540 N   0  0  0  0  0  0  0  0  0  0  0  0
    0.6352    1.6265    2.2943 H   0  0  0  0  0  0  0  0  0  0  0  0
    2.2805    0.3503    2.7098 C   0  0  0  0  0  0  0  0  0  0  0  0
    3.1841    0.1185    2.1356 H   0  0  0  0  0  0  0  0  0  0  0  0
    2.5573    1.0291    3.5225 H   0  0  0  0  0  0  0  0  0  0  0  0
    1.8976   -0.5780    3.1481 H   0  0  0  0  0  0  0  0  0  0  0  0
  1  2  1  0  0  0  0
  2  3  1  0  0  0  0
  2  4  1  0  0  0  0
  2  5  1  0  0  0  0
  5  6  2  0  0  0  0
  5  7  1  0  0  0  0
  7  8  1  0  0  0  0
  7  9  1  0  0  0  0
  9 10  1  0  0  0  0
  9 11  1  0  0  0  0
  9 23  1  0  0  0  0
 11 12  1  0  0  0  0
 11 13  1  0  0  0  0
 11 14  1  0  0  0  0
 14 15  1  0  0  0  0
 14 21  2  0  0  0  0
 15 16  1  0  0  0  0
 15 17  2  0  0  0  0
 17 18  1  0  0  0  0
 17 19  1  0  0  0  0
 19 20  1  0  0  0  0
 19 21  1  0  0  0  0
 21 22  1  0  0  0  0
 23 24  2  0  0  0  0
 23 25  1  0  0  0  0
 25 26  1  0  0  0  0
 25 27  1  0  0  0  0
 27 28  1  0  0  0  0
 27 29  1  0  0  0  0
 27 30  1  0  0  0  0
M  CHG  1  15   1
M  END
$$$$

  -OEChem-01062216083D

 30 30  0     1  0  0  0  0  0999 V2000
   -3.4430   -2.2532    1.2206 H   0  0  0  0  0  0  0  0  0  0  0  0
   -3.2828   -1.5144    0.4295 C   0  0  0  0  0  0  0  0  0  0  0  0
   -4.1897   -0.9151    0.3207 H   0  0  0  0  0  0  0  0  0  0  0  0
   -3.0859   -2.0447   -0.5053 H   0  0  0  0  0  0  0  0  0  0  0  0
   -2.1064   -0.6246    0.7821 C   0  0  0  0  0  0  0  0  0  0  0  0
   -1.6305   -0.6735    1.9019 O   0  0  0  0  0  0  0  0  0  0  0  0
   -1.6986    0.3651   -0.0980 N   0  0  0  0  0  0  0  0  0  0  0  0
   -2.2128    0.3398   -0.9740 H   0  0  0  0  0  0  0  0  0  0  0  0
   -0.3124    0.8880   -0.1929 C   0  0  1  0  0  0  0  0  0  0  0  0
    0.0508    0.6629   -1.2015 H   0  0  0  0  0  0  0  0  0  0  0  0
   -0.3499    2.4177   -0.0165 C   0  0  0  0  0  0  0  0  0  0  0  0
   -0.8164    2.6535    0.9465 H   0  0  0  0  0  0  0  0  0  0  0  0
    0.6720    2.8139    0.0125 H   0  0  0  0  0  0  0  0  0  0  0  0
   -1.1098    3.0976   -1.1293 C   0  0  0  0  0  0  0  0  0  0  0  0
   -0.6566    3.2987   -2.4353 N   0  3  0  0  0  0  0  0  0  0  0  0
    0.2634    2.9882   -2.7625 H   0  0  0  0  0  0  0  0  0  0  0  0
   -1.5463    3.9713   -3.1255 C   0  0  0  0  0  0  0  0  0  0  0  0
   -1.4559    4.2863   -4.1675 H   0  0  0  0  0  0  0  0  0  0  0  0
   -2.6232    4.2231   -2.2772 N   0  0  0  0  0  0  0  0  0  0  0  0
   -3.4679    4.7493   -2.5236 H   0  0  0  0  0  0  0  0  0  0  0  0
   -2.3459    3.6845   -1.0259 C   0  0  0  0  0  0  0  0  0  0  0  0
   -2.9696    3.7256   -0.1318 H   0  0  0  0  0  0  0  0  0  0  0  0
    0.7648    0.2880    0.7480 C   0  0  0  0  0  0  0  0  0  0  0  0
    1.5631   -0.4873    0.2425 O   0  0  0  0  0  0  0  0  0  0  0  0
    1.0240    0.8112    2.0034 N   0  0  0  0  0  0  0  0  0  0  0  0
    0.2056    1.1843    2.4790 H   0  0  0  0  0  0  0  0  0  0  0  0
    2.0761    0.2572    2.8523 C   0  0  0  0  0  0  0  0  0  0  0  0
    3.0503    0.3237    2.3555 H   0  0  0  0  0  0  0  0  0  0  0  0
    2.1353    0.8099    3.7950 H   0  0  0  0  0  0  0  0  0  0  0  0
    1.8702   -0.7947    3.0793 H   0  0  0  0  0  0  0  0  0  0  0  0
  1  2  1  0  0  0  0
  2  3  1  0  0  0  0
  2  4  1  0  0  0  0
  2  5  1  0  0  0  0
  5  6  2  0  0  0  0
  5  7  1  0  0  0  0
  7  8  1  0  0  0  0
  7  9  1  0  0  0  0
  9 10  1  0  0  0  0
  9 11  1  0  0  0  0
  9 23  1  0  0  0  0
 11 12  1  0  0  0  0
 11 13  1  0  0  0  0
 11 14  1  0  0  0  0
 14 15  1  0  0  0  0
 14 21  2  0  0  0  0
 15 16  1  0  0  0  0
 15 17  2  0  0  0  0
 17 18  1  0  0  0  0
 17 19  1  0  0  0  0
 19 20  1  0  0  0  0
 19 21  1  0  0  0  0
 21 22  1  0  0  0  0
 23 24  2  0  0  0  0
 23 25  1  0  0  0  0
 25 26  1  0  0  0  0
 25 27  1  0  0  0  0
 27 28  1  0  0  0  0
 27 29  1  0  0  0  0
 27 30  1  0  0  0  0
M  CHG  1  15   1
M  END
$$$$

  -OEChem-01062216083D

 30 30  0     1  0  0  0  0  0999 V2000
   -3.5853   -2.2385    1.1529 H   0  0  0  0  0  0  0  0  0  0  0  0
   -3.3915   -1.4876    0.3811 C   0  0  0  0  0  0  0  0  0  0  0  0
   -4.2648   -0.8363    0.2984 H   0  0  0  0  0  0  0  0  0  0  0  0
   -3.2331   -2.0013   -0.5702 H   0  0  0  0  0  0  0  0  0  0  0  0
   -2.1644   -0.6739    0.7450 C   0  0  0  0  0  0  0  0  0  0  0  0
   -1.6658   -0.8039    1.8475 O   0  0  0  0  0  0  0  0  0  0  0  0
   -1.7167    0.3163   -0.1142 N   0  0  0  0  0  0  0  0  0  0  0  0
   -2.2439    0.3496   -0.9822 H   0  0  0  0  0  0  0  0  0  0  0  0
   -0.3281    0.8384   -0.1918 C   0  0  1  0  0  0  0  0  0  0  0  0
    0.0356    0.6210   -1.2020 H   0  0  0  0  0  0  0  0  0  0  0  0
   -0.3571    2.3655    0.0028 C   0  0  0  0  0  0  0  0  0  0  0  0
   -0.8249    2.5925    0.9675 H   0  0  0  0  0  0  0  0  0  0  0  0
    0.6677    2.7535    0.0428 H   0  0  0  0  0  0  0  0  0  0  0  0
   -1.1041    3.0652   -1.1057 C   0  0  0  0  0  0  0  0  0  0  0  0
   -0.6370    3.2783   -2.4045 N   0  3  0  0  0  0  0  0  0  0  0  0
    0.2834    2.9632   -2.7265 H   0  0  0  0  0  0  0  0  0  0  0  0
   -1.5128    3.9704   -3.0931 C   0  0  0  0  0  0  0  0  0  0  0  0
   -1.4093    4.2985   -4.1298 H   0  0  0  0  0  0  0  0  0  0  0  0
   -2.5937    4.2240   -2.2504 N   0  0  0  0  0  0  0  0  0  0  0  0
   -3.4286    4.7656   -2.4962 H   0  0  0  0  0  0  0  0  0  0  0  0
   -2.3331    3.6666   -1.0036 C   0  0  0  0  0  0  0  0  0  0  0  0
   -2.9614    3.7074   -0.1128 H   0  0  0  0  0  0  0  0  0  0  0  0
    0.7645    0.2592    0.7431 C   0  0  0  0  0  0  0  0  0  0  0  0
    1.7463   -0.2266    0.2006 O   0  0  0  0  0  0  0  0  0  0  0  0
    0.8201    0.5804    2.0875 N   0  0  0  0  0  0  0  0  0  0  0  0
   -0.0992    0.6557    2.5236 H   0  0  0  0  0  0  0  0  0  0  0  0
    1.9076    0.1068    2.9400 C   0  0  0  0  0  0  0  0  0  0  0  0
    2.8765    0.4440    2.5558 H   0  0  0  0  0  0  0  0  0  0  0  0
    1.7895    0.4950    3.9566 H   0  0  0  0  0  0  0  0  0  0  0  0
    1.9105   -0.9878    2.9850 H   0  0  0  0  0  0  0  0  0  0  0  0
  1  2  1  0  0  0  0
  2  3  1  0  0  0  0
  2  4  1  0  0  0  0
  2  5  1  0  0  0  0
  5  6  2  0  0  0  0
  5  7  1  0  0  0  0
  7  8  1  0  0  0  0
  7  9  1  0  0  0  0
  9 10  1  0  0  0  0
  9 11  1  0  0  0  0
  9 23  1  0  0  0  0
 11 12  1  0  0  0  0
 11 13  1  0  0  0  0
 11 14  1  0  0  0  0
 14 15  1  0  0  0  0
 14 21  2  0  0  0  0
 15 16  1  0  0  0  0
 15 17  2  0  0  0  0
 17 18  1  0  0  0  0
 17 19  1  0  0  0  0
 19 20  1  0  0  0  0
 19 21  1  0  0  0  0
 21 22  1  0  0  0  0
 23 24  2  0  0  0  0
 23 25  1  0  0  0  0
 25 26  1  0  0  0  0
 25 27  1  0  0  0  0
 27 28  1  0  0  0  0
 27 29  1  0  0  0  0
 27 30  1  0  0  0  0
M  CHG  1  15   1
M  END
$$$$

  -OEChem-01062216083D

 30 30  0     1  0  0  0  0  0999 V2000
   -3.7490   -2.2071    1.0522 H   0  0  0  0  0  0  0  0  0  0  0  0
   -3.5191   -1.4252    0.3221 C   0  0  0  0  0  0  0  0  0  0  0  0
   -4.3388   -0.7032    0.3131 H   0  0  0  0  0  0  0  0  0  0  0  0
   -3.4340   -1.8865   -0.6647 H   0  0  0  0  0  0  0  0  0  0  0  0
   -2.2190   -0.7360    0.6899 C   0  0  0  0  0  0  0  0  0  0  0  0
   -1.6903   -0.9999    1.7520 O   0  0  0  0  0  0  0  0  0  0  0  0
   -1.7209    0.2595   -0.1351 N   0  0  0  0  0  0  0  0  0  0  0  0
   -2.2694    0.3826   -0.9813 H   0  0  0  0  0  0  0  0  0  0  0  0
   -0.3332    0.7924   -0.1863 C   0  0  1  0  0  0  0  0  0  0  0  0
    0.0376    0.5864   -1.1963 H   0  0  0  0  0  0  0  0  0  0  0  0
   -0.3798    2.3168    0.0256 C   0  0  0  0  0  0  0  0  0  0  0  0
   -0.8602    2.5266    0.9880 H   0  0  0  0  0  0  0  0  0  0  0  0
    0.6403    2.7156    0.0838 H   0  0  0  0  0  0  0  0  0  0  0  0
   -1.1158    3.0250   -1.0843 C   0  0  0  0  0  0  0  0  0  0  0  0
   -0.6242    3.2555   -2.3707 N   0  3  0  0  0  0  0  0  0  0  0  0
    0.3044    2.9484   -2.6771 H   0  0  0  0  0  0  0  0  0  0  0  0
   -1.4862    3.9577   -3.0661 C   0  0  0  0  0  0  0  0  0  0  0  0
   -1.3614    4.3013   -4.0955 H   0  0  0  0  0  0  0  0  0  0  0  0
   -2.5829    4.2001   -2.2405 N   0  0  0  0  0  0  0  0  0  0  0  0
   -3.4104    4.7500   -2.4932 H   0  0  0  0  0  0  0  0  0  0  0  0
   -2.3455    3.6271   -0.9959 C   0  0  0  0  0  0  0  0  0  0  0  0
   -2.9876    3.6621   -0.1146 H   0  0  0  0  0  0  0  0  0  0  0  0
    0.7858    0.2518    0.7405 C   0  0  0  0  0  0  0  0  0  0  0  0
    1.8759    0.0690    0.2171 O   0  0  0  0  0  0  0  0  0  0  0  0
    0.7032    0.3108    2.1188 N   0  0  0  0  0  0  0  0  0  0  0  0
   -0.2432    0.1634    2.4769 H   0  0  0  0  0  0  0  0  0  0  0  0
    1.8042   -0.1184    2.9768 C   0  0  0  0  0  0  0  0  0  0  0  0
    2.7098    0.4597    2.7633 H   0  0  0  0  0  0  0  0  0  0  0  0
    1.5442    0.0308    4.0294 H   0  0  0  0  0  0  0  0  0  0  0  0
    2.0214   -1.1805    2.8204 H   0  0  0  0  0  0  0  0  0  0  0  0
  1  2  1  0  0  0  0
  2  3  1  0  0  0  0
  2  4  1  0  0  0  0
  2  5  1  0  0  0  0
  5  6  2  0  0  0  0
  5  7  1  0  0  0  0
  7  8  1  0  0  0  0
  7  9  1  0  0  0  0
  9 10  1  0  0  0  0
  9 11  1  0  0  0  0
  9 23  1  0  0  0  0
 11 12  1  0  0  0  0
 11 13  1  0  0  0  0
 11 14  1  0  0  0  0
 14 15  1  0  0  0  0
 14 21  2  0  0  0  0
 15 16  1  0  0  0  0
 15 17  2  0  0  0  0
 17 18  1  0  0  0  0
 17 19  1  0  0  0  0
 19 20  1  0  0  0  0
 19 21  1  0  0  0  0
 21 22  1  0  0  0  0
 23 24  2  0  0  0  0
 23 25  1  0  0  0  0
 25 26  1  0  0  0  0
 25 27  1  0  0  0  0
 27 28  1  0  0  0  0
 27 29  1  0  0  0  0
 27 30  1  0  0  0  0
M  CHG  1  15   1
M  END
$$$$

  -OEChem-01062216083D

 30 30  0     1  0  0  0  0  0999 V2000
   -3.8969   -2.1618    0.9503 H   0  0  0  0  0  0  0  0  0  0  0  0
   -3.6300   -1.3533    0.2627 C   0  0  0  0  0  0  0  0  0  0  0  0
   -4.3991   -0.5795    0.3183 H   0  0  0  0  0  0  0  0  0  0  0  0
   -3.5979   -1.7578   -0.7518 H   0  0  0  0  0  0  0  0  0  0  0  0
   -2.2783   -0.7757    0.6376 C   0  0  0  0  0  0  0  0  0  0  0  0
   -1.7414   -1.1614    1.6560 O   0  0  0  0  0  0  0  0  0  0  0  0
   -1.7295    0.2213   -0.1532 N   0  0  0  0  0  0  0  0  0  0  0  0
   -2.2908    0.4269   -0.9745 H   0  0  0  0  0  0  0  0  0  0  0  0
   -0.3403    0.7577   -0.1762 C   0  0  1  0  0  0  0  0  0  0  0  0
    0.0406    0.5606   -1.1840 H   0  0  0  0  0  0  0  0  0  0  0  0
   -0.4112    2.2810    0.0464 C   0  0  0  0  0  0  0  0  0  0  0  0
   -0.9104    2.4749    1.0025 H   0  0  0  0  0  0  0  0  0  0  0  0
    0.6010    2.6965    0.1254 H   0  0  0  0  0  0  0  0  0  0  0  0
   -1.1339    2.9924   -1.0700 C   0  0  0  0  0  0  0  0  0  0  0  0
   -0.6155    3.2394   -2.3426 N   0  3  0  0  0  0  0  0  0  0  0  0
    0.3228    2.9428   -2.6301 H   0  0  0  0  0  0  0  0  0  0  0  0
   -1.4647    3.9467   -3.0482 C   0  0  0  0  0  0  0  0  0  0  0  0
   -1.3181    4.3044   -4.0698 H   0  0  0  0  0  0  0  0  0  0  0  0
   -2.5810    4.1740   -2.2446 N   0  0  0  0  0  0  0  0  0  0  0  0
   -3.4043    4.7252   -2.5086 H   0  0  0  0  0  0  0  0  0  0  0  0
   -2.3682    3.5879   -1.0014 C   0  0  0  0  0  0  0  0  0  0  0  0
   -3.0278    3.6135   -0.1328 H   0  0  0  0  0  0  0  0  0  0  0  0
    0.7998    0.2500    0.7465 C   0  0  0  0  0  0  0  0  0  0  0  0
    1.9268    0.3070    0.2735 O   0  0  0  0  0  0  0  0  0  0  0  0
    0.6599    0.0183    2.1004 N   0  0  0  0  0  0  0  0  0  0  0  0
   -0.2828   -0.2524    2.3913 H   0  0  0  0  0  0  0  0  0  0  0  0
    1.7707   -0.4160    2.9426 C   0  0  0  0  0  0  0  0  0  0  0  0
    2.5863    0.3146    2.9138 H   0  0  0  0  0  0  0  0  0  0  0  0
    1.4400   -0.5187    3.9808 H   0  0  0  0  0  0  0  0  0  0  0  0
    2.1547   -1.3841    2.6037 H   0  0  0  0  0  0  0  0  0  0  0  0
  1  2  1  0  0  0  0
  2  3  1  0  0  0  0
  2  4  1  0  0  0  0
  2  5  1  0  0  0  0
  5  6  2  0  0  0  0
  5  7  1  0  0  0  0
  7  8  1  0  0  0  0
  7  9  1  0  0  0  0
  9 10  1  0  0  0  0
  9 11  1  0  0  0  0
  9 23  1  0  0  0  0
 11 12  1  0  0  0  0
 11 13  1  0  0  0  0
 11 14  1  0  0  0  0
 14 15  1  0  0  0  0
 14 21  2  0  0  0  0
 15 16  1  0  0  0  0
 15 17  2  0  0  0  0
 17 18  1  0  0  0  0
 17 19  1  0  0  0  0
 19 20  1  0  0  0  0
 19 21  1  0  0  0  0
 21 22  1  0  0  0  0
 23 24  2  0  0  0  0
 23 25  1  0  0  0  0
 25 26  1  0  0  0  0
 25 27  1  0  0  0  0
 27 28  1  0  0  0  0
 27 29  1  0  0  0  0
 27 30  1  0  0  0  0
M  CHG  1  15   1
M  END
$$$$

  -OEChem-01062216083D

 30 30  0     1  0  0  0  0  0999 V2000
   -4.0340   -2.0793    0.8940 H   0  0  0  0  0  0  0  0  0  0  0  0
   -3.7150   -1.2871    0.2097 C   0  0  0  0  0  0  0  0  0  0  0  0
   -4.4467   -0.4771    0.2490 H   0  0  0  0  0  0  0  0  0  0  0  0
   -3.6832   -1.6962   -0.8030 H   0  0  0  0  0  0  0  0  0  0  0  0
   -2.3436   -0.7748    0.6084 C   0  0  0  0  0  0  0  0  0  0  0  0
   -1.8329   -1.2118    1.6185 O   0  0  0  0  0  0  0  0  0  0  0  0
   -1.7505    0.2146   -0.1596 N   0  0  0  0  0  0  0  0  0  0  0  0
   -2.3064    0.4612   -0.9732 H   0  0  0  0  0  0  0  0  0  0  0  0
   -0.3526    0.7333   -0.1667 C   0  0  1  0  0  0  0  0  0  0  0  0
    0.0311    0.5410   -1.1742 H   0  0  0  0  0  0  0  0  0  0  0  0
   -0.4342    2.2572    0.0643 C   0  0  0  0  0  0  0  0  0  0  0  0
   -0.9464    2.4412    1.0157 H   0  0  0  0  0  0  0  0  0  0  0  0
    0.5724    2.6825    0.1589 H   0  0  0  0  0  0  0  0  0  0  0  0
   -1.1465    2.9728   -1.0563 C   0  0  0  0  0  0  0  0  0  0  0  0
   -0.6106    3.2293   -2.3197 N   0  3  0  0  0  0  0  0  0  0  0  0
    0.3344    2.9411   -2.5934 H   0  0  0  0  0  0  0  0  0  0  0  0
   -1.4524    3.9370   -3.0339 C   0  0  0  0  0  0  0  0  0  0  0  0
   -1.2917    4.3024   -4.0508 H   0  0  0  0  0  0  0  0  0  0  0  0
   -2.5815    4.1546   -2.2454 N   0  0  0  0  0  0  0  0  0  0  0  0
   -3.4028    4.7047   -2.5181 H   0  0  0  0  0  0  0  0  0  0  0  0
   -2.3840    3.5632   -1.0020 C   0  0  0  0  0  0  0  0  0  0  0  0
   -3.0559    3.5821   -0.1426 H   0  0  0  0  0  0  0  0  0  0  0  0
    0.8016    0.2335    0.7485 C   0  0  0  0  0  0  0  0  0  0  0  0
    1.9302    0.4547    0.3288 O   0  0  0  0  0  0  0  0  0  0  0  0
    0.6699   -0.2809    2.0218 N   0  0  0  0  0  0  0  0  0  0  0  0
   -0.2657   -0.6034    2.2795 H   0  0  0  0  0  0  0  0  0  0  0  0
    1.7988   -0.7547    2.8173 C   0  0  0  0  0  0  0  0  0  0  0  0
    2.5376    0.0423    2.9535 H   0  0  0  0  0  0  0  0  0  0  0  0
    1.4565   -1.0756    3.8062 H   0  0  0  0  0  0  0  0  0  0  0  0
    2.2846   -1.6043    2.3259 H   0  0  0  0  0  0  0  0  0  0  0  0
  1  2  1  0  0  0  0
  2  3  1  0  0  0  0
  2  4  1  0  0  0  0
  2  5  1  0  0  0  0
  5  6  2  0  0  0  0
  5  7  1  0  0  0  0
  7  8  1  0  0  0  0
  7  9  1  0  0  0  0
  9 10  1  0  0  0  0
  9 11  1  0  0  0  0
  9 23  1  0  0  0  0
 11 12  1  0  0  0  0
 11 13  1  0  0  0  0
 11 14  1  0  0  0  0
 14 15  1  0  0  0  0
 14 21  2  0  0  0  0
 15 16  1  0  0  0  0
 15 17  2  0  0  0  0
 17 18  1  0  0  0  0
 17 19  1  0  0  0  0
 19 20  1  0  0  0  0
 19 21  1  0  0  0  0
 21 22  1  0  0  0  0
 23 24  2  0  0  0  0
 23 25  1  0  0  0  0
 25 26  1  0  0  0  0
 25 27  1  0  0  0  0
 27 28  1  0  0  0  0
 27 29  1  0  0  0  0
 27 30  1  0  0  0  0
M  CHG  1  15   1
M  END
$$$$

  -OEChem-01062216083D

 30 30  0     1  0  0  0  0  0999 V2000
   -4.0018   -2.0882    1.0258 H   0  0  0  0  0  0  0  0  0  0  0  0
   -3.7031   -1.3046    0.3227 C   0  0  0  0  0  0  0  0  0  0  0  0
   -4.4515   -0.5093    0.3475 H   0  0  0  0  0  0  0  0  0  0  0  0
   -3.6670   -1.7353   -0.6809 H   0  0  0  0  0  0  0  0  0  0  0  0
   -2.3426   -0.7530    0.7048 C   0  0  0  0  0  0  0  0  0  0  0  0
   -1.8510   -1.1037    1.7569 O   0  0  0  0  0  0  0  0  0  0  0  0
   -1.7558    0.1986   -0.1137 N   0  0  0  0  0  0  0  0  0  0  0  0
   -2.3156    0.3914   -0.9391 H   0  0  0  0  0  0  0  0  0  0  0  0
   -0.3575    0.7148   -0.1732 C   0  0  1  0  0  0  0  0  0  0  0  0
    0.0049    0.4852   -1.1806 H   0  0  0  0  0  0  0  0  0  0  0  0
   -0.4613    2.2482   -0.0022 C   0  0  0  0  0  0  0  0  0  0  0  0
   -0.9581    2.4618    0.9512 H   0  0  0  0  0  0  0  0  0  0  0  0
    0.5362    2.7000    0.0547 H   0  0  0  0  0  0  0  0  0  0  0  0
   -1.2076    2.9069   -1.1358 C   0  0  0  0  0  0  0  0  0  0  0  0
   -0.6992    3.1202   -2.4182 N   0  3  0  0  0  0  0  0  0  0  0  0
    0.2454    2.8363   -2.6974 H   0  0  0  0  0  0  0  0  0  0  0  0
   -1.5634    3.7892   -3.1429 C   0  0  0  0  0  0  0  0  0  0  0  0
   -1.4262    4.1164   -4.1760 H   0  0  0  0  0  0  0  0  0  0  0  0
   -2.6801    4.0235   -2.3417 N   0  0  0  0  0  0  0  0  0  0  0  0
   -3.5125    4.5541   -2.6188 H   0  0  0  0  0  0  0  0  0  0  0  0
   -2.4518    3.4830   -1.0806 C   0  0  0  0  0  0  0  0  0  0  0  0
   -3.1072    3.5279   -0.2096 H   0  0  0  0  0  0  0  0  0  0  0  0
    0.8296    0.2654    0.7306 C   0  0  0  0  0  0  0  0  0  0  0  0
    1.9367    0.6175    0.3434 O   0  0  0  0  0  0  0  0  0  0  0  0
    0.7637   -0.4507    1.9072 N   0  0  0  0  0  0  0  0  0  0  0  0
   -0.1557   -0.7953    2.1909 H   0  0  0  0  0  0  0  0  0  0  0  0
    1.9323   -0.8776    2.6707 C   0  0  0  0  0  0  0  0  0  0  0  0
    2.5281   -0.0120    2.9791 H   0  0  0  0  0  0  0  0  0  0  0  0
    1.6201   -1.4181    3.5700 H   0  0  0  0  0  0  0  0  0  0  0  0
    2.5618   -1.5421    2.0694 H   0  0  0  0  0  0  0  0  0  0  0  0
  1  2  1  0  0  0  0
  2  3  1  0  0  0  0
  2  4  1  0  0  0  0
  2  5  1  0  0  0  0
  5  6  2  0  0  0  0
  5  7  1  0  0  0  0
  7  8  1  0  0  0  0
  7  9  1  0  0  0  0
  9 10  1  0  0  0  0
  9 11  1  0  0  0  0
  9 23  1  0  0  0  0
 11 12  1  0  0  0  0
 11 13  1  0  0  0  0
 11 14  1  0  0  0  0
 14 15  1  0  0  0  0
 14 21  2  0  0  0  0
 15 16  1  0  0  0  0
 15 17  2  0  0  0  0
 17 18  1  0  0  0  0
 17 19  1  0  0  0  0
 19 20  1  0  0  0  0
 19 21  1  0  0  0  0
 21 22  1  0  0  0  0
 23 24  2  0  0  0  0
 23 25  1  0  0  0  0
 25 26  1  0  0  0  0
 25 27  1  0  0  0  0
 27 28  1  0  0  0  0
 27 29  1  0  0  0  0
 27 30  1  0  0  0  0
M  CHG  1  15   1
M  END
$$$$

  -OEChem-01062216083D

 30 30  0     1  0  0  0  0  0999 V2000
   -2.7071   -2.5314    0.7971 H   0  0  0  0  0  0  0  0  0  0  0  0
   -3.0953   -1.5163    0.6802 C   0  0  0  0  0  0  0  0  0  0  0  0
   -3.9376   -1.3793    1.3642 H   0  0  0  0  0  0  0  0  0  0  0  0
   -3.4521   -1.3905   -0.3443 H   0  0  0  0  0  0  0  0  0  0  0  0
   -2.0048   -0.5123    1.0016 C   0  0  0  0  0  0  0  0  0  0  0  0
   -1.7125   -0.3115    2.1630 O   0  0  0  0  0  0  0  0  0  0  0  0
   -1.5537    0.3653    0.0361 N   0  0  0  0  0  0  0  0  0  0  0  0
   -2.0595    0.2443   -0.8360 H   0  0  0  0  0  0  0  0  0  0  0  0
   -0.1754    0.8998   -0.1428 C   0  0  1  0  0  0  0  0  0  0  0  0
    0.1527    0.6337   -1.1517 H   0  0  0  0  0  0  0  0  0  0  0  0
   -0.3759    2.4356   -0.0368 C   0  0  0  0  0  0  0  0  0  0  0  0
   -0.8255    2.6584    0.9382 H   0  0  0  0  0  0  0  0  0  0  0  0
    0.5826    2.9647   -0.0660 H   0  0  0  0  0  0  0  0  0  0  0  0
   -1.2325    3.0009   -1.1430 C   0  0  0  0  0  0  0  0  0  0  0  0
   -0.8433    3.2019   -2.4681 N   0  3  0  0  0  0  0  0  0  0  0  0
    0.0990    2.9903   -2.8099 H   0  0  0  0  0  0  0  0  0  0  0  0
   -1.8102    3.7804   -3.1398 C   0  0  0  0  0  0  0  0  0  0  0  0
   -1.7784    4.0863   -4.1878 H   0  0  0  0  0  0  0  0  0  0  0  0
   -2.8780    3.9552   -2.2605 N   0  0  0  0  0  0  0  0  0  0  0  0
   -3.7697    4.4081   -2.4849 H   0  0  0  0  0  0  0  0  0  0  0  0
   -2.5109    3.4785   -1.0074 C   0  0  0  0  0  0  0  0  0  0  0  0
   -3.0986    3.4934   -0.0880 H   0  0  0  0  0  0  0  0  0  0  0  0
    1.0594    0.5437    0.7545 C   0  0  0  0  0  0  0  0  0  0  0  0
    2.0826    1.1863    0.5789 O   0  0  0  0  0  0  0  0  0  0  0  0
    1.1771   -0.2881    1.8429 N   0  0  0  0  0  0  0  0  0  0  0  0
    2.0243   -0.0765    2.3664 H   0  0  0  0  0  0  0  0  0  0  0  0
    0.8697   -1.7126    1.7512 C   0  0  0  0  0  0  0  0  0  0  0  0
    0.2551   -2.0233    2.6028 H   0  0  0  0  0  0  0  0  0  0  0  0
    0.3364   -1.9543    0.8269 H   0  0  0  0  0  0  0  0  0  0  0  0
    1.7966   -2.2954    1.7655 H   0  0  0  0  0  0  0  0  0  0  0  0
  1  2  1  0  0  0  0
  2  3  1  0  0  0  0
  2  4  1  0  0  0  0
  2  5  1  0  0  0  0
  5  6  2  0  0  0  0
  5  7  1  0  0  0  0
  7  8  1  0  0  0  0
  7  9  1  0  0  0  0
  9 10  1  0  0  0  0
  9 11  1  0  0  0  0
  9 23  1  0  0  0  0
 11 12  1  0  0  0  0
 11 13  1  0  0  0  0
 11 14  1  0  0  0  0
 14 15  1  0  0  0  0
 14 21  2  0  0  0  0
 15 16  1  0  0  0  0
 15 17  2  0  0  0  0
 17 18  1  0  0  0  0
 17 19  1  0  0  0  0
 19 20  1  0  0  0  0
 19 21  1  0  0  0  0
 21 22  1  0  0  0  0
 23 24  2  0  0  0  0
 23 25  1  0  0  0  0
 25 26  1  0  0  0  0
 25 27  1  0  0  0  0
 27 28  1  0  0  0  0
 27 29  1  0  0  0  0
 27 30  1  0  0  0  0
M  CHG  1  15   1
M  END
$$$$

  -OEChem-01062216083D

 30 30  0     1  0  0  0  0  0999 V2000
   -3.4200   -2.2576    1.3809 H   0  0  0  0  0  0  0  0  0  0  0  0
   -3.3081   -1.5461    0.5575 C   0  0  0  0  0  0  0  0  0  0  0  0
   -4.2155   -0.9416    0.4893 H   0  0  0  0  0  0  0  0  0  0  0  0
   -3.1782   -2.1071   -0.3709 H   0  0  0  0  0  0  0  0  0  0  0  0
   -2.1049   -0.6568    0.8038 C   0  0  0  0  0  0  0  0  0  0  0  0
   -1.6570   -0.5524    1.9285 O   0  0  0  0  0  0  0  0  0  0  0  0
   -1.7346    0.2872   -0.1319 N   0  0  0  0  0  0  0  0  0  0  0  0
   -2.3927    0.3010   -0.9055 H   0  0  0  0  0  0  0  0  0  0  0  0
   -0.3418    0.6007   -0.5453 C   0  0  1  0  0  0  0  0  0  0  0  0
   -0.2772    0.4349   -1.6254 H   0  0  0  0  0  0  0  0  0  0  0  0
   -0.1594    2.1028   -0.2310 C   0  0  0  0  0  0  0  0  0  0  0  0
   -0.3513    2.2605    0.8370 H   0  0  0  0  0  0  0  0  0  0  0  0
    0.8751    2.4144   -0.4167 H   0  0  0  0  0  0  0  0  0  0  0  0
   -1.0691    2.9819   -1.0520 C   0  0  0  0  0  0  0  0  0  0  0  0
   -0.9143    3.2963   -2.4031 N   0  3  0  0  0  0  0  0  0  0  0  0
   -0.1293    2.9579   -2.9678 H   0  0  0  0  0  0  0  0  0  0  0  0
   -1.8524    4.1307   -2.7827 C   0  0  0  0  0  0  0  0  0  0  0  0
   -1.9675    4.5680   -3.7768 H   0  0  0  0  0  0  0  0  0  0  0  0
   -2.6651    4.3711   -1.6756 N   0  0  0  0  0  0  0  0  0  0  0  0
   -3.4743    4.9998   -1.6526 H   0  0  0  0  0  0  0  0  0  0  0  0
   -2.1680    3.6598   -0.5898 C   0  0  0  0  0  0  0  0  0  0  0  0
   -2.5534    3.6431    0.4310 H   0  0  0  0  0  0  0  0  0  0  0  0
    0.9216   -0.1131    0.0237 C   0  0  0  0  0  0  0  0  0  0  0  0
    1.9713    0.1311   -0.5496 O   0  0  0  0  0  0  0  0  0  0  0  0
    0.9760   -1.2853    0.7393 N   0  0  0  0  0  0  0  0  0  0  0  0
    1.6810   -1.8922    0.3256 H   0  0  0  0  0  0  0  0  0  0  0  0
    1.1699   -1.1757    2.1838 C   0  0  0  0  0  0  0  0  0  0  0  0
    0.8206   -0.2109    2.5675 H   0  0  0  0  0  0  0  0  0  0  0  0
    0.6190   -1.9689    2.6998 H   0  0  0  0  0  0  0  0  0  0  0  0
    2.2323   -1.2727    2.4303 H   0  0  0  0  0  0  0  0  0  0  0  0
  1  2  1  0  0  0  0
  2  3  1  0  0  0  0
  2  4  1  0  0  0  0
  2  5  1  0  0  0  0
  5  6  2  0  0  0  0
  5  7  1  0  0  0  0
  7  8  1  0  0  0  0
  7  9  1  0  0  0  0
  9 10  1  0  0  0  0
  9 11  1  0  0  0  0
  9 23  1  0  0  0  0
 11 12  1  0  0  0  0
 11 13  1  0  0  0  0
 11 14  1  0  0  0  0
 14 15  1  0  0  0  0
 14 21  2  0  0  0  0
 15 16  1  0  0  0  0
 15 17  2  0  0  0  0
 17 18  1  0  0  0  0
 17 19  1  0  0  0  0
 19 20  1  0  0  0  0
 19 21  1  0  0  0  0
 21 22  1  0  0  0  0
 23 24  2  0  0  0  0
 23 25  1  0  0  0  0
 25 26  1  0  0  0  0
 25 27  1  0  0  0  0
 27 28  1  0  0  0  0
 27 29  1  0  0  0  0
 27 30  1  0  0  0  0
M  CHG  1  15   1
M  END
$$$$

  -OEChem-01062216083D

 30 30  0     1  0  0  0  0  0999 V2000
   -3.9793   -2.0057    0.9603 H   0  0  0  0  0  0  0  0  0  0  0  0
   -3.6757   -1.2104    0.2727 C   0  0  0  0  0  0  0  0  0  0  0  0
   -4.3788   -0.3798    0.3683 H   0  0  0  0  0  0  0  0  0  0  0  0
   -3.7146   -1.5999   -0.7474 H   0  0  0  0  0  0  0  0  0  0  0  0
   -2.2699   -0.7449    0.6021 C   0  0  0  0  0  0  0  0  0  0  0  0
   -1.7257   -1.1861    1.5935 O   0  0  0  0  0  0  0  0  0  0  0  0
   -1.6882    0.2377   -0.1822 N   0  0  0  0  0  0  0  0  0  0  0  0
   -2.2780    0.5149   -0.9612 H   0  0  0  0  0  0  0  0  0  0  0  0
   -0.2755    0.7100   -0.2587 C   0  0  1  0  0  0  0  0  0  0  0  0
    0.0670    0.5301   -1.2821 H   0  0  0  0  0  0  0  0  0  0  0  0
   -0.3594    2.2392   -0.0041 C   0  0  0  0  0  0  0  0  0  0  0  0
   -0.8219    2.4062    0.9754 H   0  0  0  0  0  0  0  0  0  0  0  0
    0.6376    2.6910    0.0406 H   0  0  0  0  0  0  0  0  0  0  0  0
   -1.1293    2.9663   -1.0792 C   0  0  0  0  0  0  0  0  0  0  0  0
   -0.6632    3.2492   -2.3642 N   0  3  0  0  0  0  0  0  0  0  0  0
    0.2723    2.9847   -2.6883 H   0  0  0  0  0  0  0  0  0  0  0  0
   -1.5453    3.9655   -3.0189 C   0  0  0  0  0  0  0  0  0  0  0  0
   -1.4384    4.3561   -4.0334 H   0  0  0  0  0  0  0  0  0  0  0  0
   -2.6340    4.1571   -2.1694 N   0  0  0  0  0  0  0  0  0  0  0  0
   -3.4708    4.7082   -2.3866 H   0  0  0  0  0  0  0  0  0  0  0  0
   -2.3666    3.5450   -0.9496 C   0  0  0  0  0  0  0  0  0  0  0  0
   -2.9909    3.5433   -0.0550 H   0  0  0  0  0  0  0  0  0  0  0  0
    0.8837    0.1180    0.6076 C   0  0  0  0  0  0  0  0  0  0  0  0
    1.9126    0.7752    0.7031 O   0  0  0  0  0  0  0  0  0  0  0  0
    0.9301   -1.1875    1.0564 N   0  0  0  0  0  0  0  0  0  0  0  0
    0.0198   -1.6335    1.1829 H   0  0  0  0  0  0  0  0  0  0  0  0
    2.0500   -1.7272    1.8235 C   0  0  0  0  0  0  0  0  0  0  0  0
    2.1630   -1.1879    2.7701 H   0  0  0  0  0  0  0  0  0  0  0  0
    1.8806   -2.7854    2.0456 H   0  0  0  0  0  0  0  0  0  0  0  0
    2.9838   -1.6424    1.2570 H   0  0  0  0  0  0  0  0  0  0  0  0
  1  2  1  0  0  0  0
  2  3  1  0  0  0  0
  2  4  1  0  0  0  0
  2  5  1  0  0  0  0
  5  6  2  0  0  0  0
  5  7  1  0  0  0  0
  7  8  1  0  0  0  0
  7  9  1  0  0  0  0
  9 10  1  0  0  0  0
  9 11  1  0  0  0  0
  9 23  1  0  0  0  0
 11 12  1  0  0  0  0
 11 13  1  0  0  0  0
 11 14  1  0  0  0  0
 14 15  1  0  0  0  0
 14 21  2  0  0  0  0
 15 16  1  0  0  0  0
 15 17  2  0  0  0  0
 17 18  1  0  0  0  0
 17 19  1  0  0  0  0
 19 20  1  0  0  0  0
 19 21  1  0  0  0  0
 21 22  1  0  0  0  0
 23 24  2  0  0  0  0
 23 25  1  0  0  0  0
 25 26  1  0  0  0  0
 25 27  1  0  0  0  0
 27 28  1  0  0  0  0
 27 29  1  0  0  0  0
 27 30  1  0  0  0  0
M  CHG  1  15   1
M  END
$$$$

  -OEChem-01062216083D

 30 30  0     1  0  0  0  0  0999 V2000
   -3.9000   -2.0015    1.0334 H   0  0  0  0  0  0  0  0  0  0  0  0
   -3.6219   -1.1939    0.3494 C   0  0  0  0  0  0  0  0  0  0  0  0
   -4.2841   -0.3436    0.5274 H   0  0  0  0  0  0  0  0  0  0  0  0
   -3.7548   -1.5457   -0.6764 H   0  0  0  0  0  0  0  0  0  0  0  0
   -2.1784   -0.7888    0.5807 C   0  0  0  0  0  0  0  0  0  0  0  0
   -1.5499   -1.3425    1.4592 O   0  0  0  0  0  0  0  0  0  0  0  0
   -1.6334    0.2220   -0.1950 N   0  0  0  0  0  0  0  0  0  0  0  0
   -2.2715    0.5729   -0.9026 H   0  0  0  0  0  0  0  0  0  0  0  0
   -0.2363    0.7356   -0.2691 C   0  0  1  0  0  0  0  0  0  0  0  0
    0.1172    0.5638   -1.2899 H   0  0  0  0  0  0  0  0  0  0  0  0
   -0.3458    2.2633   -0.0202 C   0  0  0  0  0  0  0  0  0  0  0  0
   -0.8067    2.4279    0.9604 H   0  0  0  0  0  0  0  0  0  0  0  0
    0.6464    2.7267    0.0163 H   0  0  0  0  0  0  0  0  0  0  0  0
   -1.1284    2.9740   -1.0978 C   0  0  0  0  0  0  0  0  0  0  0  0
   -0.6723    3.2624   -2.3855 N   0  3  0  0  0  0  0  0  0  0  0  0
    0.2647    3.0101   -2.7148 H   0  0  0  0  0  0  0  0  0  0  0  0
   -1.5689    3.9633   -3.0375 C   0  0  0  0  0  0  0  0  0  0  0  0
   -1.4742    4.3522   -4.0540 H   0  0  0  0  0  0  0  0  0  0  0  0
   -2.6554    4.1421   -2.1827 N   0  0  0  0  0  0  0  0  0  0  0  0
   -3.5004    4.6821   -2.3967 H   0  0  0  0  0  0  0  0  0  0  0  0
   -2.3727    3.5371   -0.9630 C   0  0  0  0  0  0  0  0  0  0  0  0
   -2.9918    3.5323   -0.0646 H   0  0  0  0  0  0  0  0  0  0  0  0
    0.9103    0.1355    0.6077 C   0  0  0  0  0  0  0  0  0  0  0  0
    1.8234    0.8667    0.9698 O   0  0  0  0  0  0  0  0  0  0  0  0
    1.0843   -1.2271    0.7604 N   0  0  0  0  0  0  0  0  0  0  0  0
    0.2137   -1.7607    0.7442 H   0  0  0  0  0  0  0  0  0  0  0  0
    2.1877   -1.7958    1.5310 C   0  0  0  0  0  0  0  0  0  0  0  0
    2.1494   -1.4514    2.5700 H   0  0  0  0  0  0  0  0  0  0  0  0
    2.1282   -2.8887    1.5266 H   0  0  0  0  0  0  0  0  0  0  0  0
    3.1514   -1.5043    1.1000 H   0  0  0  0  0  0  0  0  0  0  0  0
  1  2  1  0  0  0  0
  2  3  1  0  0  0  0
  2  4  1  0  0  0  0
  2  5  1  0  0  0  0
  5  6  2  0  0  0  0
  5  7  1  0  0  0  0
  7  8  1  0  0  0  0
  7  9  1  0  0  0  0
  9 10  1  0  0  0  0
  9 11  1  0  0  0  0
  9 23  1  0  0  0  0
 11 12  1  0  0  0  0
 11 13  1  0  0  0  0
 11 14  1  0  0  0  0
 14 15  1  0  0  0  0
 14 21  2  0  0  0  0
 15 16  1  0  0  0  0
 15 17  2  0  0  0  0
 17 18  1  0  0  0  0
 17 19  1  0  0  0  0
 19 20  1  0  0  0  0
 19 21  1  0  0  0  0
 21 22  1  0  0  0  0
 23 24  2  0  0  0  0
 23 25  1  0  0  0  0
 25 26  1  0  0  0  0
 25 27  1  0  0  0  0
 27 28  1  0  0  0  0
 27 29  1  0  0  0  0
 27 30  1  0  0  0  0
M  CHG  1  15   1
M  END
$$$$

  -OEChem-01062216083D

 30 30  0     1  0  0  0  0  0999 V2000
   -3.7909   -2.0267    1.1193 H   0  0  0  0  0  0  0  0  0  0  0  0
   -3.5548   -1.2055    0.4357 C   0  0  0  0  0  0  0  0  0  0  0  0
   -4.1757   -0.3460    0.6979 H   0  0  0  0  0  0  0  0  0  0  0  0
   -3.7885   -1.5227   -0.5834 H   0  0  0  0  0  0  0  0  0  0  0  0
   -2.0864   -0.8417    0.5461 C   0  0  0  0  0  0  0  0  0  0  0  0
   -1.3788   -1.4853    1.2938 O   0  0  0  0  0  0  0  0  0  0  0  0
   -1.5898    0.1944   -0.2298 N   0  0  0  0  0  0  0  0  0  0  0  0
   -2.2778    0.6121   -0.8485 H   0  0  0  0  0  0  0  0  0  0  0  0
   -0.2116    0.7526   -0.2945 C   0  0  1  0  0  0  0  0  0  0  0  0
    0.1574    0.5925   -1.3118 H   0  0  0  0  0  0  0  0  0  0  0  0
   -0.3408    2.2765   -0.0428 C   0  0  0  0  0  0  0  0  0  0  0  0
   -0.8032    2.4343    0.9384 H   0  0  0  0  0  0  0  0  0  0  0  0
    0.6501    2.7434   -0.0047 H   0  0  0  0  0  0  0  0  0  0  0  0
   -1.1297    2.9825   -1.1182 C   0  0  0  0  0  0  0  0  0  0  0  0
   -0.6761    3.2821   -2.4043 N   0  3  0  0  0  0  0  0  0  0  0  0
    0.2618    3.0376   -2.7363 H   0  0  0  0  0  0  0  0  0  0  0  0
   -1.5775    3.9803   -3.0523 C   0  0  0  0  0  0  0  0  0  0  0  0
   -1.4853    4.3754   -4.0666 H   0  0  0  0  0  0  0  0  0  0  0  0
   -2.6651    4.1462   -2.1965 N   0  0  0  0  0  0  0  0  0  0  0  0
   -3.5134    4.6826   -2.4067 H   0  0  0  0  0  0  0  0  0  0  0  0
   -2.3775    3.5369   -0.9800 C   0  0  0  0  0  0  0  0  0  0  0  0
   -2.9953    3.5259   -0.0807 H   0  0  0  0  0  0  0  0  0  0  0  0
    0.9163    0.1546    0.6027 C   0  0  0  0  0  0  0  0  0  0  0  0
    1.6520    0.9032    1.2341 O   0  0  0  0  0  0  0  0  0  0  0  0
    1.2748   -1.1760    0.4913 N   0  0  0  0  0  0  0  0  0  0  0  0
    0.4951   -1.7930    0.2652 H   0  0  0  0  0  0  0  0  0  0  0  0
    2.3523   -1.7544    1.2904 C   0  0  0  0  0  0  0  0  0  0  0  0
    2.1279   -1.6655    2.3589 H   0  0  0  0  0  0  0  0  0  0  0  0
    2.4753   -2.8149    1.0493 H   0  0  0  0  0  0  0  0  0  0  0  0
    3.3007   -1.2455    1.0876 H   0  0  0  0  0  0  0  0  0  0  0  0
  1  2  1  0  0  0  0
  2  3  1  0  0  0  0
  2  4  1  0  0  0  0
  2  5  1  0  0  0  0
  5  6  2  0  0  0  0
  5  7  1  0  0  0  0
  7  8  1  0  0  0  0
  7  9  1  0  0  0  0
  9 10  1  0  0  0  0
  9 11  1  0  0  0  0
  9 23  1  0  0  0  0
 11 12  1  0  0  0  0
 11 13  1  0  0  0  0
 11 14  1  0  0  0  0
 14 15  1  0  0  0  0
 14 21  2  0  0  0  0
 15 16  1  0  0  0  0
 15 17  2  0  0  0  0
 17 18  1  0  0  0  0
 17 19  1  0  0  0  0
 19 20  1  0  0  0  0
 19 21  1  0  0  0  0
 21 22  1  0  0  0  0
 23 24  2  0  0  0  0
 23 25  1  0  0  0  0
 25 26  1  0  0  0  0
 25 27  1  0  0  0  0
 27 28  1  0  0  0  0
 27 29  1  0  0  0  0
 27 30  1  0  0  0  0
M  CHG  1  15   1
M  END
$$$$

  -OEChem-01062216083D

 30 30  0     1  0  0  0  0  0999 V2000
   -3.6809   -2.0552    1.1851 H   0  0  0  0  0  0  0  0  0  0  0  0
   -3.4871   -1.2181    0.5076 C   0  0  0  0  0  0  0  0  0  0  0  0
   -4.0744   -0.3593    0.8401 H   0  0  0  0  0  0  0  0  0  0  0  0
   -3.8025   -1.5037   -0.4986 H   0  0  0  0  0  0  0  0  0  0  0  0
   -2.0093   -0.8753    0.5142 C   0  0  0  0  0  0  0  0  0  0  0  0
   -1.2497   -1.5669    1.1626 O   0  0  0  0  0  0  0  0  0  0  0  0
   -1.5547    0.1731   -0.2721 N   0  0  0  0  0  0  0  0  0  0  0  0
   -2.2788    0.6347   -0.8132 H   0  0  0  0  0  0  0  0  0  0  0  0
   -0.1916    0.7637   -0.3293 C   0  0  1  0  0  0  0  0  0  0  0  0
    0.1917    0.6152   -1.3430 H   0  0  0  0  0  0  0  0  0  0  0  0
   -0.3337    2.2827   -0.0684 C   0  0  0  0  0  0  0  0  0  0  0  0
   -0.8002    2.4303    0.9127 H   0  0  0  0  0  0  0  0  0  0  0  0
    0.6577    2.7484   -0.0199 H   0  0  0  0  0  0  0  0  0  0  0  0
   -1.1290    2.9898   -1.1387 C   0  0  0  0  0  0  0  0  0  0  0  0
   -0.6834    3.3042   -2.4242 N   0  3  0  0  0  0  0  0  0  0  0  0
    0.2529    3.0661   -2.7647 H   0  0  0  0  0  0  0  0  0  0  0  0
   -1.5933    4.0003   -3.0625 C   0  0  0  0  0  0  0  0  0  0  0  0
   -1.5099    4.4028   -4.0745 H   0  0  0  0  0  0  0  0  0  0  0  0
   -2.6775    4.1524   -2.2001 N   0  0  0  0  0  0  0  0  0  0  0  0
   -3.5310    4.6836   -2.4021 H   0  0  0  0  0  0  0  0  0  0  0  0
   -2.3798    3.5352   -0.9902 C   0  0  0  0  0  0  0  0  0  0  0  0
   -2.9928    3.5141   -0.0878 H   0  0  0  0  0  0  0  0  0  0  0  0
    0.9166    0.1731    0.5918 C   0  0  0  0  0  0  0  0  0  0  0  0
    1.4410    0.8763    1.4470 O   0  0  0  0  0  0  0  0  0  0  0  0
    1.4930   -1.0456    0.2824 N   0  0  0  0  0  0  0  0  0  0  0  0
    0.8755   -1.6939   -0.2014 H   0  0  0  0  0  0  0  0  0  0  0  0
    2.5369   -1.6340    1.1177 C   0  0  0  0  0  0  0  0  0  0  0  0
    2.1601   -1.8149    2.1304 H   0  0  0  0  0  0  0  0  0  0  0  0
    2.8684   -2.5879    0.6958 H   0  0  0  0  0  0  0  0  0  0  0  0
    3.4046   -0.9685    1.1804 H   0  0  0  0  0  0  0  0  0  0  0  0
  1  2  1  0  0  0  0
  2  3  1  0  0  0  0
  2  4  1  0  0  0  0
  2  5  1  0  0  0  0
  5  6  2  0  0  0  0
  5  7  1  0  0  0  0
  7  8  1  0  0  0  0
  7  9  1  0  0  0  0
  9 10  1  0  0  0  0
  9 11  1  0  0  0  0
  9 23  1  0  0  0  0
 11 12  1  0  0  0  0
 11 13  1  0  0  0  0
 11 14  1  0  0  0  0
 14 15  1  0  0  0  0
 14 21  2  0  0  0  0
 15 16  1  0  0  0  0
 15 17  2  0  0  0  0
 17 18  1  0  0  0  0
 17 19  1  0  0  0  0
 19 20  1  0  0  0  0
 19 21  1  0  0  0  0
 21 22  1  0  0  0  0
 23 24  2  0  0  0  0
 23 25  1  0  0  0  0
 25 26  1  0  0  0  0
 25 27  1  0  0  0  0
 27 28  1  0  0  0  0
 27 29  1  0  0  0  0
 27 30  1  0  0  0  0
M  CHG  1  15   1
M  END
$$$$

  -OEChem-01062216083D

 30 30  0     1  0  0  0  0  0999 V2000
   -3.6082   -2.0720    1.2270 H   0  0  0  0  0  0  0  0  0  0  0  0
   -3.4426   -1.2203    0.5602 C   0  0  0  0  0  0  0  0  0  0  0  0
   -3.9915   -0.3608    0.9514 H   0  0  0  0  0  0  0  0  0  0  0  0
   -3.8257   -1.4736   -0.4311 H   0  0  0  0  0  0  0  0  0  0  0  0
   -1.9613   -0.9028    0.4821 C   0  0  0  0  0  0  0  0  0  0  0  0
   -1.1725   -1.6348    1.0474 O   0  0  0  0  0  0  0  0  0  0  0  0
   -1.5351    0.1520   -0.3123 N   0  0  0  0  0  0  0  0  0  0  0  0
   -2.2827    0.6498   -0.7844 H   0  0  0  0  0  0  0  0  0  0  0  0
   -0.1823    0.7632   -0.3582 C   0  0  1  0  0  0  0  0  0  0  0  0
    0.2125    0.6250   -1.3689 H   0  0  0  0  0  0  0  0  0  0  0  0
   -0.3335    2.2777   -0.0861 C   0  0  0  0  0  0  0  0  0  0  0  0
   -0.8089    2.4146    0.8924 H   0  0  0  0  0  0  0  0  0  0  0  0
    0.6578    2.7420   -0.0216 H   0  0  0  0  0  0  0  0  0  0  0  0
   -1.1293    2.9911   -1.1520 C   0  0  0  0  0  0  0  0  0  0  0  0
   -0.6857    3.3212   -2.4345 N   0  3  0  0  0  0  0  0  0  0  0  0
    0.2508    3.0901   -2.7788 H   0  0  0  0  0  0  0  0  0  0  0  0
   -1.6000    4.0178   -3.0662 C   0  0  0  0  0  0  0  0  0  0  0  0
   -1.5204    4.4289   -4.0752 H   0  0  0  0  0  0  0  0  0  0  0  0
   -2.6843    4.1565   -2.2019 N   0  0  0  0  0  0  0  0  0  0  0  0
   -3.5413    4.6839   -2.3994 H   0  0  0  0  0  0  0  0  0  0  0  0
   -2.3829    3.5289   -0.9983 C   0  0  0  0  0  0  0  0  0  0  0  0
   -2.9959    3.4963   -0.0962 H   0  0  0  0  0  0  0  0  0  0  0  0
    0.9111    0.1820    0.5827 C   0  0  0  0  0  0  0  0  0  0  0  0
    1.2256    0.7930    1.5969 O   0  0  0  0  0  0  0  0  0  0  0  0
    1.7152   -0.8550    0.1451 N   0  0  0  0  0  0  0  0  0  0  0  0
    1.2943   -1.4690   -0.5474 H   0  0  0  0  0  0  0  0  0  0  0  0
    2.7505   -1.4318    0.9992 C   0  0  0  0  0  0  0  0  0  0  0  0
    2.3065   -1.8470    1.9108 H   0  0  0  0  0  0  0  0  0  0  0  0
    3.2746   -2.2349    0.4721 H   0  0  0  0  0  0  0  0  0  0  0  0
    3.4866   -0.6718    1.2826 H   0  0  0  0  0  0  0  0  0  0  0  0
  1  2  1  0  0  0  0
  2  3  1  0  0  0  0
  2  4  1  0  0  0  0
  2  5  1  0  0  0  0
  5  6  2  0  0  0  0
  5  7  1  0  0  0  0
  7  8  1  0  0  0  0
  7  9  1  0  0  0  0
  9 10  1  0  0  0  0
  9 11  1  0  0  0  0
  9 23  1  0  0  0  0
 11 12  1  0  0  0  0
 11 13  1  0  0  0  0
 11 14  1  0  0  0  0
 14 15  1  0  0  0  0
 14 21  2  0  0  0  0
 15 16  1  0  0  0  0
 15 17  2  0  0  0  0
 17 18  1  0  0  0  0
 17 19  1  0  0  0  0
 19 20  1  0  0  0  0
 19 21  1  0  0  0  0
 21 22  1  0  0  0  0
 23 24  2  0  0  0  0
 23 25  1  0  0  0  0
 25 26  1  0  0  0  0
 25 27  1  0  0  0  0
 27 28  1  0  0  0  0
 27 29  1  0  0  0  0
 27 30  1  0  0  0  0
M  CHG  1  15   1
M  END
$$$$

  -OEChem-01062216083D

 30 30  0     1  0  0  0  0  0999 V2000
   -3.5620   -2.0661    1.2791 H   0  0  0  0  0  0  0  0  0  0  0  0
   -3.4155   -1.2152    0.6068 C   0  0  0  0  0  0  0  0  0  0  0  0
   -3.9212   -0.3456    1.0319 H   0  0  0  0  0  0  0  0  0  0  0  0
   -3.8596   -1.4547   -0.3621 H   0  0  0  0  0  0  0  0  0  0  0  0
   -1.9343   -0.9313    0.4451 C   0  0  0  0  0  0  0  0  0  0  0  0
   -1.1300   -1.7096    0.9206 O   0  0  0  0  0  0  0  0  0  0  0  0
   -1.5271    0.1300   -0.3508 N   0  0  0  0  0  0  0  0  0  0  0  0
   -2.2896    0.6624   -0.7555 H   0  0  0  0  0  0  0  0  0  0  0  0
   -0.1808    0.7546   -0.3809 C   0  0  1  0  0  0  0  0  0  0  0  0
    0.2227    0.6260   -1.3891 H   0  0  0  0  0  0  0  0  0  0  0  0
   -0.3380    2.2651   -0.0949 C   0  0  0  0  0  0  0  0  0  0  0  0
   -0.8236    2.3905    0.8804 H   0  0  0  0  0  0  0  0  0  0  0  0
    0.6522    2.7291   -0.0142 H   0  0  0  0  0  0  0  0  0  0  0  0
   -1.1298    2.9873   -1.1584 C   0  0  0  0  0  0  0  0  0  0  0  0
   -0.6810    3.3324   -2.4354 N   0  3  0  0  0  0  0  0  0  0  0  0
    0.2564    3.1050   -2.7793 H   0  0  0  0  0  0  0  0  0  0  0  0
   -1.5948    4.0317   -3.0649 C   0  0  0  0  0  0  0  0  0  0  0  0
   -1.5120    4.4522   -4.0697 H   0  0  0  0  0  0  0  0  0  0  0  0
   -2.6838    4.1577   -2.2048 N   0  0  0  0  0  0  0  0  0  0  0  0
   -3.5424    4.6826   -2.4018 H   0  0  0  0  0  0  0  0  0  0  0  0
   -2.3863    3.5190   -1.0061 C   0  0  0  0  0  0  0  0  0  0  0  0
   -3.0050    3.4745   -0.1084 H   0  0  0  0  0  0  0  0  0  0  0  0
    0.9025    0.1808    0.5735 C   0  0  0  0  0  0  0  0  0  0  0  0
    1.0249    0.6638    1.6926 O   0  0  0  0  0  0  0  0  0  0  0  0
    1.9160   -0.6172    0.0729 N   0  0  0  0  0  0  0  0  0  0  0  0
    1.6906   -1.1466   -0.7648 H   0  0  0  0  0  0  0  0  0  0  0  0
    2.9630   -1.1552    0.9383 C   0  0  0  0  0  0  0  0  0  0  0  0
    2.5253   -1.7768    1.7274 H   0  0  0  0  0  0  0  0  0  0  0  0
    3.6579   -1.7703    0.3582 H   0  0  0  0  0  0  0  0  0  0  0  0
    3.5324   -0.3448    1.4063 H   0  0  0  0  0  0  0  0  0  0  0  0
  1  2  1  0  0  0  0
  2  3  1  0  0  0  0
  2  4  1  0  0  0  0
  2  5  1  0  0  0  0
  5  6  2  0  0  0  0
  5  7  1  0  0  0  0
  7  8  1  0  0  0  0
  7  9  1  0  0  0  0
  9 10  1  0  0  0  0
  9 11  1  0  0  0  0
  9 23  1  0  0  0  0
 11 12  1  0  0  0  0
 11 13  1  0  0  0  0
 11 14  1  0  0  0  0
 14 15  1  0  0  0  0
 14 21  2  0  0  0  0
 15 16  1  0  0  0  0
 15 17  2  0  0  0  0
 17 18  1  0  0  0  0
 17 19  1  0  0  0  0
 19 20  1  0  0  0  0
 19 21  1  0  0  0  0
 21 22  1  0  0  0  0
 23 24  2  0  0  0  0
 23 25  1  0  0  0  0
 25 26  1  0  0  0  0
 25 27  1  0  0  0  0
 27 28  1  0  0  0  0
 27 29  1  0  0  0  0
 27 30  1  0  0  0  0
M  CHG  1  15   1
M  END
$$$$

  -OEChem-01062216083D

 30 30  0     1  0  0  0  0  0999 V2000
   -3.5222   -2.0695    1.3015 H   0  0  0  0  0  0  0  0  0  0  0  0
   -3.3905   -1.2023    0.6470 C   0  0  0  0  0  0  0  0  0  0  0  0
   -3.8402   -0.3319    1.1296 H   0  0  0  0  0  0  0  0  0  0  0  0
   -3.9015   -1.3971   -0.2986 H   0  0  0  0  0  0  0  0  0  0  0  0
   -1.9137   -0.9586    0.4018 C   0  0  0  0  0  0  0  0  0  0  0  0
   -1.1067   -1.7843    0.7851 O   0  0  0  0  0  0  0  0  0  0  0  0
   -1.5201    0.1069   -0.3949 N   0  0  0  0  0  0  0  0  0  0  0  0
   -2.2915    0.6709   -0.7339 H   0  0  0  0  0  0  0  0  0  0  0  0
   -0.1778    0.7402   -0.4079 C   0  0  1  0  0  0  0  0  0  0  0  0
    0.2347    0.6197   -1.4135 H   0  0  0  0  0  0  0  0  0  0  0  0
   -0.3404    2.2455   -0.1039 C   0  0  0  0  0  0  0  0  0  0  0  0
   -0.8332    2.3579    0.8694 H   0  0  0  0  0  0  0  0  0  0  0  0
    0.6483    2.7100   -0.0103 H   0  0  0  0  0  0  0  0  0  0  0  0
   -1.1279    2.9781   -1.1632 C   0  0  0  0  0  0  0  0  0  0  0  0
   -0.6752    3.3410   -2.4339 N   0  3  0  0  0  0  0  0  0  0  0  0
    0.2630    3.1183   -2.7786 H   0  0  0  0  0  0  0  0  0  0  0  0
   -1.5898    4.0426   -3.0594 C   0  0  0  0  0  0  0  0  0  0  0  0
   -1.5059    4.4728   -4.0601 H   0  0  0  0  0  0  0  0  0  0  0  0
   -2.6822    4.1552   -2.2019 N   0  0  0  0  0  0  0  0  0  0  0  0
   -3.5437    4.6760   -2.3974 H   0  0  0  0  0  0  0  0  0  0  0  0
   -2.3869    3.5035   -1.0097 C   0  0  0  0  0  0  0  0  0  0  0  0
   -3.0093    3.4456   -0.1153 H   0  0  0  0  0  0  0  0  0  0  0  0
    0.8959    0.1731    0.5598 C   0  0  0  0  0  0  0  0  0  0  0  0
    0.8507    0.5062    1.7377 O   0  0  0  0  0  0  0  0  0  0  0  0
    2.0780   -0.3493    0.0640 N   0  0  0  0  0  0  0  0  0  0  0  0
    2.0319   -0.7632   -0.8628 H   0  0  0  0  0  0  0  0  0  0  0  0
    3.1350   -0.8236    0.9552 C   0  0  0  0  0  0  0  0  0  0  0  0
    2.7520   -1.6054    1.6209 H   0  0  0  0  0  0  0  0  0  0  0  0
    3.9653   -1.2393    0.3761 H   0  0  0  0  0  0  0  0  0  0  0  0
    3.5220   -0.0022    1.5680 H   0  0  0  0  0  0  0  0  0  0  0  0
  1  2  1  0  0  0  0
  2  3  1  0  0  0  0
  2  4  1  0  0  0  0
  2  5  1  0  0  0  0
  5  6  2  0  0  0  0
  5  7  1  0  0  0  0
  7  8  1  0  0  0  0
  7  9  1  0  0  0  0
  9 10  1  0  0  0  0
  9 11  1  0  0  0  0
  9 23  1  0  0  0  0
 11 12  1  0  0  0  0
 11 13  1  0  0  0  0
 11 14  1  0  0  0  0
 14 15  1  0  0  0  0
 14 21  2  0  0  0  0
 15 16  1  0  0  0  0
 15 17  2  0  0  0  0
 17 18  1  0  0  0  0
 17 19  1  0  0  0  0
 19 20  1  0  0  0  0
 19 21  1  0  0  0  0
 21 22  1  0  0  0  0
 23 24  2  0  0  0  0
 23 25  1  0  0  0  0
 25 26  1  0  0  0  0
 25 27  1  0  0  0  0
 27 28  1  0  0  0  0
 27 29  1  0  0  0  0
 27 30  1  0  0  0  0
M  CHG  1  15   1
M  END
$$$$

  -OEChem-01062216083D

 30 30  0     1  0  0  0  0  0999 V2000
   -3.4786   -2.0442    1.3525 H   0  0  0  0  0  0  0  0  0  0  0  0
   -3.3631   -1.1775    0.6947 C   0  0  0  0  0  0  0  0  0  0  0  0
   -3.7459   -0.2956    1.2127 H   0  0  0  0  0  0  0  0  0  0  0  0
   -3.9458   -1.3464   -0.2138 H   0  0  0  0  0  0  0  0  0  0  0  0
   -1.8994   -0.9847    0.3480 C   0  0  0  0  0  0  0  0  0  0  0  0
   -1.1038   -1.8652    0.6181 O   0  0  0  0  0  0  0  0  0  0  0  0
   -1.5145    0.0855   -0.4459 N   0  0  0  0  0  0  0  0  0  0  0  0
   -2.2886    0.6806   -0.7185 H   0  0  0  0  0  0  0  0  0  0  0  0
   -0.1733    0.7208   -0.4354 C   0  0  1  0  0  0  0  0  0  0  0  0
    0.2521    0.6101   -1.4368 H   0  0  0  0  0  0  0  0  0  0  0  0
   -0.3423    2.2195   -0.1088 C   0  0  0  0  0  0  0  0  0  0  0  0
   -0.8451    2.3146    0.8612 H   0  0  0  0  0  0  0  0  0  0  0  0
    0.6441    2.6850    0.0020 H   0  0  0  0  0  0  0  0  0  0  0  0
   -1.1216    2.9662   -1.1648 C   0  0  0  0  0  0  0  0  0  0  0  0
   -0.6604    3.3509   -2.4261 N   0  3  0  0  0  0  0  0  0  0  0  0
    0.2797    3.1342   -2.7692 H   0  0  0  0  0  0  0  0  0  0  0  0
   -1.5753    4.0540   -3.0499 C   0  0  0  0  0  0  0  0  0  0  0  0
   -1.4877    4.4962   -4.0451 H   0  0  0  0  0  0  0  0  0  0  0  0
   -2.6750    4.1484   -2.1995 N   0  0  0  0  0  0  0  0  0  0  0  0
   -3.5396    4.6634   -2.3962 H   0  0  0  0  0  0  0  0  0  0  0  0
   -2.3852    3.4820   -1.0143 C   0  0  0  0  0  0  0  0  0  0  0  0
   -3.0155    3.4064   -0.1269 H   0  0  0  0  0  0  0  0  0  0  0  0
    0.8868    0.1528    0.5460 C   0  0  0  0  0  0  0  0  0  0  0  0
    0.7038    0.3246    1.7450 O   0  0  0  0  0  0  0  0  0  0  0  0
    2.1822   -0.0759    0.1131 N   0  0  0  0  0  0  0  0  0  0  0  0
    2.2925   -0.3493   -0.8590 H   0  0  0  0  0  0  0  0  0  0  0  0
    3.2435   -0.4633    1.0410 C   0  0  0  0  0  0  0  0  0  0  0  0
    2.9735   -1.3842    1.5699 H   0  0  0  0  0  0  0  0  0  0  0  0
    4.1791   -0.6365    0.5002 H   0  0  0  0  0  0  0  0  0  0  0  0
    3.4165    0.3257    1.7812 H   0  0  0  0  0  0  0  0  0  0  0  0
  1  2  1  0  0  0  0
  2  3  1  0  0  0  0
  2  4  1  0  0  0  0
  2  5  1  0  0  0  0
  5  6  2  0  0  0  0
  5  7  1  0  0  0  0
  7  8  1  0  0  0  0
  7  9  1  0  0  0  0
  9 10  1  0  0  0  0
  9 11  1  0  0  0  0
  9 23  1  0  0  0  0
 11 12  1  0  0  0  0
 11 13  1  0  0  0  0
 11 14  1  0  0  0  0
 14 15  1  0  0  0  0
 14 21  2  0  0  0  0
 15 16  1  0  0  0  0
 15 17  2  0  0  0  0
 17 18  1  0  0  0  0
 17 19  1  0  0  0  0
 19 20  1  0  0  0  0
 19 21  1  0  0  0  0
 21 22  1  0  0  0  0
 23 24  2  0  0  0  0
 23 25  1  0  0  0  0
 25 26  1  0  0  0  0
 25 27  1  0  0  0  0
 27 28  1  0  0  0  0
 27 29  1  0  0  0  0
 27 30  1  0  0  0  0
M  CHG  1  15   1
M  END
$$$$

  -OEChem-01062216083D

 30 30  0     1  0  0  0  0  0999 V2000
   -3.4567   -2.0506    1.3428 H   0  0  0  0  0  0  0  0  0  0  0  0
   -3.3380   -1.1502    0.7326 C   0  0  0  0  0  0  0  0  0  0  0  0
   -3.6497   -0.2867    1.3241 H   0  0  0  0  0  0  0  0  0  0  0  0
   -3.9774   -1.2370   -0.1486 H   0  0  0  0  0  0  0  0  0  0  0  0
   -1.8884   -0.9988    0.3137 C   0  0  0  0  0  0  0  0  0  0  0  0
   -1.1153   -1.9226    0.4901 O   0  0  0  0  0  0  0  0  0  0  0  0
   -1.5040    0.0741   -0.4758 N   0  0  0  0  0  0  0  0  0  0  0  0
   -2.2757    0.6887   -0.7076 H   0  0  0  0  0  0  0  0  0  0  0  0
   -0.1616    0.7078   -0.4495 C   0  0  1  0  0  0  0  0  0  0  0  0
    0.2721    0.6033   -1.4476 H   0  0  0  0  0  0  0  0  0  0  0  0
   -0.3401    2.2020   -0.1068 C   0  0  0  0  0  0  0  0  0  0  0  0
   -0.8482    2.2839    0.8617 H   0  0  0  0  0  0  0  0  0  0  0  0
    0.6422    2.6733    0.0143 H   0  0  0  0  0  0  0  0  0  0  0  0
   -1.1164    2.9531   -1.1634 C   0  0  0  0  0  0  0  0  0  0  0  0
   -0.6495    3.3524   -2.4183 N   0  3  0  0  0  0  0  0  0  0  0  0
    0.2929    3.1426   -2.7587 H   0  0  0  0  0  0  0  0  0  0  0  0
   -1.5672    4.0489   -3.0455 C   0  0  0  0  0  0  0  0  0  0  0  0
   -1.4779    4.4955   -4.0385 H   0  0  0  0  0  0  0  0  0  0  0  0
   -2.6736    4.1278   -2.2026 N   0  0  0  0  0  0  0  0  0  0  0  0
   -3.5427    4.6333   -2.4041 H   0  0  0  0  0  0  0  0  0  0  0  0
   -2.3861    3.4570   -1.0193 C   0  0  0  0  0  0  0  0  0  0  0  0
   -3.0239    3.3702   -0.1381 H   0  0  0  0  0  0  0  0  0  0  0  0
    0.8932    0.1406    0.5390 C   0  0  0  0  0  0  0  0  0  0  0  0
    0.6123    0.1451    1.7311 O   0  0  0  0  0  0  0  0  0  0  0  0
    2.2388    0.2079    0.2138 N   0  0  0  0  0  0  0  0  0  0  0  0
    2.4735    0.1053   -0.7689 H   0  0  0  0  0  0  0  0  0  0  0  0
    3.2837   -0.1117    1.1862 C   0  0  0  0  0  0  0  0  0  0  0  0
    3.1308   -1.1152    1.5990 H   0  0  0  0  0  0  0  0  0  0  0  0
    4.2698   -0.0802    0.7123 H   0  0  0  0  0  0  0  0  0  0  0  0
    3.2765    0.6091    2.0111 H   0  0  0  0  0  0  0  0  0  0  0  0
  1  2  1  0  0  0  0
  2  3  1  0  0  0  0
  2  4  1  0  0  0  0
  2  5  1  0  0  0  0
  5  6  2  0  0  0  0
  5  7  1  0  0  0  0
  7  8  1  0  0  0  0
  7  9  1  0  0  0  0
  9 10  1  0  0  0  0
  9 11  1  0  0  0  0
  9 23  1  0  0  0  0
 11 12  1  0  0  0  0
 11 13  1  0  0  0  0
 11 14  1  0  0  0  0
 14 15  1  0  0  0  0
 14 21  2  0  0  0  0
 15 16  1  0  0  0  0
 15 17  2  0  0  0  0
 17 18  1  0  0  0  0
 17 19  1  0  0  0  0
 19 20  1  0  0  0  0
 19 21  1  0  0  0  0
 21 22  1  0  0  0  0
 23 24  2  0  0  0  0
 23 25  1  0  0  0  0
 25 26  1  0  0  0  0
 25 27  1  0  0  0  0
 27 28  1  0  0  0  0
 27 29  1  0  0  0  0
 27 30  1  0  0  0  0
M  CHG  1  15   1
M  END
$$$$

  -OEChem-01062216083D

 30 30  0     1  0  0  0  0  0999 V2000
   -3.4513   -2.0491    1.3213 H   0  0  0  0  0  0  0  0  0  0  0  0
   -3.3176   -1.1180    0.7626 C   0  0  0  0  0  0  0  0  0  0  0  0
   -3.5571   -0.2806    1.4216 H   0  0  0  0  0  0  0  0  0  0  0  0
   -4.0018   -1.1184   -0.0887 H   0  0  0  0  0  0  0  0  0  0  0  0
   -1.8837   -1.0074    0.2821 C   0  0  0  0  0  0  0  0  0  0  0  0
   -1.1456   -1.9720    0.3682 O   0  0  0  0  0  0  0  0  0  0  0  0
   -1.4907    0.0674   -0.4991 N   0  0  0  0  0  0  0  0  0  0  0  0
   -2.2562    0.7010   -0.6961 H   0  0  0  0  0  0  0  0  0  0  0  0
   -0.1443    0.6939   -0.4571 C   0  0  1  0  0  0  0  0  0  0  0  0
    0.2967    0.5970   -1.4530 H   0  0  0  0  0  0  0  0  0  0  0  0
   -0.3401    2.1832   -0.1006 C   0  0  0  0  0  0  0  0  0  0  0  0
   -0.8591    2.2482    0.8633 H   0  0  0  0  0  0  0  0  0  0  0  0
    0.6332    2.6681    0.0354 H   0  0  0  0  0  0  0  0  0  0  0  0
   -1.1127    2.9353   -1.1592 C   0  0  0  0  0  0  0  0  0  0  0  0
   -0.6376    3.3503   -2.4058 N   0  3  0  0  0  0  0  0  0  0  0  0
    0.3084    3.1486   -2.7410 H   0  0  0  0  0  0  0  0  0  0  0  0
   -1.5582    4.0377   -3.0385 C   0  0  0  0  0  0  0  0  0  0  0  0
   -1.4655    4.4891   -4.0289 H   0  0  0  0  0  0  0  0  0  0  0  0
   -2.6738    4.0978   -2.2065 N   0  0  0  0  0  0  0  0  0  0  0  0
   -3.5487    4.5905   -2.4152 H   0  0  0  0  0  0  0  0  0  0  0  0
   -2.3902    3.4219   -1.0252 C   0  0  0  0  0  0  0  0  0  0  0  0
   -3.0372    3.3187   -0.1526 H   0  0  0  0  0  0  0  0  0  0  0  0
    0.9130    0.1292    0.5338 C   0  0  0  0  0  0  0  0  0  0  0  0
    0.5684   -0.0497    1.6946 O   0  0  0  0  0  0  0  0  0  0  0  0
    2.2444    0.4780    0.3584 N   0  0  0  0  0  0  0  0  0  0  0  0
    2.5701    0.5531   -0.6003 H   0  0  0  0  0  0  0  0  0  0  0  0
    3.2555    0.2264    1.3860 C   0  0  0  0  0  0  0  0  0  0  0  0
    3.2560   -0.8311    1.6733 H   0  0  0  0  0  0  0  0  0  0  0  0
    4.2521    0.4826    1.0134 H   0  0  0  0  0  0  0  0  0  0  0  0
    3.0576    0.8302    2.2784 H   0  0  0  0  0  0  0  0  0  0  0  0
  1  2  1  0  0  0  0
  2  3  1  0  0  0  0
  2  4  1  0  0  0  0
  2  5  1  0  0  0  0
  5  6  2  0  0  0  0
  5  7  1  0  0  0  0
  7  8  1  0  0  0  0
  7  9  1  0  0  0  0
  9 10  1  0  0  0  0
  9 11  1  0  0  0  0
  9 23  1  0  0  0  0
 11 12  1  0  0  0  0
 11 13  1  0  0  0  0
 11 14  1  0  0  0  0
 14 15  1  0  0  0  0
 14 21  2  0  0  0  0
 15 16  1  0  0  0  0
 15 17  2  0  0  0  0
 17 18  1  0  0  0  0
 17 19  1  0  0  0  0
 19 20  1  0  0  0  0
 19 21  1  0  0  0  0
 21 22  1  0  0  0  0
 23 24  2  0  0  0  0
 23 25  1  0  0  0  0
 25 26  1  0  0  0  0
 25 27  1  0  0  0  0
 27 28  1  0  0  0  0
 27 29  1  0  0  0  0
 27 30  1  0  0  0  0
M  CHG  1  15   1
M  END
$$$$

  -OEChem-01062216083D

 30 30  0     1  0  0  0  0  0999 V2000
   -3.2846   -2.1003    1.4315 H   0  0  0  0  0  0  0  0  0  0  0  0
   -3.0355   -1.5607    0.5132 C   0  0  0  0  0  0  0  0  0  0  0  0
   -3.9547   -1.1666    0.0744 H   0  0  0  0  0  0  0  0  0  0  0  0
   -2.5716   -2.2610   -0.1857 H   0  0  0  0  0  0  0  0  0  0  0  0
   -2.0737   -0.4313    0.8241 C   0  0  0  0  0  0  0  0  0  0  0  0
   -1.8434   -0.1093    1.9784 O   0  0  0  0  0  0  0  0  0  0  0  0
   -1.6622    0.4512   -0.1581 N   0  0  0  0  0  0  0  0  0  0  0  0
   -2.0959    0.2167   -1.0466 H   0  0  0  0  0  0  0  0  0  0  0  0
   -0.2479    0.8922   -0.2916 C   0  0  1  0  0  0  0  0  0  0  0  0
    0.0311    0.9039   -1.3490 H   0  0  0  0  0  0  0  0  0  0  0  0
   -0.2377    2.3222    0.2947 C   0  0  0  0  0  0  0  0  0  0  0  0
   -0.5999    2.2774    1.3298 H   0  0  0  0  0  0  0  0  0  0  0  0
    0.7812    2.7188    0.3347 H   0  0  0  0  0  0  0  0  0  0  0  0
   -1.0893    3.2817   -0.5034 C   0  0  0  0  0  0  0  0  0  0  0  0
   -0.8147    3.8665   -1.7420 N   0  3  0  0  0  0  0  0  0  0  0  0
    0.0487    3.6982   -2.2640 H   0  0  0  0  0  0  0  0  0  0  0  0
   -1.7959    4.6642   -2.0932 C   0  0  0  0  0  0  0  0  0  0  0  0
   -1.8532    5.2622   -3.0052 H   0  0  0  0  0  0  0  0  0  0  0  0
   -2.7522    4.6159   -1.0807 N   0  0  0  0  0  0  0  0  0  0  0  0
   -3.6341    5.1381   -1.0620 H   0  0  0  0  0  0  0  0  0  0  0  0
   -2.3069    3.7556   -0.0856 C   0  0  0  0  0  0  0  0  0  0  0  0
   -2.8116    3.4926    0.8463 H   0  0  0  0  0  0  0  0  0  0  0  0
    0.8623    0.0805    0.4478 C   0  0  0  0  0  0  0  0  0  0  0  0
    0.6808   -1.0912    0.7433 O   0  0  0  0  0  0  0  0  0  0  0  0
    2.1892    0.4735    0.3438 N   0  0  0  0  0  0  0  0  0  0  0  0
    2.3926    1.4130    0.0219 H   0  0  0  0  0  0  0  0  0  0  0  0
    3.3048   -0.3506    0.8102 C   0  0  0  0  0  0  0  0  0  0  0  0
    3.3478   -1.2927    0.2523 H   0  0  0  0  0  0  0  0  0  0  0  0
    4.2545    0.1750    0.6690 H   0  0  0  0  0  0  0  0  0  0  0  0
    3.1937   -0.5806    1.8758 H   0  0  0  0  0  0  0  0  0  0  0  0
  1  2  1  0  0  0  0
  2  3  1  0  0  0  0
  2  4  1  0  0  0  0
  2  5  1  0  0  0  0
  5  6  2  0  0  0  0
  5  7  1  0  0  0  0
  7  8  1  0  0  0  0
  7  9  1  0  0  0  0
  9 10  1  0  0  0  0
  9 11  1  0  0  0  0
  9 23  1  0  0  0  0
 11 12  1  0  0  0  0
 11 13  1  0  0  0  0
 11 14  1  0  0  0  0
 14 15  1  0  0  0  0
 14 21  2  0  0  0  0
 15 16  1  0  0  0  0
 15 17  2  0  0  0  0
 17 18  1  0  0  0  0
 17 19  1  0  0  0  0
 19 20  1  0  0  0  0
 19 21  1  0  0  0  0
 21 22  1  0  0  0  0
 23 24  2  0  0  0  0
 23 25  1  0  0  0  0
 25 26  1  0  0  0  0
 25 27  1  0  0  0  0
 27 28  1  0  0  0  0
 27 29  1  0  0  0  0
 27 30  1  0  0  0  0
M  CHG  1  15   1
M  END
$$$$

  -OEChem-01062216083D

 30 30  0     1  0  0  0  0  0999 V2000
   -3.2304   -2.1398    1.4192 H   0  0  0  0  0  0  0  0  0  0  0  0
   -3.0319   -1.5528    0.5178 C   0  0  0  0  0  0  0  0  0  0  0  0
   -3.9708   -1.1227    0.1625 H   0  0  0  0  0  0  0  0  0  0  0  0
   -2.6262   -2.2189   -0.2475 H   0  0  0  0  0  0  0  0  0  0  0  0
   -2.0331   -0.4550    0.8263 C   0  0  0  0  0  0  0  0  0  0  0  0
   -1.7149   -0.2089    1.9786 O   0  0  0  0  0  0  0  0  0  0  0  0
   -1.6528    0.4592   -0.1409 N   0  0  0  0  0  0  0  0  0  0  0  0
   -2.1036    0.2521   -1.0279 H   0  0  0  0  0  0  0  0  0  0  0  0
   -0.2462    0.9218   -0.2776 C   0  0  1  0  0  0  0  0  0  0  0  0
    0.0335    0.9350   -1.3349 H   0  0  0  0  0  0  0  0  0  0  0  0
   -0.2459    2.3565    0.2962 C   0  0  0  0  0  0  0  0  0  0  0  0
   -0.6029    2.3189    1.3331 H   0  0  0  0  0  0  0  0  0  0  0  0
    0.7674    2.7663    0.3206 H   0  0  0  0  0  0  0  0  0  0  0  0
   -1.1088    3.2972   -0.5117 C   0  0  0  0  0  0  0  0  0  0  0  0
   -0.8313    3.8638   -1.7582 N   0  3  0  0  0  0  0  0  0  0  0  0
    0.0338    3.6875   -2.2757 H   0  0  0  0  0  0  0  0  0  0  0  0
   -1.8128    4.6541   -2.1245 C   0  0  0  0  0  0  0  0  0  0  0  0
   -1.8682    5.2368   -3.0466 H   0  0  0  0  0  0  0  0  0  0  0  0
   -2.7715    4.6199   -1.1138 N   0  0  0  0  0  0  0  0  0  0  0  0
   -3.6536    5.1420   -1.1056 H   0  0  0  0  0  0  0  0  0  0  0  0
   -2.3278    3.7760   -0.1037 C   0  0  0  0  0  0  0  0  0  0  0  0
   -2.8345    3.5289    0.8312 H   0  0  0  0  0  0  0  0  0  0  0  0
    0.8497    0.0782    0.4451 C   0  0  0  0  0  0  0  0  0  0  0  0
    0.7360   -1.1397    0.4483 O   0  0  0  0  0  0  0  0  0  0  0  0
    2.1298    0.5731    0.6489 N   0  0  0  0  0  0  0  0  0  0  0  0
    2.2585    1.5785    0.6548 H   0  0  0  0  0  0  0  0  0  0  0  0
    3.2253   -0.2573    1.1492 C   0  0  0  0  0  0  0  0  0  0  0  0
    3.4298   -1.0838    0.4597 H   0  0  0  0  0  0  0  0  0  0  0  0
    4.1393    0.3359    1.2521 H   0  0  0  0  0  0  0  0  0  0  0  0
    2.9728   -0.6758    2.1299 H   0  0  0  0  0  0  0  0  0  0  0  0
  1  2  1  0  0  0  0
  2  3  1  0  0  0  0
  2  4  1  0  0  0  0
  2  5  1  0  0  0  0
  5  6  2  0  0  0  0
  5  7  1  0  0  0  0
  7  8  1  0  0  0  0
  7  9  1  0  0  0  0
  9 10  1  0  0  0  0
  9 11  1  0  0  0  0
  9 23  1  0  0  0  0
 11 12  1  0  0  0  0
 11 13  1  0  0  0  0
 11 14  1  0  0  0  0
 14 15  1  0  0  0  0
 14 21  2  0  0  0  0
 15 16  1  0  0  0  0
 15 17  2  0  0  0  0
 17 18  1  0  0  0  0
 17 19  1  0  0  0  0
 19 20  1  0  0  0  0
 19 21  1  0  0  0  0
 21 22  1  0  0  0  0
 23 24  2  0  0  0  0
 23 25  1  0  0  0  0
 25 26  1  0  0  0  0
 25 27  1  0  0  0  0
 27 28  1  0  0  0  0
 27 29  1  0  0  0  0
 27 30  1  0  0  0  0
M  CHG  1  15   1
M  END
$$$$

  -OEChem-01062216083D

 30 30  0     1  0  0  0  0  0999 V2000
   -3.1772   -2.1766    1.4102 H   0  0  0  0  0  0  0  0  0  0  0  0
   -3.0194   -1.5516    0.5263 C   0  0  0  0  0  0  0  0  0  0  0  0
   -3.9732   -1.1076    0.2329 H   0  0  0  0  0  0  0  0  0  0  0  0
   -2.6500   -2.1845   -0.2845 H   0  0  0  0  0  0  0  0  0  0  0  0
   -2.0067   -0.4668    0.8353 C   0  0  0  0  0  0  0  0  0  0  0  0
   -1.6381   -0.2695    1.9820 O   0  0  0  0  0  0  0  0  0  0  0  0
   -1.6517    0.4709   -0.1195 N   0  0  0  0  0  0  0  0  0  0  0  0
   -2.1150    0.2821   -1.0041 H   0  0  0  0  0  0  0  0  0  0  0  0
   -0.2522    0.9498   -0.2610 C   0  0  1  0  0  0  0  0  0  0  0  0
    0.0229    0.9612   -1.3198 H   0  0  0  0  0  0  0  0  0  0  0  0
   -0.2473    2.3891    0.2981 C   0  0  0  0  0  0  0  0  0  0  0  0
   -0.5973    2.3639    1.3376 H   0  0  0  0  0  0  0  0  0  0  0  0
    0.7675    2.7978    0.3040 H   0  0  0  0  0  0  0  0  0  0  0  0
   -1.1162    3.3166   -0.5181 C   0  0  0  0  0  0  0  0  0  0  0  0
   -0.8389    3.8626   -1.7738 N   0  3  0  0  0  0  0  0  0  0  0  0
    0.0276    3.6797   -2.2871 H   0  0  0  0  0  0  0  0  0  0  0  0
   -1.8231    4.6418   -2.1557 C   0  0  0  0  0  0  0  0  0  0  0  0
   -1.8801    5.2064   -3.0890 H   0  0  0  0  0  0  0  0  0  0  0  0
   -2.7831    4.6221   -1.1457 N   0  0  0  0  0  0  0  0  0  0  0  0
   -3.6687    5.1383   -1.1501 H   0  0  0  0  0  0  0  0  0  0  0  0
   -2.3376    3.7982   -0.1196 C   0  0  0  0  0  0  0  0  0  0  0  0
   -2.8452    3.5663    0.8186 H   0  0  0  0  0  0  0  0  0  0  0  0
    0.8348    0.0836    0.4447 C   0  0  0  0  0  0  0  0  0  0  0  0
    0.8093   -1.1205    0.2292 O   0  0  0  0  0  0  0  0  0  0  0  0
    2.0141    0.6143    0.9464 N   0  0  0  0  0  0  0  0  0  0  0  0
    2.0115    1.5919    1.2156 H   0  0  0  0  0  0  0  0  0  0  0  0
    3.0834   -0.2300    1.4780 C   0  0  0  0  0  0  0  0  0  0  0  0
    3.4621   -0.9064    0.7038 H   0  0  0  0  0  0  0  0  0  0  0  0
    3.9169    0.3852    1.8308 H   0  0  0  0  0  0  0  0  0  0  0  0
    2.7171   -0.8308    2.3179 H   0  0  0  0  0  0  0  0  0  0  0  0
  1  2  1  0  0  0  0
  2  3  1  0  0  0  0
  2  4  1  0  0  0  0
  2  5  1  0  0  0  0
  5  6  2  0  0  0  0
  5  7  1  0  0  0  0
  7  8  1  0  0  0  0
  7  9  1  0  0  0  0
  9 10  1  0  0  0  0
  9 11  1  0  0  0  0
  9 23  1  0  0  0  0
 11 12  1  0  0  0  0
 11 13  1  0  0  0  0
 11 14  1  0  0  0  0
 14 15  1  0  0  0  0
 14 21  2  0  0  0  0
 15 16  1  0  0  0  0
 15 17  2  0  0  0  0
 17 18  1  0  0  0  0
 17 19  1  0  0  0  0
 19 20  1  0  0  0  0
 19 21  1  0  0  0  0
 21 22  1  0  0  0  0
 23 24  2  0  0  0  0
 23 25  1  0  0  0  0
 25 26  1  0  0  0  0
 25 27  1  0  0  0  0
 27 28  1  0  0  0  0
 27 29  1  0  0  0  0
 27 30  1  0  0  0  0
M  CHG  1  15   1
M  END
$$$$

  -OEChem-01062216083D

 30 30  0     1  0  0  0  0  0999 V2000
   -3.1506   -2.2133    1.3978 H   0  0  0  0  0  0  0  0  0  0  0  0
   -3.0215   -1.5604    0.5297 C   0  0  0  0  0  0  0  0  0  0  0  0
   -3.9817   -1.0993    0.2889 H   0  0  0  0  0  0  0  0  0  0  0  0
   -2.6904   -2.1689   -0.3154 H   0  0  0  0  0  0  0  0  0  0  0  0
   -1.9888   -0.4935    0.8347 C   0  0  0  0  0  0  0  0  0  0  0  0
   -1.5765   -0.3390    1.9731 O   0  0  0  0  0  0  0  0  0  0  0  0
   -1.6523    0.4601   -0.1113 N   0  0  0  0  0  0  0  0  0  0  0  0
   -2.1296    0.2903   -0.9925 H   0  0  0  0  0  0  0  0  0  0  0  0
   -0.2605    0.9559   -0.2564 C   0  0  1  0  0  0  0  0  0  0  0  0
    0.0084    0.9660   -1.3171 H   0  0  0  0  0  0  0  0  0  0  0  0
   -0.2494    2.3976    0.2920 C   0  0  0  0  0  0  0  0  0  0  0  0
   -0.5940    2.3814    1.3331 H   0  0  0  0  0  0  0  0  0  0  0  0
    0.7688    2.7995    0.2868 H   0  0  0  0  0  0  0  0  0  0  0  0
   -1.1213    3.3213   -0.5242 C   0  0  0  0  0  0  0  0  0  0  0  0
   -0.8434    3.8543   -1.7851 N   0  3  0  0  0  0  0  0  0  0  0  0
    0.0201    3.6584   -2.2991 H   0  0  0  0  0  0  0  0  0  0  0  0
   -1.8190    4.6433   -2.1681 C   0  0  0  0  0  0  0  0  0  0  0  0
   -1.8710    5.2038   -3.1039 H   0  0  0  0  0  0  0  0  0  0  0  0
   -2.7754    4.6411   -1.1545 N   0  0  0  0  0  0  0  0  0  0  0  0
   -3.6534    5.1702   -1.1581 H   0  0  0  0  0  0  0  0  0  0  0  0
   -2.3358    3.8187   -0.1244 C   0  0  0  0  0  0  0  0  0  0  0  0
   -2.8419    3.6013    0.8179 H   0  0  0  0  0  0  0  0  0  0  0  0
    0.8283    0.0857    0.4358 C   0  0  0  0  0  0  0  0  0  0  0  0
    0.9177   -1.0744    0.0586 O   0  0  0  0  0  0  0  0  0  0  0  0
    1.8559    0.6099    1.2048 N   0  0  0  0  0  0  0  0  0  0  0  0
    1.6864    1.5079    1.6454 H   0  0  0  0  0  0  0  0  0  0  0  0
    2.8872   -0.2419    1.7944 C   0  0  0  0  0  0  0  0  0  0  0  0
    3.4287   -0.7891    1.0148 H   0  0  0  0  0  0  0  0  0  0  0  0
    3.6097    0.3629    2.3512 H   0  0  0  0  0  0  0  0  0  0  0  0
    2.4381   -0.9669    2.4824 H   0  0  0  0  0  0  0  0  0  0  0  0
  1  2  1  0  0  0  0
  2  3  1  0  0  0  0
  2  4  1  0  0  0  0
  2  5  1  0  0  0  0
  5  6  2  0  0  0  0
  5  7  1  0  0  0  0
  7  8  1  0  0  0  0
  7  9  1  0  0  0  0
  9 10  1  0  0  0  0
  9 11  1  0  0  0  0
  9 23  1  0  0  0  0
 11 12  1  0  0  0  0
 11 13  1  0  0  0  0
 11 14  1  0  0  0  0
 14 15  1  0  0  0  0
 14 21  2  0  0  0  0
 15 16  1  0  0  0  0
 15 17  2  0  0  0  0
 17 18  1  0  0  0  0
 17 19  1  0  0  0  0
 19 20  1  0  0  0  0
 19 21  1  0  0  0  0
 21 22  1  0  0  0  0
 23 24  2  0  0  0  0
 23 25  1  0  0  0  0
 25 26  1  0  0  0  0
 25 27  1  0  0  0  0
 27 28  1  0  0  0  0
 27 29  1  0  0  0  0
 27 30  1  0  0  0  0
M  CHG  1  15   1
M  END
$$$$

  -OEChem-01062216083D

 30 30  0     1  0  0  0  0  0999 V2000
   -3.1785   -2.2293    1.3718 H   0  0  0  0  0  0  0  0  0  0  0  0
   -3.0567   -1.5533    0.5202 C   0  0  0  0  0  0  0  0  0  0  0  0
   -4.0119   -1.0629    0.3201 H   0  0  0  0  0  0  0  0  0  0  0  0
   -2.7638   -2.1430   -0.3520 H   0  0  0  0  0  0  0  0  0  0  0  0
   -1.9906   -0.5205    0.8279 C   0  0  0  0  0  0  0  0  0  0  0  0
   -1.5463   -0.4122    1.9592 O   0  0  0  0  0  0  0  0  0  0  0  0
   -1.6536    0.4458   -0.1050 N   0  0  0  0  0  0  0  0  0  0  0  0
   -2.1409    0.3024   -0.9855 H   0  0  0  0  0  0  0  0  0  0  0  0
   -0.2661    0.9522   -0.2436 C   0  0  1  0  0  0  0  0  0  0  0  0
    0.0012    0.9660   -1.3051 H   0  0  0  0  0  0  0  0  0  0  0  0
   -0.2502    2.3943    0.3016 C   0  0  0  0  0  0  0  0  0  0  0  0
   -0.5997    2.3827    1.3410 H   0  0  0  0  0  0  0  0  0  0  0  0
    0.7725    2.7868    0.3015 H   0  0  0  0  0  0  0  0  0  0  0  0
   -1.1187    3.3174   -0.5188 C   0  0  0  0  0  0  0  0  0  0  0  0
   -0.8326    3.8423   -1.7812 N   0  3  0  0  0  0  0  0  0  0  0  0
    0.0334    3.6407   -2.2887 H   0  0  0  0  0  0  0  0  0  0  0  0
   -1.8033    4.6325   -2.1740 C   0  0  0  0  0  0  0  0  0  0  0  0
   -1.8486    5.1871   -3.1139 H   0  0  0  0  0  0  0  0  0  0  0  0
   -2.7642    4.6405   -1.1645 N   0  0  0  0  0  0  0  0  0  0  0  0
   -3.6396    5.1739   -1.1752 H   0  0  0  0  0  0  0  0  0  0  0  0
   -2.3324    3.8232   -0.1268 C   0  0  0  0  0  0  0  0  0  0  0  0
   -2.8434    3.6160    0.8149 H   0  0  0  0  0  0  0  0  0  0  0  0
    0.8282    0.0852    0.4385 C   0  0  0  0  0  0  0  0  0  0  0  0
    1.0669   -0.9942   -0.0831 O   0  0  0  0  0  0  0  0  0  0  0  0
    1.6639    0.5516    1.4406 N   0  0  0  0  0  0  0  0  0  0  0  0
    1.3070    1.3198    2.0004 H   0  0  0  0  0  0  0  0  0  0  0  0
    2.6745   -0.3061    2.0557 C   0  0  0  0  0  0  0  0  0  0  0  0
    3.3762   -0.6797    1.3019 H   0  0  0  0  0  0  0  0  0  0  0  0
    3.2440    0.2532    2.8045 H   0  0  0  0  0  0  0  0  0  0  0  0
    2.2012   -1.1630    2.5479 H   0  0  0  0  0  0  0  0  0  0  0  0
  1  2  1  0  0  0  0
  2  3  1  0  0  0  0
  2  4  1  0  0  0  0
  2  5  1  0  0  0  0
  5  6  2  0  0  0  0
  5  7  1  0  0  0  0
  7  8  1  0  0  0  0
  7  9  1  0  0  0  0
  9 10  1  0  0  0  0
  9 11  1  0  0  0  0
  9 23  1  0  0  0  0
 11 12  1  0  0  0  0
 11 13  1  0  0  0  0
 11 14  1  0  0  0  0
 14 15  1  0  0  0  0
 14 21  2  0  0  0  0
 15 16  1  0  0  0  0
 15 17  2  0  0  0  0
 17 18  1  0  0  0  0
 17 19  1  0  0  0  0
 19 20  1  0  0  0  0
 19 21  1  0  0  0  0
 21 22  1  0  0  0  0
 23 24  2  0  0  0  0
 23 25  1  0  0  0  0
 25 26  1  0  0  0  0
 25 27  1  0  0  0  0
 27 28  1  0  0  0  0
 27 29  1  0  0  0  0
 27 30  1  0  0  0  0
M  CHG  1  15   1
M  END
$$$$

  -OEChem-01062216083D

 30 30  0     1  0  0  0  0  0999 V2000
   -3.2419   -2.2426    1.3456 H   0  0  0  0  0  0  0  0  0  0  0  0
   -3.1187   -1.5487    0.5088 C   0  0  0  0  0  0  0  0  0  0  0  0
   -4.0633   -1.0259    0.3429 H   0  0  0  0  0  0  0  0  0  0  0  0
   -2.8629   -2.1240   -0.3844 H   0  0  0  0  0  0  0  0  0  0  0  0
   -2.0176   -0.5539    0.8187 C   0  0  0  0  0  0  0  0  0  0  0  0
   -1.5490   -0.4880    1.9432 O   0  0  0  0  0  0  0  0  0  0  0  0
   -1.6680    0.4190   -0.1023 N   0  0  0  0  0  0  0  0  0  0  0  0
   -2.1630    0.3051   -0.9831 H   0  0  0  0  0  0  0  0  0  0  0  0
   -0.2819    0.9304   -0.2290 C   0  0  1  0  0  0  0  0  0  0  0  0
   -0.0160    0.9470   -1.2911 H   0  0  0  0  0  0  0  0  0  0  0  0
   -0.2588    2.3721    0.3146 C   0  0  0  0  0  0  0  0  0  0  0  0
   -0.6161    2.3654    1.3509 H   0  0  0  0  0  0  0  0  0  0  0  0
    0.7692    2.7516    0.3248 H   0  0  0  0  0  0  0  0  0  0  0  0
   -1.1156    3.3024   -0.5092 C   0  0  0  0  0  0  0  0  0  0  0  0
   -0.8125    3.8219   -1.7698 N   0  3  0  0  0  0  0  0  0  0  0  0
    0.0576    3.6124   -2.2675 H   0  0  0  0  0  0  0  0  0  0  0  0
   -1.7678    4.6271   -2.1697 C   0  0  0  0  0  0  0  0  0  0  0  0
   -1.7953    5.1855   -3.1080 H   0  0  0  0  0  0  0  0  0  0  0  0
   -2.7374    4.6474   -1.1688 N   0  0  0  0  0  0  0  0  0  0  0  0
   -3.6029    5.1965   -1.1847 H   0  0  0  0  0  0  0  0  0  0  0  0
   -2.3256    3.8243   -0.1274 C   0  0  0  0  0  0  0  0  0  0  0  0
   -2.8462    3.6265    0.8107 H   0  0  0  0  0  0  0  0  0  0  0  0
    0.8235    0.0765    0.4483 C   0  0  0  0  0  0  0  0  0  0  0  0
    1.2632   -0.8599   -0.2020 O   0  0  0  0  0  0  0  0  0  0  0  0
    1.4413    0.4358    1.6347 N   0  0  0  0  0  0  0  0  0  0  0  0
    0.8746    0.9971    2.2648 H   0  0  0  0  0  0  0  0  0  0  0  0
    2.4665   -0.4067    2.2455 C   0  0  0  0  0  0  0  0  0  0  0  0
    3.2995   -0.5679    1.5523 H   0  0  0  0  0  0  0  0  0  0  0  0
    2.8620    0.0685    3.1488 H   0  0  0  0  0  0  0  0  0  0  0  0
    2.0472   -1.3808    2.5204 H   0  0  0  0  0  0  0  0  0  0  0  0
  1  2  1  0  0  0  0
  2  3  1  0  0  0  0
  2  4  1  0  0  0  0
  2  5  1  0  0  0  0
  5  6  2  0  0  0  0
  5  7  1  0  0  0  0
  7  8  1  0  0  0  0
  7  9  1  0  0  0  0
  9 10  1  0  0  0  0
  9 11  1  0  0  0  0
  9 23  1  0  0  0  0
 11 12  1  0  0  0  0
 11 13  1  0  0  0  0
 11 14  1  0  0  0  0
 14 15  1  0  0  0  0
 14 21  2  0  0  0  0
 15 16  1  0  0  0  0
 15 17  2  0  0  0  0
 17 18  1  0  0  0  0
 17 19  1  0  0  0  0
 19 20  1  0  0  0  0
 19 21  1  0  0  0  0
 21 22  1  0  0  0  0
 23 24  2  0  0  0  0
 23 25  1  0  0  0  0
 25 26  1  0  0  0  0
 25 27  1  0  0  0  0
 27 28  1  0  0  0  0
 27 29  1  0  0  0  0
 27 30  1  0  0  0  0
M  CHG  1  15   1
M  END
$$$$

  -OEChem-01062216083D

 30 30  0     1  0  0  0  0  0999 V2000
   -3.3770   -2.2129    1.3241 H   0  0  0  0  0  0  0  0  0  0  0  0
   -3.2089   -1.5329    0.4836 C   0  0  0  0  0  0  0  0  0  0  0  0
   -4.1277   -0.9728    0.2956 H   0  0  0  0  0  0  0  0  0  0  0  0
   -2.9623   -2.1267   -0.4000 H   0  0  0  0  0  0  0  0  0  0  0  0
   -2.0718   -0.5827    0.8050 C   0  0  0  0  0  0  0  0  0  0  0  0
   -1.5958   -0.5551    1.9275 O   0  0  0  0  0  0  0  0  0  0  0  0
   -1.6921    0.3894   -0.1040 N   0  0  0  0  0  0  0  0  0  0  0  0
   -2.1957    0.3117   -0.9840 H   0  0  0  0  0  0  0  0  0  0  0  0
   -0.3025    0.8945   -0.2203 C   0  0  1  0  0  0  0  0  0  0  0  0
   -0.0393    0.9167   -1.2830 H   0  0  0  0  0  0  0  0  0  0  0  0
   -0.2636    2.3332    0.3291 C   0  0  0  0  0  0  0  0  0  0  0  0
   -0.6224    2.3284    1.3648 H   0  0  0  0  0  0  0  0  0  0  0  0
    0.7700    2.6975    0.3452 H   0  0  0  0  0  0  0  0  0  0  0  0
   -1.1063    3.2770   -0.4932 C   0  0  0  0  0  0  0  0  0  0  0  0
   -0.7894    3.7957   -1.7507 N   0  3  0  0  0  0  0  0  0  0  0  0
    0.0797    3.5737   -2.2451 H   0  0  0  0  0  0  0  0  0  0  0  0
   -1.7298    4.6175   -2.1518 C   0  0  0  0  0  0  0  0  0  0  0  0
   -1.7443    5.1795   -3.0883 H   0  0  0  0  0  0  0  0  0  0  0  0
   -2.7028    4.6502   -1.1544 N   0  0  0  0  0  0  0  0  0  0  0  0
   -3.5582    5.2147   -1.1716 H   0  0  0  0  0  0  0  0  0  0  0  0
   -2.3087    3.8175   -0.1136 C   0  0  0  0  0  0  0  0  0  0  0  0
   -2.8347    3.6277    0.8234 H   0  0  0  0  0  0  0  0  0  0  0  0
    0.8141    0.0540    0.4531 C   0  0  0  0  0  0  0  0  0  0  0  0
    1.4792   -0.6625   -0.2796 O   0  0  0  0  0  0  0  0  0  0  0  0
    1.2119    0.2527    1.7638 N   0  0  0  0  0  0  0  0  0  0  0  0
    0.4581    0.5458    2.3845 H   0  0  0  0  0  0  0  0  0  0  0  0
    2.2802   -0.5424    2.3644 C   0  0  0  0  0  0  0  0  0  0  0  0
    3.2052   -0.4496    1.7850 H   0  0  0  0  0  0  0  0  0  0  0  0
    2.4813   -0.2004    3.3844 H   0  0  0  0  0  0  0  0  0  0  0  0
    1.9957   -1.5996    2.4024 H   0  0  0  0  0  0  0  0  0  0  0  0
  1  2  1  0  0  0  0
  2  3  1  0  0  0  0
  2  4  1  0  0  0  0
  2  5  1  0  0  0  0
  5  6  2  0  0  0  0
  5  7  1  0  0  0  0
  7  8  1  0  0  0  0
  7  9  1  0  0  0  0
  9 10  1  0  0  0  0
  9 11  1  0  0  0  0
  9 23  1  0  0  0  0
 11 12  1  0  0  0  0
 11 13  1  0  0  0  0
 11 14  1  0  0  0  0
 14 15  1  0  0  0  0
 14 21  2  0  0  0  0
 15 16  1  0  0  0  0
 15 17  2  0  0  0  0
 17 18  1  0  0  0  0
 17 19  1  0  0  0  0
 19 20  1  0  0  0  0
 19 21  1  0  0  0  0
 21 22  1  0  0  0  0
 23 24  2  0  0  0  0
 23 25  1  0  0  0  0
 25 26  1  0  0  0  0
 25 27  1  0  0  0  0
 27 28  1  0  0  0  0
 27 29  1  0  0  0  0
 27 30  1  0  0  0  0
M  CHG  1  15   1
M  END
$$$$

  -OEChem-01062216083D

 30 30  0     1  0  0  0  0  0999 V2000
   -3.5267   -2.2001    1.2551 H   0  0  0  0  0  0  0  0  0  0  0  0
   -3.3303   -1.5010    0.4368 C   0  0  0  0  0  0  0  0  0  0  0  0
   -4.2220   -0.8909    0.2753 H   0  0  0  0  0  0  0  0  0  0  0  0
   -3.1189   -2.0762   -0.4679 H   0  0  0  0  0  0  0  0  0  0  0  0
   -2.1461   -0.6182    0.7801 C   0  0  0  0  0  0  0  0  0  0  0  0
   -1.6752   -0.6446    1.9035 O   0  0  0  0  0  0  0  0  0  0  0  0
   -1.7166    0.3471   -0.1135 N   0  0  0  0  0  0  0  0  0  0  0  0
   -2.2293    0.3170   -0.9911 H   0  0  0  0  0  0  0  0  0  0  0  0
   -0.3214    0.8439   -0.2198 C   0  0  1  0  0  0  0  0  0  0  0  0
   -0.0628    0.8705   -1.2839 H   0  0  0  0  0  0  0  0  0  0  0  0
   -0.2728    2.2777    0.3404 C   0  0  0  0  0  0  0  0  0  0  0  0
   -0.6312    2.2670    1.3762 H   0  0  0  0  0  0  0  0  0  0  0  0
    0.7641    2.6327    0.3628 H   0  0  0  0  0  0  0  0  0  0  0  0
   -1.1028    3.2378   -0.4750 C   0  0  0  0  0  0  0  0  0  0  0  0
   -0.7713    3.7626   -1.7257 N   0  3  0  0  0  0  0  0  0  0  0  0
    0.1004    3.5361   -2.2137 H   0  0  0  0  0  0  0  0  0  0  0  0
   -1.6956    4.6042   -2.1228 C   0  0  0  0  0  0  0  0  0  0  0  0
   -1.6938    5.1778   -3.0521 H   0  0  0  0  0  0  0  0  0  0  0  0
   -2.6746    4.6417   -1.1312 N   0  0  0  0  0  0  0  0  0  0  0  0
   -3.5191    5.2227   -1.1456 H   0  0  0  0  0  0  0  0  0  0  0  0
   -2.2982    3.7935   -0.0960 C   0  0  0  0  0  0  0  0  0  0  0  0
   -2.8299    3.6054    0.8379 H   0  0  0  0  0  0  0  0  0  0  0  0
    0.8198    0.0331    0.4482 C   0  0  0  0  0  0  0  0  0  0  0  0
    1.6773   -0.4214   -0.2941 O   0  0  0  0  0  0  0  0  0  0  0  0
    1.0305    0.0261    1.8147 N   0  0  0  0  0  0  0  0  0  0  0  0
    0.1721    0.1084    2.3641 H   0  0  0  0  0  0  0  0  0  0  0  0
    2.1329   -0.7148    2.4219 C   0  0  0  0  0  0  0  0  0  0  0  0
    3.0933   -0.3907    2.0064 H   0  0  0  0  0  0  0  0  0  0  0  0
    2.1543   -0.5443    3.5028 H   0  0  0  0  0  0  0  0  0  0  0  0
    2.0185   -1.7893    2.2421 H   0  0  0  0  0  0  0  0  0  0  0  0
  1  2  1  0  0  0  0
  2  3  1  0  0  0  0
  2  4  1  0  0  0  0
  2  5  1  0  0  0  0
  5  6  2  0  0  0  0
  5  7  1  0  0  0  0
  7  8  1  0  0  0  0
  7  9  1  0  0  0  0
  9 10  1  0  0  0  0
  9 11  1  0  0  0  0
  9 23  1  0  0  0  0
 11 12  1  0  0  0  0
 11 13  1  0  0  0  0
 11 14  1  0  0  0  0
 14 15  1  0  0  0  0
 14 21  2  0  0  0  0
 15 16  1  0  0  0  0
 15 17  2  0  0  0  0
 17 18  1  0  0  0  0
 17 19  1  0  0  0  0
 19 20  1  0  0  0  0
 19 21  1  0  0  0  0
 21 22  1  0  0  0  0
 23 24  2  0  0  0  0
 23 25  1  0  0  0  0
 25 26  1  0  0  0  0
 25 27  1  0  0  0  0
 27 28  1  0  0  0  0
 27 29  1  0  0  0  0
 27 30  1  0  0  0  0
M  CHG  1  15   1
M  END
$$$$

  -OEChem-01062216083D

 30 30  0     1  0  0  0  0  0999 V2000
   -3.6789   -2.1735    1.1773 H   0  0  0  0  0  0  0  0  0  0  0  0
   -3.4506   -1.4586    0.3811 C   0  0  0  0  0  0  0  0  0  0  0  0
   -4.3138   -0.8041    0.2395 H   0  0  0  0  0  0  0  0  0  0  0  0
   -3.2653   -2.0143   -0.5414 H   0  0  0  0  0  0  0  0  0  0  0  0
   -2.2286   -0.6406    0.7518 C   0  0  0  0  0  0  0  0  0  0  0  0
   -1.7818   -0.7074    1.8819 O   0  0  0  0  0  0  0  0  0  0  0  0
   -1.7433    0.3108   -0.1278 N   0  0  0  0  0  0  0  0  0  0  0  0
   -2.2561    0.3175   -1.0059 H   0  0  0  0  0  0  0  0  0  0  0  0
   -0.3406    0.7940   -0.2240 C   0  0  1  0  0  0  0  0  0  0  0  0
   -0.0837    0.8240   -1.2885 H   0  0  0  0  0  0  0  0  0  0  0  0
   -0.2891    2.2231    0.3480 C   0  0  0  0  0  0  0  0  0  0  0  0
   -0.6523    2.2029    1.3821 H   0  0  0  0  0  0  0  0  0  0  0  0
    0.7492    2.5741    0.3799 H   0  0  0  0  0  0  0  0  0  0  0  0
   -1.1068    3.1976   -0.4620 C   0  0  0  0  0  0  0  0  0  0  0  0
   -0.7607    3.7320   -1.7046 N   0  3  0  0  0  0  0  0  0  0  0  0
    0.1122    3.5006   -2.1884 H   0  0  0  0  0  0  0  0  0  0  0  0
   -1.6700    4.5921   -2.0963 C   0  0  0  0  0  0  0  0  0  0  0  0
   -1.6532    5.1784   -3.0177 H   0  0  0  0  0  0  0  0  0  0  0  0
   -2.6538    4.6317   -1.1093 N   0  0  0  0  0  0  0  0  0  0  0  0
   -3.4875    5.2278   -1.1198 H   0  0  0  0  0  0  0  0  0  0  0  0
   -2.2955    3.7666   -0.0817 C   0  0  0  0  0  0  0  0  0  0  0  0
   -2.8327    3.5784    0.8490 H   0  0  0  0  0  0  0  0  0  0  0  0
    0.8262    0.0166    0.4417 C   0  0  0  0  0  0  0  0  0  0  0  0
    1.8063   -0.1882   -0.2591 O   0  0  0  0  0  0  0  0  0  0  0  0
    0.9103   -0.2357    1.7973 N   0  0  0  0  0  0  0  0  0  0  0  0
    0.0129   -0.2622    2.2887 H   0  0  0  0  0  0  0  0  0  0  0  0
    2.0335   -0.9468    2.4011 C   0  0  0  0  0  0  0  0  0  0  0  0
    2.9780   -0.4384    2.1784 H   0  0  0  0  0  0  0  0  0  0  0  0
    1.9152   -0.9863    3.4885 H   0  0  0  0  0  0  0  0  0  0  0  0
    2.0889   -1.9722    2.0205 H   0  0  0  0  0  0  0  0  0  0  0  0
  1  2  1  0  0  0  0
  2  3  1  0  0  0  0
  2  4  1  0  0  0  0
  2  5  1  0  0  0  0
  5  6  2  0  0  0  0
  5  7  1  0  0  0  0
  7  8  1  0  0  0  0
  7  9  1  0  0  0  0
  9 10  1  0  0  0  0
  9 11  1  0  0  0  0
  9 23  1  0  0  0  0
 11 12  1  0  0  0  0
 11 13  1  0  0  0  0
 11 14  1  0  0  0  0
 14 15  1  0  0  0  0
 14 21  2  0  0  0  0
 15 16  1  0  0  0  0
 15 17  2  0  0  0  0
 17 18  1  0  0  0  0
 17 19  1  0  0  0  0
 19 20  1  0  0  0  0
 19 21  1  0  0  0  0
 21 22  1  0  0  0  0
 23 24  2  0  0  0  0
 23 25  1  0  0  0  0
 25 26  1  0  0  0  0
 25 27  1  0  0  0  0
 27 28  1  0  0  0  0
 27 29  1  0  0  0  0
 27 30  1  0  0  0  0
M  CHG  1  15   1
M  END
$$$$

  -OEChem-01062216083D

 30 30  0     1  0  0  0  0  0999 V2000
   -3.8084   -2.1032    1.1618 H   0  0  0  0  0  0  0  0  0  0  0  0
   -3.5150   -1.4376    0.3446 C   0  0  0  0  0  0  0  0  0  0  0  0
   -4.3521   -0.7741    0.1160 H   0  0  0  0  0  0  0  0  0  0  0  0
   -3.2878   -2.0461   -0.5342 H   0  0  0  0  0  0  0  0  0  0  0  0
   -2.2971   -0.6270    0.7443 C   0  0  0  0  0  0  0  0  0  0  0  0
   -1.8897   -0.6835    1.8894 O   0  0  0  0  0  0  0  0  0  0  0  0
   -1.7774    0.3097   -0.1307 N   0  0  0  0  0  0  0  0  0  0  0  0
   -2.2835    0.3233   -1.0126 H   0  0  0  0  0  0  0  0  0  0  0  0
   -0.3651    0.7684   -0.2290 C   0  0  1  0  0  0  0  0  0  0  0  0
   -0.1132    0.8010   -1.2944 H   0  0  0  0  0  0  0  0  0  0  0  0
   -0.3009    2.1936    0.3521 C   0  0  0  0  0  0  0  0  0  0  0  0
   -0.6635    2.1686    1.3865 H   0  0  0  0  0  0  0  0  0  0  0  0
    0.7400    2.5376    0.3861 H   0  0  0  0  0  0  0  0  0  0  0  0
   -1.1088    3.1810   -0.4521 C   0  0  0  0  0  0  0  0  0  0  0  0
   -0.7549    3.7189   -1.6906 N   0  3  0  0  0  0  0  0  0  0  0  0
    0.1188    3.4845   -2.1718 H   0  0  0  0  0  0  0  0  0  0  0  0
   -1.6547    4.5908   -2.0785 C   0  0  0  0  0  0  0  0  0  0  0  0
   -1.6289    5.1839   -2.9953 H   0  0  0  0  0  0  0  0  0  0  0  0
   -2.6414    4.6329   -1.0944 N   0  0  0  0  0  0  0  0  0  0  0  0
   -3.4696    5.2368   -1.1031 H   0  0  0  0  0  0  0  0  0  0  0  0
   -2.2936    3.7582   -0.0714 C   0  0  0  0  0  0  0  0  0  0  0  0
   -2.8340    3.5693    0.8573 H   0  0  0  0  0  0  0  0  0  0  0  0
    0.8142   -0.0012    0.4262 C   0  0  0  0  0  0  0  0  0  0  0  0
    1.8556   -0.0165   -0.2141 O   0  0  0  0  0  0  0  0  0  0  0  0
    0.8215   -0.5158    1.7068 N   0  0  0  0  0  0  0  0  0  0  0  0
   -0.0847   -0.5791    2.1778 H   0  0  0  0  0  0  0  0  0  0  0  0
    1.9514   -1.2425    2.2782 C   0  0  0  0  0  0  0  0  0  0  0  0
    2.8628   -0.6365    2.2356 H   0  0  0  0  0  0  0  0  0  0  0  0
    1.7527   -1.4875    3.3264 H   0  0  0  0  0  0  0  0  0  0  0  0
    2.1245   -2.1753    1.7310 H   0  0  0  0  0  0  0  0  0  0  0  0
  1  2  1  0  0  0  0
  2  3  1  0  0  0  0
  2  4  1  0  0  0  0
  2  5  1  0  0  0  0
  5  6  2  0  0  0  0
  5  7  1  0  0  0  0
  7  8  1  0  0  0  0
  7  9  1  0  0  0  0
  9 10  1  0  0  0  0
  9 11  1  0  0  0  0
  9 23  1  0  0  0  0
 11 12  1  0  0  0  0
 11 13  1  0  0  0  0
 11 14  1  0  0  0  0
 14 15  1  0  0  0  0
 14 21  2  0  0  0  0
 15 16  1  0  0  0  0
 15 17  2  0  0  0  0
 17 18  1  0  0  0  0
 17 19  1  0  0  0  0
 19 20  1  0  0  0  0
 19 21  1  0  0  0  0
 21 22  1  0  0  0  0
 23 24  2  0  0  0  0
 23 25  1  0  0  0  0
 25 26  1  0  0  0  0
 25 27  1  0  0  0  0
 27 28  1  0  0  0  0
 27 29  1  0  0  0  0
 27 30  1  0  0  0  0
M  CHG  1  15   1
M  END
$$$$

  -OEChem-01062216083D

 30 30  0     1  0  0  0  0  0999 V2000
   -3.9044   -2.0046    1.2987 H   0  0  0  0  0  0  0  0  0  0  0  0
   -3.6134   -1.3631    0.4612 C   0  0  0  0  0  0  0  0  0  0  0  0
   -4.4301   -0.6680    0.2527 H   0  0  0  0  0  0  0  0  0  0  0  0
   -3.4441   -1.9924   -0.4160 H   0  0  0  0  0  0  0  0  0  0  0  0
   -2.3483   -0.5997    0.8042 C   0  0  0  0  0  0  0  0  0  0  0  0
   -1.9021   -0.6581    1.9346 O   0  0  0  0  0  0  0  0  0  0  0  0
   -1.8259    0.3064   -0.1006 N   0  0  0  0  0  0  0  0  0  0  0  0
   -2.3686    0.3346   -0.9599 H   0  0  0  0  0  0  0  0  0  0  0  0
   -0.4043    0.7190   -0.2633 C   0  0  1  0  0  0  0  0  0  0  0  0
   -0.1986    0.7336   -1.3387 H   0  0  0  0  0  0  0  0  0  0  0  0
   -0.2859    2.1496    0.3000 C   0  0  0  0  0  0  0  0  0  0  0  0
   -0.6089    2.1414    1.3477 H   0  0  0  0  0  0  0  0  0  0  0  0
    0.7619    2.4735    0.2917 H   0  0  0  0  0  0  0  0  0  0  0  0
   -1.1005    3.1482   -0.4829 C   0  0  0  0  0  0  0  0  0  0  0  0
   -0.7777    3.6637   -1.7392 N   0  3  0  0  0  0  0  0  0  0  0  0
    0.0733    3.4030   -2.2469 H   0  0  0  0  0  0  0  0  0  0  0  0
   -1.6684    4.5541   -2.1052 C   0  0  0  0  0  0  0  0  0  0  0  0
   -1.6612    5.1359   -3.0294 H   0  0  0  0  0  0  0  0  0  0  0  0
   -2.6163    4.6334   -1.0859 N   0  0  0  0  0  0  0  0  0  0  0  0
   -3.4261    5.2617   -1.0702 H   0  0  0  0  0  0  0  0  0  0  0  0
   -2.2546    3.7607   -0.0657 C   0  0  0  0  0  0  0  0  0  0  0  0
   -2.7647    3.5967    0.8848 H   0  0  0  0  0  0  0  0  0  0  0  0
    0.7947   -0.0621    0.3443 C   0  0  0  0  0  0  0  0  0  0  0  0
    1.8583    0.0743   -0.2440 O   0  0  0  0  0  0  0  0  0  0  0  0
    0.7829   -0.8102    1.5034 N   0  0  0  0  0  0  0  0  0  0  0  0
   -0.1068   -0.8862    2.0018 H   0  0  0  0  0  0  0  0  0  0  0  0
    1.9510   -1.4982    2.0444 C   0  0  0  0  0  0  0  0  0  0  0  0
    2.7570   -0.7858    2.2500 H   0  0  0  0  0  0  0  0  0  0  0  0
    1.6923   -2.0044    2.9799 H   0  0  0  0  0  0  0  0  0  0  0  0
    2.3172   -2.2489    1.3357 H   0  0  0  0  0  0  0  0  0  0  0  0
  1  2  1  0  0  0  0
  2  3  1  0  0  0  0
  2  4  1  0  0  0  0
  2  5  1  0  0  0  0
  5  6  2  0  0  0  0
  5  7  1  0  0  0  0
  7  8  1  0  0  0  0
  7  9  1  0  0  0  0
  9 10  1  0  0  0  0
  9 11  1  0  0  0  0
  9 23  1  0  0  0  0
 11 12  1  0  0  0  0
 11 13  1  0  0  0  0
 11 14  1  0  0  0  0
 14 15  1  0  0  0  0
 14 21  2  0  0  0  0
 15 16  1  0  0  0  0
 15 17  2  0  0  0  0
 17 18  1  0  0  0  0
 17 19  1  0  0  0  0
 19 20  1  0  0  0  0
 19 21  1  0  0  0  0
 21 22  1  0  0  0  0
 23 24  2  0  0  0  0
 23 25  1  0  0  0  0
 25 26  1  0  0  0  0
 25 27  1  0  0  0  0
 27 28  1  0  0  0  0
 27 29  1  0  0  0  0
 27 30  1  0  0  0  0
M  CHG  1  15   1
M  END
$$$$

  -OEChem-01062216083D

 30 30  0     1  0  0  0  0  0999 V2000
   -3.2089   -2.1816    1.5958 H   0  0  0  0  0  0  0  0  0  0  0  0
   -3.0303   -1.5719    0.7051 C   0  0  0  0  0  0  0  0  0  0  0  0
   -3.9561   -1.0535    0.4447 H   0  0  0  0  0  0  0  0  0  0  0  0
   -2.7439   -2.2318   -0.1171 H   0  0  0  0  0  0  0  0  0  0  0  0
   -1.9274   -0.5675    0.9772 C   0  0  0  0  0  0  0  0  0  0  0  0
   -1.5473   -0.3802    2.1168 O   0  0  0  0  0  0  0  0  0  0  0  0
   -1.5401    0.3254   -0.0004 N   0  0  0  0  0  0  0  0  0  0  0  0
   -2.0671    0.1938   -0.8595 H   0  0  0  0  0  0  0  0  0  0  0  0
   -0.1753    0.8809   -0.2037 C   0  0  1  0  0  0  0  0  0  0  0  0
    0.0255    0.8820   -1.2793 H   0  0  0  0  0  0  0  0  0  0  0  0
   -0.2820    2.3379    0.3147 C   0  0  0  0  0  0  0  0  0  0  0  0
   -0.6023    2.3103    1.3632 H   0  0  0  0  0  0  0  0  0  0  0  0
    0.6959    2.8321    0.3001 H   0  0  0  0  0  0  0  0  0  0  0  0
   -1.2343    3.1835   -0.4935 C   0  0  0  0  0  0  0  0  0  0  0  0
   -0.9970    3.7122   -1.7629 N   0  3  0  0  0  0  0  0  0  0  0  0
   -0.1136    3.5808   -2.2643 H   0  0  0  0  0  0  0  0  0  0  0  0
   -2.0129    4.4506   -2.1414 C   0  0  0  0  0  0  0  0  0  0  0  0
   -2.0950    5.0098   -3.0758 H   0  0  0  0  0  0  0  0  0  0  0  0
   -2.9602    4.4065   -1.1193 N   0  0  0  0  0  0  0  0  0  0  0  0
   -3.8562    4.9040   -1.1117 H   0  0  0  0  0  0  0  0  0  0  0  0
   -2.4668    3.6224   -0.0829 C   0  0  0  0  0  0  0  0  0  0  0  0
   -2.9409    3.4025    0.8750 H   0  0  0  0  0  0  0  0  0  0  0  0
    1.1321    0.2987    0.4287 C   0  0  0  0  0  0  0  0  0  0  0  0
    2.1725    0.8652    0.1334 O   0  0  0  0  0  0  0  0  0  0  0  0
    1.3228   -0.5980    1.4543 N   0  0  0  0  0  0  0  0  0  0  0  0
    2.2575   -0.4955    1.8456 H   0  0  0  0  0  0  0  0  0  0  0  0
    0.8734   -1.9834    1.3517 C   0  0  0  0  0  0  0  0  0  0  0  0
    0.2841   -2.2598    2.2324 H   0  0  0  0  0  0  0  0  0  0  0  0
    0.2679   -2.1477    0.4552 H   0  0  0  0  0  0  0  0  0  0  0  0
    1.7395   -2.6512    1.2963 H   0  0  0  0  0  0  0  0  0  0  0  0
  1  2  1  0  0  0  0
  2  3  1  0  0  0  0
  2  4  1  0  0  0  0
  2  5  1  0  0  0  0
  5  6  2  0  0  0  0
  5  7  1  0  0  0  0
  7  8  1  0  0  0  0
  7  9  1  0  0  0  0
  9 10  1  0  0  0  0
  9 11  1  0  0  0  0
  9 23  1  0  0  0  0
 11 12  1  0  0  0  0
 11 13  1  0  0  0  0
 11 14  1  0  0  0  0
 14 15  1  0  0  0  0
 14 21  2  0  0  0  0
 15 16  1  0  0  0  0
 15 17  2  0  0  0  0
 17 18  1  0  0  0  0
 17 19  1  0  0  0  0
 19 20  1  0  0  0  0
 19 21  1  0  0  0  0
 21 22  1  0  0  0  0
 23 24  2  0  0  0  0
 23 25  1  0  0  0  0
 25 26  1  0  0  0  0
 25 27  1  0  0  0  0
 27 28  1  0  0  0  0
 27 29  1  0  0  0  0
 27 30  1  0  0  0  0
M  CHG  1  15   1
M  END
$$$$

  -OEChem-01062216083D

 30 30  0     1  0  0  0  0  0999 V2000
   -3.3186   -2.2945    1.4661 H   0  0  0  0  0  0  0  0  0  0  0  0
   -3.2580   -1.6056    0.6185 C   0  0  0  0  0  0  0  0  0  0  0  0
   -4.1980   -1.0537    0.5457 H   0  0  0  0  0  0  0  0  0  0  0  0
   -3.1114   -2.1893   -0.2934 H   0  0  0  0  0  0  0  0  0  0  0  0
   -2.1009   -0.6459    0.8133 C   0  0  0  0  0  0  0  0  0  0  0  0
   -1.6067   -0.5013    1.9158 O   0  0  0  0  0  0  0  0  0  0  0  0
   -1.8120    0.3106   -0.1363 N   0  0  0  0  0  0  0  0  0  0  0  0
   -2.4948    0.2839   -0.8888 H   0  0  0  0  0  0  0  0  0  0  0  0
   -0.4455    0.6506   -0.6077 C   0  0  1  0  0  0  0  0  0  0  0  0
   -0.4913    0.7615   -1.6959 H   0  0  0  0  0  0  0  0  0  0  0  0
   -0.1025    2.0084    0.0400 C   0  0  0  0  0  0  0  0  0  0  0  0
   -0.1746    1.9064    1.1294 H   0  0  0  0  0  0  0  0  0  0  0  0
    0.9335    2.2866   -0.1872 H   0  0  0  0  0  0  0  0  0  0  0  0
   -1.0085    3.1179   -0.4311 C   0  0  0  0  0  0  0  0  0  0  0  0
   -0.9660    3.7569   -1.6712 N   0  3  0  0  0  0  0  0  0  0  0  0
   -0.2753    3.5290   -2.3925 H   0  0  0  0  0  0  0  0  0  0  0  0
   -1.8730    4.7031   -1.7226 C   0  0  0  0  0  0  0  0  0  0  0  0
   -2.0569    5.3801   -2.5594 H   0  0  0  0  0  0  0  0  0  0  0  0
   -2.5492    4.6947   -0.5033 N   0  0  0  0  0  0  0  0  0  0  0  0
   -3.3072    5.3299   -0.2344 H   0  0  0  0  0  0  0  0  0  0  0  0
   -2.0020    3.7073    0.3074 C   0  0  0  0  0  0  0  0  0  0  0  0
   -2.2879    3.4430    1.3268 H   0  0  0  0  0  0  0  0  0  0  0  0
    0.7961   -0.2546   -0.3540 C   0  0  0  0  0  0  0  0  0  0  0  0
    1.7387   -0.0760   -1.1069 O   0  0  0  0  0  0  0  0  0  0  0  0
    0.8677   -1.4582    0.3075 N   0  0  0  0  0  0  0  0  0  0  0  0
    1.5205   -2.0669   -0.1838 H   0  0  0  0  0  0  0  0  0  0  0  0
    1.1266   -1.4456    1.7454 C   0  0  0  0  0  0  0  0  0  0  0  0
    0.9495   -0.4568    2.1824 H   0  0  0  0  0  0  0  0  0  0  0  0
    0.4807   -2.1695    2.2531 H   0  0  0  0  0  0  0  0  0  0  0  0
    2.1693   -1.7159    1.9412 H   0  0  0  0  0  0  0  0  0  0  0  0
  1  2  1  0  0  0  0
  2  3  1  0  0  0  0
  2  4  1  0  0  0  0
  2  5  1  0  0  0  0
  5  6  2  0  0  0  0
  5  7  1  0  0  0  0
  7  8  1  0  0  0  0
  7  9  1  0  0  0  0
  9 10  1  0  0  0  0
  9 11  1  0  0  0  0
  9 23  1  0  0  0  0
 11 12  1  0  0  0  0
 11 13  1  0  0  0  0
 11 14  1  0  0  0  0
 14 15  1  0  0  0  0
 14 21  2  0  0  0  0
 15 16  1  0  0  0  0
 15 17  2  0  0  0  0
 17 18  1  0  0  0  0
 17 19  1  0  0  0  0
 19 20  1  0  0  0  0
 19 21  1  0  0  0  0
 21 22  1  0  0  0  0
 23 24  2  0  0  0  0
 23 25  1  0  0  0  0
 25 26  1  0  0  0  0
 25 27  1  0  0  0  0
 27 28  1  0  0  0  0
 27 29  1  0  0  0  0
 27 30  1  0  0  0  0
M  CHG  1  15   1
M  END
$$$$

  -OEChem-01062216083D

 30 30  0     1  0  0  0  0  0999 V2000
   -3.8947   -2.0045    1.1281 H   0  0  0  0  0  0  0  0  0  0  0  0
   -3.6297   -1.2729    0.3588 C   0  0  0  0  0  0  0  0  0  0  0  0
   -4.3967   -0.4951    0.3372 H   0  0  0  0  0  0  0  0  0  0  0  0
   -3.6040   -1.7796   -0.6089 H   0  0  0  0  0  0  0  0  0  0  0  0
   -2.2747   -0.6642    0.6646 C   0  0  0  0  0  0  0  0  0  0  0  0
   -1.7213   -0.9340    1.7132 O   0  0  0  0  0  0  0  0  0  0  0  0
   -1.7406    0.2838   -0.1894 N   0  0  0  0  0  0  0  0  0  0  0  0
   -2.3187    0.4437   -1.0103 H   0  0  0  0  0  0  0  0  0  0  0  0
   -0.3227    0.7227   -0.3163 C   0  0  1  0  0  0  0  0  0  0  0  0
   -0.0886    0.7792   -1.3838 H   0  0  0  0  0  0  0  0  0  0  0  0
   -0.2785    2.1411    0.3048 C   0  0  0  0  0  0  0  0  0  0  0  0
   -0.6244    2.0780    1.3431 H   0  0  0  0  0  0  0  0  0  0  0  0
    0.7485    2.5216    0.3392 H   0  0  0  0  0  0  0  0  0  0  0  0
   -1.1124    3.1389   -0.4597 C   0  0  0  0  0  0  0  0  0  0  0  0
   -0.7791    3.7171   -1.6856 N   0  3  0  0  0  0  0  0  0  0  0  0
    0.0970    3.5144   -2.1768 H   0  0  0  0  0  0  0  0  0  0  0  0
   -1.6888    4.5954   -2.0337 C   0  0  0  0  0  0  0  0  0  0  0  0
   -1.6767    5.2205   -2.9293 H   0  0  0  0  0  0  0  0  0  0  0  0
   -2.6626    4.5994   -1.0361 N   0  0  0  0  0  0  0  0  0  0  0  0
   -3.4899    5.2041   -1.0111 H   0  0  0  0  0  0  0  0  0  0  0  0
   -2.2945    3.6972   -0.0443 C   0  0  0  0  0  0  0  0  0  0  0  0
   -2.8166    3.4823    0.8893 H   0  0  0  0  0  0  0  0  0  0  0  0
    0.8693   -0.0841    0.2839 C   0  0  0  0  0  0  0  0  0  0  0  0
    1.9817    0.4124    0.1626 O   0  0  0  0  0  0  0  0  0  0  0  0
    0.7938   -1.3930    0.7204 N   0  0  0  0  0  0  0  0  0  0  0  0
   -0.1270   -1.6850    1.0509 H   0  0  0  0  0  0  0  0  0  0  0  0
    1.9504   -2.1232    1.2327 C   0  0  0  0  0  0  0  0  0  0  0  0
    2.3632   -1.6210    2.1141 H   0  0  0  0  0  0  0  0  0  0  0  0
    1.6607   -3.1397    1.5170 H   0  0  0  0  0  0  0  0  0  0  0  0
    2.7327   -2.1914    0.4690 H   0  0  0  0  0  0  0  0  0  0  0  0
  1  2  1  0  0  0  0
  2  3  1  0  0  0  0
  2  4  1  0  0  0  0
  2  5  1  0  0  0  0
  5  6  2  0  0  0  0
  5  7  1  0  0  0  0
  7  8  1  0  0  0  0
  7  9  1  0  0  0  0
  9 10  1  0  0  0  0
  9 11  1  0  0  0  0
  9 23  1  0  0  0  0
 11 12  1  0  0  0  0
 11 13  1  0  0  0  0
 11 14  1  0  0  0  0
 14 15  1  0  0  0  0
 14 21  2  0  0  0  0
 15 16  1  0  0  0  0
 15 17  2  0  0  0  0
 17 18  1  0  0  0  0
 17 19  1  0  0  0  0
 19 20  1  0  0  0  0
 19 21  1  0  0  0  0
 21 22  1  0  0  0  0
 23 24  2  0  0  0  0
 23 25  1  0  0  0  0
 25 26  1  0  0  0  0
 25 27  1  0  0  0  0
 27 28  1  0  0  0  0
 27 29  1  0  0  0  0
 27 30  1  0  0  0  0
M  CHG  1  15   1
M  END
$$$$

  -OEChem-01062216083D

 30 30  0     1  0  0  0  0  0999 V2000
   -3.8389   -2.0035    1.1531 H   0  0  0  0  0  0  0  0  0  0  0  0
   -3.5962   -1.2426    0.4048 C   0  0  0  0  0  0  0  0  0  0  0  0
   -4.3311   -0.4373    0.4748 H   0  0  0  0  0  0  0  0  0  0  0  0
   -3.6553   -1.6985   -0.5865 H   0  0  0  0  0  0  0  0  0  0  0  0
   -2.2010   -0.6992    0.6477 C   0  0  0  0  0  0  0  0  0  0  0  0
   -1.5783   -1.0710    1.6230 O   0  0  0  0  0  0  0  0  0  0  0  0
   -1.6883    0.2715   -0.1954 N   0  0  0  0  0  0  0  0  0  0  0  0
   -2.3003    0.4919   -0.9764 H   0  0  0  0  0  0  0  0  0  0  0  0
   -0.2805    0.7429   -0.3184 C   0  0  1  0  0  0  0  0  0  0  0  0
   -0.0411    0.8033   -1.3842 H   0  0  0  0  0  0  0  0  0  0  0  0
   -0.2675    2.1652    0.2986 C   0  0  0  0  0  0  0  0  0  0  0  0
   -0.6118    2.0975    1.3372 H   0  0  0  0  0  0  0  0  0  0  0  0
    0.7498    2.5709    0.3306 H   0  0  0  0  0  0  0  0  0  0  0  0
   -1.1198    3.1439   -0.4700 C   0  0  0  0  0  0  0  0  0  0  0  0
   -0.7942    3.7251   -1.6966 N   0  3  0  0  0  0  0  0  0  0  0  0
    0.0879    3.5402   -2.1839 H   0  0  0  0  0  0  0  0  0  0  0  0
   -1.7180    4.5871   -2.0482 C   0  0  0  0  0  0  0  0  0  0  0  0
   -1.7142    5.2112   -2.9446 H   0  0  0  0  0  0  0  0  0  0  0  0
   -2.6936    4.5764   -1.0524 N   0  0  0  0  0  0  0  0  0  0  0  0
   -3.5300    5.1686   -1.0296 H   0  0  0  0  0  0  0  0  0  0  0  0
   -2.3121    3.6826   -0.0579 C   0  0  0  0  0  0  0  0  0  0  0  0
   -2.8314    3.4625    0.8758 H   0  0  0  0  0  0  0  0  0  0  0  0
    0.9071   -0.0698    0.2842 C   0  0  0  0  0  0  0  0  0  0  0  0
    1.9882    0.4948    0.3915 O   0  0  0  0  0  0  0  0  0  0  0  0
    0.8848   -1.4462    0.4107 N   0  0  0  0  0  0  0  0  0  0  0  0
   -0.0380   -1.8317    0.6109 H   0  0  0  0  0  0  0  0  0  0  0  0
    2.0350   -2.2046    0.8966 C   0  0  0  0  0  0  0  0  0  0  0  0
    2.3057   -1.8860    1.9091 H   0  0  0  0  0  0  0  0  0  0  0  0
    1.8017   -3.2737    0.9206 H   0  0  0  0  0  0  0  0  0  0  0  0
    2.8995   -2.0577    0.2401 H   0  0  0  0  0  0  0  0  0  0  0  0
  1  2  1  0  0  0  0
  2  3  1  0  0  0  0
  2  4  1  0  0  0  0
  2  5  1  0  0  0  0
  5  6  2  0  0  0  0
  5  7  1  0  0  0  0
  7  8  1  0  0  0  0
  7  9  1  0  0  0  0
  9 10  1  0  0  0  0
  9 11  1  0  0  0  0
  9 23  1  0  0  0  0
 11 12  1  0  0  0  0
 11 13  1  0  0  0  0
 11 14  1  0  0  0  0
 14 15  1  0  0  0  0
 14 21  2  0  0  0  0
 15 16  1  0  0  0  0
 15 17  2  0  0  0  0
 17 18  1  0  0  0  0
 17 19  1  0  0  0  0
 19 20  1  0  0  0  0
 19 21  1  0  0  0  0
 21 22  1  0  0  0  0
 23 24  2  0  0  0  0
 23 25  1  0  0  0  0
 25 26  1  0  0  0  0
 25 27  1  0  0  0  0
 27 28  1  0  0  0  0
 27 29  1  0  0  0  0
 27 30  1  0  0  0  0
M  CHG  1  15   1
M  END
$$$$

  -OEChem-01062216083D

 30 30  0     1  0  0  0  0  0999 V2000
   -3.7446   -2.0292    1.1813 H   0  0  0  0  0  0  0  0  0  0  0  0
   -3.5293   -1.2483    0.4454 C   0  0  0  0  0  0  0  0  0  0  0  0
   -4.2459   -0.4349    0.5806 H   0  0  0  0  0  0  0  0  0  0  0  0
   -3.6484   -1.6706   -0.5553 H   0  0  0  0  0  0  0  0  0  0  0  0
   -2.1143   -0.7341    0.6304 C   0  0  0  0  0  0  0  0  0  0  0  0
   -1.4362   -1.1731    1.5375 O   0  0  0  0  0  0  0  0  0  0  0  0
   -1.6345    0.2580   -0.2086 N   0  0  0  0  0  0  0  0  0  0  0  0
   -2.2828    0.5278   -0.9431 H   0  0  0  0  0  0  0  0  0  0  0  0
   -0.2414    0.7679   -0.3310 C   0  0  1  0  0  0  0  0  0  0  0  0
    0.0027    0.8310   -1.3952 H   0  0  0  0  0  0  0  0  0  0  0  0
   -0.2527    2.1928    0.2793 C   0  0  0  0  0  0  0  0  0  0  0  0
   -0.5870    2.1246    1.3209 H   0  0  0  0  0  0  0  0  0  0  0  0
    0.7582    2.6151    0.2995 H   0  0  0  0  0  0  0  0  0  0  0  0
   -1.1251    3.1543   -0.4888 C   0  0  0  0  0  0  0  0  0  0  0  0
   -0.8200    3.7401   -1.7188 N   0  3  0  0  0  0  0  0  0  0  0  0
    0.0581    3.5656   -2.2168 H   0  0  0  0  0  0  0  0  0  0  0  0
   -1.7571    4.5923   -2.0592 C   0  0  0  0  0  0  0  0  0  0  0  0
   -1.7703    5.2178   -2.9547 H   0  0  0  0  0  0  0  0  0  0  0  0
   -2.7208    4.5707   -1.0521 N   0  0  0  0  0  0  0  0  0  0  0  0
   -3.5612    5.1567   -1.0170 H   0  0  0  0  0  0  0  0  0  0  0  0
   -2.3174    3.6818   -0.0623 C   0  0  0  0  0  0  0  0  0  0  0  0
   -2.8204    3.4614    0.8802 H   0  0  0  0  0  0  0  0  0  0  0  0
    0.9369   -0.0515    0.2800 C   0  0  0  0  0  0  0  0  0  0  0  0
    1.9327    0.5385    0.6793 O   0  0  0  0  0  0  0  0  0  0  0  0
    1.0194   -1.4210    0.1024 N   0  0  0  0  0  0  0  0  0  0  0  0
    0.1196   -1.8928    0.0472 H   0  0  0  0  0  0  0  0  0  0  0  0
    2.1427   -2.2028    0.6142 C   0  0  0  0  0  0  0  0  0  0  0  0
    2.2067   -2.1142    1.7041 H   0  0  0  0  0  0  0  0  0  0  0  0
    2.0173   -3.2597    0.3591 H   0  0  0  0  0  0  0  0  0  0  0  0
    3.0861   -1.8560    0.1788 H   0  0  0  0  0  0  0  0  0  0  0  0
  1  2  1  0  0  0  0
  2  3  1  0  0  0  0
  2  4  1  0  0  0  0
  2  5  1  0  0  0  0
  5  6  2  0  0  0  0
  5  7  1  0  0  0  0
  7  8  1  0  0  0  0
  7  9  1  0  0  0  0
  9 10  1  0  0  0  0
  9 11  1  0  0  0  0
  9 23  1  0  0  0  0
 11 12  1  0  0  0  0
 11 13  1  0  0  0  0
 11 14  1  0  0  0  0
 14 15  1  0  0  0  0
 14 21  2  0  0  0  0
 15 16  1  0  0  0  0
 15 17  2  0  0  0  0
 17 18  1  0  0  0  0
 17 19  1  0  0  0  0
 19 20  1  0  0  0  0
 19 21  1  0  0  0  0
 21 22  1  0  0  0  0
 23 24  2  0  0  0  0
 23 25  1  0  0  0  0
 25 26  1  0  0  0  0
 25 27  1  0  0  0  0
 27 28  1  0  0  0  0
 27 29  1  0  0  0  0
 27 30  1  0  0  0  0
M  CHG  1  15   1
M  END
$$$$

  -OEChem-01062216083D

 30 30  0     1  0  0  0  0  0999 V2000
   -3.6326   -2.0676    1.2020 H   0  0  0  0  0  0  0  0  0  0  0  0
   -3.4502   -1.2706    0.4749 C   0  0  0  0  0  0  0  0  0  0  0  0
   -4.1691   -0.4672    0.6499 H   0  0  0  0  0  0  0  0  0  0  0  0
   -3.5988   -1.6747   -0.5293 H   0  0  0  0  0  0  0  0  0  0  0  0
   -2.0350   -0.7456    0.6235 C   0  0  0  0  0  0  0  0  0  0  0  0
   -1.3286   -1.1873    1.5073 O   0  0  0  0  0  0  0  0  0  0  0  0
   -1.5889    0.2546   -0.2262 N   0  0  0  0  0  0  0  0  0  0  0  0
   -2.2605    0.5324   -0.9361 H   0  0  0  0  0  0  0  0  0  0  0  0
   -0.2091    0.7936   -0.3553 C   0  0  1  0  0  0  0  0  0  0  0  0
    0.0379    0.8589   -1.4188 H   0  0  0  0  0  0  0  0  0  0  0  0
   -0.2324    2.2179    0.2529 C   0  0  0  0  0  0  0  0  0  0  0  0
   -0.5545    2.1469    1.2985 H   0  0  0  0  0  0  0  0  0  0  0  0
    0.7773    2.6441    0.2616 H   0  0  0  0  0  0  0  0  0  0  0  0
   -1.1233    3.1702   -0.5058 C   0  0  0  0  0  0  0  0  0  0  0  0
   -0.8446    3.7640   -1.7383 N   0  3  0  0  0  0  0  0  0  0  0  0
    0.0276    3.6035   -2.2506 H   0  0  0  0  0  0  0  0  0  0  0  0
   -1.7990    4.6035   -2.0622 C   0  0  0  0  0  0  0  0  0  0  0  0
   -1.8353    5.2309   -2.9556 H   0  0  0  0  0  0  0  0  0  0  0  0
   -2.7474    4.5658   -1.0413 N   0  0  0  0  0  0  0  0  0  0  0  0
   -3.5953    5.1398   -0.9914 H   0  0  0  0  0  0  0  0  0  0  0  0
   -2.3165    3.6799   -0.0606 C   0  0  0  0  0  0  0  0  0  0  0  0
   -2.8016    3.4496    0.8893 H   0  0  0  0  0  0  0  0  0  0  0  0
    0.9580   -0.0268    0.2703 C   0  0  0  0  0  0  0  0  0  0  0  0
    1.8109    0.5303    0.9497 O   0  0  0  0  0  0  0  0  0  0  0  0
    1.1972   -1.3198   -0.1606 N   0  0  0  0  0  0  0  0  0  0  0  0
    0.3951   -1.8103   -0.5452 H   0  0  0  0  0  0  0  0  0  0  0  0
    2.2765   -2.1325    0.3952 C   0  0  0  0  0  0  0  0  0  0  0  0
    2.1310   -2.2764    1.4715 H   0  0  0  0  0  0  0  0  0  0  0  0
    2.3001   -3.1151   -0.0859 H   0  0  0  0  0  0  0  0  0  0  0  0
    3.2468   -1.6501    0.2347 H   0  0  0  0  0  0  0  0  0  0  0  0
  1  2  1  0  0  0  0
  2  3  1  0  0  0  0
  2  4  1  0  0  0  0
  2  5  1  0  0  0  0
  5  6  2  0  0  0  0
  5  7  1  0  0  0  0
  7  8  1  0  0  0  0
  7  9  1  0  0  0  0
  9 10  1  0  0  0  0
  9 11  1  0  0  0  0
  9 23  1  0  0  0  0
 11 12  1  0  0  0  0
 11 13  1  0  0  0  0
 11 14  1  0  0  0  0
 14 15  1  0  0  0  0
 14 21  2  0  0  0  0
 15 16  1  0  0  0  0
 15 17  2  0  0  0  0
 17 18  1  0  0  0  0
 17 19  1  0  0  0  0
 19 20  1  0  0  0  0
 19 21  1  0  0  0  0
 21 22  1  0  0  0  0
 23 24  2  0  0  0  0
 23 25  1  0  0  0  0
 25 26  1  0  0  0  0
 25 27  1  0  0  0  0
 27 28  1  0  0  0  0
 27 29  1  0  0  0  0
 27 30  1  0  0  0  0
M  CHG  1  15   1
M  END
$$$$

  -OEChem-01062216083D

 30 30  0     1  0  0  0  0  0999 V2000
   -3.6109   -2.0617    1.2194 H   0  0  0  0  0  0  0  0  0  0  0  0
   -3.4329   -1.2625    0.4935 C   0  0  0  0  0  0  0  0  0  0  0  0
   -4.1363   -0.4503    0.6897 H   0  0  0  0  0  0  0  0  0  0  0  0
   -3.6092   -1.6576   -0.5097 H   0  0  0  0  0  0  0  0  0  0  0  0
   -2.0070   -0.7592    0.6138 C   0  0  0  0  0  0  0  0  0  0  0  0
   -1.2842   -1.2325    1.4673 O   0  0  0  0  0  0  0  0  0  0  0  0
   -1.5691    0.2425   -0.2394 N   0  0  0  0  0  0  0  0  0  0  0  0
   -2.2549    0.5414   -0.9265 H   0  0  0  0  0  0  0  0  0  0  0  0
   -0.1961    0.7972   -0.3634 C   0  0  1  0  0  0  0  0  0  0  0  0
    0.0574    0.8655   -1.4251 H   0  0  0  0  0  0  0  0  0  0  0  0
   -0.2285    2.2199    0.2452 C   0  0  0  0  0  0  0  0  0  0  0  0
   -0.5525    2.1457    1.2902 H   0  0  0  0  0  0  0  0  0  0  0  0
    0.7821    2.6444    0.2575 H   0  0  0  0  0  0  0  0  0  0  0  0
   -1.1240    3.1700   -0.5110 C   0  0  0  0  0  0  0  0  0  0  0  0
   -0.8520    3.7702   -1.7420 N   0  3  0  0  0  0  0  0  0  0  0  0
    0.0194    3.6166   -2.2574 H   0  0  0  0  0  0  0  0  0  0  0  0
   -1.8130    4.6040   -2.0615 C   0  0  0  0  0  0  0  0  0  0  0  0
   -1.8561    5.2335   -2.9530 H   0  0  0  0  0  0  0  0  0  0  0  0
   -2.7587    4.5570   -1.0387 N   0  0  0  0  0  0  0  0  0  0  0  0
   -3.6111    5.1242   -0.9858 H   0  0  0  0  0  0  0  0  0  0  0  0
   -2.3192    3.6714   -0.0616 C   0  0  0  0  0  0  0  0  0  0  0  0
   -2.8007    3.4357    0.8887 H   0  0  0  0  0  0  0  0  0  0  0  0
    0.9662   -0.0152    0.2789 C   0  0  0  0  0  0  0  0  0  0  0  0
    1.6597    0.4808    1.1581 O   0  0  0  0  0  0  0  0  0  0  0  0
    1.4112   -1.1690   -0.3420 N   0  0  0  0  0  0  0  0  0  0  0  0
    0.7450   -1.6385   -0.9482 H   0  0  0  0  0  0  0  0  0  0  0  0
    2.5079   -1.9664    0.2021 C   0  0  0  0  0  0  0  0  0  0  0  0
    2.2554   -2.3315    1.2038 H   0  0  0  0  0  0  0  0  0  0  0  0
    2.7080   -2.8289   -0.4410 H   0  0  0  0  0  0  0  0  0  0  0  0
    3.4242   -1.3695    0.2681 H   0  0  0  0  0  0  0  0  0  0  0  0
  1  2  1  0  0  0  0
  2  3  1  0  0  0  0
  2  4  1  0  0  0  0
  2  5  1  0  0  0  0
  5  6  2  0  0  0  0
  5  7  1  0  0  0  0
  7  8  1  0  0  0  0
  7  9  1  0  0  0  0
  9 10  1  0  0  0  0
  9 11  1  0  0  0  0
  9 23  1  0  0  0  0
 11 12  1  0  0  0  0
 11 13  1  0  0  0  0
 11 14  1  0  0  0  0
 14 15  1  0  0  0  0
 14 21  2  0  0  0  0
 15 16  1  0  0  0  0
 15 17  2  0  0  0  0
 17 18  1  0  0  0  0
 17 19  1  0  0  0  0
 19 20  1  0  0  0  0
 19 21  1  0  0  0  0
 21 22  1  0  0  0  0
 23 24  2  0  0  0  0
 23 25  1  0  0  0  0
 25 26  1  0  0  0  0
 25 27  1  0  0  0  0
 27 28  1  0  0  0  0
 27 29  1  0  0  0  0
 27 30  1  0  0  0  0
M  CHG  1  15   1
M  END
$$$$

  -OEChem-01062216083D

 30 30  0     1  0  0  0  0  0999 V2000
   -3.6201   -2.0453    1.2342 H   0  0  0  0  0  0  0  0  0  0  0  0
   -3.4389   -1.2518    0.5026 C   0  0  0  0  0  0  0  0  0  0  0  0
   -4.1297   -0.4295    0.7015 H   0  0  0  0  0  0  0  0  0  0  0  0
   -3.6295   -1.6500   -0.4969 H   0  0  0  0  0  0  0  0  0  0  0  0
   -2.0052   -0.7671    0.6071 C   0  0  0  0  0  0  0  0  0  0  0  0
   -1.2770   -1.2633    1.4421 O   0  0  0  0  0  0  0  0  0  0  0  0
   -1.5646    0.2330   -0.2473 N   0  0  0  0  0  0  0  0  0  0  0  0
   -2.2554    0.5472   -0.9220 H   0  0  0  0  0  0  0  0  0  0  0  0
   -0.1925    0.7905   -0.3652 C   0  0  1  0  0  0  0  0  0  0  0  0
    0.0632    0.8642   -1.4258 H   0  0  0  0  0  0  0  0  0  0  0  0
   -0.2270    2.2106    0.2480 C   0  0  0  0  0  0  0  0  0  0  0  0
   -0.5589    2.1327    1.2907 H   0  0  0  0  0  0  0  0  0  0  0  0
    0.7857    2.6300    0.2702 H   0  0  0  0  0  0  0  0  0  0  0  0
   -1.1206    3.1638   -0.5067 C   0  0  0  0  0  0  0  0  0  0  0  0
   -0.8472    3.7702   -1.7344 N   0  3  0  0  0  0  0  0  0  0  0  0
    0.0281    3.6258   -2.2458 H   0  0  0  0  0  0  0  0  0  0  0  0
   -1.8115    4.6003   -2.0538 C   0  0  0  0  0  0  0  0  0  0  0  0
   -1.8543    5.2338   -2.9426 H   0  0  0  0  0  0  0  0  0  0  0  0
   -2.7614    4.5429   -1.0353 N   0  0  0  0  0  0  0  0  0  0  0  0
   -3.6179    5.1041   -0.9842 H   0  0  0  0  0  0  0  0  0  0  0  0
   -2.3213    3.6552   -0.0604 C   0  0  0  0  0  0  0  0  0  0  0  0
   -2.8070    3.4100    0.8855 H   0  0  0  0  0  0  0  0  0  0  0  0
    0.9706   -0.0129    0.2859 C   0  0  0  0  0  0  0  0  0  0  0  0
    1.5098    0.3980    1.3061 O   0  0  0  0  0  0  0  0  0  0  0  0
    1.6307   -0.9724   -0.4622 N   0  0  0  0  0  0  0  0  0  0  0  0
    1.1103   -1.3880   -1.2290 H   0  0  0  0  0  0  0  0  0  0  0  0
    2.7671   -1.7220    0.0690 C   0  0  0  0  0  0  0  0  0  0  0  0
    2.4838   -2.2476    0.9878 H   0  0  0  0  0  0  0  0  0  0  0  0
    3.1110   -2.4619   -0.6604 H   0  0  0  0  0  0  0  0  0  0  0  0
    3.6016   -1.0492    0.2939 H   0  0  0  0  0  0  0  0  0  0  0  0
  1  2  1  0  0  0  0
  2  3  1  0  0  0  0
  2  4  1  0  0  0  0
  2  5  1  0  0  0  0
  5  6  2  0  0  0  0
  5  7  1  0  0  0  0
  7  8  1  0  0  0  0
  7  9  1  0  0  0  0
  9 10  1  0  0  0  0
  9 11  1  0  0  0  0
  9 23  1  0  0  0  0
 11 12  1  0  0  0  0
 11 13  1  0  0  0  0
 11 14  1  0  0  0  0
 14 15  1  0  0  0  0
 14 21  2  0  0  0  0
 15 16  1  0  0  0  0
 15 17  2  0  0  0  0
 17 18  1  0  0  0  0
 17 19  1  0  0  0  0
 19 20  1  0  0  0  0
 19 21  1  0  0  0  0
 21 22  1  0  0  0  0
 23 24  2  0  0  0  0
 23 25  1  0  0  0  0
 25 26  1  0  0  0  0
 25 27  1  0  0  0  0
 27 28  1  0  0  0  0
 27 29  1  0  0  0  0
 27 30  1  0  0  0  0
M  CHG  1  15   1
M  END
$$$$

  -OEChem-01062216083D

 30 30  0     1  0  0  0  0  0999 V2000
   -3.6551   -2.0184    1.2474 H   0  0  0  0  0  0  0  0  0  0  0  0
   -3.4648   -1.2237    0.5195 C   0  0  0  0  0  0  0  0  0  0  0  0
   -4.1178   -0.3787    0.7480 H   0  0  0  0  0  0  0  0  0  0  0  0
   -3.6991   -1.6022   -0.4781 H   0  0  0  0  0  0  0  0  0  0  0  0
   -2.0112   -0.7951    0.5874 C   0  0  0  0  0  0  0  0  0  0  0  0
   -1.2731   -1.3562    1.3705 O   0  0  0  0  0  0  0  0  0  0  0  0
   -1.5625    0.2064   -0.2611 N   0  0  0  0  0  0  0  0  0  0  0  0
   -2.2662    0.5658   -0.8986 H   0  0  0  0  0  0  0  0  0  0  0  0
   -0.1919    0.7697   -0.3687 C   0  0  1  0  0  0  0  0  0  0  0  0
    0.0642    0.8478   -1.4286 H   0  0  0  0  0  0  0  0  0  0  0  0
   -0.2298    2.1868    0.2488 C   0  0  0  0  0  0  0  0  0  0  0  0
   -0.5690    2.1057    1.2888 H   0  0  0  0  0  0  0  0  0  0  0  0
    0.7840    2.6027    0.2807 H   0  0  0  0  0  0  0  0  0  0  0  0
   -1.1201    3.1435   -0.5060 C   0  0  0  0  0  0  0  0  0  0  0  0
   -0.8422    3.7552   -1.7301 N   0  3  0  0  0  0  0  0  0  0  0  0
    0.0336    3.6108   -2.2405 H   0  0  0  0  0  0  0  0  0  0  0  0
   -1.8036    4.5890   -2.0484 C   0  0  0  0  0  0  0  0  0  0  0  0
   -1.8424    5.2267   -2.9343 H   0  0  0  0  0  0  0  0  0  0  0  0
   -2.7562    4.5293   -1.0329 N   0  0  0  0  0  0  0  0  0  0  0  0
   -3.6112    5.0928   -0.9813 H   0  0  0  0  0  0  0  0  0  0  0  0
   -2.3207    3.6363   -0.0609 C   0  0  0  0  0  0  0  0  0  0  0  0
   -2.8092    3.3894    0.8832 H   0  0  0  0  0  0  0  0  0  0  0  0
    0.9782   -0.0184    0.2883 C   0  0  0  0  0  0  0  0  0  0  0  0
    1.3594    0.2828    1.4126 O   0  0  0  0  0  0  0  0  0  0  0  0
    1.8489   -0.7337   -0.5166 N   0  0  0  0  0  0  0  0  0  0  0  0
    1.4802   -1.0705   -1.4010 H   0  0  0  0  0  0  0  0  0  0  0  0
    3.0270   -1.4084    0.0253 C   0  0  0  0  0  0  0  0  0  0  0  0
    2.7362   -2.1231    0.8033 H   0  0  0  0  0  0  0  0  0  0  0  0
    3.5526   -1.9531   -0.7655 H   0  0  0  0  0  0  0  0  0  0  0  0
    3.7213   -0.6817    0.4611 H   0  0  0  0  0  0  0  0  0  0  0  0
  1  2  1  0  0  0  0
  2  3  1  0  0  0  0
  2  4  1  0  0  0  0
  2  5  1  0  0  0  0
  5  6  2  0  0  0  0
  5  7  1  0  0  0  0
  7  8  1  0  0  0  0
  7  9  1  0  0  0  0
  9 10  1  0  0  0  0
  9 11  1  0  0  0  0
  9 23  1  0  0  0  0
 11 12  1  0  0  0  0
 11 13  1  0  0  0  0
 11 14  1  0  0  0  0
 14 15  1  0  0  0  0
 14 21  2  0  0  0  0
 15 16  1  0  0  0  0
 15 17  2  0  0  0  0
 17 18  1  0  0  0  0
 17 19  1  0  0  0  0
 19 20  1  0  0  0  0
 19 21  1  0  0  0  0
 21 22  1  0  0  0  0
 23 24  2  0  0  0  0
 23 25  1  0  0  0  0
 25 26  1  0  0  0  0
 25 27  1  0  0  0  0
 27 28  1  0  0  0  0
 27 29  1  0  0  0  0
 27 30  1  0  0  0  0
M  CHG  1  15   1
M  END
$$$$

  -OEChem-01062216083D

 30 30  0     1  0  0  0  0  0999 V2000
   -3.7024   -1.9788    1.2470 H   0  0  0  0  0  0  0  0  0  0  0  0
   -3.4969   -1.1756    0.5325 C   0  0  0  0  0  0  0  0  0  0  0  0
   -4.0953   -0.3041    0.8069 H   0  0  0  0  0  0  0  0  0  0  0  0
   -3.7871   -1.5143   -0.4649 H   0  0  0  0  0  0  0  0  0  0  0  0
   -2.0209   -0.8252    0.5552 C   0  0  0  0  0  0  0  0  0  0  0  0
   -1.2818   -1.4624    1.2760 O   0  0  0  0  0  0  0  0  0  0  0  0
   -1.5559    0.1734   -0.2880 N   0  0  0  0  0  0  0  0  0  0  0  0
   -2.2688    0.5851   -0.8814 H   0  0  0  0  0  0  0  0  0  0  0  0
   -0.1850    0.7387   -0.3820 C   0  0  1  0  0  0  0  0  0  0  0  0
    0.0757    0.8194   -1.4406 H   0  0  0  0  0  0  0  0  0  0  0  0
   -0.2295    2.1507    0.2455 C   0  0  0  0  0  0  0  0  0  0  0  0
   -0.5773    2.0615    1.2822 H   0  0  0  0  0  0  0  0  0  0  0  0
    0.7843    2.5657    0.2901 H   0  0  0  0  0  0  0  0  0  0  0  0
   -1.1159    3.1135   -0.5067 C   0  0  0  0  0  0  0  0  0  0  0  0
   -0.8358    3.7388   -1.7236 N   0  3  0  0  0  0  0  0  0  0  0  0
    0.0395    3.5986   -2.2359 H   0  0  0  0  0  0  0  0  0  0  0  0
   -1.7979    4.5745   -2.0356 C   0  0  0  0  0  0  0  0  0  0  0  0
   -1.8367    5.2209   -2.9154 H   0  0  0  0  0  0  0  0  0  0  0  0
   -2.7524    4.5039   -1.0225 N   0  0  0  0  0  0  0  0  0  0  0  0
   -3.6090    5.0649   -0.9677 H   0  0  0  0  0  0  0  0  0  0  0  0
   -2.3176    3.6016   -0.0587 C   0  0  0  0  0  0  0  0  0  0  0  0
   -2.8069    3.3459    0.8828 H   0  0  0  0  0  0  0  0  0  0  0  0
    0.9901   -0.0321    0.2869 C   0  0  0  0  0  0  0  0  0  0  0  0
    1.2244    0.1474    1.4754 O   0  0  0  0  0  0  0  0  0  0  0  0
    2.0412   -0.4759   -0.4994 N   0  0  0  0  0  0  0  0  0  0  0  0
    1.8227   -0.7157   -1.4617 H   0  0  0  0  0  0  0  0  0  0  0  0
    3.2535   -1.0534    0.0797 C   0  0  0  0  0  0  0  0  0  0  0  0
    3.0041   -1.9048    0.7229 H   0  0  0  0  0  0  0  0  0  0  0  0
    3.9255   -1.4029   -0.7102 H   0  0  0  0  0  0  0  0  0  0  0  0
    3.7878   -0.3080    0.6789 H   0  0  0  0  0  0  0  0  0  0  0  0
  1  2  1  0  0  0  0
  2  3  1  0  0  0  0
  2  4  1  0  0  0  0
  2  5  1  0  0  0  0
  5  6  2  0  0  0  0
  5  7  1  0  0  0  0
  7  8  1  0  0  0  0
  7  9  1  0  0  0  0
  9 10  1  0  0  0  0
  9 11  1  0  0  0  0
  9 23  1  0  0  0  0
 11 12  1  0  0  0  0
 11 13  1  0  0  0  0
 11 14  1  0  0  0  0
 14 15  1  0  0  0  0
 14 21  2  0  0  0  0
 15 16  1  0  0  0  0
 15 17  2  0  0  0  0
 17 18  1  0  0  0  0
 17 19  1  0  0  0  0
 19 20  1  0  0  0  0
 19 21  1  0  0  0  0
 21 22  1  0  0  0  0
 23 24  2  0  0  0  0
 23 25  1  0  0  0  0
 25 26  1  0  0  0  0
 25 27  1  0  0  0  0
 27 28  1  0  0  0  0
 27 29  1  0  0  0  0
 27 30  1  0  0  0  0
M  CHG  1  15   1
M  END
$$$$

  -OEChem-01062216083D

 30 30  0     1  0  0  0  0  0999 V2000
   -3.7283   -1.9249    1.2790 H   0  0  0  0  0  0  0  0  0  0  0  0
   -3.5156   -1.1194    0.5694 C   0  0  0  0  0  0  0  0  0  0  0  0
   -4.0351   -0.2179    0.9011 H   0  0  0  0  0  0  0  0  0  0  0  0
   -3.8906   -1.4127   -0.4139 H   0  0  0  0  0  0  0  0  0  0  0  0
   -2.0208   -0.8688    0.5033 C   0  0  0  0  0  0  0  0  0  0  0  0
   -1.2799   -1.6217    1.0996 O   0  0  0  0  0  0  0  0  0  0  0  0
   -1.5457    0.1371   -0.3256 N   0  0  0  0  0  0  0  0  0  0  0  0
   -2.2727    0.6275   -0.8359 H   0  0  0  0  0  0  0  0  0  0  0  0
   -0.1756    0.7092   -0.3966 C   0  0  1  0  0  0  0  0  0  0  0  0
    0.0933    0.7979   -1.4524 H   0  0  0  0  0  0  0  0  0  0  0  0
   -0.2297    2.1135    0.2460 C   0  0  0  0  0  0  0  0  0  0  0  0
   -0.5879    2.0128    1.2778 H   0  0  0  0  0  0  0  0  0  0  0  0
    0.7825    2.5300    0.3061 H   0  0  0  0  0  0  0  0  0  0  0  0
   -1.1106    3.0812   -0.5067 C   0  0  0  0  0  0  0  0  0  0  0  0
   -0.8207    3.7202   -1.7145 N   0  3  0  0  0  0  0  0  0  0  0  0
    0.0582    3.5855   -2.2220 H   0  0  0  0  0  0  0  0  0  0  0  0
   -1.7829    4.5552   -2.0280 C   0  0  0  0  0  0  0  0  0  0  0  0
   -1.8161    5.2091   -2.9025 H   0  0  0  0  0  0  0  0  0  0  0  0
   -2.7463    4.4724   -1.0245 N   0  0  0  0  0  0  0  0  0  0  0  0
   -3.6050    5.0304   -0.9725 H   0  0  0  0  0  0  0  0  0  0  0  0
   -2.3180    3.5619   -0.0656 C   0  0  0  0  0  0  0  0  0  0  0  0
   -2.8162    3.2969    0.8684 H   0  0  0  0  0  0  0  0  0  0  0  0
    1.0029   -0.0470    0.2807 C   0  0  0  0  0  0  0  0  0  0  0  0
    1.0976   -0.0178    1.5008 O   0  0  0  0  0  0  0  0  0  0  0  0
    2.1907   -0.1944   -0.4189 N   0  0  0  0  0  0  0  0  0  0  0  0
    2.1166   -0.3002   -1.4261 H   0  0  0  0  0  0  0  0  0  0  0  0
    3.4100   -0.6914    0.2187 C   0  0  0  0  0  0  0  0  0  0  0  0
    3.2277   -1.6625    0.6929 H   0  0  0  0  0  0  0  0  0  0  0  0
    4.2061   -0.8142   -0.5221 H   0  0  0  0  0  0  0  0  0  0  0  0
    3.7587    0.0104    0.9843 H   0  0  0  0  0  0  0  0  0  0  0  0
  1  2  1  0  0  0  0
  2  3  1  0  0  0  0
  2  4  1  0  0  0  0
  2  5  1  0  0  0  0
  5  6  2  0  0  0  0
  5  7  1  0  0  0  0
  7  8  1  0  0  0  0
  7  9  1  0  0  0  0
  9 10  1  0  0  0  0
  9 11  1  0  0  0  0
  9 23  1  0  0  0  0
 11 12  1  0  0  0  0
 11 13  1  0  0  0  0
 11 14  1  0  0  0  0
 14 15  1  0  0  0  0
 14 21  2  0  0  0  0
 15 16  1  0  0  0  0
 15 17  2  0  0  0  0
 17 18  1  0  0  0  0
 17 19  1  0  0  0  0
 19 20  1  0  0  0  0
 19 21  1  0  0  0  0
 21 22  1  0  0  0  0
 23 24  2  0  0  0  0
 23 25  1  0  0  0  0
 25 26  1  0  0  0  0
 25 27  1  0  0  0  0
 27 28  1  0  0  0  0
 27 29  1  0  0  0  0
 27 30  1  0  0  0  0
M  CHG  1  15   1
M  END
$$$$

  -OEChem-01062216083D

 30 30  0     1  0  0  0  0  0999 V2000
   -3.7332   -1.8880    1.3049 H   0  0  0  0  0  0  0  0  0  0  0  0
   -3.5173   -1.0577    0.6255 C   0  0  0  0  0  0  0  0  0  0  0  0
   -3.9416   -0.1444    1.0473 H   0  0  0  0  0  0  0  0  0  0  0  0
   -3.9871   -1.2644   -0.3390 H   0  0  0  0  0  0  0  0  0  0  0  0
   -2.0177   -0.9070    0.4526 C   0  0  0  0  0  0  0  0  0  0  0  0
   -1.2933   -1.7716    0.8995 O   0  0  0  0  0  0  0  0  0  0  0  0
   -1.5348    0.1044   -0.3647 N   0  0  0  0  0  0  0  0  0  0  0  0
   -2.2680    0.6610   -0.7904 H   0  0  0  0  0  0  0  0  0  0  0  0
   -0.1640    0.6787   -0.4130 C   0  0  1  0  0  0  0  0  0  0  0  0
    0.1158    0.7744   -1.4655 H   0  0  0  0  0  0  0  0  0  0  0  0
   -0.2324    2.0742    0.2463 C   0  0  0  0  0  0  0  0  0  0  0  0
   -0.6019    1.9586    1.2726 H   0  0  0  0  0  0  0  0  0  0  0  0
    0.7759    2.4972    0.3238 H   0  0  0  0  0  0  0  0  0  0  0  0
   -1.1085    3.0449   -0.5084 C   0  0  0  0  0  0  0  0  0  0  0  0
   -0.8028    3.6964   -1.7055 N   0  3  0  0  0  0  0  0  0  0  0  0
    0.0804    3.5637   -2.2059 H   0  0  0  0  0  0  0  0  0  0  0  0
   -1.7635    4.5296   -2.0270 C   0  0  0  0  0  0  0  0  0  0  0  0
   -1.7879    5.1871   -2.8992 H   0  0  0  0  0  0  0  0  0  0  0  0
   -2.7396    4.4380   -1.0367 N   0  0  0  0  0  0  0  0  0  0  0  0
   -3.6007    4.9931   -0.9930 H   0  0  0  0  0  0  0  0  0  0  0  0
   -2.3221    3.5213   -0.0789 C   0  0  0  0  0  0  0  0  0  0  0  0
   -2.8321    3.2504    0.8471 H   0  0  0  0  0  0  0  0  0  0  0  0
    1.0181   -0.0634    0.2721 C   0  0  0  0  0  0  0  0  0  0  0  0
    0.9927   -0.2067    1.4867 O   0  0  0  0  0  0  0  0  0  0  0  0
    2.2843    0.0804   -0.2767 N   0  0  0  0  0  0  0  0  0  0  0  0
    2.3359    0.1311   -1.2894 H   0  0  0  0  0  0  0  0  0  0  0  0
    3.4939   -0.3417    0.4306 C   0  0  0  0  0  0  0  0  0  0  0  0
    3.4397   -1.4066    0.6824 H   0  0  0  0  0  0  0  0  0  0  0  0
    4.3777   -0.1789   -0.1940 H   0  0  0  0  0  0  0  0  0  0  0  0
    3.6201    0.2294    1.3570 H   0  0  0  0  0  0  0  0  0  0  0  0
  1  2  1  0  0  0  0
  2  3  1  0  0  0  0
  2  4  1  0  0  0  0
  2  5  1  0  0  0  0
  5  6  2  0  0  0  0
  5  7  1  0  0  0  0
  7  8  1  0  0  0  0
  7  9  1  0  0  0  0
  9 10  1  0  0  0  0
  9 11  1  0  0  0  0
  9 23  1  0  0  0  0
 11 12  1  0  0  0  0
 11 13  1  0  0  0  0
 11 14  1  0  0  0  0
 14 15  1  0  0  0  0
 14 21  2  0  0  0  0
 15 16  1  0  0  0  0
 15 17  2  0  0  0  0
 17 18  1  0  0  0  0
 17 19  1  0  0  0  0
 19 20  1  0  0  0  0
 19 21  1  0  0  0  0
 21 22  1  0  0  0  0
 23 24  2  0  0  0  0
 23 25  1  0  0  0  0
 25 26  1  0  0  0  0
 25 27  1  0  0  0  0
 27 28  1  0  0  0  0
 27 29  1  0  0  0  0
 27 30  1  0  0  0  0
M  CHG  1  15   1
M  END
$$$$

  -OEChem-01062216083D

 30 30  0     1  0  0  0  0  0999 V2000
   -3.2731   -2.1121    1.4313 H   0  0  0  0  0  0  0  0  0  0  0  0
   -3.0118   -1.5899    0.5062 C   0  0  0  0  0  0  0  0  0  0  0  0
   -3.9293   -1.2485    0.0220 H   0  0  0  0  0  0  0  0  0  0  0  0
   -2.4940   -2.2906   -0.1530 H   0  0  0  0  0  0  0  0  0  0  0  0
   -2.1099   -0.4118    0.8175 C   0  0  0  0  0  0  0  0  0  0  0  0
   -1.9976   -0.0033    1.9612 O   0  0  0  0  0  0  0  0  0  0  0  0
   -1.6750    0.4408   -0.1800 N   0  0  0  0  0  0  0  0  0  0  0  0
   -2.1001    0.1806   -1.0653 H   0  0  0  0  0  0  0  0  0  0  0  0
   -0.2567    0.8660   -0.3248 C   0  0  1  0  0  0  0  0  0  0  0  0
    0.0087    0.8762   -1.3856 H   0  0  0  0  0  0  0  0  0  0  0  0
   -0.2237    2.2912    0.2708 C   0  0  0  0  0  0  0  0  0  0  0  0
   -0.5734    2.2428    1.3102 H   0  0  0  0  0  0  0  0  0  0  0  0
    0.8037    2.6681    0.3039 H   0  0  0  0  0  0  0  0  0  0  0  0
   -1.0688    3.2750   -0.5035 C   0  0  0  0  0  0  0  0  0  0  0  0
   -0.8084    3.8775   -1.7369 N   0  3  0  0  0  0  0  0  0  0  0  0
    0.0489    3.7175   -2.2712 H   0  0  0  0  0  0  0  0  0  0  0  0
   -1.7867    4.6920   -2.0569 C   0  0  0  0  0  0  0  0  0  0  0  0
   -1.8519    5.3083   -2.9561 H   0  0  0  0  0  0  0  0  0  0  0  0
   -2.7279    4.6344   -1.0307 N   0  0  0  0  0  0  0  0  0  0  0  0
   -3.6045    5.1641   -0.9884 H   0  0  0  0  0  0  0  0  0  0  0  0
   -2.2755    3.7520   -0.0588 C   0  0  0  0  0  0  0  0  0  0  0  0
   -2.7681    3.4743    0.8756 H   0  0  0  0  0  0  0  0  0  0  0  0
    0.8753    0.0890    0.4184 C   0  0  0  0  0  0  0  0  0  0  0  0
    0.6634   -0.8982    1.1026 O   0  0  0  0  0  0  0  0  0  0  0  0
    2.1917    0.2967    0.0335 N   0  0  0  0  0  0  0  0  0  0  0  0
    2.3933    1.0339   -0.6333 H   0  0  0  0  0  0  0  0  0  0  0  0
    3.3055   -0.5179    0.5198 C   0  0  0  0  0  0  0  0  0  0  0  0
    3.1857   -1.5605    0.2056 H   0  0  0  0  0  0  0  0  0  0  0  0
    4.2546   -0.1454    0.1220 H   0  0  0  0  0  0  0  0  0  0  0  0
    3.3562   -0.4870    1.6138 H   0  0  0  0  0  0  0  0  0  0  0  0
  1  2  1  0  0  0  0
  2  3  1  0  0  0  0
  2  4  1  0  0  0  0
  2  5  1  0  0  0  0
  5  6  2  0  0  0  0
  5  7  1  0  0  0  0
  7  8  1  0  0  0  0
  7  9  1  0  0  0  0
  9 10  1  0  0  0  0
  9 11  1  0  0  0  0
  9 23  1  0  0  0  0
 11 12  1  0  0  0  0
 11 13  1  0  0  0  0
 11 14  1  0  0  0  0
 14 15  1  0  0  0  0
 14 21  2  0  0  0  0
 15 16  1  0  0  0  0
 15 17  2  0  0  0  0
 17 18  1  0  0  0  0
 17 19  1  0  0  0  0
 19 20  1  0  0  0  0
 19 21  1  0  0  0  0
 21 22  1  0  0  0  0
 23 24  2  0  0  0  0
 23 25  1  0  0  0  0
 25 26  1  0  0  0  0
 25 27  1  0  0  0  0
 27 28  1  0  0  0  0
 27 29  1  0  0  0  0
 27 30  1  0  0  0  0
M  CHG  1  15   1
M  END
$$$$

  -OEChem-01062216083D

 30 30  0     1  0  0  0  0  0999 V2000
   -3.2142   -2.1695    1.3977 H   0  0  0  0  0  0  0  0  0  0  0  0
   -3.0326   -1.5660    0.5036 C   0  0  0  0  0  0  0  0  0  0  0  0
   -3.9752   -1.1172    0.1831 H   0  0  0  0  0  0  0  0  0  0  0  0
   -2.6569   -2.2209   -0.2866 H   0  0  0  0  0  0  0  0  0  0  0  0
   -2.0111   -0.4875    0.8062 C   0  0  0  0  0  0  0  0  0  0  0  0
   -1.6294   -0.2990    1.9504 O   0  0  0  0  0  0  0  0  0  0  0  0
   -1.6486    0.4392   -0.1577 N   0  0  0  0  0  0  0  0  0  0  0  0
   -2.1065    0.2380   -1.0430 H   0  0  0  0  0  0  0  0  0  0  0  0
   -0.2518    0.9291   -0.2985 C   0  0  1  0  0  0  0  0  0  0  0  0
   -0.0707    1.2019   -1.3421 H   0  0  0  0  0  0  0  0  0  0  0  0
   -0.1304    2.1774    0.6065 C   0  0  0  0  0  0  0  0  0  0  0  0
   -0.3751    1.9014    1.6388 H   0  0  0  0  0  0  0  0  0  0  0  0
    0.9003    2.5434    0.6182 H   0  0  0  0  0  0  0  0  0  0  0  0
   -1.0274    3.3038    0.1524 C   0  0  0  0  0  0  0  0  0  0  0  0
   -0.8664    4.1653   -0.9357 N   0  3  0  0  0  0  0  0  0  0  0  0
   -0.0697    4.1201   -1.5759 H   0  0  0  0  0  0  0  0  0  0  0  0
   -1.8542    5.0283   -0.9785 C   0  0  0  0  0  0  0  0  0  0  0  0
   -1.9889    5.8258   -1.7122 H   0  0  0  0  0  0  0  0  0  0  0  0
   -2.7000    4.7447    0.0922 N   0  0  0  0  0  0  0  0  0  0  0  0
   -3.5602    5.2494    0.3288 H   0  0  0  0  0  0  0  0  0  0  0  0
   -2.1793    3.6695    0.8004 C   0  0  0  0  0  0  0  0  0  0  0  0
   -2.5911    3.1922    1.6919 H   0  0  0  0  0  0  0  0  0  0  0  0
    0.8780   -0.0708    0.0969 C   0  0  0  0  0  0  0  0  0  0  0  0
    0.6525   -1.2722    0.1303 O   0  0  0  0  0  0  0  0  0  0  0  0
    2.2097    0.3047    0.0004 N   0  0  0  0  0  0  0  0  0  0  0  0
    2.4300    1.2900   -0.0920 H   0  0  0  0  0  0  0  0  0  0  0  0
    3.3169   -0.6360    0.1707 C   0  0  0  0  0  0  0  0  0  0  0  0
    3.2733   -1.4251   -0.5880 H   0  0  0  0  0  0  0  0  0  0  0  0
    4.2768   -0.1193    0.0722 H   0  0  0  0  0  0  0  0  0  0  0  0
    3.2765   -1.1019    1.1615 H   0  0  0  0  0  0  0  0  0  0  0  0
  1  2  1  0  0  0  0
  2  3  1  0  0  0  0
  2  4  1  0  0  0  0
  2  5  1  0  0  0  0
  5  6  2  0  0  0  0
  5  7  1  0  0  0  0
  7  8  1  0  0  0  0
  7  9  1  0  0  0  0
  9 10  1  0  0  0  0
  9 11  1  0  0  0  0
  9 23  1  0  0  0  0
 11 12  1  0  0  0  0
 11 13  1  0  0  0  0
 11 14  1  0  0  0  0
 14 15  1  0  0  0  0
 14 21  2  0  0  0  0
 15 16  1  0  0  0  0
 15 17  2  0  0  0  0
 17 18  1  0  0  0  0
 17 19  1  0  0  0  0
 19 20  1  0  0  0  0
 19 21  1  0  0  0  0
 21 22  1  0  0  0  0
 23 24  2  0  0  0  0
 23 25  1  0  0  0  0
 25 26  1  0  0  0  0
 25 27  1  0  0  0  0
 27 28  1  0  0  0  0
 27 29  1  0  0  0  0
 27 30  1  0  0  0  0
M  CHG  1  15   1
M  END
$$$$

  -OEChem-01062216083D

 30 30  0     1  0  0  0  0  0999 V2000
   -3.1366   -2.2096    1.3871 H   0  0  0  0  0  0  0  0  0  0  0  0
   -3.0049   -1.5633    0.5145 C   0  0  0  0  0  0  0  0  0  0  0  0
   -3.9641   -1.1029    0.2676 H   0  0  0  0  0  0  0  0  0  0  0  0
   -2.6721   -2.1777   -0.3258 H   0  0  0  0  0  0  0  0  0  0  0  0
   -1.9700   -0.4966    0.8117 C   0  0  0  0  0  0  0  0  0  0  0  0
   -1.5272   -0.3584    1.9412 O   0  0  0  0  0  0  0  0  0  0  0  0
   -1.6372    0.4533   -0.1403 N   0  0  0  0  0  0  0  0  0  0  0  0
   -2.1049    0.2659   -1.0237 H   0  0  0  0  0  0  0  0  0  0  0  0
   -0.2471    0.9579   -0.2815 C   0  0  1  0  0  0  0  0  0  0  0  0
   -0.0658    1.2327   -1.3245 H   0  0  0  0  0  0  0  0  0  0  0  0
   -0.1377    2.2113    0.6172 C   0  0  0  0  0  0  0  0  0  0  0  0
   -0.3815    1.9383    1.6505 H   0  0  0  0  0  0  0  0  0  0  0  0
    0.8870    2.5920    0.6233 H   0  0  0  0  0  0  0  0  0  0  0  0
   -1.0472    3.3227    0.1519 C   0  0  0  0  0  0  0  0  0  0  0  0
   -0.8832    4.1706   -0.9461 N   0  3  0  0  0  0  0  0  0  0  0  0
   -0.0833    4.1185   -1.5820 H   0  0  0  0  0  0  0  0  0  0  0  0
   -1.8752    5.0273   -1.0078 C   0  0  0  0  0  0  0  0  0  0  0  0
   -2.0094    5.8123   -1.7550 H   0  0  0  0  0  0  0  0  0  0  0  0
   -2.7258    4.7546    0.0618 N   0  0  0  0  0  0  0  0  0  0  0  0
   -3.5902    5.2581    0.2848 H   0  0  0  0  0  0  0  0  0  0  0  0
   -2.2049    3.6914    0.7882 C   0  0  0  0  0  0  0  0  0  0  0  0
   -2.6196    3.2262    1.6844 H   0  0  0  0  0  0  0  0  0  0  0  0
    0.8662   -0.0665    0.0944 C   0  0  0  0  0  0  0  0  0  0  0  0
    0.6732   -1.2511   -0.1440 O   0  0  0  0  0  0  0  0  0  0  0  0
    2.1779    0.3255    0.3155 N   0  0  0  0  0  0  0  0  0  0  0  0
    2.3588    1.3005    0.5265 H   0  0  0  0  0  0  0  0  0  0  0  0
    3.2625   -0.6332    0.5228 C   0  0  0  0  0  0  0  0  0  0  0  0
    3.3814   -1.2776   -0.3553 H   0  0  0  0  0  0  0  0  0  0  0  0
    4.2086   -0.1100    0.6937 H   0  0  0  0  0  0  0  0  0  0  0  0
    3.0552   -1.2650    1.3936 H   0  0  0  0  0  0  0  0  0  0  0  0
  1  2  1  0  0  0  0
  2  3  1  0  0  0  0
  2  4  1  0  0  0  0
  2  5  1  0  0  0  0
  5  6  2  0  0  0  0
  5  7  1  0  0  0  0
  7  8  1  0  0  0  0
  7  9  1  0  0  0  0
  9 10  1  0  0  0  0
  9 11  1  0  0  0  0
  9 23  1  0  0  0  0
 11 12  1  0  0  0  0
 11 13  1  0  0  0  0
 11 14  1  0  0  0  0
 14 15  1  0  0  0  0
 14 21  2  0  0  0  0
 15 16  1  0  0  0  0
 15 17  2  0  0  0  0
 17 18  1  0  0  0  0
 17 19  1  0  0  0  0
 19 20  1  0  0  0  0
 19 21  1  0  0  0  0
 21 22  1  0  0  0  0
 23 24  2  0  0  0  0
 23 25  1  0  0  0  0
 25 26  1  0  0  0  0
 25 27  1  0  0  0  0
 27 28  1  0  0  0  0
 27 29  1  0  0  0  0
 27 30  1  0  0  0  0
M  CHG  1  15   1
M  END
$$$$

  -OEChem-01062216083D

 30 30  0     1  0  0  0  0  0999 V2000
   -3.0985   -2.2288    1.3864 H   0  0  0  0  0  0  0  0  0  0  0  0
   -2.9798   -1.5730    0.5188 C   0  0  0  0  0  0  0  0  0  0  0  0
   -3.9425   -1.1096    0.2918 H   0  0  0  0  0  0  0  0  0  0  0  0
   -2.6604   -2.1788   -0.3331 H   0  0  0  0  0  0  0  0  0  0  0  0
   -1.9400   -0.5093    0.8114 C   0  0  0  0  0  0  0  0  0  0  0  0
   -1.4571   -0.4037    1.9281 O   0  0  0  0  0  0  0  0  0  0  0  0
   -1.6299    0.4583   -0.1304 N   0  0  0  0  0  0  0  0  0  0  0  0
   -2.1054    0.2828   -1.0121 H   0  0  0  0  0  0  0  0  0  0  0  0
   -0.2471    0.9794   -0.2719 C   0  0  1  0  0  0  0  0  0  0  0  0
   -0.0687    1.2540   -1.3157 H   0  0  0  0  0  0  0  0  0  0  0  0
   -0.1390    2.2376    0.6181 C   0  0  0  0  0  0  0  0  0  0  0  0
   -0.3768    1.9690    1.6542 H   0  0  0  0  0  0  0  0  0  0  0  0
    0.8841    2.6245    0.6101 H   0  0  0  0  0  0  0  0  0  0  0  0
   -1.0567    3.3397    0.1479 C   0  0  0  0  0  0  0  0  0  0  0  0
   -0.8954    4.1762   -0.9590 N   0  3  0  0  0  0  0  0  0  0  0  0
   -0.0957    4.1183   -1.5949 H   0  0  0  0  0  0  0  0  0  0  0  0
   -1.8883    5.0312   -1.0280 C   0  0  0  0  0  0  0  0  0  0  0  0
   -2.0244    5.8085   -1.7831 H   0  0  0  0  0  0  0  0  0  0  0  0
   -2.7374    4.7677    0.0454 N   0  0  0  0  0  0  0  0  0  0  0  0
   -3.6021    5.2726    0.2645 H   0  0  0  0  0  0  0  0  0  0  0  0
   -2.2140    3.7129    0.7824 C   0  0  0  0  0  0  0  0  0  0  0  0
   -2.6277    3.2566    1.6835 H   0  0  0  0  0  0  0  0  0  0  0  0
    0.8577   -0.0568    0.0888 C   0  0  0  0  0  0  0  0  0  0  0  0
    0.7315   -1.1895   -0.3564 O   0  0  0  0  0  0  0  0  0  0  0  0
    2.0910    0.3023    0.6105 N   0  0  0  0  0  0  0  0  0  0  0  0
    2.1627    1.2022    1.0726 H   0  0  0  0  0  0  0  0  0  0  0  0
    3.1403   -0.6809    0.8742 C   0  0  0  0  0  0  0  0  0  0  0  0
    3.4184   -1.2061   -0.0463 H   0  0  0  0  0  0  0  0  0  0  0  0
    4.0343   -0.1891    1.2699 H   0  0  0  0  0  0  0  0  0  0  0  0
    2.7979   -1.4195    1.6075 H   0  0  0  0  0  0  0  0  0  0  0  0
  1  2  1  0  0  0  0
  2  3  1  0  0  0  0
  2  4  1  0  0  0  0
  2  5  1  0  0  0  0
  5  6  2  0  0  0  0
  5  7  1  0  0  0  0
  7  8  1  0  0  0  0
  7  9  1  0  0  0  0
  9 10  1  0  0  0  0
  9 11  1  0  0  0  0
  9 23  1  0  0  0  0
 11 12  1  0  0  0  0
 11 13  1  0  0  0  0
 11 14  1  0  0  0  0
 14 15  1  0  0  0  0
 14 21  2  0  0  0  0
 15 16  1  0  0  0  0
 15 17  2  0  0  0  0
 17 18  1  0  0  0  0
 17 19  1  0  0  0  0
 19 20  1  0  0  0  0
 19 21  1  0  0  0  0
 21 22  1  0  0  0  0
 23 24  2  0  0  0  0
 23 25  1  0  0  0  0
 25 26  1  0  0  0  0
 25 27  1  0  0  0  0
 27 28  1  0  0  0  0
 27 29  1  0  0  0  0
 27 30  1  0  0  0  0
M  CHG  1  15   1
M  END
$$$$

  -OEChem-01062216083D

 30 30  0     1  0  0  0  0  0999 V2000
   -3.0799   -2.2553    1.3708 H   0  0  0  0  0  0  0  0  0  0  0  0
   -2.9874   -1.5715    0.5221 C   0  0  0  0  0  0  0  0  0  0  0  0
   -3.9530   -1.0907    0.3496 H   0  0  0  0  0  0  0  0  0  0  0  0
   -2.7093   -2.1506   -0.3623 H   0  0  0  0  0  0  0  0  0  0  0  0
   -1.9261   -0.5283    0.8101 C   0  0  0  0  0  0  0  0  0  0  0  0
   -1.4164   -0.4517    1.9173 O   0  0  0  0  0  0  0  0  0  0  0  0
   -1.6246    0.4508   -0.1219 N   0  0  0  0  0  0  0  0  0  0  0  0
   -2.1069    0.2924   -1.0034 H   0  0  0  0  0  0  0  0  0  0  0  0
   -0.2471    0.9833   -0.2575 C   0  0  1  0  0  0  0  0  0  0  0  0
   -0.0694    1.2576   -1.3017 H   0  0  0  0  0  0  0  0  0  0  0  0
   -0.1407    2.2456    0.6247 C   0  0  0  0  0  0  0  0  0  0  0  0
   -0.3817    1.9829    1.6615 H   0  0  0  0  0  0  0  0  0  0  0  0
    0.8845    2.6292    0.6135 H   0  0  0  0  0  0  0  0  0  0  0  0
   -1.0598    3.3435    0.1472 C   0  0  0  0  0  0  0  0  0  0  0  0
   -0.8932    4.1703   -0.9662 N   0  3  0  0  0  0  0  0  0  0  0  0
   -0.0910    4.1049   -1.5986 H   0  0  0  0  0  0  0  0  0  0  0  0
   -1.8834    5.0273   -1.0459 C   0  0  0  0  0  0  0  0  0  0  0  0
   -2.0146    5.7989   -1.8076 H   0  0  0  0  0  0  0  0  0  0  0  0
   -2.7363    4.7751    0.0270 N   0  0  0  0  0  0  0  0  0  0  0  0
   -3.5991    5.2859    0.2398 H   0  0  0  0  0  0  0  0  0  0  0  0
   -2.2182    3.7250    0.7748 C   0  0  0  0  0  0  0  0  0  0  0  0
   -2.6362    3.2790    1.6789 H   0  0  0  0  0  0  0  0  0  0  0  0
    0.8567   -0.0534    0.0957 C   0  0  0  0  0  0  0  0  0  0  0  0
    0.8361   -1.1094   -0.5207 O   0  0  0  0  0  0  0  0  0  0  0  0
    1.9566    0.2357    0.8878 N   0  0  0  0  0  0  0  0  0  0  0  0
    1.8712    1.0192    1.5271 H   0  0  0  0  0  0  0  0  0  0  0  0
    2.9805   -0.7649    1.1825 C   0  0  0  0  0  0  0  0  0  0  0  0
    3.4390   -1.1332    0.2581 H   0  0  0  0  0  0  0  0  0  0  0  0
    3.7693   -0.3319    1.8056 H   0  0  0  0  0  0  0  0  0  0  0  0
    2.5433   -1.6148    1.7182 H   0  0  0  0  0  0  0  0  0  0  0  0
  1  2  1  0  0  0  0
  2  3  1  0  0  0  0
  2  4  1  0  0  0  0
  2  5  1  0  0  0  0
  5  6  2  0  0  0  0
  5  7  1  0  0  0  0
  7  8  1  0  0  0  0
  7  9  1  0  0  0  0
  9 10  1  0  0  0  0
  9 11  1  0  0  0  0
  9 23  1  0  0  0  0
 11 12  1  0  0  0  0
 11 13  1  0  0  0  0
 11 14  1  0  0  0  0
 14 15  1  0  0  0  0
 14 21  2  0  0  0  0
 15 16  1  0  0  0  0
 15 17  2  0  0  0  0
 17 18  1  0  0  0  0
 17 19  1  0  0  0  0
 19 20  1  0  0  0  0
 19 21  1  0  0  0  0
 21 22  1  0  0  0  0
 23 24  2  0  0  0  0
 23 25  1  0  0  0  0
 25 26  1  0  0  0  0
 25 27  1  0  0  0  0
 27 28  1  0  0  0  0
 27 29  1  0  0  0  0
 27 30  1  0  0  0  0
M  CHG  1  15   1
M  END
$$$$

  -OEChem-01062216083D

 30 30  0     1  0  0  0  0  0999 V2000
   -3.1049   -2.2609    1.3662 H   0  0  0  0  0  0  0  0  0  0  0  0
   -3.0104   -1.5711    0.5225 C   0  0  0  0  0  0  0  0  0  0  0  0
   -3.9699   -1.0733    0.3656 H   0  0  0  0  0  0  0  0  0  0  0  0
   -2.7530   -2.1469   -0.3701 H   0  0  0  0  0  0  0  0  0  0  0  0
   -1.9285   -0.5481    0.8077 C   0  0  0  0  0  0  0  0  0  0  0  0
   -1.3972   -0.4992    1.9062 O   0  0  0  0  0  0  0  0  0  0  0  0
   -1.6264    0.4385   -0.1158 N   0  0  0  0  0  0  0  0  0  0  0  0
   -2.1168    0.3005   -0.9964 H   0  0  0  0  0  0  0  0  0  0  0  0
   -0.2518    0.9768   -0.2449 C   0  0  1  0  0  0  0  0  0  0  0  0
   -0.0754    1.2532   -1.2890 H   0  0  0  0  0  0  0  0  0  0  0  0
   -0.1422    2.2409    0.6330 C   0  0  0  0  0  0  0  0  0  0  0  0
   -0.3893    1.9830    1.6696 H   0  0  0  0  0  0  0  0  0  0  0  0
    0.8871    2.6154    0.6250 H   0  0  0  0  0  0  0  0  0  0  0  0
   -1.0578    3.3395    0.1514 C   0  0  0  0  0  0  0  0  0  0  0  0
   -0.8813    4.1582   -0.9662 N   0  3  0  0  0  0  0  0  0  0  0  0
   -0.0767    4.0833   -1.5947 H   0  0  0  0  0  0  0  0  0  0  0  0
   -1.8651    5.0214   -1.0546 C   0  0  0  0  0  0  0  0  0  0  0  0
   -1.9877    5.7889   -1.8217 H   0  0  0  0  0  0  0  0  0  0  0  0
   -2.7230    4.7823    0.0174 N   0  0  0  0  0  0  0  0  0  0  0  0
   -3.5815    5.3023    0.2250 H   0  0  0  0  0  0  0  0  0  0  0  0
   -2.2152    3.7330    0.7735 C   0  0  0  0  0  0  0  0  0  0  0  0
   -2.6389    3.2971    1.6795 H   0  0  0  0  0  0  0  0  0  0  0  0
    0.8562   -0.0539    0.1024 C   0  0  0  0  0  0  0  0  0  0  0  0
    0.9792   -1.0011   -0.6601 O   0  0  0  0  0  0  0  0  0  0  0  0
    1.7806    0.1259    1.1183 N   0  0  0  0  0  0  0  0  0  0  0  0
    1.5063    0.7537    1.8680 H   0  0  0  0  0  0  0  0  0  0  0  0
    2.7836   -0.8891    1.4322 C   0  0  0  0  0  0  0  0  0  0  0  0
    3.4066   -1.1018    0.5563 H   0  0  0  0  0  0  0  0  0  0  0  0
    3.4368   -0.5425    2.2391 H   0  0  0  0  0  0  0  0  0  0  0  0
    2.3006   -1.8191    1.7520 H   0  0  0  0  0  0  0  0  0  0  0  0
  1  2  1  0  0  0  0
  2  3  1  0  0  0  0
  2  4  1  0  0  0  0
  2  5  1  0  0  0  0
  5  6  2  0  0  0  0
  5  7  1  0  0  0  0
  7  8  1  0  0  0  0
  7  9  1  0  0  0  0
  9 10  1  0  0  0  0
  9 11  1  0  0  0  0
  9 23  1  0  0  0  0
 11 12  1  0  0  0  0
 11 13  1  0  0  0  0
 11 14  1  0  0  0  0
 14 15  1  0  0  0  0
 14 21  2  0  0  0  0
 15 16  1  0  0  0  0
 15 17  2  0  0  0  0
 17 18  1  0  0  0  0
 17 19  1  0  0  0  0
 19 20  1  0  0  0  0
 19 21  1  0  0  0  0
 21 22  1  0  0  0  0
 23 24  2  0  0  0  0
 23 25  1  0  0  0  0
 25 26  1  0  0  0  0
 25 27  1  0  0  0  0
 27 28  1  0  0  0  0
 27 29  1  0  0  0  0
 27 30  1  0  0  0  0
M  CHG  1  15   1
M  END
$$$$

  -OEChem-01062216083D

 30 30  0     1  0  0  0  0  0999 V2000
   -3.1787   -2.2576    1.3548 H   0  0  0  0  0  0  0  0  0  0  0  0
   -3.0765   -1.5572    0.5207 C   0  0  0  0  0  0  0  0  0  0  0  0
   -4.0231   -1.0285    0.3872 H   0  0  0  0  0  0  0  0  0  0  0  0
   -2.8511   -2.1259   -0.3850 H   0  0  0  0  0  0  0  0  0  0  0  0
   -1.9603   -0.5713    0.8044 C   0  0  0  0  0  0  0  0  0  0  0  0
   -1.4152   -0.5529    1.8970 O   0  0  0  0  0  0  0  0  0  0  0  0
   -1.6408    0.4160   -0.1120 N   0  0  0  0  0  0  0  0  0  0  0  0
   -2.1406    0.3063   -0.9916 H   0  0  0  0  0  0  0  0  0  0  0  0
   -0.2645    0.9502   -0.2320 C   0  0  1  0  0  0  0  0  0  0  0  0
   -0.0876    1.2279   -1.2762 H   0  0  0  0  0  0  0  0  0  0  0  0
   -0.1462    2.2142    0.6441 C   0  0  0  0  0  0  0  0  0  0  0  0
   -0.4015    1.9608    1.6794 H   0  0  0  0  0  0  0  0  0  0  0  0
    0.8892    2.5732    0.6427 H   0  0  0  0  0  0  0  0  0  0  0  0
   -1.0500    3.3211    0.1594 C   0  0  0  0  0  0  0  0  0  0  0  0
   -0.8568    4.1342   -0.9596 N   0  3  0  0  0  0  0  0  0  0  0  0
   -0.0468    4.0499   -1.5801 H   0  0  0  0  0  0  0  0  0  0  0  0
   -1.8287    5.0099   -1.0560 C   0  0  0  0  0  0  0  0  0  0  0  0
   -1.9357    5.7780   -1.8248 H   0  0  0  0  0  0  0  0  0  0  0  0
   -2.6966    4.7840    0.0110 N   0  0  0  0  0  0  0  0  0  0  0  0
   -3.5496    5.3156    0.2122 H   0  0  0  0  0  0  0  0  0  0  0  0
   -2.2057    3.7313    0.7739 C   0  0  0  0  0  0  0  0  0  0  0  0
   -2.6390    3.3057    1.6802 H   0  0  0  0  0  0  0  0  0  0  0  0
    0.8514   -0.0697    0.1159 C   0  0  0  0  0  0  0  0  0  0  0  0
    1.1768   -0.8496   -0.7661 O   0  0  0  0  0  0  0  0  0  0  0  0
    1.5686   -0.0335    1.2995 N   0  0  0  0  0  0  0  0  0  0  0  0
    1.0750    0.3742    2.0902 H   0  0  0  0  0  0  0  0  0  0  0  0
    2.5951   -1.0278    1.6034 C   0  0  0  0  0  0  0  0  0  0  0  0
    3.3698   -1.0340    0.8287 H   0  0  0  0  0  0  0  0  0  0  0  0
    3.0734   -0.8003    2.5612 H   0  0  0  0  0  0  0  0  0  0  0  0
    2.1533   -2.0284    1.6649 H   0  0  0  0  0  0  0  0  0  0  0  0
  1  2  1  0  0  0  0
  2  3  1  0  0  0  0
  2  4  1  0  0  0  0
  2  5  1  0  0  0  0
  5  6  2  0  0  0  0
  5  7  1  0  0  0  0
  7  8  1  0  0  0  0
  7  9  1  0  0  0  0
  9 10  1  0  0  0  0
  9 11  1  0  0  0  0
  9 23  1  0  0  0  0
 11 12  1  0  0  0  0
 11 13  1  0  0  0  0
 11 14  1  0  0  0  0
 14 15  1  0  0  0  0
 14 21  2  0  0  0  0
 15 16  1  0  0  0  0
 15 17  2  0  0  0  0
 17 18  1  0  0  0  0
 17 19  1  0  0  0  0
 19 20  1  0  0  0  0
 19 21  1  0  0  0  0
 21 22  1  0  0  0  0
 23 24  2  0  0  0  0
 23 25  1  0  0  0  0
 25 26  1  0  0  0  0
 25 27  1  0  0  0  0
 27 28  1  0  0  0  0
 27 29  1  0  0  0  0
 27 30  1  0  0  0  0
M  CHG  1  15   1
M  END
$$$$

  -OEChem-01062216083D

 30 30  0     1  0  0  0  0  0999 V2000
   -3.2973   -2.2415    1.3348 H   0  0  0  0  0  0  0  0  0  0  0  0
   -3.1682   -1.5413    0.5042 C   0  0  0  0  0  0  0  0  0  0  0  0
   -4.0946   -0.9774    0.3727 H   0  0  0  0  0  0  0  0  0  0  0  0
   -2.9636   -2.1134   -0.4042 H   0  0  0  0  0  0  0  0  0  0  0  0
   -2.0175   -0.5978    0.7942 C   0  0  0  0  0  0  0  0  0  0  0  0
   -1.4753   -0.6062    1.8882 O   0  0  0  0  0  0  0  0  0  0  0  0
   -1.6659    0.3840   -0.1158 N   0  0  0  0  0  0  0  0  0  0  0  0
   -2.1746    0.3054   -0.9936 H   0  0  0  0  0  0  0  0  0  0  0  0
   -0.2851    0.9093   -0.2309 C   0  0  1  0  0  0  0  0  0  0  0  0
   -0.1124    1.1903   -1.2752 H   0  0  0  0  0  0  0  0  0  0  0  0
   -0.1523    2.1697    0.6473 C   0  0  0  0  0  0  0  0  0  0  0  0
   -0.4094    1.9170    1.6824 H   0  0  0  0  0  0  0  0  0  0  0  0
    0.8882    2.5133    0.6477 H   0  0  0  0  0  0  0  0  0  0  0  0
   -1.0426    3.2892    0.1678 C   0  0  0  0  0  0  0  0  0  0  0  0
   -0.8358    4.1007   -0.9497 N   0  3  0  0  0  0  0  0  0  0  0  0
   -0.0274    4.0022   -1.5706 H   0  0  0  0  0  0  0  0  0  0  0  0
   -1.7890    4.9972   -1.0407 C   0  0  0  0  0  0  0  0  0  0  0  0
   -1.8809    5.7704   -1.8063 H   0  0  0  0  0  0  0  0  0  0  0  0
   -2.6587    4.7862    0.0278 N   0  0  0  0  0  0  0  0  0  0  0  0
   -3.4971    5.3381    0.2353 H   0  0  0  0  0  0  0  0  0  0  0  0
   -2.1875    3.7219    0.7872 C   0  0  0  0  0  0  0  0  0  0  0  0
   -2.6248    3.3067    1.6964 H   0  0  0  0  0  0  0  0  0  0  0  0
    0.8463   -0.0918    0.1181 C   0  0  0  0  0  0  0  0  0  0  0  0
    1.3960   -0.6539   -0.8167 O   0  0  0  0  0  0  0  0  0  0  0  0
    1.3516   -0.2324    1.3983 N   0  0  0  0  0  0  0  0  0  0  0  0
    0.6739   -0.0437    2.1376 H   0  0  0  0  0  0  0  0  0  0  0  0
    2.4157   -1.1847    1.7051 C   0  0  0  0  0  0  0  0  0  0  0  0
    3.3000   -0.9889    1.0887 H   0  0  0  0  0  0  0  0  0  0  0  0
    2.7078   -1.1015    2.7567 H   0  0  0  0  0  0  0  0  0  0  0  0
    2.0792   -2.2101    1.5178 H   0  0  0  0  0  0  0  0  0  0  0  0
  1  2  1  0  0  0  0
  2  3  1  0  0  0  0
  2  4  1  0  0  0  0
  2  5  1  0  0  0  0
  5  6  2  0  0  0  0
  5  7  1  0  0  0  0
  7  8  1  0  0  0  0
  7  9  1  0  0  0  0
  9 10  1  0  0  0  0
  9 11  1  0  0  0  0
  9 23  1  0  0  0  0
 11 12  1  0  0  0  0
 11 13  1  0  0  0  0
 11 14  1  0  0  0  0
 14 15  1  0  0  0  0
 14 21  2  0  0  0  0
 15 16  1  0  0  0  0
 15 17  2  0  0  0  0
 17 18  1  0  0  0  0
 17 19  1  0  0  0  0
 19 20  1  0  0  0  0
 19 21  1  0  0  0  0
 21 22  1  0  0  0  0
 23 24  2  0  0  0  0
 23 25  1  0  0  0  0
 25 26  1  0  0  0  0
 25 27  1  0  0  0  0
 27 28  1  0  0  0  0
 27 29  1  0  0  0  0
 27 30  1  0  0  0  0
M  CHG  1  15   1
M  END
$$$$

  -OEChem-01062216083D

 30 30  0     1  0  0  0  0  0999 V2000
   -3.4450   -2.2016    1.3053 H   0  0  0  0  0  0  0  0  0  0  0  0
   -3.2743   -1.5090    0.4758 C   0  0  0  0  0  0  0  0  0  0  0  0
   -4.1748   -0.9082    0.3288 H   0  0  0  0  0  0  0  0  0  0  0  0
   -3.0786   -2.0907   -0.4284 H   0  0  0  0  0  0  0  0  0  0  0  0
   -2.0910   -0.6119    0.7825 C   0  0  0  0  0  0  0  0  0  0  0  0
   -1.5729   -0.6402    1.8866 O   0  0  0  0  0  0  0  0  0  0  0  0
   -1.6935    0.3568   -0.1218 N   0  0  0  0  0  0  0  0  0  0  0  0
   -2.2116    0.3116   -0.9966 H   0  0  0  0  0  0  0  0  0  0  0  0
   -0.3052    0.8672   -0.2379 C   0  0  1  0  0  0  0  0  0  0  0  0
   -0.1391    1.1527   -1.2822 H   0  0  0  0  0  0  0  0  0  0  0  0
   -0.1574    2.1201    0.6468 C   0  0  0  0  0  0  0  0  0  0  0  0
   -0.4115    1.8625    1.6815 H   0  0  0  0  0  0  0  0  0  0  0  0
    0.8872    2.4524    0.6459 H   0  0  0  0  0  0  0  0  0  0  0  0
   -1.0352    3.2525    0.1772 C   0  0  0  0  0  0  0  0  0  0  0  0
   -0.8192    4.0677   -0.9355 N   0  3  0  0  0  0  0  0  0  0  0  0
   -0.0096    3.9660   -1.5545 H   0  0  0  0  0  0  0  0  0  0  0  0
   -1.7601    4.9776   -1.0190 C   0  0  0  0  0  0  0  0  0  0  0  0
   -1.8411    5.7588   -1.7780 H   0  0  0  0  0  0  0  0  0  0  0  0
   -2.6319    4.7698    0.0485 N   0  0  0  0  0  0  0  0  0  0  0  0
   -3.4618    5.3321    0.2614 H   0  0  0  0  0  0  0  0  0  0  0  0
   -2.1738    3.6946    0.8007 C   0  0  0  0  0  0  0  0  0  0  0  0
   -2.6146    3.2784    1.7078 H   0  0  0  0  0  0  0  0  0  0  0  0
    0.8478   -0.1084    0.1120 C   0  0  0  0  0  0  0  0  0  0  0  0
    1.5864   -0.4410   -0.8020 O   0  0  0  0  0  0  0  0  0  0  0  0
    1.1713   -0.4588    1.4095 N   0  0  0  0  0  0  0  0  0  0  0  0
    0.3960   -0.3991    2.0742 H   0  0  0  0  0  0  0  0  0  0  0  0
    2.2562   -1.3846    1.7222 C   0  0  0  0  0  0  0  0  0  0  0  0
    3.2036   -1.0241    1.3072 H   0  0  0  0  0  0  0  0  0  0  0  0
    2.3730   -1.4798    2.8063 H   0  0  0  0  0  0  0  0  0  0  0  0
    2.0469   -2.3762    1.3069 H   0  0  0  0  0  0  0  0  0  0  0  0
  1  2  1  0  0  0  0
  2  3  1  0  0  0  0
  2  4  1  0  0  0  0
  2  5  1  0  0  0  0
  5  6  2  0  0  0  0
  5  7  1  0  0  0  0
  7  8  1  0  0  0  0
  7  9  1  0  0  0  0
  9 10  1  0  0  0  0
  9 11  1  0  0  0  0
  9 23  1  0  0  0  0
 11 12  1  0  0  0  0
 11 13  1  0  0  0  0
 11 14  1  0  0  0  0
 14 15  1  0  0  0  0
 14 21  2  0  0  0  0
 15 16  1  0  0  0  0
 15 17  2  0  0  0  0
 17 18  1  0  0  0  0
 17 19  1  0  0  0  0
 19 20  1  0  0  0  0
 19 21  1  0  0  0  0
 21 22  1  0  0  0  0
 23 24  2  0  0  0  0
 23 25  1  0  0  0  0
 25 26  1  0  0  0  0
 25 27  1  0  0  0  0
 27 28  1  0  0  0  0
 27 29  1  0  0  0  0
 27 30  1  0  0  0  0
M  CHG  1  15   1
M  END
$$$$

  -OEChem-01062216083D

 30 30  0     1  0  0  0  0  0999 V2000
   -3.5957   -2.1523    1.2757 H   0  0  0  0  0  0  0  0  0  0  0  0
   -3.3829   -1.4702    0.4473 C   0  0  0  0  0  0  0  0  0  0  0  0
   -4.2560   -0.8342    0.2827 H   0  0  0  0  0  0  0  0  0  0  0  0
   -3.1965   -2.0635   -0.4512 H   0  0  0  0  0  0  0  0  0  0  0  0
   -2.1694   -0.6205    0.7706 C   0  0  0  0  0  0  0  0  0  0  0  0
   -1.6765   -0.6627    1.8847 O   0  0  0  0  0  0  0  0  0  0  0  0
   -1.7277    0.3309   -0.1306 N   0  0  0  0  0  0  0  0  0  0  0  0
   -2.2492    0.3080   -1.0042 H   0  0  0  0  0  0  0  0  0  0  0  0
   -0.3310    0.8222   -0.2512 C   0  0  1  0  0  0  0  0  0  0  0  0
   -0.1709    1.1083   -1.2963 H   0  0  0  0  0  0  0  0  0  0  0  0
   -0.1703    2.0689    0.6394 C   0  0  0  0  0  0  0  0  0  0  0  0
   -0.4226    1.8056    1.6731 H   0  0  0  0  0  0  0  0  0  0  0  0
    0.8772    2.3922    0.6382 H   0  0  0  0  0  0  0  0  0  0  0  0
   -1.0354    3.2154    0.1805 C   0  0  0  0  0  0  0  0  0  0  0  0
   -0.8093    4.0349   -0.9268 N   0  3  0  0  0  0  0  0  0  0  0  0
   -0.0009    3.9264   -1.5466 H   0  0  0  0  0  0  0  0  0  0  0  0
   -1.7342    4.9622   -0.9988 C   0  0  0  0  0  0  0  0  0  0  0  0
   -1.8025    5.7523   -1.7495 H   0  0  0  0  0  0  0  0  0  0  0  0
   -2.6063    4.7609    0.0699 N   0  0  0  0  0  0  0  0  0  0  0  0
   -3.4243    5.3374    0.2918 H   0  0  0  0  0  0  0  0  0  0  0  0
   -2.1633    3.6728    0.8126 C   0  0  0  0  0  0  0  0  0  0  0  0
   -2.6053    3.2597    1.7204 H   0  0  0  0  0  0  0  0  0  0  0  0
    0.8427   -0.1298    0.0981 C   0  0  0  0  0  0  0  0  0  0  0  0
    1.7203   -0.2450   -0.7438 O   0  0  0  0  0  0  0  0  0  0  0  0
    1.0257   -0.7087    1.3388 N   0  0  0  0  0  0  0  0  0  0  0  0
    0.2096   -0.7159    1.9563 H   0  0  0  0  0  0  0  0  0  0  0  0
    2.1352   -1.6055    1.6482 C   0  0  0  0  0  0  0  0  0  0  0  0
    3.0940   -1.0999    1.4910 H   0  0  0  0  0  0  0  0  0  0  0  0
    2.0837   -1.9250    2.6939 H   0  0  0  0  0  0  0  0  0  0  0  0
    2.0994   -2.4961    1.0116 H   0  0  0  0  0  0  0  0  0  0  0  0
  1  2  1  0  0  0  0
  2  3  1  0  0  0  0
  2  4  1  0  0  0  0
  2  5  1  0  0  0  0
  5  6  2  0  0  0  0
  5  7  1  0  0  0  0
  7  8  1  0  0  0  0
  7  9  1  0  0  0  0
  9 10  1  0  0  0  0
  9 11  1  0  0  0  0
  9 23  1  0  0  0  0
 11 12  1  0  0  0  0
 11 13  1  0  0  0  0
 11 14  1  0  0  0  0
 14 15  1  0  0  0  0
 14 21  2  0  0  0  0
 15 16  1  0  0  0  0
 15 17  2  0  0  0  0
 17 18  1  0  0  0  0
 17 19  1  0  0  0  0
 19 20  1  0  0  0  0
 19 21  1  0  0  0  0
 21 22  1  0  0  0  0
 23 24  2  0  0  0  0
 23 25  1  0  0  0  0
 25 26  1  0  0  0  0
 25 27  1  0  0  0  0
 27 28  1  0  0  0  0
 27 29  1  0  0  0  0
 27 30  1  0  0  0  0
M  CHG  1  15   1
M  END
$$$$

  -OEChem-01062216083D

 30 30  0     1  0  0  0  0  0999 V2000
   -3.7280   -2.0933    1.2639 H   0  0  0  0  0  0  0  0  0  0  0  0
   -3.4795   -1.4327    0.4279 C   0  0  0  0  0  0  0  0  0  0  0  0
   -4.3276   -0.7695    0.2416 H   0  0  0  0  0  0  0  0  0  0  0  0
   -3.3021   -2.0462   -0.4590 H   0  0  0  0  0  0  0  0  0  0  0  0
   -2.2406   -0.6212    0.7549 C   0  0  0  0  0  0  0  0  0  0  0  0
   -1.7508   -0.6838    1.8690 O   0  0  0  0  0  0  0  0  0  0  0  0
   -1.7691    0.3185   -0.1432 N   0  0  0  0  0  0  0  0  0  0  0  0
   -2.3015    0.3253   -1.0104 H   0  0  0  0  0  0  0  0  0  0  0  0
   -0.3631    0.7839   -0.2734 C   0  0  1  0  0  0  0  0  0  0  0  0
   -0.2100    1.0742   -1.3183 H   0  0  0  0  0  0  0  0  0  0  0  0
   -0.1806    2.0207    0.6272 C   0  0  0  0  0  0  0  0  0  0  0  0
   -0.4295    1.7499    1.6599 H   0  0  0  0  0  0  0  0  0  0  0  0
    0.8708    2.3317    0.6239 H   0  0  0  0  0  0  0  0  0  0  0  0
   -1.0309    3.1838    0.1839 C   0  0  0  0  0  0  0  0  0  0  0  0
   -0.7960    4.0088   -0.9172 N   0  3  0  0  0  0  0  0  0  0  0  0
    0.0094    3.8931   -1.5395 H   0  0  0  0  0  0  0  0  0  0  0  0
   -1.7044    4.9528   -0.9763 C   0  0  0  0  0  0  0  0  0  0  0  0
   -1.7617    5.7514   -1.7188 H   0  0  0  0  0  0  0  0  0  0  0  0
   -2.5749    4.7569    0.0949 N   0  0  0  0  0  0  0  0  0  0  0  0
   -3.3796    5.3473    0.3278 H   0  0  0  0  0  0  0  0  0  0  0  0
   -2.1476    3.6545    0.8258 C   0  0  0  0  0  0  0  0  0  0  0  0
   -2.5913    3.2414    1.7330 H   0  0  0  0  0  0  0  0  0  0  0  0
    0.8204   -0.1626    0.0611 C   0  0  0  0  0  0  0  0  0  0  0  0
    1.7944   -0.0827   -0.6725 O   0  0  0  0  0  0  0  0  0  0  0  0
    0.8958   -0.9758    1.1740 N   0  0  0  0  0  0  0  0  0  0  0  0
    0.0680   -1.0236    1.7733 H   0  0  0  0  0  0  0  0  0  0  0  0
    2.0432   -1.8214    1.4886 C   0  0  0  0  0  0  0  0  0  0  0  0
    2.9508   -1.2170    1.5917 H   0  0  0  0  0  0  0  0  0  0  0  0
    1.8757   -2.3526    2.4309 H   0  0  0  0  0  0  0  0  0  0  0  0
    2.2028   -2.5623    0.6979 H   0  0  0  0  0  0  0  0  0  0  0  0
  1  2  1  0  0  0  0
  2  3  1  0  0  0  0
  2  4  1  0  0  0  0
  2  5  1  0  0  0  0
  5  6  2  0  0  0  0
  5  7  1  0  0  0  0
  7  8  1  0  0  0  0
  7  9  1  0  0  0  0
  9 10  1  0  0  0  0
  9 11  1  0  0  0  0
  9 23  1  0  0  0  0
 11 12  1  0  0  0  0
 11 13  1  0  0  0  0
 11 14  1  0  0  0  0
 14 15  1  0  0  0  0
 14 21  2  0  0  0  0
 15 16  1  0  0  0  0
 15 17  2  0  0  0  0
 17 18  1  0  0  0  0
 17 19  1  0  0  0  0
 19 20  1  0  0  0  0
 19 21  1  0  0  0  0
 21 22  1  0  0  0  0
 23 24  2  0  0  0  0
 23 25  1  0  0  0  0
 25 26  1  0  0  0  0
 25 27  1  0  0  0  0
 27 28  1  0  0  0  0
 27 29  1  0  0  0  0
 27 30  1  0  0  0  0
M  CHG  1  15   1
M  END
$$$$

  -OEChem-01062216083D

 30 30  0     1  0  0  0  0  0999 V2000
   -3.0272   -2.3440    1.5050 H   0  0  0  0  0  0  0  0  0  0  0  0
   -2.9649   -1.6365    0.6730 C   0  0  0  0  0  0  0  0  0  0  0  0
   -3.9219   -1.1175    0.5803 H   0  0  0  0  0  0  0  0  0  0  0  0
   -2.7693   -2.1954   -0.2452 H   0  0  0  0  0  0  0  0  0  0  0  0
   -1.8523   -0.6379    0.9256 C   0  0  0  0  0  0  0  0  0  0  0  0
   -1.3909   -0.5124    2.0446 O   0  0  0  0  0  0  0  0  0  0  0  0
   -1.5128    0.2878   -0.0397 N   0  0  0  0  0  0  0  0  0  0  0  0
   -2.0532    0.1703   -0.8931 H   0  0  0  0  0  0  0  0  0  0  0  0
   -0.1688    0.8910   -0.2354 C   0  0  1  0  0  0  0  0  0  0  0  0
   -0.0798    1.1565   -1.2934 H   0  0  0  0  0  0  0  0  0  0  0  0
   -0.1539    2.1792    0.6232 C   0  0  0  0  0  0  0  0  0  0  0  0
   -0.3525    1.9127    1.6678 H   0  0  0  0  0  0  0  0  0  0  0  0
    0.8392    2.6425    0.6035 H   0  0  0  0  0  0  0  0  0  0  0  0
   -1.1544    3.2041    0.1542 C   0  0  0  0  0  0  0  0  0  0  0  0
   -1.0437    4.0196   -0.9724 N   0  3  0  0  0  0  0  0  0  0  0  0
   -0.2310    4.0012   -1.5953 H   0  0  0  0  0  0  0  0  0  0  0  0
   -2.0693    4.8346   -1.0415 C   0  0  0  0  0  0  0  0  0  0  0  0
   -2.2382    5.6013   -1.8006 H   0  0  0  0  0  0  0  0  0  0  0  0
   -2.8952    4.5538    0.0463 N   0  0  0  0  0  0  0  0  0  0  0  0
   -3.7668    5.0405    0.2778 H   0  0  0  0  0  0  0  0  0  0  0  0
   -2.3161    3.5397    0.8000 C   0  0  0  0  0  0  0  0  0  0  0  0
   -2.6864    3.0967    1.7259 H   0  0  0  0  0  0  0  0  0  0  0  0
    1.1672    0.1540    0.0958 C   0  0  0  0  0  0  0  0  0  0  0  0
    2.1806    0.6985   -0.3115 O   0  0  0  0  0  0  0  0  0  0  0  0
    1.4556   -0.8059    1.0390 N   0  0  0  0  0  0  0  0  0  0  0  0
    2.4462   -0.7802    1.2746 H   0  0  0  0  0  0  0  0  0  0  0  0
    0.9050   -2.1553    0.9595 C   0  0  0  0  0  0  0  0  0  0  0  0
    0.3820   -2.4107    1.8869 H   0  0  0  0  0  0  0  0  0  0  0  0
    0.2128   -2.2613    0.1186 H   0  0  0  0  0  0  0  0  0  0  0  0
    1.7154   -2.8776    0.8164 H   0  0  0  0  0  0  0  0  0  0  0  0
  1  2  1  0  0  0  0
  2  3  1  0  0  0  0
  2  4  1  0  0  0  0
  2  5  1  0  0  0  0
  5  6  2  0  0  0  0
  5  7  1  0  0  0  0
  7  8  1  0  0  0  0
  7  9  1  0  0  0  0
  9 10  1  0  0  0  0
  9 11  1  0  0  0  0
  9 23  1  0  0  0  0
 11 12  1  0  0  0  0
 11 13  1  0  0  0  0
 11 14  1  0  0  0  0
 14 15  1  0  0  0  0
 14 21  2  0  0  0  0
 15 16  1  0  0  0  0
 15 17  2  0  0  0  0
 17 18  1  0  0  0  0
 17 19  1  0  0  0  0
 19 20  1  0  0  0  0
 19 21  1  0  0  0  0
 21 22  1  0  0  0  0
 23 24  2  0  0  0  0
 23 25  1  0  0  0  0
 25 26  1  0  0  0  0
 25 27  1  0  0  0  0
 27 28  1  0  0  0  0
 27 29  1  0  0  0  0
 27 30  1  0  0  0  0
M  CHG  1  15   1
M  END
$$$$

  -OEChem-01062216083D

 30 30  0     1  0  0  0  0  0999 V2000
   -3.3075   -2.3478    1.3429 H   0  0  0  0  0  0  0  0  0  0  0  0
   -3.2487   -1.6307    0.5189 C   0  0  0  0  0  0  0  0  0  0  0  0
   -4.1938   -1.0859    0.4578 H   0  0  0  0  0  0  0  0  0  0  0  0
   -3.0911   -2.1821   -0.4113 H   0  0  0  0  0  0  0  0  0  0  0  0
   -2.1023   -0.6664    0.7518 C   0  0  0  0  0  0  0  0  0  0  0  0
   -1.5978   -0.5695    1.8560 O   0  0  0  0  0  0  0  0  0  0  0  0
   -1.8194    0.3235   -0.1650 N   0  0  0  0  0  0  0  0  0  0  0  0
   -2.4783    0.2972   -0.9395 H   0  0  0  0  0  0  0  0  0  0  0  0
   -0.4527    0.7325   -0.5766 C   0  0  1  0  0  0  0  0  0  0  0  0
   -0.5215    1.1094   -1.6024 H   0  0  0  0  0  0  0  0  0  0  0  0
   -0.0169    1.8817    0.3546 C   0  0  0  0  0  0  0  0  0  0  0  0
   -0.0531    1.5389    1.3949 H   0  0  0  0  0  0  0  0  0  0  0  0
    1.0230    2.1594    0.1459 H   0  0  0  0  0  0  0  0  0  0  0  0
   -0.8848    3.1027    0.1899 C   0  0  0  0  0  0  0  0  0  0  0  0
   -0.8589    4.0130   -0.8676 N   0  3  0  0  0  0  0  0  0  0  0  0
   -0.2098    3.9348   -1.6560 H   0  0  0  0  0  0  0  0  0  0  0  0
   -1.7334    4.9686   -0.6610 C   0  0  0  0  0  0  0  0  0  0  0  0
   -1.9242    5.8242   -1.3120 H   0  0  0  0  0  0  0  0  0  0  0  0
   -2.3675    4.6945    0.5502 N   0  0  0  0  0  0  0  0  0  0  0  0
   -3.0965    5.2664    0.9877 H   0  0  0  0  0  0  0  0  0  0  0  0
   -1.8318    3.5292    1.0846 C   0  0  0  0  0  0  0  0  0  0  0  0
   -2.0974    3.0367    2.0218 H   0  0  0  0  0  0  0  0  0  0  0  0
    0.7336   -0.2751   -0.5955 C   0  0  0  0  0  0  0  0  0  0  0  0
    1.5694   -0.0863   -1.4620 O   0  0  0  0  0  0  0  0  0  0  0  0
    0.8410   -1.5212   -0.0210 N   0  0  0  0  0  0  0  0  0  0  0  0
    1.4850   -2.0904   -0.5686 H   0  0  0  0  0  0  0  0  0  0  0  0
    1.0580   -1.6541    1.4170 C   0  0  0  0  0  0  0  0  0  0  0  0
    0.9673   -0.6926    1.9327 H   0  0  0  0  0  0  0  0  0  0  0  0
    0.3358   -2.3544    1.8494 H   0  0  0  0  0  0  0  0  0  0  0  0
    2.0650   -2.0396    1.6075 H   0  0  0  0  0  0  0  0  0  0  0  0
  1  2  1  0  0  0  0
  2  3  1  0  0  0  0
  2  4  1  0  0  0  0
  2  5  1  0  0  0  0
  5  6  2  0  0  0  0
  5  7  1  0  0  0  0
  7  8  1  0  0  0  0
  7  9  1  0  0  0  0
  9 10  1  0  0  0  0
  9 11  1  0  0  0  0
  9 23  1  0  0  0  0
 11 12  1  0  0  0  0
 11 13  1  0  0  0  0
 11 14  1  0  0  0  0
 14 15  1  0  0  0  0
 14 21  2  0  0  0  0
 15 16  1  0  0  0  0
 15 17  2  0  0  0  0
 17 18  1  0  0  0  0
 17 19  1  0  0  0  0
 19 20  1  0  0  0  0
 19 21  1  0  0  0  0
 21 22  1  0  0  0  0
 23 24  2  0  0  0  0
 23 25  1  0  0  0  0
 25 26  1  0  0  0  0
 25 27  1  0  0  0  0
 27 28  1  0  0  0  0
 27 29  1  0  0  0  0
 27 30  1  0  0  0  0
M  CHG  1  15   1
M  END
$$$$

  -OEChem-01062216083D

 30 30  0     1  0  0  0  0  0999 V2000
   -3.8095   -2.0174    1.2381 H   0  0  0  0  0  0  0  0  0  0  0  0
   -3.5948   -1.2911    0.4484 C   0  0  0  0  0  0  0  0  0  0  0  0
   -4.3799   -0.5314    0.4485 H   0  0  0  0  0  0  0  0  0  0  0  0
   -3.5989   -1.8112   -0.5128 H   0  0  0  0  0  0  0  0  0  0  0  0
   -2.2433   -0.6461    0.6875 C   0  0  0  0  0  0  0  0  0  0  0  0
   -1.6283   -0.8897    1.7096 O   0  0  0  0  0  0  0  0  0  0  0  0
   -1.7607    0.2995   -0.1982 N   0  0  0  0  0  0  0  0  0  0  0  0
   -2.3515    0.4202   -1.0174 H   0  0  0  0  0  0  0  0  0  0  0  0
   -0.3516    0.7539   -0.3485 C   0  0  1  0  0  0  0  0  0  0  0  0
   -0.2080    1.0610   -1.3892 H   0  0  0  0  0  0  0  0  0  0  0  0
   -0.1783    1.9763    0.5825 C   0  0  0  0  0  0  0  0  0  0  0  0
   -0.4179    1.6750    1.6089 H   0  0  0  0  0  0  0  0  0  0  0  0
    0.8665    2.3083    0.5879 H   0  0  0  0  0  0  0  0  0  0  0  0
   -1.0392    3.1447    0.1741 C   0  0  0  0  0  0  0  0  0  0  0  0
   -0.8110    3.9971   -0.9071 N   0  3  0  0  0  0  0  0  0  0  0  0
   -0.0038    3.9019   -1.5306 H   0  0  0  0  0  0  0  0  0  0  0  0
   -1.7164    4.9456   -0.9338 C   0  0  0  0  0  0  0  0  0  0  0  0
   -1.7746    5.7663   -1.6521 H   0  0  0  0  0  0  0  0  0  0  0  0
   -2.5801    4.7229    0.1378 N   0  0  0  0  0  0  0  0  0  0  0  0
   -3.3781    5.3124    0.3953 H   0  0  0  0  0  0  0  0  0  0  0  0
   -2.1490    3.6017    0.8377 C   0  0  0  0  0  0  0  0  0  0  0  0
   -2.5822    3.1709    1.7415 H   0  0  0  0  0  0  0  0  0  0  0  0
    0.8427   -0.1980   -0.0527 C   0  0  0  0  0  0  0  0  0  0  0  0
    1.9540    0.2239   -0.3433 O   0  0  0  0  0  0  0  0  0  0  0  0
    0.7239   -1.5097    0.3642 N   0  0  0  0  0  0  0  0  0  0  0  0
   -0.1488   -1.7355    0.8434 H   0  0  0  0  0  0  0  0  0  0  0  0
    1.8791   -2.3624    0.6302 C   0  0  0  0  0  0  0  0  0  0  0  0
    2.4929   -1.9405    1.4335 H   0  0  0  0  0  0  0  0  0  0  0  0
    1.5502   -3.3613    0.9337 H   0  0  0  0  0  0  0  0  0  0  0  0
    2.4980   -2.4641   -0.2680 H   0  0  0  0  0  0  0  0  0  0  0  0
  1  2  1  0  0  0  0
  2  3  1  0  0  0  0
  2  4  1  0  0  0  0
  2  5  1  0  0  0  0
  5  6  2  0  0  0  0
  5  7  1  0  0  0  0
  7  8  1  0  0  0  0
  7  9  1  0  0  0  0
  9 10  1  0  0  0  0
  9 11  1  0  0  0  0
  9 23  1  0  0  0  0
 11 12  1  0  0  0  0
 11 13  1  0  0  0  0
 11 14  1  0  0  0  0
 14 15  1  0  0  0  0
 14 21  2  0  0  0  0
 15 16  1  0  0  0  0
 15 17  2  0  0  0  0
 17 18  1  0  0  0  0
 17 19  1  0  0  0  0
 19 20  1  0  0  0  0
 19 21  1  0  0  0  0
 21 22  1  0  0  0  0
 23 24  2  0  0  0  0
 23 25  1  0  0  0  0
 25 26  1  0  0  0  0
 25 27  1  0  0  0  0
 27 28  1  0  0  0  0
 27 29  1  0  0  0  0
 27 30  1  0  0  0  0
M  CHG  1  15   1
M  END
$$$$

  -OEChem-01062216083D

 30 30  0     1  0  0  0  0  0999 V2000
   -3.7620   -2.0103    1.2479 H   0  0  0  0  0  0  0  0  0  0  0  0
   -3.5651   -1.2620    0.4742 C   0  0  0  0  0  0  0  0  0  0  0  0
   -4.3278   -0.4825    0.5386 H   0  0  0  0  0  0  0  0  0  0  0  0
   -3.6287   -1.7462   -0.5034 H   0  0  0  0  0  0  0  0  0  0  0  0
   -2.1869   -0.6609    0.6699 C   0  0  0  0  0  0  0  0  0  0  0  0
   -1.5206   -0.9755    1.6381 O   0  0  0  0  0  0  0  0  0  0  0  0
   -1.7192    0.2977   -0.2100 N   0  0  0  0  0  0  0  0  0  0  0  0
   -2.3336    0.4612   -1.0040 H   0  0  0  0  0  0  0  0  0  0  0  0
   -0.3164    0.7709   -0.3563 C   0  0  1  0  0  0  0  0  0  0  0  0
   -0.1682    1.0811   -1.3951 H   0  0  0  0  0  0  0  0  0  0  0  0
   -0.1693    1.9952    0.5796 C   0  0  0  0  0  0  0  0  0  0  0  0
   -0.4093    1.6861    1.6037 H   0  0  0  0  0  0  0  0  0  0  0  0
    0.8678    2.3493    0.5933 H   0  0  0  0  0  0  0  0  0  0  0  0
   -1.0481    3.1494    0.1693 C   0  0  0  0  0  0  0  0  0  0  0  0
   -0.8271    4.0073   -0.9089 N   0  3  0  0  0  0  0  0  0  0  0  0
   -0.0129    3.9277   -1.5254 H   0  0  0  0  0  0  0  0  0  0  0  0
   -1.7461    4.9426   -0.9379 C   0  0  0  0  0  0  0  0  0  0  0  0
   -1.8111    5.7653   -1.6533 H   0  0  0  0  0  0  0  0  0  0  0  0
   -2.6126    4.7036    0.1280 N   0  0  0  0  0  0  0  0  0  0  0  0
   -3.4207    5.2804    0.3824 H   0  0  0  0  0  0  0  0  0  0  0  0
   -2.1677    3.5884    0.8286 C   0  0  0  0  0  0  0  0  0  0  0  0
   -2.5974    3.1514    1.7311 H   0  0  0  0  0  0  0  0  0  0  0  0
    0.8732   -0.1879   -0.0596 C   0  0  0  0  0  0  0  0  0  0  0  0
    2.0000    0.2799   -0.1574 O   0  0  0  0  0  0  0  0  0  0  0  0
    0.7386   -1.5592    0.0543 N   0  0  0  0  0  0  0  0  0  0  0  0
   -0.1604   -1.8663    0.4236 H   0  0  0  0  0  0  0  0  0  0  0  0
    1.8821   -2.4425    0.2697 C   0  0  0  0  0  0  0  0  0  0  0  0
    2.3781   -2.2068    1.2174 H   0  0  0  0  0  0  0  0  0  0  0  0
    1.5544   -3.4864    0.3000 H   0  0  0  0  0  0  0  0  0  0  0  0
    2.6097   -2.3366   -0.5423 H   0  0  0  0  0  0  0  0  0  0  0  0
  1  2  1  0  0  0  0
  2  3  1  0  0  0  0
  2  4  1  0  0  0  0
  2  5  1  0  0  0  0
  5  6  2  0  0  0  0
  5  7  1  0  0  0  0
  7  8  1  0  0  0  0
  7  9  1  0  0  0  0
  9 10  1  0  0  0  0
  9 11  1  0  0  0  0
  9 23  1  0  0  0  0
 11 12  1  0  0  0  0
 11 13  1  0  0  0  0
 11 14  1  0  0  0  0
 14 15  1  0  0  0  0
 14 21  2  0  0  0  0
 15 16  1  0  0  0  0
 15 17  2  0  0  0  0
 17 18  1  0  0  0  0
 17 19  1  0  0  0  0
 19 20  1  0  0  0  0
 19 21  1  0  0  0  0
 21 22  1  0  0  0  0
 23 24  2  0  0  0  0
 23 25  1  0  0  0  0
 25 26  1  0  0  0  0
 25 27  1  0  0  0  0
 27 28  1  0  0  0  0
 27 29  1  0  0  0  0
 27 30  1  0  0  0  0
M  CHG  1  15   1
M  END
$$$$

  -OEChem-01062216083D

 30 30  0     1  0  0  0  0  0999 V2000
   -3.6691   -2.0390    1.2586 H   0  0  0  0  0  0  0  0  0  0  0  0
   -3.4976   -1.2798    0.4896 C   0  0  0  0  0  0  0  0  0  0  0  0
   -4.2591   -0.5030    0.5895 H   0  0  0  0  0  0  0  0  0  0  0  0
   -3.5920   -1.7510   -0.4918 H   0  0  0  0  0  0  0  0  0  0  0  0
   -2.1144   -0.6795    0.6508 C   0  0  0  0  0  0  0  0  0  0  0  0
   -1.4118   -1.0206    1.5827 O   0  0  0  0  0  0  0  0  0  0  0  0
   -1.6756    0.2951   -0.2277 N   0  0  0  0  0  0  0  0  0  0  0  0
   -2.3136    0.4858   -0.9964 H   0  0  0  0  0  0  0  0  0  0  0  0
   -0.2827    0.7952   -0.3728 C   0  0  1  0  0  0  0  0  0  0  0  0
   -0.1330    1.1077   -1.4104 H   0  0  0  0  0  0  0  0  0  0  0  0
   -0.1583    2.0226    0.5642 C   0  0  0  0  0  0  0  0  0  0  0  0
   -0.3879    1.7066    1.5887 H   0  0  0  0  0  0  0  0  0  0  0  0
    0.8707    2.3986    0.5749 H   0  0  0  0  0  0  0  0  0  0  0  0
   -1.0568    3.1639    0.1591 C   0  0  0  0  0  0  0  0  0  0  0  0
   -0.8534    4.0300   -0.9163 N   0  3  0  0  0  0  0  0  0  0  0  0
   -0.0411    3.9656   -1.5368 H   0  0  0  0  0  0  0  0  0  0  0  0
   -1.7814    4.9567   -0.9324 C   0  0  0  0  0  0  0  0  0  0  0  0
   -1.8592    5.7843   -1.6408 H   0  0  0  0  0  0  0  0  0  0  0  0
   -2.6374    4.7032    0.1383 N   0  0  0  0  0  0  0  0  0  0  0  0
   -3.4454    5.2743    0.4056 H   0  0  0  0  0  0  0  0  0  0  0  0
   -2.1758    3.5885    0.8290 C   0  0  0  0  0  0  0  0  0  0  0  0
   -2.5923    3.1452    1.7345 H   0  0  0  0  0  0  0  0  0  0  0  0
    0.8990   -0.1742   -0.0741 C   0  0  0  0  0  0  0  0  0  0  0  0
    2.0149    0.3022    0.0884 O   0  0  0  0  0  0  0  0  0  0  0  0
    0.7937   -1.5392   -0.2731 N   0  0  0  0  0  0  0  0  0  0  0  0
   -0.1417   -1.9201   -0.1598 H   0  0  0  0  0  0  0  0  0  0  0  0
    1.9161   -2.4467   -0.0475 C   0  0  0  0  0  0  0  0  0  0  0  0
    2.2545   -2.3882    0.9927 H   0  0  0  0  0  0  0  0  0  0  0  0
    1.6192   -3.4789   -0.2574 H   0  0  0  0  0  0  0  0  0  0  0  0
    2.7556   -2.1922   -0.7037 H   0  0  0  0  0  0  0  0  0  0  0  0
  1  2  1  0  0  0  0
  2  3  1  0  0  0  0
  2  4  1  0  0  0  0
  2  5  1  0  0  0  0
  5  6  2  0  0  0  0
  5  7  1  0  0  0  0
  7  8  1  0  0  0  0
  7  9  1  0  0  0  0
  9 10  1  0  0  0  0
  9 11  1  0  0  0  0
  9 23  1  0  0  0  0
 11 12  1  0  0  0  0
 11 13  1  0  0  0  0
 11 14  1  0  0  0  0
 14 15  1  0  0  0  0
 14 21  2  0  0  0  0
 15 16  1  0  0  0  0
 15 17  2  0  0  0  0
 17 18  1  0  0  0  0
 17 19  1  0  0  0  0
 19 20  1  0  0  0  0
 19 21  1  0  0  0  0
 21 22  1  0  0  0  0
 23 24  2  0  0  0  0
 23 25  1  0  0  0  0
 25 26  1  0  0  0  0
 25 27  1  0  0  0  0
 27 28  1  0  0  0  0
 27 29  1  0  0  0  0
 27 30  1  0  0  0  0
M  CHG  1  15   1
M  END
$$$$

  -OEChem-01062216083D

 30 30  0     1  0  0  0  0  0999 V2000
   -3.5113   -2.1089    1.2575 H   0  0  0  0  0  0  0  0  0  0  0  0
   -3.3793   -1.3405    0.4897 C   0  0  0  0  0  0  0  0  0  0  0  0
   -4.1770   -0.6015    0.5936 H   0  0  0  0  0  0  0  0  0  0  0  0
   -3.4534   -1.8132   -0.4925 H   0  0  0  0  0  0  0  0  0  0  0  0
   -2.0264   -0.6742    0.6490 C   0  0  0  0  0  0  0  0  0  0  0  0
   -1.3214   -0.9587    1.5978 O   0  0  0  0  0  0  0  0  0  0  0  0
   -1.6297    0.3085   -0.2423 N   0  0  0  0  0  0  0  0  0  0  0  0
   -2.2744    0.4675   -1.0124 H   0  0  0  0  0  0  0  0  0  0  0  0
   -0.2491    0.8361   -0.3953 C   0  0  1  0  0  0  0  0  0  0  0  0
   -0.0990    1.1472   -1.4331 H   0  0  0  0  0  0  0  0  0  0  0  0
   -0.1352    2.0671    0.5383 C   0  0  0  0  0  0  0  0  0  0  0  0
   -0.3465    1.7487    1.5661 H   0  0  0  0  0  0  0  0  0  0  0  0
    0.8887    2.4576    0.5342 H   0  0  0  0  0  0  0  0  0  0  0  0
   -1.0540    3.1963    0.1448 C   0  0  0  0  0  0  0  0  0  0  0  0
   -0.8850    4.0718   -0.9291 N   0  3  0  0  0  0  0  0  0  0  0  0
   -0.0817    4.0277   -1.5626 H   0  0  0  0  0  0  0  0  0  0  0  0
   -1.8296    4.9820   -0.9232 C   0  0  0  0  0  0  0  0  0  0  0  0
   -1.9341    5.8125   -1.6247 H   0  0  0  0  0  0  0  0  0  0  0  0
   -2.6626    4.7067    0.1603 N   0  0  0  0  0  0  0  0  0  0  0  0
   -3.4754    5.2618    0.4462 H   0  0  0  0  0  0  0  0  0  0  0  0
   -2.1689    3.5969    0.8357 C   0  0  0  0  0  0  0  0  0  0  0  0
   -2.5605    3.1398    1.7457 H   0  0  0  0  0  0  0  0  0  0  0  0
    0.9152   -0.1502   -0.0861 C   0  0  0  0  0  0  0  0  0  0  0  0
    1.9665    0.2701    0.3788 O   0  0  0  0  0  0  0  0  0  0  0  0
    0.8823   -1.4460   -0.5709 N   0  0  0  0  0  0  0  0  0  0  0  0
   -0.0291   -1.8100   -0.8291 H   0  0  0  0  0  0  0  0  0  0  0  0
    1.9510   -2.4063   -0.3068 C   0  0  0  0  0  0  0  0  0  0  0  0
    2.0667   -2.5639    0.7712 H   0  0  0  0  0  0  0  0  0  0  0  0
    1.7232   -3.3691   -0.7746 H   0  0  0  0  0  0  0  0  0  0  0  0
    2.9025   -2.0452   -0.7120 H   0  0  0  0  0  0  0  0  0  0  0  0
  1  2  1  0  0  0  0
  2  3  1  0  0  0  0
  2  4  1  0  0  0  0
  2  5  1  0  0  0  0
  5  6  2  0  0  0  0
  5  7  1  0  0  0  0
  7  8  1  0  0  0  0
  7  9  1  0  0  0  0
  9 10  1  0  0  0  0
  9 11  1  0  0  0  0
  9 23  1  0  0  0  0
 11 12  1  0  0  0  0
 11 13  1  0  0  0  0
 11 14  1  0  0  0  0
 14 15  1  0  0  0  0
 14 21  2  0  0  0  0
 15 16  1  0  0  0  0
 15 17  2  0  0  0  0
 17 18  1  0  0  0  0
 17 19  1  0  0  0  0
 19 20  1  0  0  0  0
 19 21  1  0  0  0  0
 21 22  1  0  0  0  0
 23 24  2  0  0  0  0
 23 25  1  0  0  0  0
 25 26  1  0  0  0  0
 25 27  1  0  0  0  0
 27 28  1  0  0  0  0
 27 29  1  0  0  0  0
 27 30  1  0  0  0  0
M  CHG  1  15   1
M  END
$$$$

  -OEChem-01062216083D

 30 30  0     1  0  0  0  0  0999 V2000
   -3.4445   -2.1335    1.2585 H   0  0  0  0  0  0  0  0  0  0  0  0
   -3.3266   -1.3633    0.4902 C   0  0  0  0  0  0  0  0  0  0  0  0
   -4.1416   -0.6428    0.5892 H   0  0  0  0  0  0  0  0  0  0  0  0
   -3.3856   -1.8392   -0.4915 H   0  0  0  0  0  0  0  0  0  0  0  0
   -1.9892   -0.6670    0.6544 C   0  0  0  0  0  0  0  0  0  0  0  0
   -1.2927   -0.9207    1.6179 O   0  0  0  0  0  0  0  0  0  0  0  0
   -1.6062    0.3150   -0.2445 N   0  0  0  0  0  0  0  0  0  0  0  0
   -2.2489    0.4523   -1.0203 H   0  0  0  0  0  0  0  0  0  0  0  0
   -0.2315    0.8558   -0.3972 C   0  0  1  0  0  0  0  0  0  0  0  0
   -0.0774    1.1649   -1.4348 H   0  0  0  0  0  0  0  0  0  0  0  0
   -0.1243    2.0896    0.5326 C   0  0  0  0  0  0  0  0  0  0  0  0
   -0.3300    1.7722    1.5620 H   0  0  0  0  0  0  0  0  0  0  0  0
    0.8993    2.4810    0.5228 H   0  0  0  0  0  0  0  0  0  0  0  0
   -1.0508    3.2125    0.1403 C   0  0  0  0  0  0  0  0  0  0  0  0
   -0.8962    4.0908   -0.9333 N   0  3  0  0  0  0  0  0  0  0  0  0
   -0.0939    4.0591   -1.5684 H   0  0  0  0  0  0  0  0  0  0  0  0
   -1.8522    4.9890   -0.9231 C   0  0  0  0  0  0  0  0  0  0  0  0
   -1.9692    5.8193   -1.6228 H   0  0  0  0  0  0  0  0  0  0  0  0
   -2.6783    4.7023    0.1625 N   0  0  0  0  0  0  0  0  0  0  0  0
   -3.4984    5.2455    0.4507 H   0  0  0  0  0  0  0  0  0  0  0  0
   -2.1683    3.5984    0.8350 C   0  0  0  0  0  0  0  0  0  0  0  0
   -2.5517    3.1338    1.7448 H   0  0  0  0  0  0  0  0  0  0  0  0
    0.9237   -0.1352   -0.0725 C   0  0  0  0  0  0  0  0  0  0  0  0
    1.8653    0.2074    0.6304 O   0  0  0  0  0  0  0  0  0  0  0  0
    1.0354   -1.3103   -0.7950 N   0  0  0  0  0  0  0  0  0  0  0  0
    0.2135   -1.6206   -1.3031 H   0  0  0  0  0  0  0  0  0  0  0  0
    2.1029   -2.2789   -0.5565 C   0  0  0  0  0  0  0  0  0  0  0  0
    2.0456   -2.6677    0.4661 H   0  0  0  0  0  0  0  0  0  0  0  0
    2.0179   -3.1199   -1.2517 H   0  0  0  0  0  0  0  0  0  0  0  0
    3.0850   -1.8150   -0.6994 H   0  0  0  0  0  0  0  0  0  0  0  0
  1  2  1  0  0  0  0
  2  3  1  0  0  0  0
  2  4  1  0  0  0  0
  2  5  1  0  0  0  0
  5  6  2  0  0  0  0
  5  7  1  0  0  0  0
  7  8  1  0  0  0  0
  7  9  1  0  0  0  0
  9 10  1  0  0  0  0
  9 11  1  0  0  0  0
  9 23  1  0  0  0  0
 11 12  1  0  0  0  0
 11 13  1  0  0  0  0
 11 14  1  0  0  0  0
 14 15  1  0  0  0  0
 14 21  2  0  0  0  0
 15 16  1  0  0  0  0
 15 17  2  0  0  0  0
 17 18  1  0  0  0  0
 17 19  1  0  0  0  0
 19 20  1  0  0  0  0
 19 21  1  0  0  0  0
 21 22  1  0  0  0  0
 23 24  2  0  0  0  0
 23 25  1  0  0  0  0
 25 26  1  0  0  0  0
 25 27  1  0  0  0  0
 27 28  1  0  0  0  0
 27 29  1  0  0  0  0
 27 30  1  0  0  0  0
M  CHG  1  15   1
M  END
$$$$

  -OEChem-01062216083D

 30 30  0     1  0  0  0  0  0999 V2000
   -3.4239   -2.1494    1.2582 H   0  0  0  0  0  0  0  0  0  0  0  0
   -3.3087   -1.3827    0.4859 C   0  0  0  0  0  0  0  0  0  0  0  0
   -4.1356   -0.6738    0.5698 H   0  0  0  0  0  0  0  0  0  0  0  0
   -3.3477   -1.8671   -0.4928 H   0  0  0  0  0  0  0  0  0  0  0  0
   -1.9845   -0.6642    0.6620 C   0  0  0  0  0  0  0  0  0  0  0  0
   -1.3015   -0.8961    1.6399 O   0  0  0  0  0  0  0  0  0  0  0  0
   -1.6038    0.3136   -0.2426 N   0  0  0  0  0  0  0  0  0  0  0  0
   -2.2401    0.4316   -1.0265 H   0  0  0  0  0  0  0  0  0  0  0  0
   -0.2311    0.8577   -0.3954 C   0  0  1  0  0  0  0  0  0  0  0  0
   -0.0756    1.1663   -1.4328 H   0  0  0  0  0  0  0  0  0  0  0  0
   -0.1252    2.0949    0.5303 C   0  0  0  0  0  0  0  0  0  0  0  0
   -0.3339    1.7806    1.5604 H   0  0  0  0  0  0  0  0  0  0  0  0
    0.9010    2.4798    0.5215 H   0  0  0  0  0  0  0  0  0  0  0  0
   -1.0518    3.2186    0.1380 C   0  0  0  0  0  0  0  0  0  0  0  0
   -0.9017    4.0977   -0.9358 N   0  3  0  0  0  0  0  0  0  0  0  0
   -0.1036    4.0647   -1.5759 H   0  0  0  0  0  0  0  0  0  0  0  0
   -1.8565    4.9973   -0.9203 C   0  0  0  0  0  0  0  0  0  0  0  0
   -1.9766    5.8276   -1.6195 H   0  0  0  0  0  0  0  0  0  0  0  0
   -2.6769    4.7120    0.1698 N   0  0  0  0  0  0  0  0  0  0  0  0
   -3.4936    5.2572    0.4635 H   0  0  0  0  0  0  0  0  0  0  0  0
   -2.1648    3.6069    0.8390 C   0  0  0  0  0  0  0  0  0  0  0  0
   -2.5427    3.1432    1.7516 H   0  0  0  0  0  0  0  0  0  0  0  0
    0.9236   -0.1307   -0.0604 C   0  0  0  0  0  0  0  0  0  0  0  0
    1.7358    0.1214    0.8198 O   0  0  0  0  0  0  0  0  0  0  0  0
    1.2279   -1.1393   -0.9582 N   0  0  0  0  0  0  0  0  0  0  0  0
    0.5193   -1.3841   -1.6428 H   0  0  0  0  0  0  0  0  0  0  0  0
    2.3303   -2.0748   -0.7444 C   0  0  0  0  0  0  0  0  0  0  0  0
    2.1786   -2.6410    0.1812 H   0  0  0  0  0  0  0  0  0  0  0  0
    2.3973   -2.7831   -1.5761 H   0  0  0  0  0  0  0  0  0  0  0  0
    3.2833   -1.5392   -0.6738 H   0  0  0  0  0  0  0  0  0  0  0  0
  1  2  1  0  0  0  0
  2  3  1  0  0  0  0
  2  4  1  0  0  0  0
  2  5  1  0  0  0  0
  5  6  2  0  0  0  0
  5  7  1  0  0  0  0
  7  8  1  0  0  0  0
  7  9  1  0  0  0  0
  9 10  1  0  0  0  0
  9 11  1  0  0  0  0
  9 23  1  0  0  0  0
 11 12  1  0  0  0  0
 11 13  1  0  0  0  0
 11 14  1  0  0  0  0
 14 15  1  0  0  0  0
 14 21  2  0  0  0  0
 15 16  1  0  0  0  0
 15 17  2  0  0  0  0
 17 18  1  0  0  0  0
 17 19  1  0  0  0  0
 19 20  1  0  0  0  0
 19 21  1  0  0  0  0
 21 22  1  0  0  0  0
 23 24  2  0  0  0  0
 23 25  1  0  0  0  0
 25 26  1  0  0  0  0
 25 27  1  0  0  0  0
 27 28  1  0  0  0  0
 27 29  1  0  0  0  0
 27 30  1  0  0  0  0
M  CHG  1  15   1
M  END
$$$$

  -OEChem-01062216083D

 30 30  0     1  0  0  0  0  0999 V2000
   -3.4656   -2.0870    1.3024 H   0  0  0  0  0  0  0  0  0  0  0  0
   -3.3088   -1.3797    0.4824 C   0  0  0  0  0  0  0  0  0  0  0  0
   -4.1389   -0.6698    0.4689 H   0  0  0  0  0  0  0  0  0  0  0  0
   -3.2947   -1.9350   -0.4584 H   0  0  0  0  0  0  0  0  0  0  0  0
   -1.9954   -0.6461    0.6739 C   0  0  0  0  0  0  0  0  0  0  0  0
   -1.3386   -0.8451    1.6760 O   0  0  0  0  0  0  0  0  0  0  0  0
   -1.6076    0.3193   -0.2405 N   0  0  0  0  0  0  0  0  0  0  0  0
   -2.2293    0.4051   -1.0400 H   0  0  0  0  0  0  0  0  0  0  0  0
   -0.2319    0.8534   -0.3997 C   0  0  1  0  0  0  0  0  0  0  0  0
   -0.0790    1.1643   -1.4367 H   0  0  0  0  0  0  0  0  0  0  0  0
   -0.1186    2.0869    0.5287 C   0  0  0  0  0  0  0  0  0  0  0  0
   -0.3297    1.7714    1.5581 H   0  0  0  0  0  0  0  0  0  0  0  0
    0.9113    2.4619    0.5210 H   0  0  0  0  0  0  0  0  0  0  0  0
   -1.0411    3.2161    0.1430 C   0  0  0  0  0  0  0  0  0  0  0  0
   -0.8969    4.1022   -0.9260 N   0  3  0  0  0  0  0  0  0  0  0  0
   -0.0990    4.0785   -1.5667 H   0  0  0  0  0  0  0  0  0  0  0  0
   -1.8571    4.9959   -0.9041 C   0  0  0  0  0  0  0  0  0  0  0  0
   -1.9825    5.8307   -1.5968 H   0  0  0  0  0  0  0  0  0  0  0  0
   -2.6766    4.6978    0.1834 N   0  0  0  0  0  0  0  0  0  0  0  0
   -3.4985    5.2340    0.4795 H   0  0  0  0  0  0  0  0  0  0  0  0
   -2.1578    3.5915    0.8449 C   0  0  0  0  0  0  0  0  0  0  0  0
   -2.5356    3.1155    1.7514 H   0  0  0  0  0  0  0  0  0  0  0  0
    0.9239   -0.1318   -0.0568 C   0  0  0  0  0  0  0  0  0  0  0  0
    1.5998    0.0110    0.9533 O   0  0  0  0  0  0  0  0  0  0  0  0
    1.4318   -0.9403   -1.0595 N   0  0  0  0  0  0  0  0  0  0  0  0
    0.8489   -1.0988   -1.8754 H   0  0  0  0  0  0  0  0  0  0  0  0
    2.5841   -1.8165   -0.8565 C   0  0  0  0  0  0  0  0  0  0  0  0
    2.3941   -2.5171   -0.0357 H   0  0  0  0  0  0  0  0  0  0  0  0
    2.7891   -2.3945   -1.7632 H   0  0  0  0  0  0  0  0  0  0  0  0
    3.4768   -1.2294   -0.6145 H   0  0  0  0  0  0  0  0  0  0  0  0
  1  2  1  0  0  0  0
  2  3  1  0  0  0  0
  2  4  1  0  0  0  0
  2  5  1  0  0  0  0
  5  6  2  0  0  0  0
  5  7  1  0  0  0  0
  7  8  1  0  0  0  0
  7  9  1  0  0  0  0
  9 10  1  0  0  0  0
  9 11  1  0  0  0  0
  9 23  1  0  0  0  0
 11 12  1  0  0  0  0
 11 13  1  0  0  0  0
 11 14  1  0  0  0  0
 14 15  1  0  0  0  0
 14 21  2  0  0  0  0
 15 16  1  0  0  0  0
 15 17  2  0  0  0  0
 17 18  1  0  0  0  0
 17 19  1  0  0  0  0
 19 20  1  0  0  0  0
 19 21  1  0  0  0  0
 21 22  1  0  0  0  0
 23 24  2  0  0  0  0
 23 25  1  0  0  0  0
 25 26  1  0  0  0  0
 25 27  1  0  0  0  0
 27 28  1  0  0  0  0
 27 29  1  0  0  0  0
 27 30  1  0  0  0  0
M  CHG  1  15   1
M  END
$$$$

  -OEChem-01062216083D

 30 30  0     1  0  0  0  0  0999 V2000
   -3.4413   -2.1244    1.2921 H   0  0  0  0  0  0  0  0  0  0  0  0
   -3.2910   -1.4189    0.4694 C   0  0  0  0  0  0  0  0  0  0  0  0
   -4.1514   -0.7477    0.4217 H   0  0  0  0  0  0  0  0  0  0  0  0
   -3.2218   -1.9835   -0.4634 H   0  0  0  0  0  0  0  0  0  0  0  0
   -2.0185   -0.6246    0.6942 C   0  0  0  0  0  0  0  0  0  0  0  0
   -1.4161   -0.7478    1.7411 O   0  0  0  0  0  0  0  0  0  0  0  0
   -1.6267    0.3260   -0.2341 N   0  0  0  0  0  0  0  0  0  0  0  0
   -2.2234    0.3555   -1.0565 H   0  0  0  0  0  0  0  0  0  0  0  0
   -0.2468    0.8481   -0.4026 C   0  0  1  0  0  0  0  0  0  0  0  0
   -0.1013    1.1570   -1.4411 H   0  0  0  0  0  0  0  0  0  0  0  0
   -0.1150    2.0814    0.5233 C   0  0  0  0  0  0  0  0  0  0  0  0
   -0.3255    1.7717    1.5548 H   0  0  0  0  0  0  0  0  0  0  0  0
    0.9199    2.4418    0.5116 H   0  0  0  0  0  0  0  0  0  0  0  0
   -1.0288    3.2194    0.1434 C   0  0  0  0  0  0  0  0  0  0  0  0
   -0.8882    4.1058   -0.9258 N   0  3  0  0  0  0  0  0  0  0  0  0
   -0.0965    4.0780   -1.5736 H   0  0  0  0  0  0  0  0  0  0  0  0
   -1.8444    5.0039   -0.8964 C   0  0  0  0  0  0  0  0  0  0  0  0
   -1.9723    5.8386   -1.5884 H   0  0  0  0  0  0  0  0  0  0  0  0
   -2.6566    4.7091    0.1973 N   0  0  0  0  0  0  0  0  0  0  0  0
   -3.4764    5.2460    0.4975 H   0  0  0  0  0  0  0  0  0  0  0  0
   -2.1383    3.5998    0.8535 C   0  0  0  0  0  0  0  0  0  0  0  0
   -2.5127    3.1227    1.7608 H   0  0  0  0  0  0  0  0  0  0  0  0
    0.9145   -0.1290   -0.0534 C   0  0  0  0  0  0  0  0  0  0  0  0
    1.4435   -0.1208    1.0491 O   0  0  0  0  0  0  0  0  0  0  0  0
    1.6270   -0.7128   -1.0880 N   0  0  0  0  0  0  0  0  0  0  0  0
    1.1838   -0.7574   -2.0005 H   0  0  0  0  0  0  0  0  0  0  0  0
    2.8187   -1.5298   -0.8626 C   0  0  0  0  0  0  0  0  0  0  0  0
    2.5900   -2.3664   -0.1931 H   0  0  0  0  0  0  0  0  0  0  0  0
    3.1878   -1.9367   -1.8091 H   0  0  0  0  0  0  0  0  0  0  0  0
    3.6170   -0.9304   -0.4116 H   0  0  0  0  0  0  0  0  0  0  0  0
  1  2  1  0  0  0  0
  2  3  1  0  0  0  0
  2  4  1  0  0  0  0
  2  5  1  0  0  0  0
  5  6  2  0  0  0  0
  5  7  1  0  0  0  0
  7  8  1  0  0  0  0
  7  9  1  0  0  0  0
  9 10  1  0  0  0  0
  9 11  1  0  0  0  0
  9 23  1  0  0  0  0
 11 12  1  0  0  0  0
 11 13  1  0  0  0  0
 11 14  1  0  0  0  0
 14 15  1  0  0  0  0
 14 21  2  0  0  0  0
 15 16  1  0  0  0  0
 15 17  2  0  0  0  0
 17 18  1  0  0  0  0
 17 19  1  0  0  0  0
 19 20  1  0  0  0  0
 19 21  1  0  0  0  0
 21 22  1  0  0  0  0
 23 24  2  0  0  0  0
 23 25  1  0  0  0  0
 25 26  1  0  0  0  0
 25 27  1  0  0  0  0
 27 28  1  0  0  0  0
 27 29  1  0  0  0  0
 27 30  1  0  0  0  0
M  CHG  1  15   1
M  END
$$$$

  -OEChem-01062216083D

 30 30  0     1  0  0  0  0  0999 V2000
   -3.3331   -2.1605    1.3149 H   0  0  0  0  0  0  0  0  0  0  0  0
   -3.1624   -1.5199    0.4445 C   0  0  0  0  0  0  0  0  0  0  0  0
   -4.0853   -0.9810    0.2183 H   0  0  0  0  0  0  0  0  0  0  0  0
   -2.8971   -2.1529   -0.4054 H   0  0  0  0  0  0  0  0  0  0  0  0
   -2.0411   -0.5408    0.7341 C   0  0  0  0  0  0  0  0  0  0  0  0
   -1.6281   -0.4218    1.8709 O   0  0  0  0  0  0  0  0  0  0  0  0
   -1.6593    0.3767   -0.2298 N   0  0  0  0  0  0  0  0  0  0  0  0
   -2.1959    0.2686   -1.0863 H   0  0  0  0  0  0  0  0  0  0  0  0
   -0.2722    0.8714   -0.4230 C   0  0  1  0  0  0  0  0  0  0  0  0
   -0.1356    1.1712   -1.4653 H   0  0  0  0  0  0  0  0  0  0  0  0
   -0.1003    2.0992    0.5024 C   0  0  0  0  0  0  0  0  0  0  0  0
   -0.2951    1.7970    1.5388 H   0  0  0  0  0  0  0  0  0  0  0  0
    0.9404    2.4404    0.4711 H   0  0  0  0  0  0  0  0  0  0  0  0
   -1.0009    3.2528    0.1397 C   0  0  0  0  0  0  0  0  0  0  0  0
   -0.8824    4.1481   -0.9248 N   0  3  0  0  0  0  0  0  0  0  0  0
   -0.1060    4.1262   -1.5903 H   0  0  0  0  0  0  0  0  0  0  0  0
   -1.8425    5.0414   -0.8704 C   0  0  0  0  0  0  0  0  0  0  0  0
   -1.9886    5.8806   -1.5537 H   0  0  0  0  0  0  0  0  0  0  0  0
   -2.6339    4.7340    0.2353 N   0  0  0  0  0  0  0  0  0  0  0  0
   -3.4543    5.2604    0.5521 H   0  0  0  0  0  0  0  0  0  0  0  0
   -2.1012    3.6199    0.8702 C   0  0  0  0  0  0  0  0  0  0  0  0
   -2.4632    3.1226    1.7724 H   0  0  0  0  0  0  0  0  0  0  0  0
    0.8811   -0.1091   -0.0592 C   0  0  0  0  0  0  0  0  0  0  0  0
    1.1998   -0.3337    1.0972 O   0  0  0  0  0  0  0  0  0  0  0  0
    1.7781   -0.4852   -1.0457 N   0  0  0  0  0  0  0  0  0  0  0  0
    1.5180   -0.3288   -2.0146 H   0  0  0  0  0  0  0  0  0  0  0  0
    2.9613   -1.3004   -0.7725 C   0  0  0  0  0  0  0  0  0  0  0  0
    2.6757   -2.2497   -0.3056 H   0  0  0  0  0  0  0  0  0  0  0  0
    3.4965   -1.5214   -1.7015 H   0  0  0  0  0  0  0  0  0  0  0  0
    3.6453   -0.7726   -0.0989 H   0  0  0  0  0  0  0  0  0  0  0  0
  1  2  1  0  0  0  0
  2  3  1  0  0  0  0
  2  4  1  0  0  0  0
  2  5  1  0  0  0  0
  5  6  2  0  0  0  0
  5  7  1  0  0  0  0
  7  8  1  0  0  0  0
  7  9  1  0  0  0  0
  9 10  1  0  0  0  0
  9 11  1  0  0  0  0
  9 23  1  0  0  0  0
 11 12  1  0  0  0  0
 11 13  1  0  0  0  0
 11 14  1  0  0  0  0
 14 15  1  0  0  0  0
 14 21  2  0  0  0  0
 15 16  1  0  0  0  0
 15 17  2  0  0  0  0
 17 18  1  0  0  0  0
 17 19  1  0  0  0  0
 19 20  1  0  0  0  0
 19 21  1  0  0  0  0
 21 22  1  0  0  0  0
 23 24  2  0  0  0  0
 23 25  1  0  0  0  0
 25 26  1  0  0  0  0
 25 27  1  0  0  0  0
 27 28  1  0  0  0  0
 27 29  1  0  0  0  0
 27 30  1  0  0  0  0
M  CHG  1  15   1
M  END
$$$$

  -OEChem-01062216083D

 30 30  0     1  0  0  0  0  0999 V2000
   -3.1677   -2.1928    1.3674 H   0  0  0  0  0  0  0  0  0  0  0  0
   -2.9813   -1.6151    0.4572 C   0  0  0  0  0  0  0  0  0  0  0  0
   -3.9355   -1.2518    0.0687 H   0  0  0  0  0  0  0  0  0  0  0  0
   -2.5170   -2.2727   -0.2816 H   0  0  0  0  0  0  0  0  0  0  0  0
   -2.0612   -0.4501    0.7660 C   0  0  0  0  0  0  0  0  0  0  0  0
   -1.8780   -0.1109    1.9219 O   0  0  0  0  0  0  0  0  0  0  0  0
   -1.6918    0.4383   -0.2290 N   0  0  0  0  0  0  0  0  0  0  0  0
   -2.1701    0.2156   -1.0979 H   0  0  0  0  0  0  0  0  0  0  0  0
   -0.2959    0.9078   -0.4312 C   0  0  1  0  0  0  0  0  0  0  0  0
   -0.1582    1.1974   -1.4764 H   0  0  0  0  0  0  0  0  0  0  0  0
   -0.0959    2.1283    0.4966 C   0  0  0  0  0  0  0  0  0  0  0  0
   -0.2821    1.8300    1.5354 H   0  0  0  0  0  0  0  0  0  0  0  0
    0.9481    2.4572    0.4548 H   0  0  0  0  0  0  0  0  0  0  0  0
   -0.9830    3.2934    0.1384 C   0  0  0  0  0  0  0  0  0  0  0  0
   -0.8717    4.1942   -0.9222 N   0  3  0  0  0  0  0  0  0  0  0  0
   -0.0996    4.1783   -1.5927 H   0  0  0  0  0  0  0  0  0  0  0  0
   -1.8412    5.0775   -0.8648 C   0  0  0  0  0  0  0  0  0  0  0  0
   -1.9983    5.9151   -1.5472 H   0  0  0  0  0  0  0  0  0  0  0  0
   -2.6305    4.7582    0.2390 N   0  0  0  0  0  0  0  0  0  0  0  0
   -3.4633    5.2675    0.5510 H   0  0  0  0  0  0  0  0  0  0  0  0
   -2.0894    3.6447    0.8673 C   0  0  0  0  0  0  0  0  0  0  0  0
   -2.4554    3.1288    1.7582 H   0  0  0  0  0  0  0  0  0  0  0  0
    0.8495   -0.0722   -0.0464 C   0  0  0  0  0  0  0  0  0  0  0  0
    0.9006   -0.6294    1.0366 O   0  0  0  0  0  0  0  0  0  0  0  0
    1.9199   -0.2398   -0.9093 N   0  0  0  0  0  0  0  0  0  0  0  0
    1.8653    0.1736   -1.8351 H   0  0  0  0  0  0  0  0  0  0  0  0
    3.0507   -1.1173   -0.6099 C   0  0  0  0  0  0  0  0  0  0  0  0
    2.7112   -2.1499   -0.4721 H   0  0  0  0  0  0  0  0  0  0  0  0
    3.7761   -1.0997   -1.4295 H   0  0  0  0  0  0  0  0  0  0  0  0
    3.5585   -0.7921    0.3049 H   0  0  0  0  0  0  0  0  0  0  0  0
  1  2  1  0  0  0  0
  2  3  1  0  0  0  0
  2  4  1  0  0  0  0
  2  5  1  0  0  0  0
  5  6  2  0  0  0  0
  5  7  1  0  0  0  0
  7  8  1  0  0  0  0
  7  9  1  0  0  0  0
  9 10  1  0  0  0  0
  9 11  1  0  0  0  0
  9 23  1  0  0  0  0
 11 12  1  0  0  0  0
 11 13  1  0  0  0  0
 11 14  1  0  0  0  0
 14 15  1  0  0  0  0
 14 21  2  0  0  0  0
 15 16  1  0  0  0  0
 15 17  2  0  0  0  0
 17 18  1  0  0  0  0
 17 19  1  0  0  0  0
 19 20  1  0  0  0  0
 19 21  1  0  0  0  0
 21 22  1  0  0  0  0
 23 24  2  0  0  0  0
 23 25  1  0  0  0  0
 25 26  1  0  0  0  0
 25 27  1  0  0  0  0
 27 28  1  0  0  0  0
 27 29  1  0  0  0  0
 27 30  1  0  0  0  0
M  CHG  1  15   1
M  END
$$$$

  -OEChem-01062216083D

 30 30  0     1  0  0  0  0  0999 V2000
   -3.1631   -2.1940    1.3784 H   0  0  0  0  0  0  0  0  0  0  0  0
   -2.9868   -1.6077    0.4718 C   0  0  0  0  0  0  0  0  0  0  0  0
   -3.9453   -1.2464    0.0925 H   0  0  0  0  0  0  0  0  0  0  0  0
   -2.5232   -2.2566   -0.2752 H   0  0  0  0  0  0  0  0  0  0  0  0
   -2.0712   -0.4403    0.7833 C   0  0  0  0  0  0  0  0  0  0  0  0
   -1.8962   -0.0904    1.9387 O   0  0  0  0  0  0  0  0  0  0  0  0
   -1.6826    0.4416   -0.2103 N   0  0  0  0  0  0  0  0  0  0  0  0
   -2.1367    0.2013   -1.0874 H   0  0  0  0  0  0  0  0  0  0  0  0
   -0.2813    0.9084   -0.3903 C   0  0  1  0  0  0  0  0  0  0  0  0
   -0.1303    1.1883   -1.4365 H   0  0  0  0  0  0  0  0  0  0  0  0
   -0.1045    2.1348    0.5329 C   0  0  0  0  0  0  0  0  0  0  0  0
   -0.3108    1.8424    1.5691 H   0  0  0  0  0  0  0  0  0  0  0  0
    0.9374    2.4720    0.5110 H   0  0  0  0  0  0  0  0  0  0  0  0
   -0.9897    3.2922    0.1434 C   0  0  0  0  0  0  0  0  0  0  0  0
   -0.8624    4.1854   -0.9224 N   0  3  0  0  0  0  0  0  0  0  0  0
   -0.0812    4.1652   -1.5819 H   0  0  0  0  0  0  0  0  0  0  0  0
   -1.8419    5.0588   -0.8964 C   0  0  0  0  0  0  0  0  0  0  0  0
   -1.9938    5.8857   -1.5929 H   0  0  0  0  0  0  0  0  0  0  0  0
   -2.6516    4.7436    0.1936 N   0  0  0  0  0  0  0  0  0  0  0  0
   -3.4974    5.2463    0.4804 H   0  0  0  0  0  0  0  0  0  0  0  0
   -2.1151    3.6409    0.8443 C   0  0  0  0  0  0  0  0  0  0  0  0
   -2.4979    3.1289    1.7304 H   0  0  0  0  0  0  0  0  0  0  0  0
    0.8748   -0.0552    0.0130 C   0  0  0  0  0  0  0  0  0  0  0  0
    0.7433   -0.9485    0.8323 O   0  0  0  0  0  0  0  0  0  0  0  0
    2.0841    0.0195   -0.6597 N   0  0  0  0  0  0  0  0  0  0  0  0
    2.1865    0.7017   -1.4040 H   0  0  0  0  0  0  0  0  0  0  0  0
    3.1948   -0.8964   -0.4022 C   0  0  0  0  0  0  0  0  0  0  0  0
    2.8970   -1.9307   -0.6075 H   0  0  0  0  0  0  0  0  0  0  0  0
    4.0493   -0.6515   -1.0406 H   0  0  0  0  0  0  0  0  0  0  0  0
    3.5158   -0.8268    0.6431 H   0  0  0  0  0  0  0  0  0  0  0  0
  1  2  1  0  0  0  0
  2  3  1  0  0  0  0
  2  4  1  0  0  0  0
  2  5  1  0  0  0  0
  5  6  2  0  0  0  0
  5  7  1  0  0  0  0
  7  8  1  0  0  0  0
  7  9  1  0  0  0  0
  9 10  1  0  0  0  0
  9 11  1  0  0  0  0
  9 23  1  0  0  0  0
 11 12  1  0  0  0  0
 11 13  1  0  0  0  0
 11 14  1  0  0  0  0
 14 15  1  0  0  0  0
 14 21  2  0  0  0  0
 15 16  1  0  0  0  0
 15 17  2  0  0  0  0
 17 18  1  0  0  0  0
 17 19  1  0  0  0  0
 19 20  1  0  0  0  0
 19 21  1  0  0  0  0
 21 22  1  0  0  0  0
 23 24  2  0  0  0  0
 23 25  1  0  0  0  0
 25 26  1  0  0  0  0
 25 27  1  0  0  0  0
 27 28  1  0  0  0  0
 27 29  1  0  0  0  0
 27 30  1  0  0  0  0
M  CHG  1  15   1
M  END
$$$$

  -OEChem-01062216083D

 30 30  0     1  0  0  0  0  0999 V2000
   -3.2408   -2.1557    1.3950 H   0  0  0  0  0  0  0  0  0  0  0  0
   -3.0286   -1.5803    0.4892 C   0  0  0  0  0  0  0  0  0  0  0  0
   -3.9637   -1.1653    0.1070 H   0  0  0  0  0  0  0  0  0  0  0  0
   -2.5998   -2.2540   -0.2569 H   0  0  0  0  0  0  0  0  0  0  0  0
   -2.0471   -0.4680    0.8019 C   0  0  0  0  0  0  0  0  0  0  0  0
   -1.7562   -0.2071    1.9583 O   0  0  0  0  0  0  0  0  0  0  0  0
   -1.6614    0.4341   -0.1754 N   0  0  0  0  0  0  0  0  0  0  0  0
   -2.1116    0.2133   -1.0598 H   0  0  0  0  0  0  0  0  0  0  0  0
   -0.2607    0.9122   -0.3261 C   0  0  1  0  0  0  0  0  0  0  0  0
   -0.0894    1.1843   -1.3714 H   0  0  0  0  0  0  0  0  0  0  0  0
   -0.1192    2.1533    0.5843 C   0  0  0  0  0  0  0  0  0  0  0  0
   -0.3533    1.8739    1.6180 H   0  0  0  0  0  0  0  0  0  0  0  0
    0.9177    2.5039    0.5874 H   0  0  0  0  0  0  0  0  0  0  0  0
   -1.0078    3.2934    0.1502 C   0  0  0  0  0  0  0  0  0  0  0  0
   -0.8582    4.1677   -0.9290 N   0  3  0  0  0  0  0  0  0  0  0  0
   -0.0672    4.1322   -1.5763 H   0  0  0  0  0  0  0  0  0  0  0  0
   -1.8427    5.0356   -0.9461 C   0  0  0  0  0  0  0  0  0  0  0  0
   -1.9837    5.8449   -1.6654 H   0  0  0  0  0  0  0  0  0  0  0  0
   -2.6760    4.7400    0.1311 N   0  0  0  0  0  0  0  0  0  0  0  0
   -3.5307    5.2447    0.3864 H   0  0  0  0  0  0  0  0  0  0  0  0
   -2.1508    3.6532    0.8170 C   0  0  0  0  0  0  0  0  0  0  0  0
   -2.5533    3.1620    1.7056 H   0  0  0  0  0  0  0  0  0  0  0  0
    0.8885   -0.0605    0.0812 C   0  0  0  0  0  0  0  0  0  0  0  0
    0.6694   -1.1992    0.4637 O   0  0  0  0  0  0  0  0  0  0  0  0
    2.1853    0.2151   -0.3252 N   0  0  0  0  0  0  0  0  0  0  0  0
    2.3830    1.1169   -0.7452 H   0  0  0  0  0  0  0  0  0  0  0  0
    3.2919   -0.7265   -0.1545 C   0  0  0  0  0  0  0  0  0  0  0  0
    3.1041   -1.6486   -0.7157 H   0  0  0  0  0  0  0  0  0  0  0  0
    4.2271   -0.2885   -0.5170 H   0  0  0  0  0  0  0  0  0  0  0  0
    3.4195   -0.9821    0.9035 H   0  0  0  0  0  0  0  0  0  0  0  0
  1  2  1  0  0  0  0
  2  3  1  0  0  0  0
  2  4  1  0  0  0  0
  2  5  1  0  0  0  0
  5  6  2  0  0  0  0
  5  7  1  0  0  0  0
  7  8  1  0  0  0  0
  7  9  1  0  0  0  0
  9 10  1  0  0  0  0
  9 11  1  0  0  0  0
  9 23  1  0  0  0  0
 11 12  1  0  0  0  0
 11 13  1  0  0  0  0
 11 14  1  0  0  0  0
 14 15  1  0  0  0  0
 14 21  2  0  0  0  0
 15 16  1  0  0  0  0
 15 17  2  0  0  0  0
 17 18  1  0  0  0  0
 17 19  1  0  0  0  0
 19 20  1  0  0  0  0
 19 21  1  0  0  0  0
 21 22  1  0  0  0  0
 23 24  2  0  0  0  0
 23 25  1  0  0  0  0
 25 26  1  0  0  0  0
 25 27  1  0  0  0  0
 27 28  1  0  0  0  0
 27 29  1  0  0  0  0
 27 30  1  0  0  0  0
M  CHG  1  15   1
M  END
$$$$

  -OEChem-01062216083D

 30 30  0     1  0  0  0  0  0999 V2000
   -3.1871   -2.2484    1.3005 H   0  0  0  0  0  0  0  0  0  0  0  0
   -3.0333   -1.5787    0.4497 C   0  0  0  0  0  0  0  0  0  0  0  0
   -3.9780   -1.0837    0.2145 H   0  0  0  0  0  0  0  0  0  0  0  0
   -2.7152   -2.1758   -0.4087 H   0  0  0  0  0  0  0  0  0  0  0  0
   -1.9694   -0.5513    0.7823 C   0  0  0  0  0  0  0  0  0  0  0  0
   -1.4916   -0.5074    1.9045 O   0  0  0  0  0  0  0  0  0  0  0  0
   -1.6332    0.4280   -0.1401 N   0  0  0  0  0  0  0  0  0  0  0  0
   -2.1075    0.2747   -1.0270 H   0  0  0  0  0  0  0  0  0  0  0  0
   -0.2557    0.9706   -0.2692 C   0  0  1  0  0  0  0  0  0  0  0  0
   -0.1746    1.4899   -1.2282 H   0  0  0  0  0  0  0  0  0  0  0  0
    0.0175    1.9734    0.8780 C   0  0  0  0  0  0  0  0  0  0  0  0
   -0.0956    1.4825    1.8494 H   0  0  0  0  0  0  0  0  0  0  0  0
    1.0524    2.3240    0.8340 H   0  0  0  0  0  0  0  0  0  0  0  0
   -0.8906    3.1749    0.7980 C   0  0  0  0  0  0  0  0  0  0  0  0
   -0.8324    4.2604   -0.0792 N   0  3  0  0  0  0  0  0  0  0  0  0
   -0.1173    4.3606   -0.8037 H   0  0  0  0  0  0  0  0  0  0  0  0
   -1.7961    5.1097    0.1903 C   0  0  0  0  0  0  0  0  0  0  0  0
   -1.9942    6.0519   -0.3248 H   0  0  0  0  0  0  0  0  0  0  0  0
   -2.5200    4.5900    1.2620 N   0  0  0  0  0  0  0  0  0  0  0  0
   -3.3345    5.0267    1.7047 H   0  0  0  0  0  0  0  0  0  0  0  0
   -1.9503    3.3823    1.6430 C   0  0  0  0  0  0  0  0  0  0  0  0
   -2.2690    2.7129    2.4450 H   0  0  0  0  0  0  0  0  0  0  0  0
    0.8536   -0.1214   -0.2713 C   0  0  0  0  0  0  0  0  0  0  0  0
    0.5602   -1.2922   -0.4701 O   0  0  0  0  0  0  0  0  0  0  0  0
    2.1911    0.2258   -0.3818 N   0  0  0  0  0  0  0  0  0  0  0  0
    2.4521    1.1984   -0.2618 H   0  0  0  0  0  0  0  0  0  0  0  0
    3.2583   -0.7630   -0.5271 C   0  0  0  0  0  0  0  0  0  0  0  0
    3.1250   -1.3418   -1.4478 H   0  0  0  0  0  0  0  0  0  0  0  0
    4.2340   -0.2689   -0.5706 H   0  0  0  0  0  0  0  0  0  0  0  0
    3.2596   -1.4542    0.3231 H   0  0  0  0  0  0  0  0  0  0  0  0
  1  2  1  0  0  0  0
  2  3  1  0  0  0  0
  2  4  1  0  0  0  0
  2  5  1  0  0  0  0
  5  6  2  0  0  0  0
  5  7  1  0  0  0  0
  7  8  1  0  0  0  0
  7  9  1  0  0  0  0
  9 10  1  0  0  0  0
  9 11  1  0  0  0  0
  9 23  1  0  0  0  0
 11 12  1  0  0  0  0
 11 13  1  0  0  0  0
 11 14  1  0  0  0  0
 14 15  1  0  0  0  0
 14 21  2  0  0  0  0
 15 16  1  0  0  0  0
 15 17  2  0  0  0  0
 17 18  1  0  0  0  0
 17 19  1  0  0  0  0
 19 20  1  0  0  0  0
 19 21  1  0  0  0  0
 21 22  1  0  0  0  0
 23 24  2  0  0  0  0
 23 25  1  0  0  0  0
 25 26  1  0  0  0  0
 25 27  1  0  0  0  0
 27 28  1  0  0  0  0
 27 29  1  0  0  0  0
 27 30  1  0  0  0  0
M  CHG  1  15   1
M  END
$$$$

  -OEChem-01062216083D

 30 30  0     1  0  0  0  0  0999 V2000
   -3.1357   -2.2669    1.2963 H   0  0  0  0  0  0  0  0  0  0  0  0
   -3.0102   -1.5722    0.4607 C   0  0  0  0  0  0  0  0  0  0  0  0
   -3.9591   -1.0627    0.2800 H   0  0  0  0  0  0  0  0  0  0  0  0
   -2.7326   -2.1440   -0.4286 H   0  0  0  0  0  0  0  0  0  0  0  0
   -1.9248   -0.5636    0.7816 C   0  0  0  0  0  0  0  0  0  0  0  0
   -1.3893   -0.5691    1.8785 O   0  0  0  0  0  0  0  0  0  0  0  0
   -1.6112    0.4367   -0.1259 N   0  0  0  0  0  0  0  0  0  0  0  0
   -2.0912    0.2987   -1.0124 H   0  0  0  0  0  0  0  0  0  0  0  0
   -0.2401    0.9933   -0.2467 C   0  0  1  0  0  0  0  0  0  0  0  0
   -0.1554    1.5156   -1.2038 H   0  0  0  0  0  0  0  0  0  0  0  0
    0.0126    2.0031    0.8989 C   0  0  0  0  0  0  0  0  0  0  0  0
   -0.1057    1.5143    1.8709 H   0  0  0  0  0  0  0  0  0  0  0  0
    1.0422    2.3695    0.8597 H   0  0  0  0  0  0  0  0  0  0  0  0
   -0.9102    3.1932    0.8036 C   0  0  0  0  0  0  0  0  0  0  0  0
   -0.8504    4.2713   -0.0827 N   0  3  0  0  0  0  0  0  0  0  0  0
   -0.1292    4.3685   -0.8018 H   0  0  0  0  0  0  0  0  0  0  0  0
   -1.8247    5.1146    0.1657 C   0  0  0  0  0  0  0  0  0  0  0  0
   -2.0252    6.0492   -0.3624 H   0  0  0  0  0  0  0  0  0  0  0  0
   -2.5572    4.5993    1.2334 N   0  0  0  0  0  0  0  0  0  0  0  0
   -3.3819    5.0328    1.6605 H   0  0  0  0  0  0  0  0  0  0  0  0
   -1.9824    3.3998    1.6332 C   0  0  0  0  0  0  0  0  0  0  0  0
   -2.3070    2.7361    2.4370 H   0  0  0  0  0  0  0  0  0  0  0  0
    0.8543   -0.1129   -0.2682 C   0  0  0  0  0  0  0  0  0  0  0  0
    0.5691   -1.2103   -0.7284 O   0  0  0  0  0  0  0  0  0  0  0  0
    2.1959    0.1720   -0.0669 N   0  0  0  0  0  0  0  0  0  0  0  0
    2.4422    1.0656    0.3444 H   0  0  0  0  0  0  0  0  0  0  0  0
    3.2426   -0.8424   -0.1828 C   0  0  0  0  0  0  0  0  0  0  0  0
    3.2695   -1.2548   -1.1976 H   0  0  0  0  0  0  0  0  0  0  0  0
    4.2229   -0.4073    0.0362 H   0  0  0  0  0  0  0  0  0  0  0  0
    3.0635   -1.6617    0.5224 H   0  0  0  0  0  0  0  0  0  0  0  0
  1  2  1  0  0  0  0
  2  3  1  0  0  0  0
  2  4  1  0  0  0  0
  2  5  1  0  0  0  0
  5  6  2  0  0  0  0
  5  7  1  0  0  0  0
  7  8  1  0  0  0  0
  7  9  1  0  0  0  0
  9 10  1  0  0  0  0
  9 11  1  0  0  0  0
  9 23  1  0  0  0  0
 11 12  1  0  0  0  0
 11 13  1  0  0  0  0
 11 14  1  0  0  0  0
 14 15  1  0  0  0  0
 14 21  2  0  0  0  0
 15 16  1  0  0  0  0
 15 17  2  0  0  0  0
 17 18  1  0  0  0  0
 17 19  1  0  0  0  0
 19 20  1  0  0  0  0
 19 21  1  0  0  0  0
 21 22  1  0  0  0  0
 23 24  2  0  0  0  0
 23 25  1  0  0  0  0
 25 26  1  0  0  0  0
 25 27  1  0  0  0  0
 27 28  1  0  0  0  0
 27 29  1  0  0  0  0
 27 30  1  0  0  0  0
M  CHG  1  15   1
M  END
$$$$

  -OEChem-01062216083D

 30 30  0     1  0  0  0  0  0999 V2000
   -3.1015   -2.2873    1.2893 H   0  0  0  0  0  0  0  0  0  0  0  0
   -2.9835   -1.5859    0.4582 C   0  0  0  0  0  0  0  0  0  0  0  0
   -3.9347   -1.0766    0.2885 H   0  0  0  0  0  0  0  0  0  0  0  0
   -2.7123   -2.1508   -0.4375 H   0  0  0  0  0  0  0  0  0  0  0  0
   -1.8972   -0.5777    0.7776 C   0  0  0  0  0  0  0  0  0  0  0  0
   -1.3254   -0.6118    1.8556 O   0  0  0  0  0  0  0  0  0  0  0  0
   -1.6014    0.4367   -0.1190 N   0  0  0  0  0  0  0  0  0  0  0  0
   -2.0862    0.3112   -1.0049 H   0  0  0  0  0  0  0  0  0  0  0  0
   -0.2373    1.0079   -0.2326 C   0  0  1  0  0  0  0  0  0  0  0  0
   -0.1537    1.5299   -1.1903 H   0  0  0  0  0  0  0  0  0  0  0  0
    0.0080    2.0249    0.9069 C   0  0  0  0  0  0  0  0  0  0  0  0
   -0.1098    1.5394    1.8809 H   0  0  0  0  0  0  0  0  0  0  0  0
    1.0350    2.3992    0.8614 H   0  0  0  0  0  0  0  0  0  0  0  0
   -0.9222    3.2079    0.8039 C   0  0  0  0  0  0  0  0  0  0  0  0
   -0.8617    4.2776   -0.0923 N   0  3  0  0  0  0  0  0  0  0  0  0
   -0.1397    4.3671   -0.8120 H   0  0  0  0  0  0  0  0  0  0  0  0
   -1.8348    5.1241    0.1486 C   0  0  0  0  0  0  0  0  0  0  0  0
   -2.0338    6.0541   -0.3882 H   0  0  0  0  0  0  0  0  0  0  0  0
   -2.5673    4.6195    1.2217 N   0  0  0  0  0  0  0  0  0  0  0  0
   -3.3901    5.0593    1.6461 H   0  0  0  0  0  0  0  0  0  0  0  0
   -1.9931    3.4233    1.6330 C   0  0  0  0  0  0  0  0  0  0  0  0
   -2.3164    2.7699    2.4456 H   0  0  0  0  0  0  0  0  0  0  0  0
    0.8508   -0.1020   -0.2654 C   0  0  0  0  0  0  0  0  0  0  0  0
    0.6200   -1.1037   -0.9291 O   0  0  0  0  0  0  0  0  0  0  0  0
    2.1340    0.0819    0.2249 N   0  0  0  0  0  0  0  0  0  0  0  0
    2.2870    0.8485    0.8712 H   0  0  0  0  0  0  0  0  0  0  0  0
    3.1520   -0.9651    0.1584 C   0  0  0  0  0  0  0  0  0  0  0  0
    3.3273   -1.2687   -0.8796 H   0  0  0  0  0  0  0  0  0  0  0  0
    4.0985   -0.6045    0.5731 H   0  0  0  0  0  0  0  0  0  0  0  0
    2.8357   -1.8442    0.7307 H   0  0  0  0  0  0  0  0  0  0  0  0
  1  2  1  0  0  0  0
  2  3  1  0  0  0  0
  2  4  1  0  0  0  0
  2  5  1  0  0  0  0
  5  6  2  0  0  0  0
  5  7  1  0  0  0  0
  7  8  1  0  0  0  0
  7  9  1  0  0  0  0
  9 10  1  0  0  0  0
  9 11  1  0  0  0  0
  9 23  1  0  0  0  0
 11 12  1  0  0  0  0
 11 13  1  0  0  0  0
 11 14  1  0  0  0  0
 14 15  1  0  0  0  0
 14 21  2  0  0  0  0
 15 16  1  0  0  0  0
 15 17  2  0  0  0  0
 17 18  1  0  0  0  0
 17 19  1  0  0  0  0
 19 20  1  0  0  0  0
 19 21  1  0  0  0  0
 21 22  1  0  0  0  0
 23 24  2  0  0  0  0
 23 25  1  0  0  0  0
 25 26  1  0  0  0  0
 25 27  1  0  0  0  0
 27 28  1  0  0  0  0
 27 29  1  0  0  0  0
 27 30  1  0  0  0  0
M  CHG  1  15   1
M  END
$$$$

  -OEChem-01062216083D

 30 30  0     1  0  0  0  0  0999 V2000
   -3.0854   -2.3017    1.2845 H   0  0  0  0  0  0  0  0  0  0  0  0
   -2.9872   -1.5815    0.4670 C   0  0  0  0  0  0  0  0  0  0  0  0
   -3.9381   -1.0589    0.3419 H   0  0  0  0  0  0  0  0  0  0  0  0
   -2.7524   -2.1264   -0.4511 H   0  0  0  0  0  0  0  0  0  0  0  0
   -1.8810   -0.5919    0.7752 C   0  0  0  0  0  0  0  0  0  0  0  0
   -1.2826   -0.6511    1.8378 O   0  0  0  0  0  0  0  0  0  0  0  0
   -1.5914    0.4311   -0.1128 N   0  0  0  0  0  0  0  0  0  0  0  0
   -2.0819    0.3219   -0.9981 H   0  0  0  0  0  0  0  0  0  0  0  0
   -0.2316    1.0097   -0.2171 C   0  0  1  0  0  0  0  0  0  0  0  0
   -0.1464    1.5331   -1.1740 H   0  0  0  0  0  0  0  0  0  0  0  0
    0.0083    2.0301    0.9188 C   0  0  0  0  0  0  0  0  0  0  0  0
   -0.1176    1.5473    1.8934 H   0  0  0  0  0  0  0  0  0  0  0  0
    1.0374    2.4013    0.8749 H   0  0  0  0  0  0  0  0  0  0  0  0
   -0.9247    3.2097    0.8067 C   0  0  0  0  0  0  0  0  0  0  0  0
   -0.8567    4.2720   -0.0975 N   0  3  0  0  0  0  0  0  0  0  0  0
   -0.1291    4.3549   -0.8125 H   0  0  0  0  0  0  0  0  0  0  0  0
   -1.8314    5.1207    0.1286 C   0  0  0  0  0  0  0  0  0  0  0  0
   -2.0261    6.0459   -0.4179 H   0  0  0  0  0  0  0  0  0  0  0  0
   -2.5716    4.6255    1.2008 N   0  0  0  0  0  0  0  0  0  0  0  0
   -3.3965    5.0701    1.6161 H   0  0  0  0  0  0  0  0  0  0  0  0
   -2.0012    3.4324    1.6266 C   0  0  0  0  0  0  0  0  0  0  0  0
   -2.3309    2.7869    2.4427 H   0  0  0  0  0  0  0  0  0  0  0  0
    0.8549   -0.0980   -0.2543 C   0  0  0  0  0  0  0  0  0  0  0  0
    0.7211   -0.9812   -1.0895 O   0  0  0  0  0  0  0  0  0  0  0  0
    2.0221   -0.0474    0.4902 N   0  0  0  0  0  0  0  0  0  0  0  0
    2.0269    0.5643    1.3001 H   0  0  0  0  0  0  0  0  0  0  0  0
    3.0150   -1.1188    0.4484 C   0  0  0  0  0  0  0  0  0  0  0  0
    3.3750   -1.2728   -0.5748 H   0  0  0  0  0  0  0  0  0  0  0  0
    3.8745   -0.8674    1.0778 H   0  0  0  0  0  0  0  0  0  0  0  0
    2.5818   -2.0574    0.8115 H   0  0  0  0  0  0  0  0  0  0  0  0
  1  2  1  0  0  0  0
  2  3  1  0  0  0  0
  2  4  1  0  0  0  0
  2  5  1  0  0  0  0
  5  6  2  0  0  0  0
  5  7  1  0  0  0  0
  7  8  1  0  0  0  0
  7  9  1  0  0  0  0
  9 10  1  0  0  0  0
  9 11  1  0  0  0  0
  9 23  1  0  0  0  0
 11 12  1  0  0  0  0
 11 13  1  0  0  0  0
 11 14  1  0  0  0  0
 14 15  1  0  0  0  0
 14 21  2  0  0  0  0
 15 16  1  0  0  0  0
 15 17  2  0  0  0  0
 17 18  1  0  0  0  0
 17 19  1  0  0  0  0
 19 20  1  0  0  0  0
 19 21  1  0  0  0  0
 21 22  1  0  0  0  0
 23 24  2  0  0  0  0
 23 25  1  0  0  0  0
 25 26  1  0  0  0  0
 25 27  1  0  0  0  0
 27 28  1  0  0  0  0
 27 29  1  0  0  0  0
 27 30  1  0  0  0  0
M  CHG  1  15   1
M  END
$$$$

  -OEChem-01062216083D

 30 30  0     1  0  0  0  0  0999 V2000
   -3.1132   -2.2990    1.2900 H   0  0  0  0  0  0  0  0  0  0  0  0
   -3.0115   -1.5769    0.4747 C   0  0  0  0  0  0  0  0  0  0  0  0
   -3.9542   -1.0364    0.3634 H   0  0  0  0  0  0  0  0  0  0  0  0
   -2.7990   -2.1219   -0.4485 H   0  0  0  0  0  0  0  0  0  0  0  0
   -1.8831   -0.6093    0.7737 C   0  0  0  0  0  0  0  0  0  0  0  0
   -1.2654   -0.6908    1.8241 O   0  0  0  0  0  0  0  0  0  0  0  0
   -1.5889    0.4164   -0.1093 N   0  0  0  0  0  0  0  0  0  0  0  0
   -2.0887    0.3291   -0.9920 H   0  0  0  0  0  0  0  0  0  0  0  0
   -0.2307    0.9975   -0.2057 C   0  0  1  0  0  0  0  0  0  0  0  0
   -0.1437    1.5206   -1.1631 H   0  0  0  0  0  0  0  0  0  0  0  0
    0.0069    2.0217    0.9263 C   0  0  0  0  0  0  0  0  0  0  0  0
   -0.1282    1.5432    1.9018 H   0  0  0  0  0  0  0  0  0  0  0  0
    1.0400    2.3840    0.8869 H   0  0  0  0  0  0  0  0  0  0  0  0
   -0.9232    3.2032    0.8081 C   0  0  0  0  0  0  0  0  0  0  0  0
   -0.8451    4.2599   -0.1019 N   0  3  0  0  0  0  0  0  0  0  0  0
   -0.1129    4.3345   -0.8133 H   0  0  0  0  0  0  0  0  0  0  0  0
   -1.8137    5.1173    0.1166 C   0  0  0  0  0  0  0  0  0  0  0  0
   -1.9987    6.0416   -0.4347 H   0  0  0  0  0  0  0  0  0  0  0  0
   -2.5613    4.6331    1.1886 N   0  0  0  0  0  0  0  0  0  0  0  0
   -3.3829    5.0873    1.5999 H   0  0  0  0  0  0  0  0  0  0  0  0
   -2.0006    3.4384    1.6234 C   0  0  0  0  0  0  0  0  0  0  0  0
   -2.3370    2.8021    2.4437 H   0  0  0  0  0  0  0  0  0  0  0  0
    0.8596   -0.1033   -0.2409 C   0  0  0  0  0  0  0  0  0  0  0  0
    0.8682   -0.8424   -1.2142 O   0  0  0  0  0  0  0  0  0  0  0  0
    1.8628   -0.2110    0.7076 N   0  0  0  0  0  0  0  0  0  0  0  0
    1.6792    0.2233    1.6075 H   0  0  0  0  0  0  0  0  0  0  0  0
    2.8397   -1.2968    0.6755 C   0  0  0  0  0  0  0  0  0  0  0  0
    3.3719   -1.3110   -0.2820 H   0  0  0  0  0  0  0  0  0  0  0  0
    3.5778   -1.1686    1.4734 H   0  0  0  0  0  0  0  0  0  0  0  0
    2.3425   -2.2631    0.8139 H   0  0  0  0  0  0  0  0  0  0  0  0
  1  2  1  0  0  0  0
  2  3  1  0  0  0  0
  2  4  1  0  0  0  0
  2  5  1  0  0  0  0
  5  6  2  0  0  0  0
  5  7  1  0  0  0  0
  7  8  1  0  0  0  0
  7  9  1  0  0  0  0
  9 10  1  0  0  0  0
  9 11  1  0  0  0  0
  9 23  1  0  0  0  0
 11 12  1  0  0  0  0
 11 13  1  0  0  0  0
 11 14  1  0  0  0  0
 14 15  1  0  0  0  0
 14 21  2  0  0  0  0
 15 16  1  0  0  0  0
 15 17  2  0  0  0  0
 17 18  1  0  0  0  0
 17 19  1  0  0  0  0
 19 20  1  0  0  0  0
 19 21  1  0  0  0  0
 21 22  1  0  0  0  0
 23 24  2  0  0  0  0
 23 25  1  0  0  0  0
 25 26  1  0  0  0  0
 25 27  1  0  0  0  0
 27 28  1  0  0  0  0
 27 29  1  0  0  0  0
 27 30  1  0  0  0  0
M  CHG  1  15   1
M  END
$$$$

  -OEChem-01062216083D

 30 30  0     1  0  0  0  0  0999 V2000
   -3.1736   -2.3015    1.2838 H   0  0  0  0  0  0  0  0  0  0  0  0
   -3.0796   -1.5598    0.4851 C   0  0  0  0  0  0  0  0  0  0  0  0
   -4.0092   -0.9896    0.4238 H   0  0  0  0  0  0  0  0  0  0  0  0
   -2.9172   -2.0845   -0.4600 H   0  0  0  0  0  0  0  0  0  0  0  0
   -1.9144   -0.6325    0.7702 C   0  0  0  0  0  0  0  0  0  0  0  0
   -1.2815   -0.7425    1.8091 O   0  0  0  0  0  0  0  0  0  0  0  0
   -1.6029    0.3910   -0.1089 N   0  0  0  0  0  0  0  0  0  0  0  0
   -2.1163    0.3348   -0.9864 H   0  0  0  0  0  0  0  0  0  0  0  0
   -0.2419    0.9651   -0.1972 C   0  0  1  0  0  0  0  0  0  0  0  0
   -0.1534    1.4898   -1.1541 H   0  0  0  0  0  0  0  0  0  0  0  0
    0.0011    1.9896    0.9326 C   0  0  0  0  0  0  0  0  0  0  0  0
   -0.1451    1.5148    1.9081 H   0  0  0  0  0  0  0  0  0  0  0  0
    1.0398    2.3360    0.8978 H   0  0  0  0  0  0  0  0  0  0  0  0
   -0.9174    3.1796    0.8106 C   0  0  0  0  0  0  0  0  0  0  0  0
   -0.8202    4.2304   -0.1039 N   0  3  0  0  0  0  0  0  0  0  0  0
   -0.0832    4.2905   -0.8119 H   0  0  0  0  0  0  0  0  0  0  0  0
   -1.7754    5.1042    0.1079 C   0  0  0  0  0  0  0  0  0  0  0  0
   -1.9435    6.0292   -0.4480 H   0  0  0  0  0  0  0  0  0  0  0  0
   -2.5331    4.6369    1.1804 N   0  0  0  0  0  0  0  0  0  0  0  0
   -3.3481    5.1064    1.5878 H   0  0  0  0  0  0  0  0  0  0  0  0
   -1.9923    3.4359    1.6229 C   0  0  0  0  0  0  0  0  0  0  0  0
   -2.3388    2.8111    2.4475 H   0  0  0  0  0  0  0  0  0  0  0  0
    0.8578   -0.1243   -0.2264 C   0  0  0  0  0  0  0  0  0  0  0  0
    1.0722   -0.6696   -1.2982 O   0  0  0  0  0  0  0  0  0  0  0  0
    1.6596   -0.4092    0.8650 N   0  0  0  0  0  0  0  0  0  0  0  0
    1.2521   -0.1906    1.7720 H   0  0  0  0  0  0  0  0  0  0  0  0
    2.6668   -1.4665    0.8250 C   0  0  0  0  0  0  0  0  0  0  0  0
    3.3799   -1.2895    0.0125 H   0  0  0  0  0  0  0  0  0  0  0  0
    3.2237   -1.4975    1.7668 H   0  0  0  0  0  0  0  0  0  0  0  0
    2.1942   -2.4422    0.6685 H   0  0  0  0  0  0  0  0  0  0  0  0
  1  2  1  0  0  0  0
  2  3  1  0  0  0  0
  2  4  1  0  0  0  0
  2  5  1  0  0  0  0
  5  6  2  0  0  0  0
  5  7  1  0  0  0  0
  7  8  1  0  0  0  0
  7  9  1  0  0  0  0
  9 10  1  0  0  0  0
  9 11  1  0  0  0  0
  9 23  1  0  0  0  0
 11 12  1  0  0  0  0
 11 13  1  0  0  0  0
 11 14  1  0  0  0  0
 14 15  1  0  0  0  0
 14 21  2  0  0  0  0
 15 16  1  0  0  0  0
 15 17  2  0  0  0  0
 17 18  1  0  0  0  0
 17 19  1  0  0  0  0
 19 20  1  0  0  0  0
 19 21  1  0  0  0  0
 21 22  1  0  0  0  0
 23 24  2  0  0  0  0
 23 25  1  0  0  0  0
 25 26  1  0  0  0  0
 25 27  1  0  0  0  0
 27 28  1  0  0  0  0
 27 29  1  0  0  0  0
 27 30  1  0  0  0  0
M  CHG  1  15   1
M  END
$$$$

  -OEChem-01062216083D

 30 30  0     1  0  0  0  0  0999 V2000
   -3.2797   -2.2712    1.2886 H   0  0  0  0  0  0  0  0  0  0  0  0
   -3.1601   -1.5385    0.4851 C   0  0  0  0  0  0  0  0  0  0  0  0
   -4.0701   -0.9376    0.4195 H   0  0  0  0  0  0  0  0  0  0  0  0
   -3.0156   -2.0745   -0.4563 H   0  0  0  0  0  0  0  0  0  0  0  0
   -1.9637   -0.6497    0.7648 C   0  0  0  0  0  0  0  0  0  0  0  0
   -1.3348   -0.7772    1.8041 O   0  0  0  0  0  0  0  0  0  0  0  0
   -1.6256    0.3649   -0.1144 N   0  0  0  0  0  0  0  0  0  0  0  0
   -2.1538    0.3380   -0.9846 H   0  0  0  0  0  0  0  0  0  0  0  0
   -0.2597    0.9290   -0.2057 C   0  0  1  0  0  0  0  0  0  0  0  0
   -0.1759    1.4554   -1.1622 H   0  0  0  0  0  0  0  0  0  0  0  0
   -0.0018    1.9484    0.9246 C   0  0  0  0  0  0  0  0  0  0  0  0
   -0.1463    1.4723    1.8996 H   0  0  0  0  0  0  0  0  0  0  0  0
    1.0411    2.2825    0.8860 H   0  0  0  0  0  0  0  0  0  0  0  0
   -0.9080    3.1480    0.8118 C   0  0  0  0  0  0  0  0  0  0  0  0
   -0.8007    4.1985   -0.1017 N   0  3  0  0  0  0  0  0  0  0  0  0
   -0.0634    4.2508   -0.8102 H   0  0  0  0  0  0  0  0  0  0  0  0
   -1.7408    5.0865    0.1173 C   0  0  0  0  0  0  0  0  0  0  0  0
   -1.8963    6.0159   -0.4346 H   0  0  0  0  0  0  0  0  0  0  0  0
   -2.4997    4.6283    1.1929 N   0  0  0  0  0  0  0  0  0  0  0  0
   -3.3035    5.1109    1.6069 H   0  0  0  0  0  0  0  0  0  0  0  0
   -1.9738    3.4188    1.6314 C   0  0  0  0  0  0  0  0  0  0  0  0
   -2.3230    2.7996    2.4592 H   0  0  0  0  0  0  0  0  0  0  0  0
    0.8545   -0.1446   -0.2288 C   0  0  0  0  0  0  0  0  0  0  0  0
    1.2899   -0.4792   -1.3195 O   0  0  0  0  0  0  0  0  0  0  0  0
    1.4463   -0.6202    0.9270 N   0  0  0  0  0  0  0  0  0  0  0  0
    0.8575   -0.5683    1.7597 H   0  0  0  0  0  0  0  0  0  0  0  0
    2.4785   -1.6529    0.9010 C   0  0  0  0  0  0  0  0  0  0  0  0
    3.3238   -1.3390    0.2788 H   0  0  0  0  0  0  0  0  0  0  0  0
    2.8513   -1.8421    1.9125 H   0  0  0  0  0  0  0  0  0  0  0  0
    2.0764   -2.5887    0.4982 H   0  0  0  0  0  0  0  0  0  0  0  0
  1  2  1  0  0  0  0
  2  3  1  0  0  0  0
  2  4  1  0  0  0  0
  2  5  1  0  0  0  0
  5  6  2  0  0  0  0
  5  7  1  0  0  0  0
  7  8  1  0  0  0  0
  7  9  1  0  0  0  0
  9 10  1  0  0  0  0
  9 11  1  0  0  0  0
  9 23  1  0  0  0  0
 11 12  1  0  0  0  0
 11 13  1  0  0  0  0
 11 14  1  0  0  0  0
 14 15  1  0  0  0  0
 14 21  2  0  0  0  0
 15 16  1  0  0  0  0
 15 17  2  0  0  0  0
 17 18  1  0  0  0  0
 17 19  1  0  0  0  0
 19 20  1  0  0  0  0
 19 21  1  0  0  0  0
 21 22  1  0  0  0  0
 23 24  2  0  0  0  0
 23 25  1  0  0  0  0
 25 26  1  0  0  0  0
 25 27  1  0  0  0  0
 27 28  1  0  0  0  0
 27 29  1  0  0  0  0
 27 30  1  0  0  0  0
M  CHG  1  15   1
M  END
$$$$

  -OEChem-01062216083D

 30 30  0     1  0  0  0  0  0999 V2000
   -3.4187   -2.2234    1.2796 H   0  0  0  0  0  0  0  0  0  0  0  0
   -3.2597   -1.5035    0.4713 C   0  0  0  0  0  0  0  0  0  0  0  0
   -4.1442   -0.8676    0.3881 H   0  0  0  0  0  0  0  0  0  0  0  0
   -3.1247   -2.0537   -0.4633 H   0  0  0  0  0  0  0  0  0  0  0  0
   -2.0333   -0.6593    0.7587 C   0  0  0  0  0  0  0  0  0  0  0  0
   -1.4251   -0.8015    1.8076 O   0  0  0  0  0  0  0  0  0  0  0  0
   -1.6544    0.3386   -0.1221 N   0  0  0  0  0  0  0  0  0  0  0  0
   -2.1948    0.3412   -0.9850 H   0  0  0  0  0  0  0  0  0  0  0  0
   -0.2815    0.8888   -0.2221 C   0  0  1  0  0  0  0  0  0  0  0  0
   -0.2035    1.4160   -1.1789 H   0  0  0  0  0  0  0  0  0  0  0  0
   -0.0087    1.9009    0.9096 C   0  0  0  0  0  0  0  0  0  0  0  0
   -0.1492    1.4192    1.8829 H   0  0  0  0  0  0  0  0  0  0  0  0
    1.0372    2.2254    0.8656 H   0  0  0  0  0  0  0  0  0  0  0  0
   -0.9029    3.1105    0.8091 C   0  0  0  0  0  0  0  0  0  0  0  0
   -0.7889    4.1637   -0.1003 N   0  3  0  0  0  0  0  0  0  0  0  0
   -0.0570    4.2084   -0.8152 H   0  0  0  0  0  0  0  0  0  0  0  0
   -1.7130    5.0647    0.1333 C   0  0  0  0  0  0  0  0  0  0  0  0
   -1.8597    5.9994   -0.4118 H   0  0  0  0  0  0  0  0  0  0  0  0
   -2.4673    4.6127    1.2149 N   0  0  0  0  0  0  0  0  0  0  0  0
   -3.2562    5.1075    1.6428 H   0  0  0  0  0  0  0  0  0  0  0  0
   -1.9552    3.3934    1.6419 C   0  0  0  0  0  0  0  0  0  0  0  0
   -2.3028    2.7763    2.4719 H   0  0  0  0  0  0  0  0  0  0  0  0
    0.8534   -0.1636   -0.2354 C   0  0  0  0  0  0  0  0  0  0  0  0
    1.4842   -0.2953   -1.2726 O   0  0  0  0  0  0  0  0  0  0  0  0
    1.2547   -0.8400    0.9013 N   0  0  0  0  0  0  0  0  0  0  0  0
    0.5665   -0.8743    1.6576 H   0  0  0  0  0  0  0  0  0  0  0  0
    2.3069   -1.8521    0.8867 C   0  0  0  0  0  0  0  0  0  0  0  0
    3.2380   -1.4362    0.4867 H   0  0  0  0  0  0  0  0  0  0  0  0
    2.5023   -2.2107    1.9021 H   0  0  0  0  0  0  0  0  0  0  0  0
    2.0109   -2.7056    0.2678 H   0  0  0  0  0  0  0  0  0  0  0  0
  1  2  1  0  0  0  0
  2  3  1  0  0  0  0
  2  4  1  0  0  0  0
  2  5  1  0  0  0  0
  5  6  2  0  0  0  0
  5  7  1  0  0  0  0
  7  8  1  0  0  0  0
  7  9  1  0  0  0  0
  9 10  1  0  0  0  0
  9 11  1  0  0  0  0
  9 23  1  0  0  0  0
 11 12  1  0  0  0  0
 11 13  1  0  0  0  0
 11 14  1  0  0  0  0
 14 15  1  0  0  0  0
 14 21  2  0  0  0  0
 15 16  1  0  0  0  0
 15 17  2  0  0  0  0
 17 18  1  0  0  0  0
 17 19  1  0  0  0  0
 19 20  1  0  0  0  0
 19 21  1  0  0  0  0
 21 22  1  0  0  0  0
 23 24  2  0  0  0  0
 23 25  1  0  0  0  0
 25 26  1  0  0  0  0
 25 27  1  0  0  0  0
 27 28  1  0  0  0  0
 27 29  1  0  0  0  0
 27 30  1  0  0  0  0
M  CHG  1  15   1
M  END
$$$$

  -OEChem-01062216083D

 30 30  0     1  0  0  0  0  0999 V2000
   -3.5679   -2.1550    1.2807 H   0  0  0  0  0  0  0  0  0  0  0  0
   -3.3667   -1.4586    0.4614 C   0  0  0  0  0  0  0  0  0  0  0  0
   -4.2213   -0.7865    0.3542 H   0  0  0  0  0  0  0  0  0  0  0  0
   -3.2441   -2.0322   -0.4608 H   0  0  0  0  0  0  0  0  0  0  0  0
   -2.1082   -0.6635    0.7496 C   0  0  0  0  0  0  0  0  0  0  0  0
   -1.5138   -0.8244    1.8028 O   0  0  0  0  0  0  0  0  0  0  0  0
   -1.6922    0.3177   -0.1327 N   0  0  0  0  0  0  0  0  0  0  0  0
   -2.2439    0.3473   -0.9878 H   0  0  0  0  0  0  0  0  0  0  0  0
   -0.3108    0.8486   -0.2451 C   0  0  1  0  0  0  0  0  0  0  0  0
   -0.2385    1.3776   -1.2014 H   0  0  0  0  0  0  0  0  0  0  0  0
   -0.0208    1.8508    0.8902 C   0  0  0  0  0  0  0  0  0  0  0  0
   -0.1595    1.3618    1.8603 H   0  0  0  0  0  0  0  0  0  0  0  0
    1.0284    2.1646    0.8425 H   0  0  0  0  0  0  0  0  0  0  0  0
   -0.9002    3.0719    0.8046 C   0  0  0  0  0  0  0  0  0  0  0  0
   -0.7777    4.1296   -0.0983 N   0  3  0  0  0  0  0  0  0  0  0  0
   -0.0491    4.1696   -0.8169 H   0  0  0  0  0  0  0  0  0  0  0  0
   -1.6840    5.0444    0.1519 C   0  0  0  0  0  0  0  0  0  0  0  0
   -1.8185    5.9870   -0.3828 H   0  0  0  0  0  0  0  0  0  0  0  0
   -2.4363    4.5956    1.2363 N   0  0  0  0  0  0  0  0  0  0  0  0
   -3.2110    5.1011    1.6775 H   0  0  0  0  0  0  0  0  0  0  0  0
   -1.9401    3.3649    1.6491 C   0  0  0  0  0  0  0  0  0  0  0  0
   -2.2880    2.7488    2.4797 H   0  0  0  0  0  0  0  0  0  0  0  0
    0.8404   -0.1866   -0.2565 C   0  0  0  0  0  0  0  0  0  0  0  0
    1.6316   -0.1272   -1.1848 O   0  0  0  0  0  0  0  0  0  0  0  0
    1.0795   -1.0669    0.7808 N   0  0  0  0  0  0  0  0  0  0  0  0
    0.3472   -1.1494    1.4907 H   0  0  0  0  0  0  0  0  0  0  0  0
    2.1654   -2.0421    0.7775 C   0  0  0  0  0  0  0  0  0  0  0  0
    3.1320   -1.5421    0.6521 H   0  0  0  0  0  0  0  0  0  0  0  0
    2.1846   -2.5914    1.7240 H   0  0  0  0  0  0  0  0  0  0  0  0
    2.0342   -2.7616   -0.0378 H   0  0  0  0  0  0  0  0  0  0  0  0
  1  2  1  0  0  0  0
  2  3  1  0  0  0  0
  2  4  1  0  0  0  0
  2  5  1  0  0  0  0
  5  6  2  0  0  0  0
  5  7  1  0  0  0  0
  7  8  1  0  0  0  0
  7  9  1  0  0  0  0
  9 10  1  0  0  0  0
  9 11  1  0  0  0  0
  9 23  1  0  0  0  0
 11 12  1  0  0  0  0
 11 13  1  0  0  0  0
 11 14  1  0  0  0  0
 14 15  1  0  0  0  0
 14 21  2  0  0  0  0
 15 16  1  0  0  0  0
 15 17  2  0  0  0  0
 17 18  1  0  0  0  0
 17 19  1  0  0  0  0
 19 20  1  0  0  0  0
 19 21  1  0  0  0  0
 21 22  1  0  0  0  0
 23 24  2  0  0  0  0
 23 25  1  0  0  0  0
 25 26  1  0  0  0  0
 25 27  1  0  0  0  0
 27 28  1  0  0  0  0
 27 29  1  0  0  0  0
 27 30  1  0  0  0  0
M  CHG  1  15   1
M  END
$$$$

  -OEChem-01062216083D

 30 30  0     1  0  0  0  0  0999 V2000
   -3.6671   -2.1247    1.2826 H   0  0  0  0  0  0  0  0  0  0  0  0
   -3.4697   -1.4116    0.4766 C   0  0  0  0  0  0  0  0  0  0  0  0
   -4.3033   -0.7076    0.4197 H   0  0  0  0  0  0  0  0  0  0  0  0
   -3.4004   -1.9614   -0.4655 H   0  0  0  0  0  0  0  0  0  0  0  0
   -2.1744   -0.6686    0.7419 C   0  0  0  0  0  0  0  0  0  0  0  0
   -1.5645   -0.8608    1.7803 O   0  0  0  0  0  0  0  0  0  0  0  0
   -1.7403    0.3022   -0.1429 N   0  0  0  0  0  0  0  0  0  0  0  0
   -2.3112    0.3624   -0.9836 H   0  0  0  0  0  0  0  0  0  0  0  0
   -0.3509    0.8105   -0.2759 C   0  0  1  0  0  0  0  0  0  0  0  0
   -0.2886    1.3416   -1.2316 H   0  0  0  0  0  0  0  0  0  0  0  0
   -0.0324    1.8030    0.8606 C   0  0  0  0  0  0  0  0  0  0  0  0
   -0.1642    1.3087    1.8290 H   0  0  0  0  0  0  0  0  0  0  0  0
    1.0204    2.1038    0.8011 H   0  0  0  0  0  0  0  0  0  0  0  0
   -0.8936    3.0378    0.7943 C   0  0  0  0  0  0  0  0  0  0  0  0
   -0.7640    4.0975   -0.1051 N   0  3  0  0  0  0  0  0  0  0  0  0
   -0.0414    4.1292   -0.8304 H   0  0  0  0  0  0  0  0  0  0  0  0
   -1.6501    5.0271    0.1619 C   0  0  0  0  0  0  0  0  0  0  0  0
   -1.7743    5.9750   -0.3659 H   0  0  0  0  0  0  0  0  0  0  0  0
   -2.3961    4.5861    1.2539 N   0  0  0  0  0  0  0  0  0  0  0  0
   -3.1551    5.1035    1.7085 H   0  0  0  0  0  0  0  0  0  0  0  0
   -1.9162    3.3448    1.6545 C   0  0  0  0  0  0  0  0  0  0  0  0
   -2.2625    2.7311    2.4876 H   0  0  0  0  0  0  0  0  0  0  0  0
    0.8065   -0.2183   -0.3043 C   0  0  0  0  0  0  0  0  0  0  0  0
    1.7202    0.0090   -1.0828 O   0  0  0  0  0  0  0  0  0  0  0  0
    0.9123   -1.2901    0.5600 N   0  0  0  0  0  0  0  0  0  0  0  0
    0.1686   -1.4055    1.2528 H   0  0  0  0  0  0  0  0  0  0  0  0
    2.0526   -2.2006    0.5896 C   0  0  0  0  0  0  0  0  0  0  0  0
    2.9657   -1.6647    0.8701 H   0  0  0  0  0  0  0  0  0  0  0  0
    1.8819   -2.9986    1.3192 H   0  0  0  0  0  0  0  0  0  0  0  0
    2.2035   -2.6604   -0.3932 H   0  0  0  0  0  0  0  0  0  0  0  0
  1  2  1  0  0  0  0
  2  3  1  0  0  0  0
  2  4  1  0  0  0  0
  2  5  1  0  0  0  0
  5  6  2  0  0  0  0
  5  7  1  0  0  0  0
  7  8  1  0  0  0  0
  7  9  1  0  0  0  0
  9 10  1  0  0  0  0
  9 11  1  0  0  0  0
  9 23  1  0  0  0  0
 11 12  1  0  0  0  0
 11 13  1  0  0  0  0
 11 14  1  0  0  0  0
 14 15  1  0  0  0  0
 14 21  2  0  0  0  0
 15 16  1  0  0  0  0
 15 17  2  0  0  0  0
 17 18  1  0  0  0  0
 17 19  1  0  0  0  0
 19 20  1  0  0  0  0
 19 21  1  0  0  0  0
 21 22  1  0  0  0  0
 23 24  2  0  0  0  0
 23 25  1  0  0  0  0
 25 26  1  0  0  0  0
 25 27  1  0  0  0  0
 27 28  1  0  0  0  0
 27 29  1  0  0  0  0
 27 30  1  0  0  0  0
M  CHG  1  15   1
M  END
$$$$

  -OEChem-01062216083D

 30 30  0     1  0  0  0  0  0999 V2000
   -3.7133   -2.1335    1.1460 H   0  0  0  0  0  0  0  0  0  0  0  0
   -3.5157   -1.3758    0.3819 C   0  0  0  0  0  0  0  0  0  0  0  0
   -4.3345   -0.6525    0.3856 H   0  0  0  0  0  0  0  0  0  0  0  0
   -3.4767   -1.8676   -0.5932 H   0  0  0  0  0  0  0  0  0  0  0  0
   -2.1994   -0.6784    0.6666 C   0  0  0  0  0  0  0  0  0  0  0  0
   -1.5870   -0.9304    1.6903 O   0  0  0  0  0  0  0  0  0  0  0  0
   -1.7366    0.3039   -0.1900 N   0  0  0  0  0  0  0  0  0  0  0  0
   -2.3041    0.4100   -1.0284 H   0  0  0  0  0  0  0  0  0  0  0  0
   -0.3419    0.8092   -0.2856 C   0  0  1  0  0  0  0  0  0  0  0  0
   -0.2571    1.3584   -1.2290 H   0  0  0  0  0  0  0  0  0  0  0  0
   -0.0566    1.7780    0.8809 C   0  0  0  0  0  0  0  0  0  0  0  0
   -0.2139    1.2610    1.8339 H   0  0  0  0  0  0  0  0  0  0  0  0
    0.9965    2.0829    0.8587 H   0  0  0  0  0  0  0  0  0  0  0  0
   -0.9166    3.0137    0.8189 C   0  0  0  0  0  0  0  0  0  0  0  0
   -0.7599    4.0913   -0.0543 N   0  3  0  0  0  0  0  0  0  0  0  0
   -0.0116    4.1396   -0.7522 H   0  0  0  0  0  0  0  0  0  0  0  0
   -1.6519    5.0170    0.2064 C   0  0  0  0  0  0  0  0  0  0  0  0
   -1.7568    5.9777   -0.3023 H   0  0  0  0  0  0  0  0  0  0  0  0
   -2.4316    4.5536    1.2651 N   0  0  0  0  0  0  0  0  0  0  0  0
   -3.2030    5.0630    1.7075 H   0  0  0  0  0  0  0  0  0  0  0  0
   -1.9645    3.3037    1.6543 C   0  0  0  0  0  0  0  0  0  0  0  0
   -2.3353    2.6730    2.4635 H   0  0  0  0  0  0  0  0  0  0  0  0
    0.8261   -0.2097   -0.3075 C   0  0  0  0  0  0  0  0  0  0  0  0
    1.8394    0.1412   -0.8942 O   0  0  0  0  0  0  0  0  0  0  0  0
    0.8020   -1.4430    0.3139 N   0  0  0  0  0  0  0  0  0  0  0  0
    0.0227   -1.6158    0.9524 H   0  0  0  0  0  0  0  0  0  0  0  0
    1.9505   -2.3433    0.3589 C   0  0  0  0  0  0  0  0  0  0  0  0
    2.7757   -1.8875    0.9162 H   0  0  0  0  0  0  0  0  0  0  0  0
    1.6772   -3.2823    0.8507 H   0  0  0  0  0  0  0  0  0  0  0  0
    2.2975   -2.5762   -0.6537 H   0  0  0  0  0  0  0  0  0  0  0  0
  1  2  1  0  0  0  0
  2  3  1  0  0  0  0
  2  4  1  0  0  0  0
  2  5  1  0  0  0  0
  5  6  2  0  0  0  0
  5  7  1  0  0  0  0
  7  8  1  0  0  0  0
  7  9  1  0  0  0  0
  9 10  1  0  0  0  0
  9 11  1  0  0  0  0
  9 23  1  0  0  0  0
 11 12  1  0  0  0  0
 11 13  1  0  0  0  0
 11 14  1  0  0  0  0
 14 15  1  0  0  0  0
 14 21  2  0  0  0  0
 15 16  1  0  0  0  0
 15 17  2  0  0  0  0
 17 18  1  0  0  0  0
 17 19  1  0  0  0  0
 19 20  1  0  0  0  0
 19 21  1  0  0  0  0
 21 22  1  0  0  0  0
 23 24  2  0  0  0  0
 23 25  1  0  0  0  0
 25 26  1  0  0  0  0
 25 27  1  0  0  0  0
 27 28  1  0  0  0  0
 27 29  1  0  0  0  0
 27 30  1  0  0  0  0
M  CHG  1  15   1
M  END
$$$$

  -OEChem-01062216083D

 30 30  0     1  0  0  0  0  0999 V2000
   -3.7376   -2.0598    1.2811 H   0  0  0  0  0  0  0  0  0  0  0  0
   -3.5548   -1.3151    0.5008 C   0  0  0  0  0  0  0  0  0  0  0  0
   -4.3396   -0.5565    0.5493 H   0  0  0  0  0  0  0  0  0  0  0  0
   -3.5963   -1.8123   -0.4716 H   0  0  0  0  0  0  0  0  0  0  0  0
   -2.1951   -0.6741    0.7001 C   0  0  0  0  0  0  0  0  0  0  0  0
   -1.5135   -0.9797    1.6629 O   0  0  0  0  0  0  0  0  0  0  0  0
   -1.7523    0.2972   -0.1791 N   0  0  0  0  0  0  0  0  0  0  0  0
   -2.3643    0.4359   -0.9805 H   0  0  0  0  0  0  0  0  0  0  0  0
   -0.3592    0.7950   -0.3249 C   0  0  1  0  0  0  0  0  0  0  0  0
   -0.2995    1.3367   -1.2744 H   0  0  0  0  0  0  0  0  0  0  0  0
   -0.0421    1.7704    0.8300 C   0  0  0  0  0  0  0  0  0  0  0  0
   -0.1743    1.2559    1.7882 H   0  0  0  0  0  0  0  0  0  0  0  0
    1.0095    2.0769    0.7818 H   0  0  0  0  0  0  0  0  0  0  0  0
   -0.9027    3.0063    0.7865 C   0  0  0  0  0  0  0  0  0  0  0  0
   -0.7675    4.0786   -0.0963 N   0  3  0  0  0  0  0  0  0  0  0  0
   -0.0400    4.1197   -0.8162 H   0  0  0  0  0  0  0  0  0  0  0  0
   -1.6454    5.0108    0.1875 C   0  0  0  0  0  0  0  0  0  0  0  0
   -1.7611    5.9692   -0.3230 H   0  0  0  0  0  0  0  0  0  0  0  0
   -2.3928    4.5580    1.2738 N   0  0  0  0  0  0  0  0  0  0  0  0
   -3.1430    5.0764    1.7415 H   0  0  0  0  0  0  0  0  0  0  0  0
   -1.9198    3.3079    1.6552 C   0  0  0  0  0  0  0  0  0  0  0  0
   -2.2640    2.6870    2.4836 H   0  0  0  0  0  0  0  0  0  0  0  0
    0.8057   -0.2274   -0.3741 C   0  0  0  0  0  0  0  0  0  0  0  0
    1.8667    0.1803   -0.8252 O   0  0  0  0  0  0  0  0  0  0  0  0
    0.6976   -1.5529    0.0000 N   0  0  0  0  0  0  0  0  0  0  0  0
   -0.0975   -1.7779    0.5999 H   0  0  0  0  0  0  0  0  0  0  0  0
    1.8340   -2.4697    0.0018 C   0  0  0  0  0  0  0  0  0  0  0  0
    2.5942   -2.1394    0.7178 H   0  0  0  0  0  0  0  0  0  0  0  0
    1.5084   -3.4765    0.2815 H   0  0  0  0  0  0  0  0  0  0  0  0
    2.2889   -2.5222   -0.9934 H   0  0  0  0  0  0  0  0  0  0  0  0
  1  2  1  0  0  0  0
  2  3  1  0  0  0  0
  2  4  1  0  0  0  0
  2  5  1  0  0  0  0
  5  6  2  0  0  0  0
  5  7  1  0  0  0  0
  7  8  1  0  0  0  0
  7  9  1  0  0  0  0
  9 10  1  0  0  0  0
  9 11  1  0  0  0  0
  9 23  1  0  0  0  0
 11 12  1  0  0  0  0
 11 13  1  0  0  0  0
 11 14  1  0  0  0  0
 14 15  1  0  0  0  0
 14 21  2  0  0  0  0
 15 16  1  0  0  0  0
 15 17  2  0  0  0  0
 17 18  1  0  0  0  0
 17 19  1  0  0  0  0
 19 20  1  0  0  0  0
 19 21  1  0  0  0  0
 21 22  1  0  0  0  0
 23 24  2  0  0  0  0
 23 25  1  0  0  0  0
 25 26  1  0  0  0  0
 25 27  1  0  0  0  0
 27 28  1  0  0  0  0
 27 29  1  0  0  0  0
 27 30  1  0  0  0  0
M  CHG  1  15   1
M  END
$$$$

  -OEChem-01062216083D

 30 30  0     1  0  0  0  0  0999 V2000
   -3.7115   -2.0423    1.2921 H   0  0  0  0  0  0  0  0  0  0  0  0
   -3.5450   -1.2802    0.5249 C   0  0  0  0  0  0  0  0  0  0  0  0
   -4.3066   -0.5043    0.6311 H   0  0  0  0  0  0  0  0  0  0  0  0
   -3.6443   -1.7476   -0.4580 H   0  0  0  0  0  0  0  0  0  0  0  0
   -2.1614   -0.6794    0.6786 C   0  0  0  0  0  0  0  0  0  0  0  0
   -1.4382   -1.0421    1.5886 O   0  0  0  0  0  0  0  0  0  0  0  0
   -1.7279    0.2972   -0.1992 N   0  0  0  0  0  0  0  0  0  0  0  0
   -2.3624    0.4766   -0.9743 H   0  0  0  0  0  0  0  0  0  0  0  0
   -0.3381    0.8045   -0.3441 C   0  0  1  0  0  0  0  0  0  0  0  0
   -0.2759    1.3483   -1.2918 H   0  0  0  0  0  0  0  0  0  0  0  0
   -0.0404    1.7777    0.8204 C   0  0  0  0  0  0  0  0  0  0  0  0
   -0.1724    1.2539    1.7736 H   0  0  0  0  0  0  0  0  0  0  0  0
    1.0066    2.1003    0.7842 H   0  0  0  0  0  0  0  0  0  0  0  0
   -0.9134    3.0050    0.7818 C   0  0  0  0  0  0  0  0  0  0  0  0
   -0.7821    4.0846   -0.0923 N   0  3  0  0  0  0  0  0  0  0  0  0
   -0.0485    4.1380   -0.8051 H   0  0  0  0  0  0  0  0  0  0  0  0
   -1.6657    5.0097    0.1969 C   0  0  0  0  0  0  0  0  0  0  0  0
   -1.7819    5.9736   -0.3030 H   0  0  0  0  0  0  0  0  0  0  0  0
   -2.4165    4.5422    1.2747 N   0  0  0  0  0  0  0  0  0  0  0  0
   -3.1716    5.0523    1.7438 H   0  0  0  0  0  0  0  0  0  0  0  0
   -1.9371    3.2918    1.6476 C   0  0  0  0  0  0  0  0  0  0  0  0
   -2.2803    2.6619    2.4696 H   0  0  0  0  0  0  0  0  0  0  0  0
    0.8262   -0.2201   -0.3941 C   0  0  0  0  0  0  0  0  0  0  0  0
    1.9353    0.2191   -0.6649 O   0  0  0  0  0  0  0  0  0  0  0  0
    0.6468   -1.5878   -0.3089 N   0  0  0  0  0  0  0  0  0  0  0  0
   -0.1920   -1.8795    0.1918 H   0  0  0  0  0  0  0  0  0  0  0  0
    1.7628   -2.5286   -0.3555 C   0  0  0  0  0  0  0  0  0  0  0  0
    2.4210   -2.3875    0.5085 H   0  0  0  0  0  0  0  0  0  0  0  0
    1.3916   -3.5580   -0.3453 H   0  0  0  0  0  0  0  0  0  0  0  0
    2.3500   -2.3874   -1.2694 H   0  0  0  0  0  0  0  0  0  0  0  0
  1  2  1  0  0  0  0
  2  3  1  0  0  0  0
  2  4  1  0  0  0  0
  2  5  1  0  0  0  0
  5  6  2  0  0  0  0
  5  7  1  0  0  0  0
  7  8  1  0  0  0  0
  7  9  1  0  0  0  0
  9 10  1  0  0  0  0
  9 11  1  0  0  0  0
  9 23  1  0  0  0  0
 11 12  1  0  0  0  0
 11 13  1  0  0  0  0
 11 14  1  0  0  0  0
 14 15  1  0  0  0  0
 14 21  2  0  0  0  0
 15 16  1  0  0  0  0
 15 17  2  0  0  0  0
 17 18  1  0  0  0  0
 17 19  1  0  0  0  0
 19 20  1  0  0  0  0
 19 21  1  0  0  0  0
 21 22  1  0  0  0  0
 23 24  2  0  0  0  0
 23 25  1  0  0  0  0
 25 26  1  0  0  0  0
 25 27  1  0  0  0  0
 27 28  1  0  0  0  0
 27 29  1  0  0  0  0
 27 30  1  0  0  0  0
M  CHG  1  15   1
M  END
$$$$

  -OEChem-01062216083D

 30 30  0     1  0  0  0  0  0999 V2000
   -3.6516   -2.0456    1.2978 H   0  0  0  0  0  0  0  0  0  0  0  0
   -3.5008   -1.2788    0.5319 C   0  0  0  0  0  0  0  0  0  0  0  0
   -4.2557   -0.5002    0.6634 H   0  0  0  0  0  0  0  0  0  0  0  0
   -3.6278   -1.7385   -0.4513 H   0  0  0  0  0  0  0  0  0  0  0  0
   -2.1107   -0.6858    0.6553 C   0  0  0  0  0  0  0  0  0  0  0  0
   -1.3619   -1.0685    1.5347 O   0  0  0  0  0  0  0  0  0  0  0  0
   -1.6955    0.3017   -0.2195 N   0  0  0  0  0  0  0  0  0  0  0  0
   -2.3460    0.5052   -0.9752 H   0  0  0  0  0  0  0  0  0  0  0  0
   -0.3114    0.8242   -0.3582 C   0  0  1  0  0  0  0  0  0  0  0  0
   -0.2445    1.3713   -1.3034 H   0  0  0  0  0  0  0  0  0  0  0  0
   -0.0351    1.7969    0.8149 C   0  0  0  0  0  0  0  0  0  0  0  0
   -0.1647    1.2648    1.7637 H   0  0  0  0  0  0  0  0  0  0  0  0
    1.0062    2.1374    0.7896 H   0  0  0  0  0  0  0  0  0  0  0  0
   -0.9227    3.0142    0.7802 C   0  0  0  0  0  0  0  0  0  0  0  0
   -0.8007    4.1024   -0.0849 N   0  3  0  0  0  0  0  0  0  0  0  0
   -0.0626    4.1720   -0.7917 H   0  0  0  0  0  0  0  0  0  0  0  0
   -1.6927    5.0171    0.2115 C   0  0  0  0  0  0  0  0  0  0  0  0
   -1.8154    5.9852   -0.2787 H   0  0  0  0  0  0  0  0  0  0  0  0
   -2.4411    4.5331    1.2835 N   0  0  0  0  0  0  0  0  0  0  0  0
   -3.1993    5.0336    1.7579 H   0  0  0  0  0  0  0  0  0  0  0  0
   -1.9499    3.2848    1.6473 C   0  0  0  0  0  0  0  0  0  0  0  0
   -2.2857    2.6471    2.4662 H   0  0  0  0  0  0  0  0  0  0  0  0
    0.8463   -0.2098   -0.4089 C   0  0  0  0  0  0  0  0  0  0  0  0
    1.9903    0.2214   -0.4569 O   0  0  0  0  0  0  0  0  0  0  0  0
    0.6323   -1.5577   -0.6316 N   0  0  0  0  0  0  0  0  0  0  0  0
   -0.2784   -1.9057   -0.3441 H   0  0  0  0  0  0  0  0  0  0  0  0
    1.7284   -2.5206   -0.7043 C   0  0  0  0  0  0  0  0  0  0  0  0
    2.2852   -2.5418    0.2387 H   0  0  0  0  0  0  0  0  0  0  0  0
    1.3400   -3.5249   -0.8997 H   0  0  0  0  0  0  0  0  0  0  0  0
    2.4195   -2.2585   -1.5130 H   0  0  0  0  0  0  0  0  0  0  0  0
  1  2  1  0  0  0  0
  2  3  1  0  0  0  0
  2  4  1  0  0  0  0
  2  5  1  0  0  0  0
  5  6  2  0  0  0  0
  5  7  1  0  0  0  0
  7  8  1  0  0  0  0
  7  9  1  0  0  0  0
  9 10  1  0  0  0  0
  9 11  1  0  0  0  0
  9 23  1  0  0  0  0
 11 12  1  0  0  0  0
 11 13  1  0  0  0  0
 11 14  1  0  0  0  0
 14 15  1  0  0  0  0
 14 21  2  0  0  0  0
 15 16  1  0  0  0  0
 15 17  2  0  0  0  0
 17 18  1  0  0  0  0
 17 19  1  0  0  0  0
 19 20  1  0  0  0  0
 19 21  1  0  0  0  0
 21 22  1  0  0  0  0
 23 24  2  0  0  0  0
 23 25  1  0  0  0  0
 25 26  1  0  0  0  0
 25 27  1  0  0  0  0
 27 28  1  0  0  0  0
 27 29  1  0  0  0  0
 27 30  1  0  0  0  0
M  CHG  1  15   1
M  END
$$$$

  -OEChem-01062216083D

 30 30  0     1  0  0  0  0  0999 V2000
   -3.5282   -2.1025    1.2773 H   0  0  0  0  0  0  0  0  0  0  0  0
   -3.4039   -1.3300    0.5125 C   0  0  0  0  0  0  0  0  0  0  0  0
   -4.1901   -0.5823    0.6392 H   0  0  0  0  0  0  0  0  0  0  0  0
   -3.5065   -1.7941   -0.4714 H   0  0  0  0  0  0  0  0  0  0  0  0
   -2.0392   -0.6818    0.6450 C   0  0  0  0  0  0  0  0  0  0  0  0
   -1.2922   -1.0178    1.5443 O   0  0  0  0  0  0  0  0  0  0  0  0
   -1.6563    0.3166   -0.2342 N   0  0  0  0  0  0  0  0  0  0  0  0
   -2.3130    0.5045   -0.9883 H   0  0  0  0  0  0  0  0  0  0  0  0
   -0.2815    0.8617   -0.3722 C   0  0  1  0  0  0  0  0  0  0  0  0
   -0.2138    1.4087   -1.3170 H   0  0  0  0  0  0  0  0  0  0  0  0
   -0.0179    1.8379    0.8031 C   0  0  0  0  0  0  0  0  0  0  0  0
   -0.1318    1.3015    1.7517 H   0  0  0  0  0  0  0  0  0  0  0  0
    1.0166    2.1975    0.7730 H   0  0  0  0  0  0  0  0  0  0  0  0
   -0.9224    3.0432    0.7772 C   0  0  0  0  0  0  0  0  0  0  0  0
   -0.8254    4.1401   -0.0801 N   0  3  0  0  0  0  0  0  0  0  0  0
   -0.0921    4.2298   -0.7893 H   0  0  0  0  0  0  0  0  0  0  0  0
   -1.7298    5.0377    0.2312 C   0  0  0  0  0  0  0  0  0  0  0  0
   -1.8720    6.0080   -0.2490 H   0  0  0  0  0  0  0  0  0  0  0  0
   -2.4625    4.5323    1.3041 N   0  0  0  0  0  0  0  0  0  0  0  0
   -3.2241    5.0167    1.7898 H   0  0  0  0  0  0  0  0  0  0  0  0
   -1.9481    3.2893    1.6533 C   0  0  0  0  0  0  0  0  0  0  0  0
   -2.2669    2.6386    2.4689 H   0  0  0  0  0  0  0  0  0  0  0  0
    0.8601   -0.1915   -0.4219 C   0  0  0  0  0  0  0  0  0  0  0  0
    2.0083    0.1625   -0.1917 O   0  0  0  0  0  0  0  0  0  0  0  0
    0.6496   -1.4563   -0.9417 N   0  0  0  0  0  0  0  0  0  0  0  0
   -0.3143   -1.7662   -1.0066 H   0  0  0  0  0  0  0  0  0  0  0  0
    1.7027   -2.4668   -1.0028 C   0  0  0  0  0  0  0  0  0  0  0  0
    2.0995   -2.6685   -0.0017 H   0  0  0  0  0  0  0  0  0  0  0  0
    1.3102   -3.4021   -1.4141 H   0  0  0  0  0  0  0  0  0  0  0  0
    2.5244   -2.1286   -1.6434 H   0  0  0  0  0  0  0  0  0  0  0  0
  1  2  1  0  0  0  0
  2  3  1  0  0  0  0
  2  4  1  0  0  0  0
  2  5  1  0  0  0  0
  5  6  2  0  0  0  0
  5  7  1  0  0  0  0
  7  8  1  0  0  0  0
  7  9  1  0  0  0  0
  9 10  1  0  0  0  0
  9 11  1  0  0  0  0
  9 23  1  0  0  0  0
 11 12  1  0  0  0  0
 11 13  1  0  0  0  0
 11 14  1  0  0  0  0
 14 15  1  0  0  0  0
 14 21  2  0  0  0  0
 15 16  1  0  0  0  0
 15 17  2  0  0  0  0
 17 18  1  0  0  0  0
 17 19  1  0  0  0  0
 19 20  1  0  0  0  0
 19 21  1  0  0  0  0
 21 22  1  0  0  0  0
 23 24  2  0  0  0  0
 23 25  1  0  0  0  0
 25 26  1  0  0  0  0
 25 27  1  0  0  0  0
 27 28  1  0  0  0  0
 27 29  1  0  0  0  0
 27 30  1  0  0  0  0
M  CHG  1  15   1
M  END
$$$$

  -OEChem-01062216083D

 30 30  0     1  0  0  0  0  0999 V2000
   -3.4539   -2.1244    1.2721 H   0  0  0  0  0  0  0  0  0  0  0  0
   -3.3328   -1.3636    0.4950 C   0  0  0  0  0  0  0  0  0  0  0  0
   -4.1410   -0.6348    0.5895 H   0  0  0  0  0  0  0  0  0  0  0  0
   -3.4000   -1.8495   -0.4814 H   0  0  0  0  0  0  0  0  0  0  0  0
   -1.9886   -0.6779    0.6447 C   0  0  0  0  0  0  0  0  0  0  0  0
   -1.2522   -0.9817    1.5639 O   0  0  0  0  0  0  0  0  0  0  0  0
   -1.6218    0.3273   -0.2344 N   0  0  0  0  0  0  0  0  0  0  0  0
   -2.2752    0.4958   -0.9956 H   0  0  0  0  0  0  0  0  0  0  0  0
   -0.2540    0.8888   -0.3652 C   0  0  1  0  0  0  0  0  0  0  0  0
   -0.1805    1.4348   -1.3099 H   0  0  0  0  0  0  0  0  0  0  0  0
   -0.0014    1.8694    0.8088 C   0  0  0  0  0  0  0  0  0  0  0  0
   -0.1093    1.3348    1.7590 H   0  0  0  0  0  0  0  0  0  0  0  0
    1.0303    2.2371    0.7758 H   0  0  0  0  0  0  0  0  0  0  0  0
   -0.9183    3.0654    0.7791 C   0  0  0  0  0  0  0  0  0  0  0  0
   -0.8382    4.1650   -0.0767 N   0  3  0  0  0  0  0  0  0  0  0  0
   -0.1053    4.2686   -0.7840 H   0  0  0  0  0  0  0  0  0  0  0  0
   -1.7593    5.0462    0.2332 C   0  0  0  0  0  0  0  0  0  0  0  0
   -1.9177    6.0144   -0.2463 H   0  0  0  0  0  0  0  0  0  0  0  0
   -2.4853    4.5270    1.3040 N   0  0  0  0  0  0  0  0  0  0  0  0
   -3.2563    4.9971    1.7886 H   0  0  0  0  0  0  0  0  0  0  0  0
   -1.9501    3.2930    1.6528 C   0  0  0  0  0  0  0  0  0  0  0  0
   -2.2595    2.6345    2.4661 H   0  0  0  0  0  0  0  0  0  0  0  0
    0.8724   -0.1803   -0.4072 C   0  0  0  0  0  0  0  0  0  0  0  0
    1.9714    0.0614    0.0727 O   0  0  0  0  0  0  0  0  0  0  0  0
    0.7281   -1.3078   -1.1962 N   0  0  0  0  0  0  0  0  0  0  0  0
   -0.2068   -1.5278   -1.5232 H   0  0  0  0  0  0  0  0  0  0  0  0
    1.7573   -2.3397   -1.2945 C   0  0  0  0  0  0  0  0  0  0  0  0
    1.9757   -2.7592   -0.3063 H   0  0  0  0  0  0  0  0  0  0  0  0
    1.4231   -3.1515   -1.9482 H   0  0  0  0  0  0  0  0  0  0  0  0
    2.6813   -1.9230   -1.7097 H   0  0  0  0  0  0  0  0  0  0  0  0
  1  2  1  0  0  0  0
  2  3  1  0  0  0  0
  2  4  1  0  0  0  0
  2  5  1  0  0  0  0
  5  6  2  0  0  0  0
  5  7  1  0  0  0  0
  7  8  1  0  0  0  0
  7  9  1  0  0  0  0
  9 10  1  0  0  0  0
  9 11  1  0  0  0  0
  9 23  1  0  0  0  0
 11 12  1  0  0  0  0
 11 13  1  0  0  0  0
 11 14  1  0  0  0  0
 14 15  1  0  0  0  0
 14 21  2  0  0  0  0
 15 16  1  0  0  0  0
 15 17  2  0  0  0  0
 17 18  1  0  0  0  0
 17 19  1  0  0  0  0
 19 20  1  0  0  0  0
 19 21  1  0  0  0  0
 21 22  1  0  0  0  0
 23 24  2  0  0  0  0
 23 25  1  0  0  0  0
 25 26  1  0  0  0  0
 25 27  1  0  0  0  0
 27 28  1  0  0  0  0
 27 29  1  0  0  0  0
 27 30  1  0  0  0  0
M  CHG  1  15   1
M  END
$$$$

  -OEChem-01062216083D

 30 30  0     1  0  0  0  0  0999 V2000
   -3.3984   -2.1671    1.2477 H   0  0  0  0  0  0  0  0  0  0  0  0
   -3.2953   -1.3908    0.4833 C   0  0  0  0  0  0  0  0  0  0  0  0
   -4.1222   -0.6846    0.5875 H   0  0  0  0  0  0  0  0  0  0  0  0
   -3.3478   -1.8630   -0.5006 H   0  0  0  0  0  0  0  0  0  0  0  0
   -1.9694   -0.6732    0.6478 C   0  0  0  0  0  0  0  0  0  0  0  0
   -1.2491   -0.9447    1.5893 O   0  0  0  0  0  0  0  0  0  0  0  0
   -1.6106    0.3306   -0.2368 N   0  0  0  0  0  0  0  0  0  0  0  0
   -2.2581    0.4743   -1.0078 H   0  0  0  0  0  0  0  0  0  0  0  0
   -0.2475    0.9017   -0.3686 C   0  0  1  0  0  0  0  0  0  0  0  0
   -0.1749    1.4457   -1.3145 H   0  0  0  0  0  0  0  0  0  0  0  0
    0.0037    1.8879    0.8005 C   0  0  0  0  0  0  0  0  0  0  0  0
   -0.0973    1.3559    1.7533 H   0  0  0  0  0  0  0  0  0  0  0  0
    1.0352    2.2558    0.7596 H   0  0  0  0  0  0  0  0  0  0  0  0
   -0.9167    3.0810    0.7742 C   0  0  0  0  0  0  0  0  0  0  0  0
   -0.8499    4.1828   -0.0802 N   0  3  0  0  0  0  0  0  0  0  0  0
   -0.1228    4.2936   -0.7921 H   0  0  0  0  0  0  0  0  0  0  0  0
   -1.7731    5.0584    0.2397 C   0  0  0  0  0  0  0  0  0  0  0  0
   -1.9411    6.0273   -0.2352 H   0  0  0  0  0  0  0  0  0  0  0  0
   -2.4875    4.5328    1.3151 N   0  0  0  0  0  0  0  0  0  0  0  0
   -3.2571    4.9972    1.8072 H   0  0  0  0  0  0  0  0  0  0  0  0
   -1.9426    3.3012    1.6566 C   0  0  0  0  0  0  0  0  0  0  0  0
   -2.2418    2.6388    2.4706 H   0  0  0  0  0  0  0  0  0  0  0  0
    0.8751   -0.1722   -0.4018 C   0  0  0  0  0  0  0  0  0  0  0  0
    1.8789   -0.0548    0.2876 O   0  0  0  0  0  0  0  0  0  0  0  0
    0.8707   -1.1293   -1.4014 N   0  0  0  0  0  0  0  0  0  0  0  0
    0.0126   -1.2499   -1.9298 H   0  0  0  0  0  0  0  0  0  0  0  0
    1.9076   -2.1523   -1.5195 C   0  0  0  0  0  0  0  0  0  0  0  0
    1.9150   -2.7942   -0.6315 H   0  0  0  0  0  0  0  0  0  0  0  0
    1.7274   -2.7788   -2.3988 H   0  0  0  0  0  0  0  0  0  0  0  0
    2.8959   -1.6913   -1.6252 H   0  0  0  0  0  0  0  0  0  0  0  0
  1  2  1  0  0  0  0
  2  3  1  0  0  0  0
  2  4  1  0  0  0  0
  2  5  1  0  0  0  0
  5  6  2  0  0  0  0
  5  7  1  0  0  0  0
  7  8  1  0  0  0  0
  7  9  1  0  0  0  0
  9 10  1  0  0  0  0
  9 11  1  0  0  0  0
  9 23  1  0  0  0  0
 11 12  1  0  0  0  0
 11 13  1  0  0  0  0
 11 14  1  0  0  0  0
 14 15  1  0  0  0  0
 14 21  2  0  0  0  0
 15 16  1  0  0  0  0
 15 17  2  0  0  0  0
 17 18  1  0  0  0  0
 17 19  1  0  0  0  0
 19 20  1  0  0  0  0
 19 21  1  0  0  0  0
 21 22  1  0  0  0  0
 23 24  2  0  0  0  0
 23 25  1  0  0  0  0
 25 26  1  0  0  0  0
 25 27  1  0  0  0  0
 27 28  1  0  0  0  0
 27 29  1  0  0  0  0
 27 30  1  0  0  0  0
M  CHG  1  15   1
M  END
$$$$

  -OEChem-01062216083D

 30 30  0     1  0  0  0  0  0999 V2000
   -3.4212   -2.1282    1.2785 H   0  0  0  0  0  0  0  0  0  0  0  0
   -3.2817   -1.4039    0.4704 C   0  0  0  0  0  0  0  0  0  0  0  0
   -4.1186   -0.7020    0.4805 H   0  0  0  0  0  0  0  0  0  0  0  0
   -3.2741   -1.9410   -0.4810 H   0  0  0  0  0  0  0  0  0  0  0  0
   -1.9729   -0.6612    0.6587 C   0  0  0  0  0  0  0  0  0  0  0  0
   -1.2786   -0.9010    1.6275 O   0  0  0  0  0  0  0  0  0  0  0  0
   -1.6129    0.3383   -0.2303 N   0  0  0  0  0  0  0  0  0  0  0  0
   -2.2442    0.4468   -1.0200 H   0  0  0  0  0  0  0  0  0  0  0  0
   -0.2492    0.9060   -0.3664 C   0  0  1  0  0  0  0  0  0  0  0  0
   -0.1780    1.4532   -1.3103 H   0  0  0  0  0  0  0  0  0  0  0  0
    0.0088    1.8903    0.8028 C   0  0  0  0  0  0  0  0  0  0  0  0
   -0.0933    1.3595    1.7561 H   0  0  0  0  0  0  0  0  0  0  0  0
    1.0434    2.2491    0.7598 H   0  0  0  0  0  0  0  0  0  0  0  0
   -0.9087    3.0857    0.7809 C   0  0  0  0  0  0  0  0  0  0  0  0
   -0.8454    4.1898   -0.0707 N   0  3  0  0  0  0  0  0  0  0  0  0
   -0.1186    4.3049   -0.7821 H   0  0  0  0  0  0  0  0  0  0  0  0
   -1.7725    5.0606    0.2510 C   0  0  0  0  0  0  0  0  0  0  0  0
   -1.9443    6.0298   -0.2215 H   0  0  0  0  0  0  0  0  0  0  0  0
   -2.4864    4.5291    1.3240 N   0  0  0  0  0  0  0  0  0  0  0  0
   -3.2612    4.9870    1.8142 H   0  0  0  0  0  0  0  0  0  0  0  0
   -1.9372    3.2985    1.6620 C   0  0  0  0  0  0  0  0  0  0  0  0
   -2.2368    2.6296    2.4706 H   0  0  0  0  0  0  0  0  0  0  0  0
    0.8707   -0.1708   -0.3969 C   0  0  0  0  0  0  0  0  0  0  0  0
    1.7540   -0.1901    0.4490 O   0  0  0  0  0  0  0  0  0  0  0  0
    1.0482   -0.9271   -1.5427 N   0  0  0  0  0  0  0  0  0  0  0  0
    0.2961   -0.9359   -2.2244 H   0  0  0  0  0  0  0  0  0  0  0  0
    2.1234   -1.9068   -1.6843 C   0  0  0  0  0  0  0  0  0  0  0  0
    2.0656   -2.6590   -0.8896 H   0  0  0  0  0  0  0  0  0  0  0  0
    2.0494   -2.4185   -2.6490 H   0  0  0  0  0  0  0  0  0  0  0  0
    3.1013   -1.4161   -1.6300 H   0  0  0  0  0  0  0  0  0  0  0  0
  1  2  1  0  0  0  0
  2  3  1  0  0  0  0
  2  4  1  0  0  0  0
  2  5  1  0  0  0  0
  5  6  2  0  0  0  0
  5  7  1  0  0  0  0
  7  8  1  0  0  0  0
  7  9  1  0  0  0  0
  9 10  1  0  0  0  0
  9 11  1  0  0  0  0
  9 23  1  0  0  0  0
 11 12  1  0  0  0  0
 11 13  1  0  0  0  0
 11 14  1  0  0  0  0
 14 15  1  0  0  0  0
 14 21  2  0  0  0  0
 15 16  1  0  0  0  0
 15 17  2  0  0  0  0
 17 18  1  0  0  0  0
 17 19  1  0  0  0  0
 19 20  1  0  0  0  0
 19 21  1  0  0  0  0
 21 22  1  0  0  0  0
 23 24  2  0  0  0  0
 23 25  1  0  0  0  0
 25 26  1  0  0  0  0
 25 27  1  0  0  0  0
 27 28  1  0  0  0  0
 27 29  1  0  0  0  0
 27 30  1  0  0  0  0
M  CHG  1  15   1
M  END
$$$$

  -OEChem-01062216083D

 30 30  0     1  0  0  0  0  0999 V2000
   -3.4004   -2.1489    1.2704 H   0  0  0  0  0  0  0  0  0  0  0  0
   -3.2598   -1.4341    0.4539 C   0  0  0  0  0  0  0  0  0  0  0  0
   -4.1223   -0.7646    0.4216 H   0  0  0  0  0  0  0  0  0  0  0  0
   -3.1988   -1.9881   -0.4858 H   0  0  0  0  0  0  0  0  0  0  0  0
   -1.9865   -0.6397    0.6733 C   0  0  0  0  0  0  0  0  0  0  0  0
   -1.3403   -0.8136    1.6879 O   0  0  0  0  0  0  0  0  0  0  0  0
   -1.6261    0.3480   -0.2292 N   0  0  0  0  0  0  0  0  0  0  0  0
   -2.2351    0.4026   -1.0415 H   0  0  0  0  0  0  0  0  0  0  0  0
   -0.2615    0.9118   -0.3785 C   0  0  1  0  0  0  0  0  0  0  0  0
   -0.1974    1.4581   -1.3235 H   0  0  0  0  0  0  0  0  0  0  0  0
    0.0140    1.8958    0.7864 C   0  0  0  0  0  0  0  0  0  0  0  0
   -0.0803    1.3696    1.7430 H   0  0  0  0  0  0  0  0  0  0  0  0
    1.0514    2.2443    0.7307 H   0  0  0  0  0  0  0  0  0  0  0  0
   -0.8969    3.0959    0.7769 C   0  0  0  0  0  0  0  0  0  0  0  0
   -0.8467    4.2042   -0.0698 N   0  3  0  0  0  0  0  0  0  0  0  0
   -0.1290    4.3254   -0.7891 H   0  0  0  0  0  0  0  0  0  0  0  0
   -1.7717    5.0713    0.2681 C   0  0  0  0  0  0  0  0  0  0  0  0
   -1.9510    6.0429   -0.1967 H   0  0  0  0  0  0  0  0  0  0  0  0
   -2.4713    4.5325    1.3469 N   0  0  0  0  0  0  0  0  0  0  0  0
   -3.2416    4.9853    1.8489 H   0  0  0  0  0  0  0  0  0  0  0  0
   -1.9155    3.3013    1.6709 C   0  0  0  0  0  0  0  0  0  0  0  0
   -2.2050    2.6246    2.4771 H   0  0  0  0  0  0  0  0  0  0  0  0
    0.8611   -0.1628   -0.4022 C   0  0  0  0  0  0  0  0  0  0  0  0
    1.5933   -0.3396    0.5608 O   0  0  0  0  0  0  0  0  0  0  0  0
    1.2462   -0.7100   -1.6144 N   0  0  0  0  0  0  0  0  0  0  0  0
    0.6262   -0.5909   -2.4096 H   0  0  0  0  0  0  0  0  0  0  0  0
    2.3580   -1.6507   -1.7390 C   0  0  0  0  0  0  0  0  0  0  0  0
    2.1855   -2.5340   -1.1141 H   0  0  0  0  0  0  0  0  0  0  0  0
    2.4671   -1.9789   -2.7774 H   0  0  0  0  0  0  0  0  0  0  0  0
    3.2968   -1.1801   -1.4272 H   0  0  0  0  0  0  0  0  0  0  0  0
  1  2  1  0  0  0  0
  2  3  1  0  0  0  0
  2  4  1  0  0  0  0
  2  5  1  0  0  0  0
  5  6  2  0  0  0  0
  5  7  1  0  0  0  0
  7  8  1  0  0  0  0
  7  9  1  0  0  0  0
  9 10  1  0  0  0  0
  9 11  1  0  0  0  0
  9 23  1  0  0  0  0
 11 12  1  0  0  0  0
 11 13  1  0  0  0  0
 11 14  1  0  0  0  0
 14 15  1  0  0  0  0
 14 21  2  0  0  0  0
 15 16  1  0  0  0  0
 15 17  2  0  0  0  0
 17 18  1  0  0  0  0
 17 19  1  0  0  0  0
 19 20  1  0  0  0  0
 19 21  1  0  0  0  0
 21 22  1  0  0  0  0
 23 24  2  0  0  0  0
 23 25  1  0  0  0  0
 25 26  1  0  0  0  0
 25 27  1  0  0  0  0
 27 28  1  0  0  0  0
 27 29  1  0  0  0  0
 27 30  1  0  0  0  0
M  CHG  1  15   1
M  END
$$$$

  -OEChem-01062216083D

 30 30  0     1  0  0  0  0  0999 V2000
   -3.3449   -2.1828    1.2594 H   0  0  0  0  0  0  0  0  0  0  0  0
   -3.1853   -1.5023    0.4176 C   0  0  0  0  0  0  0  0  0  0  0  0
   -4.0900   -0.9079    0.2705 H   0  0  0  0  0  0  0  0  0  0  0  0
   -2.9954   -2.0974   -0.4790 H   0  0  0  0  0  0  0  0  0  0  0  0
   -2.0025   -0.5962    0.7004 C   0  0  0  0  0  0  0  0  0  0  0  0
   -1.4710   -0.6321    1.7934 O   0  0  0  0  0  0  0  0  0  0  0  0
   -1.6468    0.3760   -0.2207 N   0  0  0  0  0  0  0  0  0  0  0  0
   -2.2117    0.3381   -1.0654 H   0  0  0  0  0  0  0  0  0  0  0  0
   -0.2803    0.9323   -0.3871 C   0  0  1  0  0  0  0  0  0  0  0  0
   -0.2261    1.4760   -1.3339 H   0  0  0  0  0  0  0  0  0  0  0  0
    0.0260    1.9140    0.7715 C   0  0  0  0  0  0  0  0  0  0  0  0
   -0.0517    1.3954    1.7332 H   0  0  0  0  0  0  0  0  0  0  0  0
    1.0653    2.2516    0.6936 H   0  0  0  0  0  0  0  0  0  0  0  0
   -0.8760    3.1208    0.7753 C   0  0  0  0  0  0  0  0  0  0  0  0
   -0.8448    4.2334   -0.0668 N   0  3  0  0  0  0  0  0  0  0  0  0
   -0.1418    4.3612   -0.7988 H   0  0  0  0  0  0  0  0  0  0  0  0
   -1.7713    5.0923    0.2887 C   0  0  0  0  0  0  0  0  0  0  0  0
   -1.9658    6.0642   -0.1694 H   0  0  0  0  0  0  0  0  0  0  0  0
   -2.4524    4.5434    1.3741 N   0  0  0  0  0  0  0  0  0  0  0  0
   -3.2231    4.9848    1.8854 H   0  0  0  0  0  0  0  0  0  0  0  0
   -1.8857    3.3136    1.6819 C   0  0  0  0  0  0  0  0  0  0  0  0
   -2.1648    2.6243    2.4817 H   0  0  0  0  0  0  0  0  0  0  0  0
    0.8418   -0.1425   -0.4033 C   0  0  0  0  0  0  0  0  0  0  0  0
    1.3705   -0.5319    0.6262 O   0  0  0  0  0  0  0  0  0  0  0  0
    1.4406   -0.4813   -1.6051 N   0  0  0  0  0  0  0  0  0  0  0  0
    0.9896   -0.1866   -2.4658 H   0  0  0  0  0  0  0  0  0  0  0  0
    2.5615   -1.4158   -1.6963 C   0  0  0  0  0  0  0  0  0  0  0  0
    2.2834   -2.3918   -1.2834 H   0  0  0  0  0  0  0  0  0  0  0  0
    2.8589   -1.5552   -2.7404 H   0  0  0  0  0  0  0  0  0  0  0  0
    3.4261   -1.0359   -1.1410 H   0  0  0  0  0  0  0  0  0  0  0  0
  1  2  1  0  0  0  0
  2  3  1  0  0  0  0
  2  4  1  0  0  0  0
  2  5  1  0  0  0  0
  5  6  2  0  0  0  0
  5  7  1  0  0  0  0
  7  8  1  0  0  0  0
  7  9  1  0  0  0  0
  9 10  1  0  0  0  0
  9 11  1  0  0  0  0
  9 23  1  0  0  0  0
 11 12  1  0  0  0  0
 11 13  1  0  0  0  0
 11 14  1  0  0  0  0
 14 15  1  0  0  0  0
 14 21  2  0  0  0  0
 15 16  1  0  0  0  0
 15 17  2  0  0  0  0
 17 18  1  0  0  0  0
 17 19  1  0  0  0  0
 19 20  1  0  0  0  0
 19 21  1  0  0  0  0
 21 22  1  0  0  0  0
 23 24  2  0  0  0  0
 23 25  1  0  0  0  0
 25 26  1  0  0  0  0
 25 27  1  0  0  0  0
 27 28  1  0  0  0  0
 27 29  1  0  0  0  0
 27 30  1  0  0  0  0
M  CHG  1  15   1
M  END
$$$$

  -OEChem-01062216083D

 30 30  0     1  0  0  0  0  0999 V2000
   -3.1726   -2.2489    1.2499 H   0  0  0  0  0  0  0  0  0  0  0  0
   -3.0141   -1.6014    0.3825 C   0  0  0  0  0  0  0  0  0  0  0  0
   -3.9713   -1.1649    0.0885 H   0  0  0  0  0  0  0  0  0  0  0  0
   -2.6277   -2.2104   -0.4383 H   0  0  0  0  0  0  0  0  0  0  0  0
   -2.0227   -0.5076    0.7278 C   0  0  0  0  0  0  0  0  0  0  0  0
   -1.7113   -0.3226    1.8912 O   0  0  0  0  0  0  0  0  0  0  0  0
   -1.6789    0.4408   -0.2222 N   0  0  0  0  0  0  0  0  0  0  0  0
   -2.1778    0.2818   -1.0939 H   0  0  0  0  0  0  0  0  0  0  0  0
   -0.3059    0.9799   -0.4021 C   0  0  1  0  0  0  0  0  0  0  0  0
   -0.2529    1.5181   -1.3521 H   0  0  0  0  0  0  0  0  0  0  0  0
    0.0386    1.9457    0.7568 C   0  0  0  0  0  0  0  0  0  0  0  0
   -0.0191    1.4250    1.7186 H   0  0  0  0  0  0  0  0  0  0  0  0
    1.0789    2.2736    0.6571 H   0  0  0  0  0  0  0  0  0  0  0  0
   -0.8489    3.1625    0.7793 C   0  0  0  0  0  0  0  0  0  0  0  0
   -0.8341    4.2858   -0.0489 N   0  3  0  0  0  0  0  0  0  0  0  0
   -0.1432    4.4275   -0.7892 H   0  0  0  0  0  0  0  0  0  0  0  0
   -1.7712    5.1276    0.3201 C   0  0  0  0  0  0  0  0  0  0  0  0
   -1.9839    6.1000   -0.1283 H   0  0  0  0  0  0  0  0  0  0  0  0
   -2.4408    4.5573    1.4018 N   0  0  0  0  0  0  0  0  0  0  0  0
   -3.2229    4.9760    1.9146 H   0  0  0  0  0  0  0  0  0  0  0  0
   -1.8594    3.3300    1.6895 C   0  0  0  0  0  0  0  0  0  0  0  0
   -2.1358    2.6170    2.4702 H   0  0  0  0  0  0  0  0  0  0  0  0
    0.8048   -0.1050   -0.3984 C   0  0  0  0  0  0  0  0  0  0  0  0
    1.0468   -0.7712    0.5947 O   0  0  0  0  0  0  0  0  0  0  0  0
    1.6183   -0.2634   -1.5073 N   0  0  0  0  0  0  0  0  0  0  0  0
    1.3952    0.2561   -2.3508 H   0  0  0  0  0  0  0  0  0  0  0  0
    2.6985   -1.2470   -1.5636 C   0  0  0  0  0  0  0  0  0  0  0  0
    2.3044   -2.2594   -1.4221 H   0  0  0  0  0  0  0  0  0  0  0  0
    3.2028   -1.2063   -2.5341 H   0  0  0  0  0  0  0  0  0  0  0  0
    3.4407   -1.0489   -0.7823 H   0  0  0  0  0  0  0  0  0  0  0  0
  1  2  1  0  0  0  0
  2  3  1  0  0  0  0
  2  4  1  0  0  0  0
  2  5  1  0  0  0  0
  5  6  2  0  0  0  0
  5  7  1  0  0  0  0
  7  8  1  0  0  0  0
  7  9  1  0  0  0  0
  9 10  1  0  0  0  0
  9 11  1  0  0  0  0
  9 23  1  0  0  0  0
 11 12  1  0  0  0  0
 11 13  1  0  0  0  0
 11 14  1  0  0  0  0
 14 15  1  0  0  0  0
 14 21  2  0  0  0  0
 15 16  1  0  0  0  0
 15 17  2  0  0  0  0
 17 18  1  0  0  0  0
 17 19  1  0  0  0  0
 19 20  1  0  0  0  0
 19 21  1  0  0  0  0
 21 22  1  0  0  0  0
 23 24  2  0  0  0  0
 23 25  1  0  0  0  0
 25 26  1  0  0  0  0
 25 27  1  0  0  0  0
 27 28  1  0  0  0  0
 27 29  1  0  0  0  0
 27 30  1  0  0  0  0
M  CHG  1  15   1
M  END
$$$$

  -OEChem-01062216083D

 30 30  0     1  0  0  0  0  0999 V2000
   -3.1470   -2.2414    1.2758 H   0  0  0  0  0  0  0  0  0  0  0  0
   -2.9708   -1.6192    0.3936 C   0  0  0  0  0  0  0  0  0  0  0  0
   -3.9285   -1.2336    0.0369 H   0  0  0  0  0  0  0  0  0  0  0  0
   -2.5194   -2.2403   -0.3837 H   0  0  0  0  0  0  0  0  0  0  0  0
   -2.0407   -0.4745    0.7445 C   0  0  0  0  0  0  0  0  0  0  0  0
   -1.8060   -0.2217    1.9146 O   0  0  0  0  0  0  0  0  0  0  0  0
   -1.6859    0.4564   -0.2189 N   0  0  0  0  0  0  0  0  0  0  0  0
   -2.1560    0.2536   -1.0975 H   0  0  0  0  0  0  0  0  0  0  0  0
   -0.3069    0.9845   -0.3979 C   0  0  1  0  0  0  0  0  0  0  0  0
   -0.2498    1.5159   -1.3514 H   0  0  0  0  0  0  0  0  0  0  0  0
    0.0364    1.9475    0.7623 C   0  0  0  0  0  0  0  0  0  0  0  0
   -0.0250    1.4244    1.7224 H   0  0  0  0  0  0  0  0  0  0  0  0
    1.0773    2.2754    0.6681 H   0  0  0  0  0  0  0  0  0  0  0  0
   -0.8460    3.1684    0.7799 C   0  0  0  0  0  0  0  0  0  0  0  0
   -0.8282    4.2950   -0.0444 N   0  3  0  0  0  0  0  0  0  0  0  0
   -0.1349    4.4404   -0.7817 H   0  0  0  0  0  0  0  0  0  0  0  0
   -1.7720    5.1318    0.3198 C   0  0  0  0  0  0  0  0  0  0  0  0
   -1.9863    6.1043   -0.1277 H   0  0  0  0  0  0  0  0  0  0  0  0
   -2.4486    4.5549    1.3935 N   0  0  0  0  0  0  0  0  0  0  0  0
   -3.2396    4.9665    1.8984 H   0  0  0  0  0  0  0  0  0  0  0  0
   -1.8663    3.3282    1.6805 C   0  0  0  0  0  0  0  0  0  0  0  0
   -2.1516    2.6078    2.4515 H   0  0  0  0  0  0  0  0  0  0  0  0
    0.8131   -0.0920   -0.3735 C   0  0  0  0  0  0  0  0  0  0  0  0
    0.8437   -0.9729    0.4701 O   0  0  0  0  0  0  0  0  0  0  0  0
    1.8217   -0.0595   -1.3220 N   0  0  0  0  0  0  0  0  0  0  0  0
    1.7684    0.6306   -2.0649 H   0  0  0  0  0  0  0  0  0  0  0  0
    2.8940   -1.0522   -1.3743 C   0  0  0  0  0  0  0  0  0  0  0  0
    2.4811   -2.0579   -1.5110 H   0  0  0  0  0  0  0  0  0  0  0  0
    3.5703   -0.8420   -2.2090 H   0  0  0  0  0  0  0  0  0  0  0  0
    3.4776   -1.0372   -0.4472 H   0  0  0  0  0  0  0  0  0  0  0  0
  1  2  1  0  0  0  0
  2  3  1  0  0  0  0
  2  4  1  0  0  0  0
  2  5  1  0  0  0  0
  5  6  2  0  0  0  0
  5  7  1  0  0  0  0
  7  8  1  0  0  0  0
  7  9  1  0  0  0  0
  9 10  1  0  0  0  0
  9 11  1  0  0  0  0
  9 23  1  0  0  0  0
 11 12  1  0  0  0  0
 11 13  1  0  0  0  0
 11 14  1  0  0  0  0
 14 15  1  0  0  0  0
 14 21  2  0  0  0  0
 15 16  1  0  0  0  0
 15 17  2  0  0  0  0
 17 18  1  0  0  0  0
 17 19  1  0  0  0  0
 19 20  1  0  0  0  0
 19 21  1  0  0  0  0
 21 22  1  0  0  0  0
 23 24  2  0  0  0  0
 23 25  1  0  0  0  0
 25 26  1  0  0  0  0
 25 27  1  0  0  0  0
 27 28  1  0  0  0  0
 27 29  1  0  0  0  0
 27 30  1  0  0  0  0
M  CHG  1  15   1
M  END
$$$$

  -OEChem-01062216083D

 30 30  0     1  0  0  0  0  0999 V2000
   -3.2114   -2.2085    1.3042 H   0  0  0  0  0  0  0  0  0  0  0  0
   -3.0003   -1.6056    0.4163 C   0  0  0  0  0  0  0  0  0  0  0  0
   -3.9388   -1.1955    0.0365 H   0  0  0  0  0  0  0  0  0  0  0  0
   -2.5547   -2.2524   -0.3437 H   0  0  0  0  0  0  0  0  0  0  0  0
   -2.0393   -0.4864    0.7659 C   0  0  0  0  0  0  0  0  0  0  0  0
   -1.7597   -0.2665    1.9334 O   0  0  0  0  0  0  0  0  0  0  0  0
   -1.6725    0.4445   -0.1936 N   0  0  0  0  0  0  0  0  0  0  0  0
   -2.1340    0.2422   -1.0769 H   0  0  0  0  0  0  0  0  0  0  0  0
   -0.2898    0.9700   -0.3582 C   0  0  1  0  0  0  0  0  0  0  0  0
   -0.2248    1.4915   -1.3171 H   0  0  0  0  0  0  0  0  0  0  0  0
    0.0347    1.9455    0.7967 C   0  0  0  0  0  0  0  0  0  0  0  0
   -0.0415    1.4335    1.7612 H   0  0  0  0  0  0  0  0  0  0  0  0
    1.0758    2.2755    0.7157 H   0  0  0  0  0  0  0  0  0  0  0  0
   -0.8513    3.1652    0.7829 C   0  0  0  0  0  0  0  0  0  0  0  0
   -0.8223    4.2814   -0.0557 N   0  3  0  0  0  0  0  0  0  0  0  0
   -0.1242    4.4147   -0.7907 H   0  0  0  0  0  0  0  0  0  0  0  0
   -1.7746    5.1205    0.2802 C   0  0  0  0  0  0  0  0  0  0  0  0
   -1.9866    6.0840   -0.1874 H   0  0  0  0  0  0  0  0  0  0  0  0
   -2.4653    4.5587    1.3527 N   0  0  0  0  0  0  0  0  0  0  0  0
   -3.2665    4.9750    1.8373 H   0  0  0  0  0  0  0  0  0  0  0  0
   -1.8853    3.3373    1.6661 C   0  0  0  0  0  0  0  0  0  0  0  0
   -2.1821    2.6288    2.4436 H   0  0  0  0  0  0  0  0  0  0  0  0
    0.8404   -0.0986   -0.3251 C   0  0  0  0  0  0  0  0  0  0  0  0
    0.6958   -1.1839    0.2142 O   0  0  0  0  0  0  0  0  0  0  0  0
    2.0053    0.1143   -1.0440 N   0  0  0  0  0  0  0  0  0  0  0  0
    2.1024    0.9768   -1.5699 H   0  0  0  0  0  0  0  0  0  0  0  0
    3.0731   -0.8801   -1.1399 C   0  0  0  0  0  0  0  0  0  0  0  0
    2.7037   -1.7986   -1.6094 H   0  0  0  0  0  0  0  0  0  0  0  0
    3.9017   -0.4952   -1.7426 H   0  0  0  0  0  0  0  0  0  0  0  0
    3.4581   -1.1276   -0.1444 H   0  0  0  0  0  0  0  0  0  0  0  0
  1  2  1  0  0  0  0
  2  3  1  0  0  0  0
  2  4  1  0  0  0  0
  2  5  1  0  0  0  0
  5  6  2  0  0  0  0
  5  7  1  0  0  0  0
  7  8  1  0  0  0  0
  7  9  1  0  0  0  0
  9 10  1  0  0  0  0
  9 11  1  0  0  0  0
  9 23  1  0  0  0  0
 11 12  1  0  0  0  0
 11 13  1  0  0  0  0
 11 14  1  0  0  0  0
 14 15  1  0  0  0  0
 14 21  2  0  0  0  0
 15 16  1  0  0  0  0
 15 17  2  0  0  0  0
 17 18  1  0  0  0  0
 17 19  1  0  0  0  0
 19 20  1  0  0  0  0
 19 21  1  0  0  0  0
 21 22  1  0  0  0  0
 23 24  2  0  0  0  0
 23 25  1  0  0  0  0
 25 26  1  0  0  0  0
 25 27  1  0  0  0  0
 27 28  1  0  0  0  0
 27 29  1  0  0  0  0
 27 30  1  0  0  0  0
M  CHG  1  15   1
M  END
$$$$

  -OEChem-01062216083D

 30 30  0     1  0  0  0  0  0999 V2000
   -3.2338   -2.2182    1.3099 H   0  0  0  0  0  0  0  0  0  0  0  0
   -3.0431   -1.5838    0.4395 C   0  0  0  0  0  0  0  0  0  0  0  0
   -3.9791   -1.1096    0.1367 H   0  0  0  0  0  0  0  0  0  0  0  0
   -2.6770   -2.2139   -0.3752 H   0  0  0  0  0  0  0  0  0  0  0  0
   -2.0062   -0.5313    0.7806 C   0  0  0  0  0  0  0  0  0  0  0  0
   -1.6089   -0.4159    1.9287 O   0  0  0  0  0  0  0  0  0  0  0  0
   -1.6476    0.4241   -0.1583 N   0  0  0  0  0  0  0  0  0  0  0  0
   -2.1158    0.2521   -1.0447 H   0  0  0  0  0  0  0  0  0  0  0  0
   -0.2665    0.9579   -0.2998 C   0  0  1  0  0  0  0  0  0  0  0  0
   -0.1924    1.4750   -1.2603 H   0  0  0  0  0  0  0  0  0  0  0  0
    0.0262    1.9531    0.8482 C   0  0  0  0  0  0  0  0  0  0  0  0
   -0.0737    1.4571    1.8187 H   0  0  0  0  0  0  0  0  0  0  0  0
    1.0653    2.2922    0.7897 H   0  0  0  0  0  0  0  0  0  0  0  0
   -0.8711    3.1642    0.7905 C   0  0  0  0  0  0  0  0  0  0  0  0
   -0.8240    4.2614   -0.0728 N   0  3  0  0  0  0  0  0  0  0  0  0
   -0.1161    4.3735   -0.8022 H   0  0  0  0  0  0  0  0  0  0  0  0
   -1.7827    5.1082    0.2222 C   0  0  0  0  0  0  0  0  0  0  0  0
   -1.9863    6.0588   -0.2752 H   0  0  0  0  0  0  0  0  0  0  0  0
   -2.4934    4.5739    1.2955 N   0  0  0  0  0  0  0  0  0  0  0  0
   -3.3012    5.0050    1.7561 H   0  0  0  0  0  0  0  0  0  0  0  0
   -1.9206    3.3601    1.6507 C   0  0  0  0  0  0  0  0  0  0  0  0
   -2.2312    2.6765    2.4443 H   0  0  0  0  0  0  0  0  0  0  0  0
    0.8604   -0.1163   -0.2808 C   0  0  0  0  0  0  0  0  0  0  0  0
    0.6060   -1.3045   -0.1515 O   0  0  0  0  0  0  0  0  0  0  0  0
    2.1372    0.2150   -0.7072 N   0  0  0  0  0  0  0  0  0  0  0  0
    2.3469    1.1867   -0.9091 H   0  0  0  0  0  0  0  0  0  0  0  0
    3.2065   -0.7709   -0.8618 C   0  0  0  0  0  0  0  0  0  0  0  0
    2.9373   -1.5163   -1.6183 H   0  0  0  0  0  0  0  0  0  0  0  0
    4.1348   -0.2831   -1.1754 H   0  0  0  0  0  0  0  0  0  0  0  0
    3.3932   -1.2874    0.0863 H   0  0  0  0  0  0  0  0  0  0  0  0
  1  2  1  0  0  0  0
  2  3  1  0  0  0  0
  2  4  1  0  0  0  0
  2  5  1  0  0  0  0
  5  6  2  0  0  0  0
  5  7  1  0  0  0  0
  7  8  1  0  0  0  0
  7  9  1  0  0  0  0
  9 10  1  0  0  0  0
  9 11  1  0  0  0  0
  9 23  1  0  0  0  0
 11 12  1  0  0  0  0
 11 13  1  0  0  0  0
 11 14  1  0  0  0  0
 14 15  1  0  0  0  0
 14 21  2  0  0  0  0
 15 16  1  0  0  0  0
 15 17  2  0  0  0  0
 17 18  1  0  0  0  0
 17 19  1  0  0  0  0
 19 20  1  0  0  0  0
 19 21  1  0  0  0  0
 21 22  1  0  0  0  0
 23 24  2  0  0  0  0
 23 25  1  0  0  0  0
 25 26  1  0  0  0  0
 25 27  1  0  0  0  0
 27 28  1  0  0  0  0
 27 29  1  0  0  0  0
 27 30  1  0  0  0  0
M  CHG  1  15   1
M  END
$$$$

  -OEChem-01062216083D

 30 30  0     1  0  0  0  0  0999 V2000
   -3.1683   -2.3154    1.1586 H   0  0  0  0  0  0  0  0  0  0  0  0
   -3.0127   -1.5974    0.3483 C   0  0  0  0  0  0  0  0  0  0  0  0
   -3.9645   -1.1135    0.1179 H   0  0  0  0  0  0  0  0  0  0  0  0
   -2.6614   -2.1397   -0.5336 H   0  0  0  0  0  0  0  0  0  0  0  0
   -1.9816   -0.5639    0.7576 C   0  0  0  0  0  0  0  0  0  0  0  0
   -1.5514   -0.5610    1.8996 O   0  0  0  0  0  0  0  0  0  0  0  0
   -1.6267    0.4392   -0.1315 N   0  0  0  0  0  0  0  0  0  0  0  0
   -2.0795    0.2958   -1.0322 H   0  0  0  0  0  0  0  0  0  0  0  0
   -0.2599    1.0151   -0.2405 C   0  0  1  0  0  0  0  0  0  0  0  0
   -0.2590    1.7478   -1.0525 H   0  0  0  0  0  0  0  0  0  0  0  0
    0.1948    1.7161    1.0639 C   0  0  0  0  0  0  0  0  0  0  0  0
    0.2188    1.0164    1.9034 H   0  0  0  0  0  0  0  0  0  0  0  0
    1.2215    2.0760    0.9515 H   0  0  0  0  0  0  0  0  0  0  0  0
   -0.6761    2.9036    1.3843 C   0  0  0  0  0  0  0  0  0  0  0  0
   -0.7045    4.1682    0.7922 N   0  3  0  0  0  0  0  0  0  0  0  0
   -0.0845    4.4457    0.0277 H   0  0  0  0  0  0  0  0  0  0  0  0
   -1.6153    4.9153    1.3712 C   0  0  0  0  0  0  0  0  0  0  0  0
   -1.8606    5.9499    1.1232 H   0  0  0  0  0  0  0  0  0  0  0  0
   -2.2139    4.1447    2.3667 N   0  0  0  0  0  0  0  0  0  0  0  0
   -2.9671    4.4486    2.9916 H   0  0  0  0  0  0  0  0  0  0  0  0
   -1.6245    2.8879    2.3736 C   0  0  0  0  0  0  0  0  0  0  0  0
   -1.8619    2.0351    3.0145 H   0  0  0  0  0  0  0  0  0  0  0  0
    0.7838   -0.0726   -0.6208 C   0  0  0  0  0  0  0  0  0  0  0  0
    0.4084   -1.1845   -0.9672 O   0  0  0  0  0  0  0  0  0  0  0  0
    2.1257    0.2365   -0.7764 N   0  0  0  0  0  0  0  0  0  0  0  0
    2.4429    1.1700   -0.5378 H   0  0  0  0  0  0  0  0  0  0  0  0
    3.1182   -0.7398   -1.2228 C   0  0  0  0  0  0  0  0  0  0  0  0
    2.8807   -1.0966   -2.2310 H   0  0  0  0  0  0  0  0  0  0  0  0
    4.1157   -0.2897   -1.2432 H   0  0  0  0  0  0  0  0  0  0  0  0
    3.1435   -1.6003   -0.5449 H   0  0  0  0  0  0  0  0  0  0  0  0
  1  2  1  0  0  0  0
  2  3  1  0  0  0  0
  2  4  1  0  0  0  0
  2  5  1  0  0  0  0
  5  6  2  0  0  0  0
  5  7  1  0  0  0  0
  7  8  1  0  0  0  0
  7  9  1  0  0  0  0
  9 10  1  0  0  0  0
  9 11  1  0  0  0  0
  9 23  1  0  0  0  0
 11 12  1  0  0  0  0
 11 13  1  0  0  0  0
 11 14  1  0  0  0  0
 14 15  1  0  0  0  0
 14 21  2  0  0  0  0
 15 16  1  0  0  0  0
 15 17  2  0  0  0  0
 17 18  1  0  0  0  0
 17 19  1  0  0  0  0
 19 20  1  0  0  0  0
 19 21  1  0  0  0  0
 21 22  1  0  0  0  0
 23 24  2  0  0  0  0
 23 25  1  0  0  0  0
 25 26  1  0  0  0  0
 25 27  1  0  0  0  0
 27 28  1  0  0  0  0
 27 29  1  0  0  0  0
 27 30  1  0  0  0  0
M  CHG  1  15   1
M  END
$$$$

  -OEChem-01062216083D

 30 30  0     1  0  0  0  0  0999 V2000
   -3.1746   -2.3142    1.1581 H   0  0  0  0  0  0  0  0  0  0  0  0
   -3.0227   -1.5802    0.3616 C   0  0  0  0  0  0  0  0  0  0  0  0
   -3.9625   -1.0526    0.1845 H   0  0  0  0  0  0  0  0  0  0  0  0
   -2.7309   -2.1099   -0.5492 H   0  0  0  0  0  0  0  0  0  0  0  0
   -1.9355   -0.5994    0.7546 C   0  0  0  0  0  0  0  0  0  0  0  0
   -1.4215   -0.6777    1.8583 O   0  0  0  0  0  0  0  0  0  0  0  0
   -1.5956    0.4270   -0.1123 N   0  0  0  0  0  0  0  0  0  0  0  0
   -2.0634    0.3183   -1.0104 H   0  0  0  0  0  0  0  0  0  0  0  0
   -0.2357    1.0168   -0.2090 C   0  0  1  0  0  0  0  0  0  0  0  0
   -0.2370    1.7515   -1.0192 H   0  0  0  0  0  0  0  0  0  0  0  0
    0.1949    1.7322    1.0959 C   0  0  0  0  0  0  0  0  0  0  0  0
    0.2129    1.0416    1.9428 H   0  0  0  0  0  0  0  0  0  0  0  0
    1.2166    2.1075    0.9936 H   0  0  0  0  0  0  0  0  0  0  0  0
   -0.6960    2.9109    1.3913 C   0  0  0  0  0  0  0  0  0  0  0  0
   -0.7253    4.1665    0.7804 N   0  3  0  0  0  0  0  0  0  0  0  0
   -0.0985    4.4360    0.0181 H   0  0  0  0  0  0  0  0  0  0  0  0
   -1.6463    4.9168    1.3384 C   0  0  0  0  0  0  0  0  0  0  0  0
   -1.8941    5.9463    1.0722 H   0  0  0  0  0  0  0  0  0  0  0  0
   -2.2507    4.1576    2.3392 N   0  0  0  0  0  0  0  0  0  0  0  0
   -3.0092    4.4683    2.9542 H   0  0  0  0  0  0  0  0  0  0  0  0
   -1.6538    2.9042    2.3716 C   0  0  0  0  0  0  0  0  0  0  0  0
   -1.8902    2.0623    3.0264 H   0  0  0  0  0  0  0  0  0  0  0  0
    0.7999   -0.0690   -0.6146 C   0  0  0  0  0  0  0  0  0  0  0  0
    0.4122   -1.0568   -1.2243 O   0  0  0  0  0  0  0  0  0  0  0  0
    2.1664    0.1217   -0.4840 N   0  0  0  0  0  0  0  0  0  0  0  0
    2.4962    0.9236    0.0421 H   0  0  0  0  0  0  0  0  0  0  0  0
    3.1478   -0.8751   -0.9087 C   0  0  0  0  0  0  0  0  0  0  0  0
    3.0642   -1.0652   -1.9844 H   0  0  0  0  0  0  0  0  0  0  0  0
    4.1636   -0.5244   -0.7005 H   0  0  0  0  0  0  0  0  0  0  0  0
    2.9930   -1.8189   -0.3745 H   0  0  0  0  0  0  0  0  0  0  0  0
  1  2  1  0  0  0  0
  2  3  1  0  0  0  0
  2  4  1  0  0  0  0
  2  5  1  0  0  0  0
  5  6  2  0  0  0  0
  5  7  1  0  0  0  0
  7  8  1  0  0  0  0
  7  9  1  0  0  0  0
  9 10  1  0  0  0  0
  9 11  1  0  0  0  0
  9 23  1  0  0  0  0
 11 12  1  0  0  0  0
 11 13  1  0  0  0  0
 11 14  1  0  0  0  0
 14 15  1  0  0  0  0
 14 21  2  0  0  0  0
 15 16  1  0  0  0  0
 15 17  2  0  0  0  0
 17 18  1  0  0  0  0
 17 19  1  0  0  0  0
 19 20  1  0  0  0  0
 19 21  1  0  0  0  0
 21 22  1  0  0  0  0
 23 24  2  0  0  0  0
 23 25  1  0  0  0  0
 25 26  1  0  0  0  0
 25 27  1  0  0  0  0
 27 28  1  0  0  0  0
 27 29  1  0  0  0  0
 27 30  1  0  0  0  0
M  CHG  1  15   1
M  END
$$$$

  -OEChem-01062216083D

 30 30  0     1  0  0  0  0  0999 V2000
   -3.1590   -2.3302    1.1531 H   0  0  0  0  0  0  0  0  0  0  0  0
   -3.0250   -1.5763    0.3719 C   0  0  0  0  0  0  0  0  0  0  0  0
   -3.9599   -1.0249    0.2503 H   0  0  0  0  0  0  0  0  0  0  0  0
   -2.7829   -2.0846   -0.5652 H   0  0  0  0  0  0  0  0  0  0  0  0
   -1.9024   -0.6290    0.7473 C   0  0  0  0  0  0  0  0  0  0  0  0
   -1.3297   -0.7639    1.8159 O   0  0  0  0  0  0  0  0  0  0  0  0
   -1.5730    0.4146   -0.1018 N   0  0  0  0  0  0  0  0  0  0  0  0
   -2.0512    0.3359   -0.9977 H   0  0  0  0  0  0  0  0  0  0  0  0
   -0.2192    1.0156   -0.1815 C   0  0  1  0  0  0  0  0  0  0  0  0
   -0.2194    1.7512   -0.9912 H   0  0  0  0  0  0  0  0  0  0  0  0
    0.1927    1.7436    1.1216 C   0  0  0  0  0  0  0  0  0  0  0  0
    0.2011    1.0596    1.9744 H   0  0  0  0  0  0  0  0  0  0  0  0
    1.2139    2.1241    1.0240 H   0  0  0  0  0  0  0  0  0  0  0  0
   -0.7099    2.9187    1.3977 C   0  0  0  0  0  0  0  0  0  0  0  0
   -0.7336    4.1662    0.7700 N   0  3  0  0  0  0  0  0  0  0  0  0
   -0.0988    4.4257    0.0106 H   0  0  0  0  0  0  0  0  0  0  0  0
   -1.6599    4.9239    1.3087 C   0  0  0  0  0  0  0  0  0  0  0  0
   -1.9049    5.9499    1.0260 H   0  0  0  0  0  0  0  0  0  0  0  0
   -2.2736    4.1783    2.3138 N   0  0  0  0  0  0  0  0  0  0  0  0
   -3.0375    4.4984    2.9174 H   0  0  0  0  0  0  0  0  0  0  0  0
   -1.6766    2.9255    2.3698 C   0  0  0  0  0  0  0  0  0  0  0  0
   -1.9183    2.0953    3.0371 H   0  0  0  0  0  0  0  0  0  0  0  0
    0.8134   -0.0652   -0.6004 C   0  0  0  0  0  0  0  0  0  0  0  0
    0.4682   -0.8956   -1.4301 O   0  0  0  0  0  0  0  0  0  0  0  0
    2.1413   -0.0375   -0.2049 N   0  0  0  0  0  0  0  0  0  0  0  0
    2.3963    0.5717    0.5653 H   0  0  0  0  0  0  0  0  0  0  0  0
    3.1034   -1.0581   -0.6166 C   0  0  0  0  0  0  0  0  0  0  0  0
    3.1775   -1.1006   -1.7089 H   0  0  0  0  0  0  0  0  0  0  0  0
    4.0963   -0.8315   -0.2156 H   0  0  0  0  0  0  0  0  0  0  0  0
    2.7985   -2.0440   -0.2489 H   0  0  0  0  0  0  0  0  0  0  0  0
  1  2  1  0  0  0  0
  2  3  1  0  0  0  0
  2  4  1  0  0  0  0
  2  5  1  0  0  0  0
  5  6  2  0  0  0  0
  5  7  1  0  0  0  0
  7  8  1  0  0  0  0
  7  9  1  0  0  0  0
  9 10  1  0  0  0  0
  9 11  1  0  0  0  0
  9 23  1  0  0  0  0
 11 12  1  0  0  0  0
 11 13  1  0  0  0  0
 11 14  1  0  0  0  0
 14 15  1  0  0  0  0
 14 21  2  0  0  0  0
 15 16  1  0  0  0  0
 15 17  2  0  0  0  0
 17 18  1  0  0  0  0
 17 19  1  0  0  0  0
 19 20  1  0  0  0  0
 19 21  1  0  0  0  0
 21 22  1  0  0  0  0
 23 24  2  0  0  0  0
 23 25  1  0  0  0  0
 25 26  1  0  0  0  0
 25 27  1  0  0  0  0
 27 28  1  0  0  0  0
 27 29  1  0  0  0  0
 27 30  1  0  0  0  0
M  CHG  1  15   1
M  END
$$$$

  -OEChem-01062216083D

 30 30  0     1  0  0  0  0  0999 V2000
   -3.1580   -2.3442    1.1505 H   0  0  0  0  0  0  0  0  0  0  0  0
   -3.0409   -1.5710    0.3856 C   0  0  0  0  0  0  0  0  0  0  0  0
   -3.9691   -0.9989    0.3176 H   0  0  0  0  0  0  0  0  0  0  0  0
   -2.8485   -2.0574   -0.5742 H   0  0  0  0  0  0  0  0  0  0  0  0
   -1.8853   -0.6560    0.7407 C   0  0  0  0  0  0  0  0  0  0  0  0
   -1.2685   -0.8328    1.7783 O   0  0  0  0  0  0  0  0  0  0  0  0
   -1.5599    0.3972   -0.0972 N   0  0  0  0  0  0  0  0  0  0  0  0
   -2.0495    0.3463   -0.9893 H   0  0  0  0  0  0  0  0  0  0  0  0
   -0.2103    1.0047   -0.1634 C   0  0  1  0  0  0  0  0  0  0  0  0
   -0.2095    1.7408   -0.9731 H   0  0  0  0  0  0  0  0  0  0  0  0
    0.1901    1.7418    1.1379 C   0  0  0  0  0  0  0  0  0  0  0  0
    0.1865    1.0635    1.9951 H   0  0  0  0  0  0  0  0  0  0  0  0
    1.2135    2.1189    1.0441 H   0  0  0  0  0  0  0  0  0  0  0  0
   -0.7171    2.9167    1.4012 C   0  0  0  0  0  0  0  0  0  0  0  0
   -0.7300    4.1570    0.7590 N   0  3  0  0  0  0  0  0  0  0  0  0
   -0.0877    4.4035    0.0012 H   0  0  0  0  0  0  0  0  0  0  0  0
   -1.6546    4.9267    1.2828 C   0  0  0  0  0  0  0  0  0  0  0  0
   -1.8914    5.9506    0.9862 H   0  0  0  0  0  0  0  0  0  0  0  0
   -2.2782    4.1964    2.2932 N   0  0  0  0  0  0  0  0  0  0  0  0
   -3.0432    4.5287    2.8888 H   0  0  0  0  0  0  0  0  0  0  0  0
   -1.6883    2.9409    2.3688 C   0  0  0  0  0  0  0  0  0  0  0  0
   -1.9370    2.1232    3.0482 H   0  0  0  0  0  0  0  0  0  0  0  0
    0.8250   -0.0679   -0.5858 C   0  0  0  0  0  0  0  0  0  0  0  0
    0.5724   -0.7313   -1.5815 O   0  0  0  0  0  0  0  0  0  0  0  0
    2.0529   -0.2261    0.0352 N   0  0  0  0  0  0  0  0  0  0  0  0
    2.1684    0.1915    0.9532 H   0  0  0  0  0  0  0  0  0  0  0  0
    2.9991   -1.2665   -0.3616 C   0  0  0  0  0  0  0  0  0  0  0  0
    3.2686   -1.1609   -1.4183 H   0  0  0  0  0  0  0  0  0  0  0  0
    3.9155   -1.1958    0.2329 H   0  0  0  0  0  0  0  0  0  0  0  0
    2.5635   -2.2601   -0.2095 H   0  0  0  0  0  0  0  0  0  0  0  0
  1  2  1  0  0  0  0
  2  3  1  0  0  0  0
  2  4  1  0  0  0  0
  2  5  1  0  0  0  0
  5  6  2  0  0  0  0
  5  7  1  0  0  0  0
  7  8  1  0  0  0  0
  7  9  1  0  0  0  0
  9 10  1  0  0  0  0
  9 11  1  0  0  0  0
  9 23  1  0  0  0  0
 11 12  1  0  0  0  0
 11 13  1  0  0  0  0
 11 14  1  0  0  0  0
 14 15  1  0  0  0  0
 14 21  2  0  0  0  0
 15 16  1  0  0  0  0
 15 17  2  0  0  0  0
 17 18  1  0  0  0  0
 17 19  1  0  0  0  0
 19 20  1  0  0  0  0
 19 21  1  0  0  0  0
 21 22  1  0  0  0  0
 23 24  2  0  0  0  0
 23 25  1  0  0  0  0
 25 26  1  0  0  0  0
 25 27  1  0  0  0  0
 27 28  1  0  0  0  0
 27 29  1  0  0  0  0
 27 30  1  0  0  0  0
M  CHG  1  15   1
M  END
$$$$

  -OEChem-01062216083D

 30 30  0     1  0  0  0  0  0999 V2000
   -3.1918   -2.3315    1.1686 H   0  0  0  0  0  0  0  0  0  0  0  0
   -3.0713   -1.5584    0.4042 C   0  0  0  0  0  0  0  0  0  0  0  0
   -3.9828   -0.9575    0.3646 H   0  0  0  0  0  0  0  0  0  0  0  0
   -2.9201   -2.0449   -0.5628 H   0  0  0  0  0  0  0  0  0  0  0  0
   -1.8794   -0.6808    0.7324 C   0  0  0  0  0  0  0  0  0  0  0  0
   -1.2223   -0.8991    1.7372 O   0  0  0  0  0  0  0  0  0  0  0  0
   -1.5530    0.3782   -0.0975 N   0  0  0  0  0  0  0  0  0  0  0  0
   -2.0631    0.3665   -0.9794 H   0  0  0  0  0  0  0  0  0  0  0  0
   -0.2049    0.9864   -0.1508 C   0  0  1  0  0  0  0  0  0  0  0  0
   -0.2025    1.7236   -0.9596 H   0  0  0  0  0  0  0  0  0  0  0  0
    0.1884    1.7287    1.1486 C   0  0  0  0  0  0  0  0  0  0  0  0
    0.1700    1.0548    2.0092 H   0  0  0  0  0  0  0  0  0  0  0  0
    1.2171    2.0942    1.0605 H   0  0  0  0  0  0  0  0  0  0  0  0
   -0.7181    2.9066    1.4007 C   0  0  0  0  0  0  0  0  0  0  0  0
   -0.7196    4.1418    0.7487 N   0  3  0  0  0  0  0  0  0  0  0  0
   -0.0703    4.3789   -0.0064 H   0  0  0  0  0  0  0  0  0  0  0  0
   -1.6403    4.9225    1.2630 C   0  0  0  0  0  0  0  0  0  0  0  0
   -1.8667    5.9466    0.9587 H   0  0  0  0  0  0  0  0  0  0  0  0
   -2.2742    4.2046    2.2756 N   0  0  0  0  0  0  0  0  0  0  0  0
   -3.0375    4.5485    2.8669 H   0  0  0  0  0  0  0  0  0  0  0  0
   -1.6935    2.9456    2.3638 C   0  0  0  0  0  0  0  0  0  0  0  0
   -1.9499    2.1365    3.0504 H   0  0  0  0  0  0  0  0  0  0  0  0
    0.8369   -0.0762   -0.5719 C   0  0  0  0  0  0  0  0  0  0  0  0
    0.7296   -0.5499   -1.6933 O   0  0  0  0  0  0  0  0  0  0  0  0
    1.9108   -0.4373    0.2236 N   0  0  0  0  0  0  0  0  0  0  0  0
    1.8341   -0.2233    1.2140 H   0  0  0  0  0  0  0  0  0  0  0  0
    2.8460   -1.4893   -0.1680 C   0  0  0  0  0  0  0  0  0  0  0  0
    3.3004   -1.2611   -1.1384 H   0  0  0  0  0  0  0  0  0  0  0  0
    3.6480   -1.5806    0.5710 H   0  0  0  0  0  0  0  0  0  0  0  0
    2.3306   -2.4531   -0.2417 H   0  0  0  0  0  0  0  0  0  0  0  0
  1  2  1  0  0  0  0
  2  3  1  0  0  0  0
  2  4  1  0  0  0  0
  2  5  1  0  0  0  0
  5  6  2  0  0  0  0
  5  7  1  0  0  0  0
  7  8  1  0  0  0  0
  7  9  1  0  0  0  0
  9 10  1  0  0  0  0
  9 11  1  0  0  0  0
  9 23  1  0  0  0  0
 11 12  1  0  0  0  0
 11 13  1  0  0  0  0
 11 14  1  0  0  0  0
 14 15  1  0  0  0  0
 14 21  2  0  0  0  0
 15 16  1  0  0  0  0
 15 17  2  0  0  0  0
 17 18  1  0  0  0  0
 17 19  1  0  0  0  0
 19 20  1  0  0  0  0
 19 21  1  0  0  0  0
 21 22  1  0  0  0  0
 23 24  2  0  0  0  0
 23 25  1  0  0  0  0
 25 26  1  0  0  0  0
 25 27  1  0  0  0  0
 27 28  1  0  0  0  0
 27 29  1  0  0  0  0
 27 30  1  0  0  0  0
M  CHG  1  15   1
M  END
$$$$

  -OEChem-01062216083D

 30 30  0     1  0  0  0  0  0999 V2000
   -3.2424   -2.3225    1.1833 H   0  0  0  0  0  0  0  0  0  0  0  0
   -3.1276   -1.5397    0.4279 C   0  0  0  0  0  0  0  0  0  0  0  0
   -4.0216   -0.9118    0.4337 H   0  0  0  0  0  0  0  0  0  0  0  0
   -3.0287   -2.0134   -0.5522 H   0  0  0  0  0  0  0  0  0  0  0  0
   -1.8976   -0.7043    0.7255 C   0  0  0  0  0  0  0  0  0  0  0  0
   -1.2108   -0.9584    1.7023 O   0  0  0  0  0  0  0  0  0  0  0  0
   -1.5620    0.3528   -0.1030 N   0  0  0  0  0  0  0  0  0  0  0  0
   -2.0936    0.3781   -0.9718 H   0  0  0  0  0  0  0  0  0  0  0  0
   -0.2123    0.9565   -0.1500 C   0  0  1  0  0  0  0  0  0  0  0  0
   -0.2088    1.6948   -0.9585 H   0  0  0  0  0  0  0  0  0  0  0  0
    0.1834    1.6995    1.1475 C   0  0  0  0  0  0  0  0  0  0  0  0
    0.1555    1.0274    2.0092 H   0  0  0  0  0  0  0  0  0  0  0  0
    1.2172    2.0525    1.0605 H   0  0  0  0  0  0  0  0  0  0  0  0
   -0.7152    2.8836    1.3975 C   0  0  0  0  0  0  0  0  0  0  0  0
   -0.7010    4.1146    0.7382 N   0  3  0  0  0  0  0  0  0  0  0  0
   -0.0468    4.3385   -0.0169 H   0  0  0  0  0  0  0  0  0  0  0  0
   -1.6105    4.9108    1.2481 C   0  0  0  0  0  0  0  0  0  0  0  0
   -1.8230    5.9358    0.9375 H   0  0  0  0  0  0  0  0  0  0  0  0
   -2.2526    4.2076    2.2661 N   0  0  0  0  0  0  0  0  0  0  0  0
   -3.0085    4.5667    2.8580 H   0  0  0  0  0  0  0  0  0  0  0  0
   -1.6879    2.9415    2.3625 C   0  0  0  0  0  0  0  0  0  0  0  0
   -1.9517    2.1424    3.0575 H   0  0  0  0  0  0  0  0  0  0  0  0
    0.8389   -0.0970   -0.5633 C   0  0  0  0  0  0  0  0  0  0  0  0
    0.9339   -0.3620   -1.7518 O   0  0  0  0  0  0  0  0  0  0  0  0
    1.7162   -0.6631    0.3445 N   0  0  0  0  0  0  0  0  0  0  0  0
    1.4170   -0.6437    1.3175 H   0  0  0  0  0  0  0  0  0  0  0  0
    2.6710   -1.6980   -0.0447 C   0  0  0  0  0  0  0  0  0  0  0  0
    3.3218   -1.3406   -0.8503 H   0  0  0  0  0  0  0  0  0  0  0  0
    3.3021   -1.9734    0.8062 H   0  0  0  0  0  0  0  0  0  0  0  0
    2.1460   -2.5946   -0.3917 H   0  0  0  0  0  0  0  0  0  0  0  0
  1  2  1  0  0  0  0
  2  3  1  0  0  0  0
  2  4  1  0  0  0  0
  2  5  1  0  0  0  0
  5  6  2  0  0  0  0
  5  7  1  0  0  0  0
  7  8  1  0  0  0  0
  7  9  1  0  0  0  0
  9 10  1  0  0  0  0
  9 11  1  0  0  0  0
  9 23  1  0  0  0  0
 11 12  1  0  0  0  0
 11 13  1  0  0  0  0
 11 14  1  0  0  0  0
 14 15  1  0  0  0  0
 14 21  2  0  0  0  0
 15 16  1  0  0  0  0
 15 17  2  0  0  0  0
 17 18  1  0  0  0  0
 17 19  1  0  0  0  0
 19 20  1  0  0  0  0
 19 21  1  0  0  0  0
 21 22  1  0  0  0  0
 23 24  2  0  0  0  0
 23 25  1  0  0  0  0
 25 26  1  0  0  0  0
 25 27  1  0  0  0  0
 27 28  1  0  0  0  0
 27 29  1  0  0  0  0
 27 30  1  0  0  0  0
M  CHG  1  15   1
M  END
$$$$

  -OEChem-01062216083D

 30 30  0     1  0  0  0  0  0999 V2000
   -3.3228   -2.2892    1.2063 H   0  0  0  0  0  0  0  0  0  0  0  0
   -3.1932   -1.5146    0.4448 C   0  0  0  0  0  0  0  0  0  0  0  0
   -4.0642   -0.8557    0.4620 H   0  0  0  0  0  0  0  0  0  0  0  0
   -3.1279   -1.9963   -0.5341 H   0  0  0  0  0  0  0  0  0  0  0  0
   -1.9301   -0.7210    0.7174 C   0  0  0  0  0  0  0  0  0  0  0  0
   -1.2276   -1.0038    1.6754 O   0  0  0  0  0  0  0  0  0  0  0  0
   -1.5792    0.3294   -0.1137 N   0  0  0  0  0  0  0  0  0  0  0  0
   -2.1363    0.3934   -0.9643 H   0  0  0  0  0  0  0  0  0  0  0  0
   -0.2264    0.9271   -0.1655 C   0  0  1  0  0  0  0  0  0  0  0  0
   -0.2263    1.6674   -0.9725 H   0  0  0  0  0  0  0  0  0  0  0  0
    0.1802    1.6646    1.1309 C   0  0  0  0  0  0  0  0  0  0  0  0
    0.1519    0.9891    1.9901 H   0  0  0  0  0  0  0  0  0  0  0  0
    1.2168    2.0081    1.0408 H   0  0  0  0  0  0  0  0  0  0  0  0
   -0.7085    2.8533    1.3910 C   0  0  0  0  0  0  0  0  0  0  0  0
   -0.6849    4.0840    0.7321 N   0  3  0  0  0  0  0  0  0  0  0  0
   -0.0310    4.3010   -0.0253 H   0  0  0  0  0  0  0  0  0  0  0  0
   -1.5806    4.8907    1.2493 C   0  0  0  0  0  0  0  0  0  0  0  0
   -1.7815    5.9192    0.9420 H   0  0  0  0  0  0  0  0  0  0  0  0
   -2.2237    4.1939    2.2712 N   0  0  0  0  0  0  0  0  0  0  0  0
   -2.9694    4.5624    2.8698 H   0  0  0  0  0  0  0  0  0  0  0  0
   -1.6728    2.9213    2.3635 C   0  0  0  0  0  0  0  0  0  0  0  0
   -1.9389    2.1259    3.0618 H   0  0  0  0  0  0  0  0  0  0  0  0
    0.8365   -0.1159   -0.5709 C   0  0  0  0  0  0  0  0  0  0  0  0
    1.1563   -0.1802   -1.7477 O   0  0  0  0  0  0  0  0  0  0  0  0
    1.4956   -0.8797    0.3742 N   0  0  0  0  0  0  0  0  0  0  0  0
    1.0052   -0.9897    1.2628 H   0  0  0  0  0  0  0  0  0  0  0  0
    2.4690   -1.9039    0.0062 C   0  0  0  0  0  0  0  0  0  0  0  0
    3.2775   -1.4710   -0.5931 H   0  0  0  0  0  0  0  0  0  0  0  0
    2.9099   -2.3484    0.9040 H   0  0  0  0  0  0  0  0  0  0  0  0
    1.9893   -2.6984   -0.5754 H   0  0  0  0  0  0  0  0  0  0  0  0
  1  2  1  0  0  0  0
  2  3  1  0  0  0  0
  2  4  1  0  0  0  0
  2  5  1  0  0  0  0
  5  6  2  0  0  0  0
  5  7  1  0  0  0  0
  7  8  1  0  0  0  0
  7  9  1  0  0  0  0
  9 10  1  0  0  0  0
  9 11  1  0  0  0  0
  9 23  1  0  0  0  0
 11 12  1  0  0  0  0
 11 13  1  0  0  0  0
 11 14  1  0  0  0  0
 14 15  1  0  0  0  0
 14 21  2  0  0  0  0
 15 16  1  0  0  0  0
 15 17  2  0  0  0  0
 17 18  1  0  0  0  0
 17 19  1  0  0  0  0
 19 20  1  0  0  0  0
 19 21  1  0  0  0  0
 21 22  1  0  0  0  0
 23 24  2  0  0  0  0
 23 25  1  0  0  0  0
 25 26  1  0  0  0  0
 25 27  1  0  0  0  0
 27 28  1  0  0  0  0
 27 29  1  0  0  0  0
 27 30  1  0  0  0  0
M  CHG  1  15   1
M  END
$$$$

  -OEChem-01062216083D

 30 30  0     1  0  0  0  0  0999 V2000
   -3.4379   -2.2384    1.2203 H   0  0  0  0  0  0  0  0  0  0  0  0
   -3.2803   -1.4770    0.4505 C   0  0  0  0  0  0  0  0  0  0  0  0
   -4.1260   -0.7854    0.4630 H   0  0  0  0  0  0  0  0  0  0  0  0
   -3.2360   -1.9705   -0.5239 H   0  0  0  0  0  0  0  0  0  0  0  0
   -1.9878   -0.7283    0.7124 C   0  0  0  0  0  0  0  0  0  0  0  0
   -1.2942   -1.0284    1.6711 O   0  0  0  0  0  0  0  0  0  0  0  0
   -1.6073    0.3060   -0.1251 N   0  0  0  0  0  0  0  0  0  0  0  0
   -2.1822    0.4004   -0.9606 H   0  0  0  0  0  0  0  0  0  0  0  0
   -0.2490    0.8939   -0.1892 C   0  0  1  0  0  0  0  0  0  0  0  0
   -0.2529    1.6337   -0.9968 H   0  0  0  0  0  0  0  0  0  0  0  0
    0.1710    1.6244    1.1051 C   0  0  0  0  0  0  0  0  0  0  0  0
    0.1457    0.9435    1.9607 H   0  0  0  0  0  0  0  0  0  0  0  0
    1.2094    1.9612    1.0080 H   0  0  0  0  0  0  0  0  0  0  0  0
   -0.7055    2.8191    1.3784 C   0  0  0  0  0  0  0  0  0  0  0  0
   -0.6769    4.0522    0.7243 N   0  3  0  0  0  0  0  0  0  0  0  0
   -0.0303    4.2648   -0.0406 H   0  0  0  0  0  0  0  0  0  0  0  0
   -1.5551    4.8672    1.2584 C   0  0  0  0  0  0  0  0  0  0  0  0
   -1.7474    5.8997    0.9588 H   0  0  0  0  0  0  0  0  0  0  0  0
   -2.1907    4.1738    2.2873 N   0  0  0  0  0  0  0  0  0  0  0  0
   -2.9199    4.5499    2.9014 H   0  0  0  0  0  0  0  0  0  0  0  0
   -1.6534    2.8946    2.3664 C   0  0  0  0  0  0  0  0  0  0  0  0
   -1.9153    2.1009    3.0681 H   0  0  0  0  0  0  0  0  0  0  0  0
    0.8310   -0.1367   -0.5806 C   0  0  0  0  0  0  0  0  0  0  0  0
    1.3613   -0.0242   -1.6746 O   0  0  0  0  0  0  0  0  0  0  0  0
    1.2823   -1.0878    0.3147 N   0  0  0  0  0  0  0  0  0  0  0  0
    0.6838   -1.2583    1.1263 H   0  0  0  0  0  0  0  0  0  0  0  0
    2.2782   -2.0958   -0.0357 C   0  0  0  0  0  0  0  0  0  0  0  0
    3.1980   -1.6208   -0.3940 H   0  0  0  0  0  0  0  0  0  0  0  0
    2.5269   -2.7046    0.8392 H   0  0  0  0  0  0  0  0  0  0  0  0
    1.8966   -2.7564   -0.8215 H   0  0  0  0  0  0  0  0  0  0  0  0
  1  2  1  0  0  0  0
  2  3  1  0  0  0  0
  2  4  1  0  0  0  0
  2  5  1  0  0  0  0
  5  6  2  0  0  0  0
  5  7  1  0  0  0  0
  7  8  1  0  0  0  0
  7  9  1  0  0  0  0
  9 10  1  0  0  0  0
  9 11  1  0  0  0  0
  9 23  1  0  0  0  0
 11 12  1  0  0  0  0
 11 13  1  0  0  0  0
 11 14  1  0  0  0  0
 14 15  1  0  0  0  0
 14 21  2  0  0  0  0
 15 16  1  0  0  0  0
 15 17  2  0  0  0  0
 17 18  1  0  0  0  0
 17 19  1  0  0  0  0
 19 20  1  0  0  0  0
 19 21  1  0  0  0  0
 21 22  1  0  0  0  0
 23 24  2  0  0  0  0
 23 25  1  0  0  0  0
 25 26  1  0  0  0  0
 25 27  1  0  0  0  0
 27 28  1  0  0  0  0
 27 29  1  0  0  0  0
 27 30  1  0  0  0  0
M  CHG  1  15   1
M  END
$$$$

  -OEChem-01062216083D

 30 30  0     1  0  0  0  0  0999 V2000
   -3.5612   -2.1645    1.2509 H   0  0  0  0  0  0  0  0  0  0  0  0
   -3.3756   -1.4252    0.4660 C   0  0  0  0  0  0  0  0  0  0  0  0
   -4.1919   -0.6991    0.4681 H   0  0  0  0  0  0  0  0  0  0  0  0
   -3.3555   -1.9383   -0.4989 H   0  0  0  0  0  0  0  0  0  0  0  0
   -2.0521   -0.7262    0.7087 C   0  0  0  0  0  0  0  0  0  0  0  0
   -1.3618   -1.0477    1.6619 O   0  0  0  0  0  0  0  0  0  0  0  0
   -1.6456    0.2919   -0.1359 N   0  0  0  0  0  0  0  0  0  0  0  0
   -2.2378    0.4147   -0.9555 H   0  0  0  0  0  0  0  0  0  0  0  0
   -0.2795    0.8639   -0.2197 C   0  0  1  0  0  0  0  0  0  0  0  0
   -0.2874    1.6053   -1.0257 H   0  0  0  0  0  0  0  0  0  0  0  0
    0.1597    1.5806    1.0747 C   0  0  0  0  0  0  0  0  0  0  0  0
    0.1386    0.8906    1.9234 H   0  0  0  0  0  0  0  0  0  0  0  0
    1.2000    1.9088    0.9698 H   0  0  0  0  0  0  0  0  0  0  0  0
   -0.7012    2.7816    1.3666 C   0  0  0  0  0  0  0  0  0  0  0  0
   -0.6646    4.0185    0.7207 N   0  3  0  0  0  0  0  0  0  0  0  0
   -0.0191    4.2303   -0.0456 H   0  0  0  0  0  0  0  0  0  0  0  0
   -1.5275    4.8396    1.2700 C   0  0  0  0  0  0  0  0  0  0  0  0
   -1.7082    5.8775    0.9822 H   0  0  0  0  0  0  0  0  0  0  0  0
   -2.1631    4.1454    2.2985 N   0  0  0  0  0  0  0  0  0  0  0  0
   -2.8817    4.5254    2.9226 H   0  0  0  0  0  0  0  0  0  0  0  0
   -1.6395    2.8599    2.3633 C   0  0  0  0  0  0  0  0  0  0  0  0
   -1.9030    2.0638    3.0617 H   0  0  0  0  0  0  0  0  0  0  0  0
    0.8127   -0.1563   -0.6070 C   0  0  0  0  0  0  0  0  0  0  0  0
    1.5199    0.1046   -1.5676 O   0  0  0  0  0  0  0  0  0  0  0  0
    1.0756   -1.2760    0.1583 N   0  0  0  0  0  0  0  0  0  0  0  0
    0.4277   -1.4764    0.9241 H   0  0  0  0  0  0  0  0  0  0  0  0
    2.1084   -2.2540   -0.1686 C   0  0  0  0  0  0  0  0  0  0  0  0
    3.0883   -1.7700   -0.2438 H   0  0  0  0  0  0  0  0  0  0  0  0
    2.1647   -3.0216    0.6099 H   0  0  0  0  0  0  0  0  0  0  0  0
    1.8854   -2.7437   -1.1225 H   0  0  0  0  0  0  0  0  0  0  0  0
  1  2  1  0  0  0  0
  2  3  1  0  0  0  0
  2  4  1  0  0  0  0
  2  5  1  0  0  0  0
  5  6  2  0  0  0  0
  5  7  1  0  0  0  0
  7  8  1  0  0  0  0
  7  9  1  0  0  0  0
  9 10  1  0  0  0  0
  9 11  1  0  0  0  0
  9 23  1  0  0  0  0
 11 12  1  0  0  0  0
 11 13  1  0  0  0  0
 11 14  1  0  0  0  0
 14 15  1  0  0  0  0
 14 21  2  0  0  0  0
 15 16  1  0  0  0  0
 15 17  2  0  0  0  0
 17 18  1  0  0  0  0
 17 19  1  0  0  0  0
 19 20  1  0  0  0  0
 19 21  1  0  0  0  0
 21 22  1  0  0  0  0
 23 24  2  0  0  0  0
 23 25  1  0  0  0  0
 25 26  1  0  0  0  0
 25 27  1  0  0  0  0
 27 28  1  0  0  0  0
 27 29  1  0  0  0  0
 27 30  1  0  0  0  0
M  CHG  1  15   1
M  END
$$$$

  -OEChem-01062216083D

 30 30  0     1  0  0  0  0  0999 V2000
   -3.6452   -2.1359    1.2591 H   0  0  0  0  0  0  0  0  0  0  0  0
   -3.4647   -1.3819    0.4872 C   0  0  0  0  0  0  0  0  0  0  0  0
   -4.2570   -0.6315    0.5387 H   0  0  0  0  0  0  0  0  0  0  0  0
   -3.4969   -1.8694   -0.4907 H   0  0  0  0  0  0  0  0  0  0  0  0
   -2.1118   -0.7302    0.6985 C   0  0  0  0  0  0  0  0  0  0  0  0
   -1.4055   -1.0856    1.6272 O   0  0  0  0  0  0  0  0  0  0  0  0
   -1.6931    0.2787   -0.1510 N   0  0  0  0  0  0  0  0  0  0  0  0
   -2.3072    0.4345   -0.9483 H   0  0  0  0  0  0  0  0  0  0  0  0
   -0.3207    0.8354   -0.2574 C   0  0  1  0  0  0  0  0  0  0  0  0
   -0.3348    1.5787   -1.0613 H   0  0  0  0  0  0  0  0  0  0  0  0
    0.1415    1.5409    1.0353 C   0  0  0  0  0  0  0  0  0  0  0  0
    0.1248    0.8432    1.8779 H   0  0  0  0  0  0  0  0  0  0  0  0
    1.1838    1.8603    0.9199 H   0  0  0  0  0  0  0  0  0  0  0  0
   -0.7003    2.7496    1.3488 C   0  0  0  0  0  0  0  0  0  0  0  0
   -0.6555    3.9897    0.7098 N   0  3  0  0  0  0  0  0  0  0  0  0
   -0.0167    4.1969   -0.0635 H   0  0  0  0  0  0  0  0  0  0  0  0
   -1.4934    4.8219    1.2805 C   0  0  0  0  0  0  0  0  0  0  0  0
   -1.6607    5.8649    1.0036 H   0  0  0  0  0  0  0  0  0  0  0  0
   -2.1212    4.1314    2.3163 N   0  0  0  0  0  0  0  0  0  0  0  0
   -2.8181    4.5206    2.9591 H   0  0  0  0  0  0  0  0  0  0  0  0
   -1.6177    2.8369    2.3638 C   0  0  0  0  0  0  0  0  0  0  0  0
   -1.8786    2.0420    3.0645 H   0  0  0  0  0  0  0  0  0  0  0  0
    0.7756   -0.1770   -0.6554 C   0  0  0  0  0  0  0  0  0  0  0  0
    1.6313    0.2016   -1.4406 O   0  0  0  0  0  0  0  0  0  0  0  0
    0.8709   -1.4332   -0.0891 N   0  0  0  0  0  0  0  0  0  0  0  0
    0.2011   -1.6604    0.6494 H   0  0  0  0  0  0  0  0  0  0  0  0
    1.9615   -2.3627   -0.3651 C   0  0  0  0  0  0  0  0  0  0  0  0
    2.9203   -1.9341   -0.0541 H   0  0  0  0  0  0  0  0  0  0  0  0
    1.8091   -3.2998    0.1796 H   0  0  0  0  0  0  0  0  0  0  0  0
    2.0102   -2.5911   -1.4353 H   0  0  0  0  0  0  0  0  0  0  0  0
  1  2  1  0  0  0  0
  2  3  1  0  0  0  0
  2  4  1  0  0  0  0
  2  5  1  0  0  0  0
  5  6  2  0  0  0  0
  5  7  1  0  0  0  0
  7  8  1  0  0  0  0
  7  9  1  0  0  0  0
  9 10  1  0  0  0  0
  9 11  1  0  0  0  0
  9 23  1  0  0  0  0
 11 12  1  0  0  0  0
 11 13  1  0  0  0  0
 11 14  1  0  0  0  0
 14 15  1  0  0  0  0
 14 21  2  0  0  0  0
 15 16  1  0  0  0  0
 15 17  2  0  0  0  0
 17 18  1  0  0  0  0
 17 19  1  0  0  0  0
 19 20  1  0  0  0  0
 19 21  1  0  0  0  0
 21 22  1  0  0  0  0
 23 24  2  0  0  0  0
 23 25  1  0  0  0  0
 25 26  1  0  0  0  0
 25 27  1  0  0  0  0
 27 28  1  0  0  0  0
 27 29  1  0  0  0  0
 27 30  1  0  0  0  0
M  CHG  1  15   1
M  END
$$$$

  -OEChem-01062216083D

 30 30  0     1  0  0  0  0  0999 V2000
   -3.6841   -2.0970    1.2820 H   0  0  0  0  0  0  0  0  0  0  0  0
   -3.5095   -1.3360    0.5155 C   0  0  0  0  0  0  0  0  0  0  0  0
   -4.2766   -0.5636    0.6072 H   0  0  0  0  0  0  0  0  0  0  0  0
   -3.5915   -1.8062   -0.4677 H   0  0  0  0  0  0  0  0  0  0  0  0
   -2.1308   -0.7282    0.6871 C   0  0  0  0  0  0  0  0  0  0  0  0
   -1.3969   -1.1294    1.5739 O   0  0  0  0  0  0  0  0  0  0  0  0
   -1.7089    0.2770   -0.1644 N   0  0  0  0  0  0  0  0  0  0  0  0
   -2.3425    0.4652   -0.9389 H   0  0  0  0  0  0  0  0  0  0  0  0
   -0.3340    0.8271   -0.2819 C   0  0  1  0  0  0  0  0  0  0  0  0
   -0.3499    1.5728   -1.0833 H   0  0  0  0  0  0  0  0  0  0  0  0
    0.1303    1.5245    1.0156 C   0  0  0  0  0  0  0  0  0  0  0  0
    0.1119    0.8201    1.8528 H   0  0  0  0  0  0  0  0  0  0  0  0
    1.1735    1.8428    0.9037 H   0  0  0  0  0  0  0  0  0  0  0  0
   -0.7068    2.7338    1.3402 C   0  0  0  0  0  0  0  0  0  0  0  0
   -0.6567    3.9776    0.7089 N   0  3  0  0  0  0  0  0  0  0  0  0
   -0.0141    4.1875   -0.0606 H   0  0  0  0  0  0  0  0  0  0  0  0
   -1.4868    4.8113    1.2890 C   0  0  0  0  0  0  0  0  0  0  0  0
   -1.6456    5.8583    1.0221 H   0  0  0  0  0  0  0  0  0  0  0  0
   -2.1170    4.1169    2.3209 N   0  0  0  0  0  0  0  0  0  0  0  0
   -2.8084    4.5067    2.9691 H   0  0  0  0  0  0  0  0  0  0  0  0
   -1.6210    2.8190    2.3583 C   0  0  0  0  0  0  0  0  0  0  0  0
   -1.8834    2.0212    3.0550 H   0  0  0  0  0  0  0  0  0  0  0  0
    0.7676   -0.1789   -0.6863 C   0  0  0  0  0  0  0  0  0  0  0  0
    1.7278    0.2638   -1.2990 O   0  0  0  0  0  0  0  0  0  0  0  0
    0.7170   -1.5214   -0.3642 N   0  0  0  0  0  0  0  0  0  0  0  0
    0.0163   -1.7922    0.3282 H   0  0  0  0  0  0  0  0  0  0  0  0
    1.8046   -2.4519   -0.6514 C   0  0  0  0  0  0  0  0  0  0  0  0
    2.7141   -2.1578   -0.1165 H   0  0  0  0  0  0  0  0  0  0  0  0
    1.5311   -3.4646   -0.3387 H   0  0  0  0  0  0  0  0  0  0  0  0
    2.0202   -2.4720   -1.7252 H   0  0  0  0  0  0  0  0  0  0  0  0
  1  2  1  0  0  0  0
  2  3  1  0  0  0  0
  2  4  1  0  0  0  0
  2  5  1  0  0  0  0
  5  6  2  0  0  0  0
  5  7  1  0  0  0  0
  7  8  1  0  0  0  0
  7  9  1  0  0  0  0
  9 10  1  0  0  0  0
  9 11  1  0  0  0  0
  9 23  1  0  0  0  0
 11 12  1  0  0  0  0
 11 13  1  0  0  0  0
 11 14  1  0  0  0  0
 14 15  1  0  0  0  0
 14 21  2  0  0  0  0
 15 16  1  0  0  0  0
 15 17  2  0  0  0  0
 17 18  1  0  0  0  0
 17 19  1  0  0  0  0
 19 20  1  0  0  0  0
 19 21  1  0  0  0  0
 21 22  1  0  0  0  0
 23 24  2  0  0  0  0
 23 25  1  0  0  0  0
 25 26  1  0  0  0  0
 25 27  1  0  0  0  0
 27 28  1  0  0  0  0
 27 29  1  0  0  0  0
 27 30  1  0  0  0  0
M  CHG  1  15   1
M  END
$$$$

  -OEChem-01062216083D

 30 30  0     1  0  0  0  0  0999 V2000
   -3.6926   -2.0750    1.2878 H   0  0  0  0  0  0  0  0  0  0  0  0
   -3.5311   -1.2922    0.5405 C   0  0  0  0  0  0  0  0  0  0  0  0
   -4.2696   -0.5022    0.6956 H   0  0  0  0  0  0  0  0  0  0  0  0
   -3.6729   -1.7241   -0.4535 H   0  0  0  0  0  0  0  0  0  0  0  0
   -2.1284   -0.7298    0.6675 C   0  0  0  0  0  0  0  0  0  0  0  0
   -1.3655   -1.1802    1.5035 O   0  0  0  0  0  0  0  0  0  0  0  0
   -1.7081    0.2753   -0.1840 N   0  0  0  0  0  0  0  0  0  0  0  0
   -2.3647    0.5064   -0.9270 H   0  0  0  0  0  0  0  0  0  0  0  0
   -0.3341    0.8270   -0.3051 C   0  0  1  0  0  0  0  0  0  0  0  0
   -0.3495    1.5739   -1.1049 H   0  0  0  0  0  0  0  0  0  0  0  0
    0.1231    1.5189    0.9999 C   0  0  0  0  0  0  0  0  0  0  0  0
    0.1044    0.8071    1.8311 H   0  0  0  0  0  0  0  0  0  0  0  0
    1.1654    1.8429    0.8967 H   0  0  0  0  0  0  0  0  0  0  0  0
   -0.7177    2.7236    1.3318 C   0  0  0  0  0  0  0  0  0  0  0  0
   -0.6680    3.9716    0.7091 N   0  3  0  0  0  0  0  0  0  0  0  0
   -0.0263    4.1861   -0.0600 H   0  0  0  0  0  0  0  0  0  0  0  0
   -1.4940    4.8028    1.2983 C   0  0  0  0  0  0  0  0  0  0  0  0
   -1.6509    5.8523    1.0403 H   0  0  0  0  0  0  0  0  0  0  0  0
   -2.1218    4.1026    2.3276 N   0  0  0  0  0  0  0  0  0  0  0  0
   -2.8083    4.4898    2.9826 H   0  0  0  0  0  0  0  0  0  0  0  0
   -1.6266    2.8042    2.3551 C   0  0  0  0  0  0  0  0  0  0  0  0
   -1.8831    2.0043    3.0514 H   0  0  0  0  0  0  0  0  0  0  0  0
    0.7718   -0.1749   -0.7117 C   0  0  0  0  0  0  0  0  0  0  0  0
    1.8162    0.2929   -1.1419 O   0  0  0  0  0  0  0  0  0  0  0  0
    0.6018   -1.5454   -0.6618 N   0  0  0  0  0  0  0  0  0  0  0  0
   -0.1538   -1.8710   -0.0588 H   0  0  0  0  0  0  0  0  0  0  0  0
    1.6764   -2.4825   -0.9762 C   0  0  0  0  0  0  0  0  0  0  0  0
    2.5086   -2.3635   -0.2741 H   0  0  0  0  0  0  0  0  0  0  0  0
    1.3127   -3.5129   -0.9115 H   0  0  0  0  0  0  0  0  0  0  0  0
    2.0490   -2.3148   -1.9926 H   0  0  0  0  0  0  0  0  0  0  0  0
  1  2  1  0  0  0  0
  2  3  1  0  0  0  0
  2  4  1  0  0  0  0
  2  5  1  0  0  0  0
  5  6  2  0  0  0  0
  5  7  1  0  0  0  0
  7  8  1  0  0  0  0
  7  9  1  0  0  0  0
  9 10  1  0  0  0  0
  9 11  1  0  0  0  0
  9 23  1  0  0  0  0
 11 12  1  0  0  0  0
 11 13  1  0  0  0  0
 11 14  1  0  0  0  0
 14 15  1  0  0  0  0
 14 21  2  0  0  0  0
 15 16  1  0  0  0  0
 15 17  2  0  0  0  0
 17 18  1  0  0  0  0
 17 19  1  0  0  0  0
 19 20  1  0  0  0  0
 19 21  1  0  0  0  0
 21 22  1  0  0  0  0
 23 24  2  0  0  0  0
 23 25  1  0  0  0  0
 25 26  1  0  0  0  0
 25 27  1  0  0  0  0
 27 28  1  0  0  0  0
 27 29  1  0  0  0  0
 27 30  1  0  0  0  0
M  CHG  1  15   1
M  END
$$$$

  -OEChem-01062216083D

 30 30  0     1  0  0  0  0  0999 V2000
   -3.6634   -2.0693    1.2982 H   0  0  0  0  0  0  0  0  0  0  0  0
   -3.5153   -1.2775    0.5578 C   0  0  0  0  0  0  0  0  0  0  0  0
   -4.2405   -0.4824    0.7461 H   0  0  0  0  0  0  0  0  0  0  0  0
   -3.6909   -1.6933   -0.4376 H   0  0  0  0  0  0  0  0  0  0  0  0
   -2.1036   -0.7317    0.6528 C   0  0  0  0  0  0  0  0  0  0  0  0
   -1.3222   -1.2039    1.4578 O   0  0  0  0  0  0  0  0  0  0  0  0
   -1.6936    0.2793   -0.1972 N   0  0  0  0  0  0  0  0  0  0  0  0
   -2.3656    0.5388   -0.9164 H   0  0  0  0  0  0  0  0  0  0  0  0
   -0.3216    0.8368   -0.3156 C   0  0  1  0  0  0  0  0  0  0  0  0
   -0.3345    1.5853   -1.1136 H   0  0  0  0  0  0  0  0  0  0  0  0
    0.1210    1.5277    0.9974 C   0  0  0  0  0  0  0  0  0  0  0  0
    0.1004    0.8113    1.8244 H   0  0  0  0  0  0  0  0  0  0  0  0
    1.1615    1.8605    0.9081 H   0  0  0  0  0  0  0  0  0  0  0  0
   -0.7275    2.7267    1.3310 C   0  0  0  0  0  0  0  0  0  0  0  0
   -0.6792    3.9784    0.7157 N   0  3  0  0  0  0  0  0  0  0  0  0
   -0.0296    4.2015   -0.0442 H   0  0  0  0  0  0  0  0  0  0  0  0
   -1.5080    4.8045    1.3082 C   0  0  0  0  0  0  0  0  0  0  0  0
   -1.6637    5.8562    1.0587 H   0  0  0  0  0  0  0  0  0  0  0  0
   -2.1387    4.0960    2.3300 N   0  0  0  0  0  0  0  0  0  0  0  0
   -2.8249    4.4789    2.9880 H   0  0  0  0  0  0  0  0  0  0  0  0
   -1.6409    2.7985    2.3508 C   0  0  0  0  0  0  0  0  0  0  0  0
   -1.8964    1.9942    3.0423 H   0  0  0  0  0  0  0  0  0  0  0  0
    0.7829   -0.1670   -0.7262 C   0  0  0  0  0  0  0  0  0  0  0  0
    1.8941    0.2845   -0.9651 O   0  0  0  0  0  0  0  0  0  0  0  0
    0.5242   -1.5031   -0.9682 N   0  0  0  0  0  0  0  0  0  0  0  0
   -0.3164   -1.8720   -0.5295 H   0  0  0  0  0  0  0  0  0  0  0  0
    1.5745   -2.4513   -1.3293 C   0  0  0  0  0  0  0  0  0  0  0  0
    2.3108   -2.5360   -0.5227 H   0  0  0  0  0  0  0  0  0  0  0  0
    1.1457   -3.4416   -1.5122 H   0  0  0  0  0  0  0  0  0  0  0  0
    2.0893   -2.1280   -2.2407 H   0  0  0  0  0  0  0  0  0  0  0  0
  1  2  1  0  0  0  0
  2  3  1  0  0  0  0
  2  4  1  0  0  0  0
  2  5  1  0  0  0  0
  5  6  2  0  0  0  0
  5  7  1  0  0  0  0
  7  8  1  0  0  0  0
  7  9  1  0  0  0  0
  9 10  1  0  0  0  0
  9 11  1  0  0  0  0
  9 23  1  0  0  0  0
 11 12  1  0  0  0  0
 11 13  1  0  0  0  0
 11 14  1  0  0  0  0
 14 15  1  0  0  0  0
 14 21  2  0  0  0  0
 15 16  1  0  0  0  0
 15 17  2  0  0  0  0
 17 18  1  0  0  0  0
 17 19  1  0  0  0  0
 19 20  1  0  0  0  0
 19 21  1  0  0  0  0
 21 22  1  0  0  0  0
 23 24  2  0  0  0  0
 23 25  1  0  0  0  0
 25 26  1  0  0  0  0
 25 27  1  0  0  0  0
 27 28  1  0  0  0  0
 27 29  1  0  0  0  0
 27 30  1  0  0  0  0
M  CHG  1  15   1
M  END
$$$$

  -OEChem-01062216083D

 30 30  0     1  0  0  0  0  0999 V2000
   -3.5999   -2.0963    1.2782 H   0  0  0  0  0  0  0  0  0  0  0  0
   -3.4627   -1.3002    0.5402 C   0  0  0  0  0  0  0  0  0  0  0  0
   -4.2036   -0.5191    0.7257 H   0  0  0  0  0  0  0  0  0  0  0  0
   -3.6253   -1.7176   -0.4566 H   0  0  0  0  0  0  0  0  0  0  0  0
   -2.0616   -0.7285    0.6443 C   0  0  0  0  0  0  0  0  0  0  0  0
   -1.2847   -1.1751    1.4670 O   0  0  0  0  0  0  0  0  0  0  0  0
   -1.6668    0.2918   -0.2031 N   0  0  0  0  0  0  0  0  0  0  0  0
   -2.3450    0.5529   -0.9159 H   0  0  0  0  0  0  0  0  0  0  0  0
   -0.2995    0.8611   -0.3184 C   0  0  1  0  0  0  0  0  0  0  0  0
   -0.3111    1.6113   -1.1144 H   0  0  0  0  0  0  0  0  0  0  0  0
    0.1331    1.5522    1.0003 C   0  0  0  0  0  0  0  0  0  0  0  0
    0.1208    0.8331    1.8251 H   0  0  0  0  0  0  0  0  0  0  0  0
    1.1686    1.9006    0.9167 H   0  0  0  0  0  0  0  0  0  0  0  0
   -0.7280    2.7411    1.3358 C   0  0  0  0  0  0  0  0  0  0  0  0
   -0.6927    3.9962    0.7273 N   0  3  0  0  0  0  0  0  0  0  0  0
   -0.0438    4.2305   -0.0295 H   0  0  0  0  0  0  0  0  0  0  0  0
   -1.5311    4.8100    1.3232 C   0  0  0  0  0  0  0  0  0  0  0  0
   -1.6985    5.8608    1.0778 H   0  0  0  0  0  0  0  0  0  0  0  0
   -2.1535    4.0901    2.3422 N   0  0  0  0  0  0  0  0  0  0  0  0
   -2.8428    4.4623    3.0030 H   0  0  0  0  0  0  0  0  0  0  0  0
   -1.6407    2.7984    2.3572 C   0  0  0  0  0  0  0  0  0  0  0  0
   -1.8851    1.9878    3.0459 H   0  0  0  0  0  0  0  0  0  0  0  0
    0.7941   -0.1535   -0.7369 C   0  0  0  0  0  0  0  0  0  0  0  0
    1.9590    0.2189   -0.7513 O   0  0  0  0  0  0  0  0  0  0  0  0
    0.4773   -1.3899   -1.2689 N   0  0  0  0  0  0  0  0  0  0  0  0
   -0.4652   -1.7255   -1.0976 H   0  0  0  0  0  0  0  0  0  0  0  0
    1.4942   -2.3625   -1.6596 C   0  0  0  0  0  0  0  0  0  0  0  0
    2.1234   -2.6262   -0.8024 H   0  0  0  0  0  0  0  0  0  0  0  0
    1.0235   -3.2760   -2.0360 H   0  0  0  0  0  0  0  0  0  0  0  0
    2.1325   -1.9545   -2.4509 H   0  0  0  0  0  0  0  0  0  0  0  0
  1  2  1  0  0  0  0
  2  3  1  0  0  0  0
  2  4  1  0  0  0  0
  2  5  1  0  0  0  0
  5  6  2  0  0  0  0
  5  7  1  0  0  0  0
  7  8  1  0  0  0  0
  7  9  1  0  0  0  0
  9 10  1  0  0  0  0
  9 11  1  0  0  0  0
  9 23  1  0  0  0  0
 11 12  1  0  0  0  0
 11 13  1  0  0  0  0
 11 14  1  0  0  0  0
 14 15  1  0  0  0  0
 14 21  2  0  0  0  0
 15 16  1  0  0  0  0
 15 17  2  0  0  0  0
 17 18  1  0  0  0  0
 17 19  1  0  0  0  0
 19 20  1  0  0  0  0
 19 21  1  0  0  0  0
 21 22  1  0  0  0  0
 23 24  2  0  0  0  0
 23 25  1  0  0  0  0
 25 26  1  0  0  0  0
 25 27  1  0  0  0  0
 27 28  1  0  0  0  0
 27 29  1  0  0  0  0
 27 30  1  0  0  0  0
M  CHG  1  15   1
M  END
$$$$

  -OEChem-01062216083D

 30 30  0     1  0  0  0  0  0999 V2000
   -3.5190   -2.1386    1.2472 H   0  0  0  0  0  0  0  0  0  0  0  0
   -3.3969   -1.3357    0.5140 C   0  0  0  0  0  0  0  0  0  0  0  0
   -4.1610   -0.5763    0.6953 H   0  0  0  0  0  0  0  0  0  0  0  0
   -3.5368   -1.7537   -0.4859 H   0  0  0  0  0  0  0  0  0  0  0  0
   -2.0136   -0.7260    0.6359 C   0  0  0  0  0  0  0  0  0  0  0  0
   -1.2457   -1.1371    1.4850 O   0  0  0  0  0  0  0  0  0  0  0  0
   -1.6362    0.3018   -0.2117 N   0  0  0  0  0  0  0  0  0  0  0  0
   -2.3175    0.5530   -0.9248 H   0  0  0  0  0  0  0  0  0  0  0  0
   -0.2758    0.8870   -0.3211 C   0  0  1  0  0  0  0  0  0  0  0  0
   -0.2871    1.6358   -1.1183 H   0  0  0  0  0  0  0  0  0  0  0  0
    0.1453    1.5844    0.9997 C   0  0  0  0  0  0  0  0  0  0  0  0
    0.1452    0.8657    1.8246 H   0  0  0  0  0  0  0  0  0  0  0  0
    1.1755    1.9475    0.9156 H   0  0  0  0  0  0  0  0  0  0  0  0
   -0.7276    2.7642    1.3369 C   0  0  0  0  0  0  0  0  0  0  0  0
   -0.7101    4.0233    0.7357 N   0  3  0  0  0  0  0  0  0  0  0  0
   -0.0620    4.2727   -0.0168 H   0  0  0  0  0  0  0  0  0  0  0  0
   -1.5567    4.8228    1.3398 C   0  0  0  0  0  0  0  0  0  0  0  0
   -1.7355    5.8740    1.1047 H   0  0  0  0  0  0  0  0  0  0  0  0
   -2.1703    4.0879    2.3533 N   0  0  0  0  0  0  0  0  0  0  0  0
   -2.8623    4.4469    3.0186 H   0  0  0  0  0  0  0  0  0  0  0  0
   -1.6416    2.8028    2.3580 C   0  0  0  0  0  0  0  0  0  0  0  0
   -1.8757    1.9839    3.0402 H   0  0  0  0  0  0  0  0  0  0  0  0
    0.8054   -0.1428   -0.7400 C   0  0  0  0  0  0  0  0  0  0  0  0
    1.9843    0.0957   -0.5188 O   0  0  0  0  0  0  0  0  0  0  0  0
    0.4828   -1.2254   -1.5388 N   0  0  0  0  0  0  0  0  0  0  0  0
   -0.5019   -1.4542   -1.6263 H   0  0  0  0  0  0  0  0  0  0  0  0
    1.4662   -2.2222   -1.9555 C   0  0  0  0  0  0  0  0  0  0  0  0
    1.8963   -2.7247   -1.0821 H   0  0  0  0  0  0  0  0  0  0  0  0
    0.9968   -2.9780   -2.5929 H   0  0  0  0  0  0  0  0  0  0  0  0
    2.2767   -1.7517   -2.5230 H   0  0  0  0  0  0  0  0  0  0  0  0
  1  2  1  0  0  0  0
  2  3  1  0  0  0  0
  2  4  1  0  0  0  0
  2  5  1  0  0  0  0
  5  6  2  0  0  0  0
  5  7  1  0  0  0  0
  7  8  1  0  0  0  0
  7  9  1  0  0  0  0
  9 10  1  0  0  0  0
  9 11  1  0  0  0  0
  9 23  1  0  0  0  0
 11 12  1  0  0  0  0
 11 13  1  0  0  0  0
 11 14  1  0  0  0  0
 14 15  1  0  0  0  0
 14 21  2  0  0  0  0
 15 16  1  0  0  0  0
 15 17  2  0  0  0  0
 17 18  1  0  0  0  0
 17 19  1  0  0  0  0
 19 20  1  0  0  0  0
 19 21  1  0  0  0  0
 21 22  1  0  0  0  0
 23 24  2  0  0  0  0
 23 25  1  0  0  0  0
 25 26  1  0  0  0  0
 25 27  1  0  0  0  0
 27 28  1  0  0  0  0
 27 29  1  0  0  0  0
 27 30  1  0  0  0  0
M  CHG  1  15   1
M  END
$$$$

  -OEChem-01062216083D

 30 30  0     1  0  0  0  0  0999 V2000
   -3.4752   -2.1588    1.2267 H   0  0  0  0  0  0  0  0  0  0  0  0
   -3.3537   -1.3598    0.4893 C   0  0  0  0  0  0  0  0  0  0  0  0
   -4.1365   -0.6145    0.6483 H   0  0  0  0  0  0  0  0  0  0  0  0
   -3.4647   -1.7892   -0.5095 H   0  0  0  0  0  0  0  0  0  0  0  0
   -1.9852   -0.7218    0.6337 C   0  0  0  0  0  0  0  0  0  0  0  0
   -1.2312   -1.1067    1.5069 O   0  0  0  0  0  0  0  0  0  0  0  0
   -1.6140    0.3093   -0.2132 N   0  0  0  0  0  0  0  0  0  0  0  0
   -2.2931    0.5476   -0.9324 H   0  0  0  0  0  0  0  0  0  0  0  0
   -0.2582    0.9050   -0.3175 C   0  0  1  0  0  0  0  0  0  0  0  0
   -0.2675    1.6528   -1.1153 H   0  0  0  0  0  0  0  0  0  0  0  0
    0.1588    1.6063    1.0028 C   0  0  0  0  0  0  0  0  0  0  0  0
    0.1664    0.8881    1.8283 H   0  0  0  0  0  0  0  0  0  0  0  0
    1.1869    1.9749    0.9147 H   0  0  0  0  0  0  0  0  0  0  0  0
   -0.7216    2.7806    1.3404 C   0  0  0  0  0  0  0  0  0  0  0  0
   -0.7182    4.0418    0.7432 N   0  3  0  0  0  0  0  0  0  0  0  0
   -0.0721    4.3020   -0.0069 H   0  0  0  0  0  0  0  0  0  0  0  0
   -1.5769    4.8287    1.3469 C   0  0  0  0  0  0  0  0  0  0  0  0
   -1.7703    5.8778    1.1135 H   0  0  0  0  0  0  0  0  0  0  0  0
   -2.1821    4.0837    2.3579 N   0  0  0  0  0  0  0  0  0  0  0  0
   -2.8813    4.4313    3.0216 H   0  0  0  0  0  0  0  0  0  0  0  0
   -1.6363    2.8059    2.3611 C   0  0  0  0  0  0  0  0  0  0  0  0
   -1.8611    1.9817    3.0404 H   0  0  0  0  0  0  0  0  0  0  0  0
    0.8130   -0.1372   -0.7331 C   0  0  0  0  0  0  0  0  0  0  0  0
    1.9539   -0.0601   -0.2992 O   0  0  0  0  0  0  0  0  0  0  0  0
    0.5529   -1.0259   -1.7614 N   0  0  0  0  0  0  0  0  0  0  0  0
   -0.4120   -1.1225   -2.0603 H   0  0  0  0  0  0  0  0  0  0  0  0
    1.5240   -2.0194   -2.2132 C   0  0  0  0  0  0  0  0  0  0  0  0
    1.7645   -2.7165   -1.4031 H   0  0  0  0  0  0  0  0  0  0  0  0
    1.1217   -2.5918   -3.0548 H   0  0  0  0  0  0  0  0  0  0  0  0
    2.4490   -1.5328   -2.5419 H   0  0  0  0  0  0  0  0  0  0  0  0
  1  2  1  0  0  0  0
  2  3  1  0  0  0  0
  2  4  1  0  0  0  0
  2  5  1  0  0  0  0
  5  6  2  0  0  0  0
  5  7  1  0  0  0  0
  7  8  1  0  0  0  0
  7  9  1  0  0  0  0
  9 10  1  0  0  0  0
  9 11  1  0  0  0  0
  9 23  1  0  0  0  0
 11 12  1  0  0  0  0
 11 13  1  0  0  0  0
 11 14  1  0  0  0  0
 14 15  1  0  0  0  0
 14 21  2  0  0  0  0
 15 16  1  0  0  0  0
 15 17  2  0  0  0  0
 17 18  1  0  0  0  0
 17 19  1  0  0  0  0
 19 20  1  0  0  0  0
 19 21  1  0  0  0  0
 21 22  1  0  0  0  0
 23 24  2  0  0  0  0
 23 25  1  0  0  0  0
 25 26  1  0  0  0  0
 25 27  1  0  0  0  0
 27 28  1  0  0  0  0
 27 29  1  0  0  0  0
 27 30  1  0  0  0  0
M  CHG  1  15   1
M  END
$$$$

  -OEChem-01062216083D

 30 30  0     1  0  0  0  0  0999 V2000
   -3.4415   -2.1877    1.1946 H   0  0  0  0  0  0  0  0  0  0  0  0
   -3.3169   -1.3960    0.4497 C   0  0  0  0  0  0  0  0  0  0  0  0
   -4.1322   -0.6776    0.5619 H   0  0  0  0  0  0  0  0  0  0  0  0
   -3.3678   -1.8442   -0.5455 H   0  0  0  0  0  0  0  0  0  0  0  0
   -1.9800   -0.7062    0.6422 C   0  0  0  0  0  0  0  0  0  0  0  0
   -1.2620   -1.0381    1.5659 O   0  0  0  0  0  0  0  0  0  0  0  0
   -1.6108    0.3215   -0.2100 N   0  0  0  0  0  0  0  0  0  0  0  0
   -2.2665    0.5042   -0.9657 H   0  0  0  0  0  0  0  0  0  0  0  0
   -0.2577    0.9215   -0.3174 C   0  0  1  0  0  0  0  0  0  0  0  0
   -0.2678    1.6686   -1.1159 H   0  0  0  0  0  0  0  0  0  0  0  0
    0.1667    1.6261    0.9988 C   0  0  0  0  0  0  0  0  0  0  0  0
    0.1838    0.9114    1.8272 H   0  0  0  0  0  0  0  0  0  0  0  0
    1.1943    1.9927    0.8985 H   0  0  0  0  0  0  0  0  0  0  0  0
   -0.7120    2.7997    1.3428 C   0  0  0  0  0  0  0  0  0  0  0  0
   -0.7221    4.0637    0.7514 N   0  3  0  0  0  0  0  0  0  0  0  0
   -0.0845    4.3321   -0.0029 H   0  0  0  0  0  0  0  0  0  0  0  0
   -1.5802    4.8420    1.3676 C   0  0  0  0  0  0  0  0  0  0  0  0
   -1.7818    5.8915    1.1437 H   0  0  0  0  0  0  0  0  0  0  0  0
   -2.1737    4.0870    2.3782 N   0  0  0  0  0  0  0  0  0  0  0  0
   -2.8703    4.4258    3.0491 H   0  0  0  0  0  0  0  0  0  0  0  0
   -1.6207    2.8127    2.3687 C   0  0  0  0  0  0  0  0  0  0  0  0
   -1.8367    1.9806    3.0416 H   0  0  0  0  0  0  0  0  0  0  0  0
    0.8063   -0.1303   -0.7279 C   0  0  0  0  0  0  0  0  0  0  0  0
    1.8602   -0.2310   -0.1160 O   0  0  0  0  0  0  0  0  0  0  0  0
    0.6731   -0.8058   -1.9284 N   0  0  0  0  0  0  0  0  0  0  0  0
   -0.2206   -0.7485   -2.4057 H   0  0  0  0  0  0  0  0  0  0  0  0
    1.6525   -1.7819   -2.4005 C   0  0  0  0  0  0  0  0  0  0  0  0
    1.7355   -2.6146   -1.6933 H   0  0  0  0  0  0  0  0  0  0  0  0
    1.3531   -2.1834   -3.3736 H   0  0  0  0  0  0  0  0  0  0  0  0
    2.6383   -1.3169   -2.5103 H   0  0  0  0  0  0  0  0  0  0  0  0
  1  2  1  0  0  0  0
  2  3  1  0  0  0  0
  2  4  1  0  0  0  0
  2  5  1  0  0  0  0
  5  6  2  0  0  0  0
  5  7  1  0  0  0  0
  7  8  1  0  0  0  0
  7  9  1  0  0  0  0
  9 10  1  0  0  0  0
  9 11  1  0  0  0  0
  9 23  1  0  0  0  0
 11 12  1  0  0  0  0
 11 13  1  0  0  0  0
 11 14  1  0  0  0  0
 14 15  1  0  0  0  0
 14 21  2  0  0  0  0
 15 16  1  0  0  0  0
 15 17  2  0  0  0  0
 17 18  1  0  0  0  0
 17 19  1  0  0  0  0
 19 20  1  0  0  0  0
 19 21  1  0  0  0  0
 21 22  1  0  0  0  0
 23 24  2  0  0  0  0
 23 25  1  0  0  0  0
 25 26  1  0  0  0  0
 25 27  1  0  0  0  0
 27 28  1  0  0  0  0
 27 29  1  0  0  0  0
 27 30  1  0  0  0  0
M  CHG  1  15   1
M  END
$$$$

  -OEChem-01062216083D

 30 30  0     1  0  0  0  0  0999 V2000
   -3.4029   -2.2233    1.1636 H   0  0  0  0  0  0  0  0  0  0  0  0
   -3.2784   -1.4382    0.4118 C   0  0  0  0  0  0  0  0  0  0  0  0
   -4.1311   -0.7580    0.4704 H   0  0  0  0  0  0  0  0  0  0  0  0
   -3.2570   -1.9044   -0.5763 H   0  0  0  0  0  0  0  0  0  0  0  0
   -1.9869   -0.6820    0.6582 C   0  0  0  0  0  0  0  0  0  0  0  0
   -1.3214   -0.9435    1.6418 O   0  0  0  0  0  0  0  0  0  0  0  0
   -1.6192    0.3393   -0.2032 N   0  0  0  0  0  0  0  0  0  0  0  0
   -2.2441    0.4556   -0.9970 H   0  0  0  0  0  0  0  0  0  0  0  0
   -0.2663    0.9390   -0.3193 C   0  0  1  0  0  0  0  0  0  0  0  0
   -0.2795    1.6871   -1.1165 H   0  0  0  0  0  0  0  0  0  0  0  0
    0.1742    1.6434    0.9911 C   0  0  0  0  0  0  0  0  0  0  0  0
    0.2004    0.9316    1.8219 H   0  0  0  0  0  0  0  0  0  0  0  0
    1.2027    2.0032    0.8754 H   0  0  0  0  0  0  0  0  0  0  0  0
   -0.6982    2.8188    1.3451 C   0  0  0  0  0  0  0  0  0  0  0  0
   -0.7204    4.0857    0.7600 N   0  3  0  0  0  0  0  0  0  0  0  0
   -0.0913    4.3617    0.0019 H   0  0  0  0  0  0  0  0  0  0  0  0
   -1.5788    4.8554    1.3865 C   0  0  0  0  0  0  0  0  0  0  0  0
   -1.7887    5.9046    1.1692 H   0  0  0  0  0  0  0  0  0  0  0  0
   -2.1603    4.0915    2.3974 N   0  0  0  0  0  0  0  0  0  0  0  0
   -2.8569    4.4207    3.0730 H   0  0  0  0  0  0  0  0  0  0  0  0
   -1.6008    2.8204    2.3762 C   0  0  0  0  0  0  0  0  0  0  0  0
   -1.8107    1.9803    3.0416 H   0  0  0  0  0  0  0  0  0  0  0  0
    0.7922   -0.1198   -0.7254 C   0  0  0  0  0  0  0  0  0  0  0  0
    1.7115   -0.4170    0.0234 O   0  0  0  0  0  0  0  0  0  0  0  0
    0.8352   -0.5752   -2.0319 N   0  0  0  0  0  0  0  0  0  0  0  0
    0.0569   -0.3476   -2.6427 H   0  0  0  0  0  0  0  0  0  0  0  0
    1.8353   -1.5297   -2.5065 C   0  0  0  0  0  0  0  0  0  0  0  0
    1.7600   -2.4724   -1.9535 H   0  0  0  0  0  0  0  0  0  0  0  0
    1.6874   -1.7405   -3.5704 H   0  0  0  0  0  0  0  0  0  0  0  0
    2.8457   -1.1275   -2.3744 H   0  0  0  0  0  0  0  0  0  0  0  0
  1  2  1  0  0  0  0
  2  3  1  0  0  0  0
  2  4  1  0  0  0  0
  2  5  1  0  0  0  0
  5  6  2  0  0  0  0
  5  7  1  0  0  0  0
  7  8  1  0  0  0  0
  7  9  1  0  0  0  0
  9 10  1  0  0  0  0
  9 11  1  0  0  0  0
  9 23  1  0  0  0  0
 11 12  1  0  0  0  0
 11 13  1  0  0  0  0
 11 14  1  0  0  0  0
 14 15  1  0  0  0  0
 14 21  2  0  0  0  0
 15 16  1  0  0  0  0
 15 17  2  0  0  0  0
 17 18  1  0  0  0  0
 17 19  1  0  0  0  0
 19 20  1  0  0  0  0
 19 21  1  0  0  0  0
 21 22  1  0  0  0  0
 23 24  2  0  0  0  0
 23 25  1  0  0  0  0
 25 26  1  0  0  0  0
 25 27  1  0  0  0  0
 27 28  1  0  0  0  0
 27 29  1  0  0  0  0
 27 30  1  0  0  0  0
M  CHG  1  15   1
M  END
$$$$

  -OEChem-01062216083D

 30 30  0     1  0  0  0  0  0999 V2000
   -3.3630   -2.2337    1.1562 H   0  0  0  0  0  0  0  0  0  0  0  0
   -3.2198   -1.4851    0.3712 C   0  0  0  0  0  0  0  0  0  0  0  0
   -4.1118   -0.8567    0.3184 H   0  0  0  0  0  0  0  0  0  0  0  0
   -3.0875   -2.0030   -0.5817 H   0  0  0  0  0  0  0  0  0  0  0  0
   -1.9991   -0.6382    0.6761 C   0  0  0  0  0  0  0  0  0  0  0  0
   -1.4262   -0.7855    1.7392 O   0  0  0  0  0  0  0  0  0  0  0  0
   -1.6352    0.3714   -0.2018 N   0  0  0  0  0  0  0  0  0  0  0  0
   -2.2157    0.3980   -1.0364 H   0  0  0  0  0  0  0  0  0  0  0  0
   -0.2816    0.9685   -0.3323 C   0  0  1  0  0  0  0  0  0  0  0  0
   -0.3012    1.7176   -1.1285 H   0  0  0  0  0  0  0  0  0  0  0  0
    0.1848    1.6644    0.9732 C   0  0  0  0  0  0  0  0  0  0  0  0
    0.2258    0.9519    1.8024 H   0  0  0  0  0  0  0  0  0  0  0  0
    1.2133    2.0169    0.8394 H   0  0  0  0  0  0  0  0  0  0  0  0
   -0.6766    2.8409    1.3482 C   0  0  0  0  0  0  0  0  0  0  0  0
   -0.7143    4.1147    0.7793 N   0  3  0  0  0  0  0  0  0  0  0  0
   -0.0953    4.4064    0.0190 H   0  0  0  0  0  0  0  0  0  0  0  0
   -1.5759    4.8680    1.4219 C   0  0  0  0  0  0  0  0  0  0  0  0
   -1.7984    5.9175    1.2192 H   0  0  0  0  0  0  0  0  0  0  0  0
   -2.1450    4.0851    2.4254 N   0  0  0  0  0  0  0  0  0  0  0  0
   -2.8461    4.3956    3.1051 H   0  0  0  0  0  0  0  0  0  0  0  0
   -1.5761    2.8193    2.3816 C   0  0  0  0  0  0  0  0  0  0  0  0
   -1.7826    1.9631    3.0281 H   0  0  0  0  0  0  0  0  0  0  0  0
    0.7734   -0.0964   -0.7305 C   0  0  0  0  0  0  0  0  0  0  0  0
    1.5010   -0.6131    0.1036 O   0  0  0  0  0  0  0  0  0  0  0  0
    1.0275   -0.3443   -2.0686 N   0  0  0  0  0  0  0  0  0  0  0  0
    0.4064    0.0641   -2.7604 H   0  0  0  0  0  0  0  0  0  0  0  0
    2.0416   -1.2956   -2.5200 C   0  0  0  0  0  0  0  0  0  0  0  0
    1.8195   -2.3007   -2.1450 H   0  0  0  0  0  0  0  0  0  0  0  0
    2.0702   -1.3340   -3.6136 H   0  0  0  0  0  0  0  0  0  0  0  0
    3.0339   -1.0006   -2.1612 H   0  0  0  0  0  0  0  0  0  0  0  0
  1  2  1  0  0  0  0
  2  3  1  0  0  0  0
  2  4  1  0  0  0  0
  2  5  1  0  0  0  0
  5  6  2  0  0  0  0
  5  7  1  0  0  0  0
  7  8  1  0  0  0  0
  7  9  1  0  0  0  0
  9 10  1  0  0  0  0
  9 11  1  0  0  0  0
  9 23  1  0  0  0  0
 11 12  1  0  0  0  0
 11 13  1  0  0  0  0
 11 14  1  0  0  0  0
 14 15  1  0  0  0  0
 14 21  2  0  0  0  0
 15 16  1  0  0  0  0
 15 17  2  0  0  0  0
 17 18  1  0  0  0  0
 17 19  1  0  0  0  0
 19 20  1  0  0  0  0
 19 21  1  0  0  0  0
 21 22  1  0  0  0  0
 23 24  2  0  0  0  0
 23 25  1  0  0  0  0
 25 26  1  0  0  0  0
 25 27  1  0  0  0  0
 27 28  1  0  0  0  0
 27 29  1  0  0  0  0
 27 30  1  0  0  0  0
M  CHG  1  15   1
M  END
$$$$

  -OEChem-01062216083D

 30 30  0     1  0  0  0  0  0999 V2000
   -3.2408   -2.2797    1.1252 H   0  0  0  0  0  0  0  0  0  0  0  0
   -3.0904   -1.5634    0.3121 C   0  0  0  0  0  0  0  0  0  0  0  0
   -4.0331   -1.0464    0.1191 H   0  0  0  0  0  0  0  0  0  0  0  0
   -2.7916   -2.1134   -0.5836 H   0  0  0  0  0  0  0  0  0  0  0  0
   -2.0139   -0.5653    0.6915 C   0  0  0  0  0  0  0  0  0  0  0  0
   -1.6083   -0.5362    1.8401 O   0  0  0  0  0  0  0  0  0  0  0  0
   -1.6600    0.4295   -0.2075 N   0  0  0  0  0  0  0  0  0  0  0  0
   -2.1758    0.3459   -1.0803 H   0  0  0  0  0  0  0  0  0  0  0  0
   -0.3030    1.0188   -0.3448 C   0  0  1  0  0  0  0  0  0  0  0  0
   -0.3209    1.7682   -1.1404 H   0  0  0  0  0  0  0  0  0  0  0  0
    0.1927    1.6952    0.9580 C   0  0  0  0  0  0  0  0  0  0  0  0
    0.2458    0.9746    1.7796 H   0  0  0  0  0  0  0  0  0  0  0  0
    1.2206    2.0428    0.8088 H   0  0  0  0  0  0  0  0  0  0  0  0
   -0.6559    2.8740    1.3559 C   0  0  0  0  0  0  0  0  0  0  0  0
   -0.7056    4.1571    0.8088 N   0  3  0  0  0  0  0  0  0  0  0  0
   -0.1012    4.4637    0.0430 H   0  0  0  0  0  0  0  0  0  0  0  0
   -1.5725    4.8916    1.4664 C   0  0  0  0  0  0  0  0  0  0  0  0
   -1.8097    5.9405    1.2788 H   0  0  0  0  0  0  0  0  0  0  0  0
   -2.1290    4.0887    2.4610 N   0  0  0  0  0  0  0  0  0  0  0  0
   -2.8363    4.3782    3.1435 H   0  0  0  0  0  0  0  0  0  0  0  0
   -1.5515    2.8286    2.3918 C   0  0  0  0  0  0  0  0  0  0  0  0
   -1.7560    1.9549    3.0161 H   0  0  0  0  0  0  0  0  0  0  0  0
    0.7417   -0.0606   -0.7265 C   0  0  0  0  0  0  0  0  0  0  0  0
    1.1926   -0.8258    0.1111 O   0  0  0  0  0  0  0  0  0  0  0  0
    1.2320   -0.1286   -2.0193 N   0  0  0  0  0  0  0  0  0  0  0  0
    0.8302    0.4826   -2.7239 H   0  0  0  0  0  0  0  0  0  0  0  0
    2.2227   -1.1176   -2.4402 C   0  0  0  0  0  0  0  0  0  0  0  0
    1.8432   -2.1334   -2.2836 H   0  0  0  0  0  0  0  0  0  0  0  0
    2.4558   -0.9976   -3.5030 H   0  0  0  0  0  0  0  0  0  0  0  0
    3.1504   -0.9996   -1.8694 H   0  0  0  0  0  0  0  0  0  0  0  0
  1  2  1  0  0  0  0
  2  3  1  0  0  0  0
  2  4  1  0  0  0  0
  2  5  1  0  0  0  0
  5  6  2  0  0  0  0
  5  7  1  0  0  0  0
  7  8  1  0  0  0  0
  7  9  1  0  0  0  0
  9 10  1  0  0  0  0
  9 11  1  0  0  0  0
  9 23  1  0  0  0  0
 11 12  1  0  0  0  0
 11 13  1  0  0  0  0
 11 14  1  0  0  0  0
 14 15  1  0  0  0  0
 14 21  2  0  0  0  0
 15 16  1  0  0  0  0
 15 17  2  0  0  0  0
 17 18  1  0  0  0  0
 17 19  1  0  0  0  0
 19 20  1  0  0  0  0
 19 21  1  0  0  0  0
 21 22  1  0  0  0  0
 23 24  2  0  0  0  0
 23 25  1  0  0  0  0
 25 26  1  0  0  0  0
 25 27  1  0  0  0  0
 27 28  1  0  0  0  0
 27 29  1  0  0  0  0
 27 30  1  0  0  0  0
M  CHG  1  15   1
M  END
$$$$

  -OEChem-01062216083D

 30 30  0     1  0  0  0  0  0999 V2000
   -3.1924   -2.2886    1.1370 H   0  0  0  0  0  0  0  0  0  0  0  0
   -3.0219   -1.6048    0.3002 C   0  0  0  0  0  0  0  0  0  0  0  0
   -3.9745   -1.1528    0.0145 H   0  0  0  0  0  0  0  0  0  0  0  0
   -2.6287   -2.1794   -0.5420 H   0  0  0  0  0  0  0  0  0  0  0  0
   -2.0289   -0.5311    0.7014 C   0  0  0  0  0  0  0  0  0  0  0  0
   -1.7018   -0.4278    1.8722 O   0  0  0  0  0  0  0  0  0  0  0  0
   -1.6782    0.4543   -0.2099 N   0  0  0  0  0  0  0  0  0  0  0  0
   -2.1623    0.3219   -1.0948 H   0  0  0  0  0  0  0  0  0  0  0  0
   -0.3176    1.0373   -0.3476 C   0  0  1  0  0  0  0  0  0  0  0  0
   -0.3348    1.7854   -1.1443 H   0  0  0  0  0  0  0  0  0  0  0  0
    0.1878    1.7032    0.9553 C   0  0  0  0  0  0  0  0  0  0  0  0
    0.2403    0.9747    1.7705 H   0  0  0  0  0  0  0  0  0  0  0  0
    1.2164    2.0481    0.8056 H   0  0  0  0  0  0  0  0  0  0  0  0
   -0.6542    2.8848    1.3610 C   0  0  0  0  0  0  0  0  0  0  0  0
   -0.7003    4.1707    0.8195 N   0  3  0  0  0  0  0  0  0  0  0  0
   -0.0997    4.4775    0.0510 H   0  0  0  0  0  0  0  0  0  0  0  0
   -1.5660    4.9048    1.4793 C   0  0  0  0  0  0  0  0  0  0  0  0
   -1.8025    5.9542    1.2939 H   0  0  0  0  0  0  0  0  0  0  0  0
   -2.1243    4.0996    2.4709 N   0  0  0  0  0  0  0  0  0  0  0  0
   -2.8350    4.3863    3.1510 H   0  0  0  0  0  0  0  0  0  0  0  0
   -1.5500    2.8384    2.3970 C   0  0  0  0  0  0  0  0  0  0  0  0
   -1.7604    1.9620    3.0159 H   0  0  0  0  0  0  0  0  0  0  0  0
    0.7325   -0.0412   -0.7157 C   0  0  0  0  0  0  0  0  0  0  0  0
    0.9465   -0.9860    0.0269 O   0  0  0  0  0  0  0  0  0  0  0  0
    1.4601    0.0591   -1.8891 N   0  0  0  0  0  0  0  0  0  0  0  0
    1.2420    0.8126   -2.5342 H   0  0  0  0  0  0  0  0  0  0  0  0
    2.4520   -0.9360   -2.2933 C   0  0  0  0  0  0  0  0  0  0  0  0
    1.9849   -1.9199   -2.4113 H   0  0  0  0  0  0  0  0  0  0  0  0
    2.9085   -0.6554   -3.2477 H   0  0  0  0  0  0  0  0  0  0  0  0
    3.2464   -1.0151   -1.5430 H   0  0  0  0  0  0  0  0  0  0  0  0
  1  2  1  0  0  0  0
  2  3  1  0  0  0  0
  2  4  1  0  0  0  0
  2  5  1  0  0  0  0
  5  6  2  0  0  0  0
  5  7  1  0  0  0  0
  7  8  1  0  0  0  0
  7  9  1  0  0  0  0
  9 10  1  0  0  0  0
  9 11  1  0  0  0  0
  9 23  1  0  0  0  0
 11 12  1  0  0  0  0
 11 13  1  0  0  0  0
 11 14  1  0  0  0  0
 14 15  1  0  0  0  0
 14 21  2  0  0  0  0
 15 16  1  0  0  0  0
 15 17  2  0  0  0  0
 17 18  1  0  0  0  0
 17 19  1  0  0  0  0
 19 20  1  0  0  0  0
 19 21  1  0  0  0  0
 21 22  1  0  0  0  0
 23 24  2  0  0  0  0
 23 25  1  0  0  0  0
 25 26  1  0  0  0  0
 25 27  1  0  0  0  0
 27 28  1  0  0  0  0
 27 29  1  0  0  0  0
 27 30  1  0  0  0  0
M  CHG  1  15   1
M  END
$$$$

  -OEChem-01062216083D

 30 30  0     1  0  0  0  0  0999 V2000
   -3.2008   -2.2773    1.1548 H   0  0  0  0  0  0  0  0  0  0  0  0
   -3.0027   -1.6151    0.3071 C   0  0  0  0  0  0  0  0  0  0  0  0
   -3.9467   -1.1808   -0.0299 H   0  0  0  0  0  0  0  0  0  0  0  0
   -2.5690   -2.2082   -0.5020 H   0  0  0  0  0  0  0  0  0  0  0  0
   -2.0366   -0.5210    0.7173 C   0  0  0  0  0  0  0  0  0  0  0  0
   -1.7327   -0.3983    1.8932 O   0  0  0  0  0  0  0  0  0  0  0  0
   -1.6787    0.4579   -0.1985 N   0  0  0  0  0  0  0  0  0  0  0  0
   -2.1440    0.3018   -1.0897 H   0  0  0  0  0  0  0  0  0  0  0  0
   -0.3133    1.0328   -0.3327 C   0  0  1  0  0  0  0  0  0  0  0  0
   -0.3278    1.7769   -1.1335 H   0  0  0  0  0  0  0  0  0  0  0  0
    0.1866    1.6991    0.9706 C   0  0  0  0  0  0  0  0  0  0  0  0
    0.2306    0.9710    1.7864 H   0  0  0  0  0  0  0  0  0  0  0  0
    1.2169    2.0414    0.8276 H   0  0  0  0  0  0  0  0  0  0  0  0
   -0.6545    2.8860    1.3656 C   0  0  0  0  0  0  0  0  0  0  0  0
   -0.6930    4.1707    0.8200 N   0  3  0  0  0  0  0  0  0  0  0  0
   -0.0872    4.4737    0.0543 H   0  0  0  0  0  0  0  0  0  0  0  0
   -1.5670    4.9075    1.4658 C   0  0  0  0  0  0  0  0  0  0  0  0
   -1.8034    5.9555    1.2718 H   0  0  0  0  0  0  0  0  0  0  0  0
   -2.1362    4.1069    2.4545 N   0  0  0  0  0  0  0  0  0  0  0  0
   -2.8565    4.3955    3.1235 H   0  0  0  0  0  0  0  0  0  0  0  0
   -1.5621    2.8452    2.3916 C   0  0  0  0  0  0  0  0  0  0  0  0
   -1.7825    1.9714    3.0103 H   0  0  0  0  0  0  0  0  0  0  0  0
    0.7464   -0.0408   -0.6913 C   0  0  0  0  0  0  0  0  0  0  0  0
    0.7551   -1.1282   -0.1363 O   0  0  0  0  0  0  0  0  0  0  0  0
    1.6871    0.2065   -1.6764 N   0  0  0  0  0  0  0  0  0  0  0  0
    1.6420    1.0849   -2.1836 H   0  0  0  0  0  0  0  0  0  0  0  0
    2.6807   -0.7831   -2.0896 C   0  0  0  0  0  0  0  0  0  0  0  0
    2.1903   -1.6918   -2.4560 H   0  0  0  0  0  0  0  0  0  0  0  0
    3.3076   -0.3834   -2.8930 H   0  0  0  0  0  0  0  0  0  0  0  0
    3.3295   -1.0514   -1.2485 H   0  0  0  0  0  0  0  0  0  0  0  0
  1  2  1  0  0  0  0
  2  3  1  0  0  0  0
  2  4  1  0  0  0  0
  2  5  1  0  0  0  0
  5  6  2  0  0  0  0
  5  7  1  0  0  0  0
  7  8  1  0  0  0  0
  7  9  1  0  0  0  0
  9 10  1  0  0  0  0
  9 11  1  0  0  0  0
  9 23  1  0  0  0  0
 11 12  1  0  0  0  0
 11 13  1  0  0  0  0
 11 14  1  0  0  0  0
 14 15  1  0  0  0  0
 14 21  2  0  0  0  0
 15 16  1  0  0  0  0
 15 17  2  0  0  0  0
 17 18  1  0  0  0  0
 17 19  1  0  0  0  0
 19 20  1  0  0  0  0
 19 21  1  0  0  0  0
 21 22  1  0  0  0  0
 23 24  2  0  0  0  0
 23 25  1  0  0  0  0
 25 26  1  0  0  0  0
 25 27  1  0  0  0  0
 27 28  1  0  0  0  0
 27 29  1  0  0  0  0
 27 30  1  0  0  0  0
M  CHG  1  15   1
M  END
$$$$

  -OEChem-01062216083D

 30 30  0     1  0  0  0  0  0999 V2000
   -3.1883   -2.2899    1.1660 H   0  0  0  0  0  0  0  0  0  0  0  0
   -3.0105   -1.6088    0.3289 C   0  0  0  0  0  0  0  0  0  0  0  0
   -3.9616   -1.1654    0.0258 H   0  0  0  0  0  0  0  0  0  0  0  0
   -2.5982   -2.1837   -0.5045 H   0  0  0  0  0  0  0  0  0  0  0  0
   -2.0322   -0.5256    0.7386 C   0  0  0  0  0  0  0  0  0  0  0  0
   -1.7086   -0.4187    1.9111 O   0  0  0  0  0  0  0  0  0  0  0  0
   -1.6665    0.4508   -0.1766 N   0  0  0  0  0  0  0  0  0  0  0  0
   -2.1223    0.2879   -1.0716 H   0  0  0  0  0  0  0  0  0  0  0  0
   -0.2975    1.0201   -0.3052 C   0  0  1  0  0  0  0  0  0  0  0  0
   -0.3077    1.7575   -1.1124 H   0  0  0  0  0  0  0  0  0  0  0  0
    0.1911    1.6960    0.9971 C   0  0  0  0  0  0  0  0  0  0  0  0
    0.2269    0.9767    1.8209 H   0  0  0  0  0  0  0  0  0  0  0  0
    1.2224    2.0386    0.8629 H   0  0  0  0  0  0  0  0  0  0  0  0
   -0.6559    2.8869    1.3671 C   0  0  0  0  0  0  0  0  0  0  0  0
   -0.6901    4.1660    0.8075 N   0  3  0  0  0  0  0  0  0  0  0  0
   -0.0807    4.4612    0.0415 H   0  0  0  0  0  0  0  0  0  0  0  0
   -1.5770    4.9060    1.4314 C   0  0  0  0  0  0  0  0  0  0  0  0
   -1.8175    5.9496    1.2194 H   0  0  0  0  0  0  0  0  0  0  0  0
   -2.1559    4.1151    2.4225 N   0  0  0  0  0  0  0  0  0  0  0  0
   -2.8882    4.4084    3.0764 H   0  0  0  0  0  0  0  0  0  0  0  0
   -1.5782    2.8541    2.3807 C   0  0  0  0  0  0  0  0  0  0  0  0
   -1.8074    1.9857    3.0041 H   0  0  0  0  0  0  0  0  0  0  0  0
    0.7681   -0.0524   -0.6583 C   0  0  0  0  0  0  0  0  0  0  0  0
    0.5947   -1.2307   -0.3868 O   0  0  0  0  0  0  0  0  0  0  0  0
    1.8883    0.2921   -1.3965 N   0  0  0  0  0  0  0  0  0  0  0  0
    1.9974    1.2559   -1.6959 H   0  0  0  0  0  0  0  0  0  0  0  0
    2.8819   -0.6875   -1.8347 C   0  0  0  0  0  0  0  0  0  0  0  0
    2.4251   -1.4286   -2.4997 H   0  0  0  0  0  0  0  0  0  0  0  0
    3.6944   -0.1933   -2.3768 H   0  0  0  0  0  0  0  0  0  0  0  0
    3.3127   -1.2106   -0.9738 H   0  0  0  0  0  0  0  0  0  0  0  0
  1  2  1  0  0  0  0
  2  3  1  0  0  0  0
  2  4  1  0  0  0  0
  2  5  1  0  0  0  0
  5  6  2  0  0  0  0
  5  7  1  0  0  0  0
  7  8  1  0  0  0  0
  7  9  1  0  0  0  0
  9 10  1  0  0  0  0
  9 11  1  0  0  0  0
  9 23  1  0  0  0  0
 11 12  1  0  0  0  0
 11 13  1  0  0  0  0
 11 14  1  0  0  0  0
 14 15  1  0  0  0  0
 14 21  2  0  0  0  0
 15 16  1  0  0  0  0
 15 17  2  0  0  0  0
 17 18  1  0  0  0  0
 17 19  1  0  0  0  0
 19 20  1  0  0  0  0
 19 21  1  0  0  0  0
 21 22  1  0  0  0  0
 23 24  2  0  0  0  0
 23 25  1  0  0  0  0
 25 26  1  0  0  0  0
 25 27  1  0  0  0  0
 27 28  1  0  0  0  0
 27 29  1  0  0  0  0
 27 30  1  0  0  0  0
M  CHG  1  15   1
M  END
$$$$

  -OEChem-01062216083D

 30 30  0     1  0  0  0  0  0999 V2000
   -3.2254   -2.2686    1.1854 H   0  0  0  0  0  0  0  0  0  0  0  0
   -3.0242   -1.5965    0.3463 C   0  0  0  0  0  0  0  0  0  0  0  0
   -3.9603   -1.1236    0.0408 H   0  0  0  0  0  0  0  0  0  0  0  0
   -2.6303   -2.1869   -0.4851 H   0  0  0  0  0  0  0  0  0  0  0  0
   -2.0105   -0.5444    0.7517 C   0  0  0  0  0  0  0  0  0  0  0  0
   -1.6344   -0.4856    1.9116 O   0  0  0  0  0  0  0  0  0  0  0  0
   -1.6451    0.4405   -0.1543 N   0  0  0  0  0  0  0  0  0  0  0  0
   -2.0993    0.2845   -1.0516 H   0  0  0  0  0  0  0  0  0  0  0  0
   -0.2763    1.0115   -0.2750 C   0  0  1  0  0  0  0  0  0  0  0  0
   -0.2803    1.7440   -1.0869 H   0  0  0  0  0  0  0  0  0  0  0  0
    0.1952    1.7013    1.0277 C   0  0  0  0  0  0  0  0  0  0  0  0
    0.2260    0.9926    1.8598 H   0  0  0  0  0  0  0  0  0  0  0  0
    1.2249    2.0513    0.9041 H   0  0  0  0  0  0  0  0  0  0  0  0
   -0.6629    2.8919    1.3725 C   0  0  0  0  0  0  0  0  0  0  0  0
   -0.6962    4.1647    0.7985 N   0  3  0  0  0  0  0  0  0  0  0  0
   -0.0826    4.4533    0.0334 H   0  0  0  0  0  0  0  0  0  0  0  0
   -1.5956    4.9066    1.4020 C   0  0  0  0  0  0  0  0  0  0  0  0
   -1.8393    5.9464    1.1749 H   0  0  0  0  0  0  0  0  0  0  0  0
   -2.1842    4.1232    2.3933 N   0  0  0  0  0  0  0  0  0  0  0  0
   -2.9272    4.4198    3.0336 H   0  0  0  0  0  0  0  0  0  0  0  0
   -1.5993    2.8648    2.3730 C   0  0  0  0  0  0  0  0  0  0  0  0
   -1.8327    2.0022    3.0025 H   0  0  0  0  0  0  0  0  0  0  0  0
    0.7825   -0.0675   -0.6352 C   0  0  0  0  0  0  0  0  0  0  0  0
    0.4792   -1.2509   -0.6846 O   0  0  0  0  0  0  0  0  0  0  0  0
    2.0387    0.3010   -1.0889 N   0  0  0  0  0  0  0  0  0  0  0  0
    2.2742    1.2872   -1.1271 H   0  0  0  0  0  0  0  0  0  0  0  0
    3.0357   -0.6686   -1.5404 C   0  0  0  0  0  0  0  0  0  0  0  0
    2.6658   -1.2254   -2.4084 H   0  0  0  0  0  0  0  0  0  0  0  0
    3.9618   -0.1603   -1.8270 H   0  0  0  0  0  0  0  0  0  0  0  0
    3.2688   -1.3816   -0.7418 H   0  0  0  0  0  0  0  0  0  0  0  0
  1  2  1  0  0  0  0
  2  3  1  0  0  0  0
  2  4  1  0  0  0  0
  2  5  1  0  0  0  0
  5  6  2  0  0  0  0
  5  7  1  0  0  0  0
  7  8  1  0  0  0  0
  7  9  1  0  0  0  0
  9 10  1  0  0  0  0
  9 11  1  0  0  0  0
  9 23  1  0  0  0  0
 11 12  1  0  0  0  0
 11 13  1  0  0  0  0
 11 14  1  0  0  0  0
 14 15  1  0  0  0  0
 14 21  2  0  0  0  0
 15 16  1  0  0  0  0
 15 17  2  0  0  0  0
 17 18  1  0  0  0  0
 17 19  1  0  0  0  0
 19 20  1  0  0  0  0
 19 21  1  0  0  0  0
 21 22  1  0  0  0  0
 23 24  2  0  0  0  0
 23 25  1  0  0  0  0
 25 26  1  0  0  0  0
 25 27  1  0  0  0  0
 27 28  1  0  0  0  0
 27 29  1  0  0  0  0
 27 30  1  0  0  0  0
M  CHG  1  15   1
M  END
$$$$

  -OEChem-01062216083D

 30 30  0     1  0  0  0  0  0999 V2000
   -3.2742   -2.3386    1.0186 H   0  0  0  0  0  0  0  0  0  0  0  0
   -3.0863   -1.5778    0.2556 C   0  0  0  0  0  0  0  0  0  0  0  0
   -4.0131   -1.0317    0.0655 H   0  0  0  0  0  0  0  0  0  0  0  0
   -2.7696   -2.0780   -0.6635 H   0  0  0  0  0  0  0  0  0  0  0  0
   -2.0018   -0.6255    0.7210 C   0  0  0  0  0  0  0  0  0  0  0  0
   -1.5511   -0.7407    1.8497 O   0  0  0  0  0  0  0  0  0  0  0  0
   -1.6115    0.4091   -0.1149 N   0  0  0  0  0  0  0  0  0  0  0  0
   -2.0605    0.3227   -1.0255 H   0  0  0  0  0  0  0  0  0  0  0  0
   -0.2511    1.0051   -0.1861 C   0  0  1  0  0  0  0  0  0  0  0  0
   -0.3176    1.9125   -0.7929 H   0  0  0  0  0  0  0  0  0  0  0  0
    0.3635    1.3893    1.1833 C   0  0  0  0  0  0  0  0  0  0  0  0
    0.4685    0.5115    1.8274 H   0  0  0  0  0  0  0  0  0  0  0  0
    1.3788    1.7687    1.0377 H   0  0  0  0  0  0  0  0  0  0  0  0
   -0.4356    2.4709    1.8688 C   0  0  0  0  0  0  0  0  0  0  0  0
   -0.4901    3.8368    1.5803 N   0  3  0  0  0  0  0  0  0  0  0  0
    0.0373    4.2723    0.8202 H   0  0  0  0  0  0  0  0  0  0  0  0
   -1.2940    4.4446    2.4211 C   0  0  0  0  0  0  0  0  0  0  0  0
   -1.5301    5.5103    2.4390 H   0  0  0  0  0  0  0  0  0  0  0  0
   -1.7920    3.4774    3.2917 N   0  0  0  0  0  0  0  0  0  0  0  0
   -2.4511    3.6405    4.0590 H   0  0  0  0  0  0  0  0  0  0  0  0
   -1.2513    2.2462    2.9479 C   0  0  0  0  0  0  0  0  0  0  0  0
   -1.4364    1.2767    3.4170 H   0  0  0  0  0  0  0  0  0  0  0  0
    0.7112    0.0449   -0.9371 C   0  0  0  0  0  0  0  0  0  0  0  0
    0.2668   -0.9582   -1.4792 O   0  0  0  0  0  0  0  0  0  0  0  0
    2.0443    0.3629   -1.1411 N   0  0  0  0  0  0  0  0  0  0  0  0
    2.4131    1.2119   -0.7259 H   0  0  0  0  0  0  0  0  0  0  0  0
    2.9566   -0.4912   -1.8997 C   0  0  0  0  0  0  0  0  0  0  0  0
    2.6148   -0.5959   -2.9354 H   0  0  0  0  0  0  0  0  0  0  0  0
    3.9628   -0.0604   -1.9118 H   0  0  0  0  0  0  0  0  0  0  0  0
    3.0152   -1.4881   -1.4488 H   0  0  0  0  0  0  0  0  0  0  0  0
  1  2  1  0  0  0  0
  2  3  1  0  0  0  0
  2  4  1  0  0  0  0
  2  5  1  0  0  0  0
  5  6  2  0  0  0  0
  5  7  1  0  0  0  0
  7  8  1  0  0  0  0
  7  9  1  0  0  0  0
  9 10  1  0  0  0  0
  9 11  1  0  0  0  0
  9 23  1  0  0  0  0
 11 12  1  0  0  0  0
 11 13  1  0  0  0  0
 11 14  1  0  0  0  0
 14 15  1  0  0  0  0
 14 21  2  0  0  0  0
 15 16  1  0  0  0  0
 15 17  2  0  0  0  0
 17 18  1  0  0  0  0
 17 19  1  0  0  0  0
 19 20  1  0  0  0  0
 19 21  1  0  0  0  0
 21 22  1  0  0  0  0
 23 24  2  0  0  0  0
 23 25  1  0  0  0  0
 25 26  1  0  0  0  0
 25 27  1  0  0  0  0
 27 28  1  0  0  0  0
 27 29  1  0  0  0  0
 27 30  1  0  0  0  0
M  CHG  1  15   1
M  END
$$$$

  -OEChem-01062216083D

 30 30  0     1  0  0  0  0  0999 V2000
   -3.2569   -2.3370    1.0166 H   0  0  0  0  0  0  0  0  0  0  0  0
   -3.0657   -1.5712    0.2593 C   0  0  0  0  0  0  0  0  0  0  0  0
   -3.9883   -1.0149    0.0790 H   0  0  0  0  0  0  0  0  0  0  0  0
   -2.7585   -2.0655   -0.6663 H   0  0  0  0  0  0  0  0  0  0  0  0
   -1.9705   -0.6328    0.7270 C   0  0  0  0  0  0  0  0  0  0  0  0
   -1.4985   -0.7751    1.8435 O   0  0  0  0  0  0  0  0  0  0  0  0
   -1.5836    0.4126   -0.0958 N   0  0  0  0  0  0  0  0  0  0  0  0
   -2.0329    0.3395   -1.0081 H   0  0  0  0  0  0  0  0  0  0  0  0
   -0.2263    1.0143   -0.1607 C   0  0  1  0  0  0  0  0  0  0  0  0
   -0.2910    1.9225   -0.7666 H   0  0  0  0  0  0  0  0  0  0  0  0
    0.3761    1.4042    1.2124 C   0  0  0  0  0  0  0  0  0  0  0  0
    0.4839    0.5308    1.8615 H   0  0  0  0  0  0  0  0  0  0  0  0
    1.3868    1.7977    1.0736 H   0  0  0  0  0  0  0  0  0  0  0  0
   -0.4400    2.4825    1.8812 C   0  0  0  0  0  0  0  0  0  0  0  0
   -0.5024    3.8461    1.5839 N   0  3  0  0  0  0  0  0  0  0  0  0
    0.0330    4.2821    0.8294 H   0  0  0  0  0  0  0  0  0  0  0  0
   -1.3292    4.4497    2.4052 C   0  0  0  0  0  0  0  0  0  0  0  0
   -1.5783    5.5127    2.4119 H   0  0  0  0  0  0  0  0  0  0  0  0
   -1.8330    3.4821    3.2724 N   0  0  0  0  0  0  0  0  0  0  0  0
   -2.5092    3.6422    4.0254 H   0  0  0  0  0  0  0  0  0  0  0  0
   -1.2739    2.2545    2.9452 C   0  0  0  0  0  0  0  0  0  0  0  0
   -1.4600    1.2850    3.4136 H   0  0  0  0  0  0  0  0  0  0  0  0
    0.7217    0.0513   -0.9267 C   0  0  0  0  0  0  0  0  0  0  0  0
    0.2349   -0.7792   -1.6829 O   0  0  0  0  0  0  0  0  0  0  0  0
    2.1013    0.1779   -0.8940 N   0  0  0  0  0  0  0  0  0  0  0  0
    2.5135    0.8479   -0.2537 H   0  0  0  0  0  0  0  0  0  0  0  0
    2.9952   -0.7135   -1.6311 C   0  0  0  0  0  0  0  0  0  0  0  0
    2.7908   -0.6617   -2.7063 H   0  0  0  0  0  0  0  0  0  0  0  0
    4.0393   -0.4291   -1.4666 H   0  0  0  0  0  0  0  0  0  0  0  0
    2.8636   -1.7495   -1.2999 H   0  0  0  0  0  0  0  0  0  0  0  0
  1  2  1  0  0  0  0
  2  3  1  0  0  0  0
  2  4  1  0  0  0  0
  2  5  1  0  0  0  0
  5  6  2  0  0  0  0
  5  7  1  0  0  0  0
  7  8  1  0  0  0  0
  7  9  1  0  0  0  0
  9 10  1  0  0  0  0
  9 11  1  0  0  0  0
  9 23  1  0  0  0  0
 11 12  1  0  0  0  0
 11 13  1  0  0  0  0
 11 14  1  0  0  0  0
 14 15  1  0  0  0  0
 14 21  2  0  0  0  0
 15 16  1  0  0  0  0
 15 17  2  0  0  0  0
 17 18  1  0  0  0  0
 17 19  1  0  0  0  0
 19 20  1  0  0  0  0
 19 21  1  0  0  0  0
 21 22  1  0  0  0  0
 23 24  2  0  0  0  0
 23 25  1  0  0  0  0
 25 26  1  0  0  0  0
 25 27  1  0  0  0  0
 27 28  1  0  0  0  0
 27 29  1  0  0  0  0
 27 30  1  0  0  0  0
M  CHG  1  15   1
M  END
$$$$

  -OEChem-01062216083D

 30 30  0     1  0  0  0  0  0999 V2000
   -3.2413   -2.3511    1.0137 H   0  0  0  0  0  0  0  0  0  0  0  0
   -3.0725   -1.5602    0.2773 C   0  0  0  0  0  0  0  0  0  0  0  0
   -3.9936   -0.9847    0.1592 H   0  0  0  0  0  0  0  0  0  0  0  0
   -2.8153   -2.0235   -0.6789 H   0  0  0  0  0  0  0  0  0  0  0  0
   -1.9444   -0.6540    0.7301 C   0  0  0  0  0  0  0  0  0  0  0  0
   -1.4420   -0.8262    1.8287 O   0  0  0  0  0  0  0  0  0  0  0  0
   -1.5564    0.3967   -0.0839 N   0  0  0  0  0  0  0  0  0  0  0  0
   -2.0126    0.3461   -0.9947 H   0  0  0  0  0  0  0  0  0  0  0  0
   -0.2034    1.0053   -0.1388 C   0  0  1  0  0  0  0  0  0  0  0  0
   -0.2668    1.9100   -0.7505 H   0  0  0  0  0  0  0  0  0  0  0  0
    0.3842    1.4111    1.2354 C   0  0  0  0  0  0  0  0  0  0  0  0
    0.4923    0.5467    1.8960 H   0  0  0  0  0  0  0  0  0  0  0  0
    1.3925    1.8126    1.0968 H   0  0  0  0  0  0  0  0  0  0  0  0
   -0.4455    2.4902    1.8845 C   0  0  0  0  0  0  0  0  0  0  0  0
   -0.5131    3.8497    1.5719 N   0  3  0  0  0  0  0  0  0  0  0  0
    0.0285    4.2810    0.8189 H   0  0  0  0  0  0  0  0  0  0  0  0
   -1.3531    4.4563    2.3775 C   0  0  0  0  0  0  0  0  0  0  0  0
   -1.6084    5.5179    2.3698 H   0  0  0  0  0  0  0  0  0  0  0  0
   -1.8610    3.4945    3.2489 N   0  0  0  0  0  0  0  0  0  0  0  0
   -2.5460    3.6590    3.9932 H   0  0  0  0  0  0  0  0  0  0  0  0
   -1.2914    2.2667    2.9399 C   0  0  0  0  0  0  0  0  0  0  0  0
   -1.4771    1.3002    3.4149 H   0  0  0  0  0  0  0  0  0  0  0  0
    0.7409    0.0423   -0.9057 C   0  0  0  0  0  0  0  0  0  0  0  0
    0.2755   -0.5906   -1.8439 O   0  0  0  0  0  0  0  0  0  0  0  0
    2.1008   -0.0495   -0.6562 N   0  0  0  0  0  0  0  0  0  0  0  0
    2.4696    0.4008    0.1749 H   0  0  0  0  0  0  0  0  0  0  0  0
    2.9771   -0.9589   -1.3922 C   0  0  0  0  0  0  0  0  0  0  0  0
    2.9684   -0.7207   -2.4616 H   0  0  0  0  0  0  0  0  0  0  0  0
    4.0067   -0.8737   -1.0306 H   0  0  0  0  0  0  0  0  0  0  0  0
    2.6509   -1.9969   -1.2633 H   0  0  0  0  0  0  0  0  0  0  0  0
  1  2  1  0  0  0  0
  2  3  1  0  0  0  0
  2  4  1  0  0  0  0
  2  5  1  0  0  0  0
  5  6  2  0  0  0  0
  5  7  1  0  0  0  0
  7  8  1  0  0  0  0
  7  9  1  0  0  0  0
  9 10  1  0  0  0  0
  9 11  1  0  0  0  0
  9 23  1  0  0  0  0
 11 12  1  0  0  0  0
 11 13  1  0  0  0  0
 11 14  1  0  0  0  0
 14 15  1  0  0  0  0
 14 21  2  0  0  0  0
 15 16  1  0  0  0  0
 15 17  2  0  0  0  0
 17 18  1  0  0  0  0
 17 19  1  0  0  0  0
 19 20  1  0  0  0  0
 19 21  1  0  0  0  0
 21 22  1  0  0  0  0
 23 24  2  0  0  0  0
 23 25  1  0  0  0  0
 25 26  1  0  0  0  0
 25 27  1  0  0  0  0
 27 28  1  0  0  0  0
 27 29  1  0  0  0  0
 27 30  1  0  0  0  0
M  CHG  1  15   1
M  END
$$$$

  -OEChem-01062216083D

 30 30  0     1  0  0  0  0  0999 V2000
   -3.2584   -2.3480    1.0206 H   0  0  0  0  0  0  0  0  0  0  0  0
   -3.0915   -1.5501    0.2914 C   0  0  0  0  0  0  0  0  0  0  0  0
   -4.0024   -0.9527    0.2080 H   0  0  0  0  0  0  0  0  0  0  0  0
   -2.8721   -2.0049   -0.6782 H   0  0  0  0  0  0  0  0  0  0  0  0
   -1.9302   -0.6771    0.7256 C   0  0  0  0  0  0  0  0  0  0  0  0
   -1.3908   -0.8863    1.7997 O   0  0  0  0  0  0  0  0  0  0  0  0
   -1.5405    0.3789   -0.0799 N   0  0  0  0  0  0  0  0  0  0  0  0
   -2.0141    0.3626   -0.9830 H   0  0  0  0  0  0  0  0  0  0  0  0
   -0.1905    0.9915   -0.1249 C   0  0  1  0  0  0  0  0  0  0  0  0
   -0.2556    1.8952   -0.7386 H   0  0  0  0  0  0  0  0  0  0  0  0
    0.3906    1.4085    1.2480 C   0  0  0  0  0  0  0  0  0  0  0  0
    0.4943    0.5516    1.9184 H   0  0  0  0  0  0  0  0  0  0  0  0
    1.3999    1.8080    1.1065 H   0  0  0  0  0  0  0  0  0  0  0  0
   -0.4452    2.4895    1.8843 C   0  0  0  0  0  0  0  0  0  0  0  0
   -0.5130    3.8458    1.5580 N   0  3  0  0  0  0  0  0  0  0  0  0
    0.0353    4.2708    0.8059 H   0  0  0  0  0  0  0  0  0  0  0  0
   -1.3573    4.4586    2.3542 C   0  0  0  0  0  0  0  0  0  0  0  0
   -1.6126    5.5200    2.3370 H   0  0  0  0  0  0  0  0  0  0  0  0
   -1.8695    3.5035    3.2308 N   0  0  0  0  0  0  0  0  0  0  0  0
   -2.5569    3.6752    3.9713 H   0  0  0  0  0  0  0  0  0  0  0  0
   -1.2970    2.2731    2.9364 C   0  0  0  0  0  0  0  0  0  0  0  0
   -1.4832    1.3109    3.4192 H   0  0  0  0  0  0  0  0  0  0  0  0
    0.7555    0.0347   -0.8915 C   0  0  0  0  0  0  0  0  0  0  0  0
    0.3659   -0.3999   -1.9660 O   0  0  0  0  0  0  0  0  0  0  0  0
    2.0321   -0.2875   -0.4604 N   0  0  0  0  0  0  0  0  0  0  0  0
    2.2843   -0.0507    0.4940 H   0  0  0  0  0  0  0  0  0  0  0  0
    2.8917   -1.2223   -1.1838 C   0  0  0  0  0  0  0  0  0  0  0  0
    3.0697   -0.8704   -2.2060 H   0  0  0  0  0  0  0  0  0  0  0  0
    3.8598   -1.3174   -0.6819 H   0  0  0  0  0  0  0  0  0  0  0  0
    2.4284   -2.2140   -1.2313 H   0  0  0  0  0  0  0  0  0  0  0  0
  1  2  1  0  0  0  0
  2  3  1  0  0  0  0
  2  4  1  0  0  0  0
  2  5  1  0  0  0  0
  5  6  2  0  0  0  0
  5  7  1  0  0  0  0
  7  8  1  0  0  0  0
  7  9  1  0  0  0  0
  9 10  1  0  0  0  0
  9 11  1  0  0  0  0
  9 23  1  0  0  0  0
 11 12  1  0  0  0  0
 11 13  1  0  0  0  0
 11 14  1  0  0  0  0
 14 15  1  0  0  0  0
 14 21  2  0  0  0  0
 15 16  1  0  0  0  0
 15 17  2  0  0  0  0
 17 18  1  0  0  0  0
 17 19  1  0  0  0  0
 19 20  1  0  0  0  0
 19 21  1  0  0  0  0
 21 22  1  0  0  0  0
 23 24  2  0  0  0  0
 23 25  1  0  0  0  0
 25 26  1  0  0  0  0
 25 27  1  0  0  0  0
 27 28  1  0  0  0  0
 27 29  1  0  0  0  0
 27 30  1  0  0  0  0
M  CHG  1  15   1
M  END
$$$$

  -OEChem-01062216083D

 30 30  0     1  0  0  0  0  0999 V2000
   -3.2985   -2.3324    1.0403 H   0  0  0  0  0  0  0  0  0  0  0  0
   -3.1314   -1.5309    0.3150 C   0  0  0  0  0  0  0  0  0  0  0  0
   -4.0227   -0.9003    0.2755 H   0  0  0  0  0  0  0  0  0  0  0  0
   -2.9665   -1.9795   -0.6682 H   0  0  0  0  0  0  0  0  0  0  0  0
   -1.9239   -0.7058    0.7152 C   0  0  0  0  0  0  0  0  0  0  0  0
   -1.3380   -0.9625    1.7539 O   0  0  0  0  0  0  0  0  0  0  0  0
   -1.5317    0.3535   -0.0845 N   0  0  0  0  0  0  0  0  0  0  0  0
   -2.0299    0.3782   -0.9739 H   0  0  0  0  0  0  0  0  0  0  0  0
   -0.1837    0.9679   -0.1208 C   0  0  1  0  0  0  0  0  0  0  0  0
   -0.2497    1.8710   -0.7357 H   0  0  0  0  0  0  0  0  0  0  0  0
    0.3925    1.3939    1.2511 C   0  0  0  0  0  0  0  0  0  0  0  0
    0.4886    0.5436    1.9304 H   0  0  0  0  0  0  0  0  0  0  0  0
    1.4057    1.7849    1.1082 H   0  0  0  0  0  0  0  0  0  0  0  0
   -0.4441    2.4782    1.8794 C   0  0  0  0  0  0  0  0  0  0  0  0
   -0.5070    3.8317    1.5417 N   0  3  0  0  0  0  0  0  0  0  0  0
    0.0445    4.2484    0.7870 H   0  0  0  0  0  0  0  0  0  0  0  0
   -1.3490    4.4542    2.3326 C   0  0  0  0  0  0  0  0  0  0  0  0
   -1.5991    5.5167    2.3062 H   0  0  0  0  0  0  0  0  0  0  0  0
   -1.8655    3.5080    3.2163 N   0  0  0  0  0  0  0  0  0  0  0  0
   -2.5511    3.6886    3.9561 H   0  0  0  0  0  0  0  0  0  0  0  0
   -1.2977    2.2729    2.9322 C   0  0  0  0  0  0  0  0  0  0  0  0
   -1.4871    1.3160    3.4241 H   0  0  0  0  0  0  0  0  0  0  0  0
    0.7706    0.0212   -0.8831 C   0  0  0  0  0  0  0  0  0  0  0  0
    0.5101   -0.2134   -2.0537 O   0  0  0  0  0  0  0  0  0  0  0  0
    1.9063   -0.5305   -0.3144 N   0  0  0  0  0  0  0  0  0  0  0  0
    1.9919   -0.4840    0.6969 H   0  0  0  0  0  0  0  0  0  0  0  0
    2.7550   -1.4815   -1.0285 C   0  0  0  0  0  0  0  0  0  0  0  0
    3.1335   -1.0393   -1.9567 H   0  0  0  0  0  0  0  0  0  0  0  0
    3.6130   -1.7659   -0.4112 H   0  0  0  0  0  0  0  0  0  0  0  0
    2.1920   -2.3876   -1.2773 H   0  0  0  0  0  0  0  0  0  0  0  0
  1  2  1  0  0  0  0
  2  3  1  0  0  0  0
  2  4  1  0  0  0  0
  2  5  1  0  0  0  0
  5  6  2  0  0  0  0
  5  7  1  0  0  0  0
  7  8  1  0  0  0  0
  7  9  1  0  0  0  0
  9 10  1  0  0  0  0
  9 11  1  0  0  0  0
  9 23  1  0  0  0  0
 11 12  1  0  0  0  0
 11 13  1  0  0  0  0
 11 14  1  0  0  0  0
 14 15  1  0  0  0  0
 14 21  2  0  0  0  0
 15 16  1  0  0  0  0
 15 17  2  0  0  0  0
 17 18  1  0  0  0  0
 17 19  1  0  0  0  0
 19 20  1  0  0  0  0
 19 21  1  0  0  0  0
 21 22  1  0  0  0  0
 23 24  2  0  0  0  0
 23 25  1  0  0  0  0
 25 26  1  0  0  0  0
 25 27  1  0  0  0  0
 27 28  1  0  0  0  0
 27 29  1  0  0  0  0
 27 30  1  0  0  0  0
M  CHG  1  15   1
M  END
$$$$

  -OEChem-01062216083D

 30 30  0     1  0  0  0  0  0999 V2000
   -3.3528   -2.3112    1.0685 H   0  0  0  0  0  0  0  0  0  0  0  0
   -3.1858   -1.5086    0.3442 C   0  0  0  0  0  0  0  0  0  0  0  0
   -4.0522   -0.8430    0.3506 H   0  0  0  0  0  0  0  0  0  0  0  0
   -3.0831   -1.9519   -0.6495 H   0  0  0  0  0  0  0  0  0  0  0  0
   -1.9294   -0.7366    0.6984 C   0  0  0  0  0  0  0  0  0  0  0  0
   -1.2879   -1.0508    1.6872 O   0  0  0  0  0  0  0  0  0  0  0  0
   -1.5344    0.3249   -0.0966 N   0  0  0  0  0  0  0  0  0  0  0  0
   -2.0656    0.4028   -0.9634 H   0  0  0  0  0  0  0  0  0  0  0  0
   -0.1864    0.9376   -0.1235 C   0  0  1  0  0  0  0  0  0  0  0  0
   -0.2525    1.8415   -0.7375 H   0  0  0  0  0  0  0  0  0  0  0  0
    0.3882    1.3693    1.2473 C   0  0  0  0  0  0  0  0  0  0  0  0
    0.4776    0.5242    1.9337 H   0  0  0  0  0  0  0  0  0  0  0  0
    1.4050    1.7506    1.1028 H   0  0  0  0  0  0  0  0  0  0  0  0
   -0.4451    2.4588    1.8704 C   0  0  0  0  0  0  0  0  0  0  0  0
   -0.4987    3.8098    1.5217 N   0  3  0  0  0  0  0  0  0  0  0  0
    0.0562    4.2162    0.7637 H   0  0  0  0  0  0  0  0  0  0  0  0
   -1.3311    4.4458    2.3119 C   0  0  0  0  0  0  0  0  0  0  0  0
   -1.5719    5.5105    2.2788 H   0  0  0  0  0  0  0  0  0  0  0  0
   -1.8499    3.5109    3.2068 N   0  0  0  0  0  0  0  0  0  0  0  0
   -2.5254    3.7050    3.9525 H   0  0  0  0  0  0  0  0  0  0  0  0
   -1.2928    2.2687    2.9309 C   0  0  0  0  0  0  0  0  0  0  0  0
   -1.4819    1.3192    3.4365 H   0  0  0  0  0  0  0  0  0  0  0  0
    0.7789    0.0013   -0.8796 C   0  0  0  0  0  0  0  0  0  0  0  0
    0.7108   -0.0169   -2.0988 O   0  0  0  0  0  0  0  0  0  0  0  0
    1.7231   -0.7742   -0.2297 N   0  0  0  0  0  0  0  0  0  0  0  0
    1.5926   -0.9106    0.7699 H   0  0  0  0  0  0  0  0  0  0  0  0
    2.5800   -1.7204   -0.9400 C   0  0  0  0  0  0  0  0  0  0  0  0
    3.1480   -1.2120   -1.7269 H   0  0  0  0  0  0  0  0  0  0  0  0
    3.2924   -2.1817   -0.2487 H   0  0  0  0  0  0  0  0  0  0  0  0
    1.9795   -2.5131   -1.3993 H   0  0  0  0  0  0  0  0  0  0  0  0
  1  2  1  0  0  0  0
  2  3  1  0  0  0  0
  2  4  1  0  0  0  0
  2  5  1  0  0  0  0
  5  6  2  0  0  0  0
  5  7  1  0  0  0  0
  7  8  1  0  0  0  0
  7  9  1  0  0  0  0
  9 10  1  0  0  0  0
  9 11  1  0  0  0  0
  9 23  1  0  0  0  0
 11 12  1  0  0  0  0
 11 13  1  0  0  0  0
 11 14  1  0  0  0  0
 14 15  1  0  0  0  0
 14 21  2  0  0  0  0
 15 16  1  0  0  0  0
 15 17  2  0  0  0  0
 17 18  1  0  0  0  0
 17 19  1  0  0  0  0
 19 20  1  0  0  0  0
 19 21  1  0  0  0  0
 21 22  1  0  0  0  0
 23 24  2  0  0  0  0
 23 25  1  0  0  0  0
 25 26  1  0  0  0  0
 25 27  1  0  0  0  0
 27 28  1  0  0  0  0
 27 29  1  0  0  0  0
 27 30  1  0  0  0  0
M  CHG  1  15   1
M  END
$$$$

  -OEChem-01062216083D

 30 30  0     1  0  0  0  0  0999 V2000
   -3.4159   -2.2796    1.1036 H   0  0  0  0  0  0  0  0  0  0  0  0
   -3.2503   -1.4765    0.3798 C   0  0  0  0  0  0  0  0  0  0  0  0
   -4.0847   -0.7736    0.4382 H   0  0  0  0  0  0  0  0  0  0  0  0
   -3.2188   -1.9113   -0.6226 H   0  0  0  0  0  0  0  0  0  0  0  0
   -1.9441   -0.7655    0.6767 C   0  0  0  0  0  0  0  0  0  0  0  0
   -1.2458   -1.1449    1.6025 O   0  0  0  0  0  0  0  0  0  0  0  0
   -1.5476    0.2963   -0.1171 N   0  0  0  0  0  0  0  0  0  0  0  0
   -2.1187    0.4339   -0.9499 H   0  0  0  0  0  0  0  0  0  0  0  0
   -0.1996    0.9076   -0.1400 C   0  0  1  0  0  0  0  0  0  0  0  0
   -0.2686    1.8141   -0.7505 H   0  0  0  0  0  0  0  0  0  0  0  0
    0.3798    1.3371    1.2285 C   0  0  0  0  0  0  0  0  0  0  0  0
    0.4672    0.4910    1.9140 H   0  0  0  0  0  0  0  0  0  0  0  0
    1.3990    1.7114    1.0807 H   0  0  0  0  0  0  0  0  0  0  0  0
   -0.4476    2.4279    1.8560 C   0  0  0  0  0  0  0  0  0  0  0  0
   -0.4913    3.7773    1.5013 N   0  3  0  0  0  0  0  0  0  0  0  0
    0.0628    4.1740    0.7373 H   0  0  0  0  0  0  0  0  0  0  0  0
   -1.3072    4.4262    2.2977 C   0  0  0  0  0  0  0  0  0  0  0  0
   -1.5341    5.4939    2.2630 H   0  0  0  0  0  0  0  0  0  0  0  0
   -1.8265    3.5013    3.2024 N   0  0  0  0  0  0  0  0  0  0  0  0
   -2.4891    3.7075    3.9564 H   0  0  0  0  0  0  0  0  0  0  0  0
   -1.2843    2.2519    2.9275 C   0  0  0  0  0  0  0  0  0  0  0  0
   -1.4733    1.3093    3.4451 H   0  0  0  0  0  0  0  0  0  0  0  0
    0.7774   -0.0179   -0.8893 C   0  0  0  0  0  0  0  0  0  0  0  0
    0.9563    0.1740   -2.0817 O   0  0  0  0  0  0  0  0  0  0  0  0
    1.4935   -0.9947   -0.2221 N   0  0  0  0  0  0  0  0  0  0  0  0
    1.1426   -1.2603    0.6975 H   0  0  0  0  0  0  0  0  0  0  0  0
    2.3783   -1.9280   -0.9138 C   0  0  0  0  0  0  0  0  0  0  0  0
    3.1271   -1.3868   -1.5025 H   0  0  0  0  0  0  0  0  0  0  0  0
    2.9045   -2.5596   -0.1911 H   0  0  0  0  0  0  0  0  0  0  0  0
    1.8045   -2.5738   -1.5870 H   0  0  0  0  0  0  0  0  0  0  0  0
  1  2  1  0  0  0  0
  2  3  1  0  0  0  0
  2  4  1  0  0  0  0
  2  5  1  0  0  0  0
  5  6  2  0  0  0  0
  5  7  1  0  0  0  0
  7  8  1  0  0  0  0
  7  9  1  0  0  0  0
  9 10  1  0  0  0  0
  9 11  1  0  0  0  0
  9 23  1  0  0  0  0
 11 12  1  0  0  0  0
 11 13  1  0  0  0  0
 11 14  1  0  0  0  0
 14 15  1  0  0  0  0
 14 21  2  0  0  0  0
 15 16  1  0  0  0  0
 15 17  2  0  0  0  0
 17 18  1  0  0  0  0
 17 19  1  0  0  0  0
 19 20  1  0  0  0  0
 19 21  1  0  0  0  0
 21 22  1  0  0  0  0
 23 24  2  0  0  0  0
 23 25  1  0  0  0  0
 25 26  1  0  0  0  0
 25 27  1  0  0  0  0
 27 28  1  0  0  0  0
 27 29  1  0  0  0  0
 27 30  1  0  0  0  0
M  CHG  1  15   1
M  END
$$$$

  -OEChem-01062216083D

 30 30  0     1  0  0  0  0  0999 V2000
   -3.4920   -2.2329    1.1450 H   0  0  0  0  0  0  0  0  0  0  0  0
   -3.3251   -1.4325    0.4181 C   0  0  0  0  0  0  0  0  0  0  0  0
   -4.1248   -0.6949    0.5184 H   0  0  0  0  0  0  0  0  0  0  0  0
   -3.3581   -1.8614   -0.5867 H   0  0  0  0  0  0  0  0  0  0  0  0
   -1.9781   -0.7793    0.6585 C   0  0  0  0  0  0  0  0  0  0  0  0
   -1.2489   -1.2023    1.5404 O   0  0  0  0  0  0  0  0  0  0  0  0
   -1.5734    0.2726   -0.1436 N   0  0  0  0  0  0  0  0  0  0  0  0
   -2.1788    0.4577   -0.9422 H   0  0  0  0  0  0  0  0  0  0  0  0
   -0.2239    0.8827   -0.1762 C   0  0  1  0  0  0  0  0  0  0  0  0
   -0.2964    1.7888   -0.7868 H   0  0  0  0  0  0  0  0  0  0  0  0
    0.3658    1.3055    1.1890 C   0  0  0  0  0  0  0  0  0  0  0  0
    0.4577    0.4533    1.8671 H   0  0  0  0  0  0  0  0  0  0  0  0
    1.3848    1.6777    1.0341 H   0  0  0  0  0  0  0  0  0  0  0  0
   -0.4509    2.3947    1.8326 C   0  0  0  0  0  0  0  0  0  0  0  0
   -0.4904    3.7460    1.4841 N   0  3  0  0  0  0  0  0  0  0  0  0
    0.0591    4.1427    0.7165 H   0  0  0  0  0  0  0  0  0  0  0  0
   -1.2864    4.3980    2.2978 C   0  0  0  0  0  0  0  0  0  0  0  0
   -1.5028    5.4681    2.2741 H   0  0  0  0  0  0  0  0  0  0  0  0
   -1.7979    3.4729    3.2068 N   0  0  0  0  0  0  0  0  0  0  0  0
   -2.4398    3.6826    3.9776 H   0  0  0  0  0  0  0  0  0  0  0  0
   -1.2700    2.2205    2.9179 C   0  0  0  0  0  0  0  0  0  0  0  0
   -1.4532    1.2783    3.4379 H   0  0  0  0  0  0  0  0  0  0  0  0
    0.7669   -0.0363   -0.9128 C   0  0  0  0  0  0  0  0  0  0  0  0
    1.1885    0.3122   -2.0041 O   0  0  0  0  0  0  0  0  0  0  0  0
    1.2495   -1.1796   -0.3045 N   0  0  0  0  0  0  0  0  0  0  0  0
    0.7542   -1.4958    0.5308 H   0  0  0  0  0  0  0  0  0  0  0  0
    2.1707   -2.1012   -0.9620 C   0  0  0  0  0  0  0  0  0  0  0  0
    3.0844   -1.5798   -1.2674 H   0  0  0  0  0  0  0  0  0  0  0  0
    2.4504   -2.9102   -0.2797 H   0  0  0  0  0  0  0  0  0  0  0  0
    1.7055   -2.5418   -1.8503 H   0  0  0  0  0  0  0  0  0  0  0  0
  1  2  1  0  0  0  0
  2  3  1  0  0  0  0
  2  4  1  0  0  0  0
  2  5  1  0  0  0  0
  5  6  2  0  0  0  0
  5  7  1  0  0  0  0
  7  8  1  0  0  0  0
  7  9  1  0  0  0  0
  9 10  1  0  0  0  0
  9 11  1  0  0  0  0
  9 23  1  0  0  0  0
 11 12  1  0  0  0  0
 11 13  1  0  0  0  0
 11 14  1  0  0  0  0
 14 15  1  0  0  0  0
 14 21  2  0  0  0  0
 15 16  1  0  0  0  0
 15 17  2  0  0  0  0
 17 18  1  0  0  0  0
 17 19  1  0  0  0  0
 19 20  1  0  0  0  0
 19 21  1  0  0  0  0
 21 22  1  0  0  0  0
 23 24  2  0  0  0  0
 23 25  1  0  0  0  0
 25 26  1  0  0  0  0
 25 27  1  0  0  0  0
 27 28  1  0  0  0  0
 27 29  1  0  0  0  0
 27 30  1  0  0  0  0
M  CHG  1  15   1
M  END
$$$$

  -OEChem-01062216083D

 30 30  0     1  0  0  0  0  0999 V2000
   -3.5803   -2.1833    1.1865 H   0  0  0  0  0  0  0  0  0  0  0  0
   -3.4042   -1.3903    0.4537 C   0  0  0  0  0  0  0  0  0  0  0  0
   -4.1744   -0.6248    0.5735 H   0  0  0  0  0  0  0  0  0  0  0  0
   -3.4792   -1.8190   -0.5489 H   0  0  0  0  0  0  0  0  0  0  0  0
   -2.0286   -0.7850    0.6568 C   0  0  0  0  0  0  0  0  0  0  0  0
   -1.2870   -1.2400    1.5117 O   0  0  0  0  0  0  0  0  0  0  0  0
   -1.6121    0.2576   -0.1515 N   0  0  0  0  0  0  0  0  0  0  0  0
   -2.2409    0.4767   -0.9225 H   0  0  0  0  0  0  0  0  0  0  0  0
   -0.2574    0.8589   -0.2033 C   0  0  1  0  0  0  0  0  0  0  0  0
   -0.3339    1.7665   -0.8111 H   0  0  0  0  0  0  0  0  0  0  0  0
    0.3487    1.2707    1.1567 C   0  0  0  0  0  0  0  0  0  0  0  0
    0.4400    0.4111    1.8261 H   0  0  0  0  0  0  0  0  0  0  0  0
    1.3692    1.6360    0.9941 H   0  0  0  0  0  0  0  0  0  0  0  0
   -0.4526    2.3623    1.8151 C   0  0  0  0  0  0  0  0  0  0  0  0
   -0.4813    3.7143    1.4691 N   0  3  0  0  0  0  0  0  0  0  0  0
    0.0665    4.1059    0.6975 H   0  0  0  0  0  0  0  0  0  0  0  0
   -1.2593    4.3742    2.2936 C   0  0  0  0  0  0  0  0  0  0  0  0
   -1.4623    5.4470    2.2740 H   0  0  0  0  0  0  0  0  0  0  0  0
   -1.7705    3.4531    3.2071 N   0  0  0  0  0  0  0  0  0  0  0  0
   -2.3997    3.6691    3.9866 H   0  0  0  0  0  0  0  0  0  0  0  0
   -1.2593    2.1951    2.9108 C   0  0  0  0  0  0  0  0  0  0  0  0
   -1.4438    1.2548    3.4340 H   0  0  0  0  0  0  0  0  0  0  0  0
    0.7430   -0.0500   -0.9393 C   0  0  0  0  0  0  0  0  0  0  0  0
    1.3698    0.4138   -1.8789 O   0  0  0  0  0  0  0  0  0  0  0  0
    1.0091   -1.3256   -0.4800 N   0  0  0  0  0  0  0  0  0  0  0  0
    0.4493   -1.6657    0.3043 H   0  0  0  0  0  0  0  0  0  0  0  0
    1.9727   -2.2225   -1.1091 C   0  0  0  0  0  0  0  0  0  0  0  0
    2.9761   -1.7836   -1.0888 H   0  0  0  0  0  0  0  0  0  0  0  0
    2.0047   -3.1795   -0.5789 H   0  0  0  0  0  0  0  0  0  0  0  0
    1.6950   -2.4142   -2.1512 H   0  0  0  0  0  0  0  0  0  0  0  0
  1  2  1  0  0  0  0
  2  3  1  0  0  0  0
  2  4  1  0  0  0  0
  2  5  1  0  0  0  0
  5  6  2  0  0  0  0
  5  7  1  0  0  0  0
  7  8  1  0  0  0  0
  7  9  1  0  0  0  0
  9 10  1  0  0  0  0
  9 11  1  0  0  0  0
  9 23  1  0  0  0  0
 11 12  1  0  0  0  0
 11 13  1  0  0  0  0
 11 14  1  0  0  0  0
 14 15  1  0  0  0  0
 14 21  2  0  0  0  0
 15 16  1  0  0  0  0
 15 17  2  0  0  0  0
 17 18  1  0  0  0  0
 17 19  1  0  0  0  0
 19 20  1  0  0  0  0
 19 21  1  0  0  0  0
 21 22  1  0  0  0  0
 23 24  2  0  0  0  0
 23 25  1  0  0  0  0
 25 26  1  0  0  0  0
 25 27  1  0  0  0  0
 27 28  1  0  0  0  0
 27 29  1  0  0  0  0
 27 30  1  0  0  0  0
M  CHG  1  15   1
M  END
$$$$

  -OEChem-01062216083D

 30 30  0     1  0  0  0  0  0999 V2000
   -3.6425   -2.1473    1.2185 H   0  0  0  0  0  0  0  0  0  0  0  0
   -3.4725   -1.3484    0.4907 C   0  0  0  0  0  0  0  0  0  0  0  0
   -4.2161   -0.5642    0.6507 H   0  0  0  0  0  0  0  0  0  0  0  0
   -3.5981   -1.7600   -0.5141 H   0  0  0  0  0  0  0  0  0  0  0  0
   -2.0741   -0.7840    0.6500 C   0  0  0  0  0  0  0  0  0  0  0  0
   -1.3145   -1.2710    1.4697 O   0  0  0  0  0  0  0  0  0  0  0  0
   -1.6538    0.2496   -0.1673 N   0  0  0  0  0  0  0  0  0  0  0  0
   -2.3062    0.5001   -0.9084 H   0  0  0  0  0  0  0  0  0  0  0  0
   -0.2962    0.8451   -0.2423 C   0  0  1  0  0  0  0  0  0  0  0  0
   -0.3779    1.7529   -0.8488 H   0  0  0  0  0  0  0  0  0  0  0  0
    0.3272    1.2474    1.1125 C   0  0  0  0  0  0  0  0  0  0  0  0
    0.4240    0.3814    1.7729 H   0  0  0  0  0  0  0  0  0  0  0  0
    1.3472    1.6101    0.9402 H   0  0  0  0  0  0  0  0  0  0  0  0
   -0.4574    2.3386    1.7909 C   0  0  0  0  0  0  0  0  0  0  0  0
   -0.4819    3.6931    1.4547 N   0  3  0  0  0  0  0  0  0  0  0  0
    0.0576    4.0858    0.6778 H   0  0  0  0  0  0  0  0  0  0  0  0
   -1.2357    4.3539    2.3007 C   0  0  0  0  0  0  0  0  0  0  0  0
   -1.4276    5.4288    2.2948 H   0  0  0  0  0  0  0  0  0  0  0  0
   -1.7364    3.4308    3.2177 N   0  0  0  0  0  0  0  0  0  0  0  0
   -2.3446    3.6469    4.0137 H   0  0  0  0  0  0  0  0  0  0  0  0
   -1.2415    2.1709    2.9027 C   0  0  0  0  0  0  0  0  0  0  0  0
   -1.4193    1.2297    3.4262 H   0  0  0  0  0  0  0  0  0  0  0  0
    0.7096   -0.0567   -0.9816 C   0  0  0  0  0  0  0  0  0  0  0  0
    1.5067    0.4712   -1.7413 O   0  0  0  0  0  0  0  0  0  0  0  0
    0.7785   -1.4126   -0.7249 N   0  0  0  0  0  0  0  0  0  0  0  0
    0.1808   -1.7723    0.0214 H   0  0  0  0  0  0  0  0  0  0  0  0
    1.7862   -2.2914   -1.3102 C   0  0  0  0  0  0  0  0  0  0  0  0
    2.7867   -2.0170   -0.9592 H   0  0  0  0  0  0  0  0  0  0  0  0
    1.5931   -3.3313   -1.0286 H   0  0  0  0  0  0  0  0  0  0  0  0
    1.7679   -2.2237   -2.4035 H   0  0  0  0  0  0  0  0  0  0  0  0
  1  2  1  0  0  0  0
  2  3  1  0  0  0  0
  2  4  1  0  0  0  0
  2  5  1  0  0  0  0
  5  6  2  0  0  0  0
  5  7  1  0  0  0  0
  7  8  1  0  0  0  0
  7  9  1  0  0  0  0
  9 10  1  0  0  0  0
  9 11  1  0  0  0  0
  9 23  1  0  0  0  0
 11 12  1  0  0  0  0
 11 13  1  0  0  0  0
 11 14  1  0  0  0  0
 14 15  1  0  0  0  0
 14 21  2  0  0  0  0
 15 16  1  0  0  0  0
 15 17  2  0  0  0  0
 17 18  1  0  0  0  0
 17 19  1  0  0  0  0
 19 20  1  0  0  0  0
 19 21  1  0  0  0  0
 21 22  1  0  0  0  0
 23 24  2  0  0  0  0
 23 25  1  0  0  0  0
 25 26  1  0  0  0  0
 25 27  1  0  0  0  0
 27 28  1  0  0  0  0
 27 29  1  0  0  0  0
 27 30  1  0  0  0  0
M  CHG  1  15   1
M  END
$$$$

  -OEChem-01062216083D

 30 30  0     1  0  0  0  0  0999 V2000
   -3.6773   -2.1142    1.2402 H   0  0  0  0  0  0  0  0  0  0  0  0
   -3.5110   -1.3079    0.5198 C   0  0  0  0  0  0  0  0  0  0  0  0
   -4.2323   -0.5105    0.7133 H   0  0  0  0  0  0  0  0  0  0  0  0
   -3.6744   -1.7008   -0.4869 H   0  0  0  0  0  0  0  0  0  0  0  0
   -2.0966   -0.7761    0.6466 C   0  0  0  0  0  0  0  0  0  0  0  0
   -1.3268   -1.2878    1.4399 O   0  0  0  0  0  0  0  0  0  0  0  0
   -1.6734    0.2508   -0.1772 N   0  0  0  0  0  0  0  0  0  0  0  0
   -2.3405    0.5219   -0.8974 H   0  0  0  0  0  0  0  0  0  0  0  0
   -0.3141    0.8433   -0.2678 C   0  0  1  0  0  0  0  0  0  0  0  0
   -0.3972    1.7521   -0.8728 H   0  0  0  0  0  0  0  0  0  0  0  0
    0.3142    1.2375    1.0883 C   0  0  0  0  0  0  0  0  0  0  0  0
    0.4110    0.3663    1.7417 H   0  0  0  0  0  0  0  0  0  0  0  0
    1.3350    1.5991    0.9172 H   0  0  0  0  0  0  0  0  0  0  0  0
   -0.4634    2.3262    1.7781 C   0  0  0  0  0  0  0  0  0  0  0  0
   -0.4855    3.6830    1.4521 N   0  3  0  0  0  0  0  0  0  0  0  0
    0.0523    4.0798    0.6761 H   0  0  0  0  0  0  0  0  0  0  0  0
   -1.2301    4.3399    2.3094 C   0  0  0  0  0  0  0  0  0  0  0  0
   -1.4169    5.4158    2.3143 H   0  0  0  0  0  0  0  0  0  0  0  0
   -1.7274    3.4114    3.2232 N   0  0  0  0  0  0  0  0  0  0  0  0
   -2.3276    3.6237    4.0263 H   0  0  0  0  0  0  0  0  0  0  0  0
   -1.2389    2.1525    2.8950 C   0  0  0  0  0  0  0  0  0  0  0  0
   -1.4140    1.2079    3.4136 H   0  0  0  0  0  0  0  0  0  0  0  0
    0.6975   -0.0531   -1.0084 C   0  0  0  0  0  0  0  0  0  0  0  0
    1.6199    0.4916   -1.5955 O   0  0  0  0  0  0  0  0  0  0  0  0
    0.5951   -1.4311   -0.9918 N   0  0  0  0  0  0  0  0  0  0  0  0
   -0.0592   -1.8260   -0.3161 H   0  0  0  0  0  0  0  0  0  0  0  0
    1.6006   -2.3091   -1.5825 C   0  0  0  0  0  0  0  0  0  0  0  0
    2.5560   -2.2090   -1.0565 H   0  0  0  0  0  0  0  0  0  0  0  0
    1.2779   -3.3531   -1.5195 H   0  0  0  0  0  0  0  0  0  0  0  0
    1.7549   -2.0623   -2.6386 H   0  0  0  0  0  0  0  0  0  0  0  0
  1  2  1  0  0  0  0
  2  3  1  0  0  0  0
  2  4  1  0  0  0  0
  2  5  1  0  0  0  0
  5  6  2  0  0  0  0
  5  7  1  0  0  0  0
  7  8  1  0  0  0  0
  7  9  1  0  0  0  0
  9 10  1  0  0  0  0
  9 11  1  0  0  0  0
  9 23  1  0  0  0  0
 11 12  1  0  0  0  0
 11 13  1  0  0  0  0
 11 14  1  0  0  0  0
 14 15  1  0  0  0  0
 14 21  2  0  0  0  0
 15 16  1  0  0  0  0
 15 17  2  0  0  0  0
 17 18  1  0  0  0  0
 17 19  1  0  0  0  0
 19 20  1  0  0  0  0
 19 21  1  0  0  0  0
 21 22  1  0  0  0  0
 23 24  2  0  0  0  0
 23 25  1  0  0  0  0
 25 26  1  0  0  0  0
 25 27  1  0  0  0  0
 27 28  1  0  0  0  0
 27 29  1  0  0  0  0
 27 30  1  0  0  0  0
M  CHG  1  15   1
M  END
$$$$

  -OEChem-01062216083D

 30 30  0     1  0  0  0  0  0999 V2000
   -3.6883   -2.1000    1.2480 H   0  0  0  0  0  0  0  0  0  0  0  0
   -3.5236   -1.2895    0.5318 C   0  0  0  0  0  0  0  0  0  0  0  0
   -4.2381   -0.4891    0.7377 H   0  0  0  0  0  0  0  0  0  0  0  0
   -3.6988   -1.6742   -0.4761 H   0  0  0  0  0  0  0  0  0  0  0  0
   -2.1047   -0.7670    0.6503 C   0  0  0  0  0  0  0  0  0  0  0  0
   -1.3374   -1.2798    1.4438 O   0  0  0  0  0  0  0  0  0  0  0  0
   -1.6809    0.2563   -0.1778 N   0  0  0  0  0  0  0  0  0  0  0  0
   -2.3573    0.5406   -0.8841 H   0  0  0  0  0  0  0  0  0  0  0  0
   -0.3208    0.8474   -0.2791 C   0  0  1  0  0  0  0  0  0  0  0  0
   -0.4045    1.7559   -0.8837 H   0  0  0  0  0  0  0  0  0  0  0  0
    0.3068    1.2373    1.0806 C   0  0  0  0  0  0  0  0  0  0  0  0
    0.4055    0.3633    1.7298 H   0  0  0  0  0  0  0  0  0  0  0  0
    1.3274    1.6016    0.9143 H   0  0  0  0  0  0  0  0  0  0  0  0
   -0.4687    2.3236    1.7758 C   0  0  0  0  0  0  0  0  0  0  0  0
   -0.4886    3.6817    1.4562 N   0  3  0  0  0  0  0  0  0  0  0  0
    0.0543    4.0817    0.6855 H   0  0  0  0  0  0  0  0  0  0  0  0
   -1.2272    4.3361    2.3206 C   0  0  0  0  0  0  0  0  0  0  0  0
   -1.4073    5.4130    2.3345 H   0  0  0  0  0  0  0  0  0  0  0  0
   -1.7262    3.4037    3.2296 N   0  0  0  0  0  0  0  0  0  0  0  0
   -2.3215    3.6135    4.0369 H   0  0  0  0  0  0  0  0  0  0  0  0
   -1.2425    2.1452    2.8929 C   0  0  0  0  0  0  0  0  0  0  0  0
   -1.4173    1.1979    3.4068 H   0  0  0  0  0  0  0  0  0  0  0  0
    0.6939   -0.0461   -1.0228 C   0  0  0  0  0  0  0  0  0  0  0  0
    1.7176    0.4780   -1.4365 O   0  0  0  0  0  0  0  0  0  0  0  0
    0.4521   -1.3843   -1.2692 N   0  0  0  0  0  0  0  0  0  0  0  0
   -0.2935   -1.8120   -0.7242 H   0  0  0  0  0  0  0  0  0  0  0  0
    1.4362   -2.2592   -1.9001 C   0  0  0  0  0  0  0  0  0  0  0  0
    2.3414   -2.3261   -1.2869 H   0  0  0  0  0  0  0  0  0  0  0  0
    1.0261   -3.2665   -2.0236 H   0  0  0  0  0  0  0  0  0  0  0  0
    1.7114   -1.8779   -2.8896 H   0  0  0  0  0  0  0  0  0  0  0  0
  1  2  1  0  0  0  0
  2  3  1  0  0  0  0
  2  4  1  0  0  0  0
  2  5  1  0  0  0  0
  5  6  2  0  0  0  0
  5  7  1  0  0  0  0
  7  8  1  0  0  0  0
  7  9  1  0  0  0  0
  9 10  1  0  0  0  0
  9 11  1  0  0  0  0
  9 23  1  0  0  0  0
 11 12  1  0  0  0  0
 11 13  1  0  0  0  0
 11 14  1  0  0  0  0
 14 15  1  0  0  0  0
 14 21  2  0  0  0  0
 15 16  1  0  0  0  0
 15 17  2  0  0  0  0
 17 18  1  0  0  0  0
 17 19  1  0  0  0  0
 19 20  1  0  0  0  0
 19 21  1  0  0  0  0
 21 22  1  0  0  0  0
 23 24  2  0  0  0  0
 23 25  1  0  0  0  0
 25 26  1  0  0  0  0
 25 27  1  0  0  0  0
 27 28  1  0  0  0  0
 27 29  1  0  0  0  0
 27 30  1  0  0  0  0
M  CHG  1  15   1
M  END
$$$$

  -OEChem-01062216083D

 30 30  0     1  0  0  0  0  0999 V2000
   -3.6591   -2.1185    1.2354 H   0  0  0  0  0  0  0  0  0  0  0  0
   -3.4998   -1.3026    0.5242 C   0  0  0  0  0  0  0  0  0  0  0  0
   -4.2286   -0.5145    0.7269 H   0  0  0  0  0  0  0  0  0  0  0  0
   -3.6597   -1.6862   -0.4867 H   0  0  0  0  0  0  0  0  0  0  0  0
   -2.0905   -0.7588    0.6590 C   0  0  0  0  0  0  0  0  0  0  0  0
   -1.3381   -1.2419    1.4837 O   0  0  0  0  0  0  0  0  0  0  0  0
   -1.6729    0.2670   -0.1708 N   0  0  0  0  0  0  0  0  0  0  0  0
   -2.3520    0.5471   -0.8763 H   0  0  0  0  0  0  0  0  0  0  0  0
   -0.3135    0.8607   -0.2795 C   0  0  1  0  0  0  0  0  0  0  0  0
   -0.3989    1.7696   -0.8827 H   0  0  0  0  0  0  0  0  0  0  0  0
    0.3129    1.2515    1.0835 C   0  0  0  0  0  0  0  0  0  0  0  0
    0.4186    0.3770    1.7307 H   0  0  0  0  0  0  0  0  0  0  0  0
    1.3313    1.6229    0.9222 H   0  0  0  0  0  0  0  0  0  0  0  0
   -0.4653    2.3350    1.7806 C   0  0  0  0  0  0  0  0  0  0  0  0
   -0.4915    3.6945    1.4673 N   0  3  0  0  0  0  0  0  0  0  0  0
    0.0534    4.1014    0.7018 H   0  0  0  0  0  0  0  0  0  0  0  0
   -1.2345    4.3413    2.3337 C   0  0  0  0  0  0  0  0  0  0  0  0
   -1.4186    5.4173    2.3539 H   0  0  0  0  0  0  0  0  0  0  0  0
   -1.7313    3.4019    3.2365 N   0  0  0  0  0  0  0  0  0  0  0  0
   -2.3282    3.6049    4.0443 H   0  0  0  0  0  0  0  0  0  0  0  0
   -1.2410    2.1477    2.8946 C   0  0  0  0  0  0  0  0  0  0  0  0
   -1.4131    1.1962    3.4017 H   0  0  0  0  0  0  0  0  0  0  0  0
    0.6947   -0.0362   -1.0337 C   0  0  0  0  0  0  0  0  0  0  0  0
    1.8071    0.4149   -1.2650 O   0  0  0  0  0  0  0  0  0  0  0  0
    0.3390   -1.2702   -1.5458 N   0  0  0  0  0  0  0  0  0  0  0  0
   -0.5255   -1.6739   -1.1972 H   0  0  0  0  0  0  0  0  0  0  0  0
    1.2892   -2.1475   -2.2240 C   0  0  0  0  0  0  0  0  0  0  0  0
    2.0946   -2.4421   -1.5424 H   0  0  0  0  0  0  0  0  0  0  0  0
    0.7863   -3.0529   -2.5779 H   0  0  0  0  0  0  0  0  0  0  0  0
    1.7308   -1.6415   -3.0894 H   0  0  0  0  0  0  0  0  0  0  0  0
  1  2  1  0  0  0  0
  2  3  1  0  0  0  0
  2  4  1  0  0  0  0
  2  5  1  0  0  0  0
  5  6  2  0  0  0  0
  5  7  1  0  0  0  0
  7  8  1  0  0  0  0
  7  9  1  0  0  0  0
  9 10  1  0  0  0  0
  9 11  1  0  0  0  0
  9 23  1  0  0  0  0
 11 12  1  0  0  0  0
 11 13  1  0  0  0  0
 11 14  1  0  0  0  0
 14 15  1  0  0  0  0
 14 21  2  0  0  0  0
 15 16  1  0  0  0  0
 15 17  2  0  0  0  0
 17 18  1  0  0  0  0
 17 19  1  0  0  0  0
 19 20  1  0  0  0  0
 19 21  1  0  0  0  0
 21 22  1  0  0  0  0
 23 24  2  0  0  0  0
 23 25  1  0  0  0  0
 25 26  1  0  0  0  0
 25 27  1  0  0  0  0
 27 28  1  0  0  0  0
 27 29  1  0  0  0  0
 27 30  1  0  0  0  0
M  CHG  1  15   1
M  END
$$$$

  -OEChem-01062216083D

 30 30  0     1  0  0  0  0  0999 V2000
   -3.6168   -2.1394    1.2091 H   0  0  0  0  0  0  0  0  0  0  0  0
   -3.4603   -1.3230    0.4977 C   0  0  0  0  0  0  0  0  0  0  0  0
   -4.2066   -0.5475    0.6849 H   0  0  0  0  0  0  0  0  0  0  0  0
   -3.5957   -1.7131   -0.5141 H   0  0  0  0  0  0  0  0  0  0  0  0
   -2.0633   -0.7533    0.6553 C   0  0  0  0  0  0  0  0  0  0  0  0
   -1.3293   -1.2030    1.5147 O   0  0  0  0  0  0  0  0  0  0  0  0
   -1.6520    0.2778   -0.1729 N   0  0  0  0  0  0  0  0  0  0  0  0
   -2.3316    0.5527   -0.8796 H   0  0  0  0  0  0  0  0  0  0  0  0
   -0.2955    0.8797   -0.2795 C   0  0  1  0  0  0  0  0  0  0  0  0
   -0.3805    1.7886   -0.8822 H   0  0  0  0  0  0  0  0  0  0  0  0
    0.3227    1.2723    1.0891 C   0  0  0  0  0  0  0  0  0  0  0  0
    0.4371    0.3969    1.7335 H   0  0  0  0  0  0  0  0  0  0  0  0
    1.3373    1.6561    0.9354 H   0  0  0  0  0  0  0  0  0  0  0  0
   -0.4635    2.3489    1.7874 C   0  0  0  0  0  0  0  0  0  0  0  0
   -0.4993    3.7099    1.4824 N   0  3  0  0  0  0  0  0  0  0  0  0
    0.0486    4.1262    0.7244 H   0  0  0  0  0  0  0  0  0  0  0  0
   -1.2490    4.3456    2.3513 C   0  0  0  0  0  0  0  0  0  0  0  0
   -1.4400    5.4203    2.3791 H   0  0  0  0  0  0  0  0  0  0  0  0
   -1.7418    3.3968    3.2464 N   0  0  0  0  0  0  0  0  0  0  0  0
   -2.3416    3.5900    4.0545 H   0  0  0  0  0  0  0  0  0  0  0  0
   -1.2408    2.1486    2.8980 C   0  0  0  0  0  0  0  0  0  0  0  0
   -1.4067    1.1920    3.3978 H   0  0  0  0  0  0  0  0  0  0  0  0
    0.7036   -0.0262   -1.0397 C   0  0  0  0  0  0  0  0  0  0  0  0
    1.8822    0.2962   -1.0827 O   0  0  0  0  0  0  0  0  0  0  0  0
    0.2718   -1.0967   -1.8017 N   0  0  0  0  0  0  0  0  0  0  0  0
   -0.6857   -1.4028   -1.6627 H   0  0  0  0  0  0  0  0  0  0  0  0
    1.1873   -1.9779   -2.5218 C   0  0  0  0  0  0  0  0  0  0  0  0
    1.8679   -2.4777   -1.8238 H   0  0  0  0  0  0  0  0  0  0  0  0
    0.6284   -2.7438   -3.0686 H   0  0  0  0  0  0  0  0  0  0  0  0
    1.7827   -1.4080   -3.2435 H   0  0  0  0  0  0  0  0  0  0  0  0
  1  2  1  0  0  0  0
  2  3  1  0  0  0  0
  2  4  1  0  0  0  0
  2  5  1  0  0  0  0
  5  6  2  0  0  0  0
  5  7  1  0  0  0  0
  7  8  1  0  0  0  0
  7  9  1  0  0  0  0
  9 10  1  0  0  0  0
  9 11  1  0  0  0  0
  9 23  1  0  0  0  0
 11 12  1  0  0  0  0
 11 13  1  0  0  0  0
 11 14  1  0  0  0  0
 14 15  1  0  0  0  0
 14 21  2  0  0  0  0
 15 16  1  0  0  0  0
 15 17  2  0  0  0  0
 17 18  1  0  0  0  0
 17 19  1  0  0  0  0
 19 20  1  0  0  0  0
 19 21  1  0  0  0  0
 21 22  1  0  0  0  0
 23 24  2  0  0  0  0
 23 25  1  0  0  0  0
 25 26  1  0  0  0  0
 25 27  1  0  0  0  0
 27 28  1  0  0  0  0
 27 29  1  0  0  0  0
 27 30  1  0  0  0  0
M  CHG  1  15   1
M  END
$$$$

  -OEChem-01062216083D

 30 30  0     1  0  0  0  0  0999 V2000
   -3.5744   -2.1579    1.1770 H   0  0  0  0  0  0  0  0  0  0  0  0
   -3.4175   -1.3447    0.4618 C   0  0  0  0  0  0  0  0  0  0  0  0
   -4.1844   -0.5834    0.6227 H   0  0  0  0  0  0  0  0  0  0  0  0
   -3.5189   -1.7471   -0.5491 H   0  0  0  0  0  0  0  0  0  0  0  0
   -2.0369   -0.7446    0.6484 C   0  0  0  0  0  0  0  0  0  0  0  0
   -1.3225   -1.1630    1.5396 O   0  0  0  0  0  0  0  0  0  0  0  0
   -1.6300    0.2901   -0.1782 N   0  0  0  0  0  0  0  0  0  0  0  0
   -2.3089    0.5587   -0.8874 H   0  0  0  0  0  0  0  0  0  0  0  0
   -0.2770    0.9001   -0.2786 C   0  0  1  0  0  0  0  0  0  0  0  0
   -0.3595    1.8082   -0.8825 H   0  0  0  0  0  0  0  0  0  0  0  0
    0.3337    1.2952    1.0941 C   0  0  0  0  0  0  0  0  0  0  0  0
    0.4554    0.4192    1.7364 H   0  0  0  0  0  0  0  0  0  0  0  0
    1.3450    1.6888    0.9432 H   0  0  0  0  0  0  0  0  0  0  0  0
   -0.4600    2.3657    1.7935 C   0  0  0  0  0  0  0  0  0  0  0  0
   -0.5077    3.7285    1.4982 N   0  3  0  0  0  0  0  0  0  0  0  0
    0.0408    4.1563    0.7472 H   0  0  0  0  0  0  0  0  0  0  0  0
   -1.2645    4.3507    2.3709 C   0  0  0  0  0  0  0  0  0  0  0  0
   -1.4639    5.4235    2.4078 H   0  0  0  0  0  0  0  0  0  0  0  0
   -1.7516    3.3905    3.2571 N   0  0  0  0  0  0  0  0  0  0  0  0
   -2.3554    3.5714    4.0650 H   0  0  0  0  0  0  0  0  0  0  0  0
   -1.2391    2.1499    2.8998 C   0  0  0  0  0  0  0  0  0  0  0  0
   -1.3981    1.1871    3.3903 H   0  0  0  0  0  0  0  0  0  0  0  0
    0.7113   -0.0198   -1.0398 C   0  0  0  0  0  0  0  0  0  0  0  0
    1.9162    0.1253   -0.8922 O   0  0  0  0  0  0  0  0  0  0  0  0
    0.2622   -0.8814   -2.0252 N   0  0  0  0  0  0  0  0  0  0  0  0
   -0.7378   -1.0434   -2.0809 H   0  0  0  0  0  0  0  0  0  0  0  0
    1.1534   -1.7590   -2.7804 C   0  0  0  0  0  0  0  0  0  0  0  0
    1.6780   -2.4461   -2.1073 H   0  0  0  0  0  0  0  0  0  0  0  0
    0.5829   -2.3515   -3.5026 H   0  0  0  0  0  0  0  0  0  0  0  0
    1.8973   -1.1721   -3.3300 H   0  0  0  0  0  0  0  0  0  0  0  0
  1  2  1  0  0  0  0
  2  3  1  0  0  0  0
  2  4  1  0  0  0  0
  2  5  1  0  0  0  0
  5  6  2  0  0  0  0
  5  7  1  0  0  0  0
  7  8  1  0  0  0  0
  7  9  1  0  0  0  0
  9 10  1  0  0  0  0
  9 11  1  0  0  0  0
  9 23  1  0  0  0  0
 11 12  1  0  0  0  0
 11 13  1  0  0  0  0
 11 14  1  0  0  0  0
 14 15  1  0  0  0  0
 14 21  2  0  0  0  0
 15 16  1  0  0  0  0
 15 17  2  0  0  0  0
 17 18  1  0  0  0  0
 17 19  1  0  0  0  0
 19 20  1  0  0  0  0
 19 21  1  0  0  0  0
 21 22  1  0  0  0  0
 23 24  2  0  0  0  0
 23 25  1  0  0  0  0
 25 26  1  0  0  0  0
 25 27  1  0  0  0  0
 27 28  1  0  0  0  0
 27 29  1  0  0  0  0
 27 30  1  0  0  0  0
M  CHG  1  15   1
M  END
$$$$

  -OEChem-01062216083D

 30 30  0     1  0  0  0  0  0999 V2000
   -3.5371   -2.1774    1.1424 H   0  0  0  0  0  0  0  0  0  0  0  0
   -3.3729   -1.3765    0.4151 C   0  0  0  0  0  0  0  0  0  0  0  0
   -4.1711   -0.6380    0.5199 H   0  0  0  0  0  0  0  0  0  0  0  0
   -3.4115   -1.8064   -0.5887 H   0  0  0  0  0  0  0  0  0  0  0  0
   -2.0235   -0.7257    0.6511 C   0  0  0  0  0  0  0  0  0  0  0  0
   -1.3470   -1.0902    1.5944 O   0  0  0  0  0  0  0  0  0  0  0  0
   -1.6181    0.3087   -0.1774 N   0  0  0  0  0  0  0  0  0  0  0  0
   -2.2786    0.5337   -0.9177 H   0  0  0  0  0  0  0  0  0  0  0  0
   -0.2672    0.9228   -0.2757 C   0  0  1  0  0  0  0  0  0  0  0  0
   -0.3471    1.8313   -0.8791 H   0  0  0  0  0  0  0  0  0  0  0  0
    0.3445    1.3171    1.0969 C   0  0  0  0  0  0  0  0  0  0  0  0
    0.4748    0.4402    1.7368 H   0  0  0  0  0  0  0  0  0  0  0  0
    1.3535    1.7149    0.9403 H   0  0  0  0  0  0  0  0  0  0  0  0
   -0.4500    2.3833    1.8017 C   0  0  0  0  0  0  0  0  0  0  0  0
   -0.5072    3.7478    1.5169 N   0  3  0  0  0  0  0  0  0  0  0  0
    0.0381    4.1855    0.7698 H   0  0  0  0  0  0  0  0  0  0  0  0
   -1.2705    4.3573    2.3931 C   0  0  0  0  0  0  0  0  0  0  0  0
   -1.4787    5.4282    2.4375 H   0  0  0  0  0  0  0  0  0  0  0  0
   -1.7519    3.3868    3.2711 N   0  0  0  0  0  0  0  0  0  0  0  0
   -2.3602    3.5561    4.0781 H   0  0  0  0  0  0  0  0  0  0  0  0
   -1.2302    2.1530    2.9042 C   0  0  0  0  0  0  0  0  0  0  0  0
   -1.3861    1.1837    3.3833 H   0  0  0  0  0  0  0  0  0  0  0  0
    0.7096   -0.0119   -1.0360 C   0  0  0  0  0  0  0  0  0  0  0  0
    1.8856   -0.0850   -0.7096 O   0  0  0  0  0  0  0  0  0  0  0  0
    0.3100   -0.6364   -2.2049 N   0  0  0  0  0  0  0  0  0  0  0  0
   -0.6759   -0.6079   -2.4424 H   0  0  0  0  0  0  0  0  0  0  0  0
    1.1907   -1.5039   -2.9843 C   0  0  0  0  0  0  0  0  0  0  0  0
    1.5424   -2.3430   -2.3740 H   0  0  0  0  0  0  0  0  0  0  0  0
    0.6592   -1.9080   -3.8515 H   0  0  0  0  0  0  0  0  0  0  0  0
    2.0614   -0.9449   -3.3444 H   0  0  0  0  0  0  0  0  0  0  0  0
  1  2  1  0  0  0  0
  2  3  1  0  0  0  0
  2  4  1  0  0  0  0
  2  5  1  0  0  0  0
  5  6  2  0  0  0  0
  5  7  1  0  0  0  0
  7  8  1  0  0  0  0
  7  9  1  0  0  0  0
  9 10  1  0  0  0  0
  9 11  1  0  0  0  0
  9 23  1  0  0  0  0
 11 12  1  0  0  0  0
 11 13  1  0  0  0  0
 11 14  1  0  0  0  0
 14 15  1  0  0  0  0
 14 21  2  0  0  0  0
 15 16  1  0  0  0  0
 15 17  2  0  0  0  0
 17 18  1  0  0  0  0
 17 19  1  0  0  0  0
 19 20  1  0  0  0  0
 19 21  1  0  0  0  0
 21 22  1  0  0  0  0
 23 24  2  0  0  0  0
 23 25  1  0  0  0  0
 25 26  1  0  0  0  0
 25 27  1  0  0  0  0
 27 28  1  0  0  0  0
 27 29  1  0  0  0  0
 27 30  1  0  0  0  0
M  CHG  1  15   1
M  END
$$$$

  -OEChem-01062216083D

 30 30  0     1  0  0  0  0  0999 V2000
   -3.4752   -2.2334    1.0869 H   0  0  0  0  0  0  0  0  0  0  0  0
   -3.3209   -1.4281    0.3625 C   0  0  0  0  0  0  0  0  0  0  0  0
   -4.1642   -0.7362    0.4217 H   0  0  0  0  0  0  0  0  0  0  0  0
   -3.2845   -1.8652   -0.6384 H   0  0  0  0  0  0  0  0  0  0  0  0
   -2.0234   -0.7008    0.6607 C   0  0  0  0  0  0  0  0  0  0  0  0
   -1.4014   -0.9920    1.6655 O   0  0  0  0  0  0  0  0  0  0  0  0
   -1.6219    0.3324   -0.1723 N   0  0  0  0  0  0  0  0  0  0  0  0
   -2.2472    0.4848   -0.9597 H   0  0  0  0  0  0  0  0  0  0  0  0
   -0.2711    0.9473   -0.2714 C   0  0  1  0  0  0  0  0  0  0  0  0
   -0.3502    1.8576   -0.8722 H   0  0  0  0  0  0  0  0  0  0  0  0
    0.3512    1.3402    1.0961 C   0  0  0  0  0  0  0  0  0  0  0  0
    0.4834    0.4625    1.7350 H   0  0  0  0  0  0  0  0  0  0  0  0
    1.3613    1.7302    0.9271 H   0  0  0  0  0  0  0  0  0  0  0  0
   -0.4364    2.4064    1.8097 C   0  0  0  0  0  0  0  0  0  0  0  0
   -0.5004    3.7728    1.5341 N   0  3  0  0  0  0  0  0  0  0  0  0
    0.0400    4.2184    0.7883 H   0  0  0  0  0  0  0  0  0  0  0  0
   -1.2649    4.3730    2.4162 C   0  0  0  0  0  0  0  0  0  0  0  0
   -1.4783    5.4425    2.4692 H   0  0  0  0  0  0  0  0  0  0  0  0
   -1.7415    3.3944    3.2878 N   0  0  0  0  0  0  0  0  0  0  0  0
   -2.3523    3.5540    4.0949 H   0  0  0  0  0  0  0  0  0  0  0  0
   -1.2151    2.1659    2.9110 C   0  0  0  0  0  0  0  0  0  0  0  0
   -1.3696    1.1911    3.3796 H   0  0  0  0  0  0  0  0  0  0  0  0
    0.6964    0.0026   -1.0312 C   0  0  0  0  0  0  0  0  0  0  0  0
    1.7750   -0.3171   -0.5528 O   0  0  0  0  0  0  0  0  0  0  0  0
    0.4157   -0.3733   -2.3336 N   0  0  0  0  0  0  0  0  0  0  0  0
   -0.4848   -0.1154   -2.7237 H   0  0  0  0  0  0  0  0  0  0  0  0
    1.2939   -1.2390   -3.1182 C   0  0  0  0  0  0  0  0  0  0  0  0
    1.3969   -2.2180   -2.6373 H   0  0  0  0  0  0  0  0  0  0  0  0
    0.8854   -1.3893   -4.1225 H   0  0  0  0  0  0  0  0  0  0  0  0
    2.2891   -0.7914   -3.2163 H   0  0  0  0  0  0  0  0  0  0  0  0
  1  2  1  0  0  0  0
  2  3  1  0  0  0  0
  2  4  1  0  0  0  0
  2  5  1  0  0  0  0
  5  6  2  0  0  0  0
  5  7  1  0  0  0  0
  7  8  1  0  0  0  0
  7  9  1  0  0  0  0
  9 10  1  0  0  0  0
  9 11  1  0  0  0  0
  9 23  1  0  0  0  0
 11 12  1  0  0  0  0
 11 13  1  0  0  0  0
 11 14  1  0  0  0  0
 14 15  1  0  0  0  0
 14 21  2  0  0  0  0
 15 16  1  0  0  0  0
 15 17  2  0  0  0  0
 17 18  1  0  0  0  0
 17 19  1  0  0  0  0
 19 20  1  0  0  0  0
 19 21  1  0  0  0  0
 21 22  1  0  0  0  0
 23 24  2  0  0  0  0
 23 25  1  0  0  0  0
 25 26  1  0  0  0  0
 25 27  1  0  0  0  0
 27 28  1  0  0  0  0
 27 29  1  0  0  0  0
 27 30  1  0  0  0  0
M  CHG  1  15   1
M  END
$$$$

  -OEChem-01062216083D

 30 30  0     1  0  0  0  0  0999 V2000
   -3.4393   -2.2538    1.0584 H   0  0  0  0  0  0  0  0  0  0  0  0
   -3.2691   -1.4708    0.3132 C   0  0  0  0  0  0  0  0  0  0  0  0
   -4.1433   -0.8162    0.2854 H   0  0  0  0  0  0  0  0  0  0  0  0
   -3.1429   -1.9442   -0.6636 H   0  0  0  0  0  0  0  0  0  0  0  0
   -2.0288   -0.6733    0.6681 C   0  0  0  0  0  0  0  0  0  0  0  0
   -1.4697   -0.8932    1.7272 O   0  0  0  0  0  0  0  0  0  0  0  0
   -1.6302    0.3583   -0.1686 N   0  0  0  0  0  0  0  0  0  0  0  0
   -2.2129    0.4389   -0.9982 H   0  0  0  0  0  0  0  0  0  0  0  0
   -0.2781    0.9690   -0.2655 C   0  0  1  0  0  0  0  0  0  0  0  0
   -0.3542    1.8825   -0.8616 H   0  0  0  0  0  0  0  0  0  0  0  0
    0.3553    1.3536    1.0985 C   0  0  0  0  0  0  0  0  0  0  0  0
    0.4822    0.4733    1.7355 H   0  0  0  0  0  0  0  0  0  0  0  0
    1.3686    1.7318    0.9241 H   0  0  0  0  0  0  0  0  0  0  0  0
   -0.4253    2.4207    1.8200 C   0  0  0  0  0  0  0  0  0  0  0  0
   -0.4891    3.7889    1.5518 N   0  3  0  0  0  0  0  0  0  0  0  0
    0.0463    4.2379    0.8047 H   0  0  0  0  0  0  0  0  0  0  0  0
   -1.2548    4.3848    2.4357 C   0  0  0  0  0  0  0  0  0  0  0  0
   -1.4716    5.4534    2.4915 H   0  0  0  0  0  0  0  0  0  0  0  0
   -1.7298    3.4025    3.3037 N   0  0  0  0  0  0  0  0  0  0  0  0
   -2.3448    3.5570    4.1085 H   0  0  0  0  0  0  0  0  0  0  0  0
   -1.2038    2.1761    2.9207 C   0  0  0  0  0  0  0  0  0  0  0  0
   -1.3624    1.1981    3.3821 H   0  0  0  0  0  0  0  0  0  0  0  0
    0.6803    0.0159   -1.0230 C   0  0  0  0  0  0  0  0  0  0  0  0
    1.6000   -0.5484   -0.4495 O   0  0  0  0  0  0  0  0  0  0  0  0
    0.5760   -0.1145   -2.3972 N   0  0  0  0  0  0  0  0  0  0  0  0
   -0.1873    0.3586   -2.8707 H   0  0  0  0  0  0  0  0  0  0  0  0
    1.4602   -0.9716   -3.1846 C   0  0  0  0  0  0  0  0  0  0  0  0
    1.3858   -2.0122   -2.8497 H   0  0  0  0  0  0  0  0  0  0  0  0
    1.1876   -0.9309   -4.2439 H   0  0  0  0  0  0  0  0  0  0  0  0
    2.5016   -0.6463   -3.0851 H   0  0  0  0  0  0  0  0  0  0  0  0
  1  2  1  0  0  0  0
  2  3  1  0  0  0  0
  2  4  1  0  0  0  0
  2  5  1  0  0  0  0
  5  6  2  0  0  0  0
  5  7  1  0  0  0  0
  7  8  1  0  0  0  0
  7  9  1  0  0  0  0
  9 10  1  0  0  0  0
  9 11  1  0  0  0  0
  9 23  1  0  0  0  0
 11 12  1  0  0  0  0
 11 13  1  0  0  0  0
 11 14  1  0  0  0  0
 14 15  1  0  0  0  0
 14 21  2  0  0  0  0
 15 16  1  0  0  0  0
 15 17  2  0  0  0  0
 17 18  1  0  0  0  0
 17 19  1  0  0  0  0
 19 20  1  0  0  0  0
 19 21  1  0  0  0  0
 21 22  1  0  0  0  0
 23 24  2  0  0  0  0
 23 25  1  0  0  0  0
 25 26  1  0  0  0  0
 25 27  1  0  0  0  0
 27 28  1  0  0  0  0
 27 29  1  0  0  0  0
 27 30  1  0  0  0  0
M  CHG  1  15   1
M  END
$$$$

  -OEChem-01062216083D

 30 30  0     1  0  0  0  0  0999 V2000
   -3.4123   -2.2616    1.0492 H   0  0  0  0  0  0  0  0  0  0  0  0
   -3.2262   -1.5043    0.2816 C   0  0  0  0  0  0  0  0  0  0  0  0
   -4.1190   -0.8834    0.1770 H   0  0  0  0  0  0  0  0  0  0  0  0
   -3.0281   -2.0120   -0.6657 H   0  0  0  0  0  0  0  0  0  0  0  0
   -2.0354   -0.6491    0.6697 C   0  0  0  0  0  0  0  0  0  0  0  0
   -1.5264   -0.8111    1.7647 O   0  0  0  0  0  0  0  0  0  0  0  0
   -1.6449    0.3811   -0.1730 N   0  0  0  0  0  0  0  0  0  0  0  0
   -2.1973    0.4104   -1.0268 H   0  0  0  0  0  0  0  0  0  0  0  0
   -0.2938    0.9928   -0.2696 C   0  0  1  0  0  0  0  0  0  0  0  0
   -0.3731    1.9088   -0.8612 H   0  0  0  0  0  0  0  0  0  0  0  0
    0.3523    1.3692    1.0895 C   0  0  0  0  0  0  0  0  0  0  0  0
    0.4798    0.4848    1.7213 H   0  0  0  0  0  0  0  0  0  0  0  0
    1.3655    1.7434    0.9077 H   0  0  0  0  0  0  0  0  0  0  0  0
   -0.4212    2.4329    1.8251 C   0  0  0  0  0  0  0  0  0  0  0  0
   -0.4881    3.8029    1.5667 N   0  3  0  0  0  0  0  0  0  0  0  0
    0.0360    4.2570    0.8152 H   0  0  0  0  0  0  0  0  0  0  0  0
   -1.2486    4.3924    2.4592 C   0  0  0  0  0  0  0  0  0  0  0  0
   -1.4698    5.4596    2.5199 H   0  0  0  0  0  0  0  0  0  0  0  0
   -1.7131    3.4052    3.3268 N   0  0  0  0  0  0  0  0  0  0  0  0
   -2.3248    3.5525    4.1354 H   0  0  0  0  0  0  0  0  0  0  0  0
   -1.1892    2.1822    2.9320 C   0  0  0  0  0  0  0  0  0  0  0  0
   -1.3457    1.2014    3.3882 H   0  0  0  0  0  0  0  0  0  0  0  0
    0.6673    0.0406   -1.0227 C   0  0  0  0  0  0  0  0  0  0  0  0
    1.3770   -0.7463   -0.4155 O   0  0  0  0  0  0  0  0  0  0  0  0
    0.7917    0.1248   -2.3988 N   0  0  0  0  0  0  0  0  0  0  0  0
    0.1889    0.7689   -2.9020 H   0  0  0  0  0  0  0  0  0  0  0  0
    1.6896   -0.7344   -3.1683 C   0  0  0  0  0  0  0  0  0  0  0  0
    1.4255   -1.7887   -3.0297 H   0  0  0  0  0  0  0  0  0  0  0  0
    1.6220   -0.5004   -4.2356 H   0  0  0  0  0  0  0  0  0  0  0  0
    2.7280   -0.5900   -2.8501 H   0  0  0  0  0  0  0  0  0  0  0  0
  1  2  1  0  0  0  0
  2  3  1  0  0  0  0
  2  4  1  0  0  0  0
  2  5  1  0  0  0  0
  5  6  2  0  0  0  0
  5  7  1  0  0  0  0
  7  8  1  0  0  0  0
  7  9  1  0  0  0  0
  9 10  1  0  0  0  0
  9 11  1  0  0  0  0
  9 23  1  0  0  0  0
 11 12  1  0  0  0  0
 11 13  1  0  0  0  0
 11 14  1  0  0  0  0
 14 15  1  0  0  0  0
 14 21  2  0  0  0  0
 15 16  1  0  0  0  0
 15 17  2  0  0  0  0
 17 18  1  0  0  0  0
 17 19  1  0  0  0  0
 19 20  1  0  0  0  0
 19 21  1  0  0  0  0
 21 22  1  0  0  0  0
 23 24  2  0  0  0  0
 23 25  1  0  0  0  0
 25 26  1  0  0  0  0
 25 27  1  0  0  0  0
 27 28  1  0  0  0  0
 27 29  1  0  0  0  0
 27 30  1  0  0  0  0
M  CHG  1  15   1
M  END
$$$$

  -OEChem-01062216083D

 30 30  0     1  0  0  0  0  0999 V2000
   -3.3523   -2.2949    1.0209 H   0  0  0  0  0  0  0  0  0  0  0  0
   -3.1725   -1.5395    0.2504 C   0  0  0  0  0  0  0  0  0  0  0  0
   -4.0877   -0.9611    0.1048 H   0  0  0  0  0  0  0  0  0  0  0  0
   -2.9167   -2.0493   -0.6817 H   0  0  0  0  0  0  0  0  0  0  0  0
   -2.0363   -0.6267    0.6697 C   0  0  0  0  0  0  0  0  0  0  0  0
   -1.5759   -0.7380    1.7929 O   0  0  0  0  0  0  0  0  0  0  0  0
   -1.6535    0.4035   -0.1771 N   0  0  0  0  0  0  0  0  0  0  0  0
   -2.1766    0.3901   -1.0498 H   0  0  0  0  0  0  0  0  0  0  0  0
   -0.3028    1.0162   -0.2673 C   0  0  1  0  0  0  0  0  0  0  0  0
   -0.3852    1.9337   -0.8557 H   0  0  0  0  0  0  0  0  0  0  0  0
    0.3509    1.3838    1.0890 C   0  0  0  0  0  0  0  0  0  0  0  0
    0.4773    0.4934    1.7130 H   0  0  0  0  0  0  0  0  0  0  0  0
    1.3640    1.7570    0.9059 H   0  0  0  0  0  0  0  0  0  0  0  0
   -0.4196    2.4443    1.8346 C   0  0  0  0  0  0  0  0  0  0  0  0
   -0.4863    3.8157    1.5816 N   0  3  0  0  0  0  0  0  0  0  0  0
    0.0308    4.2715    0.8264 H   0  0  0  0  0  0  0  0  0  0  0  0
   -1.2455    4.4033    2.4767 C   0  0  0  0  0  0  0  0  0  0  0  0
   -1.4690    5.4700    2.5396 H   0  0  0  0  0  0  0  0  0  0  0  0
   -1.7070    3.4143    3.3432 N   0  0  0  0  0  0  0  0  0  0  0  0
   -2.3205    3.5589    4.1510 H   0  0  0  0  0  0  0  0  0  0  0  0
   -1.1836    2.1925    2.9443 C   0  0  0  0  0  0  0  0  0  0  0  0
   -1.3409    1.2115    3.3995 H   0  0  0  0  0  0  0  0  0  0  0  0
    0.6629    0.0659   -1.0132 C   0  0  0  0  0  0  0  0  0  0  0  0
    1.1229   -0.9158   -0.4519 O   0  0  0  0  0  0  0  0  0  0  0  0
    1.0401    0.3301   -2.3185 N   0  0  0  0  0  0  0  0  0  0  0  0
    0.6172    1.1207   -2.7957 H   0  0  0  0  0  0  0  0  0  0  0  0
    1.9320   -0.5445   -3.0776 C   0  0  0  0  0  0  0  0  0  0  0  0
    1.4961   -1.5447   -3.1777 H   0  0  0  0  0  0  0  0  0  0  0  0
    2.1014   -0.1405   -4.0808 H   0  0  0  0  0  0  0  0  0  0  0  0
    2.9019   -0.6354   -2.5762 H   0  0  0  0  0  0  0  0  0  0  0  0
  1  2  1  0  0  0  0
  2  3  1  0  0  0  0
  2  4  1  0  0  0  0
  2  5  1  0  0  0  0
  5  6  2  0  0  0  0
  5  7  1  0  0  0  0
  7  8  1  0  0  0  0
  7  9  1  0  0  0  0
  9 10  1  0  0  0  0
  9 11  1  0  0  0  0
  9 23  1  0  0  0  0
 11 12  1  0  0  0  0
 11 13  1  0  0  0  0
 11 14  1  0  0  0  0
 14 15  1  0  0  0  0
 14 21  2  0  0  0  0
 15 16  1  0  0  0  0
 15 17  2  0  0  0  0
 17 18  1  0  0  0  0
 17 19  1  0  0  0  0
 19 20  1  0  0  0  0
 19 21  1  0  0  0  0
 21 22  1  0  0  0  0
 23 24  2  0  0  0  0
 23 25  1  0  0  0  0
 25 26  1  0  0  0  0
 25 27  1  0  0  0  0
 27 28  1  0  0  0  0
 27 29  1  0  0  0  0
 27 30  1  0  0  0  0
M  CHG  1  15   1
M  END
$$$$

  -OEChem-01062216083D

 30 30  0     1  0  0  0  0  0999 V2000
   -3.3230   -2.3070    1.0105 H   0  0  0  0  0  0  0  0  0  0  0  0
   -3.1388   -1.5606    0.2323 C   0  0  0  0  0  0  0  0  0  0  0  0
   -4.0643   -1.0108    0.0457 H   0  0  0  0  0  0  0  0  0  0  0  0
   -2.8380   -2.0797   -0.6813 H   0  0  0  0  0  0  0  0  0  0  0  0
   -2.0417   -0.6097    0.6703 C   0  0  0  0  0  0  0  0  0  0  0  0
   -1.6110   -0.6895    1.8088 O   0  0  0  0  0  0  0  0  0  0  0  0
   -1.6608    0.4163   -0.1827 N   0  0  0  0  0  0  0  0  0  0  0  0
   -2.1604    0.3705   -1.0680 H   0  0  0  0  0  0  0  0  0  0  0  0
   -0.3098    1.0300   -0.2675 C   0  0  1  0  0  0  0  0  0  0  0  0
   -0.3928    1.9454   -0.8593 H   0  0  0  0  0  0  0  0  0  0  0  0
    0.3455    1.3944    1.0874 C   0  0  0  0  0  0  0  0  0  0  0  0
    0.4720    0.5003    1.7063 H   0  0  0  0  0  0  0  0  0  0  0  0
    1.3582    1.7691    0.9052 H   0  0  0  0  0  0  0  0  0  0  0  0
   -0.4238    2.4538    1.8380 C   0  0  0  0  0  0  0  0  0  0  0  0
   -0.4919    3.8264    1.5896 N   0  3  0  0  0  0  0  0  0  0  0  0
    0.0160    4.2841    0.8295 H   0  0  0  0  0  0  0  0  0  0  0  0
   -1.2468    4.4120    2.4898 C   0  0  0  0  0  0  0  0  0  0  0  0
   -1.4726    5.4781    2.5550 H   0  0  0  0  0  0  0  0  0  0  0  0
   -1.7019    3.4214    3.3575 N   0  0  0  0  0  0  0  0  0  0  0  0
   -2.3134    3.5634    4.1671 H   0  0  0  0  0  0  0  0  0  0  0  0
   -1.1798    2.2011    2.9534 C   0  0  0  0  0  0  0  0  0  0  0  0
   -1.3344    1.2201    3.4095 H   0  0  0  0  0  0  0  0  0  0  0  0
    0.6636    0.0780   -1.0011 C   0  0  0  0  0  0  0  0  0  0  0  0
    0.8859   -1.0364   -0.5549 O   0  0  0  0  0  0  0  0  0  0  0  0
    1.2949    0.4712   -2.1683 N   0  0  0  0  0  0  0  0  0  0  0  0
    1.0581    1.3737   -2.5694 H   0  0  0  0  0  0  0  0  0  0  0  0
    2.1979   -0.4048   -2.9128 C   0  0  0  0  0  0  0  0  0  0  0  0
    1.6716   -1.3050   -3.2487 H   0  0  0  0  0  0  0  0  0  0  0  0
    2.5927    0.1121   -3.7933 H   0  0  0  0  0  0  0  0  0  0  0  0
    3.0433   -0.7088   -2.2856 H   0  0  0  0  0  0  0  0  0  0  0  0
  1  2  1  0  0  0  0
  2  3  1  0  0  0  0
  2  4  1  0  0  0  0
  2  5  1  0  0  0  0
  5  6  2  0  0  0  0
  5  7  1  0  0  0  0
  7  8  1  0  0  0  0
  7  9  1  0  0  0  0
  9 10  1  0  0  0  0
  9 11  1  0  0  0  0
  9 23  1  0  0  0  0
 11 12  1  0  0  0  0
 11 13  1  0  0  0  0
 11 14  1  0  0  0  0
 14 15  1  0  0  0  0
 14 21  2  0  0  0  0
 15 16  1  0  0  0  0
 15 17  2  0  0  0  0
 17 18  1  0  0  0  0
 17 19  1  0  0  0  0
 19 20  1  0  0  0  0
 19 21  1  0  0  0  0
 21 22  1  0  0  0  0
 23 24  2  0  0  0  0
 23 25  1  0  0  0  0
 25 26  1  0  0  0  0
 25 27  1  0  0  0  0
 27 28  1  0  0  0  0
 27 29  1  0  0  0  0
 27 30  1  0  0  0  0
M  CHG  1  15   1
M  END
$$$$

  -OEChem-01062216083D

 30 30  0     1  0  0  0  0  0999 V2000
   -3.3177   -2.3097    1.0188 H   0  0  0  0  0  0  0  0  0  0  0  0
   -3.1219   -1.5728    0.2345 C   0  0  0  0  0  0  0  0  0  0  0  0
   -4.0468   -1.0327    0.0197 H   0  0  0  0  0  0  0  0  0  0  0  0
   -2.7962   -2.1018   -0.6649 H   0  0  0  0  0  0  0  0  0  0  0  0
   -2.0417   -0.6074    0.6824 C   0  0  0  0  0  0  0  0  0  0  0  0
   -1.6245   -0.6753    1.8273 O   0  0  0  0  0  0  0  0  0  0  0  0
   -1.6570    0.4153   -0.1730 N   0  0  0  0  0  0  0  0  0  0  0  0
   -2.1382    0.3471   -1.0671 H   0  0  0  0  0  0  0  0  0  0  0  0
   -0.3030    1.0242   -0.2548 C   0  0  1  0  0  0  0  0  0  0  0  0
   -0.3863    1.9364   -0.8514 H   0  0  0  0  0  0  0  0  0  0  0  0
    0.3463    1.3911    1.1011 C   0  0  0  0  0  0  0  0  0  0  0  0
    0.4669    0.4979    1.7223 H   0  0  0  0  0  0  0  0  0  0  0  0
    1.3606    1.7636    0.9239 H   0  0  0  0  0  0  0  0  0  0  0  0
   -0.4256    2.4562    1.8424 C   0  0  0  0  0  0  0  0  0  0  0  0
   -0.4898    3.8283    1.5880 N   0  3  0  0  0  0  0  0  0  0  0  0
    0.0193    4.2819    0.8264 H   0  0  0  0  0  0  0  0  0  0  0  0
   -1.2511    4.4191    2.4793 C   0  0  0  0  0  0  0  0  0  0  0  0
   -1.4779    5.4854    2.5367 H   0  0  0  0  0  0  0  0  0  0  0  0
   -1.7133    3.4334    3.3485 N   0  0  0  0  0  0  0  0  0  0  0  0
   -2.3310    3.5797    4.1526 H   0  0  0  0  0  0  0  0  0  0  0  0
   -1.1906    2.2105    2.9534 C   0  0  0  0  0  0  0  0  0  0  0  0
   -1.3524    1.2321    3.4123 H   0  0  0  0  0  0  0  0  0  0  0  0
    0.6806    0.0754   -0.9817 C   0  0  0  0  0  0  0  0  0  0  0  0
    0.6806   -1.1204   -0.7336 O   0  0  0  0  0  0  0  0  0  0  0  0
    1.5451    0.5569   -1.9500 N   0  0  0  0  0  0  0  0  0  0  0  0
    1.4943    1.5387   -2.2037 H   0  0  0  0  0  0  0  0  0  0  0  0
    2.4495   -0.3094   -2.7044 C   0  0  0  0  0  0  0  0  0  0  0  0
    1.8834   -1.0517   -3.2779 H   0  0  0  0  0  0  0  0  0  0  0  0
    3.0500    0.2807   -3.4041 H   0  0  0  0  0  0  0  0  0  0  0  0
    3.1308   -0.8371   -2.0277 H   0  0  0  0  0  0  0  0  0  0  0  0
  1  2  1  0  0  0  0
  2  3  1  0  0  0  0
  2  4  1  0  0  0  0
  2  5  1  0  0  0  0
  5  6  2  0  0  0  0
  5  7  1  0  0  0  0
  7  8  1  0  0  0  0
  7  9  1  0  0  0  0
  9 10  1  0  0  0  0
  9 11  1  0  0  0  0
  9 23  1  0  0  0  0
 11 12  1  0  0  0  0
 11 13  1  0  0  0  0
 11 14  1  0  0  0  0
 14 15  1  0  0  0  0
 14 21  2  0  0  0  0
 15 16  1  0  0  0  0
 15 17  2  0  0  0  0
 17 18  1  0  0  0  0
 17 19  1  0  0  0  0
 19 20  1  0  0  0  0
 19 21  1  0  0  0  0
 21 22  1  0  0  0  0
 23 24  2  0  0  0  0
 23 25  1  0  0  0  0
 25 26  1  0  0  0  0
 25 27  1  0  0  0  0
 27 28  1  0  0  0  0
 27 29  1  0  0  0  0
 27 30  1  0  0  0  0
M  CHG  1  15   1
M  END
$$$$

  -OEChem-01062216083D

 30 30  0     1  0  0  0  0  0999 V2000
   -3.3169   -2.3115    1.0298 H   0  0  0  0  0  0  0  0  0  0  0  0
   -3.1085   -1.5834    0.2405 C   0  0  0  0  0  0  0  0  0  0  0  0
   -4.0308   -1.0499   -0.0001 H   0  0  0  0  0  0  0  0  0  0  0  0
   -2.7623   -2.1216   -0.6458 H   0  0  0  0  0  0  0  0  0  0  0  0
   -2.0407   -0.6086    0.6971 C   0  0  0  0  0  0  0  0  0  0  0  0
   -1.6214   -0.6804    1.8413 O   0  0  0  0  0  0  0  0  0  0  0  0
   -1.6521    0.4142   -0.1559 N   0  0  0  0  0  0  0  0  0  0  0  0
   -2.1195    0.3337   -1.0567 H   0  0  0  0  0  0  0  0  0  0  0  0
   -0.2927    1.0128   -0.2339 C   0  0  1  0  0  0  0  0  0  0  0  0
   -0.3698    1.9223   -0.8359 H   0  0  0  0  0  0  0  0  0  0  0  0
    0.3503    1.3837    1.1242 C   0  0  0  0  0  0  0  0  0  0  0  0
    0.4619    0.4950    1.7531 H   0  0  0  0  0  0  0  0  0  0  0  0
    1.3673    1.7515    0.9538 H   0  0  0  0  0  0  0  0  0  0  0  0
   -0.4233    2.4592    1.8488 C   0  0  0  0  0  0  0  0  0  0  0  0
   -0.4792    3.8296    1.5832 N   0  3  0  0  0  0  0  0  0  0  0  0
    0.0349    4.2749    0.8200 H   0  0  0  0  0  0  0  0  0  0  0  0
   -1.2531    4.4293    2.4577 C   0  0  0  0  0  0  0  0  0  0  0  0
   -1.4822    5.4958    2.4999 H   0  0  0  0  0  0  0  0  0  0  0  0
   -1.7280    3.4524    3.3299 N   0  0  0  0  0  0  0  0  0  0  0  0
   -2.3596    3.6067    4.1218 H   0  0  0  0  0  0  0  0  0  0  0  0
   -1.2036    2.2247    2.9518 C   0  0  0  0  0  0  0  0  0  0  0  0
   -1.3767    1.2505    3.4153 H   0  0  0  0  0  0  0  0  0  0  0  0
    0.6894    0.0612   -0.9633 C   0  0  0  0  0  0  0  0  0  0  0  0
    0.4886   -1.1443   -0.9806 O   0  0  0  0  0  0  0  0  0  0  0  0
    1.7562    0.5660   -1.6878 N   0  0  0  0  0  0  0  0  0  0  0  0
    1.8836    1.5720   -1.7329 H   0  0  0  0  0  0  0  0  0  0  0  0
    2.6678   -0.2844   -2.4515 C   0  0  0  0  0  0  0  0  0  0  0  0
    2.1233   -0.8309   -3.2293 H   0  0  0  0  0  0  0  0  0  0  0  0
    3.4422    0.3203   -2.9341 H   0  0  0  0  0  0  0  0  0  0  0  0
    3.1591   -1.0100   -1.7938 H   0  0  0  0  0  0  0  0  0  0  0  0
  1  2  1  0  0  0  0
  2  3  1  0  0  0  0
  2  4  1  0  0  0  0
  2  5  1  0  0  0  0
  5  6  2  0  0  0  0
  5  7  1  0  0  0  0
  7  8  1  0  0  0  0
  7  9  1  0  0  0  0
  9 10  1  0  0  0  0
  9 11  1  0  0  0  0
  9 23  1  0  0  0  0
 11 12  1  0  0  0  0
 11 13  1  0  0  0  0
 11 14  1  0  0  0  0
 14 15  1  0  0  0  0
 14 21  2  0  0  0  0
 15 16  1  0  0  0  0
 15 17  2  0  0  0  0
 17 18  1  0  0  0  0
 17 19  1  0  0  0  0
 19 20  1  0  0  0  0
 19 21  1  0  0  0  0
 21 22  1  0  0  0  0
 23 24  2  0  0  0  0
 23 25  1  0  0  0  0
 25 26  1  0  0  0  0
 25 27  1  0  0  0  0
 27 28  1  0  0  0  0
 27 29  1  0  0  0  0
 27 30  1  0  0  0  0
M  CHG  1  15   1
M  END
$$$$

  -OEChem-01062216083D

 30 30  0     1  0  0  0  0  0999 V2000
   -3.3036   -2.3247    1.0251 H   0  0  0  0  0  0  0  0  0  0  0  0
   -3.1004   -1.5836    0.2468 C   0  0  0  0  0  0  0  0  0  0  0  0
   -4.0243   -1.0456    0.0229 H   0  0  0  0  0  0  0  0  0  0  0  0
   -2.7619   -2.1064   -0.6518 H   0  0  0  0  0  0  0  0  0  0  0  0
   -2.0282   -0.6170    0.7110 C   0  0  0  0  0  0  0  0  0  0  0  0
   -1.6015   -0.7041    1.8514 O   0  0  0  0  0  0  0  0  0  0  0  0
   -1.6355    0.4091   -0.1353 N   0  0  0  0  0  0  0  0  0  0  0  0
   -2.0888    0.3186   -1.0427 H   0  0  0  0  0  0  0  0  0  0  0  0
   -0.2736    1.0021   -0.2096 C   0  0  1  0  0  0  0  0  0  0  0  0
   -0.3434    1.9100   -0.8152 H   0  0  0  0  0  0  0  0  0  0  0  0
    0.3543    1.3788    1.1546 C   0  0  0  0  0  0  0  0  0  0  0  0
    0.4581    0.4957    1.7918 H   0  0  0  0  0  0  0  0  0  0  0  0
    1.3730    1.7472    0.9988 H   0  0  0  0  0  0  0  0  0  0  0  0
   -0.4292    2.4606    1.8581 C   0  0  0  0  0  0  0  0  0  0  0  0
   -0.4781    3.8286    1.5787 N   0  3  0  0  0  0  0  0  0  0  0  0
    0.0442    4.2655    0.8160 H   0  0  0  0  0  0  0  0  0  0  0  0
   -1.2629    4.4377    2.4365 C   0  0  0  0  0  0  0  0  0  0  0  0
   -1.4895    5.5054    2.4659 H   0  0  0  0  0  0  0  0  0  0  0  0
   -1.7541    3.4693    3.3096 N   0  0  0  0  0  0  0  0  0  0  0  0
   -2.3980    3.6324    4.0896 H   0  0  0  0  0  0  0  0  0  0  0  0
   -1.2280    2.2366    2.9499 C   0  0  0  0  0  0  0  0  0  0  0  0
   -1.4113    1.2664    3.4183 H   0  0  0  0  0  0  0  0  0  0  0  0
    0.7018    0.0469   -0.9461 C   0  0  0  0  0  0  0  0  0  0  0  0
    0.3530   -1.0886   -1.2374 O   0  0  0  0  0  0  0  0  0  0  0  0
    1.9278    0.4988   -1.4059 N   0  0  0  0  0  0  0  0  0  0  0  0
    2.1935    1.4609   -1.2229 H   0  0  0  0  0  0  0  0  0  0  0  0
    2.8423   -0.3390   -2.1798 C   0  0  0  0  0  0  0  0  0  0  0  0
    2.3667   -0.6728   -3.1088 H   0  0  0  0  0  0  0  0  0  0  0  0
    3.7470    0.2200   -2.4388 H   0  0  0  0  0  0  0  0  0  0  0  0
    3.1369   -1.2220   -1.6019 H   0  0  0  0  0  0  0  0  0  0  0  0
  1  2  1  0  0  0  0
  2  3  1  0  0  0  0
  2  4  1  0  0  0  0
  2  5  1  0  0  0  0
  5  6  2  0  0  0  0
  5  7  1  0  0  0  0
  7  8  1  0  0  0  0
  7  9  1  0  0  0  0
  9 10  1  0  0  0  0
  9 11  1  0  0  0  0
  9 23  1  0  0  0  0
 11 12  1  0  0  0  0
 11 13  1  0  0  0  0
 11 14  1  0  0  0  0
 14 15  1  0  0  0  0
 14 21  2  0  0  0  0
 15 16  1  0  0  0  0
 15 17  2  0  0  0  0
 17 18  1  0  0  0  0
 17 19  1  0  0  0  0
 19 20  1  0  0  0  0
 19 21  1  0  0  0  0
 21 22  1  0  0  0  0
 23 24  2  0  0  0  0
 23 25  1  0  0  0  0
 25 26  1  0  0  0  0
 25 27  1  0  0  0  0
 27 28  1  0  0  0  0
 27 29  1  0  0  0  0
 27 30  1  0  0  0  0
M  CHG  1  15   1
M  END
$$$$

  -OEChem-01062216083D

 30 30  0     1  0  0  0  0  0999 V2000
   -3.4480   -2.3254    0.8978 H   0  0  0  0  0  0  0  0  0  0  0  0
   -3.2290   -1.5135    0.1984 C   0  0  0  0  0  0  0  0  0  0  0  0
   -4.1036   -0.8625    0.1289 H   0  0  0  0  0  0  0  0  0  0  0  0
   -3.0263   -1.9464   -0.7849 H   0  0  0  0  0  0  0  0  0  0  0  0
   -2.0241   -0.7228    0.6713 C   0  0  0  0  0  0  0  0  0  0  0  0
   -1.4975   -1.0251    1.7297 O   0  0  0  0  0  0  0  0  0  0  0  0
   -1.5841    0.3404   -0.1006 N   0  0  0  0  0  0  0  0  0  0  0  0
   -2.0551    0.3579   -1.0051 H   0  0  0  0  0  0  0  0  0  0  0  0
   -0.2242    0.9398   -0.1322 C   0  0  1  0  0  0  0  0  0  0  0  0
   -0.3408    1.9658   -0.4922 H   0  0  0  0  0  0  0  0  0  0  0  0
    0.5323    1.0193    1.2190 C   0  0  0  0  0  0  0  0  0  0  0  0
    0.6731    0.0171    1.6362 H   0  0  0  0  0  0  0  0  0  0  0  0
    1.5375    1.4185    1.0577 H   0  0  0  0  0  0  0  0  0  0  0  0
   -0.1676    1.9220    2.2108 C   0  0  0  0  0  0  0  0  0  0  0  0
   -0.2105    3.3190    2.2192 N   0  3  0  0  0  0  0  0  0  0  0  0
    0.2260    3.8980    1.4984 H   0  0  0  0  0  0  0  0  0  0  0  0
   -0.8810    3.7481    3.2625 C   0  0  0  0  0  0  0  0  0  0  0  0
   -1.0811    4.7890    3.5241 H   0  0  0  0  0  0  0  0  0  0  0  0
   -1.2904    2.6273    3.9806 N   0  0  0  0  0  0  0  0  0  0  0  0
   -1.8372    2.6337    4.8472 H   0  0  0  0  0  0  0  0  0  0  0  0
   -0.8348    1.4899    3.3291 C   0  0  0  0  0  0  0  0  0  0  0  0
   -0.9784    0.4487    3.6265 H   0  0  0  0  0  0  0  0  0  0  0  0
    0.6353    0.2176   -1.2041 C   0  0  0  0  0  0  0  0  0  0  0  0
    0.1109   -0.6046   -1.9436 O   0  0  0  0  0  0  0  0  0  0  0  0
    1.9520    0.5728   -1.4493 N   0  0  0  0  0  0  0  0  0  0  0  0
    2.3865    1.2762   -0.8617 H   0  0  0  0  0  0  0  0  0  0  0  0
    2.7596   -0.0508   -2.4967 C   0  0  0  0  0  0  0  0  0  0  0  0
    2.3206    0.1344   -3.4833 H   0  0  0  0  0  0  0  0  0  0  0  0
    3.7755    0.3569   -2.4909 H   0  0  0  0  0  0  0  0  0  0  0  0
    2.8234   -1.1334   -2.3407 H   0  0  0  0  0  0  0  0  0  0  0  0
  1  2  1  0  0  0  0
  2  3  1  0  0  0  0
  2  4  1  0  0  0  0
  2  5  1  0  0  0  0
  5  6  2  0  0  0  0
  5  7  1  0  0  0  0
  7  8  1  0  0  0  0
  7  9  1  0  0  0  0
  9 10  1  0  0  0  0
  9 11  1  0  0  0  0
  9 23  1  0  0  0  0
 11 12  1  0  0  0  0
 11 13  1  0  0  0  0
 11 14  1  0  0  0  0
 14 15  1  0  0  0  0
 14 21  2  0  0  0  0
 15 16  1  0  0  0  0
 15 17  2  0  0  0  0
 17 18  1  0  0  0  0
 17 19  1  0  0  0  0
 19 20  1  0  0  0  0
 19 21  1  0  0  0  0
 21 22  1  0  0  0  0
 23 24  2  0  0  0  0
 23 25  1  0  0  0  0
 25 26  1  0  0  0  0
 25 27  1  0  0  0  0
 27 28  1  0  0  0  0
 27 29  1  0  0  0  0
 27 30  1  0  0  0  0
M  CHG  1  15   1
M  END
$$$$

  -OEChem-01062216083D

 30 30  0     1  0  0  0  0  0999 V2000
   -3.4319   -2.3281    0.8950 H   0  0  0  0  0  0  0  0  0  0  0  0
   -3.2120   -1.5101    0.2030 C   0  0  0  0  0  0  0  0  0  0  0  0
   -4.0822   -0.8518    0.1479 H   0  0  0  0  0  0  0  0  0  0  0  0
   -3.0198   -1.9327   -0.7868 H   0  0  0  0  0  0  0  0  0  0  0  0
   -1.9981   -0.7338    0.6754 C   0  0  0  0  0  0  0  0  0  0  0  0
   -1.4597   -1.0560    1.7220 O   0  0  0  0  0  0  0  0  0  0  0  0
   -1.5575    0.3372   -0.0845 N   0  0  0  0  0  0  0  0  0  0  0  0
   -2.0311    0.3733   -0.9878 H   0  0  0  0  0  0  0  0  0  0  0  0
   -0.1992    0.9388   -0.1090 C   0  0  1  0  0  0  0  0  0  0  0  0
   -0.3135    1.9652   -0.4691 H   0  0  0  0  0  0  0  0  0  0  0  0
    0.5448    1.0227    1.2487 C   0  0  0  0  0  0  0  0  0  0  0  0
    0.6878    0.0237    1.6717 H   0  0  0  0  0  0  0  0  0  0  0  0
    1.5471    1.4322    1.0976 H   0  0  0  0  0  0  0  0  0  0  0  0
   -0.1717    1.9274    2.2253 C   0  0  0  0  0  0  0  0  0  0  0  0
   -0.2187    3.3240    2.2238 N   0  3  0  0  0  0  0  0  0  0  0  0
    0.2275    3.8997    1.5059 H   0  0  0  0  0  0  0  0  0  0  0  0
   -0.9108    3.7571    3.2511 C   0  0  0  0  0  0  0  0  0  0  0  0
   -1.1191    4.7992    3.5012 H   0  0  0  0  0  0  0  0  0  0  0  0
   -1.3308    2.6392    3.9680 N   0  0  0  0  0  0  0  0  0  0  0  0
   -1.8935    2.6495    4.8242 H   0  0  0  0  0  0  0  0  0  0  0  0
   -0.8613    1.4989    3.3311 C   0  0  0  0  0  0  0  0  0  0  0  0
   -1.0110    0.4587    3.6287 H   0  0  0  0  0  0  0  0  0  0  0  0
    0.6496    0.2189   -1.1912 C   0  0  0  0  0  0  0  0  0  0  0  0
    0.0723   -0.3754   -2.0922 O   0  0  0  0  0  0  0  0  0  0  0  0
    2.0292    0.3308   -1.2590 N   0  0  0  0  0  0  0  0  0  0  0  0
    2.5176    0.7970   -0.5021 H   0  0  0  0  0  0  0  0  0  0  0  0
    2.8257   -0.3222   -2.2967 C   0  0  0  0  0  0  0  0  0  0  0  0
    2.5345    0.0382   -3.2896 H   0  0  0  0  0  0  0  0  0  0  0  0
    3.8897   -0.1093   -2.1531 H   0  0  0  0  0  0  0  0  0  0  0  0
    2.6842   -1.4083   -2.2643 H   0  0  0  0  0  0  0  0  0  0  0  0
  1  2  1  0  0  0  0
  2  3  1  0  0  0  0
  2  4  1  0  0  0  0
  2  5  1  0  0  0  0
  5  6  2  0  0  0  0
  5  7  1  0  0  0  0
  7  8  1  0  0  0  0
  7  9  1  0  0  0  0
  9 10  1  0  0  0  0
  9 11  1  0  0  0  0
  9 23  1  0  0  0  0
 11 12  1  0  0  0  0
 11 13  1  0  0  0  0
 11 14  1  0  0  0  0
 14 15  1  0  0  0  0
 14 21  2  0  0  0  0
 15 16  1  0  0  0  0
 15 17  2  0  0  0  0
 17 18  1  0  0  0  0
 17 19  1  0  0  0  0
 19 20  1  0  0  0  0
 19 21  1  0  0  0  0
 21 22  1  0  0  0  0
 23 24  2  0  0  0  0
 23 25  1  0  0  0  0
 25 26  1  0  0  0  0
 25 27  1  0  0  0  0
 27 28  1  0  0  0  0
 27 29  1  0  0  0  0
 27 30  1  0  0  0  0
M  CHG  1  15   1
M  END
$$$$

  -OEChem-01062216083D

 30 30  0     1  0  0  0  0  0999 V2000
   -3.4163   -2.3346    0.8942 H   0  0  0  0  0  0  0  0  0  0  0  0
   -3.2057   -1.5043    0.2140 C   0  0  0  0  0  0  0  0  0  0  0  0
   -4.0720   -0.8389    0.1918 H   0  0  0  0  0  0  0  0  0  0  0  0
   -3.0397   -1.9083   -0.7882 H   0  0  0  0  0  0  0  0  0  0  0  0
   -1.9756   -0.7465    0.6746 C   0  0  0  0  0  0  0  0  0  0  0  0
   -1.4216   -1.0852    1.7078 O   0  0  0  0  0  0  0  0  0  0  0  0
   -1.5339    0.3281   -0.0786 N   0  0  0  0  0  0  0  0  0  0  0  0
   -2.0160    0.3881   -0.9764 H   0  0  0  0  0  0  0  0  0  0  0  0
   -0.1790    0.9346   -0.0940 C   0  0  1  0  0  0  0  0  0  0  0  0
   -0.2931    1.9597   -0.4583 H   0  0  0  0  0  0  0  0  0  0  0  0
    0.5566    1.0297    1.2665 C   0  0  0  0  0  0  0  0  0  0  0  0
    0.7049    0.0354    1.6982 H   0  0  0  0  0  0  0  0  0  0  0  0
    1.5552    1.4497    1.1147 H   0  0  0  0  0  0  0  0  0  0  0  0
   -0.1723    1.9364    2.2305 C   0  0  0  0  0  0  0  0  0  0  0  0
   -0.2289    3.3327    2.2209 N   0  3  0  0  0  0  0  0  0  0  0  0
    0.2257    3.9081    1.5075 H   0  0  0  0  0  0  0  0  0  0  0  0
   -0.9371    3.7653    3.2374 C   0  0  0  0  0  0  0  0  0  0  0  0
   -1.1546    4.8071    3.4810 H   0  0  0  0  0  0  0  0  0  0  0  0
   -1.3600    2.6472    3.9530 N   0  0  0  0  0  0  0  0  0  0  0  0
   -1.9344    2.6576    4.8015 H   0  0  0  0  0  0  0  0  0  0  0  0
   -0.8746    1.5071    3.3277 C   0  0  0  0  0  0  0  0  0  0  0  0
   -1.0224    0.4667    3.6261 H   0  0  0  0  0  0  0  0  0  0  0  0
    0.6655    0.2136   -1.1760 C   0  0  0  0  0  0  0  0  0  0  0  0
    0.0983   -0.1525   -2.1967 O   0  0  0  0  0  0  0  0  0  0  0  0
    2.0400    0.0603   -1.0904 N   0  0  0  0  0  0  0  0  0  0  0  0
    2.4933    0.2725   -0.2079 H   0  0  0  0  0  0  0  0  0  0  0  0
    2.8209   -0.6294   -2.1156 C   0  0  0  0  0  0  0  0  0  0  0  0
    2.7265   -0.1191   -3.0804 H   0  0  0  0  0  0  0  0  0  0  0  0
    3.8801   -0.6483   -1.8406 H   0  0  0  0  0  0  0  0  0  0  0  0
    2.4765   -1.6631   -2.2319 H   0  0  0  0  0  0  0  0  0  0  0  0
  1  2  1  0  0  0  0
  2  3  1  0  0  0  0
  2  4  1  0  0  0  0
  2  5  1  0  0  0  0
  5  6  2  0  0  0  0
  5  7  1  0  0  0  0
  7  8  1  0  0  0  0
  7  9  1  0  0  0  0
  9 10  1  0  0  0  0
  9 11  1  0  0  0  0
  9 23  1  0  0  0  0
 11 12  1  0  0  0  0
 11 13  1  0  0  0  0
 11 14  1  0  0  0  0
 14 15  1  0  0  0  0
 14 21  2  0  0  0  0
 15 16  1  0  0  0  0
 15 17  2  0  0  0  0
 17 18  1  0  0  0  0
 17 19  1  0  0  0  0
 19 20  1  0  0  0  0
 19 21  1  0  0  0  0
 21 22  1  0  0  0  0
 23 24  2  0  0  0  0
 23 25  1  0  0  0  0
 25 26  1  0  0  0  0
 25 27  1  0  0  0  0
 27 28  1  0  0  0  0
 27 29  1  0  0  0  0
 27 30  1  0  0  0  0
M  CHG  1  15   1
M  END
$$$$

  -OEChem-01062216083D

 30 30  0     1  0  0  0  0  0999 V2000
   -3.4197   -2.3362    0.8979 H   0  0  0  0  0  0  0  0  0  0  0  0
   -3.2112   -1.5006    0.2236 C   0  0  0  0  0  0  0  0  0  0  0  0
   -4.0705   -0.8259    0.2234 H   0  0  0  0  0  0  0  0  0  0  0  0
   -3.0668   -1.8947   -0.7858 H   0  0  0  0  0  0  0  0  0  0  0  0
   -1.9660   -0.7604    0.6727 C   0  0  0  0  0  0  0  0  0  0  0  0
   -1.3984   -1.1130    1.6938 O   0  0  0  0  0  0  0  0  0  0  0  0
   -1.5211    0.3146   -0.0773 N   0  0  0  0  0  0  0  0  0  0  0  0
   -2.0166    0.4018   -0.9655 H   0  0  0  0  0  0  0  0  0  0  0  0
   -0.1681    0.9223   -0.0854 C   0  0  1  0  0  0  0  0  0  0  0  0
   -0.2823    1.9464   -0.4534 H   0  0  0  0  0  0  0  0  0  0  0  0
    0.5631    1.0264    1.2760 C   0  0  0  0  0  0  0  0  0  0  0  0
    0.7104    0.0363    1.7174 H   0  0  0  0  0  0  0  0  0  0  0  0
    1.5626    1.4451    1.1199 H   0  0  0  0  0  0  0  0  0  0  0  0
   -0.1711    1.9371    2.2309 C   0  0  0  0  0  0  0  0  0  0  0  0
   -0.2294    3.3328    2.2106 N   0  3  0  0  0  0  0  0  0  0  0  0
    0.2287    3.9028    1.4951 H   0  0  0  0  0  0  0  0  0  0  0  0
   -0.9424    3.7716    3.2211 C   0  0  0  0  0  0  0  0  0  0  0  0
   -1.1621    4.8148    3.4567 H   0  0  0  0  0  0  0  0  0  0  0  0
   -1.3676    2.6579    3.9424 N   0  0  0  0  0  0  0  0  0  0  0  0
   -1.9461    2.6739    4.7881 H   0  0  0  0  0  0  0  0  0  0  0  0
   -0.8798    1.5136    3.3261 C   0  0  0  0  0  0  0  0  0  0  0  0
   -1.0294    0.4750    3.6295 H   0  0  0  0  0  0  0  0  0  0  0  0
    0.6777    0.2015   -1.1621 C   0  0  0  0  0  0  0  0  0  0  0  0
    0.1757    0.0517   -2.2670 O   0  0  0  0  0  0  0  0  0  0  0  0
    1.9802   -0.2210   -0.9523 N   0  0  0  0  0  0  0  0  0  0  0  0
    2.3320   -0.2229    0.0000 H   0  0  0  0  0  0  0  0  0  0  0  0
    2.7454   -0.9406   -1.9687 C   0  0  0  0  0  0  0  0  0  0  0  0
    2.8637   -0.3267   -2.8685 H   0  0  0  0  0  0  0  0  0  0  0  0
    3.7419   -1.1904   -1.5909 H   0  0  0  0  0  0  0  0  0  0  0  0
    2.2384   -1.8715   -2.2456 H   0  0  0  0  0  0  0  0  0  0  0  0
  1  2  1  0  0  0  0
  2  3  1  0  0  0  0
  2  4  1  0  0  0  0
  2  5  1  0  0  0  0
  5  6  2  0  0  0  0
  5  7  1  0  0  0  0
  7  8  1  0  0  0  0
  7  9  1  0  0  0  0
  9 10  1  0  0  0  0
  9 11  1  0  0  0  0
  9 23  1  0  0  0  0
 11 12  1  0  0  0  0
 11 13  1  0  0  0  0
 11 14  1  0  0  0  0
 14 15  1  0  0  0  0
 14 21  2  0  0  0  0
 15 16  1  0  0  0  0
 15 17  2  0  0  0  0
 17 18  1  0  0  0  0
 17 19  1  0  0  0  0
 19 20  1  0  0  0  0
 19 21  1  0  0  0  0
 21 22  1  0  0  0  0
 23 24  2  0  0  0  0
 23 25  1  0  0  0  0
 25 26  1  0  0  0  0
 25 27  1  0  0  0  0
 27 28  1  0  0  0  0
 27 29  1  0  0  0  0
 27 30  1  0  0  0  0
M  CHG  1  15   1
M  END
$$$$

  -OEChem-01062216083D

 30 30  0     1  0  0  0  0  0999 V2000
   -3.4516   -2.3068    0.9358 H   0  0  0  0  0  0  0  0  0  0  0  0
   -3.2330   -1.4849    0.2480 C   0  0  0  0  0  0  0  0  0  0  0  0
   -4.0759   -0.7897    0.2522 H   0  0  0  0  0  0  0  0  0  0  0  0
   -3.1126   -1.8950   -0.7581 H   0  0  0  0  0  0  0  0  0  0  0  0
   -1.9636   -0.7705    0.6703 C   0  0  0  0  0  0  0  0  0  0  0  0
   -1.3768   -1.1427    1.6733 O   0  0  0  0  0  0  0  0  0  0  0  0
   -1.5143    0.3021   -0.0810 N   0  0  0  0  0  0  0  0  0  0  0  0
   -2.0298    0.4205   -0.9538 H   0  0  0  0  0  0  0  0  0  0  0  0
   -0.1612    0.9083   -0.0864 C   0  0  1  0  0  0  0  0  0  0  0  0
   -0.2736    1.9321   -0.4563 H   0  0  0  0  0  0  0  0  0  0  0  0
    0.5702    1.0153    1.2739 C   0  0  0  0  0  0  0  0  0  0  0  0
    0.7142    0.0282    1.7220 H   0  0  0  0  0  0  0  0  0  0  0  0
    1.5722    1.4274    1.1121 H   0  0  0  0  0  0  0  0  0  0  0  0
   -0.1633    1.9289    2.2255 C   0  0  0  0  0  0  0  0  0  0  0  0
   -0.2198    3.3242    2.2005 N   0  3  0  0  0  0  0  0  0  0  0  0
    0.2492    3.8916    1.4898 H   0  0  0  0  0  0  0  0  0  0  0  0
   -0.9385    3.7663    3.2054 C   0  0  0  0  0  0  0  0  0  0  0  0
   -1.1549    4.8107    3.4385 H   0  0  0  0  0  0  0  0  0  0  0  0
   -1.3738    2.6547    3.9242 N   0  0  0  0  0  0  0  0  0  0  0  0
   -1.9598    2.6739    4.7646 H   0  0  0  0  0  0  0  0  0  0  0  0
   -0.8839    1.5080    3.3136 C   0  0  0  0  0  0  0  0  0  0  0  0
   -1.0411    0.4697    3.6142 H   0  0  0  0  0  0  0  0  0  0  0  0
    0.6898    0.1883   -1.1551 C   0  0  0  0  0  0  0  0  0  0  0  0
    0.3015    0.2435   -2.3123 O   0  0  0  0  0  0  0  0  0  0  0  0
    1.8592   -0.4924   -0.8607 N   0  0  0  0  0  0  0  0  0  0  0  0
    2.0641   -0.6759    0.1172 H   0  0  0  0  0  0  0  0  0  0  0  0
    2.6066   -1.2398   -1.8697 C   0  0  0  0  0  0  0  0  0  0  0  0
    2.8945   -0.5855   -2.6998 H   0  0  0  0  0  0  0  0  0  0  0  0
    3.5187   -1.6610   -1.4351 H   0  0  0  0  0  0  0  0  0  0  0  0
    2.0006   -2.0615   -2.2665 H   0  0  0  0  0  0  0  0  0  0  0  0
  1  2  1  0  0  0  0
  2  3  1  0  0  0  0
  2  4  1  0  0  0  0
  2  5  1  0  0  0  0
  5  6  2  0  0  0  0
  5  7  1  0  0  0  0
  7  8  1  0  0  0  0
  7  9  1  0  0  0  0
  9 10  1  0  0  0  0
  9 11  1  0  0  0  0
  9 23  1  0  0  0  0
 11 12  1  0  0  0  0
 11 13  1  0  0  0  0
 11 14  1  0  0  0  0
 14 15  1  0  0  0  0
 14 21  2  0  0  0  0
 15 16  1  0  0  0  0
 15 17  2  0  0  0  0
 17 18  1  0  0  0  0
 17 19  1  0  0  0  0
 19 20  1  0  0  0  0
 19 21  1  0  0  0  0
 21 22  1  0  0  0  0
 23 24  2  0  0  0  0
 23 25  1  0  0  0  0
 25 26  1  0  0  0  0
 25 27  1  0  0  0  0
 27 28  1  0  0  0  0
 27 29  1  0  0  0  0
 27 30  1  0  0  0  0
M  CHG  1  15   1
M  END
$$$$

  -OEChem-01062216083D

 30 30  0     1  0  0  0  0  0999 V2000
   -3.4927   -2.2801    0.9670 H   0  0  0  0  0  0  0  0  0  0  0  0
   -3.2687   -1.4647    0.2732 C   0  0  0  0  0  0  0  0  0  0  0  0
   -4.0914   -0.7462    0.2984 H   0  0  0  0  0  0  0  0  0  0  0  0
   -3.1861   -1.8780   -0.7354 H   0  0  0  0  0  0  0  0  0  0  0  0
   -1.9698   -0.7856    0.6630 C   0  0  0  0  0  0  0  0  0  0  0  0
   -1.3560   -1.1855    1.6387 O   0  0  0  0  0  0  0  0  0  0  0  0
   -1.5164    0.2830   -0.0909 N   0  0  0  0  0  0  0  0  0  0  0  0
   -2.0591    0.4414   -0.9401 H   0  0  0  0  0  0  0  0  0  0  0  0
   -0.1635    0.8880   -0.0946 C   0  0  1  0  0  0  0  0  0  0  0  0
   -0.2772    1.9120   -0.4651 H   0  0  0  0  0  0  0  0  0  0  0  0
    0.5713    0.9993    1.2628 C   0  0  0  0  0  0  0  0  0  0  0  0
    0.7165    0.0157    1.7169 H   0  0  0  0  0  0  0  0  0  0  0  0
    1.5742    1.4065    1.0938 H   0  0  0  0  0  0  0  0  0  0  0  0
   -0.1595    1.9158    2.2127 C   0  0  0  0  0  0  0  0  0  0  0  0
   -0.2151    3.3109    2.1820 N   0  3  0  0  0  0  0  0  0  0  0  0
    0.2538    3.8751    1.4684 H   0  0  0  0  0  0  0  0  0  0  0  0
   -0.9292    3.7572    3.1882 C   0  0  0  0  0  0  0  0  0  0  0  0
   -1.1419    4.8029    3.4192 H   0  0  0  0  0  0  0  0  0  0  0  0
   -1.3632    2.6485    3.9126 N   0  0  0  0  0  0  0  0  0  0  0  0
   -1.9413    2.6720    4.7582 H   0  0  0  0  0  0  0  0  0  0  0  0
   -0.8769    1.4987    3.3044 C   0  0  0  0  0  0  0  0  0  0  0  0
   -1.0317    0.4616    3.6099 H   0  0  0  0  0  0  0  0  0  0  0  0
    0.6961    0.1687   -1.1533 C   0  0  0  0  0  0  0  0  0  0  0  0
    0.4804    0.4271   -2.3271 O   0  0  0  0  0  0  0  0  0  0  0  0
    1.6792   -0.7461   -0.8180 N   0  0  0  0  0  0  0  0  0  0  0  0
    1.6915   -1.0845    0.1405 H   0  0  0  0  0  0  0  0  0  0  0  0
    2.4199   -1.5056   -1.8228 C   0  0  0  0  0  0  0  0  0  0  0  0
    2.8908   -0.8320   -2.5474 H   0  0  0  0  0  0  0  0  0  0  0  0
    3.2075   -2.0993   -1.3479 H   0  0  0  0  0  0  0  0  0  0  0  0
    1.7501   -2.1849   -2.3613 H   0  0  0  0  0  0  0  0  0  0  0  0
  1  2  1  0  0  0  0
  2  3  1  0  0  0  0
  2  4  1  0  0  0  0
  2  5  1  0  0  0  0
  5  6  2  0  0  0  0
  5  7  1  0  0  0  0
  7  8  1  0  0  0  0
  7  9  1  0  0  0  0
  9 10  1  0  0  0  0
  9 11  1  0  0  0  0
  9 23  1  0  0  0  0
 11 12  1  0  0  0  0
 11 13  1  0  0  0  0
 11 14  1  0  0  0  0
 14 15  1  0  0  0  0
 14 21  2  0  0  0  0
 15 16  1  0  0  0  0
 15 17  2  0  0  0  0
 17 18  1  0  0  0  0
 17 19  1  0  0  0  0
 19 20  1  0  0  0  0
 19 21  1  0  0  0  0
 21 22  1  0  0  0  0
 23 24  2  0  0  0  0
 23 25  1  0  0  0  0
 25 26  1  0  0  0  0
 25 27  1  0  0  0  0
 27 28  1  0  0  0  0
 27 29  1  0  0  0  0
 27 30  1  0  0  0  0
M  CHG  1  15   1
M  END
$$$$

  -OEChem-01062216083D

 30 30  0     1  0  0  0  0  0999 V2000
   -3.5423   -2.2503    1.0229 H   0  0  0  0  0  0  0  0  0  0  0  0
   -3.3258   -1.4363    0.3247 C   0  0  0  0  0  0  0  0  0  0  0  0
   -4.1247   -0.6940    0.3923 H   0  0  0  0  0  0  0  0  0  0  0  0
   -3.3023   -1.8438   -0.6893 H   0  0  0  0  0  0  0  0  0  0  0  0
   -1.9903   -0.7997    0.6580 C   0  0  0  0  0  0  0  0  0  0  0  0
   -1.3389   -1.2325    1.5943 O   0  0  0  0  0  0  0  0  0  0  0  0
   -1.5372    0.2608   -0.1075 N   0  0  0  0  0  0  0  0  0  0  0  0
   -2.1138    0.4588   -0.9248 H   0  0  0  0  0  0  0  0  0  0  0  0
   -0.1839    0.8649   -0.1193 C   0  0  1  0  0  0  0  0  0  0  0  0
   -0.3000    1.8882   -0.4920 H   0  0  0  0  0  0  0  0  0  0  0  0
    0.5638    0.9771    1.2303 C   0  0  0  0  0  0  0  0  0  0  0  0
    0.7162   -0.0053    1.6845 H   0  0  0  0  0  0  0  0  0  0  0  0
    1.5653    1.3825    1.0482 H   0  0  0  0  0  0  0  0  0  0  0  0
   -0.1554    1.8937    2.1871 C   0  0  0  0  0  0  0  0  0  0  0  0
   -0.2088    3.2888    2.1551 N   0  3  0  0  0  0  0  0  0  0  0  0
    0.2592    3.8514    1.4394 H   0  0  0  0  0  0  0  0  0  0  0  0
   -0.9092    3.7370    3.1700 C   0  0  0  0  0  0  0  0  0  0  0  0
   -1.1137    4.7835    3.4055 H   0  0  0  0  0  0  0  0  0  0  0  0
   -1.3402    2.6290    3.8977 N   0  0  0  0  0  0  0  0  0  0  0  0
   -1.9078    2.6546    4.7504 H   0  0  0  0  0  0  0  0  0  0  0  0
   -0.8641    1.4774    3.2844 C   0  0  0  0  0  0  0  0  0  0  0  0
   -1.0180    0.4403    3.5907 H   0  0  0  0  0  0  0  0  0  0  0  0
    0.6847    0.1442   -1.1661 C   0  0  0  0  0  0  0  0  0  0  0  0
    0.7117    0.5928   -2.3010 O   0  0  0  0  0  0  0  0  0  0  0  0
    1.4422   -0.9657   -0.8380 N   0  0  0  0  0  0  0  0  0  0  0  0
    1.2480   -1.4098    0.0570 H   0  0  0  0  0  0  0  0  0  0  0  0
    2.2151   -1.7120   -1.8272 C   0  0  0  0  0  0  0  0  0  0  0  0
    2.9202   -1.0514   -2.3437 H   0  0  0  0  0  0  0  0  0  0  0  0
    2.7871   -2.5092   -1.3416 H   0  0  0  0  0  0  0  0  0  0  0  0
    1.5514   -2.1650   -2.5716 H   0  0  0  0  0  0  0  0  0  0  0  0
  1  2  1  0  0  0  0
  2  3  1  0  0  0  0
  2  4  1  0  0  0  0
  2  5  1  0  0  0  0
  5  6  2  0  0  0  0
  5  7  1  0  0  0  0
  7  8  1  0  0  0  0
  7  9  1  0  0  0  0
  9 10  1  0  0  0  0
  9 11  1  0  0  0  0
  9 23  1  0  0  0  0
 11 12  1  0  0  0  0
 11 13  1  0  0  0  0
 11 14  1  0  0  0  0
 14 15  1  0  0  0  0
 14 21  2  0  0  0  0
 15 16  1  0  0  0  0
 15 17  2  0  0  0  0
 17 18  1  0  0  0  0
 17 19  1  0  0  0  0
 19 20  1  0  0  0  0
 19 21  1  0  0  0  0
 21 22  1  0  0  0  0
 23 24  2  0  0  0  0
 23 25  1  0  0  0  0
 25 26  1  0  0  0  0
 25 27  1  0  0  0  0
 27 28  1  0  0  0  0
 27 29  1  0  0  0  0
 27 30  1  0  0  0  0
M  CHG  1  15   1
M  END
$$$$

  -OEChem-01062216083D

 30 30  0     1  0  0  0  0  0999 V2000
   -3.6017   -2.2087    1.0737 H   0  0  0  0  0  0  0  0  0  0  0  0
   -3.3897   -1.3980    0.3703 C   0  0  0  0  0  0  0  0  0  0  0  0
   -4.1578   -0.6287    0.4790 H   0  0  0  0  0  0  0  0  0  0  0  0
   -3.4276   -1.7994   -0.6457 H   0  0  0  0  0  0  0  0  0  0  0  0
   -2.0191   -0.8095    0.6447 C   0  0  0  0  0  0  0  0  0  0  0  0
   -1.3318   -1.2803    1.5356 O   0  0  0  0  0  0  0  0  0  0  0  0
   -1.5668    0.2432   -0.1313 N   0  0  0  0  0  0  0  0  0  0  0  0
   -2.1771    0.4823   -0.9119 H   0  0  0  0  0  0  0  0  0  0  0  0
   -0.2141    0.8502   -0.1533 C   0  0  1  0  0  0  0  0  0  0  0  0
   -0.3355    1.8729   -0.5253 H   0  0  0  0  0  0  0  0  0  0  0  0
    0.5490    0.9579    1.1869 C   0  0  0  0  0  0  0  0  0  0  0  0
    0.7111   -0.0269    1.6329 H   0  0  0  0  0  0  0  0  0  0  0  0
    1.5474    1.3660    0.9936 H   0  0  0  0  0  0  0  0  0  0  0  0
   -0.1584    1.8677    2.1575 C   0  0  0  0  0  0  0  0  0  0  0  0
   -0.2121    3.2624    2.1302 N   0  3  0  0  0  0  0  0  0  0  0  0
    0.2446    3.8264    1.4079 H   0  0  0  0  0  0  0  0  0  0  0  0
   -0.8915    3.7076    3.1603 C   0  0  0  0  0  0  0  0  0  0  0  0
   -1.0894    4.7536    3.4031 H   0  0  0  0  0  0  0  0  0  0  0  0
   -1.3081    2.5973    3.8932 N   0  0  0  0  0  0  0  0  0  0  0  0
   -1.8545    2.6209    4.7596 H   0  0  0  0  0  0  0  0  0  0  0  0
   -0.8443    1.4471    3.2673 C   0  0  0  0  0  0  0  0  0  0  0  0
   -0.9874    0.4087    3.5748 H   0  0  0  0  0  0  0  0  0  0  0  0
    0.6645    0.1306   -1.1895 C   0  0  0  0  0  0  0  0  0  0  0  0
    0.9576    0.7185   -2.2182 O   0  0  0  0  0  0  0  0  0  0  0  0
    1.1760   -1.1269   -0.9290 N   0  0  0  0  0  0  0  0  0  0  0  0
    0.8132   -1.6171   -0.1126 H   0  0  0  0  0  0  0  0  0  0  0  0
    1.9911   -1.8677   -1.8871 C   0  0  0  0  0  0  0  0  0  0  0  0
    2.8789   -1.2894   -2.1655 H   0  0  0  0  0  0  0  0  0  0  0  0
    2.3227   -2.8156   -1.4516 H   0  0  0  0  0  0  0  0  0  0  0  0
    1.4164   -2.0853   -2.7939 H   0  0  0  0  0  0  0  0  0  0  0  0
  1  2  1  0  0  0  0
  2  3  1  0  0  0  0
  2  4  1  0  0  0  0
  2  5  1  0  0  0  0
  5  6  2  0  0  0  0
  5  7  1  0  0  0  0
  7  8  1  0  0  0  0
  7  9  1  0  0  0  0
  9 10  1  0  0  0  0
  9 11  1  0  0  0  0
  9 23  1  0  0  0  0
 11 12  1  0  0  0  0
 11 13  1  0  0  0  0
 11 14  1  0  0  0  0
 14 15  1  0  0  0  0
 14 21  2  0  0  0  0
 15 16  1  0  0  0  0
 15 17  2  0  0  0  0
 17 18  1  0  0  0  0
 17 19  1  0  0  0  0
 19 20  1  0  0  0  0
 19 21  1  0  0  0  0
 21 22  1  0  0  0  0
 23 24  2  0  0  0  0
 23 25  1  0  0  0  0
 25 26  1  0  0  0  0
 25 27  1  0  0  0  0
 27 28  1  0  0  0  0
 27 29  1  0  0  0  0
 27 30  1  0  0  0  0
M  CHG  1  15   1
M  END
$$$$

  -OEChem-01062216083D

 30 30  0     1  0  0  0  0  0999 V2000
   -3.6600   -2.1636    1.1224 H   0  0  0  0  0  0  0  0  0  0  0  0
   -3.4522   -1.3580    0.4120 C   0  0  0  0  0  0  0  0  0  0  0  0
   -4.1956   -0.5690    0.5493 H   0  0  0  0  0  0  0  0  0  0  0  0
   -3.5380   -1.7567   -0.6022 H   0  0  0  0  0  0  0  0  0  0  0  0
   -2.0573   -0.8071    0.6373 C   0  0  0  0  0  0  0  0  0  0  0  0
   -1.3469   -1.3047    1.4941 O   0  0  0  0  0  0  0  0  0  0  0  0
   -1.6054    0.2363   -0.1508 N   0  0  0  0  0  0  0  0  0  0  0  0
   -2.2402    0.5016   -0.9027 H   0  0  0  0  0  0  0  0  0  0  0  0
   -0.2525    0.8449   -0.1906 C   0  0  1  0  0  0  0  0  0  0  0  0
   -0.3774    1.8674   -0.5621 H   0  0  0  0  0  0  0  0  0  0  0  0
    0.5285    0.9432    1.1393 C   0  0  0  0  0  0  0  0  0  0  0  0
    0.6985   -0.0465    1.5718 H   0  0  0  0  0  0  0  0  0  0  0  0
    1.5239    1.3545    0.9346 H   0  0  0  0  0  0  0  0  0  0  0  0
   -0.1620    1.8445    2.1290 C   0  0  0  0  0  0  0  0  0  0  0  0
   -0.2136    3.2392    2.1132 N   0  3  0  0  0  0  0  0  0  0  0  0
    0.2357    3.8073    1.3893 H   0  0  0  0  0  0  0  0  0  0  0  0
   -0.8710    3.6779    3.1603 C   0  0  0  0  0  0  0  0  0  0  0  0
   -1.0595    4.7224    3.4164 H   0  0  0  0  0  0  0  0  0  0  0  0
   -1.2756    2.5625    3.8924 N   0  0  0  0  0  0  0  0  0  0  0  0
   -1.8005    2.5806    4.7722 H   0  0  0  0  0  0  0  0  0  0  0  0
   -0.8255    1.4164    3.2494 C   0  0  0  0  0  0  0  0  0  0  0  0
   -0.9610    0.3762    3.5540 H   0  0  0  0  0  0  0  0  0  0  0  0
    0.6321    0.1255   -1.2213 C   0  0  0  0  0  0  0  0  0  0  0  0
    1.1638    0.7854   -2.0997 O   0  0  0  0  0  0  0  0  0  0  0  0
    0.8999   -1.2246   -1.0949 N   0  0  0  0  0  0  0  0  0  0  0  0
    0.4320   -1.7284   -0.3425 H   0  0  0  0  0  0  0  0  0  0  0  0
    1.7645   -1.9613   -2.0118 C   0  0  0  0  0  0  0  0  0  0  0  0
    2.7672   -1.5207   -2.0336 H   0  0  0  0  0  0  0  0  0  0  0  0
    1.8555   -3.0049   -1.6941 H   0  0  0  0  0  0  0  0  0  0  0  0
    1.3521   -1.9439   -3.0264 H   0  0  0  0  0  0  0  0  0  0  0  0
  1  2  1  0  0  0  0
  2  3  1  0  0  0  0
  2  4  1  0  0  0  0
  2  5  1  0  0  0  0
  5  6  2  0  0  0  0
  5  7  1  0  0  0  0
  7  8  1  0  0  0  0
  7  9  1  0  0  0  0
  9 10  1  0  0  0  0
  9 11  1  0  0  0  0
  9 23  1  0  0  0  0
 11 12  1  0  0  0  0
 11 13  1  0  0  0  0
 11 14  1  0  0  0  0
 14 15  1  0  0  0  0
 14 21  2  0  0  0  0
 15 16  1  0  0  0  0
 15 17  2  0  0  0  0
 17 18  1  0  0  0  0
 17 19  1  0  0  0  0
 19 20  1  0  0  0  0
 19 21  1  0  0  0  0
 21 22  1  0  0  0  0
 23 24  2  0  0  0  0
 23 25  1  0  0  0  0
 25 26  1  0  0  0  0
 25 27  1  0  0  0  0
 27 28  1  0  0  0  0
 27 29  1  0  0  0  0
 27 30  1  0  0  0  0
M  CHG  1  15   1
M  END
$$$$

  -OEChem-01062216083D

 30 30  0     1  0  0  0  0  0999 V2000
   -3.7003   -2.1419    1.1573 H   0  0  0  0  0  0  0  0  0  0  0  0
   -3.5004   -1.3324    0.4490 C   0  0  0  0  0  0  0  0  0  0  0  0
   -4.2292   -0.5351    0.6136 H   0  0  0  0  0  0  0  0  0  0  0  0
   -3.6186   -1.7201   -0.5661 H   0  0  0  0  0  0  0  0  0  0  0  0
   -2.0926   -0.8023    0.6421 C   0  0  0  0  0  0  0  0  0  0  0  0
   -1.3700   -1.3146    1.4791 O   0  0  0  0  0  0  0  0  0  0  0  0
   -1.6439    0.2344   -0.1570 N   0  0  0  0  0  0  0  0  0  0  0  0
   -2.2978    0.5165   -0.8860 H   0  0  0  0  0  0  0  0  0  0  0  0
   -0.2898    0.8427   -0.2199 C   0  0  1  0  0  0  0  0  0  0  0  0
   -0.4174    1.8651   -0.5904 H   0  0  0  0  0  0  0  0  0  0  0  0
    0.5064    0.9341    1.1011 C   0  0  0  0  0  0  0  0  0  0  0  0
    0.6802   -0.0591    1.5242 H   0  0  0  0  0  0  0  0  0  0  0  0
    1.5004    1.3434    0.8871 H   0  0  0  0  0  0  0  0  0  0  0  0
   -0.1663    1.8318    2.1063 C   0  0  0  0  0  0  0  0  0  0  0  0
   -0.2135    3.2267    2.1002 N   0  3  0  0  0  0  0  0  0  0  0  0
    0.2290    3.7977    1.3745 H   0  0  0  0  0  0  0  0  0  0  0  0
   -0.8494    3.6608    3.1626 C   0  0  0  0  0  0  0  0  0  0  0  0
   -1.0277    4.7041    3.4301 H   0  0  0  0  0  0  0  0  0  0  0  0
   -1.2459    2.5422    3.8942 N   0  0  0  0  0  0  0  0  0  0  0  0
   -1.7533    2.5564    4.7843 H   0  0  0  0  0  0  0  0  0  0  0  0
   -0.8111    1.3989    3.2357 C   0  0  0  0  0  0  0  0  0  0  0  0
   -0.9428    0.3573    3.5368 H   0  0  0  0  0  0  0  0  0  0  0  0
    0.5980    0.1287   -1.2528 C   0  0  0  0  0  0  0  0  0  0  0  0
    1.3288    0.8061   -1.9581 O   0  0  0  0  0  0  0  0  0  0  0  0
    0.6410   -1.2512   -1.3176 N   0  0  0  0  0  0  0  0  0  0  0  0
    0.0941   -1.7684   -0.6312 H   0  0  0  0  0  0  0  0  0  0  0  0
    1.5391   -1.9838   -2.2049 C   0  0  0  0  0  0  0  0  0  0  0  0
    2.5841   -1.7602   -1.9645 H   0  0  0  0  0  0  0  0  0  0  0  0
    1.3834   -3.0622   -2.0992 H   0  0  0  0  0  0  0  0  0  0  0  0
    1.3536   -1.7107   -3.2494 H   0  0  0  0  0  0  0  0  0  0  0  0
  1  2  1  0  0  0  0
  2  3  1  0  0  0  0
  2  4  1  0  0  0  0
  2  5  1  0  0  0  0
  5  6  2  0  0  0  0
  5  7  1  0  0  0  0
  7  8  1  0  0  0  0
  7  9  1  0  0  0  0
  9 10  1  0  0  0  0
  9 11  1  0  0  0  0
  9 23  1  0  0  0  0
 11 12  1  0  0  0  0
 11 13  1  0  0  0  0
 11 14  1  0  0  0  0
 14 15  1  0  0  0  0
 14 21  2  0  0  0  0
 15 16  1  0  0  0  0
 15 17  2  0  0  0  0
 17 18  1  0  0  0  0
 17 19  1  0  0  0  0
 19 20  1  0  0  0  0
 19 21  1  0  0  0  0
 21 22  1  0  0  0  0
 23 24  2  0  0  0  0
 23 25  1  0  0  0  0
 25 26  1  0  0  0  0
 25 27  1  0  0  0  0
 27 28  1  0  0  0  0
 27 29  1  0  0  0  0
 27 30  1  0  0  0  0
M  CHG  1  15   1
M  END
$$$$

  -OEChem-01062216083D

 30 30  0     1  0  0  0  0  0999 V2000
   -3.7196   -2.1397    1.1755 H   0  0  0  0  0  0  0  0  0  0  0  0
   -3.5252   -1.3232    0.4737 C   0  0  0  0  0  0  0  0  0  0  0  0
   -4.2498   -0.5256    0.6543 H   0  0  0  0  0  0  0  0  0  0  0  0
   -3.6555   -1.7000   -0.5440 H   0  0  0  0  0  0  0  0  0  0  0  0
   -2.1143   -0.7977    0.6583 C   0  0  0  0  0  0  0  0  0  0  0  0
   -1.3958   -1.3028    1.5023 O   0  0  0  0  0  0  0  0  0  0  0  0
   -1.6669    0.2350   -0.1475 N   0  0  0  0  0  0  0  0  0  0  0  0
   -2.3306    0.5222   -0.8655 H   0  0  0  0  0  0  0  0  0  0  0  0
   -0.3115    0.8419   -0.2307 C   0  0  1  0  0  0  0  0  0  0  0  0
   -0.4428    1.8646   -0.5985 H   0  0  0  0  0  0  0  0  0  0  0  0
    0.4931    0.9287    1.0868 C   0  0  0  0  0  0  0  0  0  0  0  0
    0.6662   -0.0668    1.5050 H   0  0  0  0  0  0  0  0  0  0  0  0
    1.4878    1.3359    0.8708 H   0  0  0  0  0  0  0  0  0  0  0  0
   -0.1699    1.8263    2.0983 C   0  0  0  0  0  0  0  0  0  0  0  0
   -0.2109    3.2213    2.0935 N   0  3  0  0  0  0  0  0  0  0  0  0
    0.2330    3.7905    1.3672 H   0  0  0  0  0  0  0  0  0  0  0  0
   -0.8357    3.6572    3.1615 C   0  0  0  0  0  0  0  0  0  0  0  0
   -1.0047    4.7012    3.4328 H   0  0  0  0  0  0  0  0  0  0  0  0
   -1.2327    2.5395    3.8946 N   0  0  0  0  0  0  0  0  0  0  0  0
   -1.7324    2.5549    4.7890 H   0  0  0  0  0  0  0  0  0  0  0  0
   -0.8072    1.3949    3.2324 C   0  0  0  0  0  0  0  0  0  0  0  0
   -0.9395    0.3532    3.5337 H   0  0  0  0  0  0  0  0  0  0  0  0
    0.5800    0.1371   -1.2694 C   0  0  0  0  0  0  0  0  0  0  0  0
    1.4598    0.7897   -1.8096 O   0  0  0  0  0  0  0  0  0  0  0  0
    0.4270   -1.2054   -1.5599 N   0  0  0  0  0  0  0  0  0  0  0  0
   -0.2132   -1.7349   -0.9726 H   0  0  0  0  0  0  0  0  0  0  0  0
    1.3157   -1.9312   -2.4627 C   0  0  0  0  0  0  0  0  0  0  0  0
    2.3339   -1.9590   -2.0597 H   0  0  0  0  0  0  0  0  0  0  0  0
    0.9669   -2.9603   -2.5946 H   0  0  0  0  0  0  0  0  0  0  0  0
    1.3414   -1.4500   -3.4466 H   0  0  0  0  0  0  0  0  0  0  0  0
  1  2  1  0  0  0  0
  2  3  1  0  0  0  0
  2  4  1  0  0  0  0
  2  5  1  0  0  0  0
  5  6  2  0  0  0  0
  5  7  1  0  0  0  0
  7  8  1  0  0  0  0
  7  9  1  0  0  0  0
  9 10  1  0  0  0  0
  9 11  1  0  0  0  0
  9 23  1  0  0  0  0
 11 12  1  0  0  0  0
 11 13  1  0  0  0  0
 11 14  1  0  0  0  0
 14 15  1  0  0  0  0
 14 21  2  0  0  0  0
 15 16  1  0  0  0  0
 15 17  2  0  0  0  0
 17 18  1  0  0  0  0
 17 19  1  0  0  0  0
 19 20  1  0  0  0  0
 19 21  1  0  0  0  0
 21 22  1  0  0  0  0
 23 24  2  0  0  0  0
 23 25  1  0  0  0  0
 25 26  1  0  0  0  0
 25 27  1  0  0  0  0
 27 28  1  0  0  0  0
 27 29  1  0  0  0  0
 27 30  1  0  0  0  0
M  CHG  1  15   1
M  END
$$$$

  -OEChem-01062216083D

 30 30  0     1  0  0  0  0  0999 V2000
   -3.7215   -2.1430    1.1752 H   0  0  0  0  0  0  0  0  0  0  0  0
   -3.5302   -1.3217    0.4782 C   0  0  0  0  0  0  0  0  0  0  0  0
   -4.2595   -0.5293    0.6626 H   0  0  0  0  0  0  0  0  0  0  0  0
   -3.6576   -1.6939   -0.5415 H   0  0  0  0  0  0  0  0  0  0  0  0
   -2.1218   -0.7913    0.6675 C   0  0  0  0  0  0  0  0  0  0  0  0
   -1.4115   -1.2861    1.5240 O   0  0  0  0  0  0  0  0  0  0  0  0
   -1.6762    0.2403   -0.1420 N   0  0  0  0  0  0  0  0  0  0  0  0
   -2.3464    0.5326   -0.8517 H   0  0  0  0  0  0  0  0  0  0  0  0
   -0.3203    0.8473   -0.2362 C   0  0  1  0  0  0  0  0  0  0  0  0
   -0.4523    1.8700   -0.6026 H   0  0  0  0  0  0  0  0  0  0  0  0
    0.4843    0.9313    1.0842 C   0  0  0  0  0  0  0  0  0  0  0  0
    0.6572   -0.0659    1.4986 H   0  0  0  0  0  0  0  0  0  0  0  0
    1.4800    1.3385    0.8735 H   0  0  0  0  0  0  0  0  0  0  0  0
   -0.1736    1.8276    2.1000 C   0  0  0  0  0  0  0  0  0  0  0  0
   -0.2097    3.2223    2.0992 N   0  3  0  0  0  0  0  0  0  0  0  0
    0.2368    3.7918    1.3748 H   0  0  0  0  0  0  0  0  0  0  0  0
   -0.8275    3.6572    3.1718 C   0  0  0  0  0  0  0  0  0  0  0  0
   -0.9909    4.7009    3.4466 H   0  0  0  0  0  0  0  0  0  0  0  0
   -1.2241    2.5391    3.9042 N   0  0  0  0  0  0  0  0  0  0  0  0
   -1.7172    2.5535    4.8023 H   0  0  0  0  0  0  0  0  0  0  0  0
   -0.8061    1.3952    3.2362 C   0  0  0  0  0  0  0  0  0  0  0  0
   -0.9387    0.3533    3.5360 H   0  0  0  0  0  0  0  0  0  0  0  0
    0.5731    0.1467   -1.2804 C   0  0  0  0  0  0  0  0  0  0  0  0
    1.5749    0.7307   -1.6653 O   0  0  0  0  0  0  0  0  0  0  0  0
    0.2522   -1.0926   -1.8023 N   0  0  0  0  0  0  0  0  0  0  0  0
   -0.5032   -1.6006   -1.3507 H   0  0  0  0  0  0  0  0  0  0  0  0
    1.1139   -1.8080   -2.7395 C   0  0  0  0  0  0  0  0  0  0  0  0
    2.0752   -2.0473   -2.2721 H   0  0  0  0  0  0  0  0  0  0  0  0
    0.6401   -2.7430   -3.0552 H   0  0  0  0  0  0  0  0  0  0  0  0
    1.3001   -1.2007   -3.6321 H   0  0  0  0  0  0  0  0  0  0  0  0
  1  2  1  0  0  0  0
  2  3  1  0  0  0  0
  2  4  1  0  0  0  0
  2  5  1  0  0  0  0
  5  6  2  0  0  0  0
  5  7  1  0  0  0  0
  7  8  1  0  0  0  0
  7  9  1  0  0  0  0
  9 10  1  0  0  0  0
  9 11  1  0  0  0  0
  9 23  1  0  0  0  0
 11 12  1  0  0  0  0
 11 13  1  0  0  0  0
 11 14  1  0  0  0  0
 14 15  1  0  0  0  0
 14 21  2  0  0  0  0
 15 16  1  0  0  0  0
 15 17  2  0  0  0  0
 17 18  1  0  0  0  0
 17 19  1  0  0  0  0
 19 20  1  0  0  0  0
 19 21  1  0  0  0  0
 21 22  1  0  0  0  0
 23 24  2  0  0  0  0
 23 25  1  0  0  0  0
 25 26  1  0  0  0  0
 25 27  1  0  0  0  0
 27 28  1  0  0  0  0
 27 29  1  0  0  0  0
 27 30  1  0  0  0  0
M  CHG  1  15   1
M  END
$$$$

  -OEChem-01062216083D

 30 30  0     1  0  0  0  0  0999 V2000
   -3.7092   -2.1425    1.1741 H   0  0  0  0  0  0  0  0  0  0  0  0
   -3.5159   -1.3222    0.4764 C   0  0  0  0  0  0  0  0  0  0  0  0
   -4.2451   -0.5292    0.6583 H   0  0  0  0  0  0  0  0  0  0  0  0
   -3.6413   -1.6960   -0.5428 H   0  0  0  0  0  0  0  0  0  0  0  0
   -2.1076   -0.7918    0.6684 C   0  0  0  0  0  0  0  0  0  0  0  0
   -1.4056   -1.2783    1.5362 O   0  0  0  0  0  0  0  0  0  0  0  0
   -1.6647    0.2440   -0.1385 N   0  0  0  0  0  0  0  0  0  0  0  0
   -2.3416    0.5468   -0.8370 H   0  0  0  0  0  0  0  0  0  0  0  0
   -0.3090    0.8535   -0.2349 C   0  0  1  0  0  0  0  0  0  0  0  0
   -0.4407    1.8768   -0.5997 H   0  0  0  0  0  0  0  0  0  0  0  0
    0.4882    0.9362    1.0926 C   0  0  0  0  0  0  0  0  0  0  0  0
    0.6611   -0.0619    1.5049 H   0  0  0  0  0  0  0  0  0  0  0  0
    1.4847    1.3466    0.8939 H   0  0  0  0  0  0  0  0  0  0  0  0
   -0.1761    1.8307    2.1060 C   0  0  0  0  0  0  0  0  0  0  0  0
   -0.2132    3.2254    2.1083 N   0  3  0  0  0  0  0  0  0  0  0  0
    0.2384    3.7965    1.3887 H   0  0  0  0  0  0  0  0  0  0  0  0
   -0.8345    3.6576    3.1799 C   0  0  0  0  0  0  0  0  0  0  0  0
   -0.9976    4.7005    3.4580 H   0  0  0  0  0  0  0  0  0  0  0  0
   -1.2341    2.5374    3.9074 N   0  0  0  0  0  0  0  0  0  0  0  0
   -1.7290    2.5494    4.8044 H   0  0  0  0  0  0  0  0  0  0  0  0
   -0.8132    1.3954    3.2384 C   0  0  0  0  0  0  0  0  0  0  0  0
   -0.9457    0.3526    3.5351 H   0  0  0  0  0  0  0  0  0  0  0  0
    0.5800    0.1543   -1.2877 C   0  0  0  0  0  0  0  0  0  0  0  0
    1.6829    0.6238   -1.5261 O   0  0  0  0  0  0  0  0  0  0  0  0
    0.1209   -0.9174   -2.0313 N   0  0  0  0  0  0  0  0  0  0  0  0
   -0.7457   -1.3509   -1.7280 H   0  0  0  0  0  0  0  0  0  0  0  0
    0.9449   -1.6150   -3.0149 C   0  0  0  0  0  0  0  0  0  0  0  0
    1.8198   -2.0649   -2.5332 H   0  0  0  0  0  0  0  0  0  0  0  0
    0.3694   -2.4103   -3.4991 H   0  0  0  0  0  0  0  0  0  0  0  0
    1.2900   -0.9215   -3.7897 H   0  0  0  0  0  0  0  0  0  0  0  0
  1  2  1  0  0  0  0
  2  3  1  0  0  0  0
  2  4  1  0  0  0  0
  2  5  1  0  0  0  0
  5  6  2  0  0  0  0
  5  7  1  0  0  0  0
  7  8  1  0  0  0  0
  7  9  1  0  0  0  0
  9 10  1  0  0  0  0
  9 11  1  0  0  0  0
  9 23  1  0  0  0  0
 11 12  1  0  0  0  0
 11 13  1  0  0  0  0
 11 14  1  0  0  0  0
 14 15  1  0  0  0  0
 14 21  2  0  0  0  0
 15 16  1  0  0  0  0
 15 17  2  0  0  0  0
 17 18  1  0  0  0  0
 17 19  1  0  0  0  0
 19 20  1  0  0  0  0
 19 21  1  0  0  0  0
 21 22  1  0  0  0  0
 23 24  2  0  0  0  0
 23 25  1  0  0  0  0
 25 26  1  0  0  0  0
 25 27  1  0  0  0  0
 27 28  1  0  0  0  0
 27 29  1  0  0  0  0
 27 30  1  0  0  0  0
M  CHG  1  15   1
M  END
$$$$

  -OEChem-01062216083D

 30 30  0     1  0  0  0  0  0999 V2000
   -3.6884   -2.1418    1.1652 H   0  0  0  0  0  0  0  0  0  0  0  0
   -3.4926   -1.3269    0.4618 C   0  0  0  0  0  0  0  0  0  0  0  0
   -4.2254   -0.5346    0.6314 H   0  0  0  0  0  0  0  0  0  0  0  0
   -3.6090   -1.7102   -0.5549 H   0  0  0  0  0  0  0  0  0  0  0  0
   -2.0872   -0.7915    0.6595 C   0  0  0  0  0  0  0  0  0  0  0  0
   -1.3911   -1.2723    1.5351 O   0  0  0  0  0  0  0  0  0  0  0  0
   -1.6475    0.2495   -0.1433 N   0  0  0  0  0  0  0  0  0  0  0  0
   -2.3321    0.5670   -0.8271 H   0  0  0  0  0  0  0  0  0  0  0  0
   -0.2933    0.8634   -0.2352 C   0  0  1  0  0  0  0  0  0  0  0  0
   -0.4236    1.8868   -0.5994 H   0  0  0  0  0  0  0  0  0  0  0  0
    0.4940    0.9467    1.1007 C   0  0  0  0  0  0  0  0  0  0  0  0
    0.6685   -0.0517    1.5108 H   0  0  0  0  0  0  0  0  0  0  0  0
    1.4901    1.3626    0.9135 H   0  0  0  0  0  0  0  0  0  0  0  0
   -0.1779    1.8374    2.1130 C   0  0  0  0  0  0  0  0  0  0  0  0
   -0.2192    3.2321    2.1218 N   0  3  0  0  0  0  0  0  0  0  0  0
    0.2386    3.8079    1.4101 H   0  0  0  0  0  0  0  0  0  0  0  0
   -0.8458    3.6575    3.1932 C   0  0  0  0  0  0  0  0  0  0  0  0
   -1.0111    4.6987    3.4767 H   0  0  0  0  0  0  0  0  0  0  0  0
   -1.2462    2.5328    3.9134 N   0  0  0  0  0  0  0  0  0  0  0  0
   -1.7439    2.5389    4.8091 H   0  0  0  0  0  0  0  0  0  0  0  0
   -0.8179    1.3954    3.2414 C   0  0  0  0  0  0  0  0  0  0  0  0
   -0.9463    0.3507    3.5338 H   0  0  0  0  0  0  0  0  0  0  0  0
    0.5888    0.1597   -1.2949 C   0  0  0  0  0  0  0  0  0  0  0  0
    1.7684    0.4658   -1.3895 O   0  0  0  0  0  0  0  0  0  0  0  0
    0.0396   -0.6910   -2.2376 N   0  0  0  0  0  0  0  0  0  0  0  0
   -0.9141   -1.0009   -2.0816 H   0  0  0  0  0  0  0  0  0  0  0  0
    0.8359   -1.3672   -3.2586 C   0  0  0  0  0  0  0  0  0  0  0  0
    1.5928   -2.0089   -2.7942 H   0  0  0  0  0  0  0  0  0  0  0  0
    0.1957   -1.9904   -3.8910 H   0  0  0  0  0  0  0  0  0  0  0  0
    1.3420   -0.6358   -3.8982 H   0  0  0  0  0  0  0  0  0  0  0  0
  1  2  1  0  0  0  0
  2  3  1  0  0  0  0
  2  4  1  0  0  0  0
  2  5  1  0  0  0  0
  5  6  2  0  0  0  0
  5  7  1  0  0  0  0
  7  8  1  0  0  0  0
  7  9  1  0  0  0  0
  9 10  1  0  0  0  0
  9 11  1  0  0  0  0
  9 23  1  0  0  0  0
 11 12  1  0  0  0  0
 11 13  1  0  0  0  0
 11 14  1  0  0  0  0
 14 15  1  0  0  0  0
 14 21  2  0  0  0  0
 15 16  1  0  0  0  0
 15 17  2  0  0  0  0
 17 18  1  0  0  0  0
 17 19  1  0  0  0  0
 19 20  1  0  0  0  0
 19 21  1  0  0  0  0
 21 22  1  0  0  0  0
 23 24  2  0  0  0  0
 23 25  1  0  0  0  0
 25 26  1  0  0  0  0
 25 27  1  0  0  0  0
 27 28  1  0  0  0  0
 27 29  1  0  0  0  0
 27 30  1  0  0  0  0
M  CHG  1  15   1
M  END
$$$$

  -OEChem-01062216083D

 30 30  0     1  0  0  0  0  0999 V2000
   -3.6578   -2.1558    1.1393 H   0  0  0  0  0  0  0  0  0  0  0  0
   -3.4630   -1.3400    0.4367 C   0  0  0  0  0  0  0  0  0  0  0  0
   -4.2059   -0.5551    0.5966 H   0  0  0  0  0  0  0  0  0  0  0  0
   -3.5638   -1.7267   -0.5804 H   0  0  0  0  0  0  0  0  0  0  0  0
   -2.0651   -0.7902    0.6488 C   0  0  0  0  0  0  0  0  0  0  0  0
   -1.3768   -1.2600    1.5364 O   0  0  0  0  0  0  0  0  0  0  0  0
   -1.6295    0.2575   -0.1481 N   0  0  0  0  0  0  0  0  0  0  0  0
   -2.3168    0.5764   -0.8277 H   0  0  0  0  0  0  0  0  0  0  0  0
   -0.2776    0.8771   -0.2336 C   0  0  1  0  0  0  0  0  0  0  0  0
   -0.4085    1.9008   -0.5957 H   0  0  0  0  0  0  0  0  0  0  0  0
    0.5024    0.9620    1.1080 C   0  0  0  0  0  0  0  0  0  0  0  0
    0.6827   -0.0368    1.5157 H   0  0  0  0  0  0  0  0  0  0  0  0
    1.4963    1.3855    0.9258 H   0  0  0  0  0  0  0  0  0  0  0  0
   -0.1769    1.8481    2.1200 C   0  0  0  0  0  0  0  0  0  0  0  0
   -0.2257    3.2427    2.1359 N   0  3  0  0  0  0  0  0  0  0  0  0
    0.2338    3.8250    1.4307 H   0  0  0  0  0  0  0  0  0  0  0  0
   -0.8580    3.6593    3.2077 C   0  0  0  0  0  0  0  0  0  0  0  0
   -1.0289    4.6979    3.4977 H   0  0  0  0  0  0  0  0  0  0  0  0
   -1.2562    2.5290    3.9198 N   0  0  0  0  0  0  0  0  0  0  0  0
   -1.7572    2.5276    4.8135 H   0  0  0  0  0  0  0  0  0  0  0  0
   -0.8193    1.3975    3.2436 C   0  0  0  0  0  0  0  0  0  0  0  0
   -0.9437    0.3507    3.5304 H   0  0  0  0  0  0  0  0  0  0  0  0
    0.5959    0.1691   -1.3010 C   0  0  0  0  0  0  0  0  0  0  0  0
    1.8142    0.2583   -1.2532 O   0  0  0  0  0  0  0  0  0  0  0  0
    0.0184   -0.4200   -2.4124 N   0  0  0  0  0  0  0  0  0  0  0  0
   -0.9858   -0.5623   -2.3955 H   0  0  0  0  0  0  0  0  0  0  0  0
    0.7969   -1.0828   -3.4562 C   0  0  0  0  0  0  0  0  0  0  0  0
    1.3595   -1.9256   -3.0398 H   0  0  0  0  0  0  0  0  0  0  0  0
    0.1361   -1.4629   -4.2416 H   0  0  0  0  0  0  0  0  0  0  0  0
    1.5042   -0.3819   -3.9134 H   0  0  0  0  0  0  0  0  0  0  0  0
  1  2  1  0  0  0  0
  2  3  1  0  0  0  0
  2  4  1  0  0  0  0
  2  5  1  0  0  0  0
  5  6  2  0  0  0  0
  5  7  1  0  0  0  0
  7  8  1  0  0  0  0
  7  9  1  0  0  0  0
  9 10  1  0  0  0  0
  9 11  1  0  0  0  0
  9 23  1  0  0  0  0
 11 12  1  0  0  0  0
 11 13  1  0  0  0  0
 11 14  1  0  0  0  0
 14 15  1  0  0  0  0
 14 21  2  0  0  0  0
 15 16  1  0  0  0  0
 15 17  2  0  0  0  0
 17 18  1  0  0  0  0
 17 19  1  0  0  0  0
 19 20  1  0  0  0  0
 19 21  1  0  0  0  0
 21 22  1  0  0  0  0
 23 24  2  0  0  0  0
 23 25  1  0  0  0  0
 25 26  1  0  0  0  0
 25 27  1  0  0  0  0
 27 28  1  0  0  0  0
 27 29  1  0  0  0  0
 27 30  1  0  0  0  0
M  CHG  1  15   1
M  END
$$$$

  -OEChem-01062216083D

 30 30  0     1  0  0  0  0  0999 V2000
   -3.6276   -2.1926    1.0811 H   0  0  0  0  0  0  0  0  0  0  0  0
   -3.4337   -1.3727    0.3831 C   0  0  0  0  0  0  0  0  0  0  0  0
   -4.2061   -0.6110    0.5139 H   0  0  0  0  0  0  0  0  0  0  0  0
   -3.4850   -1.7652   -0.6356 H   0  0  0  0  0  0  0  0  0  0  0  0
   -2.0621   -0.7789    0.6422 C   0  0  0  0  0  0  0  0  0  0  0  0
   -1.3988   -1.2149    1.5656 O   0  0  0  0  0  0  0  0  0  0  0  0
   -1.6277    0.2713   -0.1523 N   0  0  0  0  0  0  0  0  0  0  0  0
   -2.2979    0.5517   -0.8643 H   0  0  0  0  0  0  0  0  0  0  0  0
   -0.2771    0.8933   -0.2293 C   0  0  1  0  0  0  0  0  0  0  0  0
   -0.4058    1.9176   -0.5903 H   0  0  0  0  0  0  0  0  0  0  0  0
    0.5007    0.9804    1.1138 C   0  0  0  0  0  0  0  0  0  0  0  0
    0.6820   -0.0190    1.5203 H   0  0  0  0  0  0  0  0  0  0  0  0
    1.4938    1.4044    0.9286 H   0  0  0  0  0  0  0  0  0  0  0  0
   -0.1763    1.8633    2.1303 C   0  0  0  0  0  0  0  0  0  0  0  0
   -0.2272    3.2577    2.1521 N   0  3  0  0  0  0  0  0  0  0  0  0
    0.2257    3.8437    1.4461 H   0  0  0  0  0  0  0  0  0  0  0  0
   -0.8510    3.6694    3.2306 C   0  0  0  0  0  0  0  0  0  0  0  0
   -1.0212    4.7066    3.5252 H   0  0  0  0  0  0  0  0  0  0  0  0
   -1.2403    2.5360    3.9426 N   0  0  0  0  0  0  0  0  0  0  0  0
   -1.7313    2.5301    4.8418 H   0  0  0  0  0  0  0  0  0  0  0  0
   -0.8075    1.4082    3.2583 C   0  0  0  0  0  0  0  0  0  0  0  0
   -0.9263    0.3600    3.5426 H   0  0  0  0  0  0  0  0  0  0  0  0
    0.5901    0.1770   -1.2974 C   0  0  0  0  0  0  0  0  0  0  0  0
    1.7862    0.0013   -1.1156 O   0  0  0  0  0  0  0  0  0  0  0  0
    0.0615   -0.1347   -2.5385 N   0  0  0  0  0  0  0  0  0  0  0  0
   -0.9385   -0.0280   -2.6701 H   0  0  0  0  0  0  0  0  0  0  0  0
    0.8378   -0.7833   -3.5933 C   0  0  0  0  0  0  0  0  0  0  0  0
    1.1940   -1.7645   -3.2605 H   0  0  0  0  0  0  0  0  0  0  0  0
    0.2236   -0.9245   -4.4881 H   0  0  0  0  0  0  0  0  0  0  0  0
    1.7046   -0.1712   -3.8656 H   0  0  0  0  0  0  0  0  0  0  0  0
  1  2  1  0  0  0  0
  2  3  1  0  0  0  0
  2  4  1  0  0  0  0
  2  5  1  0  0  0  0
  5  6  2  0  0  0  0
  5  7  1  0  0  0  0
  7  8  1  0  0  0  0
  7  9  1  0  0  0  0
  9 10  1  0  0  0  0
  9 11  1  0  0  0  0
  9 23  1  0  0  0  0
 11 12  1  0  0  0  0
 11 13  1  0  0  0  0
 11 14  1  0  0  0  0
 14 15  1  0  0  0  0
 14 21  2  0  0  0  0
 15 16  1  0  0  0  0
 15 17  2  0  0  0  0
 17 18  1  0  0  0  0
 17 19  1  0  0  0  0
 19 20  1  0  0  0  0
 19 21  1  0  0  0  0
 21 22  1  0  0  0  0
 23 24  2  0  0  0  0
 23 25  1  0  0  0  0
 25 26  1  0  0  0  0
 25 27  1  0  0  0  0
 27 28  1  0  0  0  0
 27 29  1  0  0  0  0
 27 30  1  0  0  0  0
M  CHG  1  15   1
M  END
$$$$

  -OEChem-01062216083D

 30 30  0     1  0  0  0  0  0999 V2000
   -3.5996   -2.2229    1.0362 H   0  0  0  0  0  0  0  0  0  0  0  0
   -3.3966   -1.4132    0.3291 C   0  0  0  0  0  0  0  0  0  0  0  0
   -4.2005   -0.6767    0.3993 H   0  0  0  0  0  0  0  0  0  0  0  0
   -3.3795   -1.8309   -0.6807 H   0  0  0  0  0  0  0  0  0  0  0  0
   -2.0619   -0.7649    0.6446 C   0  0  0  0  0  0  0  0  0  0  0  0
   -1.4335   -1.1580    1.6110 O   0  0  0  0  0  0  0  0  0  0  0  0
   -1.6289    0.2885   -0.1470 N   0  0  0  0  0  0  0  0  0  0  0  0
   -2.2623    0.5016   -0.9136 H   0  0  0  0  0  0  0  0  0  0  0  0
   -0.2770    0.9066   -0.2175 C   0  0  1  0  0  0  0  0  0  0  0  0
   -0.4022    1.9327   -0.5735 H   0  0  0  0  0  0  0  0  0  0  0  0
    0.5051    0.9917    1.1222 C   0  0  0  0  0  0  0  0  0  0  0  0
    0.6791   -0.0095    1.5292 H   0  0  0  0  0  0  0  0  0  0  0  0
    1.5011    1.4048    0.9273 H   0  0  0  0  0  0  0  0  0  0  0  0
   -0.1655    1.8764    2.1434 C   0  0  0  0  0  0  0  0  0  0  0  0
   -0.2137    3.2712    2.1685 N   0  3  0  0  0  0  0  0  0  0  0  0
    0.2408    3.8580    1.4645 H   0  0  0  0  0  0  0  0  0  0  0  0
   -0.8397    3.6821    3.2462 C   0  0  0  0  0  0  0  0  0  0  0  0
   -1.0102    4.7189    3.5426 H   0  0  0  0  0  0  0  0  0  0  0  0
   -1.2327    2.5485    3.9552 N   0  0  0  0  0  0  0  0  0  0  0  0
   -1.7329    2.5410    4.8491 H   0  0  0  0  0  0  0  0  0  0  0  0
   -0.7993    1.4217    3.2706 C   0  0  0  0  0  0  0  0  0  0  0  0
   -0.9236    0.3737    3.5529 H   0  0  0  0  0  0  0  0  0  0  0  0
    0.5807    0.1856   -1.2885 C   0  0  0  0  0  0  0  0  0  0  0  0
    1.6783   -0.2753   -1.0116 O   0  0  0  0  0  0  0  0  0  0  0  0
    0.1664    0.1582   -2.6095 N   0  0  0  0  0  0  0  0  0  0  0  0
   -0.7380    0.5563   -2.8397 H   0  0  0  0  0  0  0  0  0  0  0  0
    0.9392   -0.4794   -3.6736 C   0  0  0  0  0  0  0  0  0  0  0  0
    1.0925   -1.5417   -3.4540 H   0  0  0  0  0  0  0  0  0  0  0  0
    0.4123   -0.3989   -4.6295 H   0  0  0  0  0  0  0  0  0  0  0  0
    1.9185    0.0000   -3.7795 H   0  0  0  0  0  0  0  0  0  0  0  0
  1  2  1  0  0  0  0
  2  3  1  0  0  0  0
  2  4  1  0  0  0  0
  2  5  1  0  0  0  0
  5  6  2  0  0  0  0
  5  7  1  0  0  0  0
  7  8  1  0  0  0  0
  7  9  1  0  0  0  0
  9 10  1  0  0  0  0
  9 11  1  0  0  0  0
  9 23  1  0  0  0  0
 11 12  1  0  0  0  0
 11 13  1  0  0  0  0
 11 14  1  0  0  0  0
 14 15  1  0  0  0  0
 14 21  2  0  0  0  0
 15 16  1  0  0  0  0
 15 17  2  0  0  0  0
 17 18  1  0  0  0  0
 17 19  1  0  0  0  0
 19 20  1  0  0  0  0
 19 21  1  0  0  0  0
 21 22  1  0  0  0  0
 23 24  2  0  0  0  0
 23 25  1  0  0  0  0
 25 26  1  0  0  0  0
 25 27  1  0  0  0  0
 27 28  1  0  0  0  0
 27 29  1  0  0  0  0
 27 30  1  0  0  0  0
M  CHG  1  15   1
M  END
$$$$

  -OEChem-01062216083D

 30 30  0     1  0  0  0  0  0999 V2000
   -3.5782   -2.2385    1.0033 H   0  0  0  0  0  0  0  0  0  0  0  0
   -3.3699   -1.4372    0.2882 C   0  0  0  0  0  0  0  0  0  0  0  0
   -4.1931   -0.7195    0.3160 H   0  0  0  0  0  0  0  0  0  0  0  0
   -3.3064   -1.8728   -0.7121 H   0  0  0  0  0  0  0  0  0  0  0  0
   -2.0638   -0.7500    0.6389 C   0  0  0  0  0  0  0  0  0  0  0  0
   -1.4629   -1.1100    1.6355 O   0  0  0  0  0  0  0  0  0  0  0  0
   -1.6333    0.3054   -0.1516 N   0  0  0  0  0  0  0  0  0  0  0  0
   -2.2362    0.4699   -0.9544 H   0  0  0  0  0  0  0  0  0  0  0  0
   -0.2827    0.9244   -0.2146 C   0  0  1  0  0  0  0  0  0  0  0  0
   -0.4081    1.9524   -0.5651 H   0  0  0  0  0  0  0  0  0  0  0  0
    0.5046    1.0057    1.1213 C   0  0  0  0  0  0  0  0  0  0  0  0
    0.6739    0.0028    1.5262 H   0  0  0  0  0  0  0  0  0  0  0  0
    1.5020    1.4119    0.9204 H   0  0  0  0  0  0  0  0  0  0  0  0
   -0.1620    1.8859    2.1502 C   0  0  0  0  0  0  0  0  0  0  0  0
   -0.2117    3.2809    2.1815 N   0  3  0  0  0  0  0  0  0  0  0  0
    0.2336    3.8714    1.4751 H   0  0  0  0  0  0  0  0  0  0  0  0
   -0.8323    3.6879    3.2637 C   0  0  0  0  0  0  0  0  0  0  0  0
   -1.0041    4.7234    3.5635 H   0  0  0  0  0  0  0  0  0  0  0  0
   -1.2185    2.5516    3.9717 N   0  0  0  0  0  0  0  0  0  0  0  0
   -1.7150    2.5401    4.8677 H   0  0  0  0  0  0  0  0  0  0  0  0
   -0.7872    1.4278    3.2812 C   0  0  0  0  0  0  0  0  0  0  0  0
   -0.9093    0.3792    3.5622 H   0  0  0  0  0  0  0  0  0  0  0  0
    0.5737    0.2021   -1.2827 C   0  0  0  0  0  0  0  0  0  0  0  0
    1.5165   -0.5052   -0.9608 O   0  0  0  0  0  0  0  0  0  0  0  0
    0.3408    0.4306   -2.6280 N   0  0  0  0  0  0  0  0  0  0  0  0
   -0.4392    1.0250   -2.8904 H   0  0  0  0  0  0  0  0  0  0  0  0
    1.1233   -0.2016   -3.6884 C   0  0  0  0  0  0  0  0  0  0  0  0
    1.0515   -1.2927   -3.6205 H   0  0  0  0  0  0  0  0  0  0  0  0
    0.7543    0.1064   -4.6719 H   0  0  0  0  0  0  0  0  0  0  0  0
    2.1780    0.0844   -3.6117 H   0  0  0  0  0  0  0  0  0  0  0  0
  1  2  1  0  0  0  0
  2  3  1  0  0  0  0
  2  4  1  0  0  0  0
  2  5  1  0  0  0  0
  5  6  2  0  0  0  0
  5  7  1  0  0  0  0
  7  8  1  0  0  0  0
  7  9  1  0  0  0  0
  9 10  1  0  0  0  0
  9 11  1  0  0  0  0
  9 23  1  0  0  0  0
 11 12  1  0  0  0  0
 11 13  1  0  0  0  0
 11 14  1  0  0  0  0
 14 15  1  0  0  0  0
 14 21  2  0  0  0  0
 15 16  1  0  0  0  0
 15 17  2  0  0  0  0
 17 18  1  0  0  0  0
 17 19  1  0  0  0  0
 19 20  1  0  0  0  0
 19 21  1  0  0  0  0
 21 22  1  0  0  0  0
 23 24  2  0  0  0  0
 23 25  1  0  0  0  0
 25 26  1  0  0  0  0
 25 27  1  0  0  0  0
 27 28  1  0  0  0  0
 27 29  1  0  0  0  0
 27 30  1  0  0  0  0
M  CHG  1  15   1
M  END
$$$$

  -OEChem-01062216083D

 30 30  0     1  0  0  0  0  0999 V2000
   -3.5462   -2.2638    0.9607 H   0  0  0  0  0  0  0  0  0  0  0  0
   -3.3414   -1.4595    0.2481 C   0  0  0  0  0  0  0  0  0  0  0  0
   -4.1867   -0.7674    0.2480 H   0  0  0  0  0  0  0  0  0  0  0  0
   -3.2342   -1.8970   -0.7476 H   0  0  0  0  0  0  0  0  0  0  0  0
   -2.0679   -0.7310    0.6332 C   0  0  0  0  0  0  0  0  0  0  0  0
   -1.4935   -1.0588    1.6564 O   0  0  0  0  0  0  0  0  0  0  0  0
   -1.6410    0.3258   -0.1574 N   0  0  0  0  0  0  0  0  0  0  0  0
   -2.2189    0.4534   -0.9852 H   0  0  0  0  0  0  0  0  0  0  0  0
   -0.2918    0.9472   -0.2125 C   0  0  1  0  0  0  0  0  0  0  0  0
   -0.4201    1.9766   -0.5577 H   0  0  0  0  0  0  0  0  0  0  0  0
    0.5028    1.0236    1.1184 C   0  0  0  0  0  0  0  0  0  0  0  0
    0.6708    0.0177    1.5179 H   0  0  0  0  0  0  0  0  0  0  0  0
    1.4999    1.4279    0.9132 H   0  0  0  0  0  0  0  0  0  0  0  0
   -0.1595    1.8969    2.1575 C   0  0  0  0  0  0  0  0  0  0  0  0
   -0.2124    3.2918    2.1969 N   0  3  0  0  0  0  0  0  0  0  0  0
    0.2213    3.8873    1.4878 H   0  0  0  0  0  0  0  0  0  0  0  0
   -0.8282    3.6921    3.2846 C   0  0  0  0  0  0  0  0  0  0  0  0
   -1.0053    4.7256    3.5880 H   0  0  0  0  0  0  0  0  0  0  0  0
   -1.2028    2.5517    3.9917 N   0  0  0  0  0  0  0  0  0  0  0  0
   -1.6945    2.5340    4.8904 H   0  0  0  0  0  0  0  0  0  0  0  0
   -0.7720    1.4329    3.2931 C   0  0  0  0  0  0  0  0  0  0  0  0
   -0.8882    0.3831    3.5717 H   0  0  0  0  0  0  0  0  0  0  0  0
    0.5693    0.2260   -1.2752 C   0  0  0  0  0  0  0  0  0  0  0  0
    1.3041   -0.6965   -0.9583 O   0  0  0  0  0  0  0  0  0  0  0  0
    0.5715    0.6642   -2.5881 N   0  0  0  0  0  0  0  0  0  0  0  0
   -0.0586    1.4167   -2.8493 H   0  0  0  0  0  0  0  0  0  0  0  0
    1.3612    0.0217   -3.6367 C   0  0  0  0  0  0  0  0  0  0  0  0
    1.0718   -1.0293   -3.7467 H   0  0  0  0  0  0  0  0  0  0  0  0
    1.2029    0.5244   -4.5961 H   0  0  0  0  0  0  0  0  0  0  0  0
    2.4293    0.0664   -3.3971 H   0  0  0  0  0  0  0  0  0  0  0  0
  1  2  1  0  0  0  0
  2  3  1  0  0  0  0
  2  4  1  0  0  0  0
  2  5  1  0  0  0  0
  5  6  2  0  0  0  0
  5  7  1  0  0  0  0
  7  8  1  0  0  0  0
  7  9  1  0  0  0  0
  9 10  1  0  0  0  0
  9 11  1  0  0  0  0
  9 23  1  0  0  0  0
 11 12  1  0  0  0  0
 11 13  1  0  0  0  0
 11 14  1  0  0  0  0
 14 15  1  0  0  0  0
 14 21  2  0  0  0  0
 15 16  1  0  0  0  0
 15 17  2  0  0  0  0
 17 18  1  0  0  0  0
 17 19  1  0  0  0  0
 19 20  1  0  0  0  0
 19 21  1  0  0  0  0
 21 22  1  0  0  0  0
 23 24  2  0  0  0  0
 23 25  1  0  0  0  0
 25 26  1  0  0  0  0
 25 27  1  0  0  0  0
 27 28  1  0  0  0  0
 27 29  1  0  0  0  0
 27 30  1  0  0  0  0
M  CHG  1  15   1
M  END
$$$$

  -OEChem-01062216083D

 30 30  0     1  0  0  0  0  0999 V2000
   -3.5323   -2.2643    0.9479 H   0  0  0  0  0  0  0  0  0  0  0  0
   -3.3160   -1.4751    0.2216 C   0  0  0  0  0  0  0  0  0  0  0  0
   -4.1714   -0.7973    0.1745 H   0  0  0  0  0  0  0  0  0  0  0  0
   -3.1678   -1.9363   -0.7582 H   0  0  0  0  0  0  0  0  0  0  0  0
   -2.0678   -0.7161    0.6297 C   0  0  0  0  0  0  0  0  0  0  0  0
   -1.5140   -1.0201    1.6719 O   0  0  0  0  0  0  0  0  0  0  0  0
   -1.6443    0.3417   -0.1618 N   0  0  0  0  0  0  0  0  0  0  0  0
   -2.2011    0.4400   -1.0079 H   0  0  0  0  0  0  0  0  0  0  0  0
   -0.2969    0.9666   -0.2099 C   0  0  1  0  0  0  0  0  0  0  0  0
   -0.4308    1.9960   -0.5519 H   0  0  0  0  0  0  0  0  0  0  0  0
    0.5025    1.0379    1.1165 C   0  0  0  0  0  0  0  0  0  0  0  0
    0.6701    0.0289    1.5080 H   0  0  0  0  0  0  0  0  0  0  0  0
    1.4988    1.4435    0.9110 H   0  0  0  0  0  0  0  0  0  0  0  0
   -0.1590    1.9037    2.1639 C   0  0  0  0  0  0  0  0  0  0  0  0
   -0.2160    3.2985    2.2100 N   0  3  0  0  0  0  0  0  0  0  0  0
    0.2076    3.8989    1.4993 H   0  0  0  0  0  0  0  0  0  0  0  0
   -0.8289    3.6934    3.3011 C   0  0  0  0  0  0  0  0  0  0  0  0
   -1.0103    4.7251    3.6078 H   0  0  0  0  0  0  0  0  0  0  0  0
   -1.1950    2.5496    4.0066 N   0  0  0  0  0  0  0  0  0  0  0  0
   -1.6862    2.5270    4.9054 H   0  0  0  0  0  0  0  0  0  0  0  0
   -0.7626    1.4348    3.3027 C   0  0  0  0  0  0  0  0  0  0  0  0
   -0.8744    0.3840    3.5797 H   0  0  0  0  0  0  0  0  0  0  0  0
    0.5719    0.2479   -1.2659 C   0  0  0  0  0  0  0  0  0  0  0  0
    1.0626   -0.8413   -1.0145 O   0  0  0  0  0  0  0  0  0  0  0  0
    0.8361    0.8396   -2.4889 N   0  0  0  0  0  0  0  0  0  0  0  0
    0.3883    1.7246   -2.7077 H   0  0  0  0  0  0  0  0  0  0  0  0
    1.6332    0.1881   -3.5265 C   0  0  0  0  0  0  0  0  0  0  0  0
    1.1780   -0.7641   -3.8206 H   0  0  0  0  0  0  0  0  0  0  0  0
    1.7006    0.8257   -4.4138 H   0  0  0  0  0  0  0  0  0  0  0  0
    2.6491   -0.0075   -3.1660 H   0  0  0  0  0  0  0  0  0  0  0  0
  1  2  1  0  0  0  0
  2  3  1  0  0  0  0
  2  4  1  0  0  0  0
  2  5  1  0  0  0  0
  5  6  2  0  0  0  0
  5  7  1  0  0  0  0
  7  8  1  0  0  0  0
  7  9  1  0  0  0  0
  9 10  1  0  0  0  0
  9 11  1  0  0  0  0
  9 23  1  0  0  0  0
 11 12  1  0  0  0  0
 11 13  1  0  0  0  0
 11 14  1  0  0  0  0
 14 15  1  0  0  0  0
 14 21  2  0  0  0  0
 15 16  1  0  0  0  0
 15 17  2  0  0  0  0
 17 18  1  0  0  0  0
 17 19  1  0  0  0  0
 19 20  1  0  0  0  0
 19 21  1  0  0  0  0
 21 22  1  0  0  0  0
 23 24  2  0  0  0  0
 23 25  1  0  0  0  0
 25 26  1  0  0  0  0
 25 27  1  0  0  0  0
 27 28  1  0  0  0  0
 27 29  1  0  0  0  0
 27 30  1  0  0  0  0
M  CHG  1  15   1
M  END
$$$$

  -OEChem-01062216083D

 30 30  0     1  0  0  0  0  0999 V2000
   -3.5042   -2.2855    0.9250 H   0  0  0  0  0  0  0  0  0  0  0  0
   -3.2922   -1.4940    0.2004 C   0  0  0  0  0  0  0  0  0  0  0  0
   -4.1624   -0.8369    0.1333 H   0  0  0  0  0  0  0  0  0  0  0  0
   -3.1138   -1.9546   -0.7744 H   0  0  0  0  0  0  0  0  0  0  0  0
   -2.0701   -0.7046    0.6296 C   0  0  0  0  0  0  0  0  0  0  0  0
   -1.5358   -0.9848    1.6891 O   0  0  0  0  0  0  0  0  0  0  0  0
   -1.6474    0.3511   -0.1652 N   0  0  0  0  0  0  0  0  0  0  0  0
   -2.1803    0.4169   -1.0300 H   0  0  0  0  0  0  0  0  0  0  0  0
   -0.2999    0.9766   -0.2063 C   0  0  1  0  0  0  0  0  0  0  0  0
   -0.4370    2.0042   -0.5525 H   0  0  0  0  0  0  0  0  0  0  0  0
    0.4993    1.0483    1.1189 C   0  0  0  0  0  0  0  0  0  0  0  0
    0.6670    0.0379    1.5076 H   0  0  0  0  0  0  0  0  0  0  0  0
    1.4951    1.4557    0.9145 H   0  0  0  0  0  0  0  0  0  0  0  0
   -0.1623    1.9132    2.1685 C   0  0  0  0  0  0  0  0  0  0  0  0
   -0.2216    3.3083    2.2167 N   0  3  0  0  0  0  0  0  0  0  0  0
    0.1893    3.9107    1.5003 H   0  0  0  0  0  0  0  0  0  0  0  0
   -0.8299    3.7014    3.3112 C   0  0  0  0  0  0  0  0  0  0  0  0
   -1.0149    4.7324    3.6185 H   0  0  0  0  0  0  0  0  0  0  0  0
   -1.1877    2.5566    4.0190 N   0  0  0  0  0  0  0  0  0  0  0  0
   -1.6743    2.5322    4.9201 H   0  0  0  0  0  0  0  0  0  0  0  0
   -0.7565    1.4435    3.3121 C   0  0  0  0  0  0  0  0  0  0  0  0
   -0.8635    0.3928    3.5911 H   0  0  0  0  0  0  0  0  0  0  0  0
    0.5790    0.2565   -1.2527 C   0  0  0  0  0  0  0  0  0  0  0  0
    0.8146   -0.9349   -1.1290 O   0  0  0  0  0  0  0  0  0  0  0  0
    1.1109    0.9408   -2.3321 N   0  0  0  0  0  0  0  0  0  0  0  0
    0.8606    1.9164   -2.4618 H   0  0  0  0  0  0  0  0  0  0  0  0
    1.9178    0.2872   -3.3609 C   0  0  0  0  0  0  0  0  0  0  0  0
    1.3353   -0.4874   -3.8720 H   0  0  0  0  0  0  0  0  0  0  0  0
    2.2512    1.0160   -4.1065 H   0  0  0  0  0  0  0  0  0  0  0  0
    2.8042   -0.1790   -2.9168 H   0  0  0  0  0  0  0  0  0  0  0  0
  1  2  1  0  0  0  0
  2  3  1  0  0  0  0
  2  4  1  0  0  0  0
  2  5  1  0  0  0  0
  5  6  2  0  0  0  0
  5  7  1  0  0  0  0
  7  8  1  0  0  0  0
  7  9  1  0  0  0  0
  9 10  1  0  0  0  0
  9 11  1  0  0  0  0
  9 23  1  0  0  0  0
 11 12  1  0  0  0  0
 11 13  1  0  0  0  0
 11 14  1  0  0  0  0
 14 15  1  0  0  0  0
 14 21  2  0  0  0  0
 15 16  1  0  0  0  0
 15 17  2  0  0  0  0
 17 18  1  0  0  0  0
 17 19  1  0  0  0  0
 19 20  1  0  0  0  0
 19 21  1  0  0  0  0
 21 22  1  0  0  0  0
 23 24  2  0  0  0  0
 23 25  1  0  0  0  0
 25 26  1  0  0  0  0
 25 27  1  0  0  0  0
 27 28  1  0  0  0  0
 27 29  1  0  0  0  0
 27 30  1  0  0  0  0
M  CHG  1  15   1
M  END
$$$$

  -OEChem-01062216083D

 30 30  0     1  0  0  0  0  0999 V2000
   -3.4968   -2.2901    0.9181 H   0  0  0  0  0  0  0  0  0  0  0  0
   -3.2721   -1.5076    0.1877 C   0  0  0  0  0  0  0  0  0  0  0  0
   -4.1453   -0.8591    0.0865 H   0  0  0  0  0  0  0  0  0  0  0  0
   -3.0623   -1.9808   -0.7750 H   0  0  0  0  0  0  0  0  0  0  0  0
   -2.0691   -0.7011    0.6376 C   0  0  0  0  0  0  0  0  0  0  0  0
   -1.5489   -0.9700    1.7074 O   0  0  0  0  0  0  0  0  0  0  0  0
   -1.6421    0.3526   -0.1565 N   0  0  0  0  0  0  0  0  0  0  0  0
   -2.1524    0.3929   -1.0365 H   0  0  0  0  0  0  0  0  0  0  0  0
   -0.2907    0.9701   -0.1933 C   0  0  1  0  0  0  0  0  0  0  0  0
   -0.4248    1.9963   -0.5452 H   0  0  0  0  0  0  0  0  0  0  0  0
    0.5030    1.0425    1.1343 C   0  0  0  0  0  0  0  0  0  0  0  0
    0.6624    0.0325    1.5272 H   0  0  0  0  0  0  0  0  0  0  0  0
    1.5016    1.4447    0.9351 H   0  0  0  0  0  0  0  0  0  0  0  0
   -0.1613    1.9160    2.1755 C   0  0  0  0  0  0  0  0  0  0  0  0
   -0.2148    3.3117    2.2165 N   0  3  0  0  0  0  0  0  0  0  0  0
    0.1975    3.9090    1.4970 H   0  0  0  0  0  0  0  0  0  0  0  0
   -0.8318    3.7132    3.3030 C   0  0  0  0  0  0  0  0  0  0  0  0
   -1.0204    4.7465    3.6005 H   0  0  0  0  0  0  0  0  0  0  0  0
   -1.1961    2.5742    4.0162 N   0  0  0  0  0  0  0  0  0  0  0  0
   -1.6925    2.5566    4.9123 H   0  0  0  0  0  0  0  0  0  0  0  0
   -0.7635    1.4557    3.3189 C   0  0  0  0  0  0  0  0  0  0  0  0
   -0.8768    0.4076    3.6040 H   0  0  0  0  0  0  0  0  0  0  0  0
    0.5915    0.2485   -1.2374 C   0  0  0  0  0  0  0  0  0  0  0  0
    0.5806   -0.9709   -1.3062 O   0  0  0  0  0  0  0  0  0  0  0  0
    1.3758    0.9652   -2.1250 N   0  0  0  0  0  0  0  0  0  0  0  0
    1.3289    1.9793   -2.1080 H   0  0  0  0  0  0  0  0  0  0  0  0
    2.1854    0.3239   -3.1596 C   0  0  0  0  0  0  0  0  0  0  0  0
    1.5507   -0.2450   -3.8481 H   0  0  0  0  0  0  0  0  0  0  0  0
    2.7329    1.0753   -3.7375 H   0  0  0  0  0  0  0  0  0  0  0  0
    2.9132   -0.3607   -2.7099 H   0  0  0  0  0  0  0  0  0  0  0  0
  1  2  1  0  0  0  0
  2  3  1  0  0  0  0
  2  4  1  0  0  0  0
  2  5  1  0  0  0  0
  5  6  2  0  0  0  0
  5  7  1  0  0  0  0
  7  8  1  0  0  0  0
  7  9  1  0  0  0  0
  9 10  1  0  0  0  0
  9 11  1  0  0  0  0
  9 23  1  0  0  0  0
 11 12  1  0  0  0  0
 11 13  1  0  0  0  0
 11 14  1  0  0  0  0
 14 15  1  0  0  0  0
 14 21  2  0  0  0  0
 15 16  1  0  0  0  0
 15 17  2  0  0  0  0
 17 18  1  0  0  0  0
 17 19  1  0  0  0  0
 19 20  1  0  0  0  0
 19 21  1  0  0  0  0
 21 22  1  0  0  0  0
 23 24  2  0  0  0  0
 23 25  1  0  0  0  0
 25 26  1  0  0  0  0
 25 27  1  0  0  0  0
 27 28  1  0  0  0  0
 27 29  1  0  0  0  0
 27 30  1  0  0  0  0
M  CHG  1  15   1
M  END
$$$$

  -OEChem-01062216083D

 30 30  0     1  0  0  0  0  0999 V2000
   -3.4719   -2.3149    0.9055 H   0  0  0  0  0  0  0  0  0  0  0  0
   -3.2550   -1.5189    0.1875 C   0  0  0  0  0  0  0  0  0  0  0  0
   -4.1359   -0.8798    0.0942 H   0  0  0  0  0  0  0  0  0  0  0  0
   -3.0376   -1.9748   -0.7820 H   0  0  0  0  0  0  0  0  0  0  0  0
   -2.0626   -0.7045    0.6513 C   0  0  0  0  0  0  0  0  0  0  0  0
   -1.5467   -0.9752    1.7230 O   0  0  0  0  0  0  0  0  0  0  0  0
   -1.6310    0.3498   -0.1390 N   0  0  0  0  0  0  0  0  0  0  0  0
   -2.1226    0.3716   -1.0308 H   0  0  0  0  0  0  0  0  0  0  0  0
   -0.2741    0.9563   -0.1745 C   0  0  1  0  0  0  0  0  0  0  0  0
   -0.4030    1.9819   -0.5306 H   0  0  0  0  0  0  0  0  0  0  0  0
    0.5112    1.0300    1.1584 C   0  0  0  0  0  0  0  0  0  0  0  0
    0.6607    0.0221    1.5598 H   0  0  0  0  0  0  0  0  0  0  0  0
    1.5139    1.4253    0.9671 H   0  0  0  0  0  0  0  0  0  0  0  0
   -0.1581    1.9167    2.1852 C   0  0  0  0  0  0  0  0  0  0  0  0
   -0.2024    3.3132    2.2136 N   0  3  0  0  0  0  0  0  0  0  0  0
    0.2170    3.9021    1.4912 H   0  0  0  0  0  0  0  0  0  0  0  0
   -0.8352    3.7281    3.2858 C   0  0  0  0  0  0  0  0  0  0  0  0
   -1.0244    4.7650    3.5695 H   0  0  0  0  0  0  0  0  0  0  0  0
   -1.2179    2.5978    4.0031 N   0  0  0  0  0  0  0  0  0  0  0  0
   -1.7324    2.5912    4.8892 H   0  0  0  0  0  0  0  0  0  0  0  0
   -0.7825    1.4703    3.3222 C   0  0  0  0  0  0  0  0  0  0  0  0
   -0.9112    0.4256    3.6135 H   0  0  0  0  0  0  0  0  0  0  0  0
    0.6055    0.2346   -1.2238 C   0  0  0  0  0  0  0  0  0  0  0  0
    0.3701   -0.9254   -1.5284 O   0  0  0  0  0  0  0  0  0  0  0  0
    1.6143    0.9080   -1.8920 N   0  0  0  0  0  0  0  0  0  0  0  0
    1.7597    1.8926   -1.6926 H   0  0  0  0  0  0  0  0  0  0  0  0
    2.4235    0.2842   -2.9377 C   0  0  0  0  0  0  0  0  0  0  0  0
    1.7954   -0.0131   -3.7848 H   0  0  0  0  0  0  0  0  0  0  0  0
    3.1843    0.9824   -3.3008 H   0  0  0  0  0  0  0  0  0  0  0  0
    2.9320   -0.6060   -2.5512 H   0  0  0  0  0  0  0  0  0  0  0  0
  1  2  1  0  0  0  0
  2  3  1  0  0  0  0
  2  4  1  0  0  0  0
  2  5  1  0  0  0  0
  5  6  2  0  0  0  0
  5  7  1  0  0  0  0
  7  8  1  0  0  0  0
  7  9  1  0  0  0  0
  9 10  1  0  0  0  0
  9 11  1  0  0  0  0
  9 23  1  0  0  0  0
 11 12  1  0  0  0  0
 11 13  1  0  0  0  0
 11 14  1  0  0  0  0
 14 15  1  0  0  0  0
 14 21  2  0  0  0  0
 15 16  1  0  0  0  0
 15 17  2  0  0  0  0
 17 18  1  0  0  0  0
 17 19  1  0  0  0  0
 19 20  1  0  0  0  0
 19 21  1  0  0  0  0
 21 22  1  0  0  0  0
 23 24  2  0  0  0  0
 23 25  1  0  0  0  0
 25 26  1  0  0  0  0
 25 27  1  0  0  0  0
 27 28  1  0  0  0  0
 27 29  1  0  0  0  0
 27 30  1  0  0  0  0
M  CHG  1  15   1
M  END
$$$$

  -OEChem-01062216083D

 30 30  0     1  0  0  0  0  0999 V2000
   -3.4573   -2.3266    0.8974 H   0  0  0  0  0  0  0  0  0  0  0  0
   -3.2404   -1.5220    0.1891 C   0  0  0  0  0  0  0  0  0  0  0  0
   -4.1217   -0.8824    0.1014 H   0  0  0  0  0  0  0  0  0  0  0  0
   -3.0206   -1.9660   -0.7854 H   0  0  0  0  0  0  0  0  0  0  0  0
   -2.0501   -0.7111    0.6636 C   0  0  0  0  0  0  0  0  0  0  0  0
   -1.5344   -0.9919    1.7332 O   0  0  0  0  0  0  0  0  0  0  0  0
   -1.6127    0.3455   -0.1197 N   0  0  0  0  0  0  0  0  0  0  0  0
   -2.0893    0.3577   -1.0204 H   0  0  0  0  0  0  0  0  0  0  0  0
   -0.2520    0.9438   -0.1540 C   0  0  1  0  0  0  0  0  0  0  0  0
   -0.3719    1.9693   -0.5142 H   0  0  0  0  0  0  0  0  0  0  0  0
    0.5193    1.0200    1.1878 C   0  0  0  0  0  0  0  0  0  0  0  0
    0.6599    0.0151    1.5985 H   0  0  0  0  0  0  0  0  0  0  0  0
    1.5256    1.4119    1.0109 H   0  0  0  0  0  0  0  0  0  0  0  0
   -0.1617    1.9189    2.1967 C   0  0  0  0  0  0  0  0  0  0  0  0
   -0.2005    3.3159    2.2138 N   0  3  0  0  0  0  0  0  0  0  0  0
    0.2291    3.8977    1.4914 H   0  0  0  0  0  0  0  0  0  0  0  0
   -0.8487    3.7413    3.2727 C   0  0  0  0  0  0  0  0  0  0  0  0
   -1.0388    4.7813    3.5448 H   0  0  0  0  0  0  0  0  0  0  0  0
   -1.2479    2.6180    3.9921 N   0  0  0  0  0  0  0  0  0  0  0  0
   -1.7769    2.6205    4.8696 H   0  0  0  0  0  0  0  0  0  0  0  0
   -0.8074    1.4835    3.3263 C   0  0  0  0  0  0  0  0  0  0  0  0
   -0.9466    0.4416    3.6228 H   0  0  0  0  0  0  0  0  0  0  0  0
    0.6186    0.2200   -1.2131 C   0  0  0  0  0  0  0  0  0  0  0  0
    0.2075   -0.7977   -1.7529 O   0  0  0  0  0  0  0  0  0  0  0  0
    1.8092    0.7695   -1.6591 N   0  0  0  0  0  0  0  0  0  0  0  0
    2.1242    1.6459   -1.2563 H   0  0  0  0  0  0  0  0  0  0  0  0
    2.6186    0.1594   -2.7126 C   0  0  0  0  0  0  0  0  0  0  0  0
    2.0579    0.1154   -3.6529 H   0  0  0  0  0  0  0  0  0  0  0  0
    3.5288    0.7430   -2.8822 H   0  0  0  0  0  0  0  0  0  0  0  0
    2.9108   -0.8588   -2.4327 H   0  0  0  0  0  0  0  0  0  0  0  0
  1  2  1  0  0  0  0
  2  3  1  0  0  0  0
  2  4  1  0  0  0  0
  2  5  1  0  0  0  0
  5  6  2  0  0  0  0
  5  7  1  0  0  0  0
  7  8  1  0  0  0  0
  7  9  1  0  0  0  0
  9 10  1  0  0  0  0
  9 11  1  0  0  0  0
  9 23  1  0  0  0  0
 11 12  1  0  0  0  0
 11 13  1  0  0  0  0
 11 14  1  0  0  0  0
 14 15  1  0  0  0  0
 14 21  2  0  0  0  0
 15 16  1  0  0  0  0
 15 17  2  0  0  0  0
 17 18  1  0  0  0  0
 17 19  1  0  0  0  0
 19 20  1  0  0  0  0
 19 21  1  0  0  0  0
 21 22  1  0  0  0  0
 23 24  2  0  0  0  0
 23 25  1  0  0  0  0
 25 26  1  0  0  0  0
 25 27  1  0  0  0  0
 27 28  1  0  0  0  0
 27 29  1  0  0  0  0
 27 30  1  0  0  0  0
M  CHG  1  15   1
M  END
$$$$

  -OEChem-01062216083D

 30 30  0     1  0  0  0  0  0999 V2000
   -3.6392   -2.2657    0.8141 H   0  0  0  0  0  0  0  0  0  0  0  0
   -3.3771   -1.4263    0.1638 C   0  0  0  0  0  0  0  0  0  0  0  0
   -4.1757   -0.6822    0.2109 H   0  0  0  0  0  0  0  0  0  0  0  0
   -3.2909   -1.7932   -0.8623 H   0  0  0  0  0  0  0  0  0  0  0  0
   -2.0624   -0.8103    0.6026 C   0  0  0  0  0  0  0  0  0  0  0  0
   -1.4741   -1.2962    1.5538 O   0  0  0  0  0  0  0  0  0  0  0  0
   -1.5685    0.2677   -0.1121 N   0  0  0  0  0  0  0  0  0  0  0  0
   -2.0717    0.4043   -0.9896 H   0  0  0  0  0  0  0  0  0  0  0  0
   -0.2031    0.8541   -0.1129 C   0  0  1  0  0  0  0  0  0  0  0  0
   -0.3444    1.9349   -0.2030 H   0  0  0  0  0  0  0  0  0  0  0  0
    0.6865    0.6449    1.1415 C   0  0  0  0  0  0  0  0  0  0  0  0
    0.8286   -0.4276    1.3120 H   0  0  0  0  0  0  0  0  0  0  0  0
    1.6828    1.0602    0.9670 H   0  0  0  0  0  0  0  0  0  0  0  0
    0.1199    1.3055    2.3826 C   0  0  0  0  0  0  0  0  0  0  0  0
    0.1188    2.6707    2.6853 N   0  3  0  0  0  0  0  0  0  0  0  0
    0.4606    3.3876    2.0411 H   0  0  0  0  0  0  0  0  0  0  0  0
   -0.3944    2.8769    3.8753 C   0  0  0  0  0  0  0  0  0  0  0  0
   -0.5360    3.8424    4.3648 H   0  0  0  0  0  0  0  0  0  0  0  0
   -0.7241    1.6321    4.4035 N   0  0  0  0  0  0  0  0  0  0  0  0
   -1.1457    1.4589    5.3211 H   0  0  0  0  0  0  0  0  0  0  0  0
   -0.3845    0.6538    3.4806 C   0  0  0  0  0  0  0  0  0  0  0  0
   -0.4982   -0.4269    3.5884 H   0  0  0  0  0  0  0  0  0  0  0  0
    0.5321    0.4444   -1.4166 C   0  0  0  0  0  0  0  0  0  0  0  0
   -0.0843   -0.1475   -2.2926 O   0  0  0  0  0  0  0  0  0  0  0  0
    1.8289    0.8500   -1.6882 N   0  0  0  0  0  0  0  0  0  0  0  0
    2.3405    1.3615   -0.9772 H   0  0  0  0  0  0  0  0  0  0  0  0
    2.5160    0.5223   -2.9365 C   0  0  0  0  0  0  0  0  0  0  0  0
    1.9802    0.9446   -3.7937 H   0  0  0  0  0  0  0  0  0  0  0  0
    3.5324    0.9285   -2.9322 H   0  0  0  0  0  0  0  0  0  0  0  0
    2.5803   -0.5636   -3.0665 H   0  0  0  0  0  0  0  0  0  0  0  0
  1  2  1  0  0  0  0
  2  3  1  0  0  0  0
  2  4  1  0  0  0  0
  2  5  1  0  0  0  0
  5  6  2  0  0  0  0
  5  7  1  0  0  0  0
  7  8  1  0  0  0  0
  7  9  1  0  0  0  0
  9 10  1  0  0  0  0
  9 11  1  0  0  0  0
  9 23  1  0  0  0  0
 11 12  1  0  0  0  0
 11 13  1  0  0  0  0
 11 14  1  0  0  0  0
 14 15  1  0  0  0  0
 14 21  2  0  0  0  0
 15 16  1  0  0  0  0
 15 17  2  0  0  0  0
 17 18  1  0  0  0  0
 17 19  1  0  0  0  0
 19 20  1  0  0  0  0
 19 21  1  0  0  0  0
 21 22  1  0  0  0  0
 23 24  2  0  0  0  0
 23 25  1  0  0  0  0
 25 26  1  0  0  0  0
 25 27  1  0  0  0  0
 27 28  1  0  0  0  0
 27 29  1  0  0  0  0
 27 30  1  0  0  0  0
M  CHG  1  15   1
M  END
$$$$

  -OEChem-01062216083D

 30 30  0     1  0  0  0  0  0999 V2000
   -3.6154   -2.2838    0.7960 H   0  0  0  0  0  0  0  0  0  0  0  0
   -3.3588   -1.4314    0.1605 C   0  0  0  0  0  0  0  0  0  0  0  0
   -4.1570   -0.6885    0.2287 H   0  0  0  0  0  0  0  0  0  0  0  0
   -3.2812   -1.7782   -0.8733 H   0  0  0  0  0  0  0  0  0  0  0  0
   -2.0406   -0.8244    0.6011 C   0  0  0  0  0  0  0  0  0  0  0  0
   -1.4464   -1.3254    1.5409 O   0  0  0  0  0  0  0  0  0  0  0  0
   -1.5439    0.2604   -0.1006 N   0  0  0  0  0  0  0  0  0  0  0  0
   -2.0508    0.4224   -0.9723 H   0  0  0  0  0  0  0  0  0  0  0  0
   -0.1784    0.8441   -0.0924 C   0  0  1  0  0  0  0  0  0  0  0  0
   -0.3162    1.9254   -0.1819 H   0  0  0  0  0  0  0  0  0  0  0  0
    0.6969    0.6384    1.1724 C   0  0  0  0  0  0  0  0  0  0  0  0
    0.8409   -0.4325    1.3507 H   0  0  0  0  0  0  0  0  0  0  0  0
    1.6923    1.0606    1.0104 H   0  0  0  0  0  0  0  0  0  0  0  0
    0.1143    1.3075    2.4005 C   0  0  0  0  0  0  0  0  0  0  0  0
    0.1136    2.6751    2.6912 N   0  3  0  0  0  0  0  0  0  0  0  0
    0.4761    3.3844    2.0498 H   0  0  0  0  0  0  0  0  0  0  0  0
   -0.4161    2.8930    3.8717 C   0  0  0  0  0  0  0  0  0  0  0  0
   -0.5550    3.8629    4.3533 H   0  0  0  0  0  0  0  0  0  0  0  0
   -0.7656    1.6543    4.4016 N   0  0  0  0  0  0  0  0  0  0  0  0
   -1.2029    1.4909    5.3135 H   0  0  0  0  0  0  0  0  0  0  0  0
   -0.4184    0.6665    3.4912 C   0  0  0  0  0  0  0  0  0  0  0  0
   -0.5448   -0.4124    3.6027 H   0  0  0  0  0  0  0  0  0  0  0  0
    0.5476    0.4409   -1.4030 C   0  0  0  0  0  0  0  0  0  0  0  0
   -0.1277    0.1154   -2.3706 O   0  0  0  0  0  0  0  0  0  0  0  0
    1.9177    0.5643   -1.5703 N   0  0  0  0  0  0  0  0  0  0  0  0
    2.4875    0.7935   -0.7629 H   0  0  0  0  0  0  0  0  0  0  0  0
    2.5969    0.2158   -2.8172 C   0  0  0  0  0  0  0  0  0  0  0  0
    2.2177    0.8243   -3.6457 H   0  0  0  0  0  0  0  0  0  0  0  0
    3.6736    0.3920   -2.7285 H   0  0  0  0  0  0  0  0  0  0  0  0
    2.4394   -0.8411   -3.0595 H   0  0  0  0  0  0  0  0  0  0  0  0
  1  2  1  0  0  0  0
  2  3  1  0  0  0  0
  2  4  1  0  0  0  0
  2  5  1  0  0  0  0
  5  6  2  0  0  0  0
  5  7  1  0  0  0  0
  7  8  1  0  0  0  0
  7  9  1  0  0  0  0
  9 10  1  0  0  0  0
  9 11  1  0  0  0  0
  9 23  1  0  0  0  0
 11 12  1  0  0  0  0
 11 13  1  0  0  0  0
 11 14  1  0  0  0  0
 14 15  1  0  0  0  0
 14 21  2  0  0  0  0
 15 16  1  0  0  0  0
 15 17  2  0  0  0  0
 17 18  1  0  0  0  0
 17 19  1  0  0  0  0
 19 20  1  0  0  0  0
 19 21  1  0  0  0  0
 21 22  1  0  0  0  0
 23 24  2  0  0  0  0
 23 25  1  0  0  0  0
 25 26  1  0  0  0  0
 25 27  1  0  0  0  0
 27 28  1  0  0  0  0
 27 29  1  0  0  0  0
 27 30  1  0  0  0  0
M  CHG  1  15   1
M  END
$$$$

  -OEChem-01062216083D

 30 30  0     1  0  0  0  0  0999 V2000
   -3.6115   -2.2732    0.8043 H   0  0  0  0  0  0  0  0  0  0  0  0
   -3.3512   -1.4211    0.1698 C   0  0  0  0  0  0  0  0  0  0  0  0
   -4.1377   -0.6673    0.2536 H   0  0  0  0  0  0  0  0  0  0  0  0
   -3.2934   -1.7627   -0.8669 H   0  0  0  0  0  0  0  0  0  0  0  0
   -2.0185   -0.8354    0.5959 C   0  0  0  0  0  0  0  0  0  0  0  0
   -1.4142   -1.3531    1.5203 O   0  0  0  0  0  0  0  0  0  0  0  0
   -1.5191    0.2532   -0.0975 N   0  0  0  0  0  0  0  0  0  0  0  0
   -2.0379    0.4474   -0.9557 H   0  0  0  0  0  0  0  0  0  0  0  0
   -0.1553    0.8376   -0.0781 C   0  0  1  0  0  0  0  0  0  0  0  0
   -0.2921    1.9192   -0.1694 H   0  0  0  0  0  0  0  0  0  0  0  0
    0.7122    0.6376    1.1916 C   0  0  0  0  0  0  0  0  0  0  0  0
    0.8613   -0.4314    1.3768 H   0  0  0  0  0  0  0  0  0  0  0  0
    1.7047    1.0693    1.0329 H   0  0  0  0  0  0  0  0  0  0  0  0
    0.1142    1.3105    2.4089 C   0  0  0  0  0  0  0  0  0  0  0  0
    0.1042    2.6790    2.6936 N   0  3  0  0  0  0  0  0  0  0  0  0
    0.4699    3.3872    2.0524 H   0  0  0  0  0  0  0  0  0  0  0  0
   -0.4454    2.8990    3.8645 C   0  0  0  0  0  0  0  0  0  0  0  0
   -0.5986    3.8706    4.3385 H   0  0  0  0  0  0  0  0  0  0  0  0
   -0.7967    1.6604    4.3947 N   0  0  0  0  0  0  0  0  0  0  0  0
   -1.2461    1.4990    5.3011 H   0  0  0  0  0  0  0  0  0  0  0  0
   -0.4333    0.6705    3.4926 C   0  0  0  0  0  0  0  0  0  0  0  0
   -0.5588   -0.4084    3.6041 H   0  0  0  0  0  0  0  0  0  0  0  0
    0.5670    0.4358   -1.3884 C   0  0  0  0  0  0  0  0  0  0  0  0
   -0.1002    0.3650   -2.4117 O   0  0  0  0  0  0  0  0  0  0  0  0
    1.9389    0.2625   -1.4761 N   0  0  0  0  0  0  0  0  0  0  0  0
    2.4709    0.2074   -0.6136 H   0  0  0  0  0  0  0  0  0  0  0  0
    2.6044   -0.1259   -2.7184 C   0  0  0  0  0  0  0  0  0  0  0  0
    2.3891    0.5961   -3.5140 H   0  0  0  0  0  0  0  0  0  0  0  0
    3.6890   -0.1627   -2.5756 H   0  0  0  0  0  0  0  0  0  0  0  0
    2.2645   -1.1154   -3.0434 H   0  0  0  0  0  0  0  0  0  0  0  0
  1  2  1  0  0  0  0
  2  3  1  0  0  0  0
  2  4  1  0  0  0  0
  2  5  1  0  0  0  0
  5  6  2  0  0  0  0
  5  7  1  0  0  0  0
  7  8  1  0  0  0  0
  7  9  1  0  0  0  0
  9 10  1  0  0  0  0
  9 11  1  0  0  0  0
  9 23  1  0  0  0  0
 11 12  1  0  0  0  0
 11 13  1  0  0  0  0
 11 14  1  0  0  0  0
 14 15  1  0  0  0  0
 14 21  2  0  0  0  0
 15 16  1  0  0  0  0
 15 17  2  0  0  0  0
 17 18  1  0  0  0  0
 17 19  1  0  0  0  0
 19 20  1  0  0  0  0
 19 21  1  0  0  0  0
 21 22  1  0  0  0  0
 23 24  2  0  0  0  0
 23 25  1  0  0  0  0
 25 26  1  0  0  0  0
 25 27  1  0  0  0  0
 27 28  1  0  0  0  0
 27 29  1  0  0  0  0
 27 30  1  0  0  0  0
M  CHG  1  15   1
M  END
$$$$

  -OEChem-01062216083D

 30 30  0     1  0  0  0  0  0999 V2000
   -3.6057   -2.2725    0.8155 H   0  0  0  0  0  0  0  0  0  0  0  0
   -3.3505   -1.4136    0.1883 C   0  0  0  0  0  0  0  0  0  0  0  0
   -4.1275   -0.6537    0.2998 H   0  0  0  0  0  0  0  0  0  0  0  0
   -3.3184   -1.7402   -0.8544 H   0  0  0  0  0  0  0  0  0  0  0  0
   -2.0040   -0.8465    0.5954 C   0  0  0  0  0  0  0  0  0  0  0  0
   -1.3894   -1.3753    1.5067 O   0  0  0  0  0  0  0  0  0  0  0  0
   -1.5029    0.2412   -0.0978 N   0  0  0  0  0  0  0  0  0  0  0  0
   -2.0377    0.4644   -0.9388 H   0  0  0  0  0  0  0  0  0  0  0  0
   -0.1418    0.8288   -0.0730 C   0  0  1  0  0  0  0  0  0  0  0  0
   -0.2799    1.9100   -0.1682 H   0  0  0  0  0  0  0  0  0  0  0  0
    0.7230    0.6359    1.1988 C   0  0  0  0  0  0  0  0  0  0  0  0
    0.8748   -0.4312    1.3914 H   0  0  0  0  0  0  0  0  0  0  0  0
    1.7146    1.0700    1.0353 H   0  0  0  0  0  0  0  0  0  0  0  0
    0.1173    1.3111    2.4103 C   0  0  0  0  0  0  0  0  0  0  0  0
    0.1010    2.6807    2.6887 N   0  3  0  0  0  0  0  0  0  0  0  0
    0.4741    3.3867    2.0492 H   0  0  0  0  0  0  0  0  0  0  0  0
   -0.4626    2.9038    3.8524 C   0  0  0  0  0  0  0  0  0  0  0  0
   -0.6226    3.8766    4.3216 H   0  0  0  0  0  0  0  0  0  0  0  0
   -0.8182    1.6663    4.3826 N   0  0  0  0  0  0  0  0  0  0  0  0
   -1.2791    1.5077    5.2839 H   0  0  0  0  0  0  0  0  0  0  0  0
   -0.4427    0.6733    3.4887 C   0  0  0  0  0  0  0  0  0  0  0  0
   -0.5697   -0.4055    3.6010 H   0  0  0  0  0  0  0  0  0  0  0  0
    0.5830    0.4235   -1.3776 C   0  0  0  0  0  0  0  0  0  0  0  0
   -0.0257    0.5643   -2.4289 O   0  0  0  0  0  0  0  0  0  0  0  0
    1.8884   -0.0389   -1.4116 N   0  0  0  0  0  0  0  0  0  0  0  0
    2.3300   -0.2840   -0.5309 H   0  0  0  0  0  0  0  0  0  0  0  0
    2.5349   -0.4732   -2.6485 C   0  0  0  0  0  0  0  0  0  0  0  0
    2.5690    0.3469   -3.3743 H   0  0  0  0  0  0  0  0  0  0  0  0
    3.5614   -0.7973   -2.4500 H   0  0  0  0  0  0  0  0  0  0  0  0
    1.9885   -1.3116   -3.0945 H   0  0  0  0  0  0  0  0  0  0  0  0
  1  2  1  0  0  0  0
  2  3  1  0  0  0  0
  2  4  1  0  0  0  0
  2  5  1  0  0  0  0
  5  6  2  0  0  0  0
  5  7  1  0  0  0  0
  7  8  1  0  0  0  0
  7  9  1  0  0  0  0
  9 10  1  0  0  0  0
  9 11  1  0  0  0  0
  9 23  1  0  0  0  0
 11 12  1  0  0  0  0
 11 13  1  0  0  0  0
 11 14  1  0  0  0  0
 14 15  1  0  0  0  0
 14 21  2  0  0  0  0
 15 16  1  0  0  0  0
 15 17  2  0  0  0  0
 17 18  1  0  0  0  0
 17 19  1  0  0  0  0
 19 20  1  0  0  0  0
 19 21  1  0  0  0  0
 21 22  1  0  0  0  0
 23 24  2  0  0  0  0
 23 25  1  0  0  0  0
 25 26  1  0  0  0  0
 25 27  1  0  0  0  0
 27 28  1  0  0  0  0
 27 29  1  0  0  0  0
 27 30  1  0  0  0  0
M  CHG  1  15   1
M  END
$$$$

  -OEChem-01062216083D

 30 30  0     1  0  0  0  0  0999 V2000
   -3.6250   -2.2682    0.8333 H   0  0  0  0  0  0  0  0  0  0  0  0
   -3.3695   -1.4092    0.2063 C   0  0  0  0  0  0  0  0  0  0  0  0
   -4.1357   -0.6409    0.3331 H   0  0  0  0  0  0  0  0  0  0  0  0
   -3.3567   -1.7307   -0.8384 H   0  0  0  0  0  0  0  0  0  0  0  0
   -2.0103   -0.8600    0.5948 C   0  0  0  0  0  0  0  0  0  0  0  0
   -1.3847   -1.4006    1.4918 O   0  0  0  0  0  0  0  0  0  0  0  0
   -1.5061    0.2239   -0.1019 N   0  0  0  0  0  0  0  0  0  0  0  0
   -2.0628    0.4818   -0.9179 H   0  0  0  0  0  0  0  0  0  0  0  0
   -0.1439    0.8069   -0.0758 C   0  0  1  0  0  0  0  0  0  0  0  0
   -0.2817    1.8883   -0.1733 H   0  0  0  0  0  0  0  0  0  0  0  0
    0.7214    0.6204    1.1955 C   0  0  0  0  0  0  0  0  0  0  0  0
    0.8711   -0.4448    1.3978 H   0  0  0  0  0  0  0  0  0  0  0  0
    1.7146    1.0484    1.0227 H   0  0  0  0  0  0  0  0  0  0  0  0
    0.1182    1.3040    2.4025 C   0  0  0  0  0  0  0  0  0  0  0  0
    0.1065    2.6758    2.6693 N   0  3  0  0  0  0  0  0  0  0  0  0
    0.4883    3.3743    2.0263 H   0  0  0  0  0  0  0  0  0  0  0  0
   -0.4513    2.9097    3.8334 C   0  0  0  0  0  0  0  0  0  0  0  0
   -0.6000    3.8864    4.2979 H   0  0  0  0  0  0  0  0  0  0  0  0
   -0.8150    1.6779    4.3720 N   0  0  0  0  0  0  0  0  0  0  0  0
   -1.2717    1.5281    5.2771 H   0  0  0  0  0  0  0  0  0  0  0  0
   -0.4472    0.6763    3.4839 C   0  0  0  0  0  0  0  0  0  0  0  0
   -0.5803   -0.4011    3.6027 H   0  0  0  0  0  0  0  0  0  0  0  0
    0.5901    0.4009   -1.3711 C   0  0  0  0  0  0  0  0  0  0  0  0
    0.1040    0.7643   -2.4316 O   0  0  0  0  0  0  0  0  0  0  0  0
    1.7640   -0.3334   -1.3743 N   0  0  0  0  0  0  0  0  0  0  0  0
    2.0484   -0.7710   -0.5028 H   0  0  0  0  0  0  0  0  0  0  0  0
    2.4076   -0.7785   -2.6084 C   0  0  0  0  0  0  0  0  0  0  0  0
    2.6446    0.0772   -3.2502 H   0  0  0  0  0  0  0  0  0  0  0  0
    3.3402   -1.3057   -2.3841 H   0  0  0  0  0  0  0  0  0  0  0  0
    1.7503   -1.4583   -3.1613 H   0  0  0  0  0  0  0  0  0  0  0  0
  1  2  1  0  0  0  0
  2  3  1  0  0  0  0
  2  4  1  0  0  0  0
  2  5  1  0  0  0  0
  5  6  2  0  0  0  0
  5  7  1  0  0  0  0
  7  8  1  0  0  0  0
  7  9  1  0  0  0  0
  9 10  1  0  0  0  0
  9 11  1  0  0  0  0
  9 23  1  0  0  0  0
 11 12  1  0  0  0  0
 11 13  1  0  0  0  0
 11 14  1  0  0  0  0
 14 15  1  0  0  0  0
 14 21  2  0  0  0  0
 15 16  1  0  0  0  0
 15 17  2  0  0  0  0
 17 18  1  0  0  0  0
 17 19  1  0  0  0  0
 19 20  1  0  0  0  0
 19 21  1  0  0  0  0
 21 22  1  0  0  0  0
 23 24  2  0  0  0  0
 23 25  1  0  0  0  0
 25 26  1  0  0  0  0
 25 27  1  0  0  0  0
 27 28  1  0  0  0  0
 27 29  1  0  0  0  0
 27 30  1  0  0  0  0
M  CHG  1  15   1
M  END
$$$$

  -OEChem-01062216083D

 30 30  0     1  0  0  0  0  0999 V2000
   -3.6576   -2.2413    0.8926 H   0  0  0  0  0  0  0  0  0  0  0  0
   -3.4042   -1.3878    0.2572 C   0  0  0  0  0  0  0  0  0  0  0  0
   -4.1456   -0.6006    0.4140 H   0  0  0  0  0  0  0  0  0  0  0  0
   -3.4392   -1.7080   -0.7872 H   0  0  0  0  0  0  0  0  0  0  0  0
   -2.0181   -0.8733    0.5950 C   0  0  0  0  0  0  0  0  0  0  0  0
   -1.3707   -1.4326    1.4647 O   0  0  0  0  0  0  0  0  0  0  0  0
   -1.5140    0.2034   -0.1132 N   0  0  0  0  0  0  0  0  0  0  0  0
   -2.0989    0.4964   -0.8962 H   0  0  0  0  0  0  0  0  0  0  0  0
   -0.1527    0.7880   -0.0919 C   0  0  1  0  0  0  0  0  0  0  0  0
   -0.2922    1.8691   -0.1935 H   0  0  0  0  0  0  0  0  0  0  0  0
    0.7183    0.6071    1.1751 C   0  0  0  0  0  0  0  0  0  0  0  0
    0.8723   -0.4562    1.3823 H   0  0  0  0  0  0  0  0  0  0  0  0
    1.7106    1.0343    0.9925 H   0  0  0  0  0  0  0  0  0  0  0  0
    0.1191    1.2929    2.3818 C   0  0  0  0  0  0  0  0  0  0  0  0
    0.1058    2.6653    2.6440 N   0  3  0  0  0  0  0  0  0  0  0  0
    0.4867    3.3621    1.9983 H   0  0  0  0  0  0  0  0  0  0  0  0
   -0.4485    2.9012    3.8095 C   0  0  0  0  0  0  0  0  0  0  0  0
   -0.5962    3.8789    4.2725 H   0  0  0  0  0  0  0  0  0  0  0  0
   -0.8093    1.6699    4.3519 N   0  0  0  0  0  0  0  0  0  0  0  0
   -1.2613    1.5220    5.2595 H   0  0  0  0  0  0  0  0  0  0  0  0
   -0.4426    0.6663    3.4654 C   0  0  0  0  0  0  0  0  0  0  0  0
   -0.5726   -0.4112    3.5869 H   0  0  0  0  0  0  0  0  0  0  0  0
    0.5923    0.3754   -1.3762 C   0  0  0  0  0  0  0  0  0  0  0  0
    0.2853    0.9366   -2.4163 O   0  0  0  0  0  0  0  0  0  0  0  0
    1.5816   -0.5924   -1.3815 N   0  0  0  0  0  0  0  0  0  0  0  0
    1.6809   -1.1648   -0.5474 H   0  0  0  0  0  0  0  0  0  0  0  0
    2.2320   -1.0445   -2.6093 C   0  0  0  0  0  0  0  0  0  0  0  0
    2.7130   -0.2045   -3.1222 H   0  0  0  0  0  0  0  0  0  0  0  0
    2.9998   -1.7909   -2.3820 H   0  0  0  0  0  0  0  0  0  0  0  0
    1.5008   -1.4960   -3.2885 H   0  0  0  0  0  0  0  0  0  0  0  0
  1  2  1  0  0  0  0
  2  3  1  0  0  0  0
  2  4  1  0  0  0  0
  2  5  1  0  0  0  0
  5  6  2  0  0  0  0
  5  7  1  0  0  0  0
  7  8  1  0  0  0  0
  7  9  1  0  0  0  0
  9 10  1  0  0  0  0
  9 11  1  0  0  0  0
  9 23  1  0  0  0  0
 11 12  1  0  0  0  0
 11 13  1  0  0  0  0
 11 14  1  0  0  0  0
 14 15  1  0  0  0  0
 14 21  2  0  0  0  0
 15 16  1  0  0  0  0
 15 17  2  0  0  0  0
 17 18  1  0  0  0  0
 17 19  1  0  0  0  0
 19 20  1  0  0  0  0
 19 21  1  0  0  0  0
 21 22  1  0  0  0  0
 23 24  2  0  0  0  0
 23 25  1  0  0  0  0
 25 26  1  0  0  0  0
 25 27  1  0  0  0  0
 27 28  1  0  0  0  0
 27 29  1  0  0  0  0
 27 30  1  0  0  0  0
M  CHG  1  15   1
M  END
$$$$

  -OEChem-01062216083D

 30 30  0     1  0  0  0  0  0999 V2000
   -3.6933   -2.2158    0.9517 H   0  0  0  0  0  0  0  0  0  0  0  0
   -3.4453   -1.3689    0.3053 C   0  0  0  0  0  0  0  0  0  0  0  0
   -4.1663   -0.5676    0.4845 H   0  0  0  0  0  0  0  0  0  0  0  0
   -3.5218   -1.6908   -0.7363 H   0  0  0  0  0  0  0  0  0  0  0  0
   -2.0382   -0.8816    0.5946 C   0  0  0  0  0  0  0  0  0  0  0  0
   -1.3686   -1.4596    1.4346 O   0  0  0  0  0  0  0  0  0  0  0  0
   -1.5365    0.1882   -0.1261 N   0  0  0  0  0  0  0  0  0  0  0  0
   -2.1487    0.5138   -0.8741 H   0  0  0  0  0  0  0  0  0  0  0  0
   -0.1743    0.7731   -0.1130 C   0  0  1  0  0  0  0  0  0  0  0  0
   -0.3162    1.8542   -0.2146 H   0  0  0  0  0  0  0  0  0  0  0  0
    0.7080    0.5938    1.1458 C   0  0  0  0  0  0  0  0  0  0  0  0
    0.8671   -0.4687    1.3523 H   0  0  0  0  0  0  0  0  0  0  0  0
    1.6984    1.0206    0.9519 H   0  0  0  0  0  0  0  0  0  0  0  0
    0.1211    1.2786    2.3581 C   0  0  0  0  0  0  0  0  0  0  0  0
    0.1107    2.6508    2.6195 N   0  3  0  0  0  0  0  0  0  0  0  0
    0.4933    3.3459    1.9730 H   0  0  0  0  0  0  0  0  0  0  0  0
   -0.4323    2.8871    3.7900 C   0  0  0  0  0  0  0  0  0  0  0  0
   -0.5716    3.8649    4.2554 H   0  0  0  0  0  0  0  0  0  0  0  0
   -0.7922    1.6562    4.3343 N   0  0  0  0  0  0  0  0  0  0  0  0
   -1.2353    1.5089    5.2464 H   0  0  0  0  0  0  0  0  0  0  0  0
   -0.4352    0.6522    3.4442 C   0  0  0  0  0  0  0  0  0  0  0  0
   -0.5674   -0.4250    3.5646 H   0  0  0  0  0  0  0  0  0  0  0  0
    0.5811    0.3563   -1.3877 C   0  0  0  0  0  0  0  0  0  0  0  0
    0.5156    1.0877   -2.3628 O   0  0  0  0  0  0  0  0  0  0  0  0
    1.3412   -0.7983   -1.4347 N   0  0  0  0  0  0  0  0  0  0  0  0
    1.2392   -1.4555   -0.6650 H   0  0  0  0  0  0  0  0  0  0  0  0
    2.0113   -1.2527   -2.6506 C   0  0  0  0  0  0  0  0  0  0  0  0
    2.6885   -0.4796   -3.0300 H   0  0  0  0  0  0  0  0  0  0  0  0
    2.6008   -2.1525   -2.4479 H   0  0  0  0  0  0  0  0  0  0  0  0
    1.2773   -1.4871   -3.4292 H   0  0  0  0  0  0  0  0  0  0  0  0
  1  2  1  0  0  0  0
  2  3  1  0  0  0  0
  2  4  1  0  0  0  0
  2  5  1  0  0  0  0
  5  6  2  0  0  0  0
  5  7  1  0  0  0  0
  7  8  1  0  0  0  0
  7  9  1  0  0  0  0
  9 10  1  0  0  0  0
  9 11  1  0  0  0  0
  9 23  1  0  0  0  0
 11 12  1  0  0  0  0
 11 13  1  0  0  0  0
 11 14  1  0  0  0  0
 14 15  1  0  0  0  0
 14 21  2  0  0  0  0
 15 16  1  0  0  0  0
 15 17  2  0  0  0  0
 17 18  1  0  0  0  0
 17 19  1  0  0  0  0
 19 20  1  0  0  0  0
 19 21  1  0  0  0  0
 21 22  1  0  0  0  0
 23 24  2  0  0  0  0
 23 25  1  0  0  0  0
 25 26  1  0  0  0  0
 25 27  1  0  0  0  0
 27 28  1  0  0  0  0
 27 29  1  0  0  0  0
 27 30  1  0  0  0  0
M  CHG  1  15   1
M  END
$$$$

  -OEChem-01062216083D

 30 30  0     1  0  0  0  0  0999 V2000
   -3.7264   -2.1903    1.0183 H   0  0  0  0  0  0  0  0  0  0  0  0
   -3.4899   -1.3465    0.3634 C   0  0  0  0  0  0  0  0  0  0  0  0
   -4.1885   -0.5333    0.5740 H   0  0  0  0  0  0  0  0  0  0  0  0
   -3.6148   -1.6651   -0.6746 H   0  0  0  0  0  0  0  0  0  0  0  0
   -2.0646   -0.8836    0.5962 C   0  0  0  0  0  0  0  0  0  0  0  0
   -1.3693   -1.4795    1.4016 O   0  0  0  0  0  0  0  0  0  0  0  0
   -1.5719    0.1791   -0.1409 N   0  0  0  0  0  0  0  0  0  0  0  0
   -2.2120    0.5321   -0.8518 H   0  0  0  0  0  0  0  0  0  0  0  0
   -0.2106    0.7683   -0.1429 C   0  0  1  0  0  0  0  0  0  0  0  0
   -0.3556    1.8490   -0.2448 H   0  0  0  0  0  0  0  0  0  0  0  0
    0.6899    0.5866    1.1016 C   0  0  0  0  0  0  0  0  0  0  0  0
    0.8591   -0.4762    1.2989 H   0  0  0  0  0  0  0  0  0  0  0  0
    1.6756    1.0183    0.8945 H   0  0  0  0  0  0  0  0  0  0  0  0
    0.1193    1.2632    2.3257 C   0  0  0  0  0  0  0  0  0  0  0  0
    0.1095    2.6341    2.5921 N   0  3  0  0  0  0  0  0  0  0  0  0
    0.4874    3.3316    1.9450 H   0  0  0  0  0  0  0  0  0  0  0  0
   -0.4147    2.8643    3.7725 C   0  0  0  0  0  0  0  0  0  0  0  0
   -0.5460    3.8395    4.2455 H   0  0  0  0  0  0  0  0  0  0  0  0
   -0.7647    1.6302    4.3166 N   0  0  0  0  0  0  0  0  0  0  0  0
   -1.1907    1.4782    5.2360 H   0  0  0  0  0  0  0  0  0  0  0  0
   -0.4197    0.6305    3.4168 C   0  0  0  0  0  0  0  0  0  0  0  0
   -0.5465   -0.4477    3.5341 H   0  0  0  0  0  0  0  0  0  0  0  0
    0.5480    0.3453   -1.4115 C   0  0  0  0  0  0  0  0  0  0  0  0
    0.7618    1.1837   -2.2724 O   0  0  0  0  0  0  0  0  0  0  0  0
    1.0515   -0.9355   -1.5411 N   0  0  0  0  0  0  0  0  0  0  0  0
    0.7657   -1.6237   -0.8477 H   0  0  0  0  0  0  0  0  0  0  0  0
    1.7720   -1.3908   -2.7267 C   0  0  0  0  0  0  0  0  0  0  0  0
    2.6582   -0.7705   -2.9003 H   0  0  0  0  0  0  0  0  0  0  0  0
    2.0994   -2.4276   -2.5990 H   0  0  0  0  0  0  0  0  0  0  0  0
    1.1288   -1.3379   -3.6119 H   0  0  0  0  0  0  0  0  0  0  0  0
  1  2  1  0  0  0  0
  2  3  1  0  0  0  0
  2  4  1  0  0  0  0
  2  5  1  0  0  0  0
  5  6  2  0  0  0  0
  5  7  1  0  0  0  0
  7  8  1  0  0  0  0
  7  9  1  0  0  0  0
  9 10  1  0  0  0  0
  9 11  1  0  0  0  0
  9 23  1  0  0  0  0
 11 12  1  0  0  0  0
 11 13  1  0  0  0  0
 11 14  1  0  0  0  0
 14 15  1  0  0  0  0
 14 21  2  0  0  0  0
 15 16  1  0  0  0  0
 15 17  2  0  0  0  0
 17 18  1  0  0  0  0
 17 19  1  0  0  0  0
 19 20  1  0  0  0  0
 19 21  1  0  0  0  0
 21 22  1  0  0  0  0
 23 24  2  0  0  0  0
 23 25  1  0  0  0  0
 25 26  1  0  0  0  0
 25 27  1  0  0  0  0
 27 28  1  0  0  0  0
 27 29  1  0  0  0  0
 27 30  1  0  0  0  0
M  CHG  1  15   1
M  END
$$$$

  -OEChem-01062216083D

 30 30  0     1  0  0  0  0  0999 V2000
   -3.7634   -2.1675    1.0680 H   0  0  0  0  0  0  0  0  0  0  0  0
   -3.5358   -1.3247    0.4086 C   0  0  0  0  0  0  0  0  0  0  0  0
   -4.2169   -0.5027    0.6421 H   0  0  0  0  0  0  0  0  0  0  0  0
   -3.6961   -1.6378   -0.6263 H   0  0  0  0  0  0  0  0  0  0  0  0
   -2.0980   -0.8822    0.6004 C   0  0  0  0  0  0  0  0  0  0  0  0
   -1.3862   -1.4905    1.3813 O   0  0  0  0  0  0  0  0  0  0  0  0
   -1.6138    0.1741   -0.1510 N   0  0  0  0  0  0  0  0  0  0  0  0
   -2.2740    0.5407   -0.8358 H   0  0  0  0  0  0  0  0  0  0  0  0
   -0.2548    0.7707   -0.1710 C   0  0  1  0  0  0  0  0  0  0  0  0
   -0.4060    1.8504   -0.2736 H   0  0  0  0  0  0  0  0  0  0  0  0
    0.6645    0.5863    1.0584 C   0  0  0  0  0  0  0  0  0  0  0  0
    0.8421   -0.4777    1.2432 H   0  0  0  0  0  0  0  0  0  0  0  0
    1.6444    1.0249    0.8387 H   0  0  0  0  0  0  0  0  0  0  0  0
    0.1134    1.2511    2.2962 C   0  0  0  0  0  0  0  0  0  0  0  0
    0.1045    2.6202    2.5698 N   0  3  0  0  0  0  0  0  0  0  0  0
    0.4707    3.3215    1.9198 H   0  0  0  0  0  0  0  0  0  0  0  0
   -0.3937    2.8412    3.7629 C   0  0  0  0  0  0  0  0  0  0  0  0
   -0.5159    3.8132    4.2448 H   0  0  0  0  0  0  0  0  0  0  0  0
   -0.7279    1.6027    4.3072 N   0  0  0  0  0  0  0  0  0  0  0  0
   -1.1295    1.4435    5.2363 H   0  0  0  0  0  0  0  0  0  0  0  0
   -0.3978    0.6092    3.3948 C   0  0  0  0  0  0  0  0  0  0  0  0
   -0.5131   -0.4707    3.5094 H   0  0  0  0  0  0  0  0  0  0  0  0
    0.5092    0.3473   -1.4348 C   0  0  0  0  0  0  0  0  0  0  0  0
    0.9825    1.2153   -2.1506 O   0  0  0  0  0  0  0  0  0  0  0  0
    0.7558   -0.9875   -1.6932 N   0  0  0  0  0  0  0  0  0  0  0  0
    0.3387   -1.6738   -1.0674 H   0  0  0  0  0  0  0  0  0  0  0  0
    1.5199   -1.4520   -2.8473 C   0  0  0  0  0  0  0  0  0  0  0  0
    2.5412   -1.0569   -2.8173 H   0  0  0  0  0  0  0  0  0  0  0  0
    1.5744   -2.5453   -2.8534 H   0  0  0  0  0  0  0  0  0  0  0  0
    1.0459   -1.1256   -3.7794 H   0  0  0  0  0  0  0  0  0  0  0  0
  1  2  1  0  0  0  0
  2  3  1  0  0  0  0
  2  4  1  0  0  0  0
  2  5  1  0  0  0  0
  5  6  2  0  0  0  0
  5  7  1  0  0  0  0
  7  8  1  0  0  0  0
  7  9  1  0  0  0  0
  9 10  1  0  0  0  0
  9 11  1  0  0  0  0
  9 23  1  0  0  0  0
 11 12  1  0  0  0  0
 11 13  1  0  0  0  0
 11 14  1  0  0  0  0
 14 15  1  0  0  0  0
 14 21  2  0  0  0  0
 15 16  1  0  0  0  0
 15 17  2  0  0  0  0
 17 18  1  0  0  0  0
 17 19  1  0  0  0  0
 19 20  1  0  0  0  0
 19 21  1  0  0  0  0
 21 22  1  0  0  0  0
 23 24  2  0  0  0  0
 23 25  1  0  0  0  0
 25 26  1  0  0  0  0
 25 27  1  0  0  0  0
 27 28  1  0  0  0  0
 27 29  1  0  0  0  0
 27 30  1  0  0  0  0
M  CHG  1  15   1
M  END
$$$$

  -OEChem-01062216083D

 30 30  0     1  0  0  0  0  0999 V2000
   -3.7890   -2.1600    1.1062 H   0  0  0  0  0  0  0  0  0  0  0  0
   -3.5698   -1.3153    0.4465 C   0  0  0  0  0  0  0  0  0  0  0  0
   -4.2427   -0.4914    0.6973 H   0  0  0  0  0  0  0  0  0  0  0  0
   -3.7518   -1.6233   -0.5863 H   0  0  0  0  0  0  0  0  0  0  0  0
   -2.1260   -0.8806    0.6127 C   0  0  0  0  0  0  0  0  0  0  0  0
   -1.4047   -1.4938    1.3801 O   0  0  0  0  0  0  0  0  0  0  0  0
   -1.6490    0.1731   -0.1476 N   0  0  0  0  0  0  0  0  0  0  0  0
   -2.3227    0.5477   -0.8144 H   0  0  0  0  0  0  0  0  0  0  0  0
   -0.2899    0.7724   -0.1878 C   0  0  1  0  0  0  0  0  0  0  0  0
   -0.4426    1.8519   -0.2886 H   0  0  0  0  0  0  0  0  0  0  0  0
    0.6426    0.5831    1.0310 C   0  0  0  0  0  0  0  0  0  0  0  0
    0.8212   -0.4822    1.2076 H   0  0  0  0  0  0  0  0  0  0  0  0
    1.6213    1.0209    0.8030 H   0  0  0  0  0  0  0  0  0  0  0  0
    0.1080    1.2435    2.2786 C   0  0  0  0  0  0  0  0  0  0  0  0
    0.1056    2.6118    2.5558 N   0  3  0  0  0  0  0  0  0  0  0  0
    0.4664    3.3136    1.9033 H   0  0  0  0  0  0  0  0  0  0  0  0
   -0.3724    2.8307    3.7576 C   0  0  0  0  0  0  0  0  0  0  0  0
   -0.4827    3.8015    4.2445 H   0  0  0  0  0  0  0  0  0  0  0  0
   -0.7013    1.5913    4.3035 N   0  0  0  0  0  0  0  0  0  0  0  0
   -1.0871    1.4301    5.2388 H   0  0  0  0  0  0  0  0  0  0  0  0
   -0.3869    0.5996    3.3836 C   0  0  0  0  0  0  0  0  0  0  0  0
   -0.5005   -0.4804    3.4980 H   0  0  0  0  0  0  0  0  0  0  0  0
    0.4747    0.3560   -1.4545 C   0  0  0  0  0  0  0  0  0  0  0  0
    1.1580    1.1946   -2.0208 O   0  0  0  0  0  0  0  0  0  0  0  0
    0.4750   -0.9567   -1.8863 N   0  0  0  0  0  0  0  0  0  0  0  0
   -0.0419   -1.6342   -1.3299 H   0  0  0  0  0  0  0  0  0  0  0  0
    1.2607   -1.4250   -3.0245 C   0  0  0  0  0  0  0  0  0  0  0  0
    2.3315   -1.3047   -2.8281 H   0  0  0  0  0  0  0  0  0  0  0  0
    1.0612   -2.4842   -3.2158 H   0  0  0  0  0  0  0  0  0  0  0  0
    1.0053   -0.8591   -3.9270 H   0  0  0  0  0  0  0  0  0  0  0  0
  1  2  1  0  0  0  0
  2  3  1  0  0  0  0
  2  4  1  0  0  0  0
  2  5  1  0  0  0  0
  5  6  2  0  0  0  0
  5  7  1  0  0  0  0
  7  8  1  0  0  0  0
  7  9  1  0  0  0  0
  9 10  1  0  0  0  0
  9 11  1  0  0  0  0
  9 23  1  0  0  0  0
 11 12  1  0  0  0  0
 11 13  1  0  0  0  0
 11 14  1  0  0  0  0
 14 15  1  0  0  0  0
 14 21  2  0  0  0  0
 15 16  1  0  0  0  0
 15 17  2  0  0  0  0
 17 18  1  0  0  0  0
 17 19  1  0  0  0  0
 19 20  1  0  0  0  0
 19 21  1  0  0  0  0
 21 22  1  0  0  0  0
 23 24  2  0  0  0  0
 23 25  1  0  0  0  0
 25 26  1  0  0  0  0
 25 27  1  0  0  0  0
 27 28  1  0  0  0  0
 27 29  1  0  0  0  0
 27 30  1  0  0  0  0
M  CHG  1  15   1
M  END
$$$$

  -OEChem-01062216083D

 30 30  0     1  0  0  0  0  0999 V2000
   -3.8013   -2.1549    1.1276 H   0  0  0  0  0  0  0  0  0  0  0  0
   -3.5858   -1.3089    0.4685 C   0  0  0  0  0  0  0  0  0  0  0  0
   -4.2523   -0.4832    0.7292 H   0  0  0  0  0  0  0  0  0  0  0  0
   -3.7806   -1.6125   -0.5633 H   0  0  0  0  0  0  0  0  0  0  0  0
   -2.1389   -0.8802    0.6216 C   0  0  0  0  0  0  0  0  0  0  0  0
   -1.4162   -1.4934    1.3873 O   0  0  0  0  0  0  0  0  0  0  0  0
   -1.6672    0.1729   -0.1435 N   0  0  0  0  0  0  0  0  0  0  0  0
   -2.3512    0.5551   -0.7952 H   0  0  0  0  0  0  0  0  0  0  0  0
   -0.3087    0.7761   -0.1969 C   0  0  1  0  0  0  0  0  0  0  0  0
   -0.4633    1.8552   -0.2964 H   0  0  0  0  0  0  0  0  0  0  0  0
    0.6285    0.5841    1.0197 C   0  0  0  0  0  0  0  0  0  0  0  0
    0.8074   -0.4820    1.1914 H   0  0  0  0  0  0  0  0  0  0  0  0
    1.6075    1.0213    0.7913 H   0  0  0  0  0  0  0  0  0  0  0  0
    0.1021    1.2411    2.2725 C   0  0  0  0  0  0  0  0  0  0  0  0
    0.1035    2.6087    2.5533 N   0  3  0  0  0  0  0  0  0  0  0  0
    0.4629    3.3111    1.9008 H   0  0  0  0  0  0  0  0  0  0  0  0
   -0.3619    2.8249    3.7606 C   0  0  0  0  0  0  0  0  0  0  0  0
   -0.4644    3.7942    4.2523 H   0  0  0  0  0  0  0  0  0  0  0  0
   -0.6875    1.5846    4.3061 N   0  0  0  0  0  0  0  0  0  0  0  0
   -1.0615    1.4211    5.2459 H   0  0  0  0  0  0  0  0  0  0  0  0
   -0.3829    0.5950    3.3805 C   0  0  0  0  0  0  0  0  0  0  0  0
   -0.4953   -0.4853    3.4936 H   0  0  0  0  0  0  0  0  0  0  0  0
    0.4581    0.3666   -1.4666 C   0  0  0  0  0  0  0  0  0  0  0  0
    1.3051    1.1320   -1.9006 O   0  0  0  0  0  0  0  0  0  0  0  0
    0.2367   -0.8511   -2.0811 N   0  0  0  0  0  0  0  0  0  0  0  0
   -0.3911   -1.5007   -1.6138 H   0  0  0  0  0  0  0  0  0  0  0  0
    1.0048   -1.3159   -3.2326 C   0  0  0  0  0  0  0  0  0  0  0  0
    2.0606   -1.4367   -2.9675 H   0  0  0  0  0  0  0  0  0  0  0  0
    0.6228   -2.2806   -3.5812 H   0  0  0  0  0  0  0  0  0  0  0  0
    0.9314   -0.5996   -4.0583 H   0  0  0  0  0  0  0  0  0  0  0  0
  1  2  1  0  0  0  0
  2  3  1  0  0  0  0
  2  4  1  0  0  0  0
  2  5  1  0  0  0  0
  5  6  2  0  0  0  0
  5  7  1  0  0  0  0
  7  8  1  0  0  0  0
  7  9  1  0  0  0  0
  9 10  1  0  0  0  0
  9 11  1  0  0  0  0
  9 23  1  0  0  0  0
 11 12  1  0  0  0  0
 11 13  1  0  0  0  0
 11 14  1  0  0  0  0
 14 15  1  0  0  0  0
 14 21  2  0  0  0  0
 15 16  1  0  0  0  0
 15 17  2  0  0  0  0
 17 18  1  0  0  0  0
 17 19  1  0  0  0  0
 19 20  1  0  0  0  0
 19 21  1  0  0  0  0
 21 22  1  0  0  0  0
 23 24  2  0  0  0  0
 23 25  1  0  0  0  0
 25 26  1  0  0  0  0
 25 27  1  0  0  0  0
 27 28  1  0  0  0  0
 27 29  1  0  0  0  0
 27 30  1  0  0  0  0
M  CHG  1  15   1
M  END
$$$$

  -OEChem-01062216083D

 30 30  0     1  0  0  0  0  0999 V2000
   -3.7975   -2.1586    1.1432 H   0  0  0  0  0  0  0  0  0  0  0  0
   -3.5868   -1.3112    0.4840 C   0  0  0  0  0  0  0  0  0  0  0  0
   -4.2528   -0.4869    0.7499 H   0  0  0  0  0  0  0  0  0  0  0  0
   -3.7870   -1.6141   -0.5468 H   0  0  0  0  0  0  0  0  0  0  0  0
   -2.1393   -0.8814    0.6296 C   0  0  0  0  0  0  0  0  0  0  0  0
   -1.4161   -1.4927    1.3956 O   0  0  0  0  0  0  0  0  0  0  0  0
   -1.6730    0.1741   -0.1368 N   0  0  0  0  0  0  0  0  0  0  0  0
   -2.3669    0.5675   -0.7710 H   0  0  0  0  0  0  0  0  0  0  0  0
   -0.3147    0.7802   -0.2007 C   0  0  1  0  0  0  0  0  0  0  0  0
   -0.4700    1.8593   -0.2975 H   0  0  0  0  0  0  0  0  0  0  0  0
    0.6233    0.5847    1.0179 C   0  0  0  0  0  0  0  0  0  0  0  0
    0.8018   -0.4819    1.1864 H   0  0  0  0  0  0  0  0  0  0  0  0
    1.6039    1.0208    0.7955 H   0  0  0  0  0  0  0  0  0  0  0  0
    0.0995    1.2401    2.2726 C   0  0  0  0  0  0  0  0  0  0  0  0
    0.1049    2.6072    2.5549 N   0  3  0  0  0  0  0  0  0  0  0  0
    0.4723    3.3084    1.9059 H   0  0  0  0  0  0  0  0  0  0  0  0
   -0.3576    2.8230    3.7633 C   0  0  0  0  0  0  0  0  0  0  0  0
   -0.4534    3.7917    4.2577 H   0  0  0  0  0  0  0  0  0  0  0  0
   -0.6873    1.5830    4.3070 N   0  0  0  0  0  0  0  0  0  0  0  0
   -1.0591    1.4191    5.2475 H   0  0  0  0  0  0  0  0  0  0  0  0
   -0.3859    0.5939    3.3803 C   0  0  0  0  0  0  0  0  0  0  0  0
   -0.5000   -0.4863    3.4924 H   0  0  0  0  0  0  0  0  0  0  0  0
    0.4496    0.3783   -1.4776 C   0  0  0  0  0  0  0  0  0  0  0  0
    1.4279    1.0365   -1.7972 O   0  0  0  0  0  0  0  0  0  0  0  0
    0.0368   -0.6764   -2.2700 N   0  0  0  0  0  0  0  0  0  0  0  0
   -0.7019   -1.2692   -1.9016 H   0  0  0  0  0  0  0  0  0  0  0  0
    0.7753   -1.1240   -3.4479 C   0  0  0  0  0  0  0  0  0  0  0  0
    1.7644   -1.4975   -3.1617 H   0  0  0  0  0  0  0  0  0  0  0  0
    0.2337   -1.9294   -3.9542 H   0  0  0  0  0  0  0  0  0  0  0  0
    0.9051   -0.2997   -4.1579 H   0  0  0  0  0  0  0  0  0  0  0  0
  1  2  1  0  0  0  0
  2  3  1  0  0  0  0
  2  4  1  0  0  0  0
  2  5  1  0  0  0  0
  5  6  2  0  0  0  0
  5  7  1  0  0  0  0
  7  8  1  0  0  0  0
  7  9  1  0  0  0  0
  9 10  1  0  0  0  0
  9 11  1  0  0  0  0
  9 23  1  0  0  0  0
 11 12  1  0  0  0  0
 11 13  1  0  0  0  0
 11 14  1  0  0  0  0
 14 15  1  0  0  0  0
 14 21  2  0  0  0  0
 15 16  1  0  0  0  0
 15 17  2  0  0  0  0
 17 18  1  0  0  0  0
 17 19  1  0  0  0  0
 19 20  1  0  0  0  0
 19 21  1  0  0  0  0
 21 22  1  0  0  0  0
 23 24  2  0  0  0  0
 23 25  1  0  0  0  0
 25 26  1  0  0  0  0
 25 27  1  0  0  0  0
 27 28  1  0  0  0  0
 27 29  1  0  0  0  0
 27 30  1  0  0  0  0
M  CHG  1  15   1
M  END
$$$$

  -OEChem-01062216083D

 30 30  0     1  0  0  0  0  0999 V2000
   -3.7891   -2.1515    1.1412 H   0  0  0  0  0  0  0  0  0  0  0  0
   -3.5763   -1.3051    0.4815 C   0  0  0  0  0  0  0  0  0  0  0  0
   -4.2390   -0.4786    0.7482 H   0  0  0  0  0  0  0  0  0  0  0  0
   -3.7793   -1.6076   -0.5488 H   0  0  0  0  0  0  0  0  0  0  0  0
   -2.1270   -0.8806    0.6246 C   0  0  0  0  0  0  0  0  0  0  0  0
   -1.4060   -1.4940    1.3908 O   0  0  0  0  0  0  0  0  0  0  0  0
   -1.6620    0.1769   -0.1406 N   0  0  0  0  0  0  0  0  0  0  0  0
   -2.3642    0.5869   -0.7545 H   0  0  0  0  0  0  0  0  0  0  0  0
   -0.3051    0.7881   -0.2044 C   0  0  1  0  0  0  0  0  0  0  0  0
   -0.4598    1.8669   -0.3016 H   0  0  0  0  0  0  0  0  0  0  0  0
    0.6252    0.5909    1.0225 C   0  0  0  0  0  0  0  0  0  0  0  0
    0.8054   -0.4759    1.1874 H   0  0  0  0  0  0  0  0  0  0  0  0
    1.6069    1.0297    0.8121 H   0  0  0  0  0  0  0  0  0  0  0  0
    0.0955    1.2424    2.2773 C   0  0  0  0  0  0  0  0  0  0  0  0
    0.0984    2.6080    2.5666 N   0  3  0  0  0  0  0  0  0  0  0  0
    0.4678    3.3126    1.9225 H   0  0  0  0  0  0  0  0  0  0  0  0
   -0.3655    2.8173    3.7758 C   0  0  0  0  0  0  0  0  0  0  0  0
   -0.4637    3.7835    4.2747 H   0  0  0  0  0  0  0  0  0  0  0  0
   -0.6930    1.5743    4.3137 N   0  0  0  0  0  0  0  0  0  0  0  0
   -1.0638    1.4054    5.2538 H   0  0  0  0  0  0  0  0  0  0  0  0
   -0.3893    0.5904    3.3821 C   0  0  0  0  0  0  0  0  0  0  0  0
   -0.4991   -0.4908    3.4897 H   0  0  0  0  0  0  0  0  0  0  0  0
    0.4562    0.3841   -1.4866 C   0  0  0  0  0  0  0  0  0  0  0  0
    1.5406    0.9005   -1.7120 O   0  0  0  0  0  0  0  0  0  0  0  0
   -0.1090   -0.4545   -2.4300 N   0  0  0  0  0  0  0  0  0  0  0  0
   -0.9486   -0.9558   -2.1554 H   0  0  0  0  0  0  0  0  0  0  0  0
    0.5871   -0.8700   -3.6452 C   0  0  0  0  0  0  0  0  0  0  0  0
    1.5020   -1.4186   -3.3964 H   0  0  0  0  0  0  0  0  0  0  0  0
   -0.0534   -1.5217   -4.2482 H   0  0  0  0  0  0  0  0  0  0  0  0
    0.8561    0.0016   -4.2519 H   0  0  0  0  0  0  0  0  0  0  0  0
  1  2  1  0  0  0  0
  2  3  1  0  0  0  0
  2  4  1  0  0  0  0
  2  5  1  0  0  0  0
  5  6  2  0  0  0  0
  5  7  1  0  0  0  0
  7  8  1  0  0  0  0
  7  9  1  0  0  0  0
  9 10  1  0  0  0  0
  9 11  1  0  0  0  0
  9 23  1  0  0  0  0
 11 12  1  0  0  0  0
 11 13  1  0  0  0  0
 11 14  1  0  0  0  0
 14 15  1  0  0  0  0
 14 21  2  0  0  0  0
 15 16  1  0  0  0  0
 15 17  2  0  0  0  0
 17 18  1  0  0  0  0
 17 19  1  0  0  0  0
 19 20  1  0  0  0  0
 19 21  1  0  0  0  0
 21 22  1  0  0  0  0
 23 24  2  0  0  0  0
 23 25  1  0  0  0  0
 25 26  1  0  0  0  0
 25 27  1  0  0  0  0
 27 28  1  0  0  0  0
 27 29  1  0  0  0  0
 27 30  1  0  0  0  0
M  CHG  1  15   1
M  END
$$$$

  -OEChem-01062216083D

 30 30  0     1  0  0  0  0  0999 V2000
   -3.7696   -2.1611    1.1267 H   0  0  0  0  0  0  0  0  0  0  0  0
   -3.5591   -1.3123    0.4695 C   0  0  0  0  0  0  0  0  0  0  0  0
   -4.2267   -0.4893    0.7359 H   0  0  0  0  0  0  0  0  0  0  0  0
   -3.7569   -1.6149   -0.5618 H   0  0  0  0  0  0  0  0  0  0  0  0
   -2.1120   -0.8817    0.6168 C   0  0  0  0  0  0  0  0  0  0  0  0
   -1.3933   -1.4914    1.3880 O   0  0  0  0  0  0  0  0  0  0  0  0
   -1.6518    0.1814   -0.1445 N   0  0  0  0  0  0  0  0  0  0  0  0
   -2.3617    0.6009   -0.7420 H   0  0  0  0  0  0  0  0  0  0  0  0
   -0.2968    0.7977   -0.2071 C   0  0  1  0  0  0  0  0  0  0  0  0
   -0.4529    1.8761   -0.3024 H   0  0  0  0  0  0  0  0  0  0  0  0
    0.6282    0.6004    1.0265 C   0  0  0  0  0  0  0  0  0  0  0  0
    0.8112   -0.4662    1.1889 H   0  0  0  0  0  0  0  0  0  0  0  0
    1.6101    1.0430    0.8263 H   0  0  0  0  0  0  0  0  0  0  0  0
    0.0935    1.2482    2.2809 C   0  0  0  0  0  0  0  0  0  0  0  0
    0.0928    2.6126    2.5759 N   0  3  0  0  0  0  0  0  0  0  0  0
    0.4675    3.3201    1.9381 H   0  0  0  0  0  0  0  0  0  0  0  0
   -0.3711    2.8153    3.7862 C   0  0  0  0  0  0  0  0  0  0  0  0
   -0.4677    3.7785    4.2910 H   0  0  0  0  0  0  0  0  0  0  0  0
   -0.6988    1.5693    4.3173 N   0  0  0  0  0  0  0  0  0  0  0  0
   -1.0694    1.3945    5.2564 H   0  0  0  0  0  0  0  0  0  0  0  0
   -0.3904    0.5902    3.3824 C   0  0  0  0  0  0  0  0  0  0  0  0
   -0.4948   -0.4920    3.4857 H   0  0  0  0  0  0  0  0  0  0  0  0
    0.4578    0.3957   -1.4972 C   0  0  0  0  0  0  0  0  0  0  0  0
    1.6288    0.7197   -1.6307 O   0  0  0  0  0  0  0  0  0  0  0  0
   -0.2051   -0.1774   -2.5680 N   0  0  0  0  0  0  0  0  0  0  0  0
   -1.1357   -0.5424   -2.3914 H   0  0  0  0  0  0  0  0  0  0  0  0
    0.4706   -0.5657   -3.8036 C   0  0  0  0  0  0  0  0  0  0  0  0
    1.2173   -1.3425   -3.6056 H   0  0  0  0  0  0  0  0  0  0  0  0
   -0.2520   -0.9566   -4.5268 H   0  0  0  0  0  0  0  0  0  0  0  0
    0.9740    0.2964   -4.2552 H   0  0  0  0  0  0  0  0  0  0  0  0
  1  2  1  0  0  0  0
  2  3  1  0  0  0  0
  2  4  1  0  0  0  0
  2  5  1  0  0  0  0
  5  6  2  0  0  0  0
  5  7  1  0  0  0  0
  7  8  1  0  0  0  0
  7  9  1  0  0  0  0
  9 10  1  0  0  0  0
  9 11  1  0  0  0  0
  9 23  1  0  0  0  0
 11 12  1  0  0  0  0
 11 13  1  0  0  0  0
 11 14  1  0  0  0  0
 14 15  1  0  0  0  0
 14 21  2  0  0  0  0
 15 16  1  0  0  0  0
 15 17  2  0  0  0  0
 17 18  1  0  0  0  0
 17 19  1  0  0  0  0
 19 20  1  0  0  0  0
 19 21  1  0  0  0  0
 21 22  1  0  0  0  0
 23 24  2  0  0  0  0
 23 25  1  0  0  0  0
 25 26  1  0  0  0  0
 25 27  1  0  0  0  0
 27 28  1  0  0  0  0
 27 29  1  0  0  0  0
 27 30  1  0  0  0  0
M  CHG  1  15   1
M  END
$$$$

  -OEChem-01062216083D

 30 30  0     1  0  0  0  0  0999 V2000
   -3.7522   -2.1618    1.1095 H   0  0  0  0  0  0  0  0  0  0  0  0
   -3.5396   -1.3148    0.4504 C   0  0  0  0  0  0  0  0  0  0  0  0
   -4.2107   -0.4925    0.7094 H   0  0  0  0  0  0  0  0  0  0  0  0
   -3.7300   -1.6218   -0.5809 H   0  0  0  0  0  0  0  0  0  0  0  0
   -2.0945   -0.8800    0.6049 C   0  0  0  0  0  0  0  0  0  0  0  0
   -1.3804   -1.4850    1.3840 O   0  0  0  0  0  0  0  0  0  0  0  0
   -1.6358    0.1875   -0.1515 N   0  0  0  0  0  0  0  0  0  0  0  0
   -2.3492    0.6108   -0.7408 H   0  0  0  0  0  0  0  0  0  0  0  0
   -0.2821    0.8072   -0.2078 C   0  0  1  0  0  0  0  0  0  0  0  0
   -0.4379    1.8857   -0.3024 H   0  0  0  0  0  0  0  0  0  0  0  0
    0.6363    0.6100    1.0323 C   0  0  0  0  0  0  0  0  0  0  0  0
    0.8241   -0.4564    1.1922 H   0  0  0  0  0  0  0  0  0  0  0  0
    1.6169    1.0585    0.8394 H   0  0  0  0  0  0  0  0  0  0  0  0
    0.0948    1.2539    2.2862 C   0  0  0  0  0  0  0  0  0  0  0  0
    0.0879    2.6166    2.5893 N   0  3  0  0  0  0  0  0  0  0  0  0
    0.4619    3.3295    1.9578 H   0  0  0  0  0  0  0  0  0  0  0  0
   -0.3831    2.8108    3.7983 C   0  0  0  0  0  0  0  0  0  0  0  0
   -0.4877    3.7706    4.3079 H   0  0  0  0  0  0  0  0  0  0  0  0
   -0.7074    1.5607    4.3212 N   0  0  0  0  0  0  0  0  0  0  0  0
   -1.0818    1.3789    5.2572 H   0  0  0  0  0  0  0  0  0  0  0  0
   -0.3904    0.5885    3.3826 C   0  0  0  0  0  0  0  0  0  0  0  0
   -0.4898   -0.4947    3.4804 H   0  0  0  0  0  0  0  0  0  0  0  0
    0.4654    0.4026   -1.5040 C   0  0  0  0  0  0  0  0  0  0  0  0
    1.6843    0.4776   -1.5562 O   0  0  0  0  0  0  0  0  0  0  0  0
   -0.2297    0.1240   -2.6681 N   0  0  0  0  0  0  0  0  0  0  0  0
   -1.2286   -0.0339   -2.5885 H   0  0  0  0  0  0  0  0  0  0  0  0
    0.4313   -0.2352   -3.9210 C   0  0  0  0  0  0  0  0  0  0  0  0
    1.0192   -1.1513   -3.7973 H   0  0  0  0  0  0  0  0  0  0  0  0
   -0.3097   -0.4041   -4.7087 H   0  0  0  0  0  0  0  0  0  0  0  0
    1.1002    0.5685   -4.2480 H   0  0  0  0  0  0  0  0  0  0  0  0
  1  2  1  0  0  0  0
  2  3  1  0  0  0  0
  2  4  1  0  0  0  0
  2  5  1  0  0  0  0
  5  6  2  0  0  0  0
  5  7  1  0  0  0  0
  7  8  1  0  0  0  0
  7  9  1  0  0  0  0
  9 10  1  0  0  0  0
  9 11  1  0  0  0  0
  9 23  1  0  0  0  0
 11 12  1  0  0  0  0
 11 13  1  0  0  0  0
 11 14  1  0  0  0  0
 14 15  1  0  0  0  0
 14 21  2  0  0  0  0
 15 16  1  0  0  0  0
 15 17  2  0  0  0  0
 17 18  1  0  0  0  0
 17 19  1  0  0  0  0
 19 20  1  0  0  0  0
 19 21  1  0  0  0  0
 21 22  1  0  0  0  0
 23 24  2  0  0  0  0
 23 25  1  0  0  0  0
 25 26  1  0  0  0  0
 25 27  1  0  0  0  0
 27 28  1  0  0  0  0
 27 29  1  0  0  0  0
 27 30  1  0  0  0  0
M  CHG  1  15   1
M  END
$$$$

  -OEChem-01062216083D

 30 30  0     1  0  0  0  0  0999 V2000
   -3.7316   -2.1952    1.0436 H   0  0  0  0  0  0  0  0  0  0  0  0
   -3.5160   -1.3468    0.3873 C   0  0  0  0  0  0  0  0  0  0  0  0
   -4.2196   -0.5419    0.6130 H   0  0  0  0  0  0  0  0  0  0  0  0
   -3.6557   -1.6653   -0.6488 H   0  0  0  0  0  0  0  0  0  0  0  0
   -2.0906   -0.8717    0.5966 C   0  0  0  0  0  0  0  0  0  0  0  0
   -1.3942   -1.4509    1.4107 O   0  0  0  0  0  0  0  0  0  0  0  0
   -1.6314    0.2014   -0.1518 N   0  0  0  0  0  0  0  0  0  0  0  0
   -2.3267    0.5806   -0.7894 H   0  0  0  0  0  0  0  0  0  0  0  0
   -0.2778    0.8205   -0.1989 C   0  0  1  0  0  0  0  0  0  0  0  0
   -0.4322    1.8993   -0.2883 H   0  0  0  0  0  0  0  0  0  0  0  0
    0.6390    0.6249    1.0424 C   0  0  0  0  0  0  0  0  0  0  0  0
    0.8259   -0.4421    1.2012 H   0  0  0  0  0  0  0  0  0  0  0  0
    1.6193    1.0723    0.8443 H   0  0  0  0  0  0  0  0  0  0  0  0
    0.0996    1.2665    2.2996 C   0  0  0  0  0  0  0  0  0  0  0  0
    0.0920    2.6286    2.6070 N   0  3  0  0  0  0  0  0  0  0  0  0
    0.4641    3.3436    1.9770 H   0  0  0  0  0  0  0  0  0  0  0  0
   -0.3731    2.8191    3.8189 C   0  0  0  0  0  0  0  0  0  0  0  0
   -0.4755    3.7772    4.3316 H   0  0  0  0  0  0  0  0  0  0  0  0
   -0.6933    1.5675    4.3402 N   0  0  0  0  0  0  0  0  0  0  0  0
   -1.0632    1.3827    5.2775 H   0  0  0  0  0  0  0  0  0  0  0  0
   -0.3800    0.5985    3.3970 C   0  0  0  0  0  0  0  0  0  0  0  0
   -0.4795   -0.4849    3.4917 H   0  0  0  0  0  0  0  0  0  0  0  0
    0.4615    0.4159   -1.5003 C   0  0  0  0  0  0  0  0  0  0  0  0
    1.6611    0.1812   -1.4871 O   0  0  0  0  0  0  0  0  0  0  0  0
   -0.1901    0.4462   -2.7218 N   0  0  0  0  0  0  0  0  0  0  0  0
   -1.1920    0.6028   -2.7250 H   0  0  0  0  0  0  0  0  0  0  0  0
    0.4623    0.0906   -3.9803 C   0  0  0  0  0  0  0  0  0  0  0  0
    0.8315   -0.9402   -3.9439 H   0  0  0  0  0  0  0  0  0  0  0  0
   -0.2426    0.1747   -4.8133 H   0  0  0  0  0  0  0  0  0  0  0  0
    1.3084    0.7579   -4.1773 H   0  0  0  0  0  0  0  0  0  0  0  0
  1  2  1  0  0  0  0
  2  3  1  0  0  0  0
  2  4  1  0  0  0  0
  2  5  1  0  0  0  0
  5  6  2  0  0  0  0
  5  7  1  0  0  0  0
  7  8  1  0  0  0  0
  7  9  1  0  0  0  0
  9 10  1  0  0  0  0
  9 11  1  0  0  0  0
  9 23  1  0  0  0  0
 11 12  1  0  0  0  0
 11 13  1  0  0  0  0
 11 14  1  0  0  0  0
 14 15  1  0  0  0  0
 14 21  2  0  0  0  0
 15 16  1  0  0  0  0
 15 17  2  0  0  0  0
 17 18  1  0  0  0  0
 17 19  1  0  0  0  0
 19 20  1  0  0  0  0
 19 21  1  0  0  0  0
 21 22  1  0  0  0  0
 23 24  2  0  0  0  0
 23 25  1  0  0  0  0
 25 26  1  0  0  0  0
 25 27  1  0  0  0  0
 27 28  1  0  0  0  0
 27 29  1  0  0  0  0
 27 30  1  0  0  0  0
M  CHG  1  15   1
M  END
$$$$

  -OEChem-01062216083D

 30 30  0     1  0  0  0  0  0999 V2000
   -3.7248   -2.2229    0.9775 H   0  0  0  0  0  0  0  0  0  0  0  0
   -3.5024   -1.3789    0.3179 C   0  0  0  0  0  0  0  0  0  0  0  0
   -4.2430   -0.5945    0.4911 H   0  0  0  0  0  0  0  0  0  0  0  0
   -3.5757   -1.7194   -0.7180 H   0  0  0  0  0  0  0  0  0  0  0  0
   -2.1067   -0.8518    0.5936 C   0  0  0  0  0  0  0  0  0  0  0  0
   -1.4413   -1.3870    1.4620 O   0  0  0  0  0  0  0  0  0  0  0  0
   -1.6424    0.2194   -0.1545 N   0  0  0  0  0  0  0  0  0  0  0  0
   -2.2960    0.5213   -0.8727 H   0  0  0  0  0  0  0  0  0  0  0  0
   -0.2883    0.8354   -0.1918 C   0  0  1  0  0  0  0  0  0  0  0  0
   -0.4398    1.9146   -0.2815 H   0  0  0  0  0  0  0  0  0  0  0  0
    0.6325    0.6425    1.0460 C   0  0  0  0  0  0  0  0  0  0  0  0
    0.8131   -0.4263    1.2059 H   0  0  0  0  0  0  0  0  0  0  0  0
    1.6134    1.0830    0.8354 H   0  0  0  0  0  0  0  0  0  0  0  0
    0.1032    1.2817    2.3098 C   0  0  0  0  0  0  0  0  0  0  0  0
    0.0960    2.6428    2.6228 N   0  3  0  0  0  0  0  0  0  0  0  0
    0.4485    3.3625    1.9873 H   0  0  0  0  0  0  0  0  0  0  0  0
   -0.3524    2.8282    3.8419 C   0  0  0  0  0  0  0  0  0  0  0  0
   -0.4557    3.7846    4.3582 H   0  0  0  0  0  0  0  0  0  0  0  0
   -0.6559    1.5738    4.3657 N   0  0  0  0  0  0  0  0  0  0  0  0
   -1.0094    1.3839    5.3083 H   0  0  0  0  0  0  0  0  0  0  0  0
   -0.3523    0.6095    3.4152 C   0  0  0  0  0  0  0  0  0  0  0  0
   -0.4427   -0.4747    3.5102 H   0  0  0  0  0  0  0  0  0  0  0  0
    0.4485    0.4200   -1.4892 C   0  0  0  0  0  0  0  0  0  0  0  0
    1.5494   -0.1087   -1.4421 O   0  0  0  0  0  0  0  0  0  0  0  0
   -0.0829    0.7360   -2.7283 N   0  0  0  0  0  0  0  0  0  0  0  0
   -0.9861    1.1971   -2.7646 H   0  0  0  0  0  0  0  0  0  0  0  0
    0.5816    0.4021   -3.9867 C   0  0  0  0  0  0  0  0  0  0  0  0
    0.7121   -0.6819   -4.0760 H   0  0  0  0  0  0  0  0  0  0  0  0
   -0.0133    0.7484   -4.8376 H   0  0  0  0  0  0  0  0  0  0  0  0
    1.5671    0.8777   -4.0404 H   0  0  0  0  0  0  0  0  0  0  0  0
  1  2  1  0  0  0  0
  2  3  1  0  0  0  0
  2  4  1  0  0  0  0
  2  5  1  0  0  0  0
  5  6  2  0  0  0  0
  5  7  1  0  0  0  0
  7  8  1  0  0  0  0
  7  9  1  0  0  0  0
  9 10  1  0  0  0  0
  9 11  1  0  0  0  0
  9 23  1  0  0  0  0
 11 12  1  0  0  0  0
 11 13  1  0  0  0  0
 11 14  1  0  0  0  0
 14 15  1  0  0  0  0
 14 21  2  0  0  0  0
 15 16  1  0  0  0  0
 15 17  2  0  0  0  0
 17 18  1  0  0  0  0
 17 19  1  0  0  0  0
 19 20  1  0  0  0  0
 19 21  1  0  0  0  0
 21 22  1  0  0  0  0
 23 24  2  0  0  0  0
 23 25  1  0  0  0  0
 25 26  1  0  0  0  0
 25 27  1  0  0  0  0
 27 28  1  0  0  0  0
 27 29  1  0  0  0  0
 27 30  1  0  0  0  0
M  CHG  1  15   1
M  END
$$$$

  -OEChem-01062216083D

 30 30  0     1  0  0  0  0  0999 V2000
   -3.7128   -2.2301    0.9314 H   0  0  0  0  0  0  0  0  0  0  0  0
   -3.4824   -1.3926    0.2665 C   0  0  0  0  0  0  0  0  0  0  0  0
   -4.2448   -0.6213    0.3979 H   0  0  0  0  0  0  0  0  0  0  0  0
   -3.5090   -1.7510   -0.7656 H   0  0  0  0  0  0  0  0  0  0  0  0
   -2.1093   -0.8319    0.5858 C   0  0  0  0  0  0  0  0  0  0  0  0
   -1.4647   -1.3440    1.4832 O   0  0  0  0  0  0  0  0  0  0  0  0
   -1.6420    0.2411   -0.1576 N   0  0  0  0  0  0  0  0  0  0  0  0
   -2.2664    0.5014   -0.9176 H   0  0  0  0  0  0  0  0  0  0  0  0
   -0.2881    0.8557   -0.1848 C   0  0  1  0  0  0  0  0  0  0  0  0
   -0.4385    1.9355   -0.2669 H   0  0  0  0  0  0  0  0  0  0  0  0
    0.6368    0.6576    1.0482 C   0  0  0  0  0  0  0  0  0  0  0  0
    0.8108   -0.4130    1.2036 H   0  0  0  0  0  0  0  0  0  0  0  0
    1.6190    1.0920    0.8313 H   0  0  0  0  0  0  0  0  0  0  0  0
    0.1126    1.2886    2.3195 C   0  0  0  0  0  0  0  0  0  0  0  0
    0.1061    2.6484    2.6395 N   0  3  0  0  0  0  0  0  0  0  0  0
    0.4566    3.3712    2.0068 H   0  0  0  0  0  0  0  0  0  0  0  0
   -0.3429    2.8290    3.8593 C   0  0  0  0  0  0  0  0  0  0  0  0
   -0.4482    3.7830    4.3792 H   0  0  0  0  0  0  0  0  0  0  0  0
   -0.6458    1.5727    4.3777 N   0  0  0  0  0  0  0  0  0  0  0  0
   -1.0049    1.3793    5.3174 H   0  0  0  0  0  0  0  0  0  0  0  0
   -0.3410    0.6124    3.4236 C   0  0  0  0  0  0  0  0  0  0  0  0
   -0.4336   -0.4719    3.5146 H   0  0  0  0  0  0  0  0  0  0  0  0
    0.4465    0.4381   -1.4797 C   0  0  0  0  0  0  0  0  0  0  0  0
    1.3935   -0.3325   -1.4384 O   0  0  0  0  0  0  0  0  0  0  0  0
    0.0991    1.0081   -2.6927 N   0  0  0  0  0  0  0  0  0  0  0  0
   -0.6822    1.6560   -2.7184 H   0  0  0  0  0  0  0  0  0  0  0  0
    0.7652    0.6697   -3.9486 C   0  0  0  0  0  0  0  0  0  0  0  0
    0.6787   -0.4033   -4.1532 H   0  0  0  0  0  0  0  0  0  0  0  0
    0.3109    1.2159   -4.7814 H   0  0  0  0  0  0  0  0  0  0  0  0
    1.8278    0.9321   -3.9036 H   0  0  0  0  0  0  0  0  0  0  0  0
  1  2  1  0  0  0  0
  2  3  1  0  0  0  0
  2  4  1  0  0  0  0
  2  5  1  0  0  0  0
  5  6  2  0  0  0  0
  5  7  1  0  0  0  0
  7  8  1  0  0  0  0
  7  9  1  0  0  0  0
  9 10  1  0  0  0  0
  9 11  1  0  0  0  0
  9 23  1  0  0  0  0
 11 12  1  0  0  0  0
 11 13  1  0  0  0  0
 11 14  1  0  0  0  0
 14 15  1  0  0  0  0
 14 21  2  0  0  0  0
 15 16  1  0  0  0  0
 15 17  2  0  0  0  0
 17 18  1  0  0  0  0
 17 19  1  0  0  0  0
 19 20  1  0  0  0  0
 19 21  1  0  0  0  0
 21 22  1  0  0  0  0
 23 24  2  0  0  0  0
 23 25  1  0  0  0  0
 25 26  1  0  0  0  0
 25 27  1  0  0  0  0
 27 28  1  0  0  0  0
 27 29  1  0  0  0  0
 27 30  1  0  0  0  0
M  CHG  1  15   1
M  END
$$$$

  -OEChem-01062216083D

 30 30  0     1  0  0  0  0  0999 V2000
   -3.7038   -2.2306    0.9156 H   0  0  0  0  0  0  0  0  0  0  0  0
   -3.4729   -1.3971    0.2456 C   0  0  0  0  0  0  0  0  0  0  0  0
   -4.2454   -0.6329    0.3579 H   0  0  0  0  0  0  0  0  0  0  0  0
   -3.4801   -1.7661   -0.7830 H   0  0  0  0  0  0  0  0  0  0  0  0
   -2.1110   -0.8185    0.5793 C   0  0  0  0  0  0  0  0  0  0  0  0
   -1.4749   -1.3146    1.4918 O   0  0  0  0  0  0  0  0  0  0  0  0
   -1.6468    0.2547   -0.1653 N   0  0  0  0  0  0  0  0  0  0  0  0
   -2.2595    0.4947   -0.9417 H   0  0  0  0  0  0  0  0  0  0  0  0
   -0.2975    0.8773   -0.1864 C   0  0  1  0  0  0  0  0  0  0  0  0
   -0.4563    1.9561   -0.2644 H   0  0  0  0  0  0  0  0  0  0  0  0
    0.6332    0.6805    1.0410 C   0  0  0  0  0  0  0  0  0  0  0  0
    0.8116   -0.3903    1.1911 H   0  0  0  0  0  0  0  0  0  0  0  0
    1.6119    1.1193    0.8194 H   0  0  0  0  0  0  0  0  0  0  0  0
    0.1121    1.2992    2.3202 C   0  0  0  0  0  0  0  0  0  0  0  0
    0.0956    2.6562    2.6524 N   0  3  0  0  0  0  0  0  0  0  0  0
    0.4284    3.3889    2.0216 H   0  0  0  0  0  0  0  0  0  0  0  0
   -0.3440    2.8219    3.8779 C   0  0  0  0  0  0  0  0  0  0  0  0
   -0.4552    3.7706    4.4065 H   0  0  0  0  0  0  0  0  0  0  0  0
   -0.6273    1.5582    4.3893 N   0  0  0  0  0  0  0  0  0  0  0  0
   -0.9762    1.3527    5.3303 H   0  0  0  0  0  0  0  0  0  0  0  0
   -0.3217    0.6097    3.4243 C   0  0  0  0  0  0  0  0  0  0  0  0
   -0.4013   -0.4764    3.5081 H   0  0  0  0  0  0  0  0  0  0  0  0
    0.4480    0.4606   -1.4739 C   0  0  0  0  0  0  0  0  0  0  0  0
    1.2025   -0.4996   -1.4650 O   0  0  0  0  0  0  0  0  0  0  0  0
    0.3400    1.2193   -2.6267 N   0  0  0  0  0  0  0  0  0  0  0  0
   -0.3092    2.0005   -2.6342 H   0  0  0  0  0  0  0  0  0  0  0  0
    1.0317    0.8761   -3.8678 C   0  0  0  0  0  0  0  0  0  0  0  0
    0.7035   -0.1032   -4.2329 H   0  0  0  0  0  0  0  0  0  0  0  0
    0.8201    1.6209   -4.6415 H   0  0  0  0  0  0  0  0  0  0  0  0
    2.1155    0.8438   -3.7095 H   0  0  0  0  0  0  0  0  0  0  0  0
  1  2  1  0  0  0  0
  2  3  1  0  0  0  0
  2  4  1  0  0  0  0
  2  5  1  0  0  0  0
  5  6  2  0  0  0  0
  5  7  1  0  0  0  0
  7  8  1  0  0  0  0
  7  9  1  0  0  0  0
  9 10  1  0  0  0  0
  9 11  1  0  0  0  0
  9 23  1  0  0  0  0
 11 12  1  0  0  0  0
 11 13  1  0  0  0  0
 11 14  1  0  0  0  0
 14 15  1  0  0  0  0
 14 21  2  0  0  0  0
 15 16  1  0  0  0  0
 15 17  2  0  0  0  0
 17 18  1  0  0  0  0
 17 19  1  0  0  0  0
 19 20  1  0  0  0  0
 19 21  1  0  0  0  0
 21 22  1  0  0  0  0
 23 24  2  0  0  0  0
 23 25  1  0  0  0  0
 25 26  1  0  0  0  0
 25 27  1  0  0  0  0
 27 28  1  0  0  0  0
 27 29  1  0  0  0  0
 27 30  1  0  0  0  0
M  CHG  1  15   1
M  END
$$$$

  -OEChem-01062216083D

 30 30  0     1  0  0  0  0  0999 V2000
   -3.6890   -2.2414    0.8722 H   0  0  0  0  0  0  0  0  0  0  0  0
   -3.4531   -1.4079    0.2043 C   0  0  0  0  0  0  0  0  0  0  0  0
   -4.2443   -0.6590    0.2853 H   0  0  0  0  0  0  0  0  0  0  0  0
   -3.4185   -1.7839   -0.8214 H   0  0  0  0  0  0  0  0  0  0  0  0
   -2.1144   -0.7991    0.5771 C   0  0  0  0  0  0  0  0  0  0  0  0
   -1.4977   -1.2757    1.5131 O   0  0  0  0  0  0  0  0  0  0  0  0
   -1.6465    0.2740   -0.1653 N   0  0  0  0  0  0  0  0  0  0  0  0
   -2.2373    0.4867   -0.9664 H   0  0  0  0  0  0  0  0  0  0  0  0
   -0.2973    0.8962   -0.1777 C   0  0  1  0  0  0  0  0  0  0  0  0
   -0.4586    1.9746   -0.2527 H   0  0  0  0  0  0  0  0  0  0  0  0
    0.6360    0.6943    1.0452 C   0  0  0  0  0  0  0  0  0  0  0  0
    0.8117   -0.3782    1.1880 H   0  0  0  0  0  0  0  0  0  0  0  0
    1.6148    1.1339    0.8252 H   0  0  0  0  0  0  0  0  0  0  0  0
    0.1157    1.3052    2.3293 C   0  0  0  0  0  0  0  0  0  0  0  0
    0.0977    2.6609    2.6665 N   0  3  0  0  0  0  0  0  0  0  0  0
    0.4209    3.3974    2.0355 H   0  0  0  0  0  0  0  0  0  0  0  0
   -0.3405    2.8226    3.8927 C   0  0  0  0  0  0  0  0  0  0  0  0
   -0.4560    3.7699    4.4226 H   0  0  0  0  0  0  0  0  0  0  0  0
   -0.6177    1.5569    4.4022 N   0  0  0  0  0  0  0  0  0  0  0  0
   -0.9679    1.3480    5.3421 H   0  0  0  0  0  0  0  0  0  0  0  0
   -0.3104    0.6120    3.4342 C   0  0  0  0  0  0  0  0  0  0  0  0
   -0.3863   -0.4743    3.5164 H   0  0  0  0  0  0  0  0  0  0  0  0
    0.4548    0.4786   -1.4594 C   0  0  0  0  0  0  0  0  0  0  0  0
    0.9610   -0.6300   -1.5309 O   0  0  0  0  0  0  0  0  0  0  0  0
    0.6180    1.3648   -2.5101 N   0  0  0  0  0  0  0  0  0  0  0  0
    0.1480    2.2641   -2.4642 H   0  0  0  0  0  0  0  0  0  0  0  0
    1.3126    1.0059   -3.7453 C   0  0  0  0  0  0  0  0  0  0  0  0
    0.8059    0.1721   -4.2438 H   0  0  0  0  0  0  0  0  0  0  0  0
    1.3341    1.8570   -4.4333 H   0  0  0  0  0  0  0  0  0  0  0  0
    2.3460    0.7093   -3.5341 H   0  0  0  0  0  0  0  0  0  0  0  0
  1  2  1  0  0  0  0
  2  3  1  0  0  0  0
  2  4  1  0  0  0  0
  2  5  1  0  0  0  0
  5  6  2  0  0  0  0
  5  7  1  0  0  0  0
  7  8  1  0  0  0  0
  7  9  1  0  0  0  0
  9 10  1  0  0  0  0
  9 11  1  0  0  0  0
  9 23  1  0  0  0  0
 11 12  1  0  0  0  0
 11 13  1  0  0  0  0
 11 14  1  0  0  0  0
 14 15  1  0  0  0  0
 14 21  2  0  0  0  0
 15 16  1  0  0  0  0
 15 17  2  0  0  0  0
 17 18  1  0  0  0  0
 17 19  1  0  0  0  0
 19 20  1  0  0  0  0
 19 21  1  0  0  0  0
 21 22  1  0  0  0  0
 23 24  2  0  0  0  0
 23 25  1  0  0  0  0
 25 26  1  0  0  0  0
 25 27  1  0  0  0  0
 27 28  1  0  0  0  0
 27 29  1  0  0  0  0
 27 30  1  0  0  0  0
M  CHG  1  15   1
M  END
$$$$

  -OEChem-01062216083D

 30 30  0     1  0  0  0  0  0999 V2000
   -3.6803   -2.2436    0.8545 H   0  0  0  0  0  0  0  0  0  0  0  0
   -3.4369   -1.4180    0.1793 C   0  0  0  0  0  0  0  0  0  0  0  0
   -4.2381   -0.6770    0.2278 H   0  0  0  0  0  0  0  0  0  0  0  0
   -3.3717   -1.8096   -0.8390 H   0  0  0  0  0  0  0  0  0  0  0  0
   -2.1153   -0.7878    0.5757 C   0  0  0  0  0  0  0  0  0  0  0  0
   -1.5137   -1.2463    1.5307 O   0  0  0  0  0  0  0  0  0  0  0  0
   -1.6449    0.2834   -0.1671 N   0  0  0  0  0  0  0  0  0  0  0  0
   -2.2114    0.4642   -0.9934 H   0  0  0  0  0  0  0  0  0  0  0  0
   -0.2951    0.9043   -0.1720 C   0  0  1  0  0  0  0  0  0  0  0  0
   -0.4603    1.9817   -0.2503 H   0  0  0  0  0  0  0  0  0  0  0  0
    0.6373    0.7027    1.0500 C   0  0  0  0  0  0  0  0  0  0  0  0
    0.8109   -0.3705    1.1903 H   0  0  0  0  0  0  0  0  0  0  0  0
    1.6160    1.1426    0.8314 H   0  0  0  0  0  0  0  0  0  0  0  0
    0.1161    1.3121    2.3353 C   0  0  0  0  0  0  0  0  0  0  0  0
    0.0956    2.6674    2.6755 N   0  3  0  0  0  0  0  0  0  0  0  0
    0.4069    3.4069    2.0423 H   0  0  0  0  0  0  0  0  0  0  0  0
   -0.3416    2.8263    3.9026 C   0  0  0  0  0  0  0  0  0  0  0  0
   -0.4638    3.7726    4.4328 H   0  0  0  0  0  0  0  0  0  0  0  0
   -0.6107    1.5590    4.4117 N   0  0  0  0  0  0  0  0  0  0  0  0
   -0.9606    1.3477    5.3511 H   0  0  0  0  0  0  0  0  0  0  0  0
   -0.3027    0.6165    3.4418 C   0  0  0  0  0  0  0  0  0  0  0  0
   -0.3748   -0.4701    3.5237 H   0  0  0  0  0  0  0  0  0  0  0  0
    0.4664    0.4843   -1.4471 C   0  0  0  0  0  0  0  0  0  0  0  0
    0.6997   -0.6970   -1.6471 O   0  0  0  0  0  0  0  0  0  0  0  0
    0.9101    1.4255   -2.3600 N   0  0  0  0  0  0  0  0  0  0  0  0
    0.6585    2.3989   -2.2169 H   0  0  0  0  0  0  0  0  0  0  0  0
    1.6117    1.0624   -3.5899 C   0  0  0  0  0  0  0  0  0  0  0  0
    0.9761    0.4355   -4.2252 H   0  0  0  0  0  0  0  0  0  0  0  0
    1.8841    1.9600   -4.1542 H   0  0  0  0  0  0  0  0  0  0  0  0
    2.5296    0.5093   -3.3611 H   0  0  0  0  0  0  0  0  0  0  0  0
  1  2  1  0  0  0  0
  2  3  1  0  0  0  0
  2  4  1  0  0  0  0
  2  5  1  0  0  0  0
  5  6  2  0  0  0  0
  5  7  1  0  0  0  0
  7  8  1  0  0  0  0
  7  9  1  0  0  0  0
  9 10  1  0  0  0  0
  9 11  1  0  0  0  0
  9 23  1  0  0  0  0
 11 12  1  0  0  0  0
 11 13  1  0  0  0  0
 11 14  1  0  0  0  0
 14 15  1  0  0  0  0
 14 21  2  0  0  0  0
 15 16  1  0  0  0  0
 15 17  2  0  0  0  0
 17 18  1  0  0  0  0
 17 19  1  0  0  0  0
 19 20  1  0  0  0  0
 19 21  1  0  0  0  0
 21 22  1  0  0  0  0
 23 24  2  0  0  0  0
 23 25  1  0  0  0  0
 25 26  1  0  0  0  0
 25 27  1  0  0  0  0
 27 28  1  0  0  0  0
 27 29  1  0  0  0  0
 27 30  1  0  0  0  0
M  CHG  1  15   1
M  END
$$$$

  -OEChem-01062216083D

 30 30  0     1  0  0  0  0  0999 V2000
   -3.6753   -2.2441    0.8386 H   0  0  0  0  0  0  0  0  0  0  0  0
   -3.4183   -1.4283    0.1569 C   0  0  0  0  0  0  0  0  0  0  0  0
   -4.2258   -0.6927    0.1692 H   0  0  0  0  0  0  0  0  0  0  0  0
   -3.3199   -1.8363   -0.8524 H   0  0  0  0  0  0  0  0  0  0  0  0
   -2.1132   -0.7815    0.5803 C   0  0  0  0  0  0  0  0  0  0  0  0
   -1.5264   -1.2305    1.5493 O   0  0  0  0  0  0  0  0  0  0  0  0
   -1.6360    0.2880   -0.1602 N   0  0  0  0  0  0  0  0  0  0  0  0
   -2.1760    0.4394   -1.0103 H   0  0  0  0  0  0  0  0  0  0  0  0
   -0.2807    0.8975   -0.1612 C   0  0  1  0  0  0  0  0  0  0  0  0
   -0.4419    1.9752   -0.2452 H   0  0  0  0  0  0  0  0  0  0  0  0
    0.6443    0.6931    1.0657 C   0  0  0  0  0  0  0  0  0  0  0  0
    0.8077   -0.3810    1.2111 H   0  0  0  0  0  0  0  0  0  0  0  0
    1.6278    1.1245    0.8519 H   0  0  0  0  0  0  0  0  0  0  0  0
    0.1203    1.3134    2.3461 C   0  0  0  0  0  0  0  0  0  0  0  0
    0.1082    2.6707    2.6805 N   0  3  0  0  0  0  0  0  0  0  0  0
    0.4250    3.4058    2.0449 H   0  0  0  0  0  0  0  0  0  0  0  0
   -0.3396    2.8397    3.9025 C   0  0  0  0  0  0  0  0  0  0  0  0
   -0.4611    3.7899    4.4261 H   0  0  0  0  0  0  0  0  0  0  0  0
   -0.6224    1.5774    4.4160 N   0  0  0  0  0  0  0  0  0  0  0  0
   -0.9847    1.3740    5.3525 H   0  0  0  0  0  0  0  0  0  0  0  0
   -0.3132    0.6277    3.4537 C   0  0  0  0  0  0  0  0  0  0  0  0
   -0.3977   -0.4574    3.5416 H   0  0  0  0  0  0  0  0  0  0  0  0
    0.4818    0.4755   -1.4367 C   0  0  0  0  0  0  0  0  0  0  0  0
    0.4363   -0.6851   -1.8135 O   0  0  0  0  0  0  0  0  0  0  0  0
    1.1973    1.3975   -2.1813 N   0  0  0  0  0  0  0  0  0  0  0  0
    1.1759    2.3730   -1.9009 H   0  0  0  0  0  0  0  0  0  0  0  0
    1.8923    1.0448   -3.4181 C   0  0  0  0  0  0  0  0  0  0  0  0
    1.1870    0.6485   -4.1571 H   0  0  0  0  0  0  0  0  0  0  0  0
    2.3811    1.9253   -3.8469 H   0  0  0  0  0  0  0  0  0  0  0  0
    2.6586    0.2860   -3.2253 H   0  0  0  0  0  0  0  0  0  0  0  0
  1  2  1  0  0  0  0
  2  3  1  0  0  0  0
  2  4  1  0  0  0  0
  2  5  1  0  0  0  0
  5  6  2  0  0  0  0
  5  7  1  0  0  0  0
  7  8  1  0  0  0  0
  7  9  1  0  0  0  0
  9 10  1  0  0  0  0
  9 11  1  0  0  0  0
  9 23  1  0  0  0  0
 11 12  1  0  0  0  0
 11 13  1  0  0  0  0
 11 14  1  0  0  0  0
 14 15  1  0  0  0  0
 14 21  2  0  0  0  0
 15 16  1  0  0  0  0
 15 17  2  0  0  0  0
 17 18  1  0  0  0  0
 17 19  1  0  0  0  0
 19 20  1  0  0  0  0
 19 21  1  0  0  0  0
 21 22  1  0  0  0  0
 23 24  2  0  0  0  0
 23 25  1  0  0  0  0
 25 26  1  0  0  0  0
 25 27  1  0  0  0  0
 27 28  1  0  0  0  0
 27 29  1  0  0  0  0
 27 30  1  0  0  0  0
M  CHG  1  15   1
M  END
$$$$

  -OEChem-01062216083D

 30 30  0     1  0  0  0  0  0999 V2000
   -3.6496   -2.2764    0.8132 H   0  0  0  0  0  0  0  0  0  0  0  0
   -3.4030   -1.4383    0.1553 C   0  0  0  0  0  0  0  0  0  0  0  0
   -4.2164   -0.7103    0.1937 H   0  0  0  0  0  0  0  0  0  0  0  0
   -3.3066   -1.8149   -0.8664 H   0  0  0  0  0  0  0  0  0  0  0  0
   -2.1020   -0.7917    0.5912 C   0  0  0  0  0  0  0  0  0  0  0  0
   -1.5217   -1.2415    1.5642 O   0  0  0  0  0  0  0  0  0  0  0  0
   -1.6179    0.2767   -0.1456 N   0  0  0  0  0  0  0  0  0  0  0  0
   -2.1356    0.4051   -1.0139 H   0  0  0  0  0  0  0  0  0  0  0  0
   -0.2570    0.8741   -0.1473 C   0  0  1  0  0  0  0  0  0  0  0  0
   -0.4118    1.9525   -0.2377 H   0  0  0  0  0  0  0  0  0  0  0  0
    0.6568    0.6716    1.0886 C   0  0  0  0  0  0  0  0  0  0  0  0
    0.8100   -0.4019    1.2477 H   0  0  0  0  0  0  0  0  0  0  0  0
    1.6461    1.0931    0.8830 H   0  0  0  0  0  0  0  0  0  0  0  0
    0.1211    1.3123    2.3542 C   0  0  0  0  0  0  0  0  0  0  0  0
    0.1157    2.6737    2.6725 N   0  3  0  0  0  0  0  0  0  0  0  0
    0.4386    3.3997    2.0296 H   0  0  0  0  0  0  0  0  0  0  0  0
   -0.3493    2.8615    3.8851 C   0  0  0  0  0  0  0  0  0  0  0  0
   -0.4737    3.8193    4.3939 H   0  0  0  0  0  0  0  0  0  0  0  0
   -0.6479    1.6078    4.4104 N   0  0  0  0  0  0  0  0  0  0  0  0
   -1.0280    1.4188    5.3430 H   0  0  0  0  0  0  0  0  0  0  0  0
   -0.3329    0.6439    3.4641 C   0  0  0  0  0  0  0  0  0  0  0  0
   -0.4283   -0.4392    3.5640 H   0  0  0  0  0  0  0  0  0  0  0  0
    0.5045    0.4538   -1.4268 C   0  0  0  0  0  0  0  0  0  0  0  0
    0.2057   -0.5816   -2.0029 O   0  0  0  0  0  0  0  0  0  0  0  0
    1.4637    1.2785   -1.9904 N   0  0  0  0  0  0  0  0  0  0  0  0
    1.6529    2.1754   -1.5550 H   0  0  0  0  0  0  0  0  0  0  0  0
    2.1463    0.9576   -3.2429 C   0  0  0  0  0  0  0  0  0  0  0  0
    1.4323    0.9285   -4.0735 H   0  0  0  0  0  0  0  0  0  0  0  0
    2.9072    1.7118   -3.4679 H   0  0  0  0  0  0  0  0  0  0  0  0
    2.6413   -0.0176   -3.1740 H   0  0  0  0  0  0  0  0  0  0  0  0
  1  2  1  0  0  0  0
  2  3  1  0  0  0  0
  2  4  1  0  0  0  0
  2  5  1  0  0  0  0
  5  6  2  0  0  0  0
  5  7  1  0  0  0  0
  7  8  1  0  0  0  0
  7  9  1  0  0  0  0
  9 10  1  0  0  0  0
  9 11  1  0  0  0  0
  9 23  1  0  0  0  0
 11 12  1  0  0  0  0
 11 13  1  0  0  0  0
 11 14  1  0  0  0  0
 14 15  1  0  0  0  0
 14 21  2  0  0  0  0
 15 16  1  0  0  0  0
 15 17  2  0  0  0  0
 17 18  1  0  0  0  0
 17 19  1  0  0  0  0
 19 20  1  0  0  0  0
 19 21  1  0  0  0  0
 21 22  1  0  0  0  0
 23 24  2  0  0  0  0
 23 25  1  0  0  0  0
 25 26  1  0  0  0  0
 25 27  1  0  0  0  0
 27 28  1  0  0  0  0
 27 29  1  0  0  0  0
 27 30  1  0  0  0  0
M  CHG  1  15   1
M  END
$$$$

  -OEChem-01062216083D

 30 30  0     1  0  0  0  0  0999 V2000
   -3.6470   -2.2743    0.8077 H   0  0  0  0  0  0  0  0  0  0  0  0
   -3.3903   -1.4381    0.1510 C   0  0  0  0  0  0  0  0  0  0  0  0
   -4.2005   -0.7059    0.1805 H   0  0  0  0  0  0  0  0  0  0  0  0
   -3.2860   -1.8155   -0.8697 H   0  0  0  0  0  0  0  0  0  0  0  0
   -2.0904   -0.7974    0.5983 C   0  0  0  0  0  0  0  0  0  0  0  0
   -1.5110   -1.2592    1.5665 O   0  0  0  0  0  0  0  0  0  0  0  0
   -1.5998    0.2742   -0.1285 N   0  0  0  0  0  0  0  0  0  0  0  0
   -2.1032    0.3966   -1.0070 H   0  0  0  0  0  0  0  0  0  0  0  0
   -0.2346    0.8614   -0.1312 C   0  0  1  0  0  0  0  0  0  0  0  0
   -0.3802    1.9412   -0.2224 H   0  0  0  0  0  0  0  0  0  0  0  0
    0.6684    0.6543    1.1131 C   0  0  0  0  0  0  0  0  0  0  0  0
    0.8112   -0.4191    1.2791 H   0  0  0  0  0  0  0  0  0  0  0  0
    1.6633    1.0670    0.9209 H   0  0  0  0  0  0  0  0  0  0  0  0
    0.1220    1.3082    2.3673 C   0  0  0  0  0  0  0  0  0  0  0  0
    0.1244    2.6720    2.6758 N   0  3  0  0  0  0  0  0  0  0  0  0
    0.4542    3.3917    2.0291 H   0  0  0  0  0  0  0  0  0  0  0  0
   -0.3592    2.8724    3.8790 C   0  0  0  0  0  0  0  0  0  0  0  0
   -0.4879    3.8354    4.3769 H   0  0  0  0  0  0  0  0  0  0  0  0
   -0.6754    1.6252    4.4090 N   0  0  0  0  0  0  0  0  0  0  0  0
   -1.0735    1.4471    5.3361 H   0  0  0  0  0  0  0  0  0  0  0  0
   -0.3553    0.6514    3.4745 C   0  0  0  0  0  0  0  0  0  0  0  0
   -0.4626   -0.4301    3.5812 H   0  0  0  0  0  0  0  0  0  0  0  0
    0.5138    0.4453   -1.4226 C   0  0  0  0  0  0  0  0  0  0  0  0
    0.0239   -0.3905   -2.1692 O   0  0  0  0  0  0  0  0  0  0  0  0
    1.6718    1.0913   -1.8234 N   0  0  0  0  0  0  0  0  0  0  0  0
    2.0484    1.8289   -1.2372 H   0  0  0  0  0  0  0  0  0  0  0  0
    2.3604    0.7785   -3.0745 C   0  0  0  0  0  0  0  0  0  0  0  0
    1.7095    0.9782   -3.9330 H   0  0  0  0  0  0  0  0  0  0  0  0
    3.2631    1.3888   -3.1779 H   0  0  0  0  0  0  0  0  0  0  0  0
    2.6547   -0.2767   -3.0983 H   0  0  0  0  0  0  0  0  0  0  0  0
  1  2  1  0  0  0  0
  2  3  1  0  0  0  0
  2  4  1  0  0  0  0
  2  5  1  0  0  0  0
  5  6  2  0  0  0  0
  5  7  1  0  0  0  0
  7  8  1  0  0  0  0
  7  9  1  0  0  0  0
  9 10  1  0  0  0  0
  9 11  1  0  0  0  0
  9 23  1  0  0  0  0
 11 12  1  0  0  0  0
 11 13  1  0  0  0  0
 11 14  1  0  0  0  0
 14 15  1  0  0  0  0
 14 21  2  0  0  0  0
 15 16  1  0  0  0  0
 15 17  2  0  0  0  0
 17 18  1  0  0  0  0
 17 19  1  0  0  0  0
 19 20  1  0  0  0  0
 19 21  1  0  0  0  0
 21 22  1  0  0  0  0
 23 24  2  0  0  0  0
 23 25  1  0  0  0  0
 25 26  1  0  0  0  0
 25 27  1  0  0  0  0
 27 28  1  0  0  0  0
 27 29  1  0  0  0  0
 27 30  1  0  0  0  0
M  CHG  1  15   1
M  END
$$$$

  -OEChem-01062216083D

 30 30  0     1  0  0  0  0  0999 V2000
   -3.8150   -2.1809    0.7369 H   0  0  0  0  0  0  0  0  0  0  0  0
   -3.5148   -1.3188    0.1346 C   0  0  0  0  0  0  0  0  0  0  0  0
   -4.2314   -0.5101    0.2965 H   0  0  0  0  0  0  0  0  0  0  0  0
   -3.5330   -1.6059   -0.9200 H   0  0  0  0  0  0  0  0  0  0  0  0
   -2.1207   -0.8653    0.5229 C   0  0  0  0  0  0  0  0  0  0  0  0
   -1.5080   -1.5029    1.3606 O   0  0  0  0  0  0  0  0  0  0  0  0
   -1.5685    0.2114   -0.1461 N   0  0  0  0  0  0  0  0  0  0  0  0
   -2.0998    0.4674   -0.9804 H   0  0  0  0  0  0  0  0  0  0  0  0
   -0.1936    0.7728   -0.1237 C   0  0  1  0  0  0  0  0  0  0  0  0
   -0.3281    1.8423    0.0605 H   0  0  0  0  0  0  0  0  0  0  0  0
    0.8129    0.3022    0.9627 C   0  0  0  0  0  0  0  0  0  0  0  0
    0.9295   -0.7845    0.8793 H   0  0  0  0  0  0  0  0  0  0  0  0
    1.7983    0.7371    0.7755 H   0  0  0  0  0  0  0  0  0  0  0  0
    0.4079    0.6632    2.3806 C   0  0  0  0  0  0  0  0  0  0  0  0
    0.4772    1.9316    2.9660 N   0  3  0  0  0  0  0  0  0  0  0  0
    0.7288    2.7744    2.4450 H   0  0  0  0  0  0  0  0  0  0  0  0
    0.1452    1.8749    4.2342 C   0  0  0  0  0  0  0  0  0  0  0  0
    0.0902    2.7133    4.9314 H   0  0  0  0  0  0  0  0  0  0  0  0
   -0.1217    0.5419    4.5299 N   0  0  0  0  0  0  0  0  0  0  0  0
   -0.4096    0.1718    5.4408 H   0  0  0  0  0  0  0  0  0  0  0  0
    0.0690   -0.2134    3.3824 C   0  0  0  0  0  0  0  0  0  0  0  0
   -0.0374   -1.2950    3.2772 H   0  0  0  0  0  0  0  0  0  0  0  0
    0.4050    0.7109   -1.5538 C   0  0  0  0  0  0  0  0  0  0  0  0
   -0.3093    0.3675   -2.4864 O   0  0  0  0  0  0  0  0  0  0  0  0
    1.6819    1.1663   -1.8405 N   0  0  0  0  0  0  0  0  0  0  0  0
    2.2733    1.4776   -1.0775 H   0  0  0  0  0  0  0  0  0  0  0  0
    2.2335    1.1774   -3.1948 C   0  0  0  0  0  0  0  0  0  0  0  0
    1.6450    1.8342   -3.8449 H   0  0  0  0  0  0  0  0  0  0  0  0
    3.2664    1.5395   -3.1847 H   0  0  0  0  0  0  0  0  0  0  0  0
    2.2276    0.1680   -3.6210 H   0  0  0  0  0  0  0  0  0  0  0  0
  1  2  1  0  0  0  0
  2  3  1  0  0  0  0
  2  4  1  0  0  0  0
  2  5  1  0  0  0  0
  5  6  2  0  0  0  0
  5  7  1  0  0  0  0
  7  8  1  0  0  0  0
  7  9  1  0  0  0  0
  9 10  1  0  0  0  0
  9 11  1  0  0  0  0
  9 23  1  0  0  0  0
 11 12  1  0  0  0  0
 11 13  1  0  0  0  0
 11 14  1  0  0  0  0
 14 15  1  0  0  0  0
 14 21  2  0  0  0  0
 15 16  1  0  0  0  0
 15 17  2  0  0  0  0
 17 18  1  0  0  0  0
 17 19  1  0  0  0  0
 19 20  1  0  0  0  0
 19 21  1  0  0  0  0
 21 22  1  0  0  0  0
 23 24  2  0  0  0  0
 23 25  1  0  0  0  0
 25 26  1  0  0  0  0
 25 27  1  0  0  0  0
 27 28  1  0  0  0  0
 27 29  1  0  0  0  0
 27 30  1  0  0  0  0
M  CHG  1  15   1
M  END
$$$$

  -OEChem-01062216083D

 30 30  0     1  0  0  0  0  0999 V2000
   -3.8013   -2.1856    0.7369 H   0  0  0  0  0  0  0  0  0  0  0  0
   -3.5012   -1.3164    0.1448 C   0  0  0  0  0  0  0  0  0  0  0  0
   -4.2056   -0.5028    0.3341 H   0  0  0  0  0  0  0  0  0  0  0  0
   -3.5417   -1.5840   -0.9143 H   0  0  0  0  0  0  0  0  0  0  0  0
   -2.0949   -0.8864    0.5164 C   0  0  0  0  0  0  0  0  0  0  0  0
   -1.4738   -1.5456    1.3315 O   0  0  0  0  0  0  0  0  0  0  0  0
   -1.5395    0.1967   -0.1399 N   0  0  0  0  0  0  0  0  0  0  0  0
   -2.0830    0.4918   -0.9535 H   0  0  0  0  0  0  0  0  0  0  0  0
   -0.1637    0.7534   -0.1107 C   0  0  1  0  0  0  0  0  0  0  0  0
   -0.2952    1.8232    0.0742 H   0  0  0  0  0  0  0  0  0  0  0  0
    0.8297    0.2833    0.9874 C   0  0  0  0  0  0  0  0  0  0  0  0
    0.9487   -0.8035    0.9116 H   0  0  0  0  0  0  0  0  0  0  0  0
    1.8161    0.7222    0.8149 H   0  0  0  0  0  0  0  0  0  0  0  0
    0.4041    0.6576    2.3951 C   0  0  0  0  0  0  0  0  0  0  0  0
    0.4709    1.9315    2.9684 N   0  3  0  0  0  0  0  0  0  0  0  0
    0.7413    2.7669    2.4442 H   0  0  0  0  0  0  0  0  0  0  0  0
    0.1127    1.8894    4.2299 C   0  0  0  0  0  0  0  0  0  0  0  0
    0.0504    2.7350    4.9177 H   0  0  0  0  0  0  0  0  0  0  0  0
   -0.1713    0.5611    4.5326 N   0  0  0  0  0  0  0  0  0  0  0  0
   -0.4799    0.2023    5.4414 H   0  0  0  0  0  0  0  0  0  0  0  0
    0.0353   -0.2071    3.3963 C   0  0  0  0  0  0  0  0  0  0  0  0
   -0.0795   -1.2885    3.2989 H   0  0  0  0  0  0  0  0  0  0  0  0
    0.4263    0.7025   -1.5445 C   0  0  0  0  0  0  0  0  0  0  0  0
   -0.3459    0.6423   -2.4924 O   0  0  0  0  0  0  0  0  0  0  0  0
    1.7776    0.8600   -1.8079 N   0  0  0  0  0  0  0  0  0  0  0  0
    2.4275    0.8673   -1.0292 H   0  0  0  0  0  0  0  0  0  0  0  0
    2.3248    0.8593   -3.1634 C   0  0  0  0  0  0  0  0  0  0  0  0
    1.9044    1.6847   -3.7484 H   0  0  0  0  0  0  0  0  0  0  0  0
    3.4127    0.9769   -3.1363 H   0  0  0  0  0  0  0  0  0  0  0  0
    2.0931   -0.0831   -3.6720 H   0  0  0  0  0  0  0  0  0  0  0  0
  1  2  1  0  0  0  0
  2  3  1  0  0  0  0
  2  4  1  0  0  0  0
  2  5  1  0  0  0  0
  5  6  2  0  0  0  0
  5  7  1  0  0  0  0
  7  8  1  0  0  0  0
  7  9  1  0  0  0  0
  9 10  1  0  0  0  0
  9 11  1  0  0  0  0
  9 23  1  0  0  0  0
 11 12  1  0  0  0  0
 11 13  1  0  0  0  0
 11 14  1  0  0  0  0
 14 15  1  0  0  0  0
 14 21  2  0  0  0  0
 15 16  1  0  0  0  0
 15 17  2  0  0  0  0
 17 18  1  0  0  0  0
 17 19  1  0  0  0  0
 19 20  1  0  0  0  0
 19 21  1  0  0  0  0
 21 22  1  0  0  0  0
 23 24  2  0  0  0  0
 23 25  1  0  0  0  0
 25 26  1  0  0  0  0
 25 27  1  0  0  0  0
 27 28  1  0  0  0  0
 27 29  1  0  0  0  0
 27 30  1  0  0  0  0
M  CHG  1  15   1
M  END
$$$$

  -OEChem-01062216083D

 30 30  0     1  0  0  0  0  0999 V2000
   -3.7903   -2.1857    0.7378 H   0  0  0  0  0  0  0  0  0  0  0  0
   -3.4898   -1.3117    0.1530 C   0  0  0  0  0  0  0  0  0  0  0  0
   -4.1828   -0.4936    0.3631 H   0  0  0  0  0  0  0  0  0  0  0  0
   -3.5481   -1.5645   -0.9088 H   0  0  0  0  0  0  0  0  0  0  0  0
   -2.0741   -0.9004    0.5096 C   0  0  0  0  0  0  0  0  0  0  0  0
   -1.4450   -1.5767    1.3047 O   0  0  0  0  0  0  0  0  0  0  0  0
   -1.5168    0.1870   -0.1379 N   0  0  0  0  0  0  0  0  0  0  0  0
   -2.0748    0.5218   -0.9259 H   0  0  0  0  0  0  0  0  0  0  0  0
   -0.1413    0.7406   -0.0987 C   0  0  1  0  0  0  0  0  0  0  0  0
   -0.2721    1.8107    0.0870 H   0  0  0  0  0  0  0  0  0  0  0  0
    0.8452    0.2738    1.0055 C   0  0  0  0  0  0  0  0  0  0  0  0
    0.9687   -0.8128    0.9357 H   0  0  0  0  0  0  0  0  0  0  0  0
    1.8301    0.7198    0.8376 H   0  0  0  0  0  0  0  0  0  0  0  0
    0.4045    0.6553    2.4059 C   0  0  0  0  0  0  0  0  0  0  0  0
    0.4656    1.9329    2.9713 N   0  3  0  0  0  0  0  0  0  0  0  0
    0.7518    2.7630    2.4466 H   0  0  0  0  0  0  0  0  0  0  0  0
    0.0866    1.8998    4.2269 C   0  0  0  0  0  0  0  0  0  0  0  0
    0.0185    2.7497    4.9088 H   0  0  0  0  0  0  0  0  0  0  0  0
   -0.2093    0.5748    4.5326 N   0  0  0  0  0  0  0  0  0  0  0  0
   -0.5338    0.2232    5.4386 H   0  0  0  0  0  0  0  0  0  0  0  0
    0.0124   -0.2017    3.4045 C   0  0  0  0  0  0  0  0  0  0  0  0
   -0.1077   -1.2829    3.3109 H   0  0  0  0  0  0  0  0  0  0  0  0
    0.4451    0.6949   -1.5315 C   0  0  0  0  0  0  0  0  0  0  0  0
   -0.3168    0.8951   -2.4678 O   0  0  0  0  0  0  0  0  0  0  0  0
    1.7972    0.5460   -1.7947 N   0  0  0  0  0  0  0  0  0  0  0  0
    2.4064    0.2666   -1.0327 H   0  0  0  0  0  0  0  0  0  0  0  0
    2.3347    0.5070   -3.1536 C   0  0  0  0  0  0  0  0  0  0  0  0
    2.0962    1.4327   -3.6889 H   0  0  0  0  0  0  0  0  0  0  0  0
    3.4234    0.3960   -3.1309 H   0  0  0  0  0  0  0  0  0  0  0  0
    1.9130   -0.3368   -3.7108 H   0  0  0  0  0  0  0  0  0  0  0  0
  1  2  1  0  0  0  0
  2  3  1  0  0  0  0
  2  4  1  0  0  0  0
  2  5  1  0  0  0  0
  5  6  2  0  0  0  0
  5  7  1  0  0  0  0
  7  8  1  0  0  0  0
  7  9  1  0  0  0  0
  9 10  1  0  0  0  0
  9 11  1  0  0  0  0
  9 23  1  0  0  0  0
 11 12  1  0  0  0  0
 11 13  1  0  0  0  0
 11 14  1  0  0  0  0
 14 15  1  0  0  0  0
 14 21  2  0  0  0  0
 15 16  1  0  0  0  0
 15 17  2  0  0  0  0
 17 18  1  0  0  0  0
 17 19  1  0  0  0  0
 19 20  1  0  0  0  0
 19 21  1  0  0  0  0
 21 22  1  0  0  0  0
 23 24  2  0  0  0  0
 23 25  1  0  0  0  0
 25 26  1  0  0  0  0
 25 27  1  0  0  0  0
 27 28  1  0  0  0  0
 27 29  1  0  0  0  0
 27 30  1  0  0  0  0
M  CHG  1  15   1
M  END
$$$$

  -OEChem-01062216083D

 30 30  0     1  0  0  0  0  0999 V2000
   -3.7862   -2.1841    0.7493 H   0  0  0  0  0  0  0  0  0  0  0  0
   -3.4891   -1.3069    0.1676 C   0  0  0  0  0  0  0  0  0  0  0  0
   -4.1717   -0.4853    0.3970 H   0  0  0  0  0  0  0  0  0  0  0  0
   -3.5676   -1.5494   -0.8952 H   0  0  0  0  0  0  0  0  0  0  0  0
   -2.0644   -0.9103    0.5040 C   0  0  0  0  0  0  0  0  0  0  0  0
   -1.4258   -1.5992    1.2809 O   0  0  0  0  0  0  0  0  0  0  0  0
   -1.5067    0.1776   -0.1421 N   0  0  0  0  0  0  0  0  0  0  0  0
   -2.0822    0.5475   -0.9010 H   0  0  0  0  0  0  0  0  0  0  0  0
   -0.1314    0.7287   -0.0961 C   0  0  1  0  0  0  0  0  0  0  0  0
   -0.2624    1.7991    0.0886 H   0  0  0  0  0  0  0  0  0  0  0  0
    0.8519    0.2657    1.0110 C   0  0  0  0  0  0  0  0  0  0  0  0
    0.9774   -0.8207    0.9479 H   0  0  0  0  0  0  0  0  0  0  0  0
    1.8360    0.7136    0.8389 H   0  0  0  0  0  0  0  0  0  0  0  0
    0.4057    0.6513    2.4077 C   0  0  0  0  0  0  0  0  0  0  0  0
    0.4653    1.9317    2.9660 N   0  3  0  0  0  0  0  0  0  0  0  0
    0.7605    2.7577    2.4395 H   0  0  0  0  0  0  0  0  0  0  0  0
    0.0770    1.9063    4.2188 C   0  0  0  0  0  0  0  0  0  0  0  0
    0.0072    2.7601    4.8955 H   0  0  0  0  0  0  0  0  0  0  0  0
   -0.2272    0.5837    4.5287 N   0  0  0  0  0  0  0  0  0  0  0  0
   -0.5586    0.2379    5.4345 H   0  0  0  0  0  0  0  0  0  0  0  0
   -0.0017   -0.1994    3.4055 C   0  0  0  0  0  0  0  0  0  0  0  0
   -0.1289   -1.2799    3.3146 H   0  0  0  0  0  0  0  0  0  0  0  0
    0.4601    0.6831   -1.5231 C   0  0  0  0  0  0  0  0  0  0  0  0
   -0.2335    1.1072   -2.4365 O   0  0  0  0  0  0  0  0  0  0  0  0
    1.7426    0.2389   -1.7989 N   0  0  0  0  0  0  0  0  0  0  0  0
    2.2447   -0.2485   -1.0632 H   0  0  0  0  0  0  0  0  0  0  0  0
    2.2689    0.1566   -3.1598 C   0  0  0  0  0  0  0  0  0  0  0  0
    2.2311    1.1366   -3.6481 H   0  0  0  0  0  0  0  0  0  0  0  0
    3.3109   -0.1783   -3.1464 H   0  0  0  0  0  0  0  0  0  0  0  0
    1.6846   -0.5532   -3.7557 H   0  0  0  0  0  0  0  0  0  0  0  0
  1  2  1  0  0  0  0
  2  3  1  0  0  0  0
  2  4  1  0  0  0  0
  2  5  1  0  0  0  0
  5  6  2  0  0  0  0
  5  7  1  0  0  0  0
  7  8  1  0  0  0  0
  7  9  1  0  0  0  0
  9 10  1  0  0  0  0
  9 11  1  0  0  0  0
  9 23  1  0  0  0  0
 11 12  1  0  0  0  0
 11 13  1  0  0  0  0
 11 14  1  0  0  0  0
 14 15  1  0  0  0  0
 14 21  2  0  0  0  0
 15 16  1  0  0  0  0
 15 17  2  0  0  0  0
 17 18  1  0  0  0  0
 17 19  1  0  0  0  0
 19 20  1  0  0  0  0
 19 21  1  0  0  0  0
 21 22  1  0  0  0  0
 23 24  2  0  0  0  0
 23 25  1  0  0  0  0
 25 26  1  0  0  0  0
 25 27  1  0  0  0  0
 27 28  1  0  0  0  0
 27 29  1  0  0  0  0
 27 30  1  0  0  0  0
M  CHG  1  15   1
M  END
$$$$

  -OEChem-01062216083D

 30 30  0     1  0  0  0  0  0999 V2000
   -3.7934   -2.1840    0.7720 H   0  0  0  0  0  0  0  0  0  0  0  0
   -3.5005   -1.3039    0.1925 C   0  0  0  0  0  0  0  0  0  0  0  0
   -4.1719   -0.4791    0.4429 H   0  0  0  0  0  0  0  0  0  0  0  0
   -3.6016   -1.5362   -0.8709 H   0  0  0  0  0  0  0  0  0  0  0  0
   -2.0661   -0.9221    0.5041 C   0  0  0  0  0  0  0  0  0  0  0  0
   -1.4177   -1.6203    1.2645 O   0  0  0  0  0  0  0  0  0  0  0  0
   -1.5088    0.1623   -0.1482 N   0  0  0  0  0  0  0  0  0  0  0  0
   -2.1054    0.5661   -0.8719 H   0  0  0  0  0  0  0  0  0  0  0  0
   -0.1334    0.7112   -0.1021 C   0  0  1  0  0  0  0  0  0  0  0  0
   -0.2653    1.7822    0.0802 H   0  0  0  0  0  0  0  0  0  0  0  0
    0.8506    0.2546    1.0057 C   0  0  0  0  0  0  0  0  0  0  0  0
    0.9759   -0.8321    0.9513 H   0  0  0  0  0  0  0  0  0  0  0  0
    1.8349    0.6994    0.8240 H   0  0  0  0  0  0  0  0  0  0  0  0
    0.4051    0.6479    2.3996 C   0  0  0  0  0  0  0  0  0  0  0  0
    0.4656    1.9319    2.9491 N   0  3  0  0  0  0  0  0  0  0  0  0
    0.7694    2.7527    2.4191 H   0  0  0  0  0  0  0  0  0  0  0  0
    0.0781    1.9144    4.2021 C   0  0  0  0  0  0  0  0  0  0  0  0
    0.0145    2.7718    4.8750 H   0  0  0  0  0  0  0  0  0  0  0  0
   -0.2324    0.5947    4.5186 N   0  0  0  0  0  0  0  0  0  0  0  0
   -0.5643    0.2558    5.4267 H   0  0  0  0  0  0  0  0  0  0  0  0
   -0.0080   -0.1962    3.4005 C   0  0  0  0  0  0  0  0  0  0  0  0
   -0.1377   -1.2769    3.3157 H   0  0  0  0  0  0  0  0  0  0  0  0
    0.4689    0.6614   -1.5212 C   0  0  0  0  0  0  0  0  0  0  0  0
   -0.0998    1.2940   -2.3984 O   0  0  0  0  0  0  0  0  0  0  0  0
    1.6162   -0.0513   -1.8255 N   0  0  0  0  0  0  0  0  0  0  0  0
    1.9660   -0.7019   -1.1281 H   0  0  0  0  0  0  0  0  0  0  0  0
    2.1355   -0.1583   -3.1872 C   0  0  0  0  0  0  0  0  0  0  0  0
    2.3343    0.8354   -3.6034 H   0  0  0  0  0  0  0  0  0  0  0  0
    3.0718   -0.7252   -3.1950 H   0  0  0  0  0  0  0  0  0  0  0  0
    1.4155   -0.6705   -3.8348 H   0  0  0  0  0  0  0  0  0  0  0  0
  1  2  1  0  0  0  0
  2  3  1  0  0  0  0
  2  4  1  0  0  0  0
  2  5  1  0  0  0  0
  5  6  2  0  0  0  0
  5  7  1  0  0  0  0
  7  8  1  0  0  0  0
  7  9  1  0  0  0  0
  9 10  1  0  0  0  0
  9 11  1  0  0  0  0
  9 23  1  0  0  0  0
 11 12  1  0  0  0  0
 11 13  1  0  0  0  0
 11 14  1  0  0  0  0
 14 15  1  0  0  0  0
 14 21  2  0  0  0  0
 15 16  1  0  0  0  0
 15 17  2  0  0  0  0
 17 18  1  0  0  0  0
 17 19  1  0  0  0  0
 19 20  1  0  0  0  0
 19 21  1  0  0  0  0
 21 22  1  0  0  0  0
 23 24  2  0  0  0  0
 23 25  1  0  0  0  0
 25 26  1  0  0  0  0
 25 27  1  0  0  0  0
 27 28  1  0  0  0  0
 27 29  1  0  0  0  0
 27 30  1  0  0  0  0
M  CHG  1  15   1
M  END
$$$$

  -OEChem-01062216083D

 30 30  0     1  0  0  0  0  0999 V2000
   -3.8104   -2.1641    0.8505 H   0  0  0  0  0  0  0  0  0  0  0  0
   -3.5257   -1.2909    0.2563 C   0  0  0  0  0  0  0  0  0  0  0  0
   -4.1693   -0.4524    0.5336 H   0  0  0  0  0  0  0  0  0  0  0  0
   -3.6775   -1.5231   -0.8011 H   0  0  0  0  0  0  0  0  0  0  0  0
   -2.0720   -0.9376    0.5052 C   0  0  0  0  0  0  0  0  0  0  0  0
   -1.4045   -1.6500    1.2356 O   0  0  0  0  0  0  0  0  0  0  0  0
   -1.5217    0.1415   -0.1624 N   0  0  0  0  0  0  0  0  0  0  0  0
   -2.1445    0.5755   -0.8447 H   0  0  0  0  0  0  0  0  0  0  0  0
   -0.1478    0.6950   -0.1216 C   0  0  1  0  0  0  0  0  0  0  0  0
   -0.2831    1.7666    0.0578 H   0  0  0  0  0  0  0  0  0  0  0  0
    0.8425    0.2456    0.9824 C   0  0  0  0  0  0  0  0  0  0  0  0
    0.9736   -0.8404    0.9323 H   0  0  0  0  0  0  0  0  0  0  0  0
    1.8243    0.6926    0.7910 H   0  0  0  0  0  0  0  0  0  0  0  0
    0.4000    0.6411    2.3761 C   0  0  0  0  0  0  0  0  0  0  0  0
    0.4565    1.9269    2.9212 N   0  3  0  0  0  0  0  0  0  0  0  0
    0.7582    2.7467    2.3882 H   0  0  0  0  0  0  0  0  0  0  0  0
    0.0736    1.9111    4.1757 C   0  0  0  0  0  0  0  0  0  0  0  0
    0.0103    2.7704    4.8464 H   0  0  0  0  0  0  0  0  0  0  0  0
   -0.2307    0.5910    4.4968 N   0  0  0  0  0  0  0  0  0  0  0  0
   -0.5550    0.2528    5.4078 H   0  0  0  0  0  0  0  0  0  0  0  0
   -0.0075   -0.2022    3.3799 C   0  0  0  0  0  0  0  0  0  0  0  0
   -0.1325   -1.2838    3.2983 H   0  0  0  0  0  0  0  0  0  0  0  0
    0.4689    0.6363   -1.5320 C   0  0  0  0  0  0  0  0  0  0  0  0
    0.0871    1.4525   -2.3562 O   0  0  0  0  0  0  0  0  0  0  0  0
    1.4273   -0.2993   -1.8800 N   0  0  0  0  0  0  0  0  0  0  0  0
    1.5910   -1.0663   -1.2335 H   0  0  0  0  0  0  0  0  0  0  0  0
    1.9581   -0.4149   -3.2363 C   0  0  0  0  0  0  0  0  0  0  0  0
    2.4275    0.5248   -3.5477 H   0  0  0  0  0  0  0  0  0  0  0  0
    2.7127   -1.2066   -3.2844 H   0  0  0  0  0  0  0  0  0  0  0  0
    1.1573   -0.6570   -3.9438 H   0  0  0  0  0  0  0  0  0  0  0  0
  1  2  1  0  0  0  0
  2  3  1  0  0  0  0
  2  4  1  0  0  0  0
  2  5  1  0  0  0  0
  5  6  2  0  0  0  0
  5  7  1  0  0  0  0
  7  8  1  0  0  0  0
  7  9  1  0  0  0  0
  9 10  1  0  0  0  0
  9 11  1  0  0  0  0
  9 23  1  0  0  0  0
 11 12  1  0  0  0  0
 11 13  1  0  0  0  0
 11 14  1  0  0  0  0
 14 15  1  0  0  0  0
 14 21  2  0  0  0  0
 15 16  1  0  0  0  0
 15 17  2  0  0  0  0
 17 18  1  0  0  0  0
 17 19  1  0  0  0  0
 19 20  1  0  0  0  0
 19 21  1  0  0  0  0
 21 22  1  0  0  0  0
 23 24  2  0  0  0  0
 23 25  1  0  0  0  0
 25 26  1  0  0  0  0
 25 27  1  0  0  0  0
 27 28  1  0  0  0  0
 27 29  1  0  0  0  0
 27 30  1  0  0  0  0
M  CHG  1  15   1
M  END
$$$$

  -OEChem-01062216083D

 30 30  0     1  0  0  0  0  0999 V2000
   -3.8364   -2.1578    0.9021 H   0  0  0  0  0  0  0  0  0  0  0  0
   -3.5619   -1.2833    0.3051 C   0  0  0  0  0  0  0  0  0  0  0  0
   -4.1887   -0.4411    0.6076 H   0  0  0  0  0  0  0  0  0  0  0  0
   -3.7491   -1.5070   -0.7483 H   0  0  0  0  0  0  0  0  0  0  0  0
   -2.0976   -0.9449    0.5110 C   0  0  0  0  0  0  0  0  0  0  0  0
   -1.4138   -1.6659    1.2173 O   0  0  0  0  0  0  0  0  0  0  0  0
   -1.5547    0.1274   -0.1731 N   0  0  0  0  0  0  0  0  0  0  0  0
   -2.1982    0.5819   -0.8211 H   0  0  0  0  0  0  0  0  0  0  0  0
   -0.1813    0.6834   -0.1420 C   0  0  1  0  0  0  0  0  0  0  0  0
   -0.3200    1.7548    0.0363 H   0  0  0  0  0  0  0  0  0  0  0  0
    0.8220    0.2400    0.9517 C   0  0  0  0  0  0  0  0  0  0  0  0
    0.9603   -0.8450    0.9002 H   0  0  0  0  0  0  0  0  0  0  0  0
    1.7990    0.6915    0.7467 H   0  0  0  0  0  0  0  0  0  0  0  0
    0.3963    0.6336    2.3501 C   0  0  0  0  0  0  0  0  0  0  0  0
    0.4566    1.9205    2.8913 N   0  3  0  0  0  0  0  0  0  0  0  0
    0.7563    2.7384    2.3537 H   0  0  0  0  0  0  0  0  0  0  0  0
    0.0957    1.9051    4.1523 C   0  0  0  0  0  0  0  0  0  0  0  0
    0.0465    2.7643    4.8242 H   0  0  0  0  0  0  0  0  0  0  0  0
   -0.2039    0.5849    4.4789 N   0  0  0  0  0  0  0  0  0  0  0  0
   -0.5092    0.2468    5.3967 H   0  0  0  0  0  0  0  0  0  0  0  0
    0.0030   -0.2095    3.3593 C   0  0  0  0  0  0  0  0  0  0  0  0
   -0.1203   -1.2914    3.2794 H   0  0  0  0  0  0  0  0  0  0  0  0
    0.4459    0.6151   -1.5451 C   0  0  0  0  0  0  0  0  0  0  0  0
    0.3220    1.5796   -2.2830 O   0  0  0  0  0  0  0  0  0  0  0  0
    1.1668   -0.4899   -1.9593 N   0  0  0  0  0  0  0  0  0  0  0  0
    1.1135   -1.3259   -1.3825 H   0  0  0  0  0  0  0  0  0  0  0  0
    1.7362   -0.6054   -3.2994 C   0  0  0  0  0  0  0  0  0  0  0  0
    2.4179    0.2281   -3.5013 H   0  0  0  0  0  0  0  0  0  0  0  0
    2.3001   -1.5388   -3.3949 H   0  0  0  0  0  0  0  0  0  0  0  0
    0.9440   -0.6004   -4.0560 H   0  0  0  0  0  0  0  0  0  0  0  0
  1  2  1  0  0  0  0
  2  3  1  0  0  0  0
  2  4  1  0  0  0  0
  2  5  1  0  0  0  0
  5  6  2  0  0  0  0
  5  7  1  0  0  0  0
  7  8  1  0  0  0  0
  7  9  1  0  0  0  0
  9 10  1  0  0  0  0
  9 11  1  0  0  0  0
  9 23  1  0  0  0  0
 11 12  1  0  0  0  0
 11 13  1  0  0  0  0
 11 14  1  0  0  0  0
 14 15  1  0  0  0  0
 14 21  2  0  0  0  0
 15 16  1  0  0  0  0
 15 17  2  0  0  0  0
 17 18  1  0  0  0  0
 17 19  1  0  0  0  0
 19 20  1  0  0  0  0
 19 21  1  0  0  0  0
 21 22  1  0  0  0  0
 23 24  2  0  0  0  0
 23 25  1  0  0  0  0
 25 26  1  0  0  0  0
 25 27  1  0  0  0  0
 27 28  1  0  0  0  0
 27 29  1  0  0  0  0
 27 30  1  0  0  0  0
M  CHG  1  15   1
M  END
$$$$

  -OEChem-01062216083D

 30 30  0     1  0  0  0  0  0999 V2000
   -3.8568   -2.1411    0.9728 H   0  0  0  0  0  0  0  0  0  0  0  0
   -3.5935   -1.2683    0.3681 C   0  0  0  0  0  0  0  0  0  0  0  0
   -4.1981   -0.4194    0.6967 H   0  0  0  0  0  0  0  0  0  0  0  0
   -3.8228   -1.4860   -0.6781 H   0  0  0  0  0  0  0  0  0  0  0  0
   -2.1184   -0.9495    0.5199 C   0  0  0  0  0  0  0  0  0  0  0  0
   -1.4180   -1.6816    1.1974 O   0  0  0  0  0  0  0  0  0  0  0  0
   -1.5866    0.1181   -0.1803 N   0  0  0  0  0  0  0  0  0  0  0  0
   -2.2514    0.5908   -0.7922 H   0  0  0  0  0  0  0  0  0  0  0  0
   -0.2146    0.6815   -0.1625 C   0  0  1  0  0  0  0  0  0  0  0  0
   -0.3565    1.7528    0.0151 H   0  0  0  0  0  0  0  0  0  0  0  0
    0.8037    0.2399    0.9170 C   0  0  0  0  0  0  0  0  0  0  0  0
    0.9492   -0.8438    0.8583 H   0  0  0  0  0  0  0  0  0  0  0  0
    1.7757    0.6978    0.7010 H   0  0  0  0  0  0  0  0  0  0  0  0
    0.3928    0.6256    2.3216 C   0  0  0  0  0  0  0  0  0  0  0  0
    0.4528    1.9109    2.8660 N   0  3  0  0  0  0  0  0  0  0  0  0
    0.7450    2.7313    2.3280 H   0  0  0  0  0  0  0  0  0  0  0  0
    0.1033    1.8900    4.1301 C   0  0  0  0  0  0  0  0  0  0  0  0
    0.0546    2.7471    4.8047 H   0  0  0  0  0  0  0  0  0  0  0  0
   -0.1852    0.5671    4.4556 N   0  0  0  0  0  0  0  0  0  0  0  0
   -0.4778    0.2244    5.3758 H   0  0  0  0  0  0  0  0  0  0  0  0
    0.0145   -0.2230    3.3317 C   0  0  0  0  0  0  0  0  0  0  0  0
   -0.1037   -1.3051    3.2495 H   0  0  0  0  0  0  0  0  0  0  0  0
    0.4178    0.6068   -1.5618 C   0  0  0  0  0  0  0  0  0  0  0  0
    0.5771    1.6425   -2.1880 O   0  0  0  0  0  0  0  0  0  0  0  0
    0.8742   -0.5948   -2.0704 N   0  0  0  0  0  0  0  0  0  0  0  0
    0.6380   -1.4413   -1.5575 H   0  0  0  0  0  0  0  0  0  0  0  0
    1.4744   -0.7216   -3.3958 C   0  0  0  0  0  0  0  0  0  0  0  0
    2.3441   -0.0620   -3.4897 H   0  0  0  0  0  0  0  0  0  0  0  0
    1.8060   -1.7507   -3.5670 H   0  0  0  0  0  0  0  0  0  0  0  0
    0.7496   -0.4575   -4.1735 H   0  0  0  0  0  0  0  0  0  0  0  0
  1  2  1  0  0  0  0
  2  3  1  0  0  0  0
  2  4  1  0  0  0  0
  2  5  1  0  0  0  0
  5  6  2  0  0  0  0
  5  7  1  0  0  0  0
  7  8  1  0  0  0  0
  7  9  1  0  0  0  0
  9 10  1  0  0  0  0
  9 11  1  0  0  0  0
  9 23  1  0  0  0  0
 11 12  1  0  0  0  0
 11 13  1  0  0  0  0
 11 14  1  0  0  0  0
 14 15  1  0  0  0  0
 14 21  2  0  0  0  0
 15 16  1  0  0  0  0
 15 17  2  0  0  0  0
 17 18  1  0  0  0  0
 17 19  1  0  0  0  0
 19 20  1  0  0  0  0
 19 21  1  0  0  0  0
 21 22  1  0  0  0  0
 23 24  2  0  0  0  0
 23 25  1  0  0  0  0
 25 26  1  0  0  0  0
 25 27  1  0  0  0  0
 27 28  1  0  0  0  0
 27 29  1  0  0  0  0
 27 30  1  0  0  0  0
M  CHG  1  15   1
M  END
$$$$

  -OEChem-01062216083D

 30 30  0     1  0  0  0  0  0999 V2000
   -3.8764   -2.1382    1.0251 H   0  0  0  0  0  0  0  0  0  0  0  0
   -3.6260   -1.2649    0.4159 C   0  0  0  0  0  0  0  0  0  0  0  0
   -4.2194   -0.4148    0.7608 H   0  0  0  0  0  0  0  0  0  0  0  0
   -3.8824   -1.4802   -0.6246 H   0  0  0  0  0  0  0  0  0  0  0  0
   -2.1469   -0.9500    0.5316 C   0  0  0  0  0  0  0  0  0  0  0  0
   -1.4308   -1.6876    1.1859 O   0  0  0  0  0  0  0  0  0  0  0  0
   -1.6294    0.1160   -0.1820 N   0  0  0  0  0  0  0  0  0  0  0  0
   -2.3122    0.5988   -0.7652 H   0  0  0  0  0  0  0  0  0  0  0  0
   -0.2602    0.6894   -0.1805 C   0  0  1  0  0  0  0  0  0  0  0  0
   -0.4067    1.7599   -0.0029 H   0  0  0  0  0  0  0  0  0  0  0  0
    0.7763    0.2492    0.8811 C   0  0  0  0  0  0  0  0  0  0  0  0
    0.9296   -0.8330    0.8114 H   0  0  0  0  0  0  0  0  0  0  0  0
    1.7418    0.7158    0.6535 H   0  0  0  0  0  0  0  0  0  0  0  0
    0.3857    0.6227    2.2939 C   0  0  0  0  0  0  0  0  0  0  0  0
    0.4467    1.9056    2.8430 N   0  3  0  0  0  0  0  0  0  0  0  0
    0.7275    2.7295    2.3041 H   0  0  0  0  0  0  0  0  0  0  0  0
    0.1243    1.8750    4.1140 C   0  0  0  0  0  0  0  0  0  0  0  0
    0.0862    2.7277    4.7946 H   0  0  0  0  0  0  0  0  0  0  0  0
   -0.1485    0.5483    4.4382 N   0  0  0  0  0  0  0  0  0  0  0  0
   -0.4160    0.1985    5.3633 H   0  0  0  0  0  0  0  0  0  0  0  0
    0.0334   -0.2344    3.3060 C   0  0  0  0  0  0  0  0  0  0  0  0
   -0.0766   -1.3173    3.2196 H   0  0  0  0  0  0  0  0  0  0  0  0
    0.3715    0.6138   -1.5788 C   0  0  0  0  0  0  0  0  0  0  0  0
    0.8114    1.6374   -2.0778 O   0  0  0  0  0  0  0  0  0  0  0  0
    0.5534   -0.6052   -2.2032 N   0  0  0  0  0  0  0  0  0  0  0  0
    0.1621   -1.4289   -1.7514 H   0  0  0  0  0  0  0  0  0  0  0  0
    1.2025   -0.7516   -3.5028 C   0  0  0  0  0  0  0  0  0  0  0  0
    2.2271   -0.3659   -3.4667 H   0  0  0  0  0  0  0  0  0  0  0  0
    1.2430   -1.8067   -3.7915 H   0  0  0  0  0  0  0  0  0  0  0  0
    0.6492   -0.2041   -4.2735 H   0  0  0  0  0  0  0  0  0  0  0  0
  1  2  1  0  0  0  0
  2  3  1  0  0  0  0
  2  4  1  0  0  0  0
  2  5  1  0  0  0  0
  5  6  2  0  0  0  0
  5  7  1  0  0  0  0
  7  8  1  0  0  0  0
  7  9  1  0  0  0  0
  9 10  1  0  0  0  0
  9 11  1  0  0  0  0
  9 23  1  0  0  0  0
 11 12  1  0  0  0  0
 11 13  1  0  0  0  0
 11 14  1  0  0  0  0
 14 15  1  0  0  0  0
 14 21  2  0  0  0  0
 15 16  1  0  0  0  0
 15 17  2  0  0  0  0
 17 18  1  0  0  0  0
 17 19  1  0  0  0  0
 19 20  1  0  0  0  0
 19 21  1  0  0  0  0
 21 22  1  0  0  0  0
 23 24  2  0  0  0  0
 23 25  1  0  0  0  0
 25 26  1  0  0  0  0
 25 27  1  0  0  0  0
 27 28  1  0  0  0  0
 27 29  1  0  0  0  0
 27 30  1  0  0  0  0
M  CHG  1  15   1
M  END
$$$$

  -OEChem-01062216083D

 30 30  0     1  0  0  0  0  0999 V2000
   -3.8842   -2.1413    1.0655 H   0  0  0  0  0  0  0  0  0  0  0  0
   -3.6447   -1.2677    0.4522 C   0  0  0  0  0  0  0  0  0  0  0  0
   -4.2347   -0.4190    0.8065 H   0  0  0  0  0  0  0  0  0  0  0  0
   -3.9167   -1.4846   -0.5839 H   0  0  0  0  0  0  0  0  0  0  0  0
   -2.1642   -0.9508    0.5457 C   0  0  0  0  0  0  0  0  0  0  0  0
   -1.4390   -1.6885    1.1892 O   0  0  0  0  0  0  0  0  0  0  0  0
   -1.6585    0.1157   -0.1762 N   0  0  0  0  0  0  0  0  0  0  0  0
   -2.3524    0.5998   -0.7446 H   0  0  0  0  0  0  0  0  0  0  0  0
   -0.2913    0.6970   -0.1909 C   0  0  1  0  0  0  0  0  0  0  0  0
   -0.4396    1.7671   -0.0131 H   0  0  0  0  0  0  0  0  0  0  0  0
    0.7554    0.2557    0.8609 C   0  0  0  0  0  0  0  0  0  0  0  0
    0.9108   -0.8258    0.7832 H   0  0  0  0  0  0  0  0  0  0  0  0
    1.7181    0.7250    0.6280 H   0  0  0  0  0  0  0  0  0  0  0  0
    0.3801    0.6223    2.2796 C   0  0  0  0  0  0  0  0  0  0  0  0
    0.4457    1.9031    2.8324 N   0  3  0  0  0  0  0  0  0  0  0  0
    0.7286    2.7273    2.2952 H   0  0  0  0  0  0  0  0  0  0  0  0
    0.1408    1.8672    4.1077 C   0  0  0  0  0  0  0  0  0  0  0  0
    0.1168    2.7162    4.7936 H   0  0  0  0  0  0  0  0  0  0  0  0
   -0.1314    0.5395    4.4293 N   0  0  0  0  0  0  0  0  0  0  0  0
   -0.3891    0.1856    5.3556 H   0  0  0  0  0  0  0  0  0  0  0  0
    0.0402   -0.2387    3.2926 C   0  0  0  0  0  0  0  0  0  0  0  0
   -0.0682   -1.3214    3.2033 H   0  0  0  0  0  0  0  0  0  0  0  0
    0.3379    0.6266   -1.5912 C   0  0  0  0  0  0  0  0  0  0  0  0
    0.9984    1.5774   -1.9793 O   0  0  0  0  0  0  0  0  0  0  0  0
    0.2552   -0.5260   -2.3485 N   0  0  0  0  0  0  0  0  0  0  0  0
   -0.2557   -1.3121   -1.9533 H   0  0  0  0  0  0  0  0  0  0  0  0
    0.9144   -0.6860   -3.6413 C   0  0  0  0  0  0  0  0  0  0  0  0
    2.0015   -0.6077   -3.5312 H   0  0  0  0  0  0  0  0  0  0  0  0
    0.6809   -1.6663   -4.0688 H   0  0  0  0  0  0  0  0  0  0  0  0
    0.5772    0.0843   -4.3434 H   0  0  0  0  0  0  0  0  0  0  0  0
  1  2  1  0  0  0  0
  2  3  1  0  0  0  0
  2  4  1  0  0  0  0
  2  5  1  0  0  0  0
  5  6  2  0  0  0  0
  5  7  1  0  0  0  0
  7  8  1  0  0  0  0
  7  9  1  0  0  0  0
  9 10  1  0  0  0  0
  9 11  1  0  0  0  0
  9 23  1  0  0  0  0
 11 12  1  0  0  0  0
 11 13  1  0  0  0  0
 11 14  1  0  0  0  0
 14 15  1  0  0  0  0
 14 21  2  0  0  0  0
 15 16  1  0  0  0  0
 15 17  2  0  0  0  0
 17 18  1  0  0  0  0
 17 19  1  0  0  0  0
 19 20  1  0  0  0  0
 19 21  1  0  0  0  0
 21 22  1  0  0  0  0
 23 24  2  0  0  0  0
 23 25  1  0  0  0  0
 25 26  1  0  0  0  0
 25 27  1  0  0  0  0
 27 28  1  0  0  0  0
 27 29  1  0  0  0  0
 27 30  1  0  0  0  0
M  CHG  1  15   1
M  END
$$$$

  -OEChem-01062216083D

 30 30  0     1  0  0  0  0  0999 V2000
   -3.8898   -2.1385    1.0957 H   0  0  0  0  0  0  0  0  0  0  0  0
   -3.6543   -1.2669    0.4782 C   0  0  0  0  0  0  0  0  0  0  0  0
   -4.2374   -0.4158    0.8378 H   0  0  0  0  0  0  0  0  0  0  0  0
   -3.9388   -1.4841   -0.5545 H   0  0  0  0  0  0  0  0  0  0  0  0
   -2.1720   -0.9542    0.5551 C   0  0  0  0  0  0  0  0  0  0  0  0
   -1.4439   -1.6932    1.1931 O   0  0  0  0  0  0  0  0  0  0  0  0
   -1.6733    0.1132   -0.1713 N   0  0  0  0  0  0  0  0  0  0  0  0
   -2.3759    0.6028   -0.7240 H   0  0  0  0  0  0  0  0  0  0  0  0
   -0.3075    0.7016   -0.1964 C   0  0  1  0  0  0  0  0  0  0  0  0
   -0.4565    1.7715   -0.0186 H   0  0  0  0  0  0  0  0  0  0  0  0
    0.7432    0.2585    0.8532 C   0  0  0  0  0  0  0  0  0  0  0  0
    0.8980   -0.8226    0.7716 H   0  0  0  0  0  0  0  0  0  0  0  0
    1.7068    0.7269    0.6207 H   0  0  0  0  0  0  0  0  0  0  0  0
    0.3738    0.6210    2.2746 C   0  0  0  0  0  0  0  0  0  0  0  0
    0.4417    1.9008    2.8296 N   0  3  0  0  0  0  0  0  0  0  0  0
    0.7220    2.7255    2.2919 H   0  0  0  0  0  0  0  0  0  0  0  0
    0.1469    1.8622    4.1073 C   0  0  0  0  0  0  0  0  0  0  0  0
    0.1270    2.7100    4.7950 H   0  0  0  0  0  0  0  0  0  0  0  0
   -0.1204    0.5334    4.4283 N   0  0  0  0  0  0  0  0  0  0  0  0
   -0.3649    0.1768    5.3571 H   0  0  0  0  0  0  0  0  0  0  0  0
    0.0436   -0.2425    3.2886 C   0  0  0  0  0  0  0  0  0  0  0  0
   -0.0611   -1.3256    3.1982 H   0  0  0  0  0  0  0  0  0  0  0  0
    0.3223    0.6363   -1.5987 C   0  0  0  0  0  0  0  0  0  0  0  0
    1.1481    1.4834   -1.9024 O   0  0  0  0  0  0  0  0  0  0  0  0
    0.0026   -0.3767   -2.4825 N   0  0  0  0  0  0  0  0  0  0  0  0
   -0.6122   -1.1132   -2.1451 H   0  0  0  0  0  0  0  0  0  0  0  0
    0.6338   -0.5267   -3.7906 C   0  0  0  0  0  0  0  0  0  0  0  0
    1.7066   -0.7182   -3.6803 H   0  0  0  0  0  0  0  0  0  0  0  0
    0.1872   -1.3648   -4.3351 H   0  0  0  0  0  0  0  0  0  0  0  0
    0.5000    0.3811   -4.3889 H   0  0  0  0  0  0  0  0  0  0  0  0
  1  2  1  0  0  0  0
  2  3  1  0  0  0  0
  2  4  1  0  0  0  0
  2  5  1  0  0  0  0
  5  6  2  0  0  0  0
  5  7  1  0  0  0  0
  7  8  1  0  0  0  0
  7  9  1  0  0  0  0
  9 10  1  0  0  0  0
  9 11  1  0  0  0  0
  9 23  1  0  0  0  0
 11 12  1  0  0  0  0
 11 13  1  0  0  0  0
 11 14  1  0  0  0  0
 14 15  1  0  0  0  0
 14 21  2  0  0  0  0
 15 16  1  0  0  0  0
 15 17  2  0  0  0  0
 17 18  1  0  0  0  0
 17 19  1  0  0  0  0
 19 20  1  0  0  0  0
 19 21  1  0  0  0  0
 21 22  1  0  0  0  0
 23 24  2  0  0  0  0
 23 25  1  0  0  0  0
 25 26  1  0  0  0  0
 25 27  1  0  0  0  0
 27 28  1  0  0  0  0
 27 29  1  0  0  0  0
 27 30  1  0  0  0  0
M  CHG  1  15   1
M  END
$$$$

  -OEChem-01062216083D

 30 30  0     1  0  0  0  0  0999 V2000
   -3.8845   -2.1396    1.1175 H   0  0  0  0  0  0  0  0  0  0  0  0
   -3.6531   -1.2699    0.4954 C   0  0  0  0  0  0  0  0  0  0  0  0
   -4.2329   -0.4171    0.8563 H   0  0  0  0  0  0  0  0  0  0  0  0
   -3.9452   -1.4907   -0.5344 H   0  0  0  0  0  0  0  0  0  0  0  0
   -2.1697   -0.9596    0.5601 C   0  0  0  0  0  0  0  0  0  0  0  0
   -1.4376   -1.7022    1.1889 O   0  0  0  0  0  0  0  0  0  0  0  0
   -1.6777    0.1110   -0.1668 N   0  0  0  0  0  0  0  0  0  0  0  0
   -2.3892    0.6106   -0.6985 H   0  0  0  0  0  0  0  0  0  0  0  0
   -0.3132    0.7049   -0.1999 C   0  0  1  0  0  0  0  0  0  0  0  0
   -0.4633    1.7740   -0.0206 H   0  0  0  0  0  0  0  0  0  0  0  0
    0.7373    0.2588    0.8513 C   0  0  0  0  0  0  0  0  0  0  0  0
    0.8921   -0.8222    0.7672 H   0  0  0  0  0  0  0  0  0  0  0  0
    1.7030    0.7247    0.6241 H   0  0  0  0  0  0  0  0  0  0  0  0
    0.3693    0.6195    2.2731 C   0  0  0  0  0  0  0  0  0  0  0  0
    0.4402    1.8987    2.8288 N   0  3  0  0  0  0  0  0  0  0  0  0
    0.7299    2.7219    2.2937 H   0  0  0  0  0  0  0  0  0  0  0  0
    0.1498    1.8588    4.1074 C   0  0  0  0  0  0  0  0  0  0  0  0
    0.1378    2.7051    4.7970 H   0  0  0  0  0  0  0  0  0  0  0  0
   -0.1213    0.5304    4.4269 N   0  0  0  0  0  0  0  0  0  0  0  0
   -0.3638    0.1726    5.3558 H   0  0  0  0  0  0  0  0  0  0  0  0
    0.0390   -0.2446    3.2863 C   0  0  0  0  0  0  0  0  0  0  0  0
   -0.0667   -1.3275    3.1953 H   0  0  0  0  0  0  0  0  0  0  0  0
    0.3137    0.6474   -1.6065 C   0  0  0  0  0  0  0  0  0  0  0  0
    1.2735    1.3649   -1.8447 O   0  0  0  0  0  0  0  0  0  0  0  0
   -0.2096   -0.1614   -2.5977 N   0  0  0  0  0  0  0  0  0  0  0  0
   -0.9265   -0.8266   -2.3204 H   0  0  0  0  0  0  0  0  0  0  0  0
    0.3879   -0.2838   -3.9245 C   0  0  0  0  0  0  0  0  0  0  0  0
    1.3925   -0.7147   -3.8549 H   0  0  0  0  0  0  0  0  0  0  0  0
   -0.2239   -0.9319   -4.5600 H   0  0  0  0  0  0  0  0  0  0  0  0
    0.4607    0.6976   -4.4059 H   0  0  0  0  0  0  0  0  0  0  0  0
  1  2  1  0  0  0  0
  2  3  1  0  0  0  0
  2  4  1  0  0  0  0
  2  5  1  0  0  0  0
  5  6  2  0  0  0  0
  5  7  1  0  0  0  0
  7  8  1  0  0  0  0
  7  9  1  0  0  0  0
  9 10  1  0  0  0  0
  9 11  1  0  0  0  0
  9 23  1  0  0  0  0
 11 12  1  0  0  0  0
 11 13  1  0  0  0  0
 11 14  1  0  0  0  0
 14 15  1  0  0  0  0
 14 21  2  0  0  0  0
 15 16  1  0  0  0  0
 15 17  2  0  0  0  0
 17 18  1  0  0  0  0
 17 19  1  0  0  0  0
 19 20  1  0  0  0  0
 19 21  1  0  0  0  0
 21 22  1  0  0  0  0
 23 24  2  0  0  0  0
 23 25  1  0  0  0  0
 25 26  1  0  0  0  0
 25 27  1  0  0  0  0
 27 28  1  0  0  0  0
 27 29  1  0  0  0  0
 27 30  1  0  0  0  0
M  CHG  1  15   1
M  END
$$$$

  -OEChem-01062216083D

 30 30  0     1  0  0  0  0  0999 V2000
   -3.8772   -2.1370    1.1231 H   0  0  0  0  0  0  0  0  0  0  0  0
   -3.6456   -1.2687    0.4991 C   0  0  0  0  0  0  0  0  0  0  0  0
   -4.2202   -0.4135    0.8625 H   0  0  0  0  0  0  0  0  0  0  0  0
   -3.9437   -1.4892   -0.5289 H   0  0  0  0  0  0  0  0  0  0  0  0
   -2.1608   -0.9630    0.5560 C   0  0  0  0  0  0  0  0  0  0  0  0
   -1.4297   -1.7056    1.1857 O   0  0  0  0  0  0  0  0  0  0  0  0
   -1.6722    0.1102   -0.1702 N   0  0  0  0  0  0  0  0  0  0  0  0
   -2.3911    0.6205   -0.6808 H   0  0  0  0  0  0  0  0  0  0  0  0
   -0.3092    0.7101   -0.2052 C   0  0  1  0  0  0  0  0  0  0  0  0
   -0.4604    1.7790   -0.0271 H   0  0  0  0  0  0  0  0  0  0  0  0
    0.7374    0.2621    0.8534 C   0  0  0  0  0  0  0  0  0  0  0  0
    0.8930   -0.8184    0.7668 H   0  0  0  0  0  0  0  0  0  0  0  0
    1.7050    0.7280    0.6365 H   0  0  0  0  0  0  0  0  0  0  0  0
    0.3662    0.6200    2.2756 C   0  0  0  0  0  0  0  0  0  0  0  0
    0.4363    1.8973    2.8359 N   0  3  0  0  0  0  0  0  0  0  0  0
    0.7272    2.7221    2.3040 H   0  0  0  0  0  0  0  0  0  0  0  0
    0.1462    1.8534    4.1144 C   0  0  0  0  0  0  0  0  0  0  0  0
    0.1338    2.6974    4.8067 H   0  0  0  0  0  0  0  0  0  0  0  0
   -0.1245    0.5241    4.4295 N   0  0  0  0  0  0  0  0  0  0  0  0
   -0.3667    0.1634    5.3573 H   0  0  0  0  0  0  0  0  0  0  0  0
    0.0376   -0.2473    3.2868 C   0  0  0  0  0  0  0  0  0  0  0  0
   -0.0645   -1.3303    3.1932 H   0  0  0  0  0  0  0  0  0  0  0  0
    0.3141    0.6547   -1.6171 C   0  0  0  0  0  0  0  0  0  0  0  0
    1.3826    1.2155   -1.8100 O   0  0  0  0  0  0  0  0  0  0  0  0
   -0.3654    0.0966   -2.6845 N   0  0  0  0  0  0  0  0  0  0  0  0
   -1.1780   -0.4720   -2.4638 H   0  0  0  0  0  0  0  0  0  0  0  0
    0.1957    0.0188   -4.0310 C   0  0  0  0  0  0  0  0  0  0  0  0
    1.0966   -0.6043   -4.0367 H   0  0  0  0  0  0  0  0  0  0  0  0
   -0.5317   -0.4177   -4.7225 H   0  0  0  0  0  0  0  0  0  0  0  0
    0.4587    1.0173   -4.3972 H   0  0  0  0  0  0  0  0  0  0  0  0
  1  2  1  0  0  0  0
  2  3  1  0  0  0  0
  2  4  1  0  0  0  0
  2  5  1  0  0  0  0
  5  6  2  0  0  0  0
  5  7  1  0  0  0  0
  7  8  1  0  0  0  0
  7  9  1  0  0  0  0
  9 10  1  0  0  0  0
  9 11  1  0  0  0  0
  9 23  1  0  0  0  0
 11 12  1  0  0  0  0
 11 13  1  0  0  0  0
 11 14  1  0  0  0  0
 14 15  1  0  0  0  0
 14 21  2  0  0  0  0
 15 16  1  0  0  0  0
 15 17  2  0  0  0  0
 17 18  1  0  0  0  0
 17 19  1  0  0  0  0
 19 20  1  0  0  0  0
 19 21  1  0  0  0  0
 21 22  1  0  0  0  0
 23 24  2  0  0  0  0
 23 25  1  0  0  0  0
 25 26  1  0  0  0  0
 25 27  1  0  0  0  0
 27 28  1  0  0  0  0
 27 29  1  0  0  0  0
 27 30  1  0  0  0  0
M  CHG  1  15   1
M  END
$$$$

  -OEChem-01062216083D

 30 30  0     1  0  0  0  0  0999 V2000
   -3.8634   -2.1454    1.1093 H   0  0  0  0  0  0  0  0  0  0  0  0
   -3.6350   -1.2744    0.4881 C   0  0  0  0  0  0  0  0  0  0  0  0
   -4.2149   -0.4232    0.8530 H   0  0  0  0  0  0  0  0  0  0  0  0
   -3.9304   -1.4948   -0.5408 H   0  0  0  0  0  0  0  0  0  0  0  0
   -2.1513   -0.9628    0.5476 C   0  0  0  0  0  0  0  0  0  0  0  0
   -1.4205   -1.7054    1.1775 O   0  0  0  0  0  0  0  0  0  0  0  0
   -1.6659    0.1146   -0.1754 N   0  0  0  0  0  0  0  0  0  0  0  0
   -2.3912    0.6363   -0.6640 H   0  0  0  0  0  0  0  0  0  0  0  0
   -0.3036    0.7173   -0.2093 C   0  0  1  0  0  0  0  0  0  0  0  0
   -0.4544    1.7856   -0.0296 H   0  0  0  0  0  0  0  0  0  0  0  0
    0.7372    0.2672    0.8571 C   0  0  0  0  0  0  0  0  0  0  0  0
    0.8956   -0.8129    0.7682 H   0  0  0  0  0  0  0  0  0  0  0  0
    1.7065    0.7345    0.6519 H   0  0  0  0  0  0  0  0  0  0  0  0
    0.3613    0.6237    2.2782 C   0  0  0  0  0  0  0  0  0  0  0  0
    0.4304    1.8989    2.8431 N   0  3  0  0  0  0  0  0  0  0  0  0
    0.7237    2.7253    2.3153 H   0  0  0  0  0  0  0  0  0  0  0  0
    0.1445    1.8490    4.1224 C   0  0  0  0  0  0  0  0  0  0  0  0
    0.1362    2.6892    4.8192 H   0  0  0  0  0  0  0  0  0  0  0  0
   -0.1250    0.5185    4.4330 N   0  0  0  0  0  0  0  0  0  0  0  0
   -0.3614    0.1529    5.3604 H   0  0  0  0  0  0  0  0  0  0  0  0
    0.0353   -0.2476    3.2867 C   0  0  0  0  0  0  0  0  0  0  0  0
   -0.0640   -1.3305    3.1888 H   0  0  0  0  0  0  0  0  0  0  0  0
    0.3142    0.6647   -1.6277 C   0  0  0  0  0  0  0  0  0  0  0  0
    1.4731    1.0182   -1.7885 O   0  0  0  0  0  0  0  0  0  0  0  0
   -0.4630    0.3974   -2.7409 N   0  0  0  0  0  0  0  0  0  0  0  0
   -1.3727   -0.0220   -2.5761 H   0  0  0  0  0  0  0  0  0  0  0  0
    0.0814    0.3603   -4.0965 C   0  0  0  0  0  0  0  0  0  0  0  0
    0.8381   -0.4268   -4.1865 H   0  0  0  0  0  0  0  0  0  0  0  0
   -0.7138    0.1603   -4.8213 H   0  0  0  0  0  0  0  0  0  0  0  0
    0.5436    1.3200   -4.3524 H   0  0  0  0  0  0  0  0  0  0  0  0
  1  2  1  0  0  0  0
  2  3  1  0  0  0  0
  2  4  1  0  0  0  0
  2  5  1  0  0  0  0
  5  6  2  0  0  0  0
  5  7  1  0  0  0  0
  7  8  1  0  0  0  0
  7  9  1  0  0  0  0
  9 10  1  0  0  0  0
  9 11  1  0  0  0  0
  9 23  1  0  0  0  0
 11 12  1  0  0  0  0
 11 13  1  0  0  0  0
 11 14  1  0  0  0  0
 14 15  1  0  0  0  0
 14 21  2  0  0  0  0
 15 16  1  0  0  0  0
 15 17  2  0  0  0  0
 17 18  1  0  0  0  0
 17 19  1  0  0  0  0
 19 20  1  0  0  0  0
 19 21  1  0  0  0  0
 21 22  1  0  0  0  0
 23 24  2  0  0  0  0
 23 25  1  0  0  0  0
 25 26  1  0  0  0  0
 25 27  1  0  0  0  0
 27 28  1  0  0  0  0
 27 29  1  0  0  0  0
 27 30  1  0  0  0  0
M  CHG  1  15   1
M  END
$$$$

  -OEChem-01062216083D

 30 30  0     1  0  0  0  0  0999 V2000
   -3.8448   -2.1526    1.0827 H   0  0  0  0  0  0  0  0  0  0  0  0
   -3.6164   -1.2793    0.4646 C   0  0  0  0  0  0  0  0  0  0  0  0
   -4.2017   -0.4314    0.8276 H   0  0  0  0  0  0  0  0  0  0  0  0
   -3.9043   -1.4989   -0.5667 H   0  0  0  0  0  0  0  0  0  0  0  0
   -2.1348   -0.9613    0.5333 C   0  0  0  0  0  0  0  0  0  0  0  0
   -1.4057   -1.7006    1.1688 O   0  0  0  0  0  0  0  0  0  0  0  0
   -1.6531    0.1225   -0.1829 N   0  0  0  0  0  0  0  0  0  0  0  0
   -2.3827    0.6420   -0.6655 H   0  0  0  0  0  0  0  0  0  0  0  0
   -0.2932    0.7315   -0.2110 C   0  0  1  0  0  0  0  0  0  0  0  0
   -0.4465    1.7987   -0.0274 H   0  0  0  0  0  0  0  0  0  0  0  0
    0.7443    0.2804    0.8601 C   0  0  0  0  0  0  0  0  0  0  0  0
    0.9078   -0.7985    0.7655 H   0  0  0  0  0  0  0  0  0  0  0  0
    1.7124    0.7534    0.6626 H   0  0  0  0  0  0  0  0  0  0  0  0
    0.3629    0.6293    2.2823 C   0  0  0  0  0  0  0  0  0  0  0  0
    0.4256    1.9010    2.8560 N   0  3  0  0  0  0  0  0  0  0  0  0
    0.7213    2.7312    2.3360 H   0  0  0  0  0  0  0  0  0  0  0  0
    0.1347    1.8417    4.1337 C   0  0  0  0  0  0  0  0  0  0  0  0
    0.1213    2.6774    4.8359 H   0  0  0  0  0  0  0  0  0  0  0  0
   -0.1320    0.5083    4.4344 N   0  0  0  0  0  0  0  0  0  0  0  0
   -0.3722    0.1359    5.3580 H   0  0  0  0  0  0  0  0  0  0  0  0
    0.0370   -0.2498    3.2842 C   0  0  0  0  0  0  0  0  0  0  0  0
   -0.0562   -1.3326    3.1795 H   0  0  0  0  0  0  0  0  0  0  0  0
    0.3171    0.6832   -1.6351 C   0  0  0  0  0  0  0  0  0  0  0  0
    1.5267    0.7750   -1.7848 O   0  0  0  0  0  0  0  0  0  0  0  0
   -0.4906    0.7243   -2.7585 N   0  0  0  0  0  0  0  0  0  0  0  0
   -1.4770    0.5270   -2.6293 H   0  0  0  0  0  0  0  0  0  0  0  0
    0.0441    0.7059   -4.1185 C   0  0  0  0  0  0  0  0  0  0  0  0
    0.6086   -0.2157   -4.2970 H   0  0  0  0  0  0  0  0  0  0  0  0
   -0.7690    0.7606   -4.8492 H   0  0  0  0  0  0  0  0  0  0  0  0
    0.7095    1.5605   -4.2829 H   0  0  0  0  0  0  0  0  0  0  0  0
  1  2  1  0  0  0  0
  2  3  1  0  0  0  0
  2  4  1  0  0  0  0
  2  5  1  0  0  0  0
  5  6  2  0  0  0  0
  5  7  1  0  0  0  0
  7  8  1  0  0  0  0
  7  9  1  0  0  0  0
  9 10  1  0  0  0  0
  9 11  1  0  0  0  0
  9 23  1  0  0  0  0
 11 12  1  0  0  0  0
 11 13  1  0  0  0  0
 11 14  1  0  0  0  0
 14 15  1  0  0  0  0
 14 21  2  0  0  0  0
 15 16  1  0  0  0  0
 15 17  2  0  0  0  0
 17 18  1  0  0  0  0
 17 19  1  0  0  0  0
 19 20  1  0  0  0  0
 19 21  1  0  0  0  0
 21 22  1  0  0  0  0
 23 24  2  0  0  0  0
 23 25  1  0  0  0  0
 25 26  1  0  0  0  0
 25 27  1  0  0  0  0
 27 28  1  0  0  0  0
 27 29  1  0  0  0  0
 27 30  1  0  0  0  0
M  CHG  1  15   1
M  END
$$$$

  -OEChem-01062216083D

 30 30  0     1  0  0  0  0  0999 V2000
   -3.8446   -2.1811    0.9969 H   0  0  0  0  0  0  0  0  0  0  0  0
   -3.6088   -1.3067    0.3831 C   0  0  0  0  0  0  0  0  0  0  0  0
   -4.2381   -0.4735    0.7047 H   0  0  0  0  0  0  0  0  0  0  0  0
   -3.8333   -1.5439   -0.6599 H   0  0  0  0  0  0  0  0  0  0  0  0
   -2.1427   -0.9440    0.5284 C   0  0  0  0  0  0  0  0  0  0  0  0
   -1.4312   -1.6520    1.2170 O   0  0  0  0  0  0  0  0  0  0  0  0
   -1.6536    0.1412   -0.1805 N   0  0  0  0  0  0  0  0  0  0  0  0
   -2.3620    0.6051   -0.7430 H   0  0  0  0  0  0  0  0  0  0  0  0
   -0.2927    0.7466   -0.1995 C   0  0  1  0  0  0  0  0  0  0  0  0
   -0.4439    1.8134   -0.0131 H   0  0  0  0  0  0  0  0  0  0  0  0
    0.7458    0.2987    0.8717 C   0  0  0  0  0  0  0  0  0  0  0  0
    0.9089   -0.7806    0.7764 H   0  0  0  0  0  0  0  0  0  0  0  0
    1.7117    0.7728    0.6660 H   0  0  0  0  0  0  0  0  0  0  0  0
    0.3719    0.6438    2.2975 C   0  0  0  0  0  0  0  0  0  0  0  0
    0.4336    1.9124    2.8787 N   0  3  0  0  0  0  0  0  0  0  0  0
    0.7148    2.7481    2.3604 H   0  0  0  0  0  0  0  0  0  0  0  0
    0.1542    1.8450    4.1587 C   0  0  0  0  0  0  0  0  0  0  0  0
    0.1403    2.6770    4.8655 H   0  0  0  0  0  0  0  0  0  0  0  0
   -0.1007    0.5085    4.4548 N   0  0  0  0  0  0  0  0  0  0  0  0
   -0.3319    0.1294    5.3780 H   0  0  0  0  0  0  0  0  0  0  0  0
    0.0620   -0.2417    3.2989 C   0  0  0  0  0  0  0  0  0  0  0  0
   -0.0272   -1.3245    3.1891 H   0  0  0  0  0  0  0  0  0  0  0  0
    0.3109    0.6953   -1.6267 C   0  0  0  0  0  0  0  0  0  0  0  0
    1.4958    0.4446   -1.7907 O   0  0  0  0  0  0  0  0  0  0  0  0
   -0.4457    1.0463   -2.7322 N   0  0  0  0  0  0  0  0  0  0  0  0
   -1.4329    1.2356   -2.5994 H   0  0  0  0  0  0  0  0  0  0  0  0
    0.0825    1.0300   -4.0951 C   0  0  0  0  0  0  0  0  0  0  0  0
    0.4037    0.0194   -4.3705 H   0  0  0  0  0  0  0  0  0  0  0  0
   -0.6840    1.3540   -4.8061 H   0  0  0  0  0  0  0  0  0  0  0  0
    0.9404    1.7056   -4.1843 H   0  0  0  0  0  0  0  0  0  0  0  0
  1  2  1  0  0  0  0
  2  3  1  0  0  0  0
  2  4  1  0  0  0  0
  2  5  1  0  0  0  0
  5  6  2  0  0  0  0
  5  7  1  0  0  0  0
  7  8  1  0  0  0  0
  7  9  1  0  0  0  0
  9 10  1  0  0  0  0
  9 11  1  0  0  0  0
  9 23  1  0  0  0  0
 11 12  1  0  0  0  0
 11 13  1  0  0  0  0
 11 14  1  0  0  0  0
 14 15  1  0  0  0  0
 14 21  2  0  0  0  0
 15 16  1  0  0  0  0
 15 17  2  0  0  0  0
 17 18  1  0  0  0  0
 17 19  1  0  0  0  0
 19 20  1  0  0  0  0
 19 21  1  0  0  0  0
 21 22  1  0  0  0  0
 23 24  2  0  0  0  0
 23 25  1  0  0  0  0
 25 26  1  0  0  0  0
 25 27  1  0  0  0  0
 27 28  1  0  0  0  0
 27 29  1  0  0  0  0
 27 30  1  0  0  0  0
M  CHG  1  15   1
M  END
$$$$

  -OEChem-01062216083D

 30 30  0     1  0  0  0  0  0999 V2000
   -3.8592   -2.1822    0.9182 H   0  0  0  0  0  0  0  0  0  0  0  0
   -3.6051   -1.3191    0.2957 C   0  0  0  0  0  0  0  0  0  0  0  0
   -4.2742   -0.4943    0.5515 H   0  0  0  0  0  0  0  0  0  0  0  0
   -3.7544   -1.5907   -0.7525 H   0  0  0  0  0  0  0  0  0  0  0  0
   -2.1616   -0.9132    0.5255 C   0  0  0  0  0  0  0  0  0  0  0  0
   -1.4808   -1.5822    1.2804 O   0  0  0  0  0  0  0  0  0  0  0  0
   -1.6576    0.1678   -0.1791 N   0  0  0  0  0  0  0  0  0  0  0  0
   -2.3203    0.5527   -0.8477 H   0  0  0  0  0  0  0  0  0  0  0  0
   -0.2945    0.7653   -0.1868 C   0  0  1  0  0  0  0  0  0  0  0  0
   -0.4402    1.8323    0.0017 H   0  0  0  0  0  0  0  0  0  0  0  0
    0.7468    0.3160    0.8799 C   0  0  0  0  0  0  0  0  0  0  0  0
    0.9001   -0.7650    0.7835 H   0  0  0  0  0  0  0  0  0  0  0  0
    1.7129    0.7838    0.6603 H   0  0  0  0  0  0  0  0  0  0  0  0
    0.3841    0.6540    2.3117 C   0  0  0  0  0  0  0  0  0  0  0  0
    0.4496    1.9196    2.9002 N   0  3  0  0  0  0  0  0  0  0  0  0
    0.7204    2.7598    2.3838 H   0  0  0  0  0  0  0  0  0  0  0  0
    0.1804    1.8453    4.1822 C   0  0  0  0  0  0  0  0  0  0  0  0
    0.1668    2.6738    4.8929 H   0  0  0  0  0  0  0  0  0  0  0  0
   -0.0657    0.5067    4.4746 N   0  0  0  0  0  0  0  0  0  0  0  0
   -0.2915    0.1227    5.3971 H   0  0  0  0  0  0  0  0  0  0  0  0
    0.0896   -0.2368    3.3136 C   0  0  0  0  0  0  0  0  0  0  0  0
    0.0023   -1.3192    3.1998 H   0  0  0  0  0  0  0  0  0  0  0  0
    0.3040    0.7009   -1.6127 C   0  0  0  0  0  0  0  0  0  0  0  0
    1.3807    0.1592   -1.8134 O   0  0  0  0  0  0  0  0  0  0  0  0
   -0.3307    1.3333   -2.6687 N   0  0  0  0  0  0  0  0  0  0  0  0
   -1.2021    1.8215   -2.4887 H   0  0  0  0  0  0  0  0  0  0  0  0
    0.1959    1.3268   -4.0322 C   0  0  0  0  0  0  0  0  0  0  0  0
    0.3205    0.2993   -4.3918 H   0  0  0  0  0  0  0  0  0  0  0  0
   -0.4898    1.8458   -4.7093 H   0  0  0  0  0  0  0  0  0  0  0  0
    1.1676    1.8311   -4.0723 H   0  0  0  0  0  0  0  0  0  0  0  0
  1  2  1  0  0  0  0
  2  3  1  0  0  0  0
  2  4  1  0  0  0  0
  2  5  1  0  0  0  0
  5  6  2  0  0  0  0
  5  7  1  0  0  0  0
  7  8  1  0  0  0  0
  7  9  1  0  0  0  0
  9 10  1  0  0  0  0
  9 11  1  0  0  0  0
  9 23  1  0  0  0  0
 11 12  1  0  0  0  0
 11 13  1  0  0  0  0
 11 14  1  0  0  0  0
 14 15  1  0  0  0  0
 14 21  2  0  0  0  0
 15 16  1  0  0  0  0
 15 17  2  0  0  0  0
 17 18  1  0  0  0  0
 17 19  1  0  0  0  0
 19 20  1  0  0  0  0
 19 21  1  0  0  0  0
 21 22  1  0  0  0  0
 23 24  2  0  0  0  0
 23 25  1  0  0  0  0
 25 26  1  0  0  0  0
 25 27  1  0  0  0  0
 27 28  1  0  0  0  0
 27 29  1  0  0  0  0
 27 30  1  0  0  0  0
M  CHG  1  15   1
M  END
$$$$

  -OEChem-01062216083D

 30 30  0     1  0  0  0  0  0999 V2000
   -3.8610   -2.1799    0.8709 H   0  0  0  0  0  0  0  0  0  0  0  0
   -3.6004   -1.3192    0.2479 C   0  0  0  0  0  0  0  0  0  0  0  0
   -4.2899   -0.5025    0.4735 H   0  0  0  0  0  0  0  0  0  0  0  0
   -3.7121   -1.6036   -0.8016 H   0  0  0  0  0  0  0  0  0  0  0  0
   -2.1711   -0.8881    0.5193 C   0  0  0  0  0  0  0  0  0  0  0  0
   -1.5063   -1.5352    1.3066 O   0  0  0  0  0  0  0  0  0  0  0  0
   -1.6606    0.1908   -0.1835 N   0  0  0  0  0  0  0  0  0  0  0  0
   -2.3021    0.5460   -0.8891 H   0  0  0  0  0  0  0  0  0  0  0  0
   -0.3002    0.7914   -0.1802 C   0  0  1  0  0  0  0  0  0  0  0  0
   -0.4484    1.8574    0.0110 H   0  0  0  0  0  0  0  0  0  0  0  0
    0.7464    0.3436    0.8807 C   0  0  0  0  0  0  0  0  0  0  0  0
    0.9008   -0.7370    0.7791 H   0  0  0  0  0  0  0  0  0  0  0  0
    1.7099    0.8134    0.6540 H   0  0  0  0  0  0  0  0  0  0  0  0
    0.3912    0.6669    2.3179 C   0  0  0  0  0  0  0  0  0  0  0  0
    0.4504    1.9264    2.9205 N   0  3  0  0  0  0  0  0  0  0  0  0
    0.7063    2.7756    2.4115 H   0  0  0  0  0  0  0  0  0  0  0  0
    0.1900    1.8356    4.2034 C   0  0  0  0  0  0  0  0  0  0  0  0
    0.1714    2.6557    4.9234 H   0  0  0  0  0  0  0  0  0  0  0  0
   -0.0407    0.4918    4.4827 N   0  0  0  0  0  0  0  0  0  0  0  0
   -0.2594    0.0955    5.4015 H   0  0  0  0  0  0  0  0  0  0  0  0
    0.1140   -0.2370    3.3127 C   0  0  0  0  0  0  0  0  0  0  0  0
    0.0347   -1.3187    3.1867 H   0  0  0  0  0  0  0  0  0  0  0  0
    0.3021    0.7177   -1.6014 C   0  0  0  0  0  0  0  0  0  0  0  0
    1.2304   -0.0387   -1.8428 O   0  0  0  0  0  0  0  0  0  0  0  0
   -0.1387    1.5775   -2.5930 N   0  0  0  0  0  0  0  0  0  0  0  0
   -0.9039    2.2108   -2.3813 H   0  0  0  0  0  0  0  0  0  0  0  0
    0.4060    1.5696   -3.9492 C   0  0  0  0  0  0  0  0  0  0  0  0
    0.2552    0.5911   -4.4185 H   0  0  0  0  0  0  0  0  0  0  0  0
   -0.0899    2.3265   -4.5651 H   0  0  0  0  0  0  0  0  0  0  0  0
    1.4796    1.7874   -3.9344 H   0  0  0  0  0  0  0  0  0  0  0  0
  1  2  1  0  0  0  0
  2  3  1  0  0  0  0
  2  4  1  0  0  0  0
  2  5  1  0  0  0  0
  5  6  2  0  0  0  0
  5  7  1  0  0  0  0
  7  8  1  0  0  0  0
  7  9  1  0  0  0  0
  9 10  1  0  0  0  0
  9 11  1  0  0  0  0
  9 23  1  0  0  0  0
 11 12  1  0  0  0  0
 11 13  1  0  0  0  0
 11 14  1  0  0  0  0
 14 15  1  0  0  0  0
 14 21  2  0  0  0  0
 15 16  1  0  0  0  0
 15 17  2  0  0  0  0
 17 18  1  0  0  0  0
 17 19  1  0  0  0  0
 19 20  1  0  0  0  0
 19 21  1  0  0  0  0
 21 22  1  0  0  0  0
 23 24  2  0  0  0  0
 23 25  1  0  0  0  0
 25 26  1  0  0  0  0
 25 27  1  0  0  0  0
 27 28  1  0  0  0  0
 27 29  1  0  0  0  0
 27 30  1  0  0  0  0
M  CHG  1  15   1
M  END
$$$$

  -OEChem-01062216083D

 30 30  0     1  0  0  0  0  0999 V2000
   -3.8602   -2.1709    0.8443 H   0  0  0  0  0  0  0  0  0  0  0  0
   -3.5932   -1.3154    0.2170 C   0  0  0  0  0  0  0  0  0  0  0  0
   -4.2954   -0.5024    0.4159 H   0  0  0  0  0  0  0  0  0  0  0  0
   -3.6768   -1.6130   -0.8313 H   0  0  0  0  0  0  0  0  0  0  0  0
   -2.1752   -0.8672    0.5163 C   0  0  0  0  0  0  0  0  0  0  0  0
   -1.5234   -1.4980    1.3272 O   0  0  0  0  0  0  0  0  0  0  0  0
   -1.6619    0.2106   -0.1854 N   0  0  0  0  0  0  0  0  0  0  0  0
   -2.2914    0.5489   -0.9102 H   0  0  0  0  0  0  0  0  0  0  0  0
   -0.3048    0.8164   -0.1743 C   0  0  1  0  0  0  0  0  0  0  0  0
   -0.4586    1.8806    0.0220 H   0  0  0  0  0  0  0  0  0  0  0  0
    0.7465    0.3675    0.8792 C   0  0  0  0  0  0  0  0  0  0  0  0
    0.9029   -0.7124    0.7695 H   0  0  0  0  0  0  0  0  0  0  0  0
    1.7068    0.8421    0.6498 H   0  0  0  0  0  0  0  0  0  0  0  0
    0.3959    0.6746    2.3218 C   0  0  0  0  0  0  0  0  0  0  0  0
    0.4486    1.9279    2.9380 N   0  3  0  0  0  0  0  0  0  0  0  0
    0.6895    2.7855    2.4364 H   0  0  0  0  0  0  0  0  0  0  0  0
    0.1931    1.8221    4.2208 C   0  0  0  0  0  0  0  0  0  0  0  0
    0.1677    2.6354    4.9485 H   0  0  0  0  0  0  0  0  0  0  0  0
   -0.0229    0.4733    4.4876 N   0  0  0  0  0  0  0  0  0  0  0  0
   -0.2373    0.0653    5.4025 H   0  0  0  0  0  0  0  0  0  0  0  0
    0.1339   -0.2418    3.3097 C   0  0  0  0  0  0  0  0  0  0  0  0
    0.0616   -1.3227    3.1732 H   0  0  0  0  0  0  0  0  0  0  0  0
    0.3068    0.7396   -1.5900 C   0  0  0  0  0  0  0  0  0  0  0  0
    1.0353   -0.1927   -1.8918 O   0  0  0  0  0  0  0  0  0  0  0  0
    0.1137    1.7655   -2.4991 N   0  0  0  0  0  0  0  0  0  0  0  0
   -0.5145    2.5237   -2.2491 H   0  0  0  0  0  0  0  0  0  0  0  0
    0.6782    1.7437   -3.8471 C   0  0  0  0  0  0  0  0  0  0  0  0
    0.3060    0.8776   -4.4057 H   0  0  0  0  0  0  0  0  0  0  0  0
    0.4002    2.6510   -4.3927 H   0  0  0  0  0  0  0  0  0  0  0  0
    1.7718    1.6889   -3.8061 H   0  0  0  0  0  0  0  0  0  0  0  0
  1  2  1  0  0  0  0
  2  3  1  0  0  0  0
  2  4  1  0  0  0  0
  2  5  1  0  0  0  0
  5  6  2  0  0  0  0
  5  7  1  0  0  0  0
  7  8  1  0  0  0  0
  7  9  1  0  0  0  0
  9 10  1  0  0  0  0
  9 11  1  0  0  0  0
  9 23  1  0  0  0  0
 11 12  1  0  0  0  0
 11 13  1  0  0  0  0
 11 14  1  0  0  0  0
 14 15  1  0  0  0  0
 14 21  2  0  0  0  0
 15 16  1  0  0  0  0
 15 17  2  0  0  0  0
 17 18  1  0  0  0  0
 17 19  1  0  0  0  0
 19 20  1  0  0  0  0
 19 21  1  0  0  0  0
 21 22  1  0  0  0  0
 23 24  2  0  0  0  0
 23 25  1  0  0  0  0
 25 26  1  0  0  0  0
 25 27  1  0  0  0  0
 27 28  1  0  0  0  0
 27 29  1  0  0  0  0
 27 30  1  0  0  0  0
M  CHG  1  15   1
M  END
$$$$

  -OEChem-01062216083D

 30 30  0     1  0  0  0  0  0999 V2000
   -3.8599   -2.1632    0.8163 H   0  0  0  0  0  0  0  0  0  0  0  0
   -3.5856   -1.3143    0.1835 C   0  0  0  0  0  0  0  0  0  0  0  0
   -4.3020   -0.5067    0.3512 H   0  0  0  0  0  0  0  0  0  0  0  0
   -3.6379   -1.6285   -0.8621 H   0  0  0  0  0  0  0  0  0  0  0  0
   -2.1810   -0.8454    0.5135 C   0  0  0  0  0  0  0  0  0  0  0  0
   -1.5443   -1.4570    1.3508 O   0  0  0  0  0  0  0  0  0  0  0  0
   -1.6625    0.2293   -0.1884 N   0  0  0  0  0  0  0  0  0  0  0  0
   -2.2703    0.5374   -0.9448 H   0  0  0  0  0  0  0  0  0  0  0  0
   -0.3070    0.8375   -0.1675 C   0  0  1  0  0  0  0  0  0  0  0  0
   -0.4675    1.9006    0.0285 H   0  0  0  0  0  0  0  0  0  0  0  0
    0.7464    0.3878    0.8828 C   0  0  0  0  0  0  0  0  0  0  0  0
    0.9032   -0.6912    0.7653 H   0  0  0  0  0  0  0  0  0  0  0  0
    1.7052    0.8656    0.6554 H   0  0  0  0  0  0  0  0  0  0  0  0
    0.3989    0.6820    2.3294 C   0  0  0  0  0  0  0  0  0  0  0  0
    0.4470    1.9303    2.9561 N   0  3  0  0  0  0  0  0  0  0  0  0
    0.6721    2.7946    2.4591 H   0  0  0  0  0  0  0  0  0  0  0  0
    0.1986    1.8128    4.2392 C   0  0  0  0  0  0  0  0  0  0  0  0
    0.1678    2.6200    4.9733 H   0  0  0  0  0  0  0  0  0  0  0  0
   -0.0047    0.4604    4.4967 N   0  0  0  0  0  0  0  0  0  0  0  0
   -0.2157    0.0443    5.4086 H   0  0  0  0  0  0  0  0  0  0  0  0
    0.1514   -0.2439    3.3124 C   0  0  0  0  0  0  0  0  0  0  0  0
    0.0859   -1.3241    3.1678 H   0  0  0  0  0  0  0  0  0  0  0  0
    0.3179    0.7549   -1.5759 C   0  0  0  0  0  0  0  0  0  0  0  0
    0.7988   -0.2986   -1.9617 O   0  0  0  0  0  0  0  0  0  0  0  0
    0.4057    1.8751   -2.3843 N   0  0  0  0  0  0  0  0  0  0  0  0
   -0.0434    2.7324   -2.0759 H   0  0  0  0  0  0  0  0  0  0  0  0
    0.9822    1.8366   -3.7269 C   0  0  0  0  0  0  0  0  0  0  0  0
    0.4264    1.1403   -4.3648 H   0  0  0  0  0  0  0  0  0  0  0  0
    0.9462    2.8289   -4.1877 H   0  0  0  0  0  0  0  0  0  0  0  0
    2.0286    1.5142   -3.6877 H   0  0  0  0  0  0  0  0  0  0  0  0
  1  2  1  0  0  0  0
  2  3  1  0  0  0  0
  2  4  1  0  0  0  0
  2  5  1  0  0  0  0
  5  6  2  0  0  0  0
  5  7  1  0  0  0  0
  7  8  1  0  0  0  0
  7  9  1  0  0  0  0
  9 10  1  0  0  0  0
  9 11  1  0  0  0  0
  9 23  1  0  0  0  0
 11 12  1  0  0  0  0
 11 13  1  0  0  0  0
 11 14  1  0  0  0  0
 14 15  1  0  0  0  0
 14 21  2  0  0  0  0
 15 16  1  0  0  0  0
 15 17  2  0  0  0  0
 17 18  1  0  0  0  0
 17 19  1  0  0  0  0
 19 20  1  0  0  0  0
 19 21  1  0  0  0  0
 21 22  1  0  0  0  0
 23 24  2  0  0  0  0
 23 25  1  0  0  0  0
 25 26  1  0  0  0  0
 25 27  1  0  0  0  0
 27 28  1  0  0  0  0
 27 29  1  0  0  0  0
 27 30  1  0  0  0  0
M  CHG  1  15   1
M  END
$$$$

  -OEChem-01062216083D

 30 30  0     1  0  0  0  0  0999 V2000
   -3.8547   -2.1625    0.7871 H   0  0  0  0  0  0  0  0  0  0  0  0
   -3.5713   -1.3178    0.1526 C   0  0  0  0  0  0  0  0  0  0  0  0
   -4.2994   -0.5153    0.2913 H   0  0  0  0  0  0  0  0  0  0  0  0
   -3.5911   -1.6433   -0.8907 H   0  0  0  0  0  0  0  0  0  0  0  0
   -2.1811   -0.8310    0.5153 C   0  0  0  0  0  0  0  0  0  0  0  0
   -1.5613   -1.4264    1.3768 O   0  0  0  0  0  0  0  0  0  0  0  0
   -1.6555    0.2403   -0.1859 N   0  0  0  0  0  0  0  0  0  0  0  0
   -2.2395    0.5182   -0.9726 H   0  0  0  0  0  0  0  0  0  0  0  0
   -0.2985    0.8451   -0.1587 C   0  0  1  0  0  0  0  0  0  0  0  0
   -0.4625    1.9083    0.0336 H   0  0  0  0  0  0  0  0  0  0  0  0
    0.7536    0.3944    0.8902 C   0  0  0  0  0  0  0  0  0  0  0  0
    0.9084   -0.6847    0.7696 H   0  0  0  0  0  0  0  0  0  0  0  0
    1.7129    0.8723    0.6652 H   0  0  0  0  0  0  0  0  0  0  0  0
    0.4044    0.6868    2.3373 C   0  0  0  0  0  0  0  0  0  0  0  0
    0.4507    1.9341    2.9669 N   0  3  0  0  0  0  0  0  0  0  0  0
    0.6670    2.8012    2.4709 H   0  0  0  0  0  0  0  0  0  0  0  0
    0.1967    1.8144    4.2488 C   0  0  0  0  0  0  0  0  0  0  0  0
    0.1573    2.6214    4.9828 H   0  0  0  0  0  0  0  0  0  0  0  0
   -0.0015    0.4611    4.5045 N   0  0  0  0  0  0  0  0  0  0  0  0
   -0.2170    0.0434    5.4147 H   0  0  0  0  0  0  0  0  0  0  0  0
    0.1594   -0.2409    3.3196 C   0  0  0  0  0  0  0  0  0  0  0  0
    0.0948   -1.3212    3.1738 H   0  0  0  0  0  0  0  0  0  0  0  0
    0.3350    0.7574   -1.5630 C   0  0  0  0  0  0  0  0  0  0  0  0
    0.5269   -0.3376   -2.0669 O   0  0  0  0  0  0  0  0  0  0  0  0
    0.7154    1.8963   -2.2520 N   0  0  0  0  0  0  0  0  0  0  0  0
    0.4871    2.8032   -1.8557 H   0  0  0  0  0  0  0  0  0  0  0  0
    1.2898    1.8505   -3.5956 C   0  0  0  0  0  0  0  0  0  0  0  0
    0.5816    1.4037   -4.3020 H   0  0  0  0  0  0  0  0  0  0  0  0
    1.5319    2.8600   -3.9429 H   0  0  0  0  0  0  0  0  0  0  0  0
    2.2103    1.2564   -3.6017 H   0  0  0  0  0  0  0  0  0  0  0  0
  1  2  1  0  0  0  0
  2  3  1  0  0  0  0
  2  4  1  0  0  0  0
  2  5  1  0  0  0  0
  5  6  2  0  0  0  0
  5  7  1  0  0  0  0
  7  8  1  0  0  0  0
  7  9  1  0  0  0  0
  9 10  1  0  0  0  0
  9 11  1  0  0  0  0
  9 23  1  0  0  0  0
 11 12  1  0  0  0  0
 11 13  1  0  0  0  0
 11 14  1  0  0  0  0
 14 15  1  0  0  0  0
 14 21  2  0  0  0  0
 15 16  1  0  0  0  0
 15 17  2  0  0  0  0
 17 18  1  0  0  0  0
 17 19  1  0  0  0  0
 19 20  1  0  0  0  0
 19 21  1  0  0  0  0
 21 22  1  0  0  0  0
 23 24  2  0  0  0  0
 23 25  1  0  0  0  0
 25 26  1  0  0  0  0
 25 27  1  0  0  0  0
 27 28  1  0  0  0  0
 27 29  1  0  0  0  0
 27 30  1  0  0  0  0
M  CHG  1  15   1
M  END
$$$$

  -OEChem-01062216083D

 30 30  0     1  0  0  0  0  0999 V2000
   -3.8466   -2.1697    0.7615 H   0  0  0  0  0  0  0  0  0  0  0  0
   -3.5570   -1.3254    0.1296 C   0  0  0  0  0  0  0  0  0  0  0  0
   -4.2936   -0.5278    0.2503 H   0  0  0  0  0  0  0  0  0  0  0  0
   -3.5539   -1.6554   -0.9124 H   0  0  0  0  0  0  0  0  0  0  0  0
   -2.1782   -0.8264    0.5179 C   0  0  0  0  0  0  0  0  0  0  0  0
   -1.5715   -1.4124    1.3953 O   0  0  0  0  0  0  0  0  0  0  0  0
   -1.6434    0.2414   -0.1809 N   0  0  0  0  0  0  0  0  0  0  0  0
   -2.1991    0.4876   -0.9987 H   0  0  0  0  0  0  0  0  0  0  0  0
   -0.2810    0.8341   -0.1520 C   0  0  1  0  0  0  0  0  0  0  0  0
   -0.4411    1.8992    0.0342 H   0  0  0  0  0  0  0  0  0  0  0  0
    0.7641    0.3815    0.9025 C   0  0  0  0  0  0  0  0  0  0  0  0
    0.9086   -0.6997    0.7905 H   0  0  0  0  0  0  0  0  0  0  0  0
    1.7289    0.8497    0.6796 H   0  0  0  0  0  0  0  0  0  0  0  0
    0.4099    0.6877    2.3459 C   0  0  0  0  0  0  0  0  0  0  0  0
    0.4623    1.9390    2.9677 N   0  3  0  0  0  0  0  0  0  0  0  0
    0.6780    2.8030    2.4664 H   0  0  0  0  0  0  0  0  0  0  0  0
    0.1984    1.8304    4.2485 C   0  0  0  0  0  0  0  0  0  0  0  0
    0.1559    2.6431    4.9760 H   0  0  0  0  0  0  0  0  0  0  0  0
   -0.0094    0.4802    4.5126 N   0  0  0  0  0  0  0  0  0  0  0  0
   -0.2367    0.0706    5.4237 H   0  0  0  0  0  0  0  0  0  0  0  0
    0.1523   -0.2312    3.3334 C   0  0  0  0  0  0  0  0  0  0  0  0
    0.0778   -1.3119    3.1953 H   0  0  0  0  0  0  0  0  0  0  0  0
    0.3540    0.7446   -1.5566 C   0  0  0  0  0  0  0  0  0  0  0  0
    0.2450   -0.2851   -2.2039 O   0  0  0  0  0  0  0  0  0  0  0  0
    1.0204    1.8231   -2.1129 N   0  0  0  0  0  0  0  0  0  0  0  0
    1.0377    2.7010   -1.6033 H   0  0  0  0  0  0  0  0  0  0  0  0
    1.5826    1.7923   -3.4619 C   0  0  0  0  0  0  0  0  0  0  0  0
    0.7899    1.6555   -4.2056 H   0  0  0  0  0  0  0  0  0  0  0  0
    2.1034    2.7298   -3.6810 H   0  0  0  0  0  0  0  0  0  0  0  0
    2.3002    0.9704   -3.5618 H   0  0  0  0  0  0  0  0  0  0  0  0
  1  2  1  0  0  0  0
  2  3  1  0  0  0  0
  2  4  1  0  0  0  0
  2  5  1  0  0  0  0
  5  6  2  0  0  0  0
  5  7  1  0  0  0  0
  7  8  1  0  0  0  0
  7  9  1  0  0  0  0
  9 10  1  0  0  0  0
  9 11  1  0  0  0  0
  9 23  1  0  0  0  0
 11 12  1  0  0  0  0
 11 13  1  0  0  0  0
 11 14  1  0  0  0  0
 14 15  1  0  0  0  0
 14 21  2  0  0  0  0
 15 16  1  0  0  0  0
 15 17  2  0  0  0  0
 17 18  1  0  0  0  0
 17 19  1  0  0  0  0
 19 20  1  0  0  0  0
 19 21  1  0  0  0  0
 21 22  1  0  0  0  0
 23 24  2  0  0  0  0
 23 25  1  0  0  0  0
 25 26  1  0  0  0  0
 25 27  1  0  0  0  0
 27 28  1  0  0  0  0
 27 29  1  0  0  0  0
 27 30  1  0  0  0  0
M  CHG  1  15   1
M  END
$$$$

  -OEChem-01062216083D

 30 30  0     1  0  0  0  0  0999 V2000
   -3.8403   -2.1747    0.7411 H   0  0  0  0  0  0  0  0  0  0  0  0
   -3.5439   -1.3272    0.1166 C   0  0  0  0  0  0  0  0  0  0  0  0
   -4.2833   -0.5312    0.2310 H   0  0  0  0  0  0  0  0  0  0  0  0
   -3.5268   -1.6517   -0.9271 H   0  0  0  0  0  0  0  0  0  0  0  0
   -2.1711   -0.8274    0.5240 C   0  0  0  0  0  0  0  0  0  0  0  0
   -1.5733   -1.4147    1.4070 O   0  0  0  0  0  0  0  0  0  0  0  0
   -1.6265    0.2373   -0.1709 N   0  0  0  0  0  0  0  0  0  0  0  0
   -2.1581    0.4593   -1.0124 H   0  0  0  0  0  0  0  0  0  0  0  0
   -0.2575    0.8140   -0.1459 C   0  0  1  0  0  0  0  0  0  0  0  0
   -0.4074    1.8818    0.0338 H   0  0  0  0  0  0  0  0  0  0  0  0
    0.7754    0.3559    0.9189 C   0  0  0  0  0  0  0  0  0  0  0  0
    0.9054   -0.7281    0.8192 H   0  0  0  0  0  0  0  0  0  0  0  0
    1.7485    0.8074    0.7015 H   0  0  0  0  0  0  0  0  0  0  0  0
    0.4118    0.6836    2.3560 C   0  0  0  0  0  0  0  0  0  0  0  0
    0.4750    1.9401    2.9666 N   0  3  0  0  0  0  0  0  0  0  0  0
    0.6970    2.7979    2.4574 H   0  0  0  0  0  0  0  0  0  0  0  0
    0.1955    1.8478    4.2456 C   0  0  0  0  0  0  0  0  0  0  0  0
    0.1511    2.6681    4.9643 H   0  0  0  0  0  0  0  0  0  0  0  0
   -0.0291    0.5030    4.5216 N   0  0  0  0  0  0  0  0  0  0  0  0
   -0.2721    0.1056    5.4341 H   0  0  0  0  0  0  0  0  0  0  0  0
    0.1362   -0.2218    3.3513 C   0  0  0  0  0  0  0  0  0  0  0  0
    0.0525   -1.3030    3.2248 H   0  0  0  0  0  0  0  0  0  0  0  0
    0.3709    0.7247   -1.5567 C   0  0  0  0  0  0  0  0  0  0  0  0
   -0.0099   -0.1329   -2.3399 O   0  0  0  0  0  0  0  0  0  0  0  0
    1.2957    1.6604   -1.9892 N   0  0  0  0  0  0  0  0  0  0  0  0
    1.5465    2.4220   -1.3672 H   0  0  0  0  0  0  0  0  0  0  0  0
    1.8483    1.6585   -3.3427 C   0  0  0  0  0  0  0  0  0  0  0  0
    1.0552    1.8127   -4.0826 H   0  0  0  0  0  0  0  0  0  0  0  0
    2.5861    2.4590   -3.4566 H   0  0  0  0  0  0  0  0  0  0  0  0
    2.3429    0.7043   -3.5558 H   0  0  0  0  0  0  0  0  0  0  0  0
  1  2  1  0  0  0  0
  2  3  1  0  0  0  0
  2  4  1  0  0  0  0
  2  5  1  0  0  0  0
  5  6  2  0  0  0  0
  5  7  1  0  0  0  0
  7  8  1  0  0  0  0
  7  9  1  0  0  0  0
  9 10  1  0  0  0  0
  9 11  1  0  0  0  0
  9 23  1  0  0  0  0
 11 12  1  0  0  0  0
 11 13  1  0  0  0  0
 11 14  1  0  0  0  0
 14 15  1  0  0  0  0
 14 21  2  0  0  0  0
 15 16  1  0  0  0  0
 15 17  2  0  0  0  0
 17 18  1  0  0  0  0
 17 19  1  0  0  0  0
 19 20  1  0  0  0  0
 19 21  1  0  0  0  0
 21 22  1  0  0  0  0
 23 24  2  0  0  0  0
 23 25  1  0  0  0  0
 25 26  1  0  0  0  0
 25 27  1  0  0  0  0
 27 28  1  0  0  0  0
 27 29  1  0  0  0  0
 27 30  1  0  0  0  0
M  CHG  1  15   1
M  END
$$$$

  -OEChem-01062216083D

 30 30  0     1  0  0  0  0  0999 V2000
   -3.8302   -2.1815    0.7412 H   0  0  0  0  0  0  0  0  0  0  0  0
   -3.5330   -1.3274    0.1260 C   0  0  0  0  0  0  0  0  0  0  0  0
   -4.2621   -0.5254    0.2625 H   0  0  0  0  0  0  0  0  0  0  0  0
   -3.5328   -1.6358   -0.9228 H   0  0  0  0  0  0  0  0  0  0  0  0
   -2.1500   -0.8480    0.5239 C   0  0  0  0  0  0  0  0  0  0  0  0
   -1.5453   -1.4579    1.3872 O   0  0  0  0  0  0  0  0  0  0  0  0
   -1.6020    0.2226   -0.1590 N   0  0  0  0  0  0  0  0  0  0  0  0
   -2.1273    0.4497   -1.0043 H   0  0  0  0  0  0  0  0  0  0  0  0
   -0.2286    0.7892   -0.1385 C   0  0  1  0  0  0  0  0  0  0  0  0
   -0.3702    1.8580    0.0436 H   0  0  0  0  0  0  0  0  0  0  0  0
    0.7922    0.3243    0.9363 C   0  0  0  0  0  0  0  0  0  0  0  0
    0.9117   -0.7616    0.8466 H   0  0  0  0  0  0  0  0  0  0  0  0
    1.7732    0.7630    0.7305 H   0  0  0  0  0  0  0  0  0  0  0  0
    0.4116    0.6713    2.3649 C   0  0  0  0  0  0  0  0  0  0  0  0
    0.4824    1.9353    2.9599 N   0  3  0  0  0  0  0  0  0  0  0  0
    0.7205    2.7840    2.4424 H   0  0  0  0  0  0  0  0  0  0  0  0
    0.1802    1.8647    4.2348 C   0  0  0  0  0  0  0  0  0  0  0  0
    0.1358    2.6963    4.9407 H   0  0  0  0  0  0  0  0  0  0  0  0
   -0.0694    0.5271    4.5244 N   0  0  0  0  0  0  0  0  0  0  0  0
   -0.3361    0.1469    5.4376 H   0  0  0  0  0  0  0  0  0  0  0  0
    0.1031   -0.2165    3.3666 C   0  0  0  0  0  0  0  0  0  0  0  0
    0.0028   -1.2979    3.2540 H   0  0  0  0  0  0  0  0  0  0  0  0
    0.3857    0.7160   -1.5592 C   0  0  0  0  0  0  0  0  0  0  0  0
   -0.1995    0.1053   -2.4428 O   0  0  0  0  0  0  0  0  0  0  0  0
    1.5183    1.4395   -1.8956 N   0  0  0  0  0  0  0  0  0  0  0  0
    1.9692    2.0027   -1.1823 H   0  0  0  0  0  0  0  0  0  0  0  0
    2.0747    1.4563   -3.2475 C   0  0  0  0  0  0  0  0  0  0  0  0
    1.3606    1.8956   -3.9527 H   0  0  0  0  0  0  0  0  0  0  0  0
    2.9946    2.0487   -3.2749 H   0  0  0  0  0  0  0  0  0  0  0  0
    2.3117    0.4392   -3.5789 H   0  0  0  0  0  0  0  0  0  0  0  0
  1  2  1  0  0  0  0
  2  3  1  0  0  0  0
  2  4  1  0  0  0  0
  2  5  1  0  0  0  0
  5  6  2  0  0  0  0
  5  7  1  0  0  0  0
  7  8  1  0  0  0  0
  7  9  1  0  0  0  0
  9 10  1  0  0  0  0
  9 11  1  0  0  0  0
  9 23  1  0  0  0  0
 11 12  1  0  0  0  0
 11 13  1  0  0  0  0
 11 14  1  0  0  0  0
 14 15  1  0  0  0  0
 14 21  2  0  0  0  0
 15 16  1  0  0  0  0
 15 17  2  0  0  0  0
 17 18  1  0  0  0  0
 17 19  1  0  0  0  0
 19 20  1  0  0  0  0
 19 21  1  0  0  0  0
 21 22  1  0  0  0  0
 23 24  2  0  0  0  0
 23 25  1  0  0  0  0
 25 26  1  0  0  0  0
 25 27  1  0  0  0  0
 27 28  1  0  0  0  0
 27 29  1  0  0  0  0
 27 30  1  0  0  0  0
M  CHG  1  15   1
M  END
$$$$

  -OEChem-01062216083D

 30 30  0     1  0  0  0  0  0999 V2000
   -4.0083   -2.0195    0.6696 H   0  0  0  0  0  0  0  0  0  0  0  0
   -3.6521   -1.1567    0.0996 C   0  0  0  0  0  0  0  0  0  0  0  0
   -4.3029   -0.3045    0.3094 H   0  0  0  0  0  0  0  0  0  0  0  0
   -3.7071   -1.3942   -0.9660 H   0  0  0  0  0  0  0  0  0  0  0  0
   -2.2225   -0.8250    0.4822 C   0  0  0  0  0  0  0  0  0  0  0  0
   -1.6551   -1.5319    1.2923 O   0  0  0  0  0  0  0  0  0  0  0  0
   -1.5975    0.2229   -0.1653 N   0  0  0  0  0  0  0  0  0  0  0  0
   -2.1327    0.5604   -0.9689 H   0  0  0  0  0  0  0  0  0  0  0  0
   -0.2120    0.7582   -0.1312 C   0  0  1  0  0  0  0  0  0  0  0  0
   -0.3052    1.7541    0.3108 H   0  0  0  0  0  0  0  0  0  0  0  0
    0.9037    0.0525    0.6949 C   0  0  0  0  0  0  0  0  0  0  0  0
    0.9782   -0.9794    0.3324 H   0  0  0  0  0  0  0  0  0  0  0  0
    1.8692    0.5278    0.5011 H   0  0  0  0  0  0  0  0  0  0  0  0
    0.7055    0.0256    2.1995 C   0  0  0  0  0  0  0  0  0  0  0  0
    0.8758    1.1027    3.0754 N   0  3  0  0  0  0  0  0  0  0  0  0
    1.0361    2.0608    2.7570 H   0  0  0  0  0  0  0  0  0  0  0  0
    0.7411    0.7126    4.3209 C   0  0  0  0  0  0  0  0  0  0  0  0
    0.7890    1.3437    5.2101 H   0  0  0  0  0  0  0  0  0  0  0  0
    0.5241   -0.6612    4.3000 N   0  0  0  0  0  0  0  0  0  0  0  0
    0.3638   -1.2598    5.1157 H   0  0  0  0  0  0  0  0  0  0  0  0
    0.5370   -1.0908    2.9819 C   0  0  0  0  0  0  0  0  0  0  0  0
    0.4040   -2.1106    2.6168 H   0  0  0  0  0  0  0  0  0  0  0  0
    0.2452    1.0217   -1.5916 C   0  0  0  0  0  0  0  0  0  0  0  0
   -0.5589    0.8830   -2.5044 O   0  0  0  0  0  0  0  0  0  0  0  0
    1.4996    1.5260   -1.8963 N   0  0  0  0  0  0  0  0  0  0  0  0
    2.1585    1.6873   -1.1422 H   0  0  0  0  0  0  0  0  0  0  0  0
    1.9161    1.8459   -3.2608 C   0  0  0  0  0  0  0  0  0  0  0  0
    1.3008    2.6541   -3.6711 H   0  0  0  0  0  0  0  0  0  0  0  0
    2.9623    2.1674   -3.2766 H   0  0  0  0  0  0  0  0  0  0  0  0
    1.8178    0.9683   -3.9095 H   0  0  0  0  0  0  0  0  0  0  0  0
  1  2  1  0  0  0  0
  2  3  1  0  0  0  0
  2  4  1  0  0  0  0
  2  5  1  0  0  0  0
  5  6  2  0  0  0  0
  5  7  1  0  0  0  0
  7  8  1  0  0  0  0
  7  9  1  0  0  0  0
  9 10  1  0  0  0  0
  9 11  1  0  0  0  0
  9 23  1  0  0  0  0
 11 12  1  0  0  0  0
 11 13  1  0  0  0  0
 11 14  1  0  0  0  0
 14 15  1  0  0  0  0
 14 21  2  0  0  0  0
 15 16  1  0  0  0  0
 15 17  2  0  0  0  0
 17 18  1  0  0  0  0
 17 19  1  0  0  0  0
 19 20  1  0  0  0  0
 19 21  1  0  0  0  0
 21 22  1  0  0  0  0
 23 24  2  0  0  0  0
 23 25  1  0  0  0  0
 25 26  1  0  0  0  0
 25 27  1  0  0  0  0
 27 28  1  0  0  0  0
 27 29  1  0  0  0  0
 27 30  1  0  0  0  0
M  CHG  1  15   1
M  END
$$$$

  -OEChem-01062216083D

 30 30  0     1  0  0  0  0  0999 V2000
   -3.9901   -2.0239    0.6770 H   0  0  0  0  0  0  0  0  0  0  0  0
   -3.6363   -1.1523    0.1192 C   0  0  0  0  0  0  0  0  0  0  0  0
   -4.2592   -0.2930    0.3789 H   0  0  0  0  0  0  0  0  0  0  0  0
   -3.7376   -1.3558   -0.9500 H   0  0  0  0  0  0  0  0  0  0  0  0
   -2.1855   -0.8647    0.4553 C   0  0  0  0  0  0  0  0  0  0  0  0
   -1.5909   -1.6285    1.1923 O   0  0  0  0  0  0  0  0  0  0  0  0
   -1.5633    0.1980   -0.1703 N   0  0  0  0  0  0  0  0  0  0  0  0
   -2.1247    0.6053   -0.9221 H   0  0  0  0  0  0  0  0  0  0  0  0
   -0.1751    0.7227   -0.1307 C   0  0  1  0  0  0  0  0  0  0  0  0
   -0.2653    1.7150    0.3204 H   0  0  0  0  0  0  0  0  0  0  0  0
    0.9255    0.0136    0.7109 C   0  0  0  0  0  0  0  0  0  0  0  0
    1.0010   -1.0217    0.3590 H   0  0  0  0  0  0  0  0  0  0  0  0
    1.8950    0.4860    0.5326 H   0  0  0  0  0  0  0  0  0  0  0  0
    0.6979    0.0102    2.2119 C   0  0  0  0  0  0  0  0  0  0  0  0
    0.8649    1.1016    3.0706 N   0  3  0  0  0  0  0  0  0  0  0  0
    1.0511    2.0502    2.7379 H   0  0  0  0  0  0  0  0  0  0  0  0
    0.7001    0.7373    4.3201 C   0  0  0  0  0  0  0  0  0  0  0  0
    0.7438    1.3844    5.1982 H   0  0  0  0  0  0  0  0  0  0  0  0
    0.4603   -0.6330    4.3203 N   0  0  0  0  0  0  0  0  0  0  0  0
    0.2795   -1.2141    5.1444 H   0  0  0  0  0  0  0  0  0  0  0  0
    0.4930   -1.0883    3.0108 C   0  0  0  0  0  0  0  0  0  0  0  0
    0.3559   -2.1137    2.6623 H   0  0  0  0  0  0  0  0  0  0  0  0
    0.2692    1.0199   -1.5884 C   0  0  0  0  0  0  0  0  0  0  0  0
   -0.5940    1.1770   -2.4425 O   0  0  0  0  0  0  0  0  0  0  0  0
    1.5909    1.2309   -1.9477 N   0  0  0  0  0  0  0  0  0  0  0  0
    2.3153    1.0686   -1.2566 H   0  0  0  0  0  0  0  0  0  0  0  0
    2.0002    1.5386   -3.3172 C   0  0  0  0  0  0  0  0  0  0  0  0
    1.5419    2.4746   -3.6549 H   0  0  0  0  0  0  0  0  0  0  0  0
    3.0877    1.6483   -3.3753 H   0  0  0  0  0  0  0  0  0  0  0  0
    1.6988    0.7358   -3.9993 H   0  0  0  0  0  0  0  0  0  0  0  0
  1  2  1  0  0  0  0
  2  3  1  0  0  0  0
  2  4  1  0  0  0  0
  2  5  1  0  0  0  0
  5  6  2  0  0  0  0
  5  7  1  0  0  0  0
  7  8  1  0  0  0  0
  7  9  1  0  0  0  0
  9 10  1  0  0  0  0
  9 11  1  0  0  0  0
  9 23  1  0  0  0  0
 11 12  1  0  0  0  0
 11 13  1  0  0  0  0
 11 14  1  0  0  0  0
 14 15  1  0  0  0  0
 14 21  2  0  0  0  0
 15 16  1  0  0  0  0
 15 17  2  0  0  0  0
 17 18  1  0  0  0  0
 17 19  1  0  0  0  0
 19 20  1  0  0  0  0
 19 21  1  0  0  0  0
 21 22  1  0  0  0  0
 23 24  2  0  0  0  0
 23 25  1  0  0  0  0
 25 26  1  0  0  0  0
 25 27  1  0  0  0  0
 27 28  1  0  0  0  0
 27 29  1  0  0  0  0
 27 30  1  0  0  0  0
M  CHG  1  15   1
M  END
$$$$

  -OEChem-01062216083D

 30 30  0     1  0  0  0  0  0999 V2000
   -3.9728   -2.0251    0.7122 H   0  0  0  0  0  0  0  0  0  0  0  0
   -3.6234   -1.1534    0.1514 C   0  0  0  0  0  0  0  0  0  0  0  0
   -4.2182   -0.2854    0.4459 H   0  0  0  0  0  0  0  0  0  0  0  0
   -3.7708   -1.3414   -0.9153 H   0  0  0  0  0  0  0  0  0  0  0  0
   -2.1547   -0.8995    0.4335 C   0  0  0  0  0  0  0  0  0  0  0  0
   -1.5393   -1.6980    1.1153 O   0  0  0  0  0  0  0  0  0  0  0  0
   -1.5371    0.1721   -0.1816 N   0  0  0  0  0  0  0  0  0  0  0  0
   -2.1217    0.6356   -0.8811 H   0  0  0  0  0  0  0  0  0  0  0  0
   -0.1477    0.6903   -0.1339 C   0  0  1  0  0  0  0  0  0  0  0  0
   -0.2395    1.6812    0.3204 H   0  0  0  0  0  0  0  0  0  0  0  0
    0.9440   -0.0150    0.7202 C   0  0  0  0  0  0  0  0  0  0  0  0
    1.0234   -1.0539    0.3800 H   0  0  0  0  0  0  0  0  0  0  0  0
    1.9141    0.4602    0.5476 H   0  0  0  0  0  0  0  0  0  0  0  0
    0.6942   -0.0002    2.2173 C   0  0  0  0  0  0  0  0  0  0  0  0
    0.8540    1.1033    3.0616 N   0  3  0  0  0  0  0  0  0  0  0  0
    1.0613    2.0438    2.7173 H   0  0  0  0  0  0  0  0  0  0  0  0
    0.6606    0.7606    4.3132 C   0  0  0  0  0  0  0  0  0  0  0  0
    0.6949    1.4212    5.1817 H   0  0  0  0  0  0  0  0  0  0  0  0
    0.4051   -0.6068    4.3297 N   0  0  0  0  0  0  0  0  0  0  0  0
    0.2034   -1.1728    5.1595 H   0  0  0  0  0  0  0  0  0  0  0  0
    0.4574   -1.0833    3.0281 C   0  0  0  0  0  0  0  0  0  0  0  0
    0.3151   -2.1127    2.6938 H   0  0  0  0  0  0  0  0  0  0  0  0
    0.2970    1.0049   -1.5849 C   0  0  0  0  0  0  0  0  0  0  0  0
   -0.5484    1.4282   -2.3620 O   0  0  0  0  0  0  0  0  0  0  0  0
    1.6114    0.9219   -2.0160 N   0  0  0  0  0  0  0  0  0  0  0  0
    2.2890    0.4709   -1.4101 H   0  0  0  0  0  0  0  0  0  0  0  0
    2.0090    1.2178   -3.3915 C   0  0  0  0  0  0  0  0  0  0  0  0
    1.7684    2.2556   -3.6467 H   0  0  0  0  0  0  0  0  0  0  0  0
    3.0869    1.0751   -3.5170 H   0  0  0  0  0  0  0  0  0  0  0  0
    1.4898    0.5560   -4.0936 H   0  0  0  0  0  0  0  0  0  0  0  0
  1  2  1  0  0  0  0
  2  3  1  0  0  0  0
  2  4  1  0  0  0  0
  2  5  1  0  0  0  0
  5  6  2  0  0  0  0
  5  7  1  0  0  0  0
  7  8  1  0  0  0  0
  7  9  1  0  0  0  0
  9 10  1  0  0  0  0
  9 11  1  0  0  0  0
  9 23  1  0  0  0  0
 11 12  1  0  0  0  0
 11 13  1  0  0  0  0
 11 14  1  0  0  0  0
 14 15  1  0  0  0  0
 14 21  2  0  0  0  0
 15 16  1  0  0  0  0
 15 17  2  0  0  0  0
 17 18  1  0  0  0  0
 17 19  1  0  0  0  0
 19 20  1  0  0  0  0
 19 21  1  0  0  0  0
 21 22  1  0  0  0  0
 23 24  2  0  0  0  0
 23 25  1  0  0  0  0
 25 26  1  0  0  0  0
 25 27  1  0  0  0  0
 27 28  1  0  0  0  0
 27 29  1  0  0  0  0
 27 30  1  0  0  0  0
M  CHG  1  15   1
M  END
$$$$

  -OEChem-01062216083D

 30 30  0     1  0  0  0  0  0999 V2000
   -3.9638   -2.0281    0.7363 H   0  0  0  0  0  0  0  0  0  0  0  0
   -3.6215   -1.1502    0.1812 C   0  0  0  0  0  0  0  0  0  0  0  0
   -4.1960   -0.2811    0.5104 H   0  0  0  0  0  0  0  0  0  0  0  0
   -3.8044   -1.3160   -0.8836 H   0  0  0  0  0  0  0  0  0  0  0  0
   -2.1420   -0.9191    0.4223 C   0  0  0  0  0  0  0  0  0  0  0  0
   -1.5143   -1.7352    1.0721 O   0  0  0  0  0  0  0  0  0  0  0  0
   -1.5283    0.1542   -0.1937 N   0  0  0  0  0  0  0  0  0  0  0  0
   -2.1316    0.6552   -0.8493 H   0  0  0  0  0  0  0  0  0  0  0  0
   -0.1392    0.6693   -0.1406 C   0  0  1  0  0  0  0  0  0  0  0  0
   -0.2329    1.6608    0.3125 H   0  0  0  0  0  0  0  0  0  0  0  0
    0.9492   -0.0294    0.7205 C   0  0  0  0  0  0  0  0  0  0  0  0
    1.0314   -1.0708    0.3896 H   0  0  0  0  0  0  0  0  0  0  0  0
    1.9185    0.4480    0.5438 H   0  0  0  0  0  0  0  0  0  0  0  0
    0.6899   -0.0032    2.2153 C   0  0  0  0  0  0  0  0  0  0  0  0
    0.8443    1.1073    3.0512 N   0  3  0  0  0  0  0  0  0  0  0  0
    1.0631    2.0432    2.7011 H   0  0  0  0  0  0  0  0  0  0  0  0
    0.6416    0.7751    4.3041 C   0  0  0  0  0  0  0  0  0  0  0  0
    0.6747    1.4418    5.1680 H   0  0  0  0  0  0  0  0  0  0  0  0
    0.3798   -0.5912    4.3293 N   0  0  0  0  0  0  0  0  0  0  0  0
    0.1751   -1.1507    5.1628 H   0  0  0  0  0  0  0  0  0  0  0  0
    0.4401   -1.0787    3.0321 C   0  0  0  0  0  0  0  0  0  0  0  0
    0.2973   -2.1105    2.7052 H   0  0  0  0  0  0  0  0  0  0  0  0
    0.3129    0.9844   -1.5850 C   0  0  0  0  0  0  0  0  0  0  0  0
   -0.4547    1.6226   -2.2913 O   0  0  0  0  0  0  0  0  0  0  0  0
    1.5497    0.6201   -2.0912 N   0  0  0  0  0  0  0  0  0  0  0  0
    2.1106   -0.0339   -1.5540 H   0  0  0  0  0  0  0  0  0  0  0  0
    1.9427    0.8884   -3.4731 C   0  0  0  0  0  0  0  0  0  0  0  0
    1.9042    1.9630   -3.6827 H   0  0  0  0  0  0  0  0  0  0  0  0
    2.9650    0.5414   -3.6540 H   0  0  0  0  0  0  0  0  0  0  0  0
    1.2739    0.3723   -4.1707 H   0  0  0  0  0  0  0  0  0  0  0  0
  1  2  1  0  0  0  0
  2  3  1  0  0  0  0
  2  4  1  0  0  0  0
  2  5  1  0  0  0  0
  5  6  2  0  0  0  0
  5  7  1  0  0  0  0
  7  8  1  0  0  0  0
  7  9  1  0  0  0  0
  9 10  1  0  0  0  0
  9 11  1  0  0  0  0
  9 23  1  0  0  0  0
 11 12  1  0  0  0  0
 11 13  1  0  0  0  0
 11 14  1  0  0  0  0
 14 15  1  0  0  0  0
 14 21  2  0  0  0  0
 15 16  1  0  0  0  0
 15 17  2  0  0  0  0
 17 18  1  0  0  0  0
 17 19  1  0  0  0  0
 19 20  1  0  0  0  0
 19 21  1  0  0  0  0
 21 22  1  0  0  0  0
 23 24  2  0  0  0  0
 23 25  1  0  0  0  0
 25 26  1  0  0  0  0
 25 27  1  0  0  0  0
 27 28  1  0  0  0  0
 27 29  1  0  0  0  0
 27 30  1  0  0  0  0
M  CHG  1  15   1
M  END
$$$$

  -OEChem-01062216083D

 30 30  0     1  0  0  0  0  0999 V2000
   -3.9568   -2.0388    0.7468 H   0  0  0  0  0  0  0  0  0  0  0  0
   -3.6235   -1.1503    0.2030 C   0  0  0  0  0  0  0  0  0  0  0  0
   -4.1883   -0.2866    0.5619 H   0  0  0  0  0  0  0  0  0  0  0  0
   -3.8293   -1.2937   -0.8611 H   0  0  0  0  0  0  0  0  0  0  0  0
   -2.1385   -0.9287    0.4177 C   0  0  0  0  0  0  0  0  0  0  0  0
   -1.5002   -1.7556    1.0435 O   0  0  0  0  0  0  0  0  0  0  0  0
   -1.5288    0.1442   -0.2026 N   0  0  0  0  0  0  0  0  0  0  0  0
   -2.1478    0.6746   -0.8184 H   0  0  0  0  0  0  0  0  0  0  0  0
   -0.1394    0.6559   -0.1461 C   0  0  1  0  0  0  0  0  0  0  0  0
   -0.2343    1.6474    0.3074 H   0  0  0  0  0  0  0  0  0  0  0  0
    0.9497   -0.0379    0.7163 C   0  0  0  0  0  0  0  0  0  0  0  0
    1.0333   -1.0813    0.3924 H   0  0  0  0  0  0  0  0  0  0  0  0
    1.9178    0.4395    0.5309 H   0  0  0  0  0  0  0  0  0  0  0  0
    0.6882   -0.0059    2.2101 C   0  0  0  0  0  0  0  0  0  0  0  0
    0.8408    1.1100    3.0388 N   0  3  0  0  0  0  0  0  0  0  0  0
    1.0647    2.0426    2.6827 H   0  0  0  0  0  0  0  0  0  0  0  0
    0.6371    0.7856    4.2935 C   0  0  0  0  0  0  0  0  0  0  0  0
    0.6728    1.4573    5.1534 H   0  0  0  0  0  0  0  0  0  0  0  0
    0.3718   -0.5800    4.3265 N   0  0  0  0  0  0  0  0  0  0  0  0
    0.1683   -1.1344    5.1637 H   0  0  0  0  0  0  0  0  0  0  0  0
    0.4319   -1.0758    3.0320 C   0  0  0  0  0  0  0  0  0  0  0  0
    0.2868   -2.1090    2.7109 H   0  0  0  0  0  0  0  0  0  0  0  0
    0.3241    0.9688   -1.5837 C   0  0  0  0  0  0  0  0  0  0  0  0
   -0.3153    1.7961   -2.2161 O   0  0  0  0  0  0  0  0  0  0  0  0
    1.4157    0.3528   -2.1717 N   0  0  0  0  0  0  0  0  0  0  0  0
    1.8155   -0.4513   -1.6972 H   0  0  0  0  0  0  0  0  0  0  0  0
    1.7892    0.5834   -3.5656 C   0  0  0  0  0  0  0  0  0  0  0  0
    1.9636    1.6497   -3.7476 H   0  0  0  0  0  0  0  0  0  0  0  0
    2.7081    0.0408   -3.8089 H   0  0  0  0  0  0  0  0  0  0  0  0
    0.9954    0.2398   -4.2381 H   0  0  0  0  0  0  0  0  0  0  0  0
  1  2  1  0  0  0  0
  2  3  1  0  0  0  0
  2  4  1  0  0  0  0
  2  5  1  0  0  0  0
  5  6  2  0  0  0  0
  5  7  1  0  0  0  0
  7  8  1  0  0  0  0
  7  9  1  0  0  0  0
  9 10  1  0  0  0  0
  9 11  1  0  0  0  0
  9 23  1  0  0  0  0
 11 12  1  0  0  0  0
 11 13  1  0  0  0  0
 11 14  1  0  0  0  0
 14 15  1  0  0  0  0
 14 21  2  0  0  0  0
 15 16  1  0  0  0  0
 15 17  2  0  0  0  0
 17 18  1  0  0  0  0
 17 19  1  0  0  0  0
 19 20  1  0  0  0  0
 19 21  1  0  0  0  0
 21 22  1  0  0  0  0
 23 24  2  0  0  0  0
 23 25  1  0  0  0  0
 25 26  1  0  0  0  0
 25 27  1  0  0  0  0
 27 28  1  0  0  0  0
 27 29  1  0  0  0  0
 27 30  1  0  0  0  0
M  CHG  1  15   1
M  END
$$$$

  -OEChem-01062216083D

 30 30  0     1  0  0  0  0  0999 V2000
   -3.9604   -2.0379    0.8240 H   0  0  0  0  0  0  0  0  0  0  0  0
   -3.6378   -1.1534    0.2675 C   0  0  0  0  0  0  0  0  0  0  0  0
   -4.1743   -0.2824    0.6516 H   0  0  0  0  0  0  0  0  0  0  0  0
   -3.8910   -1.2921   -0.7868 H   0  0  0  0  0  0  0  0  0  0  0  0
   -2.1420   -0.9532    0.4188 C   0  0  0  0  0  0  0  0  0  0  0  0
   -1.4870   -1.7935    1.0088 O   0  0  0  0  0  0  0  0  0  0  0  0
   -1.5438    0.1184   -0.2156 N   0  0  0  0  0  0  0  0  0  0  0  0
   -2.1835    0.6733   -0.7856 H   0  0  0  0  0  0  0  0  0  0  0  0
   -0.1550    0.6323   -0.1656 C   0  0  1  0  0  0  0  0  0  0  0  0
   -0.2533    1.6244    0.2866 H   0  0  0  0  0  0  0  0  0  0  0  0
    0.9385   -0.0527    0.6963 C   0  0  0  0  0  0  0  0  0  0  0  0
    1.0249   -1.0981    0.3807 H   0  0  0  0  0  0  0  0  0  0  0  0
    1.9053    0.4242    0.5004 H   0  0  0  0  0  0  0  0  0  0  0  0
    0.6798   -0.0103    2.1899 C   0  0  0  0  0  0  0  0  0  0  0  0
    0.8326    1.1141    3.0065 N   0  3  0  0  0  0  0  0  0  0  0  0
    1.0602    2.0422    2.6406 H   0  0  0  0  0  0  0  0  0  0  0  0
    0.6326    0.8014    4.2646 C   0  0  0  0  0  0  0  0  0  0  0  0
    0.6725    1.4814    5.1177 H   0  0  0  0  0  0  0  0  0  0  0  0
    0.3661   -0.5640    4.3112 N   0  0  0  0  0  0  0  0  0  0  0  0
    0.1671   -1.1103    5.1547 H   0  0  0  0  0  0  0  0  0  0  0  0
    0.4224   -1.0725    3.0214 C   0  0  0  0  0  0  0  0  0  0  0  0
    0.2777   -2.1087    2.7099 H   0  0  0  0  0  0  0  0  0  0  0  0
    0.3232    0.9406   -1.5968 C   0  0  0  0  0  0  0  0  0  0  0  0
   -0.1175    1.9401   -2.1426 O   0  0  0  0  0  0  0  0  0  0  0  0
    1.2135    0.1228   -2.2701 N   0  0  0  0  0  0  0  0  0  0  0  0
    1.4177   -0.7850   -1.8615 H   0  0  0  0  0  0  0  0  0  0  0  0
    1.5968    0.3553   -3.6607 C   0  0  0  0  0  0  0  0  0  0  0  0
    2.0301    1.3546   -3.7793 H   0  0  0  0  0  0  0  0  0  0  0  0
    2.3421   -0.3804   -3.9792 H   0  0  0  0  0  0  0  0  0  0  0  0
    0.7250    0.2726   -4.3189 H   0  0  0  0  0  0  0  0  0  0  0  0
  1  2  1  0  0  0  0
  2  3  1  0  0  0  0
  2  4  1  0  0  0  0
  2  5  1  0  0  0  0
  5  6  2  0  0  0  0
  5  7  1  0  0  0  0
  7  8  1  0  0  0  0
  7  9  1  0  0  0  0
  9 10  1  0  0  0  0
  9 11  1  0  0  0  0
  9 23  1  0  0  0  0
 11 12  1  0  0  0  0
 11 13  1  0  0  0  0
 11 14  1  0  0  0  0
 14 15  1  0  0  0  0
 14 21  2  0  0  0  0
 15 16  1  0  0  0  0
 15 17  2  0  0  0  0
 17 18  1  0  0  0  0
 17 19  1  0  0  0  0
 19 20  1  0  0  0  0
 19 21  1  0  0  0  0
 21 22  1  0  0  0  0
 23 24  2  0  0  0  0
 23 25  1  0  0  0  0
 25 26  1  0  0  0  0
 25 27  1  0  0  0  0
 27 28  1  0  0  0  0
 27 29  1  0  0  0  0
 27 30  1  0  0  0  0
M  CHG  1  15   1
M  END
$$$$

  -OEChem-01062216083D

 30 30  0     1  0  0  0  0  0999 V2000
   -3.9691   -2.0449    0.8900 H   0  0  0  0  0  0  0  0  0  0  0  0
   -3.6626   -1.1600    0.3246 C   0  0  0  0  0  0  0  0  0  0  0  0
   -4.1858   -0.2890    0.7264 H   0  0  0  0  0  0  0  0  0  0  0  0
   -3.9488   -1.2972   -0.7213 H   0  0  0  0  0  0  0  0  0  0  0  0
   -2.1623   -0.9628    0.4307 C   0  0  0  0  0  0  0  0  0  0  0  0
   -1.4919   -1.8049    1.0004 O   0  0  0  0  0  0  0  0  0  0  0  0
   -1.5774    0.1040   -0.2248 N   0  0  0  0  0  0  0  0  0  0  0  0
   -2.2355    0.6708   -0.7600 H   0  0  0  0  0  0  0  0  0  0  0  0
   -0.1906    0.6266   -0.1845 C   0  0  1  0  0  0  0  0  0  0  0  0
   -0.2941    1.6199    0.2645 H   0  0  0  0  0  0  0  0  0  0  0  0
    0.9163   -0.0472    0.6680 C   0  0  0  0  0  0  0  0  0  0  0  0
    1.0113   -1.0917    0.3519 H   0  0  0  0  0  0  0  0  0  0  0  0
    1.8763    0.4385    0.4595 H   0  0  0  0  0  0  0  0  0  0  0  0
    0.6739   -0.0066    2.1639 C   0  0  0  0  0  0  0  0  0  0  0  0
    0.8258    1.1191    2.9785 N   0  3  0  0  0  0  0  0  0  0  0  0
    1.0491    2.0474    2.6101 H   0  0  0  0  0  0  0  0  0  0  0  0
    0.6428    0.8044    4.2387 C   0  0  0  0  0  0  0  0  0  0  0  0
    0.6907    1.4836    5.0921 H   0  0  0  0  0  0  0  0  0  0  0  0
    0.3846   -0.5625    4.2878 N   0  0  0  0  0  0  0  0  0  0  0  0
    0.1999   -1.1106    5.1334 H   0  0  0  0  0  0  0  0  0  0  0  0
    0.4316   -1.0706    2.9974 C   0  0  0  0  0  0  0  0  0  0  0  0
    0.2918   -2.1076    2.6869 H   0  0  0  0  0  0  0  0  0  0  0  0
    0.2986    0.9199   -1.6136 C   0  0  0  0  0  0  0  0  0  0  0  0
    0.1226    2.0388   -2.0688 O   0  0  0  0  0  0  0  0  0  0  0  0
    0.9438   -0.0435   -2.3672 N   0  0  0  0  0  0  0  0  0  0  0  0
    0.9354   -0.9972   -2.0147 H   0  0  0  0  0  0  0  0  0  0  0  0
    1.3624    0.1827   -3.7481 C   0  0  0  0  0  0  0  0  0  0  0  0
    2.0495    1.0340   -3.8081 H   0  0  0  0  0  0  0  0  0  0  0  0
    1.8771   -0.7006   -4.1392 H   0  0  0  0  0  0  0  0  0  0  0  0
    0.4946    0.3881   -4.3843 H   0  0  0  0  0  0  0  0  0  0  0  0
  1  2  1  0  0  0  0
  2  3  1  0  0  0  0
  2  4  1  0  0  0  0
  2  5  1  0  0  0  0
  5  6  2  0  0  0  0
  5  7  1  0  0  0  0
  7  8  1  0  0  0  0
  7  9  1  0  0  0  0
  9 10  1  0  0  0  0
  9 11  1  0  0  0  0
  9 23  1  0  0  0  0
 11 12  1  0  0  0  0
 11 13  1  0  0  0  0
 11 14  1  0  0  0  0
 14 15  1  0  0  0  0
 14 21  2  0  0  0  0
 15 16  1  0  0  0  0
 15 17  2  0  0  0  0
 17 18  1  0  0  0  0
 17 19  1  0  0  0  0
 19 20  1  0  0  0  0
 19 21  1  0  0  0  0
 21 22  1  0  0  0  0
 23 24  2  0  0  0  0
 23 25  1  0  0  0  0
 25 26  1  0  0  0  0
 25 27  1  0  0  0  0
 27 28  1  0  0  0  0
 27 29  1  0  0  0  0
 27 30  1  0  0  0  0
M  CHG  1  15   1
M  END
$$$$

  -OEChem-01062216083D

 30 30  0     1  0  0  0  0  0999 V2000
   -3.9762   -2.0526    0.9648 H   0  0  0  0  0  0  0  0  0  0  0  0
   -3.6853   -1.1690    0.3894 C   0  0  0  0  0  0  0  0  0  0  0  0
   -4.1914   -0.2962    0.8088 H   0  0  0  0  0  0  0  0  0  0  0  0
   -4.0070   -1.3055   -0.6463 H   0  0  0  0  0  0  0  0  0  0  0  0
   -2.1816   -0.9776    0.4451 C   0  0  0  0  0  0  0  0  0  0  0  0
   -1.4940   -1.8266    0.9830 O   0  0  0  0  0  0  0  0  0  0  0  0
   -1.6149    0.0898   -0.2253 N   0  0  0  0  0  0  0  0  0  0  0  0
   -2.2908    0.6649   -0.7279 H   0  0  0  0  0  0  0  0  0  0  0  0
   -0.2297    0.6204   -0.1991 C   0  0  1  0  0  0  0  0  0  0  0  0
   -0.3365    1.6127    0.2519 H   0  0  0  0  0  0  0  0  0  0  0  0
    0.8918   -0.0466    0.6378 C   0  0  0  0  0  0  0  0  0  0  0  0
    0.9938   -1.0886    0.3159 H   0  0  0  0  0  0  0  0  0  0  0  0
    1.8451    0.4481    0.4197 H   0  0  0  0  0  0  0  0  0  0  0  0
    0.6660   -0.0097    2.1353 C   0  0  0  0  0  0  0  0  0  0  0  0
    0.8205    1.1191    2.9445 N   0  3  0  0  0  0  0  0  0  0  0  0
    1.0412    2.0460    2.5706 H   0  0  0  0  0  0  0  0  0  0  0  0
    0.6548    0.8066    4.2075 C   0  0  0  0  0  0  0  0  0  0  0  0
    0.7115    1.4885    5.0581 H   0  0  0  0  0  0  0  0  0  0  0  0
    0.4035   -0.5616    4.2627 N   0  0  0  0  0  0  0  0  0  0  0  0
    0.2346   -1.1089    5.1121 H   0  0  0  0  0  0  0  0  0  0  0  0
    0.4381   -1.0731    2.9729 C   0  0  0  0  0  0  0  0  0  0  0  0
    0.3018   -2.1115    2.6654 H   0  0  0  0  0  0  0  0  0  0  0  0
    0.2615    0.9121   -1.6259 C   0  0  0  0  0  0  0  0  0  0  0  0
    0.4005    2.0746   -1.9714 O   0  0  0  0  0  0  0  0  0  0  0  0
    0.6265   -0.1171   -2.4727 N   0  0  0  0  0  0  0  0  0  0  0  0
    0.4041   -1.0659   -2.1807 H   0  0  0  0  0  0  0  0  0  0  0  0
    1.0913    0.1050   -3.8392 C   0  0  0  0  0  0  0  0  0  0  0  0
    1.9968    0.7215   -3.8421 H   0  0  0  0  0  0  0  0  0  0  0  0
    1.3248   -0.8491   -4.3221 H   0  0  0  0  0  0  0  0  0  0  0  0
    0.3211    0.6119   -4.4306 H   0  0  0  0  0  0  0  0  0  0  0  0
  1  2  1  0  0  0  0
  2  3  1  0  0  0  0
  2  4  1  0  0  0  0
  2  5  1  0  0  0  0
  5  6  2  0  0  0  0
  5  7  1  0  0  0  0
  7  8  1  0  0  0  0
  7  9  1  0  0  0  0
  9 10  1  0  0  0  0
  9 11  1  0  0  0  0
  9 23  1  0  0  0  0
 11 12  1  0  0  0  0
 11 13  1  0  0  0  0
 11 14  1  0  0  0  0
 14 15  1  0  0  0  0
 14 21  2  0  0  0  0
 15 16  1  0  0  0  0
 15 17  2  0  0  0  0
 17 18  1  0  0  0  0
 17 19  1  0  0  0  0
 19 20  1  0  0  0  0
 19 21  1  0  0  0  0
 21 22  1  0  0  0  0
 23 24  2  0  0  0  0
 23 25  1  0  0  0  0
 25 26  1  0  0  0  0
 25 27  1  0  0  0  0
 27 28  1  0  0  0  0
 27 29  1  0  0  0  0
 27 30  1  0  0  0  0
M  CHG  1  15   1
M  END
$$$$

  -OEChem-01062216083D

 30 30  0     1  0  0  0  0  0999 V2000
   -3.9884   -2.0695    0.9964 H   0  0  0  0  0  0  0  0  0  0  0  0
   -3.7109   -1.1737    0.4332 C   0  0  0  0  0  0  0  0  0  0  0  0
   -4.2090   -0.3102    0.8809 H   0  0  0  0  0  0  0  0  0  0  0  0
   -4.0547   -1.2899   -0.5977 H   0  0  0  0  0  0  0  0  0  0  0  0
   -2.2066   -0.9812    0.4609 C   0  0  0  0  0  0  0  0  0  0  0  0
   -1.5092   -1.8282    0.9884 O   0  0  0  0  0  0  0  0  0  0  0  0
   -1.6532    0.0853   -0.2224 N   0  0  0  0  0  0  0  0  0  0  0  0
   -2.3407    0.6600   -0.7088 H   0  0  0  0  0  0  0  0  0  0  0  0
   -0.2707    0.6266   -0.2086 C   0  0  1  0  0  0  0  0  0  0  0  0
   -0.3806    1.6195    0.2403 H   0  0  0  0  0  0  0  0  0  0  0  0
    0.8630   -0.0357    0.6153 C   0  0  0  0  0  0  0  0  0  0  0  0
    0.9676   -1.0753    0.2862 H   0  0  0  0  0  0  0  0  0  0  0  0
    1.8110    0.4659    0.3889 H   0  0  0  0  0  0  0  0  0  0  0  0
    0.6569   -0.0081    2.1155 C   0  0  0  0  0  0  0  0  0  0  0  0
    0.8154    1.1187    2.9264 N   0  3  0  0  0  0  0  0  0  0  0  0
    1.0279    2.0476    2.5523 H   0  0  0  0  0  0  0  0  0  0  0  0
    0.6742    0.7997    4.1908 C   0  0  0  0  0  0  0  0  0  0  0  0
    0.7420    1.4784    5.0433 H   0  0  0  0  0  0  0  0  0  0  0  0
    0.4342   -0.5707    4.2444 N   0  0  0  0  0  0  0  0  0  0  0  0
    0.2887   -1.1234    5.0945 H   0  0  0  0  0  0  0  0  0  0  0  0
    0.4513   -1.0768    2.9522 C   0  0  0  0  0  0  0  0  0  0  0  0
    0.3201   -2.1154    2.6427 H   0  0  0  0  0  0  0  0  0  0  0  0
    0.2230    0.9150   -1.6346 C   0  0  0  0  0  0  0  0  0  0  0  0
    0.6439    2.0317   -1.8924 O   0  0  0  0  0  0  0  0  0  0  0  0
    0.3037   -0.0971   -2.5715 N   0  0  0  0  0  0  0  0  0  0  0  0
   -0.0809   -1.0048   -2.3190 H   0  0  0  0  0  0  0  0  0  0  0  0
    0.7981    0.1089   -3.9300 C   0  0  0  0  0  0  0  0  0  0  0  0
    1.8209    0.5010   -3.9123 H   0  0  0  0  0  0  0  0  0  0  0  0
    0.8032   -0.8366   -4.4816 H   0  0  0  0  0  0  0  0  0  0  0  0
    0.1606    0.8190   -4.4677 H   0  0  0  0  0  0  0  0  0  0  0  0
  1  2  1  0  0  0  0
  2  3  1  0  0  0  0
  2  4  1  0  0  0  0
  2  5  1  0  0  0  0
  5  6  2  0  0  0  0
  5  7  1  0  0  0  0
  7  8  1  0  0  0  0
  7  9  1  0  0  0  0
  9 10  1  0  0  0  0
  9 11  1  0  0  0  0
  9 23  1  0  0  0  0
 11 12  1  0  0  0  0
 11 13  1  0  0  0  0
 11 14  1  0  0  0  0
 14 15  1  0  0  0  0
 14 21  2  0  0  0  0
 15 16  1  0  0  0  0
 15 17  2  0  0  0  0
 17 18  1  0  0  0  0
 17 19  1  0  0  0  0
 19 20  1  0  0  0  0
 19 21  1  0  0  0  0
 21 22  1  0  0  0  0
 23 24  2  0  0  0  0
 23 25  1  0  0  0  0
 25 26  1  0  0  0  0
 25 27  1  0  0  0  0
 27 28  1  0  0  0  0
 27 29  1  0  0  0  0
 27 30  1  0  0  0  0
M  CHG  1  15   1
M  END
$$$$

  -OEChem-01062216083D

 30 30  0     1  0  0  0  0  0999 V2000
   -3.9956   -2.0774    1.0352 H   0  0  0  0  0  0  0  0  0  0  0  0
   -3.7284   -1.1840    0.4632 C   0  0  0  0  0  0  0  0  0  0  0  0
   -4.2264   -0.3204    0.9104 H   0  0  0  0  0  0  0  0  0  0  0  0
   -4.0822   -1.3081   -0.5635 H   0  0  0  0  0  0  0  0  0  0  0  0
   -2.2248   -0.9835    0.4755 C   0  0  0  0  0  0  0  0  0  0  0  0
   -1.5185   -1.8271    0.9959 O   0  0  0  0  0  0  0  0  0  0  0  0
   -1.6845    0.0854   -0.2150 N   0  0  0  0  0  0  0  0  0  0  0  0
   -2.3822    0.6563   -0.6910 H   0  0  0  0  0  0  0  0  0  0  0  0
   -0.3060    0.6412   -0.2122 C   0  0  1  0  0  0  0  0  0  0  0  0
   -0.4193    1.6337    0.2357 H   0  0  0  0  0  0  0  0  0  0  0  0
    0.8398   -0.0171    0.5993 C   0  0  0  0  0  0  0  0  0  0  0  0
    0.9496   -1.0532    0.2609 H   0  0  0  0  0  0  0  0  0  0  0  0
    1.7824    0.4925    0.3681 H   0  0  0  0  0  0  0  0  0  0  0  0
    0.6512   -0.0021    2.1018 C   0  0  0  0  0  0  0  0  0  0  0  0
    0.8107    1.1199    2.9185 N   0  3  0  0  0  0  0  0  0  0  0  0
    1.0164    2.0518    2.5483 H   0  0  0  0  0  0  0  0  0  0  0  0
    0.6918    0.7899    4.1824 C   0  0  0  0  0  0  0  0  0  0  0  0
    0.7690    1.4620    5.0393 H   0  0  0  0  0  0  0  0  0  0  0  0
    0.4632   -0.5828    4.2290 N   0  0  0  0  0  0  0  0  0  0  0  0
    0.3361   -1.1434    5.0769 H   0  0  0  0  0  0  0  0  0  0  0  0
    0.4668   -1.0790    2.9329 C   0  0  0  0  0  0  0  0  0  0  0  0
    0.3412   -2.1163    2.6170 H   0  0  0  0  0  0  0  0  0  0  0  0
    0.1843    0.9316   -1.6392 C   0  0  0  0  0  0  0  0  0  0  0  0
    0.8313    1.9481   -1.8368 O   0  0  0  0  0  0  0  0  0  0  0  0
   -0.0084    0.0145   -2.6540 N   0  0  0  0  0  0  0  0  0  0  0  0
   -0.5136   -0.8390   -2.4270 H   0  0  0  0  0  0  0  0  0  0  0  0
    0.4985    0.2004   -4.0105 C   0  0  0  0  0  0  0  0  0  0  0  0
    1.5921    0.2633   -4.0075 H   0  0  0  0  0  0  0  0  0  0  0  0
    0.2035   -0.6405   -4.6463 H   0  0  0  0  0  0  0  0  0  0  0  0
    0.0960    1.1204   -4.4482 H   0  0  0  0  0  0  0  0  0  0  0  0
  1  2  1  0  0  0  0
  2  3  1  0  0  0  0
  2  4  1  0  0  0  0
  2  5  1  0  0  0  0
  5  6  2  0  0  0  0
  5  7  1  0  0  0  0
  7  8  1  0  0  0  0
  7  9  1  0  0  0  0
  9 10  1  0  0  0  0
  9 11  1  0  0  0  0
  9 23  1  0  0  0  0
 11 12  1  0  0  0  0
 11 13  1  0  0  0  0
 11 14  1  0  0  0  0
 14 15  1  0  0  0  0
 14 21  2  0  0  0  0
 15 16  1  0  0  0  0
 15 17  2  0  0  0  0
 17 18  1  0  0  0  0
 17 19  1  0  0  0  0
 19 20  1  0  0  0  0
 19 21  1  0  0  0  0
 21 22  1  0  0  0  0
 23 24  2  0  0  0  0
 23 25  1  0  0  0  0
 25 26  1  0  0  0  0
 25 27  1  0  0  0  0
 27 28  1  0  0  0  0
 27 29  1  0  0  0  0
 27 30  1  0  0  0  0
M  CHG  1  15   1
M  END
$$$$

  -OEChem-01062216083D

 30 30  0     1  0  0  0  0  0999 V2000
   -3.9945   -2.0797    1.0845 H   0  0  0  0  0  0  0  0  0  0  0  0
   -3.7344   -1.1948    0.4962 C   0  0  0  0  0  0  0  0  0  0  0  0
   -4.2283   -0.3252    0.9365 H   0  0  0  0  0  0  0  0  0  0  0  0
   -4.1006   -1.3350   -0.5240 H   0  0  0  0  0  0  0  0  0  0  0  0
   -2.2305   -0.9939    0.4865 C   0  0  0  0  0  0  0  0  0  0  0  0
   -1.5177   -1.8403    0.9930 O   0  0  0  0  0  0  0  0  0  0  0  0
   -1.7012    0.0793   -0.2071 N   0  0  0  0  0  0  0  0  0  0  0  0
   -2.4085    0.6558   -0.6614 H   0  0  0  0  0  0  0  0  0  0  0  0
   -0.3249    0.6443   -0.2160 C   0  0  1  0  0  0  0  0  0  0  0  0
   -0.4381    1.6361    0.2329 H   0  0  0  0  0  0  0  0  0  0  0  0
    0.8252   -0.0156    0.5909 C   0  0  0  0  0  0  0  0  0  0  0  0
    0.9326   -1.0512    0.2499 H   0  0  0  0  0  0  0  0  0  0  0  0
    1.7688    0.4917    0.3589 H   0  0  0  0  0  0  0  0  0  0  0  0
    0.6432   -0.0028    2.0941 C   0  0  0  0  0  0  0  0  0  0  0  0
    0.8067    1.1194    2.9097 N   0  3  0  0  0  0  0  0  0  0  0  0
    1.0143    2.0504    2.5381 H   0  0  0  0  0  0  0  0  0  0  0  0
    0.6983    0.7889    4.1744 C   0  0  0  0  0  0  0  0  0  0  0  0
    0.7835    1.4605    5.0308 H   0  0  0  0  0  0  0  0  0  0  0  0
    0.4713   -0.5839    4.2225 N   0  0  0  0  0  0  0  0  0  0  0  0
    0.3540   -1.1453    5.0712 H   0  0  0  0  0  0  0  0  0  0  0  0
    0.4669   -1.0801    2.9264 C   0  0  0  0  0  0  0  0  0  0  0  0
    0.3439   -2.1180    2.6111 H   0  0  0  0  0  0  0  0  0  0  0  0
    0.1623    0.9442   -1.6444 C   0  0  0  0  0  0  0  0  0  0  0  0
    0.9777    1.8398   -1.8028 O   0  0  0  0  0  0  0  0  0  0  0  0
   -0.2764    0.1999   -2.7228 N   0  0  0  0  0  0  0  0  0  0  0  0
   -0.8771   -0.5971   -2.5267 H   0  0  0  0  0  0  0  0  0  0  0  0
    0.2145    0.3979   -4.0838 C   0  0  0  0  0  0  0  0  0  0  0  0
    1.2842    0.1699   -4.1436 H   0  0  0  0  0  0  0  0  0  0  0  0
   -0.3185   -0.2573   -4.7801 H   0  0  0  0  0  0  0  0  0  0  0  0
    0.0594    1.4347   -4.4021 H   0  0  0  0  0  0  0  0  0  0  0  0
  1  2  1  0  0  0  0
  2  3  1  0  0  0  0
  2  4  1  0  0  0  0
  2  5  1  0  0  0  0
  5  6  2  0  0  0  0
  5  7  1  0  0  0  0
  7  8  1  0  0  0  0
  7  9  1  0  0  0  0
  9 10  1  0  0  0  0
  9 11  1  0  0  0  0
  9 23  1  0  0  0  0
 11 12  1  0  0  0  0
 11 13  1  0  0  0  0
 11 14  1  0  0  0  0
 14 15  1  0  0  0  0
 14 21  2  0  0  0  0
 15 16  1  0  0  0  0
 15 17  2  0  0  0  0
 17 18  1  0  0  0  0
 17 19  1  0  0  0  0
 19 20  1  0  0  0  0
 19 21  1  0  0  0  0
 21 22  1  0  0  0  0
 23 24  2  0  0  0  0
 23 25  1  0  0  0  0
 25 26  1  0  0  0  0
 25 27  1  0  0  0  0
 27 28  1  0  0  0  0
 27 29  1  0  0  0  0
 27 30  1  0  0  0  0
M  CHG  1  15   1
M  END
$$$$

  -OEChem-01062216083D

 30 30  0     1  0  0  0  0  0999 V2000
   -3.9868   -2.0795    1.0980 H   0  0  0  0  0  0  0  0  0  0  0  0
   -3.7298   -1.1941    0.5090 C   0  0  0  0  0  0  0  0  0  0  0  0
   -4.2185   -0.3243    0.9546 H   0  0  0  0  0  0  0  0  0  0  0  0
   -4.1034   -1.3317   -0.5089 H   0  0  0  0  0  0  0  0  0  0  0  0
   -2.2259   -0.9962    0.4886 C   0  0  0  0  0  0  0  0  0  0  0  0
   -1.5117   -1.8456    0.9872 O   0  0  0  0  0  0  0  0  0  0  0  0
   -1.7024    0.0789   -0.2064 N   0  0  0  0  0  0  0  0  0  0  0  0
   -2.4162    0.6642   -0.6384 H   0  0  0  0  0  0  0  0  0  0  0  0
   -0.3281    0.6510   -0.2195 C   0  0  1  0  0  0  0  0  0  0  0  0
   -0.4412    1.6431    0.2284 H   0  0  0  0  0  0  0  0  0  0  0  0
    0.8210   -0.0128    0.5899 C   0  0  0  0  0  0  0  0  0  0  0  0
    0.9279   -1.0475    0.2458 H   0  0  0  0  0  0  0  0  0  0  0  0
    1.7676    0.4912    0.3640 H   0  0  0  0  0  0  0  0  0  0  0  0
    0.6386   -0.0033    2.0932 C   0  0  0  0  0  0  0  0  0  0  0  0
    0.8038    1.1169    2.9112 N   0  3  0  0  0  0  0  0  0  0  0  0
    1.0132    2.0481    2.5414 H   0  0  0  0  0  0  0  0  0  0  0  0
    0.6982    0.7837    4.1755 C   0  0  0  0  0  0  0  0  0  0  0  0
    0.7876    1.4531    5.0332 H   0  0  0  0  0  0  0  0  0  0  0  0
    0.4691   -0.5890    4.2211 N   0  0  0  0  0  0  0  0  0  0  0  0
    0.3534   -1.1524    5.0688 H   0  0  0  0  0  0  0  0  0  0  0  0
    0.4633   -1.0822    2.9237 C   0  0  0  0  0  0  0  0  0  0  0  0
    0.3412   -2.1195    2.6066 H   0  0  0  0  0  0  0  0  0  0  0  0
    0.1559    0.9532   -1.6513 C   0  0  0  0  0  0  0  0  0  0  0  0
    1.1020    1.7122   -1.7986 O   0  0  0  0  0  0  0  0  0  0  0  0
   -0.4902    0.4293   -2.7555 N   0  0  0  0  0  0  0  0  0  0  0  0
   -1.1857   -0.2924   -2.5840 H   0  0  0  0  0  0  0  0  0  0  0  0
   -0.0407    0.6600   -4.1259 C   0  0  0  0  0  0  0  0  0  0  0  0
    0.9605    0.2425   -4.2782 H   0  0  0  0  0  0  0  0  0  0  0  0
   -0.7252    0.1855   -4.8363 H   0  0  0  0  0  0  0  0  0  0  0  0
   -0.0096    1.7330   -4.3453 H   0  0  0  0  0  0  0  0  0  0  0  0
  1  2  1  0  0  0  0
  2  3  1  0  0  0  0
  2  4  1  0  0  0  0
  2  5  1  0  0  0  0
  5  6  2  0  0  0  0
  5  7  1  0  0  0  0
  7  8  1  0  0  0  0
  7  9  1  0  0  0  0
  9 10  1  0  0  0  0
  9 11  1  0  0  0  0
  9 23  1  0  0  0  0
 11 12  1  0  0  0  0
 11 13  1  0  0  0  0
 11 14  1  0  0  0  0
 14 15  1  0  0  0  0
 14 21  2  0  0  0  0
 15 16  1  0  0  0  0
 15 17  2  0  0  0  0
 17 18  1  0  0  0  0
 17 19  1  0  0  0  0
 19 20  1  0  0  0  0
 19 21  1  0  0  0  0
 21 22  1  0  0  0  0
 23 24  2  0  0  0  0
 23 25  1  0  0  0  0
 25 26  1  0  0  0  0
 25 27  1  0  0  0  0
 27 28  1  0  0  0  0
 27 29  1  0  0  0  0
 27 30  1  0  0  0  0
M  CHG  1  15   1
M  END
$$$$

  -OEChem-01062216083D

 30 30  0     1  0  0  0  0  0999 V2000
   -3.9658   -2.0803    1.1268 H   0  0  0  0  0  0  0  0  0  0  0  0
   -3.7161   -1.2005    0.5265 C   0  0  0  0  0  0  0  0  0  0  0  0
   -4.1968   -0.3261    0.9717 H   0  0  0  0  0  0  0  0  0  0  0  0
   -4.1047   -1.3466   -0.4844 H   0  0  0  0  0  0  0  0  0  0  0  0
   -2.2123   -1.0057    0.4819 C   0  0  0  0  0  0  0  0  0  0  0  0
   -1.4935   -1.8624    0.9610 O   0  0  0  0  0  0  0  0  0  0  0  0
   -1.6983    0.0752   -0.2121 N   0  0  0  0  0  0  0  0  0  0  0  0
   -2.4211    0.6715   -0.6120 H   0  0  0  0  0  0  0  0  0  0  0  0
   -0.3262    0.6555   -0.2279 C   0  0  1  0  0  0  0  0  0  0  0  0
   -0.4416    1.6468    0.2209 H   0  0  0  0  0  0  0  0  0  0  0  0
    0.8197   -0.0114    0.5889 C   0  0  0  0  0  0  0  0  0  0  0  0
    0.9270   -1.0457    0.2439 H   0  0  0  0  0  0  0  0  0  0  0  0
    1.7700    0.4891    0.3726 H   0  0  0  0  0  0  0  0  0  0  0  0
    0.6324   -0.0022    2.0922 C   0  0  0  0  0  0  0  0  0  0  0  0
    0.7965    1.1156    2.9140 N   0  3  0  0  0  0  0  0  0  0  0  0
    1.0177    2.0456    2.5481 H   0  0  0  0  0  0  0  0  0  0  0  0
    0.6881    0.7785    4.1771 C   0  0  0  0  0  0  0  0  0  0  0  0
    0.7795    1.4443    5.0373 H   0  0  0  0  0  0  0  0  0  0  0  0
    0.4552   -0.5935    4.2180 N   0  0  0  0  0  0  0  0  0  0  0  0
    0.3367   -1.1595    5.0635 H   0  0  0  0  0  0  0  0  0  0  0  0
    0.4526   -1.0828    2.9194 C   0  0  0  0  0  0  0  0  0  0  0  0
    0.3316   -2.1193    2.5988 H   0  0  0  0  0  0  0  0  0  0  0  0
    0.1520    0.9654   -1.6639 C   0  0  0  0  0  0  0  0  0  0  0  0
    1.2080    1.5613   -1.8159 O   0  0  0  0  0  0  0  0  0  0  0  0
   -0.6476    0.7078   -2.7630 N   0  0  0  0  0  0  0  0  0  0  0  0
   -1.4365    0.0837   -2.6187 H   0  0  0  0  0  0  0  0  0  0  0  0
   -0.2258    0.9893   -4.1334 C   0  0  0  0  0  0  0  0  0  0  0  0
    0.6474    0.3839   -4.3993 H   0  0  0  0  0  0  0  0  0  0  0  0
   -1.0334    0.7598   -4.8357 H   0  0  0  0  0  0  0  0  0  0  0  0
    0.0347    2.0474   -4.2469 H   0  0  0  0  0  0  0  0  0  0  0  0
  1  2  1  0  0  0  0
  2  3  1  0  0  0  0
  2  4  1  0  0  0  0
  2  5  1  0  0  0  0
  5  6  2  0  0  0  0
  5  7  1  0  0  0  0
  7  8  1  0  0  0  0
  7  9  1  0  0  0  0
  9 10  1  0  0  0  0
  9 11  1  0  0  0  0
  9 23  1  0  0  0  0
 11 12  1  0  0  0  0
 11 13  1  0  0  0  0
 11 14  1  0  0  0  0
 14 15  1  0  0  0  0
 14 21  2  0  0  0  0
 15 16  1  0  0  0  0
 15 17  2  0  0  0  0
 17 18  1  0  0  0  0
 17 19  1  0  0  0  0
 19 20  1  0  0  0  0
 19 21  1  0  0  0  0
 21 22  1  0  0  0  0
 23 24  2  0  0  0  0
 23 25  1  0  0  0  0
 25 26  1  0  0  0  0
 25 27  1  0  0  0  0
 27 28  1  0  0  0  0
 27 29  1  0  0  0  0
 27 30  1  0  0  0  0
M  CHG  1  15   1
M  END
$$$$

  -OEChem-01062216083D

 30 30  0     1  0  0  0  0  0999 V2000
   -3.9535   -2.0859    1.1162 H   0  0  0  0  0  0  0  0  0  0  0  0
   -3.7072   -1.2007    0.5224 C   0  0  0  0  0  0  0  0  0  0  0  0
   -4.1858   -0.3304    0.9778 H   0  0  0  0  0  0  0  0  0  0  0  0
   -4.1008   -1.3384   -0.4877 H   0  0  0  0  0  0  0  0  0  0  0  0
   -2.2035   -1.0057    0.4715 C   0  0  0  0  0  0  0  0  0  0  0  0
   -1.4839   -1.8648    0.9448 O   0  0  0  0  0  0  0  0  0  0  0  0
   -1.6931    0.0795   -0.2191 N   0  0  0  0  0  0  0  0  0  0  0  0
   -2.4211    0.6849   -0.5933 H   0  0  0  0  0  0  0  0  0  0  0  0
   -0.3217    0.6629   -0.2338 C   0  0  1  0  0  0  0  0  0  0  0  0
   -0.4361    1.6533    0.2164 H   0  0  0  0  0  0  0  0  0  0  0  0
    0.8199   -0.0091    0.5892 C   0  0  0  0  0  0  0  0  0  0  0  0
    0.9285   -1.0421    0.2408 H   0  0  0  0  0  0  0  0  0  0  0  0
    1.7735    0.4894    0.3841 H   0  0  0  0  0  0  0  0  0  0  0  0
    0.6279   -0.0025    2.0918 C   0  0  0  0  0  0  0  0  0  0  0  0
    0.7919    1.1122    2.9173 N   0  3  0  0  0  0  0  0  0  0  0  0
    1.0141    2.0429    2.5547 H   0  0  0  0  0  0  0  0  0  0  0  0
    0.6851    0.7709    4.1792 C   0  0  0  0  0  0  0  0  0  0  0  0
    0.7781    1.4336    5.0416 H   0  0  0  0  0  0  0  0  0  0  0  0
    0.4529   -0.6013    4.2155 N   0  0  0  0  0  0  0  0  0  0  0  0
    0.3375   -1.1707    5.0590 H   0  0  0  0  0  0  0  0  0  0  0  0
    0.4506   -1.0861    2.9154 C   0  0  0  0  0  0  0  0  0  0  0  0
    0.3330   -2.1218    2.5910 H   0  0  0  0  0  0  0  0  0  0  0  0
    0.1509    0.9780   -1.6742 C   0  0  0  0  0  0  0  0  0  0  0  0
    1.2937    1.3719   -1.8550 O   0  0  0  0  0  0  0  0  0  0  0  0
   -0.7403    1.0135   -2.7326 N   0  0  0  0  0  0  0  0  0  0  0  0
   -1.6272    0.5375   -2.6001 H   0  0  0  0  0  0  0  0  0  0  0  0
   -0.3317    1.3412   -4.0970 C   0  0  0  0  0  0  0  0  0  0  0  0
    0.3931    0.6084   -4.4682 H   0  0  0  0  0  0  0  0  0  0  0  0
   -1.1982    1.3403   -4.7657 H   0  0  0  0  0  0  0  0  0  0  0  0
    0.1265    2.3357   -4.1336 H   0  0  0  0  0  0  0  0  0  0  0  0
  1  2  1  0  0  0  0
  2  3  1  0  0  0  0
  2  4  1  0  0  0  0
  2  5  1  0  0  0  0
  5  6  2  0  0  0  0
  5  7  1  0  0  0  0
  7  8  1  0  0  0  0
  7  9  1  0  0  0  0
  9 10  1  0  0  0  0
  9 11  1  0  0  0  0
  9 23  1  0  0  0  0
 11 12  1  0  0  0  0
 11 13  1  0  0  0  0
 11 14  1  0  0  0  0
 14 15  1  0  0  0  0
 14 21  2  0  0  0  0
 15 16  1  0  0  0  0
 15 17  2  0  0  0  0
 17 18  1  0  0  0  0
 17 19  1  0  0  0  0
 19 20  1  0  0  0  0
 19 21  1  0  0  0  0
 21 22  1  0  0  0  0
 23 24  2  0  0  0  0
 23 25  1  0  0  0  0
 25 26  1  0  0  0  0
 25 27  1  0  0  0  0
 27 28  1  0  0  0  0
 27 29  1  0  0  0  0
 27 30  1  0  0  0  0
M  CHG  1  15   1
M  END
$$$$

  -OEChem-01062216083D

 30 30  0     1  0  0  0  0  0999 V2000
   -3.9376   -2.0942    1.0822 H   0  0  0  0  0  0  0  0  0  0  0  0
   -3.6918   -1.2082    0.4896 C   0  0  0  0  0  0  0  0  0  0  0  0
   -4.1820   -0.3408    0.9377 H   0  0  0  0  0  0  0  0  0  0  0  0
   -4.0730   -1.3510   -0.5246 H   0  0  0  0  0  0  0  0  0  0  0  0
   -2.1894   -1.0021    0.4551 C   0  0  0  0  0  0  0  0  0  0  0  0
   -1.4703   -1.8562    0.9379 O   0  0  0  0  0  0  0  0  0  0  0  0
   -1.6816    0.0904   -0.2262 N   0  0  0  0  0  0  0  0  0  0  0  0
   -2.4135    0.6887   -0.6012 H   0  0  0  0  0  0  0  0  0  0  0  0
   -0.3124    0.6799   -0.2334 C   0  0  1  0  0  0  0  0  0  0  0  0
   -0.4304    1.6673    0.2214 H   0  0  0  0  0  0  0  0  0  0  0  0
    0.8271    0.0081    0.5952 C   0  0  0  0  0  0  0  0  0  0  0  0
    0.9444   -1.0222    0.2407 H   0  0  0  0  0  0  0  0  0  0  0  0
    1.7789    0.5138    0.3999 H   0  0  0  0  0  0  0  0  0  0  0  0
    0.6296    0.0073    2.0977 C   0  0  0  0  0  0  0  0  0  0  0  0
    0.7858    1.1151    2.9344 N   0  3  0  0  0  0  0  0  0  0  0  0
    1.0084    2.0495    2.5825 H   0  0  0  0  0  0  0  0  0  0  0  0
    0.6757    0.7614    4.1929 C   0  0  0  0  0  0  0  0  0  0  0  0
    0.7639    1.4157    5.0622 H   0  0  0  0  0  0  0  0  0  0  0  0
    0.4480   -0.6118    4.2158 N   0  0  0  0  0  0  0  0  0  0  0  0
    0.3324   -1.1900    5.0534 H   0  0  0  0  0  0  0  0  0  0  0  0
    0.4537   -1.0842    2.9114 C   0  0  0  0  0  0  0  0  0  0  0  0
    0.3430   -2.1176    2.5770 H   0  0  0  0  0  0  0  0  0  0  0  0
    0.1518    1.0035   -1.6778 C   0  0  0  0  0  0  0  0  0  0  0  0
    1.3432    1.1206   -1.9250 O   0  0  0  0  0  0  0  0  0  0  0  0
   -0.7588    1.3409   -2.6653 N   0  0  0  0  0  0  0  0  0  0  0  0
   -1.7339    1.1202   -2.4968 H   0  0  0  0  0  0  0  0  0  0  0  0
   -0.3565    1.6759   -4.0301 C   0  0  0  0  0  0  0  0  0  0  0  0
    0.1496    0.8263   -4.5012 H   0  0  0  0  0  0  0  0  0  0  0  0
   -1.2321    1.9353   -4.6336 H   0  0  0  0  0  0  0  0  0  0  0  0
    0.3254    2.5335   -4.0318 H   0  0  0  0  0  0  0  0  0  0  0  0
  1  2  1  0  0  0  0
  2  3  1  0  0  0  0
  2  4  1  0  0  0  0
  2  5  1  0  0  0  0
  5  6  2  0  0  0  0
  5  7  1  0  0  0  0
  7  8  1  0  0  0  0
  7  9  1  0  0  0  0
  9 10  1  0  0  0  0
  9 11  1  0  0  0  0
  9 23  1  0  0  0  0
 11 12  1  0  0  0  0
 11 13  1  0  0  0  0
 11 14  1  0  0  0  0
 14 15  1  0  0  0  0
 14 21  2  0  0  0  0
 15 16  1  0  0  0  0
 15 17  2  0  0  0  0
 17 18  1  0  0  0  0
 17 19  1  0  0  0  0
 19 20  1  0  0  0  0
 19 21  1  0  0  0  0
 21 22  1  0  0  0  0
 23 24  2  0  0  0  0
 23 25  1  0  0  0  0
 25 26  1  0  0  0  0
 25 27  1  0  0  0  0
 27 28  1  0  0  0  0
 27 29  1  0  0  0  0
 27 30  1  0  0  0  0
M  CHG  1  15   1
M  END
$$$$

  -OEChem-01062216083D

 30 30  0     1  0  0  0  0  0999 V2000
   -3.9986   -2.1297    0.8800 H   0  0  0  0  0  0  0  0  0  0  0  0
   -3.7203   -1.2358    0.3139 C   0  0  0  0  0  0  0  0  0  0  0  0
   -4.3090   -0.3921    0.6816 H   0  0  0  0  0  0  0  0  0  0  0  0
   -3.9546   -1.4050   -0.7401 H   0  0  0  0  0  0  0  0  0  0  0  0
   -2.2392   -0.9503    0.4771 C   0  0  0  0  0  0  0  0  0  0  0  0
   -1.5656   -1.7262    1.1261 O   0  0  0  0  0  0  0  0  0  0  0  0
   -1.6944    0.1281   -0.1980 N   0  0  0  0  0  0  0  0  0  0  0  0
   -2.3707    0.6013   -0.7911 H   0  0  0  0  0  0  0  0  0  0  0  0
   -0.3170    0.6963   -0.2013 C   0  0  1  0  0  0  0  0  0  0  0  0
   -0.4225    1.6860    0.2513 H   0  0  0  0  0  0  0  0  0  0  0  0
    0.8270    0.0259    0.6219 C   0  0  0  0  0  0  0  0  0  0  0  0
    0.9314   -1.0067    0.2697 H   0  0  0  0  0  0  0  0  0  0  0  0
    1.7759    0.5284    0.4046 H   0  0  0  0  0  0  0  0  0  0  0  0
    0.6591    0.0223    2.1286 C   0  0  0  0  0  0  0  0  0  0  0  0
    0.8317    1.1261    2.9680 N   0  3  0  0  0  0  0  0  0  0  0  0
    1.0309    2.0653    2.6162 H   0  0  0  0  0  0  0  0  0  0  0  0
    0.7486    0.7667    4.2270 C   0  0  0  0  0  0  0  0  0  0  0  0
    0.8460    1.4183    5.0974 H   0  0  0  0  0  0  0  0  0  0  0  0
    0.5322   -0.6080    4.2482 N   0  0  0  0  0  0  0  0  0  0  0  0
    0.4285   -1.1897    5.0849 H   0  0  0  0  0  0  0  0  0  0  0  0
    0.5125   -1.0739    2.9418 C   0  0  0  0  0  0  0  0  0  0  0  0
    0.3942   -2.1053    2.6044 H   0  0  0  0  0  0  0  0  0  0  0  0
    0.1348    0.9998   -1.6531 C   0  0  0  0  0  0  0  0  0  0  0  0
    1.2677    0.7292   -2.0227 O   0  0  0  0  0  0  0  0  0  0  0  0
   -0.7164    1.6334   -2.5438 N   0  0  0  0  0  0  0  0  0  0  0  0
   -1.6284    1.9303   -2.2143 H   0  0  0  0  0  0  0  0  0  0  0  0
   -0.3291    1.9691   -3.9128 C   0  0  0  0  0  0  0  0  0  0  0  0
   -0.0931    1.0613   -4.4787 H   0  0  0  0  0  0  0  0  0  0  0  0
   -1.1450    2.4903   -4.4235 H   0  0  0  0  0  0  0  0  0  0  0  0
    0.5509    2.6217   -3.9164 H   0  0  0  0  0  0  0  0  0  0  0  0
  1  2  1  0  0  0  0
  2  3  1  0  0  0  0
  2  4  1  0  0  0  0
  2  5  1  0  0  0  0
  5  6  2  0  0  0  0
  5  7  1  0  0  0  0
  7  8  1  0  0  0  0
  7  9  1  0  0  0  0
  9 10  1  0  0  0  0
  9 11  1  0  0  0  0
  9 23  1  0  0  0  0
 11 12  1  0  0  0  0
 11 13  1  0  0  0  0
 11 14  1  0  0  0  0
 14 15  1  0  0  0  0
 14 21  2  0  0  0  0
 15 16  1  0  0  0  0
 15 17  2  0  0  0  0
 17 18  1  0  0  0  0
 17 19  1  0  0  0  0
 19 20  1  0  0  0  0
 19 21  1  0  0  0  0
 21 22  1  0  0  0  0
 23 24  2  0  0  0  0
 23 25  1  0  0  0  0
 25 26  1  0  0  0  0
 25 27  1  0  0  0  0
 27 28  1  0  0  0  0
 27 29  1  0  0  0  0
 27 30  1  0  0  0  0
M  CHG  1  15   1
M  END
$$$$

  -OEChem-01062216083D

 30 30  0     1  0  0  0  0  0999 V2000
   -4.0249   -2.0867    0.8094 H   0  0  0  0  0  0  0  0  0  0  0  0
   -3.7224   -1.2119    0.2262 C   0  0  0  0  0  0  0  0  0  0  0  0
   -4.3536   -0.3668    0.5110 H   0  0  0  0  0  0  0  0  0  0  0  0
   -3.8734   -1.4315   -0.8337 H   0  0  0  0  0  0  0  0  0  0  0  0
   -2.2636   -0.8857    0.4857 C   0  0  0  0  0  0  0  0  0  0  0  0
   -1.6277   -1.6140    1.2212 O   0  0  0  0  0  0  0  0  0  0  0  0
   -1.6959    0.1805   -0.1895 N   0  0  0  0  0  0  0  0  0  0  0  0
   -2.3317    0.5960   -0.8667 H   0  0  0  0  0  0  0  0  0  0  0  0
   -0.3184    0.7445   -0.1758 C   0  0  1  0  0  0  0  0  0  0  0  0
   -0.4189    1.7360    0.2738 H   0  0  0  0  0  0  0  0  0  0  0  0
    0.8306    0.0696    0.6352 C   0  0  0  0  0  0  0  0  0  0  0  0
    0.9339   -0.9585    0.2690 H   0  0  0  0  0  0  0  0  0  0  0  0
    1.7748    0.5783    0.4103 H   0  0  0  0  0  0  0  0  0  0  0  0
    0.6773    0.0359    2.1430 C   0  0  0  0  0  0  0  0  0  0  0  0
    0.8486    1.1202    3.0077 N   0  3  0  0  0  0  0  0  0  0  0  0
    1.0269    2.0712    2.6778 H   0  0  0  0  0  0  0  0  0  0  0  0
    0.7764    0.7302    4.2583 C   0  0  0  0  0  0  0  0  0  0  0  0
    0.8684    1.3621    5.1434 H   0  0  0  0  0  0  0  0  0  0  0  0
    0.5761   -0.6468    4.2482 N   0  0  0  0  0  0  0  0  0  0  0  0
    0.4747   -1.2485    5.0707 H   0  0  0  0  0  0  0  0  0  0  0  0
    0.5522   -1.0810    2.9314 C   0  0  0  0  0  0  0  0  0  0  0  0
    0.4367   -2.1044    2.5696 H   0  0  0  0  0  0  0  0  0  0  0  0
    0.1306    1.0176   -1.6311 C   0  0  0  0  0  0  0  0  0  0  0  0
    1.1392    0.4971   -2.0837 O   0  0  0  0  0  0  0  0  0  0  0  0
   -0.5858    1.8943   -2.4286 N   0  0  0  0  0  0  0  0  0  0  0  0
   -1.3774    2.3829   -2.0214 H   0  0  0  0  0  0  0  0  0  0  0  0
   -0.2045    2.2093   -3.8039 C   0  0  0  0  0  0  0  0  0  0  0  0
   -0.1799    1.2993   -4.4134 H   0  0  0  0  0  0  0  0  0  0  0  0
   -0.9242    2.9021   -4.2512 H   0  0  0  0  0  0  0  0  0  0  0  0
    0.7863    2.6756   -3.8320 H   0  0  0  0  0  0  0  0  0  0  0  0
  1  2  1  0  0  0  0
  2  3  1  0  0  0  0
  2  4  1  0  0  0  0
  2  5  1  0  0  0  0
  5  6  2  0  0  0  0
  5  7  1  0  0  0  0
  7  8  1  0  0  0  0
  7  9  1  0  0  0  0
  9 10  1  0  0  0  0
  9 11  1  0  0  0  0
  9 23  1  0  0  0  0
 11 12  1  0  0  0  0
 11 13  1  0  0  0  0
 11 14  1  0  0  0  0
 14 15  1  0  0  0  0
 14 21  2  0  0  0  0
 15 16  1  0  0  0  0
 15 17  2  0  0  0  0
 17 18  1  0  0  0  0
 17 19  1  0  0  0  0
 19 20  1  0  0  0  0
 19 21  1  0  0  0  0
 21 22  1  0  0  0  0
 23 24  2  0  0  0  0
 23 25  1  0  0  0  0
 25 26  1  0  0  0  0
 25 27  1  0  0  0  0
 27 28  1  0  0  0  0
 27 29  1  0  0  0  0
 27 30  1  0  0  0  0
M  CHG  1  15   1
M  END
$$$$

  -OEChem-01062216083D

 30 30  0     1  0  0  0  0  0999 V2000
   -4.0323   -2.0679    0.7752 H   0  0  0  0  0  0  0  0  0  0  0  0
   -3.7216   -1.1985    0.1884 C   0  0  0  0  0  0  0  0  0  0  0  0
   -4.3705   -0.3563    0.4404 H   0  0  0  0  0  0  0  0  0  0  0  0
   -3.8382   -1.4353   -0.8722 H   0  0  0  0  0  0  0  0  0  0  0  0
   -2.2750   -0.8517    0.4879 C   0  0  0  0  0  0  0  0  0  0  0  0
   -1.6600   -1.5501    1.2685 O   0  0  0  0  0  0  0  0  0  0  0  0
   -1.6989    0.2093   -0.1877 N   0  0  0  0  0  0  0  0  0  0  0  0
   -2.3174    0.6025   -0.8944 H   0  0  0  0  0  0  0  0  0  0  0  0
   -0.3248    0.7790   -0.1615 C   0  0  1  0  0  0  0  0  0  0  0  0
   -0.4293    1.7692    0.2901 H   0  0  0  0  0  0  0  0  0  0  0  0
    0.8293    0.1047    0.6418 C   0  0  0  0  0  0  0  0  0  0  0  0
    0.9368   -0.9194    0.2652 H   0  0  0  0  0  0  0  0  0  0  0  0
    1.7688    0.6206    0.4141 H   0  0  0  0  0  0  0  0  0  0  0  0
    0.6847    0.0469    2.1500 C   0  0  0  0  0  0  0  0  0  0  0  0
    0.8501    1.1173    3.0332 N   0  3  0  0  0  0  0  0  0  0  0  0
    1.0126    2.0766    2.7199 H   0  0  0  0  0  0  0  0  0  0  0  0
    0.7885    0.7042    4.2771 C   0  0  0  0  0  0  0  0  0  0  0  0
    0.8771    1.3212    5.1729 H   0  0  0  0  0  0  0  0  0  0  0  0
    0.6020   -0.6742    4.2437 N   0  0  0  0  0  0  0  0  0  0  0  0
    0.5092   -1.2910    5.0560 H   0  0  0  0  0  0  0  0  0  0  0  0
    0.5743   -1.0849    2.9194 C   0  0  0  0  0  0  0  0  0  0  0  0
    0.4629   -2.1023    2.5408 H   0  0  0  0  0  0  0  0  0  0  0  0
    0.1335    1.0375   -1.6148 C   0  0  0  0  0  0  0  0  0  0  0  0
    0.9832    0.3300   -2.1342 O   0  0  0  0  0  0  0  0  0  0  0  0
   -0.3740    2.1117   -2.3251 N   0  0  0  0  0  0  0  0  0  0  0  0
   -1.0669    2.7049   -1.8777 H   0  0  0  0  0  0  0  0  0  0  0  0
    0.0260    2.4185   -3.6970 C   0  0  0  0  0  0  0  0  0  0  0  0
   -0.2233    1.5868   -4.3652 H   0  0  0  0  0  0  0  0  0  0  0  0
   -0.4915    3.3143   -4.0548 H   0  0  0  0  0  0  0  0  0  0  0  0
    1.1050    2.5996   -3.7529 H   0  0  0  0  0  0  0  0  0  0  0  0
  1  2  1  0  0  0  0
  2  3  1  0  0  0  0
  2  4  1  0  0  0  0
  2  5  1  0  0  0  0
  5  6  2  0  0  0  0
  5  7  1  0  0  0  0
  7  8  1  0  0  0  0
  7  9  1  0  0  0  0
  9 10  1  0  0  0  0
  9 11  1  0  0  0  0
  9 23  1  0  0  0  0
 11 12  1  0  0  0  0
 11 13  1  0  0  0  0
 11 14  1  0  0  0  0
 14 15  1  0  0  0  0
 14 21  2  0  0  0  0
 15 16  1  0  0  0  0
 15 17  2  0  0  0  0
 17 18  1  0  0  0  0
 17 19  1  0  0  0  0
 19 20  1  0  0  0  0
 19 21  1  0  0  0  0
 21 22  1  0  0  0  0
 23 24  2  0  0  0  0
 23 25  1  0  0  0  0
 25 26  1  0  0  0  0
 25 27  1  0  0  0  0
 27 28  1  0  0  0  0
 27 29  1  0  0  0  0
 27 30  1  0  0  0  0
M  CHG  1  15   1
M  END
$$$$

  -OEChem-01062216083D

 30 30  0     1  0  0  0  0  0999 V2000
   -4.0323   -2.0509    0.7275 H   0  0  0  0  0  0  0  0  0  0  0  0
   -3.7122   -1.1856    0.1397 C   0  0  0  0  0  0  0  0  0  0  0  0
   -4.3910   -0.3539    0.3427 H   0  0  0  0  0  0  0  0  0  0  0  0
   -3.7696   -1.4445   -0.9207 H   0  0  0  0  0  0  0  0  0  0  0  0
   -2.2908   -0.7998    0.5034 C   0  0  0  0  0  0  0  0  0  0  0  0
   -1.7100   -1.4517    1.3475 O   0  0  0  0  0  0  0  0  0  0  0  0
   -1.7030    0.2521   -0.1753 N   0  0  0  0  0  0  0  0  0  0  0  0
   -2.2956    0.6095   -0.9226 H   0  0  0  0  0  0  0  0  0  0  0  0
   -0.3314    0.8244   -0.1374 C   0  0  1  0  0  0  0  0  0  0  0  0
   -0.4379    1.8142    0.3144 H   0  0  0  0  0  0  0  0  0  0  0  0
    0.8281    0.1453    0.6528 C   0  0  0  0  0  0  0  0  0  0  0  0
    0.9371   -0.8726    0.2604 H   0  0  0  0  0  0  0  0  0  0  0  0
    1.7634    0.6686    0.4258 H   0  0  0  0  0  0  0  0  0  0  0  0
    0.6958    0.0570    2.1605 C   0  0  0  0  0  0  0  0  0  0  0  0
    0.8590    1.1078    3.0675 N   0  3  0  0  0  0  0  0  0  0  0  0
    1.0012    2.0771    2.7767 H   0  0  0  0  0  0  0  0  0  0  0  0
    0.8055    0.6656    4.3017 C   0  0  0  0  0  0  0  0  0  0  0  0
    0.8879    1.2629    5.2114 H   0  0  0  0  0  0  0  0  0  0  0  0
    0.6341   -0.7137    4.2374 N   0  0  0  0  0  0  0  0  0  0  0  0
    0.5440   -1.3491    5.0357 H   0  0  0  0  0  0  0  0  0  0  0  0
    0.6022   -1.0937    2.9042 C   0  0  0  0  0  0  0  0  0  0  0  0
    0.4922   -2.1022    2.5024 H   0  0  0  0  0  0  0  0  0  0  0  0
    0.1372    1.0618   -1.5896 C   0  0  0  0  0  0  0  0  0  0  0  0
    0.7658    0.1973   -2.1803 O   0  0  0  0  0  0  0  0  0  0  0  0
   -0.1092    2.2683   -2.2207 N   0  0  0  0  0  0  0  0  0  0  0  0
   -0.6569    2.9696   -1.7300 H   0  0  0  0  0  0  0  0  0  0  0  0
    0.3019    2.5408   -3.5965 C   0  0  0  0  0  0  0  0  0  0  0  0
   -0.1527    1.8189   -4.2840 H   0  0  0  0  0  0  0  0  0  0  0  0
   -0.0105    3.5457   -3.8973 H   0  0  0  0  0  0  0  0  0  0  0  0
    1.3912    2.4761   -3.6926 H   0  0  0  0  0  0  0  0  0  0  0  0
  1  2  1  0  0  0  0
  2  3  1  0  0  0  0
  2  4  1  0  0  0  0
  2  5  1  0  0  0  0
  5  6  2  0  0  0  0
  5  7  1  0  0  0  0
  7  8  1  0  0  0  0
  7  9  1  0  0  0  0
  9 10  1  0  0  0  0
  9 11  1  0  0  0  0
  9 23  1  0  0  0  0
 11 12  1  0  0  0  0
 11 13  1  0  0  0  0
 11 14  1  0  0  0  0
 14 15  1  0  0  0  0
 14 21  2  0  0  0  0
 15 16  1  0  0  0  0
 15 17  2  0  0  0  0
 17 18  1  0  0  0  0
 17 19  1  0  0  0  0
 19 20  1  0  0  0  0
 19 21  1  0  0  0  0
 21 22  1  0  0  0  0
 23 24  2  0  0  0  0
 23 25  1  0  0  0  0
 25 26  1  0  0  0  0
 25 27  1  0  0  0  0
 27 28  1  0  0  0  0
 27 29  1  0  0  0  0
 27 30  1  0  0  0  0
M  CHG  1  15   1
M  END
$$$$

  -OEChem-01062216083D

 30 30  0     1  0  0  0  0  0999 V2000
   -4.0326   -2.0271    0.7133 H   0  0  0  0  0  0  0  0  0  0  0  0
   -3.6965   -1.1823    0.1050 C   0  0  0  0  0  0  0  0  0  0  0  0
   -4.3993   -0.3557    0.2346 H   0  0  0  0  0  0  0  0  0  0  0  0
   -3.6933   -1.4882   -0.9444 H   0  0  0  0  0  0  0  0  0  0  0  0
   -2.3030   -0.7534    0.5242 C   0  0  0  0  0  0  0  0  0  0  0  0
   -1.7609   -1.3484    1.4336 O   0  0  0  0  0  0  0  0  0  0  0  0
   -1.7057    0.2882   -0.1616 N   0  0  0  0  0  0  0  0  0  0  0  0
   -2.2667    0.5947   -0.9549 H   0  0  0  0  0  0  0  0  0  0  0  0
   -0.3360    0.8644   -0.1151 C   0  0  1  0  0  0  0  0  0  0  0  0
   -0.4456    1.8552    0.3331 H   0  0  0  0  0  0  0  0  0  0  0  0
    0.8298    0.1818    0.6612 C   0  0  0  0  0  0  0  0  0  0  0  0
    0.9428   -0.8295    0.2528 H   0  0  0  0  0  0  0  0  0  0  0  0
    1.7609    0.7142    0.4391 H   0  0  0  0  0  0  0  0  0  0  0  0
    0.7066    0.0671    2.1672 C   0  0  0  0  0  0  0  0  0  0  0  0
    0.8651    1.0992    3.0960 N   0  3  0  0  0  0  0  0  0  0  0  0
    0.9857    2.0775    2.8264 H   0  0  0  0  0  0  0  0  0  0  0  0
    0.8106    0.6308    4.3205 C   0  0  0  0  0  0  0  0  0  0  0  0
    0.8774    1.2099    5.2431 H   0  0  0  0  0  0  0  0  0  0  0  0
    0.6556   -0.7486    4.2265 N   0  0  0  0  0  0  0  0  0  0  0  0
    0.5627   -1.4007    5.0107 H   0  0  0  0  0  0  0  0  0  0  0  0
    0.6276   -1.1006    2.8857 C   0  0  0  0  0  0  0  0  0  0  0  0
    0.5232   -2.1011    2.4631 H   0  0  0  0  0  0  0  0  0  0  0  0
    0.1458    1.0792   -1.5658 C   0  0  0  0  0  0  0  0  0  0  0  0
    0.5118    0.1211   -2.2285 O   0  0  0  0  0  0  0  0  0  0  0  0
    0.1902    2.3449   -2.1230 N   0  0  0  0  0  0  0  0  0  0  0  0
   -0.1764    3.1252   -1.5851 H   0  0  0  0  0  0  0  0  0  0  0  0
    0.6163    2.5878   -3.5000 C   0  0  0  0  0  0  0  0  0  0  0  0
   -0.0421    2.0676   -4.2044 H   0  0  0  0  0  0  0  0  0  0  0  0
    0.5861    3.6584   -3.7266 H   0  0  0  0  0  0  0  0  0  0  0  0
    1.6414    2.2332   -3.6542 H   0  0  0  0  0  0  0  0  0  0  0  0
  1  2  1  0  0  0  0
  2  3  1  0  0  0  0
  2  4  1  0  0  0  0
  2  5  1  0  0  0  0
  5  6  2  0  0  0  0
  5  7  1  0  0  0  0
  7  8  1  0  0  0  0
  7  9  1  0  0  0  0
  9 10  1  0  0  0  0
  9 11  1  0  0  0  0
  9 23  1  0  0  0  0
 11 12  1  0  0  0  0
 11 13  1  0  0  0  0
 11 14  1  0  0  0  0
 14 15  1  0  0  0  0
 14 21  2  0  0  0  0
 15 16  1  0  0  0  0
 15 17  2  0  0  0  0
 17 18  1  0  0  0  0
 17 19  1  0  0  0  0
 19 20  1  0  0  0  0
 19 21  1  0  0  0  0
 21 22  1  0  0  0  0
 23 24  2  0  0  0  0
 23 25  1  0  0  0  0
 25 26  1  0  0  0  0
 25 27  1  0  0  0  0
 27 28  1  0  0  0  0
 27 29  1  0  0  0  0
 27 30  1  0  0  0  0
M  CHG  1  15   1
M  END
$$$$

  -OEChem-01062216083D

 30 30  0     1  0  0  0  0  0999 V2000
   -4.0154   -2.0062    0.7000 H   0  0  0  0  0  0  0  0  0  0  0  0
   -3.6585   -1.1955    0.0582 C   0  0  0  0  0  0  0  0  0  0  0  0
   -4.4010   -0.3939    0.0609 H   0  0  0  0  0  0  0  0  0  0  0  0
   -3.5491   -1.5782   -0.9599 H   0  0  0  0  0  0  0  0  0  0  0  0
   -2.3262   -0.6729    0.5618 C   0  0  0  0  0  0  0  0  0  0  0  0
   -1.8605   -1.1504    1.5769 O   0  0  0  0  0  0  0  0  0  0  0  0
   -1.7142    0.3474   -0.1419 N   0  0  0  0  0  0  0  0  0  0  0  0
   -2.2134    0.5585   -1.0054 H   0  0  0  0  0  0  0  0  0  0  0  0
   -0.3420    0.9173   -0.0892 C   0  0  1  0  0  0  0  0  0  0  0  0
   -0.4433    1.9141    0.3478 H   0  0  0  0  0  0  0  0  0  0  0  0
    0.8229    0.2174    0.6732 C   0  0  0  0  0  0  0  0  0  0  0  0
    0.9301   -0.7868    0.2458 H   0  0  0  0  0  0  0  0  0  0  0  0
    1.7556    0.7503    0.4587 H   0  0  0  0  0  0  0  0  0  0  0  0
    0.7105    0.0736    2.1765 C   0  0  0  0  0  0  0  0  0  0  0  0
    0.8780    1.0843    3.1267 N   0  3  0  0  0  0  0  0  0  0  0  0
    0.9814    2.0701    2.8789 H   0  0  0  0  0  0  0  0  0  0  0  0
    0.8280    0.5892    4.3406 C   0  0  0  0  0  0  0  0  0  0  0  0
    0.8952    1.1488    5.2751 H   0  0  0  0  0  0  0  0  0  0  0  0
    0.6732   -0.7880    4.2174 N   0  0  0  0  0  0  0  0  0  0  0  0
    0.5756   -1.4555    4.9880 H   0  0  0  0  0  0  0  0  0  0  0  0
    0.6357   -1.1105    2.8692 C   0  0  0  0  0  0  0  0  0  0  0  0
    0.5242   -2.1011    2.4270 H   0  0  0  0  0  0  0  0  0  0  0  0
    0.1518    1.0900   -1.5414 C   0  0  0  0  0  0  0  0  0  0  0  0
    0.2268    0.1111   -2.2682 O   0  0  0  0  0  0  0  0  0  0  0  0
    0.5023    2.3333   -2.0372 N   0  0  0  0  0  0  0  0  0  0  0  0
    0.3488    3.1495   -1.4517 H   0  0  0  0  0  0  0  0  0  0  0  0
    0.9355    2.5404   -3.4177 C   0  0  0  0  0  0  0  0  0  0  0  0
    0.1397    2.2619   -4.1172 H   0  0  0  0  0  0  0  0  0  0  0  0
    1.1891    3.5920   -3.5854 H   0  0  0  0  0  0  0  0  0  0  0  0
    1.8218    1.9351   -3.6382 H   0  0  0  0  0  0  0  0  0  0  0  0
  1  2  1  0  0  0  0
  2  3  1  0  0  0  0
  2  4  1  0  0  0  0
  2  5  1  0  0  0  0
  5  6  2  0  0  0  0
  5  7  1  0  0  0  0
  7  8  1  0  0  0  0
  7  9  1  0  0  0  0
  9 10  1  0  0  0  0
  9 11  1  0  0  0  0
  9 23  1  0  0  0  0
 11 12  1  0  0  0  0
 11 13  1  0  0  0  0
 11 14  1  0  0  0  0
 14 15  1  0  0  0  0
 14 21  2  0  0  0  0
 15 16  1  0  0  0  0
 15 17  2  0  0  0  0
 17 18  1  0  0  0  0
 17 19  1  0  0  0  0
 19 20  1  0  0  0  0
 19 21  1  0  0  0  0
 21 22  1  0  0  0  0
 23 24  2  0  0  0  0
 23 25  1  0  0  0  0
 25 26  1  0  0  0  0
 25 27  1  0  0  0  0
 27 28  1  0  0  0  0
 27 29  1  0  0  0  0
 27 30  1  0  0  0  0
M  CHG  1  15   1
M  END
$$$$

  -OEChem-01062216083D

 30 30  0     1  0  0  0  0  0999 V2000
   -3.9780   -2.0125    0.6856 H   0  0  0  0  0  0  0  0  0  0  0  0
   -3.6232   -1.2028    0.0415 C   0  0  0  0  0  0  0  0  0  0  0  0
   -4.3917   -0.4271   -0.0029 H   0  0  0  0  0  0  0  0  0  0  0  0
   -3.4597   -1.6020   -0.9629 H   0  0  0  0  0  0  0  0  0  0  0  0
   -2.3314   -0.6239    0.5865 C   0  0  0  0  0  0  0  0  0  0  0  0
   -1.9165   -1.0267    1.6550 O   0  0  0  0  0  0  0  0  0  0  0  0
   -1.7094    0.3796   -0.1308 N   0  0  0  0  0  0  0  0  0  0  0  0
   -2.1658    0.5258   -1.0317 H   0  0  0  0  0  0  0  0  0  0  0  0
   -0.3339    0.9414   -0.0798 C   0  0  1  0  0  0  0  0  0  0  0  0
   -0.4263    1.9447    0.3447 H   0  0  0  0  0  0  0  0  0  0  0  0
    0.8251    0.2269    0.6774 C   0  0  0  0  0  0  0  0  0  0  0  0
    0.9227   -0.7752    0.2432 H   0  0  0  0  0  0  0  0  0  0  0  0
    1.7628    0.7525    0.4668 H   0  0  0  0  0  0  0  0  0  0  0  0
    0.7132    0.0750    2.1796 C   0  0  0  0  0  0  0  0  0  0  0  0
    0.8898    1.0763    3.1383 N   0  3  0  0  0  0  0  0  0  0  0  0
    0.9909    2.0646    2.8999 H   0  0  0  0  0  0  0  0  0  0  0  0
    0.8279    0.5719    4.3478 C   0  0  0  0  0  0  0  0  0  0  0  0
    0.8909    1.1238    5.2873 H   0  0  0  0  0  0  0  0  0  0  0  0
    0.6615   -0.8027    4.2127 N   0  0  0  0  0  0  0  0  0  0  0  0
    0.5473   -1.4741    4.9775 H   0  0  0  0  0  0  0  0  0  0  0  0
    0.6247   -1.1144    2.8620 C   0  0  0  0  0  0  0  0  0  0  0  0
    0.5005   -2.1003    2.4136 H   0  0  0  0  0  0  0  0  0  0  0  0
    0.1646    1.0856   -1.5348 C   0  0  0  0  0  0  0  0  0  0  0  0
   -0.0328    0.1775   -2.3286 O   0  0  0  0  0  0  0  0  0  0  0  0
    0.8082    2.2334   -1.9631 N   0  0  0  0  0  0  0  0  0  0  0  0
    0.8738    3.0196   -1.3231 H   0  0  0  0  0  0  0  0  0  0  0  0
    1.2463    2.4245   -3.3444 C   0  0  0  0  0  0  0  0  0  0  0  0
    0.3902    2.3960   -4.0274 H   0  0  0  0  0  0  0  0  0  0  0  0
    1.7451    3.3925   -3.4567 H   0  0  0  0  0  0  0  0  0  0  0  0
    1.9522    1.6392   -3.6368 H   0  0  0  0  0  0  0  0  0  0  0  0
  1  2  1  0  0  0  0
  2  3  1  0  0  0  0
  2  4  1  0  0  0  0
  2  5  1  0  0  0  0
  5  6  2  0  0  0  0
  5  7  1  0  0  0  0
  7  8  1  0  0  0  0
  7  9  1  0  0  0  0
  9 10  1  0  0  0  0
  9 11  1  0  0  0  0
  9 23  1  0  0  0  0
 11 12  1  0  0  0  0
 11 13  1  0  0  0  0
 11 14  1  0  0  0  0
 14 15  1  0  0  0  0
 14 21  2  0  0  0  0
 15 16  1  0  0  0  0
 15 17  2  0  0  0  0
 17 18  1  0  0  0  0
 17 19  1  0  0  0  0
 19 20  1  0  0  0  0
 19 21  1  0  0  0  0
 21 22  1  0  0  0  0
 23 24  2  0  0  0  0
 23 25  1  0  0  0  0
 25 26  1  0  0  0  0
 25 27  1  0  0  0  0
 27 28  1  0  0  0  0
 27 29  1  0  0  0  0
 27 30  1  0  0  0  0
M  CHG  1  15   1
M  END
$$$$

  -OEChem-01062216083D

 30 30  0     1  0  0  0  0  0999 V2000
   -3.9707   -2.0359    0.6488 H   0  0  0  0  0  0  0  0  0  0  0  0
   -3.6322   -1.1929    0.0396 C   0  0  0  0  0  0  0  0  0  0  0  0
   -4.3943   -0.4104    0.0678 H   0  0  0  0  0  0  0  0  0  0  0  0
   -3.5095   -1.5348   -0.9913 H   0  0  0  0  0  0  0  0  0  0  0  0
   -2.3159   -0.6564    0.5694 C   0  0  0  0  0  0  0  0  0  0  0  0
   -1.8772   -1.1123    1.6064 O   0  0  0  0  0  0  0  0  0  0  0  0
   -1.6854    0.3492   -0.1373 N   0  0  0  0  0  0  0  0  0  0  0  0
   -2.1435    0.5134   -1.0355 H   0  0  0  0  0  0  0  0  0  0  0  0
   -0.3057    0.9014   -0.0930 C   0  0  1  0  0  0  0  0  0  0  0  0
   -0.3963    1.9061    0.3287 H   0  0  0  0  0  0  0  0  0  0  0  0
    0.8437    0.1877    0.6797 C   0  0  0  0  0  0  0  0  0  0  0  0
    0.9313   -0.8229    0.2638 H   0  0  0  0  0  0  0  0  0  0  0  0
    1.7895    0.6973    0.4683 H   0  0  0  0  0  0  0  0  0  0  0  0
    0.7164    0.0662    2.1843 C   0  0  0  0  0  0  0  0  0  0  0  0
    0.8953    1.0858    3.1234 N   0  3  0  0  0  0  0  0  0  0  0  0
    1.0039    2.0684    2.8657 H   0  0  0  0  0  0  0  0  0  0  0  0
    0.8177    0.6083    4.3429 C   0  0  0  0  0  0  0  0  0  0  0  0
    0.8747    1.1797    5.2710 H   0  0  0  0  0  0  0  0  0  0  0  0
    0.6427   -0.7675    4.2359 N   0  0  0  0  0  0  0  0  0  0  0  0
    0.5180   -1.4218    5.0137 H   0  0  0  0  0  0  0  0  0  0  0  0
    0.6153   -1.1073    2.8919 C   0  0  0  0  0  0  0  0  0  0  0  0
    0.4879   -2.1020    2.4637 H   0  0  0  0  0  0  0  0  0  0  0  0
    0.1876    1.0602   -1.5513 C   0  0  0  0  0  0  0  0  0  0  0  0
   -0.2611    0.3313   -2.4249 O   0  0  0  0  0  0  0  0  0  0  0  0
    1.0915    2.0492   -1.9002 N   0  0  0  0  0  0  0  0  0  0  0  0
    1.3764    2.7181   -1.1913 H   0  0  0  0  0  0  0  0  0  0  0  0
    1.5252    2.2739   -3.2782 C   0  0  0  0  0  0  0  0  0  0  0  0
    0.6754    2.5593   -3.9079 H   0  0  0  0  0  0  0  0  0  0  0  0
    2.2690    3.0759   -3.3187 H   0  0  0  0  0  0  0  0  0  0  0  0
    1.9776    1.3663   -3.6932 H   0  0  0  0  0  0  0  0  0  0  0  0
  1  2  1  0  0  0  0
  2  3  1  0  0  0  0
  2  4  1  0  0  0  0
  2  5  1  0  0  0  0
  5  6  2  0  0  0  0
  5  7  1  0  0  0  0
  7  8  1  0  0  0  0
  7  9  1  0  0  0  0
  9 10  1  0  0  0  0
  9 11  1  0  0  0  0
  9 23  1  0  0  0  0
 11 12  1  0  0  0  0
 11 13  1  0  0  0  0
 11 14  1  0  0  0  0
 14 15  1  0  0  0  0
 14 21  2  0  0  0  0
 15 16  1  0  0  0  0
 15 17  2  0  0  0  0
 17 18  1  0  0  0  0
 17 19  1  0  0  0  0
 19 20  1  0  0  0  0
 19 21  1  0  0  0  0
 21 22  1  0  0  0  0
 23 24  2  0  0  0  0
 23 25  1  0  0  0  0
 25 26  1  0  0  0  0
 25 27  1  0  0  0  0
 27 28  1  0  0  0  0
 27 29  1  0  0  0  0
 27 30  1  0  0  0  0
M  CHG  1  15   1
M  END
$$$$

  -OEChem-01062216083D

 30 30  0     1  0  0  0  0  0999 V2000
   -4.0196   -2.0115    0.6638 H   0  0  0  0  0  0  0  0  0  0  0  0
   -3.6597   -1.1705    0.0641 C   0  0  0  0  0  0  0  0  0  0  0  0
   -4.3586   -0.3376    0.1728 H   0  0  0  0  0  0  0  0  0  0  0  0
   -3.6296   -1.4767   -0.9849 H   0  0  0  0  0  0  0  0  0  0  0  0
   -2.2754   -0.7514    0.5210 C   0  0  0  0  0  0  0  0  0  0  0  0
   -1.7585   -1.3555    1.4399 O   0  0  0  0  0  0  0  0  0  0  0  0
   -1.6466    0.2766   -0.1545 N   0  0  0  0  0  0  0  0  0  0  0  0
   -2.1473    0.5318   -1.0085 H   0  0  0  0  0  0  0  0  0  0  0  0
   -0.2635    0.8207   -0.1191 C   0  0  1  0  0  0  0  0  0  0  0  0
   -0.3572    1.8207    0.3130 H   0  0  0  0  0  0  0  0  0  0  0  0
    0.8707    0.1146    0.6820 C   0  0  0  0  0  0  0  0  0  0  0  0
    0.9482   -0.9088    0.2967 H   0  0  0  0  0  0  0  0  0  0  0  0
    1.8271    0.6032    0.4729 H   0  0  0  0  0  0  0  0  0  0  0  0
    0.7130    0.0454    2.1890 C   0  0  0  0  0  0  0  0  0  0  0  0
    0.8903    1.0983    3.0919 N   0  3  0  0  0  0  0  0  0  0  0  0
    1.0203    2.0686    2.7988 H   0  0  0  0  0  0  0  0  0  0  0  0
    0.7941    0.6692    4.3281 C   0  0  0  0  0  0  0  0  0  0  0  0
    0.8513    1.2748    5.2343 H   0  0  0  0  0  0  0  0  0  0  0  0
    0.6021   -0.7072    4.2717 N   0  0  0  0  0  0  0  0  0  0  0  0
    0.4674   -1.3314    5.0727 H   0  0  0  0  0  0  0  0  0  0  0  0
    0.5877   -1.0974    2.9413 C   0  0  0  0  0  0  0  0  0  0  0  0
    0.4582   -2.1071    2.5490 H   0  0  0  0  0  0  0  0  0  0  0  0
    0.2140    1.0373   -1.5786 C   0  0  0  0  0  0  0  0  0  0  0  0
   -0.4468    0.5894   -2.5061 O   0  0  0  0  0  0  0  0  0  0  0  0
    1.3265    1.8096   -1.8706 N   0  0  0  0  0  0  0  0  0  0  0  0
    1.8230    2.2573   -1.1071 H   0  0  0  0  0  0  0  0  0  0  0  0
    1.7595    2.0913   -3.2384 C   0  0  0  0  0  0  0  0  0  0  0  0
    0.9876    2.6496   -3.7794 H   0  0  0  0  0  0  0  0  0  0  0  0
    2.6771    2.6881   -3.2337 H   0  0  0  0  0  0  0  0  0  0  0  0
    1.9598    1.1593   -3.7786 H   0  0  0  0  0  0  0  0  0  0  0  0
  1  2  1  0  0  0  0
  2  3  1  0  0  0  0
  2  4  1  0  0  0  0
  2  5  1  0  0  0  0
  5  6  2  0  0  0  0
  5  7  1  0  0  0  0
  7  8  1  0  0  0  0
  7  9  1  0  0  0  0
  9 10  1  0  0  0  0
  9 11  1  0  0  0  0
  9 23  1  0  0  0  0
 11 12  1  0  0  0  0
 11 13  1  0  0  0  0
 11 14  1  0  0  0  0
 14 15  1  0  0  0  0
 14 21  2  0  0  0  0
 15 16  1  0  0  0  0
 15 17  2  0  0  0  0
 17 18  1  0  0  0  0
 17 19  1  0  0  0  0
 19 20  1  0  0  0  0
 19 21  1  0  0  0  0
 21 22  1  0  0  0  0
 23 24  2  0  0  0  0
 23 25  1  0  0  0  0
 25 26  1  0  0  0  0
 25 27  1  0  0  0  0
 27 28  1  0  0  0  0
 27 29  1  0  0  0  0
 27 30  1  0  0  0  0
M  CHG  1  15   1
M  END
$$$$

  -OEChem-01062216083D

 30 30  0     1  0  0  0  0  0999 V2000
   -3.9162   -1.8874    0.8899 H   0  0  0  0  0  0  0  0  0  0  0  0
   -3.5208   -1.1797    0.1558 C   0  0  0  0  0  0  0  0  0  0  0  0
   -4.2835   -0.4243   -0.0499 H   0  0  0  0  0  0  0  0  0  0  0  0
   -3.2964   -1.7195   -0.7676 H   0  0  0  0  0  0  0  0  0  0  0  0
   -2.2657   -0.5154    0.6876 C   0  0  0  0  0  0  0  0  0  0  0  0
   -1.9407   -0.7040    1.8460 O   0  0  0  0  0  0  0  0  0  0  0  0
   -1.6126    0.4021   -0.1097 N   0  0  0  0  0  0  0  0  0  0  0  0
   -2.0437    0.4958   -1.0346 H   0  0  0  0  0  0  0  0  0  0  0  0
   -0.2353    0.9570   -0.0804 C   0  0  1  0  0  0  0  0  0  0  0  0
   -0.2458    1.8801    0.5064 H   0  0  0  0  0  0  0  0  0  0  0  0
    0.9274    0.0379    0.4173 C   0  0  0  0  0  0  0  0  0  0  0  0
    0.9421   -0.8489   -0.2269 H   0  0  0  0  0  0  0  0  0  0  0  0
    1.8849    0.5480    0.2759 H   0  0  0  0  0  0  0  0  0  0  0  0
    0.8901   -0.4258    1.8535 C   0  0  0  0  0  0  0  0  0  0  0  0
    1.1796    0.3301    2.9920 N   0  3  0  0  0  0  0  0  0  0  0  0
    1.3072    1.3437    2.9705 H   0  0  0  0  0  0  0  0  0  0  0  0
    1.0979   -0.4162    4.0672 C   0  0  0  0  0  0  0  0  0  0  0  0
    1.2038   -0.0809    5.1002 H   0  0  0  0  0  0  0  0  0  0  0  0
    0.8276   -1.7156    3.6491 N   0  0  0  0  0  0  0  0  0  0  0  0
    0.6620   -2.5195    4.2614 H   0  0  0  0  0  0  0  0  0  0  0  0
    0.7251   -1.7269    2.2651 C   0  0  0  0  0  0  0  0  0  0  0  0
    0.5097   -2.5834    1.6276 H   0  0  0  0  0  0  0  0  0  0  0  0
    0.1347    1.3017   -1.5530 C   0  0  0  0  0  0  0  0  0  0  0  0
   -0.6571    1.0394   -2.4509 O   0  0  0  0  0  0  0  0  0  0  0  0
    1.3600    1.8479   -1.9016 N   0  0  0  0  0  0  0  0  0  0  0  0
    1.9732    2.1691   -1.1588 H   0  0  0  0  0  0  0  0  0  0  0  0
    1.7092    2.1906   -3.2796 C   0  0  0  0  0  0  0  0  0  0  0  0
    1.0191    2.9435   -3.6761 H   0  0  0  0  0  0  0  0  0  0  0  0
    2.7251    2.5950   -3.3275 H   0  0  0  0  0  0  0  0  0  0  0  0
    1.6634    1.3032   -3.9206 H   0  0  0  0  0  0  0  0  0  0  0  0
  1  2  1  0  0  0  0
  2  3  1  0  0  0  0
  2  4  1  0  0  0  0
  2  5  1  0  0  0  0
  5  6  2  0  0  0  0
  5  7  1  0  0  0  0
  7  8  1  0  0  0  0
  7  9  1  0  0  0  0
  9 10  1  0  0  0  0
  9 11  1  0  0  0  0
  9 23  1  0  0  0  0
 11 12  1  0  0  0  0
 11 13  1  0  0  0  0
 11 14  1  0  0  0  0
 14 15  1  0  0  0  0
 14 21  2  0  0  0  0
 15 16  1  0  0  0  0
 15 17  2  0  0  0  0
 17 18  1  0  0  0  0
 17 19  1  0  0  0  0
 19 20  1  0  0  0  0
 19 21  1  0  0  0  0
 21 22  1  0  0  0  0
 23 24  2  0  0  0  0
 23 25  1  0  0  0  0
 25 26  1  0  0  0  0
 25 27  1  0  0  0  0
 27 28  1  0  0  0  0
 27 29  1  0  0  0  0
 27 30  1  0  0  0  0
M  CHG  1  15   1
M  END
$$$$

  -OEChem-01062216083D

 30 30  0     1  0  0  0  0  0999 V2000
   -4.0153   -1.8477    0.7966 H   0  0  0  0  0  0  0  0  0  0  0  0
   -3.5818   -1.1387    0.0857 C   0  0  0  0  0  0  0  0  0  0  0  0
   -4.2886   -0.3191   -0.0671 H   0  0  0  0  0  0  0  0  0  0  0  0
   -3.4196   -1.6506   -0.8662 H   0  0  0  0  0  0  0  0  0  0  0  0
   -2.2675   -0.5976    0.6154 C   0  0  0  0  0  0  0  0  0  0  0  0
   -1.9036   -0.9231    1.7298 O   0  0  0  0  0  0  0  0  0  0  0  0
   -1.5881    0.3358   -0.1415 N   0  0  0  0  0  0  0  0  0  0  0  0
   -2.0552    0.5389   -1.0307 H   0  0  0  0  0  0  0  0  0  0  0  0
   -0.2080    0.8857   -0.1010 C   0  0  1  0  0  0  0  0  0  0  0  0
   -0.2318    1.8091    0.4854 H   0  0  0  0  0  0  0  0  0  0  0  0
    0.9554   -0.0088    0.4377 C   0  0  0  0  0  0  0  0  0  0  0  0
    0.9877   -0.9116   -0.1829 H   0  0  0  0  0  0  0  0  0  0  0  0
    1.9088    0.5089    0.3030 H   0  0  0  0  0  0  0  0  0  0  0  0
    0.9043   -0.4328    1.8869 C   0  0  0  0  0  0  0  0  0  0  0  0
    1.1748    0.3631    3.0030 N   0  3  0  0  0  0  0  0  0  0  0  0
    1.2907    1.3773    2.9493 H   0  0  0  0  0  0  0  0  0  0  0  0
    1.1061   -0.3512    4.1009 C   0  0  0  0  0  0  0  0  0  0  0  0
    1.2065    0.0177    5.1231 H   0  0  0  0  0  0  0  0  0  0  0  0
    0.8612   -1.6676    3.7227 N   0  0  0  0  0  0  0  0  0  0  0  0
    0.7097   -2.4559    4.3585 H   0  0  0  0  0  0  0  0  0  0  0  0
    0.7656   -1.7235    2.3394 C   0  0  0  0  0  0  0  0  0  0  0  0
    0.5679   -2.6031    1.7279 H   0  0  0  0  0  0  0  0  0  0  0  0
    0.1493    1.2644   -1.5713 C   0  0  0  0  0  0  0  0  0  0  0  0
   -0.7456    1.3074   -2.4074 O   0  0  0  0  0  0  0  0  0  0  0  0
    1.4416    1.5294   -1.9993 N   0  0  0  0  0  0  0  0  0  0  0  0
    2.1844    1.5703   -1.3094 H   0  0  0  0  0  0  0  0  0  0  0  0
    1.7636    1.8874   -3.3802 C   0  0  0  0  0  0  0  0  0  0  0  0
    1.2426    2.8060   -3.6724 H   0  0  0  0  0  0  0  0  0  0  0  0
    2.8400    2.0521   -3.4914 H   0  0  0  0  0  0  0  0  0  0  0  0
    1.4670    1.0851   -4.0649 H   0  0  0  0  0  0  0  0  0  0  0  0
  1  2  1  0  0  0  0
  2  3  1  0  0  0  0
  2  4  1  0  0  0  0
  2  5  1  0  0  0  0
  5  6  2  0  0  0  0
  5  7  1  0  0  0  0
  7  8  1  0  0  0  0
  7  9  1  0  0  0  0
  9 10  1  0  0  0  0
  9 11  1  0  0  0  0
  9 23  1  0  0  0  0
 11 12  1  0  0  0  0
 11 13  1  0  0  0  0
 11 14  1  0  0  0  0
 14 15  1  0  0  0  0
 14 21  2  0  0  0  0
 15 16  1  0  0  0  0
 15 17  2  0  0  0  0
 17 18  1  0  0  0  0
 17 19  1  0  0  0  0
 19 20  1  0  0  0  0
 19 21  1  0  0  0  0
 21 22  1  0  0  0  0
 23 24  2  0  0  0  0
 23 25  1  0  0  0  0
 25 26  1  0  0  0  0
 25 27  1  0  0  0  0
 27 28  1  0  0  0  0
 27 29  1  0  0  0  0
 27 30  1  0  0  0  0
M  CHG  1  15   1
M  END
$$$$

  -OEChem-01062216083D

 30 30  0     1  0  0  0  0  0999 V2000
   -4.0416   -1.9260    0.6299 H   0  0  0  0  0  0  0  0  0  0  0  0
   -3.6559   -1.0835    0.0490 C   0  0  0  0  0  0  0  0  0  0  0  0
   -4.3287   -0.2317    0.1755 H   0  0  0  0  0  0  0  0  0  0  0  0
   -3.6355   -1.3671   -1.0062 H   0  0  0  0  0  0  0  0  0  0  0  0
   -2.2607   -0.7152    0.5167 C   0  0  0  0  0  0  0  0  0  0  0  0
   -1.8204   -1.2467    1.5169 O   0  0  0  0  0  0  0  0  0  0  0  0
   -1.5642    0.2444   -0.1912 N   0  0  0  0  0  0  0  0  0  0  0  0
   -2.0818    0.5954   -1.0025 H   0  0  0  0  0  0  0  0  0  0  0  0
   -0.1793    0.7793   -0.1340 C   0  0  1  0  0  0  0  0  0  0  0  0
   -0.2216    1.6965    0.4609 H   0  0  0  0  0  0  0  0  0  0  0  0
    0.9898   -0.0747    0.4481 C   0  0  0  0  0  0  0  0  0  0  0  0
    1.0466   -0.9987   -0.1384 H   0  0  0  0  0  0  0  0  0  0  0  0
    1.9336    0.4602    0.3084 H   0  0  0  0  0  0  0  0  0  0  0  0
    0.9196   -0.4433    1.9132 C   0  0  0  0  0  0  0  0  0  0  0  0
    1.1615    0.4077    2.9951 N   0  3  0  0  0  0  0  0  0  0  0  0
    1.2694    1.4193    2.8950 H   0  0  0  0  0  0  0  0  0  0  0  0
    1.1029   -0.2569    4.1243 C   0  0  0  0  0  0  0  0  0  0  0  0
    1.1941    0.1589    5.1292 H   0  0  0  0  0  0  0  0  0  0  0  0
    0.8881   -1.5938    3.8046 N   0  0  0  0  0  0  0  0  0  0  0  0
    0.7557   -2.3580    4.4734 H   0  0  0  0  0  0  0  0  0  0  0  0
    0.8074   -1.7139    2.4248 C   0  0  0  0  0  0  0  0  0  0  0  0
    0.6327   -2.6239    1.8514 H   0  0  0  0  0  0  0  0  0  0  0  0
    0.1661    1.2171   -1.5873 C   0  0  0  0  0  0  0  0  0  0  0  0
   -0.7477    1.6017   -2.3064 O   0  0  0  0  0  0  0  0  0  0  0  0
    1.4470    1.2047   -2.1189 N   0  0  0  0  0  0  0  0  0  0  0  0
    2.2075    0.8430   -1.5534 H   0  0  0  0  0  0  0  0  0  0  0  0
    1.7405    1.6094   -3.4931 C   0  0  0  0  0  0  0  0  0  0  0  0
    1.4105    2.6390   -3.6706 H   0  0  0  0  0  0  0  0  0  0  0  0
    2.8168    1.5574   -3.6857 H   0  0  0  0  0  0  0  0  0  0  0  0
    1.2303    0.9515   -4.2052 H   0  0  0  0  0  0  0  0  0  0  0  0
  1  2  1  0  0  0  0
  2  3  1  0  0  0  0
  2  4  1  0  0  0  0
  2  5  1  0  0  0  0
  5  6  2  0  0  0  0
  5  7  1  0  0  0  0
  7  8  1  0  0  0  0
  7  9  1  0  0  0  0
  9 10  1  0  0  0  0
  9 11  1  0  0  0  0
  9 23  1  0  0  0  0
 11 12  1  0  0  0  0
 11 13  1  0  0  0  0
 11 14  1  0  0  0  0
 14 15  1  0  0  0  0
 14 21  2  0  0  0  0
 15 16  1  0  0  0  0
 15 17  2  0  0  0  0
 17 18  1  0  0  0  0
 17 19  1  0  0  0  0
 19 20  1  0  0  0  0
 19 21  1  0  0  0  0
 21 22  1  0  0  0  0
 23 24  2  0  0  0  0
 23 25  1  0  0  0  0
 25 26  1  0  0  0  0
 25 27  1  0  0  0  0
 27 28  1  0  0  0  0
 27 29  1  0  0  0  0
 27 30  1  0  0  0  0
M  CHG  1  15   1
M  END
$$$$

  -OEChem-01062216083D

 30 30  0     1  0  0  0  0  0999 V2000
   -4.0892   -1.9071    0.6314 H   0  0  0  0  0  0  0  0  0  0  0  0
   -3.6974   -1.0499    0.0765 C   0  0  0  0  0  0  0  0  0  0  0  0
   -4.2968   -0.1698    0.3214 H   0  0  0  0  0  0  0  0  0  0  0  0
   -3.7867   -1.2550   -0.9934 H   0  0  0  0  0  0  0  0  0  0  0  0
   -2.2451   -0.8060    0.4403 C   0  0  0  0  0  0  0  0  0  0  0  0
   -1.7335   -1.4960    1.2995 O   0  0  0  0  0  0  0  0  0  0  0  0
   -1.5543    0.1781   -0.2390 N   0  0  0  0  0  0  0  0  0  0  0  0
   -2.1164    0.6389   -0.9594 H   0  0  0  0  0  0  0  0  0  0  0  0
   -0.1668    0.7015   -0.1716 C   0  0  1  0  0  0  0  0  0  0  0  0
   -0.2234    1.6100    0.4358 H   0  0  0  0  0  0  0  0  0  0  0  0
    1.0032   -0.1274    0.4386 C   0  0  0  0  0  0  0  0  0  0  0  0
    1.0678   -1.0680   -0.1194 H   0  0  0  0  0  0  0  0  0  0  0  0
    1.9434    0.4121    0.2855 H   0  0  0  0  0  0  0  0  0  0  0  0
    0.9185   -0.4566    1.9142 C   0  0  0  0  0  0  0  0  0  0  0  0
    1.1449    0.4323    2.9692 N   0  3  0  0  0  0  0  0  0  0  0  0
    1.2646    1.4389    2.8342 H   0  0  0  0  0  0  0  0  0  0  0  0
    1.0897   -0.1951    4.1198 C   0  0  0  0  0  0  0  0  0  0  0  0
    1.1824    0.2535    5.1104 H   0  0  0  0  0  0  0  0  0  0  0  0
    0.8831   -1.5430    3.8440 N   0  0  0  0  0  0  0  0  0  0  0  0
    0.7636   -2.2877    4.5368 H   0  0  0  0  0  0  0  0  0  0  0  0
    0.8101   -1.7091    2.4687 C   0  0  0  0  0  0  0  0  0  0  0  0
    0.6449   -2.6388    1.9236 H   0  0  0  0  0  0  0  0  0  0  0  0
    0.1823    1.1926   -1.6004 C   0  0  0  0  0  0  0  0  0  0  0  0
   -0.6638    1.8451   -2.1960 O   0  0  0  0  0  0  0  0  0  0  0  0
    1.3827    0.9224   -2.2393 N   0  0  0  0  0  0  0  0  0  0  0  0
    2.0330    0.2830   -1.7940 H   0  0  0  0  0  0  0  0  0  0  0  0
    1.6611    1.3437   -3.6113 C   0  0  0  0  0  0  0  0  0  0  0  0
    1.5518    2.4292   -3.7116 H   0  0  0  0  0  0  0  0  0  0  0  0
    2.6847    1.0766   -3.8925 H   0  0  0  0  0  0  0  0  0  0  0  0
    0.9717    0.8574   -4.3102 H   0  0  0  0  0  0  0  0  0  0  0  0
  1  2  1  0  0  0  0
  2  3  1  0  0  0  0
  2  4  1  0  0  0  0
  2  5  1  0  0  0  0
  5  6  2  0  0  0  0
  5  7  1  0  0  0  0
  7  8  1  0  0  0  0
  7  9  1  0  0  0  0
  9 10  1  0  0  0  0
  9 11  1  0  0  0  0
  9 23  1  0  0  0  0
 11 12  1  0  0  0  0
 11 13  1  0  0  0  0
 11 14  1  0  0  0  0
 14 15  1  0  0  0  0
 14 21  2  0  0  0  0
 15 16  1  0  0  0  0
 15 17  2  0  0  0  0
 17 18  1  0  0  0  0
 17 19  1  0  0  0  0
 19 20  1  0  0  0  0
 19 21  1  0  0  0  0
 21 22  1  0  0  0  0
 23 24  2  0  0  0  0
 23 25  1  0  0  0  0
 25 26  1  0  0  0  0
 25 27  1  0  0  0  0
 27 28  1  0  0  0  0
 27 29  1  0  0  0  0
 27 30  1  0  0  0  0
M  CHG  1  15   1
M  END
$$$$

  -OEChem-01062216083D

 30 30  0     1  0  0  0  0  0999 V2000
   -4.1056   -1.8970    0.6802 H   0  0  0  0  0  0  0  0  0  0  0  0
   -3.7180   -1.0369    0.1268 C   0  0  0  0  0  0  0  0  0  0  0  0
   -4.2653   -0.1438    0.4378 H   0  0  0  0  0  0  0  0  0  0  0  0
   -3.8850   -1.2037   -0.9404 H   0  0  0  0  0  0  0  0  0  0  0  0
   -2.2366   -0.8587    0.3999 C   0  0  0  0  0  0  0  0  0  0  0  0
   -1.6824   -1.6304    1.1575 O   0  0  0  0  0  0  0  0  0  0  0  0
   -1.5574    0.1377   -0.2731 N   0  0  0  0  0  0  0  0  0  0  0  0
   -2.1503    0.6630   -0.9194 H   0  0  0  0  0  0  0  0  0  0  0  0
   -0.1678    0.6520   -0.2045 C   0  0  1  0  0  0  0  0  0  0  0  0
   -0.2306    1.5553    0.4104 H   0  0  0  0  0  0  0  0  0  0  0  0
    1.0009   -0.1644    0.4202 C   0  0  0  0  0  0  0  0  0  0  0  0
    1.0638   -1.1167   -0.1175 H   0  0  0  0  0  0  0  0  0  0  0  0
    1.9415    0.3709    0.2504 H   0  0  0  0  0  0  0  0  0  0  0  0
    0.9086   -0.4664    1.9020 C   0  0  0  0  0  0  0  0  0  0  0  0
    1.1312    0.4473    2.9364 N   0  3  0  0  0  0  0  0  0  0  0  0
    1.2660    1.4484    2.7765 H   0  0  0  0  0  0  0  0  0  0  0  0
    1.0794   -0.1530    4.1016 C   0  0  0  0  0  0  0  0  0  0  0  0
    1.1836    0.3171    5.0812 H   0  0  0  0  0  0  0  0  0  0  0  0
    0.8643   -1.5059    3.8576 N   0  0  0  0  0  0  0  0  0  0  0  0
    0.7512   -2.2355    4.5675 H   0  0  0  0  0  0  0  0  0  0  0  0
    0.7915   -1.7040    2.4865 C   0  0  0  0  0  0  0  0  0  0  0  0
    0.6263   -2.6457    1.9617 H   0  0  0  0  0  0  0  0  0  0  0  0
    0.1935    1.1699   -1.6148 C   0  0  0  0  0  0  0  0  0  0  0  0
   -0.5210    2.0368   -2.0957 O   0  0  0  0  0  0  0  0  0  0  0  0
    1.2452    0.6674   -2.3637 N   0  0  0  0  0  0  0  0  0  0  0  0
    1.7271   -0.1567   -2.0178 H   0  0  0  0  0  0  0  0  0  0  0  0
    1.5173    1.1016   -3.7324 C   0  0  0  0  0  0  0  0  0  0  0  0
    1.6601    2.1871   -3.7717 H   0  0  0  0  0  0  0  0  0  0  0  0
    2.4266    0.6240   -4.1107 H   0  0  0  0  0  0  0  0  0  0  0  0
    0.6853    0.8346   -4.3931 H   0  0  0  0  0  0  0  0  0  0  0  0
  1  2  1  0  0  0  0
  2  3  1  0  0  0  0
  2  4  1  0  0  0  0
  2  5  1  0  0  0  0
  5  6  2  0  0  0  0
  5  7  1  0  0  0  0
  7  8  1  0  0  0  0
  7  9  1  0  0  0  0
  9 10  1  0  0  0  0
  9 11  1  0  0  0  0
  9 23  1  0  0  0  0
 11 12  1  0  0  0  0
 11 13  1  0  0  0  0
 11 14  1  0  0  0  0
 14 15  1  0  0  0  0
 14 21  2  0  0  0  0
 15 16  1  0  0  0  0
 15 17  2  0  0  0  0
 17 18  1  0  0  0  0
 17 19  1  0  0  0  0
 19 20  1  0  0  0  0
 19 21  1  0  0  0  0
 21 22  1  0  0  0  0
 23 24  2  0  0  0  0
 23 25  1  0  0  0  0
 25 26  1  0  0  0  0
 25 27  1  0  0  0  0
 27 28  1  0  0  0  0
 27 29  1  0  0  0  0
 27 30  1  0  0  0  0
M  CHG  1  15   1
M  END
$$$$

  -OEChem-01062216083D

 30 30  0     1  0  0  0  0  0999 V2000
   -4.1122   -1.8915    0.7533 H   0  0  0  0  0  0  0  0  0  0  0  0
   -3.7358   -1.0320    0.1913 C   0  0  0  0  0  0  0  0  0  0  0  0
   -4.2438   -0.1317    0.5454 H   0  0  0  0  0  0  0  0  0  0  0  0
   -3.9659   -1.1788   -0.8670 H   0  0  0  0  0  0  0  0  0  0  0  0
   -2.2376   -0.8934    0.3836 C   0  0  0  0  0  0  0  0  0  0  0  0
   -1.6535   -1.7149    1.0628 O   0  0  0  0  0  0  0  0  0  0  0  0
   -1.5722    0.1091   -0.2945 N   0  0  0  0  0  0  0  0  0  0  0  0
   -2.1894    0.6761   -0.8783 H   0  0  0  0  0  0  0  0  0  0  0  0
   -0.1786    0.6134   -0.2329 C   0  0  1  0  0  0  0  0  0  0  0  0
   -0.2402    1.5118    0.3900 H   0  0  0  0  0  0  0  0  0  0  0  0
    0.9901   -0.1981    0.3947 C   0  0  0  0  0  0  0  0  0  0  0  0
    1.0495   -1.1578   -0.1296 H   0  0  0  0  0  0  0  0  0  0  0  0
    1.9314    0.3320    0.2109 H   0  0  0  0  0  0  0  0  0  0  0  0
    0.8952   -0.4789    1.8807 C   0  0  0  0  0  0  0  0  0  0  0  0
    1.1218    0.4542    2.8965 N   0  3  0  0  0  0  0  0  0  0  0  0
    1.2696    1.4501    2.7153 H   0  0  0  0  0  0  0  0  0  0  0  0
    1.0674   -0.1221    4.0736 C   0  0  0  0  0  0  0  0  0  0  0  0
    1.1774    0.3673    5.0430 H   0  0  0  0  0  0  0  0  0  0  0  0
    0.8432   -1.4783    3.8568 N   0  0  0  0  0  0  0  0  0  0  0  0
    0.7316   -2.1937    4.5812 H   0  0  0  0  0  0  0  0  0  0  0  0
    0.7693   -1.7036    2.4899 C   0  0  0  0  0  0  0  0  0  0  0  0
    0.6006   -2.6551    1.9841 H   0  0  0  0  0  0  0  0  0  0  0  0
    0.1992    1.1474   -1.6288 C   0  0  0  0  0  0  0  0  0  0  0  0
   -0.2977    2.2040   -1.9859 O   0  0  0  0  0  0  0  0  0  0  0  0
    1.0375    0.4593   -2.4892 N   0  0  0  0  0  0  0  0  0  0  0  0
    1.2927   -0.4921   -2.2405 H   0  0  0  0  0  0  0  0  0  0  0  0
    1.3193    0.9166   -3.8482 C   0  0  0  0  0  0  0  0  0  0  0  0
    1.7229    1.9352   -3.8367 H   0  0  0  0  0  0  0  0  0  0  0  0
    2.0564    0.2629   -4.3253 H   0  0  0  0  0  0  0  0  0  0  0  0
    0.4065    0.9096   -4.4538 H   0  0  0  0  0  0  0  0  0  0  0  0
  1  2  1  0  0  0  0
  2  3  1  0  0  0  0
  2  4  1  0  0  0  0
  2  5  1  0  0  0  0
  5  6  2  0  0  0  0
  5  7  1  0  0  0  0
  7  8  1  0  0  0  0
  7  9  1  0  0  0  0
  9 10  1  0  0  0  0
  9 11  1  0  0  0  0
  9 23  1  0  0  0  0
 11 12  1  0  0  0  0
 11 13  1  0  0  0  0
 11 14  1  0  0  0  0
 14 15  1  0  0  0  0
 14 21  2  0  0  0  0
 15 16  1  0  0  0  0
 15 17  2  0  0  0  0
 17 18  1  0  0  0  0
 17 19  1  0  0  0  0
 19 20  1  0  0  0  0
 19 21  1  0  0  0  0
 21 22  1  0  0  0  0
 23 24  2  0  0  0  0
 23 25  1  0  0  0  0
 25 26  1  0  0  0  0
 25 27  1  0  0  0  0
 27 28  1  0  0  0  0
 27 29  1  0  0  0  0
 27 30  1  0  0  0  0
M  CHG  1  15   1
M  END
$$$$

  -OEChem-01062216083D

 30 30  0     1  0  0  0  0  0999 V2000
   -4.1216   -1.8931    0.8086 H   0  0  0  0  0  0  0  0  0  0  0  0
   -3.7580   -1.0266    0.2487 C   0  0  0  0  0  0  0  0  0  0  0  0
   -4.2457   -0.1291    0.6370 H   0  0  0  0  0  0  0  0  0  0  0  0
   -4.0275   -1.1526   -0.8030 H   0  0  0  0  0  0  0  0  0  0  0  0
   -2.2525   -0.9037    0.3896 C   0  0  0  0  0  0  0  0  0  0  0  0
   -1.6520   -1.7402    1.0351 O   0  0  0  0  0  0  0  0  0  0  0  0
   -1.5990    0.0980   -0.3016 N   0  0  0  0  0  0  0  0  0  0  0  0
   -2.2310    0.6793   -0.8532 H   0  0  0  0  0  0  0  0  0  0  0  0
   -0.2049    0.6035   -0.2474 C   0  0  1  0  0  0  0  0  0  0  0  0
   -0.2676    1.5002    0.3781 H   0  0  0  0  0  0  0  0  0  0  0  0
    0.9727   -0.2011    0.3709 C   0  0  0  0  0  0  0  0  0  0  0  0
    1.0357   -1.1600   -0.1540 H   0  0  0  0  0  0  0  0  0  0  0  0
    1.9093    0.3341    0.1776 H   0  0  0  0  0  0  0  0  0  0  0  0
    0.8896   -0.4809    1.8575 C   0  0  0  0  0  0  0  0  0  0  0  0
    1.1187    0.4551    2.8697 N   0  3  0  0  0  0  0  0  0  0  0  0
    1.2676    1.4503    2.6848 H   0  0  0  0  0  0  0  0  0  0  0  0
    1.0744   -0.1195    4.0480 C   0  0  0  0  0  0  0  0  0  0  0  0
    1.1899    0.3721    5.0156 H   0  0  0  0  0  0  0  0  0  0  0  0
    0.8537   -1.4770    3.8354 N   0  0  0  0  0  0  0  0  0  0  0  0
    0.7499   -2.1914    4.5621 H   0  0  0  0  0  0  0  0  0  0  0  0
    0.7710   -1.7048    2.4694 C   0  0  0  0  0  0  0  0  0  0  0  0
    0.6040   -2.6575    1.9654 H   0  0  0  0  0  0  0  0  0  0  0  0
    0.1837    1.1338   -1.6396 C   0  0  0  0  0  0  0  0  0  0  0  0
   -0.0412    2.3060   -1.8945 O   0  0  0  0  0  0  0  0  0  0  0  0
    0.7645    0.3178   -2.5939 N   0  0  0  0  0  0  0  0  0  0  0  0
    0.7901   -0.6807   -2.4055 H   0  0  0  0  0  0  0  0  0  0  0  0
    1.0590    0.7756   -3.9498 C   0  0  0  0  0  0  0  0  0  0  0  0
    1.7356    1.6371   -3.9275 H   0  0  0  0  0  0  0  0  0  0  0  0
    1.5393   -0.0219   -4.5257 H   0  0  0  0  0  0  0  0  0  0  0  0
    0.1379    1.0681   -4.4658 H   0  0  0  0  0  0  0  0  0  0  0  0
  1  2  1  0  0  0  0
  2  3  1  0  0  0  0
  2  4  1  0  0  0  0
  2  5  1  0  0  0  0
  5  6  2  0  0  0  0
  5  7  1  0  0  0  0
  7  8  1  0  0  0  0
  7  9  1  0  0  0  0
  9 10  1  0  0  0  0
  9 11  1  0  0  0  0
  9 23  1  0  0  0  0
 11 12  1  0  0  0  0
 11 13  1  0  0  0  0
 11 14  1  0  0  0  0
 14 15  1  0  0  0  0
 14 21  2  0  0  0  0
 15 16  1  0  0  0  0
 15 17  2  0  0  0  0
 17 18  1  0  0  0  0
 17 19  1  0  0  0  0
 19 20  1  0  0  0  0
 19 21  1  0  0  0  0
 21 22  1  0  0  0  0
 23 24  2  0  0  0  0
 23 25  1  0  0  0  0
 25 26  1  0  0  0  0
 25 27  1  0  0  0  0
 27 28  1  0  0  0  0
 27 29  1  0  0  0  0
 27 30  1  0  0  0  0
M  CHG  1  15   1
M  END
$$$$

  -OEChem-01062216083D

 30 30  0     1  0  0  0  0  0999 V2000
   -4.1539   -1.8917    0.8694 H   0  0  0  0  0  0  0  0  0  0  0  0
   -3.8000   -1.0311    0.2944 C   0  0  0  0  0  0  0  0  0  0  0  0
   -4.2897   -0.1311    0.6747 H   0  0  0  0  0  0  0  0  0  0  0  0
   -4.0783   -1.1735   -0.7529 H   0  0  0  0  0  0  0  0  0  0  0  0
   -2.2938   -0.8980    0.4197 C   0  0  0  0  0  0  0  0  0  0  0  0
   -1.6820   -1.7261    1.0648 O   0  0  0  0  0  0  0  0  0  0  0  0
   -1.6528    0.0996   -0.2896 N   0  0  0  0  0  0  0  0  0  0  0  0
   -2.2961    0.6742   -0.8343 H   0  0  0  0  0  0  0  0  0  0  0  0
   -0.2577    0.6078   -0.2528 C   0  0  1  0  0  0  0  0  0  0  0  0
   -0.3164    1.5037    0.3746 H   0  0  0  0  0  0  0  0  0  0  0  0
    0.9327   -0.1935    0.3433 C   0  0  0  0  0  0  0  0  0  0  0  0
    0.9933   -1.1478   -0.1903 H   0  0  0  0  0  0  0  0  0  0  0  0
    1.8629    0.3478    0.1362 H   0  0  0  0  0  0  0  0  0  0  0  0
    0.8812   -0.4833    1.8287 C   0  0  0  0  0  0  0  0  0  0  0  0
    1.1269    0.4516    2.8379 N   0  3  0  0  0  0  0  0  0  0  0  0
    1.2735    1.4468    2.6506 H   0  0  0  0  0  0  0  0  0  0  0  0
    1.1152   -0.1266    4.0152 C   0  0  0  0  0  0  0  0  0  0  0  0
    1.2558    0.3624    4.9809 H   0  0  0  0  0  0  0  0  0  0  0  0
    0.8934   -1.4843    3.8035 N   0  0  0  0  0  0  0  0  0  0  0  0
    0.8122   -2.2013    4.5303 H   0  0  0  0  0  0  0  0  0  0  0  0
    0.7804   -1.7094    2.4388 C   0  0  0  0  0  0  0  0  0  0  0  0
    0.6065   -2.6612    1.9354 H   0  0  0  0  0  0  0  0  0  0  0  0
    0.1370    1.1311   -1.6442 C   0  0  0  0  0  0  0  0  0  0  0  0
    0.2567    2.3349   -1.8036 O   0  0  0  0  0  0  0  0  0  0  0  0
    0.4267    0.2608   -2.6785 N   0  0  0  0  0  0  0  0  0  0  0  0
    0.2229   -0.7253   -2.5361 H   0  0  0  0  0  0  0  0  0  0  0  0
    0.7971    0.7135   -4.0169 C   0  0  0  0  0  0  0  0  0  0  0  0
    1.7031    1.3282   -3.9780 H   0  0  0  0  0  0  0  0  0  0  0  0
    0.9924   -0.1437   -4.6691 H   0  0  0  0  0  0  0  0  0  0  0  0
   -0.0096    1.3077   -4.4598 H   0  0  0  0  0  0  0  0  0  0  0  0
  1  2  1  0  0  0  0
  2  3  1  0  0  0  0
  2  4  1  0  0  0  0
  2  5  1  0  0  0  0
  5  6  2  0  0  0  0
  5  7  1  0  0  0  0
  7  8  1  0  0  0  0
  7  9  1  0  0  0  0
  9 10  1  0  0  0  0
  9 11  1  0  0  0  0
  9 23  1  0  0  0  0
 11 12  1  0  0  0  0
 11 13  1  0  0  0  0
 11 14  1  0  0  0  0
 14 15  1  0  0  0  0
 14 21  2  0  0  0  0
 15 16  1  0  0  0  0
 15 17  2  0  0  0  0
 17 18  1  0  0  0  0
 17 19  1  0  0  0  0
 19 20  1  0  0  0  0
 19 21  1  0  0  0  0
 21 22  1  0  0  0  0
 23 24  2  0  0  0  0
 23 25  1  0  0  0  0
 25 26  1  0  0  0  0
 25 27  1  0  0  0  0
 27 28  1  0  0  0  0
 27 29  1  0  0  0  0
 27 30  1  0  0  0  0
M  CHG  1  15   1
M  END
$$$$

  -OEChem-01062216083D

 30 30  0     1  0  0  0  0  0999 V2000
   -4.1835   -1.8522    0.9616 H   0  0  0  0  0  0  0  0  0  0  0  0
   -3.8324   -1.0255    0.3372 C   0  0  0  0  0  0  0  0  0  0  0  0
   -4.3211   -0.1059    0.6682 H   0  0  0  0  0  0  0  0  0  0  0  0
   -4.1143   -1.2267   -0.6995 H   0  0  0  0  0  0  0  0  0  0  0  0
   -2.3259   -0.8857    0.4499 C   0  0  0  0  0  0  0  0  0  0  0  0
   -1.7082   -1.7027    1.1029 O   0  0  0  0  0  0  0  0  0  0  0  0
   -1.6946    0.1094   -0.2723 N   0  0  0  0  0  0  0  0  0  0  0  0
   -2.3466    0.6798   -0.8104 H   0  0  0  0  0  0  0  0  0  0  0  0
   -0.3002    0.6239   -0.2483 C   0  0  1  0  0  0  0  0  0  0  0  0
   -0.3541    1.5201    0.3790 H   0  0  0  0  0  0  0  0  0  0  0  0
    0.9021   -0.1764    0.3248 C   0  0  0  0  0  0  0  0  0  0  0  0
    0.9625   -1.1240   -0.2210 H   0  0  0  0  0  0  0  0  0  0  0  0
    1.8263    0.3735    0.1117 H   0  0  0  0  0  0  0  0  0  0  0  0
    0.8749   -0.4818    1.8066 C   0  0  0  0  0  0  0  0  0  0  0  0
    1.1307    0.4443    2.8209 N   0  3  0  0  0  0  0  0  0  0  0  0
    1.2718    1.4417    2.6405 H   0  0  0  0  0  0  0  0  0  0  0  0
    1.1439   -0.1469    3.9915 C   0  0  0  0  0  0  0  0  0  0  0  0
    1.3004    0.3322    4.9597 H   0  0  0  0  0  0  0  0  0  0  0  0
    0.9278   -1.5040    3.7688 N   0  0  0  0  0  0  0  0  0  0  0  0
    0.8677   -2.2302    4.4885 H   0  0  0  0  0  0  0  0  0  0  0  0
    0.7942   -1.7155    2.4040 C   0  0  0  0  0  0  0  0  0  0  0  0
    0.6214   -2.6630    1.8924 H   0  0  0  0  0  0  0  0  0  0  0  0
    0.0936    1.1406   -1.6413 C   0  0  0  0  0  0  0  0  0  0  0  0
    0.5198    2.2798   -1.7418 O   0  0  0  0  0  0  0  0  0  0  0  0
    0.0855    0.3001   -2.7383 N   0  0  0  0  0  0  0  0  0  0  0  0
   -0.2971   -0.6344   -2.6162 H   0  0  0  0  0  0  0  0  0  0  0  0
    0.5005    0.7258   -4.0722 C   0  0  0  0  0  0  0  0  0  0  0  0
    1.5483    1.0458   -4.0655 H   0  0  0  0  0  0  0  0  0  0  0  0
    0.3977   -0.0984   -4.7852 H   0  0  0  0  0  0  0  0  0  0  0  0
   -0.1177    1.5612   -4.4188 H   0  0  0  0  0  0  0  0  0  0  0  0
  1  2  1  0  0  0  0
  2  3  1  0  0  0  0
  2  4  1  0  0  0  0
  2  5  1  0  0  0  0
  5  6  2  0  0  0  0
  5  7  1  0  0  0  0
  7  8  1  0  0  0  0
  7  9  1  0  0  0  0
  9 10  1  0  0  0  0
  9 11  1  0  0  0  0
  9 23  1  0  0  0  0
 11 12  1  0  0  0  0
 11 13  1  0  0  0  0
 11 14  1  0  0  0  0
 14 15  1  0  0  0  0
 14 21  2  0  0  0  0
 15 16  1  0  0  0  0
 15 17  2  0  0  0  0
 17 18  1  0  0  0  0
 17 19  1  0  0  0  0
 19 20  1  0  0  0  0
 19 21  1  0  0  0  0
 21 22  1  0  0  0  0
 23 24  2  0  0  0  0
 23 25  1  0  0  0  0
 25 26  1  0  0  0  0
 25 27  1  0  0  0  0
 27 28  1  0  0  0  0
 27 29  1  0  0  0  0
 27 30  1  0  0  0  0
M  CHG  1  15   1
M  END
$$$$

  -OEChem-01062216083D

 30 30  0     1  0  0  0  0  0999 V2000
   -4.1988   -1.8377    1.0148 H   0  0  0  0  0  0  0  0  0  0  0  0
   -3.8504   -1.0288    0.3660 C   0  0  0  0  0  0  0  0  0  0  0  0
   -4.3438   -0.1020    0.6690 H   0  0  0  0  0  0  0  0  0  0  0  0
   -4.1304   -1.2625   -0.6642 H   0  0  0  0  0  0  0  0  0  0  0  0
   -2.3446   -0.8790    0.4753 C   0  0  0  0  0  0  0  0  0  0  0  0
   -1.7228   -1.6873    1.1345 O   0  0  0  0  0  0  0  0  0  0  0  0
   -1.7221    0.1176   -0.2529 N   0  0  0  0  0  0  0  0  0  0  0  0
   -2.3806    0.6801   -0.7910 H   0  0  0  0  0  0  0  0  0  0  0  0
   -0.3306    0.6445   -0.2380 C   0  0  1  0  0  0  0  0  0  0  0  0
   -0.3836    1.5406    0.3890 H   0  0  0  0  0  0  0  0  0  0  0  0
    0.8795   -0.1577    0.3187 C   0  0  0  0  0  0  0  0  0  0  0  0
    0.9386   -1.0982   -0.2395 H   0  0  0  0  0  0  0  0  0  0  0  0
    1.8008    0.3971    0.1048 H   0  0  0  0  0  0  0  0  0  0  0  0
    0.8705   -0.4806    1.7970 C   0  0  0  0  0  0  0  0  0  0  0  0
    1.1341    0.4355    2.8181 N   0  3  0  0  0  0  0  0  0  0  0  0
    1.2729    1.4347    2.6460 H   0  0  0  0  0  0  0  0  0  0  0  0
    1.1668   -0.1686    3.9817 C   0  0  0  0  0  0  0  0  0  0  0  0
    1.3356    0.3003    4.9526 H   0  0  0  0  0  0  0  0  0  0  0  0
    0.9538   -1.5241    3.7471 N   0  0  0  0  0  0  0  0  0  0  0  0
    0.9071   -2.2584    4.4595 H   0  0  0  0  0  0  0  0  0  0  0  0
    0.8038   -1.7213    2.3817 C   0  0  0  0  0  0  0  0  0  0  0  0
    0.6295   -2.6640    1.8621 H   0  0  0  0  0  0  0  0  0  0  0  0
    0.0600    1.1609   -1.6330 C   0  0  0  0  0  0  0  0  0  0  0  0
    0.7141    2.1886   -1.7112 O   0  0  0  0  0  0  0  0  0  0  0  0
   -0.2267    0.4290   -2.7698 N   0  0  0  0  0  0  0  0  0  0  0  0
   -0.7285   -0.4479   -2.6534 H   0  0  0  0  0  0  0  0  0  0  0  0
    0.1897    0.8353   -4.1094 C   0  0  0  0  0  0  0  0  0  0  0  0
    1.2823    0.8736   -4.1778 H   0  0  0  0  0  0  0  0  0  0  0  0
   -0.1778    0.1233   -4.8552 H   0  0  0  0  0  0  0  0  0  0  0  0
   -0.2108    1.8255   -4.3533 H   0  0  0  0  0  0  0  0  0  0  0  0
  1  2  1  0  0  0  0
  2  3  1  0  0  0  0
  2  4  1  0  0  0  0
  2  5  1  0  0  0  0
  5  6  2  0  0  0  0
  5  7  1  0  0  0  0
  7  8  1  0  0  0  0
  7  9  1  0  0  0  0
  9 10  1  0  0  0  0
  9 11  1  0  0  0  0
  9 23  1  0  0  0  0
 11 12  1  0  0  0  0
 11 13  1  0  0  0  0
 11 14  1  0  0  0  0
 14 15  1  0  0  0  0
 14 21  2  0  0  0  0
 15 16  1  0  0  0  0
 15 17  2  0  0  0  0
 17 18  1  0  0  0  0
 17 19  1  0  0  0  0
 19 20  1  0  0  0  0
 19 21  1  0  0  0  0
 21 22  1  0  0  0  0
 23 24  2  0  0  0  0
 23 25  1  0  0  0  0
 25 26  1  0  0  0  0
 25 27  1  0  0  0  0
 27 28  1  0  0  0  0
 27 29  1  0  0  0  0
 27 30  1  0  0  0  0
M  CHG  1  15   1
M  END
$$$$

  -OEChem-01062216083D

 30 30  0     1  0  0  0  0  0999 V2000
   -4.2010   -1.8169    1.0804 H   0  0  0  0  0  0  0  0  0  0  0  0
   -3.8577   -1.0247    0.4086 C   0  0  0  0  0  0  0  0  0  0  0  0
   -4.3417   -0.0887    0.6979 H   0  0  0  0  0  0  0  0  0  0  0  0
   -4.1534   -1.2801   -0.6120 H   0  0  0  0  0  0  0  0  0  0  0  0
   -2.3498   -0.8813    0.4933 C   0  0  0  0  0  0  0  0  0  0  0  0
   -1.7213   -1.6957    1.1380 O   0  0  0  0  0  0  0  0  0  0  0  0
   -1.7366    0.1168   -0.2413 N   0  0  0  0  0  0  0  0  0  0  0  0
   -2.4051    0.6866   -0.7586 H   0  0  0  0  0  0  0  0  0  0  0  0
   -0.3479    0.6551   -0.2353 C   0  0  1  0  0  0  0  0  0  0  0  0
   -0.4001    1.5530    0.3890 H   0  0  0  0  0  0  0  0  0  0  0  0
    0.8648   -0.1490    0.3174 C   0  0  0  0  0  0  0  0  0  0  0  0
    0.9198   -1.0881   -0.2438 H   0  0  0  0  0  0  0  0  0  0  0  0
    1.7879    0.4020    0.1027 H   0  0  0  0  0  0  0  0  0  0  0  0
    0.8641   -0.4760    1.7948 C   0  0  0  0  0  0  0  0  0  0  0  0
    1.1328    0.4366    2.8174 N   0  3  0  0  0  0  0  0  0  0  0  0
    1.2702    1.4361    2.6471 H   0  0  0  0  0  0  0  0  0  0  0  0
    1.1783   -0.1722    3.9783 C   0  0  0  0  0  0  0  0  0  0  0  0
    1.3549    0.2934    4.9496 H   0  0  0  0  0  0  0  0  0  0  0  0
    0.9685   -1.5275    3.7397 N   0  0  0  0  0  0  0  0  0  0  0  0
    0.9347   -2.2657    4.4488 H   0  0  0  0  0  0  0  0  0  0  0  0
    0.8083   -1.7194    2.3749 C   0  0  0  0  0  0  0  0  0  0  0  0
    0.6364   -2.6607    1.8522 H   0  0  0  0  0  0  0  0  0  0  0  0
    0.0395    1.1711   -1.6339 C   0  0  0  0  0  0  0  0  0  0  0  0
    0.8571    2.0745   -1.7155 O   0  0  0  0  0  0  0  0  0  0  0  0
   -0.4938    0.6107   -2.7798 N   0  0  0  0  0  0  0  0  0  0  0  0
   -1.0837   -0.2101   -2.6689 H   0  0  0  0  0  0  0  0  0  0  0  0
   -0.1027    1.0215   -4.1258 C   0  0  0  0  0  0  0  0  0  0  0  0
    0.9623    0.8279   -4.2932 H   0  0  0  0  0  0  0  0  0  0  0  0
   -0.6764    0.4672   -4.8756 H   0  0  0  0  0  0  0  0  0  0  0  0
   -0.2907    2.0909   -4.2718 H   0  0  0  0  0  0  0  0  0  0  0  0
  1  2  1  0  0  0  0
  2  3  1  0  0  0  0
  2  4  1  0  0  0  0
  2  5  1  0  0  0  0
  5  6  2  0  0  0  0
  5  7  1  0  0  0  0
  7  8  1  0  0  0  0
  7  9  1  0  0  0  0
  9 10  1  0  0  0  0
  9 11  1  0  0  0  0
  9 23  1  0  0  0  0
 11 12  1  0  0  0  0
 11 13  1  0  0  0  0
 11 14  1  0  0  0  0
 14 15  1  0  0  0  0
 14 21  2  0  0  0  0
 15 16  1  0  0  0  0
 15 17  2  0  0  0  0
 17 18  1  0  0  0  0
 17 19  1  0  0  0  0
 19 20  1  0  0  0  0
 19 21  1  0  0  0  0
 21 22  1  0  0  0  0
 23 24  2  0  0  0  0
 23 25  1  0  0  0  0
 25 26  1  0  0  0  0
 25 27  1  0  0  0  0
 27 28  1  0  0  0  0
 27 29  1  0  0  0  0
 27 30  1  0  0  0  0
M  CHG  1  15   1
M  END
$$$$

  -OEChem-01062216083D

 30 30  0     1  0  0  0  0  0999 V2000
   -4.1850   -1.8372    1.1181 H   0  0  0  0  0  0  0  0  0  0  0  0
   -3.8537   -1.0336    0.4537 C   0  0  0  0  0  0  0  0  0  0  0  0
   -4.3247   -0.1008    0.7737 H   0  0  0  0  0  0  0  0  0  0  0  0
   -4.1768   -1.2666   -0.5640 H   0  0  0  0  0  0  0  0  0  0  0  0
   -2.3431   -0.9007    0.5027 C   0  0  0  0  0  0  0  0  0  0  0  0
   -1.7042   -1.7319    1.1147 O   0  0  0  0  0  0  0  0  0  0  0  0
   -1.7422    0.1039   -0.2336 N   0  0  0  0  0  0  0  0  0  0  0  0
   -2.4231    0.6923   -0.7122 H   0  0  0  0  0  0  0  0  0  0  0  0
   -0.3548    0.6487   -0.2388 C   0  0  1  0  0  0  0  0  0  0  0  0
   -0.4057    1.5453    0.3868 H   0  0  0  0  0  0  0  0  0  0  0  0
    0.8588   -0.1585    0.3147 C   0  0  0  0  0  0  0  0  0  0  0  0
    0.9085   -1.0995   -0.2440 H   0  0  0  0  0  0  0  0  0  0  0  0
    1.7855    0.3852    0.0992 H   0  0  0  0  0  0  0  0  0  0  0  0
    0.8630   -0.4807    1.7931 C   0  0  0  0  0  0  0  0  0  0  0  0
    1.1391    0.4360    2.8101 N   0  3  0  0  0  0  0  0  0  0  0  0
    1.2844    1.4333    2.6335 H   0  0  0  0  0  0  0  0  0  0  0  0
    1.1903   -0.1672    3.9736 C   0  0  0  0  0  0  0  0  0  0  0  0
    1.3751    0.3021    4.9414 H   0  0  0  0  0  0  0  0  0  0  0  0
    0.9752   -1.5231    3.7425 N   0  0  0  0  0  0  0  0  0  0  0  0
    0.9450   -2.2583    4.4548 H   0  0  0  0  0  0  0  0  0  0  0  0
    0.8081   -1.7212    2.3792 C   0  0  0  0  0  0  0  0  0  0  0  0
    0.6331   -2.6648    1.8607 H   0  0  0  0  0  0  0  0  0  0  0  0
    0.0260    1.1761   -1.6383 C   0  0  0  0  0  0  0  0  0  0  0  0
    0.9702    1.9454   -1.7349 O   0  0  0  0  0  0  0  0  0  0  0  0
   -0.7123    0.8511   -2.7621 N   0  0  0  0  0  0  0  0  0  0  0  0
   -1.3939    0.1028   -2.6688 H   0  0  0  0  0  0  0  0  0  0  0  0
   -0.3581    1.3108   -4.1028 C   0  0  0  0  0  0  0  0  0  0  0  0
    0.6194    0.9154   -4.3998 H   0  0  0  0  0  0  0  0  0  0  0  0
   -1.1029    0.9750   -4.8313 H   0  0  0  0  0  0  0  0  0  0  0  0
   -0.3169    2.4053   -4.1356 H   0  0  0  0  0  0  0  0  0  0  0  0
  1  2  1  0  0  0  0
  2  3  1  0  0  0  0
  2  4  1  0  0  0  0
  2  5  1  0  0  0  0
  5  6  2  0  0  0  0
  5  7  1  0  0  0  0
  7  8  1  0  0  0  0
  7  9  1  0  0  0  0
  9 10  1  0  0  0  0
  9 11  1  0  0  0  0
  9 23  1  0  0  0  0
 11 12  1  0  0  0  0
 11 13  1  0  0  0  0
 11 14  1  0  0  0  0
 14 15  1  0  0  0  0
 14 21  2  0  0  0  0
 15 16  1  0  0  0  0
 15 17  2  0  0  0  0
 17 18  1  0  0  0  0
 17 19  1  0  0  0  0
 19 20  1  0  0  0  0
 19 21  1  0  0  0  0
 21 22  1  0  0  0  0
 23 24  2  0  0  0  0
 23 25  1  0  0  0  0
 25 26  1  0  0  0  0
 25 27  1  0  0  0  0
 27 28  1  0  0  0  0
 27 29  1  0  0  0  0
 27 30  1  0  0  0  0
M  CHG  1  15   1
M  END
$$$$

  -OEChem-01062216083D

 30 30  0     1  0  0  0  0  0999 V2000
   -4.1533   -1.8458    1.1603 H   0  0  0  0  0  0  0  0  0  0  0  0
   -3.8344   -1.0329    0.5014 C   0  0  0  0  0  0  0  0  0  0  0  0
   -4.2769   -0.1002    0.8593 H   0  0  0  0  0  0  0  0  0  0  0  0
   -4.2004   -1.2382   -0.5078 H   0  0  0  0  0  0  0  0  0  0  0  0
   -2.3210   -0.9262    0.4943 C   0  0  0  0  0  0  0  0  0  0  0  0
   -1.6730   -1.7938    1.0433 O   0  0  0  0  0  0  0  0  0  0  0  0
   -1.7315    0.0872   -0.2391 N   0  0  0  0  0  0  0  0  0  0  0  0
   -2.4234    0.7036   -0.6621 H   0  0  0  0  0  0  0  0  0  0  0  0
   -0.3432    0.6316   -0.2537 C   0  0  1  0  0  0  0  0  0  0  0  0
   -0.3894    1.5268    0.3738 H   0  0  0  0  0  0  0  0  0  0  0  0
    0.8634   -0.1831    0.3102 C   0  0  0  0  0  0  0  0  0  0  0  0
    0.9048   -1.1294   -0.2399 H   0  0  0  0  0  0  0  0  0  0  0  0
    1.7988    0.3460    0.0963 H   0  0  0  0  0  0  0  0  0  0  0  0
    0.8576   -0.4888    1.7929 C   0  0  0  0  0  0  0  0  0  0  0  0
    1.1388    0.4373    2.8002 N   0  3  0  0  0  0  0  0  0  0  0  0
    1.2989    1.4302    2.6119 H   0  0  0  0  0  0  0  0  0  0  0  0
    1.1868   -0.1540    3.9701 C   0  0  0  0  0  0  0  0  0  0  0  0
    1.3793    0.3241    4.9322 H   0  0  0  0  0  0  0  0  0  0  0  0
    0.9612   -1.5105    3.7540 N   0  0  0  0  0  0  0  0  0  0  0  0
    0.9329   -2.2388    4.4736 H   0  0  0  0  0  0  0  0  0  0  0  0
    0.7928   -1.7219    2.3931 C   0  0  0  0  0  0  0  0  0  0  0  0
    0.6153   -2.6701    1.8837 H   0  0  0  0  0  0  0  0  0  0  0  0
    0.0261    1.1756   -1.6539 C   0  0  0  0  0  0  0  0  0  0  0  0
    1.0768    1.7845   -1.7909 O   0  0  0  0  0  0  0  0  0  0  0  0
   -0.8683    1.1262   -2.7092 N   0  0  0  0  0  0  0  0  0  0  0  0
   -1.6417    0.4731   -2.6237 H   0  0  0  0  0  0  0  0  0  0  0  0
   -0.5576    1.6566   -4.0350 C   0  0  0  0  0  0  0  0  0  0  0  0
    0.2625    1.0928   -4.4927 H   0  0  0  0  0  0  0  0  0  0  0  0
   -1.4332    1.5873   -4.6883 H   0  0  0  0  0  0  0  0  0  0  0  0
   -0.2638    2.7103   -3.9704 H   0  0  0  0  0  0  0  0  0  0  0  0
  1  2  1  0  0  0  0
  2  3  1  0  0  0  0
  2  4  1  0  0  0  0
  2  5  1  0  0  0  0
  5  6  2  0  0  0  0
  5  7  1  0  0  0  0
  7  8  1  0  0  0  0
  7  9  1  0  0  0  0
  9 10  1  0  0  0  0
  9 11  1  0  0  0  0
  9 23  1  0  0  0  0
 11 12  1  0  0  0  0
 11 13  1  0  0  0  0
 11 14  1  0  0  0  0
 14 15  1  0  0  0  0
 14 21  2  0  0  0  0
 15 16  1  0  0  0  0
 15 17  2  0  0  0  0
 17 18  1  0  0  0  0
 17 19  1  0  0  0  0
 19 20  1  0  0  0  0
 19 21  1  0  0  0  0
 21 22  1  0  0  0  0
 23 24  2  0  0  0  0
 23 25  1  0  0  0  0
 25 26  1  0  0  0  0
 25 27  1  0  0  0  0
 27 28  1  0  0  0  0
 27 29  1  0  0  0  0
 27 30  1  0  0  0  0
M  CHG  1  15   1
M  END
$$$$

  -OEChem-01062216083D

 30 30  0     1  0  0  0  0  0999 V2000
   -3.9620   -1.9599    1.0325 H   0  0  0  0  0  0  0  0  0  0  0  0
   -3.6333   -1.2271    0.2895 C   0  0  0  0  0  0  0  0  0  0  0  0
   -4.4255   -0.4862    0.1551 H   0  0  0  0  0  0  0  0  0  0  0  0
   -3.4628   -1.7439   -0.6581 H   0  0  0  0  0  0  0  0  0  0  0  0
   -2.3586   -0.5467    0.7516 C   0  0  0  0  0  0  0  0  0  0  0  0
   -1.9806   -0.7228    1.8937 O   0  0  0  0  0  0  0  0  0  0  0  0
   -1.7572    0.3775   -0.0823 N   0  0  0  0  0  0  0  0  0  0  0  0
   -2.2449    0.4304   -0.9724 H   0  0  0  0  0  0  0  0  0  0  0  0
   -0.3509    0.8727   -0.1350 C   0  0  1  0  0  0  0  0  0  0  0  0
   -0.3072    1.7885    0.4627 H   0  0  0  0  0  0  0  0  0  0  0  0
    0.8121   -0.0643    0.3482 C   0  0  0  0  0  0  0  0  0  0  0  0
    0.7840   -0.9698   -0.2673 H   0  0  0  0  0  0  0  0  0  0  0  0
    1.7759    0.4189    0.1528 H   0  0  0  0  0  0  0  0  0  0  0  0
    0.8467   -0.4722    1.8003 C   0  0  0  0  0  0  0  0  0  0  0  0
    1.2293    0.3419    2.8677 N   0  3  0  0  0  0  0  0  0  0  0  0
    1.4144    1.3421    2.7647 H   0  0  0  0  0  0  0  0  0  0  0  0
    1.2319   -0.3412    3.9866 C   0  0  0  0  0  0  0  0  0  0  0  0
    1.4486    0.0464    4.9832 H   0  0  0  0  0  0  0  0  0  0  0  0
    0.9000   -1.6548    3.6670 N   0  0  0  0  0  0  0  0  0  0  0  0
    0.7944   -2.4249    4.3333 H   0  0  0  0  0  0  0  0  0  0  0  0
    0.6905   -1.7438    2.2972 C   0  0  0  0  0  0  0  0  0  0  0  0
    0.4256   -2.6323    1.7263 H   0  0  0  0  0  0  0  0  0  0  0  0
   -0.0108    1.2722   -1.6023 C   0  0  0  0  0  0  0  0  0  0  0  0
    1.1517    1.3931   -1.9607 O   0  0  0  0  0  0  0  0  0  0  0  0
   -1.0041    1.4451   -2.5560 N   0  0  0  0  0  0  0  0  0  0  0  0
   -1.9395    1.6423   -2.2152 H   0  0  0  0  0  0  0  0  0  0  0  0
   -0.7030    1.8278   -3.9352 C   0  0  0  0  0  0  0  0  0  0  0  0
   -0.0277    1.1003   -4.3988 H   0  0  0  0  0  0  0  0  0  0  0  0
   -1.6212    1.8663   -4.5298 H   0  0  0  0  0  0  0  0  0  0  0  0
   -0.2279    2.8144   -3.9668 H   0  0  0  0  0  0  0  0  0  0  0  0
  1  2  1  0  0  0  0
  2  3  1  0  0  0  0
  2  4  1  0  0  0  0
  2  5  1  0  0  0  0
  5  6  2  0  0  0  0
  5  7  1  0  0  0  0
  7  8  1  0  0  0  0
  7  9  1  0  0  0  0
  9 10  1  0  0  0  0
  9 11  1  0  0  0  0
  9 23  1  0  0  0  0
 11 12  1  0  0  0  0
 11 13  1  0  0  0  0
 11 14  1  0  0  0  0
 14 15  1  0  0  0  0
 14 21  2  0  0  0  0
 15 16  1  0  0  0  0
 15 17  2  0  0  0  0
 17 18  1  0  0  0  0
 17 19  1  0  0  0  0
 19 20  1  0  0  0  0
 19 21  1  0  0  0  0
 21 22  1  0  0  0  0
 23 24  2  0  0  0  0
 23 25  1  0  0  0  0
 25 26  1  0  0  0  0
 25 27  1  0  0  0  0
 27 28  1  0  0  0  0
 27 29  1  0  0  0  0
 27 30  1  0  0  0  0
M  CHG  1  15   1
M  END
$$$$

  -OEChem-01062216083D

 30 30  0     1  0  0  0  0  0999 V2000
   -3.9582   -1.9232    1.0103 H   0  0  0  0  0  0  0  0  0  0  0  0
   -3.5973   -1.2219    0.2524 C   0  0  0  0  0  0  0  0  0  0  0  0
   -4.3786   -0.4819    0.0619 H   0  0  0  0  0  0  0  0  0  0  0  0
   -3.3961   -1.7746   -0.6685 H   0  0  0  0  0  0  0  0  0  0  0  0
   -2.3351   -0.5328    0.7342 C   0  0  0  0  0  0  0  0  0  0  0  0
   -1.9725   -0.7042    1.8823 O   0  0  0  0  0  0  0  0  0  0  0  0
   -1.7277    0.3975   -0.0878 N   0  0  0  0  0  0  0  0  0  0  0  0
   -2.1986    0.4526   -0.9891 H   0  0  0  0  0  0  0  0  0  0  0  0
   -0.3229    0.8939   -0.1188 C   0  0  1  0  0  0  0  0  0  0  0  0
   -0.2838    1.8083    0.4811 H   0  0  0  0  0  0  0  0  0  0  0  0
    0.8396   -0.0418    0.3652 C   0  0  0  0  0  0  0  0  0  0  0  0
    0.8220   -0.9423   -0.2587 H   0  0  0  0  0  0  0  0  0  0  0  0
    1.7998    0.4526    0.1785 H   0  0  0  0  0  0  0  0  0  0  0  0
    0.8605   -0.4652    1.8131 C   0  0  0  0  0  0  0  0  0  0  0  0
    1.2254    0.3308    2.9002 N   0  3  0  0  0  0  0  0  0  0  0  0
    1.4109    1.3327    2.8181 H   0  0  0  0  0  0  0  0  0  0  0  0
    1.2055   -0.3711    4.0074 C   0  0  0  0  0  0  0  0  0  0  0  0
    1.4013    0.0000    5.0146 H   0  0  0  0  0  0  0  0  0  0  0  0
    0.8803   -1.6794    3.6602 N   0  0  0  0  0  0  0  0  0  0  0  0
    0.7565   -2.4591    4.3121 H   0  0  0  0  0  0  0  0  0  0  0  0
    0.6953   -1.7447    2.2859 C   0  0  0  0  0  0  0  0  0  0  0  0
    0.4370   -2.6222    1.6951 H   0  0  0  0  0  0  0  0  0  0  0  0
   -0.0027    1.2914   -1.5897 C   0  0  0  0  0  0  0  0  0  0  0  0
    1.1166    1.1525   -2.0618 O   0  0  0  0  0  0  0  0  0  0  0  0
   -1.0122    1.7488   -2.4234 N   0  0  0  0  0  0  0  0  0  0  0  0
   -1.8606    2.0855   -1.9759 H   0  0  0  0  0  0  0  0  0  0  0  0
   -0.7661    2.1601   -3.8049 C   0  0  0  0  0  0  0  0  0  0  0  0
   -0.3155    1.3416   -4.3773 H   0  0  0  0  0  0  0  0  0  0  0  0
   -1.7056    2.4395   -4.2923 H   0  0  0  0  0  0  0  0  0  0  0  0
   -0.0902    3.0216   -3.8360 H   0  0  0  0  0  0  0  0  0  0  0  0
  1  2  1  0  0  0  0
  2  3  1  0  0  0  0
  2  4  1  0  0  0  0
  2  5  1  0  0  0  0
  5  6  2  0  0  0  0
  5  7  1  0  0  0  0
  7  8  1  0  0  0  0
  7  9  1  0  0  0  0
  9 10  1  0  0  0  0
  9 11  1  0  0  0  0
  9 23  1  0  0  0  0
 11 12  1  0  0  0  0
 11 13  1  0  0  0  0
 11 14  1  0  0  0  0
 14 15  1  0  0  0  0
 14 21  2  0  0  0  0
 15 16  1  0  0  0  0
 15 17  2  0  0  0  0
 17 18  1  0  0  0  0
 17 19  1  0  0  0  0
 19 20  1  0  0  0  0
 19 21  1  0  0  0  0
 21 22  1  0  0  0  0
 23 24  2  0  0  0  0
 23 25  1  0  0  0  0
 25 26  1  0  0  0  0
 25 27  1  0  0  0  0
 27 28  1  0  0  0  0
 27 29  1  0  0  0  0
 27 30  1  0  0  0  0
M  CHG  1  15   1
M  END
$$$$

  -OEChem-01062216083D

 30 30  0     1  0  0  0  0  0999 V2000
   -3.9678   -1.9216    0.9649 H   0  0  0  0  0  0  0  0  0  0  0  0
   -3.6130   -1.1950    0.2283 C   0  0  0  0  0  0  0  0  0  0  0  0
   -4.3884   -0.4389    0.0823 H   0  0  0  0  0  0  0  0  0  0  0  0
   -3.4364   -1.7139   -0.7172 H   0  0  0  0  0  0  0  0  0  0  0  0
   -2.3332   -0.5404    0.7127 C   0  0  0  0  0  0  0  0  0  0  0  0
   -1.9607   -0.7485    1.8515 O   0  0  0  0  0  0  0  0  0  0  0  0
   -1.7153    0.3952   -0.0955 N   0  0  0  0  0  0  0  0  0  0  0  0
   -2.1934    0.4906   -0.9906 H   0  0  0  0  0  0  0  0  0  0  0  0
   -0.3146    0.8998   -0.1069 C   0  0  1  0  0  0  0  0  0  0  0  0
   -0.2859    1.8132    0.4947 H   0  0  0  0  0  0  0  0  0  0  0  0
    0.8536   -0.0231    0.3833 C   0  0  0  0  0  0  0  0  0  0  0  0
    0.8483   -0.9230   -0.2421 H   0  0  0  0  0  0  0  0  0  0  0  0
    1.8069    0.4850    0.1967 H   0  0  0  0  0  0  0  0  0  0  0  0
    0.8708   -0.4561    1.8288 C   0  0  0  0  0  0  0  0  0  0  0  0
    1.2175    0.3330    2.9271 N   0  3  0  0  0  0  0  0  0  0  0  0
    1.3911    1.3379    2.8569 H   0  0  0  0  0  0  0  0  0  0  0  0
    1.2048   -0.3821    4.0261 C   0  0  0  0  0  0  0  0  0  0  0  0
    1.3938   -0.0207    5.0382 H   0  0  0  0  0  0  0  0  0  0  0  0
    0.8988   -1.6905    3.6629 N   0  0  0  0  0  0  0  0  0  0  0  0
    0.7869   -2.4801    4.3049 H   0  0  0  0  0  0  0  0  0  0  0  0
    0.7206   -1.7427    2.2872 C   0  0  0  0  0  0  0  0  0  0  0  0
    0.4778   -2.6171    1.6847 H   0  0  0  0  0  0  0  0  0  0  0  0
    0.0035    1.2966   -1.5754 C   0  0  0  0  0  0  0  0  0  0  0  0
    1.0322    0.9444   -2.1351 O   0  0  0  0  0  0  0  0  0  0  0  0
   -0.9254    2.0250   -2.3008 N   0  0  0  0  0  0  0  0  0  0  0  0
   -1.6982    2.4424   -1.7882 H   0  0  0  0  0  0  0  0  0  0  0  0
   -0.6890    2.4682   -3.6739 C   0  0  0  0  0  0  0  0  0  0  0  0
   -0.4681    1.6133   -4.3225 H   0  0  0  0  0  0  0  0  0  0  0  0
   -1.5743    2.9768   -4.0690 H   0  0  0  0  0  0  0  0  0  0  0  0
    0.1565    3.1637   -3.7138 H   0  0  0  0  0  0  0  0  0  0  0  0
  1  2  1  0  0  0  0
  2  3  1  0  0  0  0
  2  4  1  0  0  0  0
  2  5  1  0  0  0  0
  5  6  2  0  0  0  0
  5  7  1  0  0  0  0
  7  8  1  0  0  0  0
  7  9  1  0  0  0  0
  9 10  1  0  0  0  0
  9 11  1  0  0  0  0
  9 23  1  0  0  0  0
 11 12  1  0  0  0  0
 11 13  1  0  0  0  0
 11 14  1  0  0  0  0
 14 15  1  0  0  0  0
 14 21  2  0  0  0  0
 15 16  1  0  0  0  0
 15 17  2  0  0  0  0
 17 18  1  0  0  0  0
 17 19  1  0  0  0  0
 19 20  1  0  0  0  0
 19 21  1  0  0  0  0
 21 22  1  0  0  0  0
 23 24  2  0  0  0  0
 23 25  1  0  0  0  0
 25 26  1  0  0  0  0
 25 27  1  0  0  0  0
 27 28  1  0  0  0  0
 27 29  1  0  0  0  0
 27 30  1  0  0  0  0
M  CHG  1  15   1
M  END
$$$$

  -OEChem-01062216083D

 30 30  0     1  0  0  0  0  0999 V2000
   -3.9708   -1.9140    0.9396 H   0  0  0  0  0  0  0  0  0  0  0  0
   -3.6130   -1.1777    0.2139 C   0  0  0  0  0  0  0  0  0  0  0  0
   -4.3831   -0.4135    0.0820 H   0  0  0  0  0  0  0  0  0  0  0  0
   -3.4424   -1.6823   -0.7402 H   0  0  0  0  0  0  0  0  0  0  0  0
   -2.3267   -0.5406    0.7036 C   0  0  0  0  0  0  0  0  0  0  0  0
   -1.9511   -0.7697    1.8374 O   0  0  0  0  0  0  0  0  0  0  0  0
   -1.7027    0.3995   -0.0942 N   0  0  0  0  0  0  0  0  0  0  0  0
   -2.1869    0.5230   -0.9828 H   0  0  0  0  0  0  0  0  0  0  0  0
   -0.3043    0.9065   -0.0944 C   0  0  1  0  0  0  0  0  0  0  0  0
   -0.2797    1.8158    0.5134 H   0  0  0  0  0  0  0  0  0  0  0  0
    0.8673   -0.0120    0.3933 C   0  0  0  0  0  0  0  0  0  0  0  0
    0.8637   -0.9131   -0.2306 H   0  0  0  0  0  0  0  0  0  0  0  0
    1.8178    0.4991    0.2011 H   0  0  0  0  0  0  0  0  0  0  0  0
    0.8798   -0.4531    1.8363 C   0  0  0  0  0  0  0  0  0  0  0  0
    1.2159    0.3296    2.9422 N   0  3  0  0  0  0  0  0  0  0  0  0
    1.3814    1.3361    2.8811 H   0  0  0  0  0  0  0  0  0  0  0  0
    1.1930   -0.3922    4.0367 C   0  0  0  0  0  0  0  0  0  0  0  0
    1.3670   -0.0363    5.0533 H   0  0  0  0  0  0  0  0  0  0  0  0
    0.8955   -1.6993    3.6622 N   0  0  0  0  0  0  0  0  0  0  0  0
    0.7768   -2.4928    4.2980 H   0  0  0  0  0  0  0  0  0  0  0  0
    0.7298   -1.7430    2.2848 C   0  0  0  0  0  0  0  0  0  0  0  0
    0.4923   -2.6134    1.6746 H   0  0  0  0  0  0  0  0  0  0  0  0
    0.0150    1.3080   -1.5587 C   0  0  0  0  0  0  0  0  0  0  0  0
    0.9001    0.7630   -2.2028 O   0  0  0  0  0  0  0  0  0  0  0  0
   -0.7518    2.2815   -2.1751 N   0  0  0  0  0  0  0  0  0  0  0  0
   -1.4375    2.7766   -1.6100 H   0  0  0  0  0  0  0  0  0  0  0  0
   -0.5151    2.7385   -3.5433 C   0  0  0  0  0  0  0  0  0  0  0  0
   -0.5748    1.8998   -4.2459 H   0  0  0  0  0  0  0  0  0  0  0  0
   -1.2654    3.4812   -3.8330 H   0  0  0  0  0  0  0  0  0  0  0  0
    0.4759    3.1975   -3.6299 H   0  0  0  0  0  0  0  0  0  0  0  0
  1  2  1  0  0  0  0
  2  3  1  0  0  0  0
  2  4  1  0  0  0  0
  2  5  1  0  0  0  0
  5  6  2  0  0  0  0
  5  7  1  0  0  0  0
  7  8  1  0  0  0  0
  7  9  1  0  0  0  0
  9 10  1  0  0  0  0
  9 11  1  0  0  0  0
  9 23  1  0  0  0  0
 11 12  1  0  0  0  0
 11 13  1  0  0  0  0
 11 14  1  0  0  0  0
 14 15  1  0  0  0  0
 14 21  2  0  0  0  0
 15 16  1  0  0  0  0
 15 17  2  0  0  0  0
 17 18  1  0  0  0  0
 17 19  1  0  0  0  0
 19 20  1  0  0  0  0
 19 21  1  0  0  0  0
 21 22  1  0  0  0  0
 23 24  2  0  0  0  0
 23 25  1  0  0  0  0
 25 26  1  0  0  0  0
 25 27  1  0  0  0  0
 27 28  1  0  0  0  0
 27 29  1  0  0  0  0
 27 30  1  0  0  0  0
M  CHG  1  15   1
M  END
$$$$

  -OEChem-01062216083D

 30 30  0     1  0  0  0  0  0999 V2000
   -3.9492   -1.9220    0.9365 H   0  0  0  0  0  0  0  0  0  0  0  0
   -3.5948   -1.1848    0.2103 C   0  0  0  0  0  0  0  0  0  0  0  0
   -4.3725   -0.4297    0.0702 H   0  0  0  0  0  0  0  0  0  0  0  0
   -3.4123   -1.6912   -0.7407 H   0  0  0  0  0  0  0  0  0  0  0  0
   -2.3196   -0.5307    0.7067 C   0  0  0  0  0  0  0  0  0  0  0  0
   -1.9524   -0.7451    1.8467 O   0  0  0  0  0  0  0  0  0  0  0  0
   -1.7002    0.4137   -0.0892 N   0  0  0  0  0  0  0  0  0  0  0  0
   -2.1780    0.5303   -0.9825 H   0  0  0  0  0  0  0  0  0  0  0  0
   -0.3064    0.9289   -0.0785 C   0  0  1  0  0  0  0  0  0  0  0  0
   -0.2890    1.8334    0.5365 H   0  0  0  0  0  0  0  0  0  0  0  0
    0.8687    0.0123    0.4026 C   0  0  0  0  0  0  0  0  0  0  0  0
    0.8684   -0.8858   -0.2261 H   0  0  0  0  0  0  0  0  0  0  0  0
    1.8161    0.5287    0.2112 H   0  0  0  0  0  0  0  0  0  0  0  0
    0.8796   -0.4459    1.8406 C   0  0  0  0  0  0  0  0  0  0  0  0
    1.2070    0.3227    2.9593 N   0  3  0  0  0  0  0  0  0  0  0  0
    1.3643    1.3315    2.9145 H   0  0  0  0  0  0  0  0  0  0  0  0
    1.1837   -0.4148    4.0433 C   0  0  0  0  0  0  0  0  0  0  0  0
    1.3510   -0.0724    5.0655 H   0  0  0  0  0  0  0  0  0  0  0  0
    0.8952   -1.7182    3.6492 N   0  0  0  0  0  0  0  0  0  0  0  0
    0.7775   -2.5212    4.2734 H   0  0  0  0  0  0  0  0  0  0  0  0
    0.7334   -1.7427    2.2707 C   0  0  0  0  0  0  0  0  0  0  0  0
    0.5023   -2.6058    1.6475 H   0  0  0  0  0  0  0  0  0  0  0  0
    0.0260    1.3332   -1.5369 C   0  0  0  0  0  0  0  0  0  0  0  0
    0.7181    0.6271   -2.2562 O   0  0  0  0  0  0  0  0  0  0  0  0
   -0.5114    2.4953   -2.0606 N   0  0  0  0  0  0  0  0  0  0  0  0
   -1.0960    3.0685   -1.4572 H   0  0  0  0  0  0  0  0  0  0  0  0
   -0.2621    2.9481   -3.4277 C   0  0  0  0  0  0  0  0  0  0  0  0
   -0.6071    2.2011   -4.1508 H   0  0  0  0  0  0  0  0  0  0  0  0
   -0.7933    3.8852   -3.6226 H   0  0  0  0  0  0  0  0  0  0  0  0
    0.8081    3.1201   -3.5864 H   0  0  0  0  0  0  0  0  0  0  0  0
  1  2  1  0  0  0  0
  2  3  1  0  0  0  0
  2  4  1  0  0  0  0
  2  5  1  0  0  0  0
  5  6  2  0  0  0  0
  5  7  1  0  0  0  0
  7  8  1  0  0  0  0
  7  9  1  0  0  0  0
  9 10  1  0  0  0  0
  9 11  1  0  0  0  0
  9 23  1  0  0  0  0
 11 12  1  0  0  0  0
 11 13  1  0  0  0  0
 11 14  1  0  0  0  0
 14 15  1  0  0  0  0
 14 21  2  0  0  0  0
 15 16  1  0  0  0  0
 15 17  2  0  0  0  0
 17 18  1  0  0  0  0
 17 19  1  0  0  0  0
 19 20  1  0  0  0  0
 19 21  1  0  0  0  0
 21 22  1  0  0  0  0
 23 24  2  0  0  0  0
 23 25  1  0  0  0  0
 25 26  1  0  0  0  0
 25 27  1  0  0  0  0
 27 28  1  0  0  0  0
 27 29  1  0  0  0  0
 27 30  1  0  0  0  0
M  CHG  1  15   1
M  END
$$$$

  -OEChem-01062216083D

 30 30  0     1  0  0  0  0  0999 V2000
   -3.9102   -1.9239    0.9310 H   0  0  0  0  0  0  0  0  0  0  0  0
   -3.5575   -1.1871    0.2037 C   0  0  0  0  0  0  0  0  0  0  0  0
   -4.3483   -0.4508    0.0391 H   0  0  0  0  0  0  0  0  0  0  0  0
   -3.3448   -1.6993   -0.7380 H   0  0  0  0  0  0  0  0  0  0  0  0
   -2.3070   -0.4995    0.7172 C   0  0  0  0  0  0  0  0  0  0  0  0
   -1.9594   -0.6850    1.8690 O   0  0  0  0  0  0  0  0  0  0  0  0
   -1.6873    0.4427   -0.0801 N   0  0  0  0  0  0  0  0  0  0  0  0
   -2.1440    0.5317   -0.9877 H   0  0  0  0  0  0  0  0  0  0  0  0
   -0.2952    0.9580   -0.0570 C   0  0  1  0  0  0  0  0  0  0  0  0
   -0.2806    1.8580    0.5645 H   0  0  0  0  0  0  0  0  0  0  0  0
    0.8783    0.0355    0.4122 C   0  0  0  0  0  0  0  0  0  0  0  0
    0.8801   -0.8551   -0.2271 H   0  0  0  0  0  0  0  0  0  0  0  0
    1.8267    0.5534    0.2300 H   0  0  0  0  0  0  0  0  0  0  0  0
    0.8792   -0.4421    1.8439 C   0  0  0  0  0  0  0  0  0  0  0  0
    1.1985    0.3086    2.9770 N   0  3  0  0  0  0  0  0  0  0  0  0
    1.3548    1.3181    2.9501 H   0  0  0  0  0  0  0  0  0  0  0  0
    1.1591   -0.4447    4.0496 C   0  0  0  0  0  0  0  0  0  0  0  0
    1.3146   -0.1177    5.0789 H   0  0  0  0  0  0  0  0  0  0  0  0
    0.8691   -1.7408    3.6334 N   0  0  0  0  0  0  0  0  0  0  0  0
    0.7395   -2.5517    4.2447 H   0  0  0  0  0  0  0  0  0  0  0  0
    0.7208   -1.7442    2.2532 C   0  0  0  0  0  0  0  0  0  0  0  0
    0.4897   -2.5964    1.6153 H   0  0  0  0  0  0  0  0  0  0  0  0
    0.0532    1.3569   -1.5105 C   0  0  0  0  0  0  0  0  0  0  0  0
    0.4741    0.5257   -2.3021 O   0  0  0  0  0  0  0  0  0  0  0  0
   -0.2027    2.6405   -1.9566 N   0  0  0  0  0  0  0  0  0  0  0  0
   -0.6264    3.2996   -1.3084 H   0  0  0  0  0  0  0  0  0  0  0  0
    0.0273    3.0682   -3.3350 C   0  0  0  0  0  0  0  0  0  0  0  0
   -0.5842    2.4802   -4.0282 H   0  0  0  0  0  0  0  0  0  0  0  0
   -0.2347    4.1242   -3.4557 H   0  0  0  0  0  0  0  0  0  0  0  0
    1.0814    2.9431   -3.6063 H   0  0  0  0  0  0  0  0  0  0  0  0
  1  2  1  0  0  0  0
  2  3  1  0  0  0  0
  2  4  1  0  0  0  0
  2  5  1  0  0  0  0
  5  6  2  0  0  0  0
  5  7  1  0  0  0  0
  7  8  1  0  0  0  0
  7  9  1  0  0  0  0
  9 10  1  0  0  0  0
  9 11  1  0  0  0  0
  9 23  1  0  0  0  0
 11 12  1  0  0  0  0
 11 13  1  0  0  0  0
 11 14  1  0  0  0  0
 14 15  1  0  0  0  0
 14 21  2  0  0  0  0
 15 16  1  0  0  0  0
 15 17  2  0  0  0  0
 17 18  1  0  0  0  0
 17 19  1  0  0  0  0
 19 20  1  0  0  0  0
 19 21  1  0  0  0  0
 21 22  1  0  0  0  0
 23 24  2  0  0  0  0
 23 25  1  0  0  0  0
 25 26  1  0  0  0  0
 25 27  1  0  0  0  0
 27 28  1  0  0  0  0
 27 29  1  0  0  0  0
 27 30  1  0  0  0  0
M  CHG  1  15   1
M  END
$$$$

  -OEChem-01062216083D

 30 30  0     1  0  0  0  0  0999 V2000
   -3.8730   -1.9213    0.9440 H   0  0  0  0  0  0  0  0  0  0  0  0
   -3.5216   -1.1913    0.2094 C   0  0  0  0  0  0  0  0  0  0  0  0
   -4.3224   -0.4724    0.0185 H   0  0  0  0  0  0  0  0  0  0  0  0
   -3.2843   -1.7159   -0.7195 H   0  0  0  0  0  0  0  0  0  0  0  0
   -2.2929   -0.4710    0.7304 C   0  0  0  0  0  0  0  0  0  0  0  0
   -1.9640   -0.6215    1.8935 O   0  0  0  0  0  0  0  0  0  0  0  0
   -1.6738    0.4648   -0.0738 N   0  0  0  0  0  0  0  0  0  0  0  0
   -2.1035    0.5156   -0.9980 H   0  0  0  0  0  0  0  0  0  0  0  0
   -0.2859    0.9880   -0.0383 C   0  0  1  0  0  0  0  0  0  0  0  0
   -0.2770    1.8884    0.5825 H   0  0  0  0  0  0  0  0  0  0  0  0
    0.8873    0.0620    0.4199 C   0  0  0  0  0  0  0  0  0  0  0  0
    0.8965   -0.8169   -0.2353 H   0  0  0  0  0  0  0  0  0  0  0  0
    1.8347    0.5864    0.2531 H   0  0  0  0  0  0  0  0  0  0  0  0
    0.8794   -0.4377    1.8437 C   0  0  0  0  0  0  0  0  0  0  0  0
    1.1886    0.2930    2.9926 N   0  3  0  0  0  0  0  0  0  0  0  0
    1.3442    1.3028    2.9853 H   0  0  0  0  0  0  0  0  0  0  0  0
    1.1299   -0.4774    4.0522 C   0  0  0  0  0  0  0  0  0  0  0  0
    1.2701   -0.1677    5.0890 H   0  0  0  0  0  0  0  0  0  0  0  0
    0.8397   -1.7652    3.6110 N   0  0  0  0  0  0  0  0  0  0  0  0
    0.6936   -2.5842    4.2080 H   0  0  0  0  0  0  0  0  0  0  0  0
    0.7083   -1.7454    2.2292 C   0  0  0  0  0  0  0  0  0  0  0  0
    0.4784   -2.5856    1.5750 H   0  0  0  0  0  0  0  0  0  0  0  0
    0.0765    1.3690   -1.4914 C   0  0  0  0  0  0  0  0  0  0  0  0
    0.2354    0.4913   -2.3277 O   0  0  0  0  0  0  0  0  0  0  0  0
    0.1177    2.6943   -1.8842 N   0  0  0  0  0  0  0  0  0  0  0  0
   -0.1305    3.4062   -1.2022 H   0  0  0  0  0  0  0  0  0  0  0  0
    0.3571    3.1083   -3.2651 C   0  0  0  0  0  0  0  0  0  0  0  0
   -0.4343    2.7330   -3.9232 H   0  0  0  0  0  0  0  0  0  0  0  0
    0.3763    4.2005   -3.3377 H   0  0  0  0  0  0  0  0  0  0  0  0
    1.3196    2.7245   -3.6211 H   0  0  0  0  0  0  0  0  0  0  0  0
  1  2  1  0  0  0  0
  2  3  1  0  0  0  0
  2  4  1  0  0  0  0
  2  5  1  0  0  0  0
  5  6  2  0  0  0  0
  5  7  1  0  0  0  0
  7  8  1  0  0  0  0
  7  9  1  0  0  0  0
  9 10  1  0  0  0  0
  9 11  1  0  0  0  0
  9 23  1  0  0  0  0
 11 12  1  0  0  0  0
 11 13  1  0  0  0  0
 11 14  1  0  0  0  0
 14 15  1  0  0  0  0
 14 21  2  0  0  0  0
 15 16  1  0  0  0  0
 15 17  2  0  0  0  0
 17 18  1  0  0  0  0
 17 19  1  0  0  0  0
 19 20  1  0  0  0  0
 19 21  1  0  0  0  0
 21 22  1  0  0  0  0
 23 24  2  0  0  0  0
 23 25  1  0  0  0  0
 25 26  1  0  0  0  0
 25 27  1  0  0  0  0
 27 28  1  0  0  0  0
 27 29  1  0  0  0  0
 27 30  1  0  0  0  0
M  CHG  1  15   1
M  END
$$$$

  -OEChem-01062216083D

 30 30  0     1  0  0  0  0  0999 V2000
   -3.8715   -1.8832    0.9825 H   0  0  0  0  0  0  0  0  0  0  0  0
   -3.4920   -1.1965    0.2206 C   0  0  0  0  0  0  0  0  0  0  0  0
   -4.2857   -0.4928   -0.0429 H   0  0  0  0  0  0  0  0  0  0  0  0
   -3.2173   -1.7730   -0.6663 H   0  0  0  0  0  0  0  0  0  0  0  0
   -2.2847   -0.4434    0.7452 C   0  0  0  0  0  0  0  0  0  0  0  0
   -1.9713   -0.5595    1.9172 O   0  0  0  0  0  0  0  0  0  0  0  0
   -1.6643    0.4810   -0.0706 N   0  0  0  0  0  0  0  0  0  0  0  0
   -2.0711    0.4967   -1.0072 H   0  0  0  0  0  0  0  0  0  0  0  0
   -0.2792    1.0101   -0.0298 C   0  0  1  0  0  0  0  0  0  0  0  0
   -0.2739    1.9149    0.5848 H   0  0  0  0  0  0  0  0  0  0  0  0
    0.8910    0.0798    0.4211 C   0  0  0  0  0  0  0  0  0  0  0  0
    0.9018   -0.7913   -0.2450 H   0  0  0  0  0  0  0  0  0  0  0  0
    1.8397    0.6052    0.2652 H   0  0  0  0  0  0  0  0  0  0  0  0
    0.8747   -0.4319    1.8403 C   0  0  0  0  0  0  0  0  0  0  0  0
    1.1782    0.2856    2.9991 N   0  3  0  0  0  0  0  0  0  0  0  0
    1.3282    1.2962    3.0052 H   0  0  0  0  0  0  0  0  0  0  0  0
    1.1038   -0.4949    4.0502 C   0  0  0  0  0  0  0  0  0  0  0  0
    1.2308   -0.1955    5.0918 H   0  0  0  0  0  0  0  0  0  0  0  0
    0.8129   -1.7772    3.5934 N   0  0  0  0  0  0  0  0  0  0  0  0
    0.6540   -2.6006    4.1809 H   0  0  0  0  0  0  0  0  0  0  0  0
    0.6935   -1.7426    2.2109 C   0  0  0  0  0  0  0  0  0  0  0  0
    0.4635   -2.5747    1.5467 H   0  0  0  0  0  0  0  0  0  0  0  0
    0.0972    1.3679   -1.4845 C   0  0  0  0  0  0  0  0  0  0  0  0
    0.0221    0.5065   -2.3495 O   0  0  0  0  0  0  0  0  0  0  0  0
    0.4404    2.6601   -1.8376 N   0  0  0  0  0  0  0  0  0  0  0  0
    0.3772    3.3858   -1.1285 H   0  0  0  0  0  0  0  0  0  0  0  0
    0.7066    3.0598   -3.2180 C   0  0  0  0  0  0  0  0  0  0  0  0
   -0.1761    2.8925   -3.8450 H   0  0  0  0  0  0  0  0  0  0  0  0
    0.9658    4.1223   -3.2646 H   0  0  0  0  0  0  0  0  0  0  0  0
    1.5422    2.4844   -3.6312 H   0  0  0  0  0  0  0  0  0  0  0  0
  1  2  1  0  0  0  0
  2  3  1  0  0  0  0
  2  4  1  0  0  0  0
  2  5  1  0  0  0  0
  5  6  2  0  0  0  0
  5  7  1  0  0  0  0
  7  8  1  0  0  0  0
  7  9  1  0  0  0  0
  9 10  1  0  0  0  0
  9 11  1  0  0  0  0
  9 23  1  0  0  0  0
 11 12  1  0  0  0  0
 11 13  1  0  0  0  0
 11 14  1  0  0  0  0
 14 15  1  0  0  0  0
 14 21  2  0  0  0  0
 15 16  1  0  0  0  0
 15 17  2  0  0  0  0
 17 18  1  0  0  0  0
 17 19  1  0  0  0  0
 19 20  1  0  0  0  0
 19 21  1  0  0  0  0
 21 22  1  0  0  0  0
 23 24  2  0  0  0  0
 23 25  1  0  0  0  0
 25 26  1  0  0  0  0
 25 27  1  0  0  0  0
 27 28  1  0  0  0  0
 27 29  1  0  0  0  0
 27 30  1  0  0  0  0
M  CHG  1  15   1
M  END
$$$$

  -OEChem-01062216083D

 30 30  0     1  0  0  0  0  0999 V2000
   -3.8289   -1.9138    0.9815 H   0  0  0  0  0  0  0  0  0  0  0  0
   -3.4768   -1.2046    0.2272 C   0  0  0  0  0  0  0  0  0  0  0  0
   -4.2896   -0.5138   -0.0111 H   0  0  0  0  0  0  0  0  0  0  0  0
   -3.2042   -1.7583   -0.6747 H   0  0  0  0  0  0  0  0  0  0  0  0
   -2.2788   -0.4347    0.7486 C   0  0  0  0  0  0  0  0  0  0  0  0
   -1.9733   -0.5303    1.9247 O   0  0  0  0  0  0  0  0  0  0  0  0
   -1.6568    0.4802   -0.0763 N   0  0  0  0  0  0  0  0  0  0  0  0
   -2.0487    0.4726   -1.0204 H   0  0  0  0  0  0  0  0  0  0  0  0
   -0.2749    1.0179   -0.0356 C   0  0  1  0  0  0  0  0  0  0  0  0
   -0.2733    1.9292    0.5693 H   0  0  0  0  0  0  0  0  0  0  0  0
    0.8931    0.0872    0.4170 C   0  0  0  0  0  0  0  0  0  0  0  0
    0.9036   -0.7817   -0.2523 H   0  0  0  0  0  0  0  0  0  0  0  0
    1.8434    0.6111    0.2656 H   0  0  0  0  0  0  0  0  0  0  0  0
    0.8719   -0.4251    1.8361 C   0  0  0  0  0  0  0  0  0  0  0  0
    1.1718    0.2900    2.9974 N   0  3  0  0  0  0  0  0  0  0  0  0
    1.3202    1.3008    3.0067 H   0  0  0  0  0  0  0  0  0  0  0  0
    1.0899   -0.4920    4.0471 C   0  0  0  0  0  0  0  0  0  0  0  0
    1.2115   -0.1950    5.0900 H   0  0  0  0  0  0  0  0  0  0  0  0
    0.7984   -1.7728    3.5872 N   0  0  0  0  0  0  0  0  0  0  0  0
    0.6337   -2.5963    4.1730 H   0  0  0  0  0  0  0  0  0  0  0  0
    0.6857   -1.7358    2.2043 C   0  0  0  0  0  0  0  0  0  0  0  0
    0.4563   -2.5668    1.5385 H   0  0  0  0  0  0  0  0  0  0  0  0
    0.1110    1.3565   -1.4930 C   0  0  0  0  0  0  0  0  0  0  0  0
   -0.1687    0.5635   -2.3821 O   0  0  0  0  0  0  0  0  0  0  0  0
    0.7379    2.5476   -1.8120 N   0  0  0  0  0  0  0  0  0  0  0  0
    0.8495    3.2437   -1.0800 H   0  0  0  0  0  0  0  0  0  0  0  0
    1.0434    2.9349   -3.1877 C   0  0  0  0  0  0  0  0  0  0  0  0
    0.1242    3.0164   -3.7782 H   0  0  0  0  0  0  0  0  0  0  0  0
    1.5527    3.9037   -3.2077 H   0  0  0  0  0  0  0  0  0  0  0  0
    1.6976    2.1942   -3.6604 H   0  0  0  0  0  0  0  0  0  0  0  0
  1  2  1  0  0  0  0
  2  3  1  0  0  0  0
  2  4  1  0  0  0  0
  2  5  1  0  0  0  0
  5  6  2  0  0  0  0
  5  7  1  0  0  0  0
  7  8  1  0  0  0  0
  7  9  1  0  0  0  0
  9 10  1  0  0  0  0
  9 11  1  0  0  0  0
  9 23  1  0  0  0  0
 11 12  1  0  0  0  0
 11 13  1  0  0  0  0
 11 14  1  0  0  0  0
 14 15  1  0  0  0  0
 14 21  2  0  0  0  0
 15 16  1  0  0  0  0
 15 17  2  0  0  0  0
 17 18  1  0  0  0  0
 17 19  1  0  0  0  0
 19 20  1  0  0  0  0
 19 21  1  0  0  0  0
 21 22  1  0  0  0  0
 23 24  2  0  0  0  0
 23 25  1  0  0  0  0
 25 26  1  0  0  0  0
 25 27  1  0  0  0  0
 27 28  1  0  0  0  0
 27 29  1  0  0  0  0
 27 30  1  0  0  0  0
M  CHG  1  15   1
M  END
$$$$

  -OEChem-01062216083D

 30 30  0     1  0  0  0  0  0999 V2000
   -3.8525   -1.9049    0.9768 H   0  0  0  0  0  0  0  0  0  0  0  0
   -3.4883   -1.2036    0.2208 C   0  0  0  0  0  0  0  0  0  0  0  0
   -4.2894   -0.5003   -0.0201 H   0  0  0  0  0  0  0  0  0  0  0  0
   -3.2234   -1.7636   -0.6796 H   0  0  0  0  0  0  0  0  0  0  0  0
   -2.2784   -0.4511    0.7400 C   0  0  0  0  0  0  0  0  0  0  0  0
   -1.9673   -0.5586    1.9135 O   0  0  0  0  0  0  0  0  0  0  0  0
   -1.6519    0.4597   -0.0858 N   0  0  0  0  0  0  0  0  0  0  0  0
   -2.0487    0.4620   -1.0289 H   0  0  0  0  0  0  0  0  0  0  0  0
   -0.2733    1.0074   -0.0512 C   0  0  1  0  0  0  0  0  0  0  0  0
   -0.2770    1.9244    0.5453 H   0  0  0  0  0  0  0  0  0  0  0  0
    0.8963    0.0822    0.4082 C   0  0  0  0  0  0  0  0  0  0  0  0
    0.9068   -0.7899   -0.2565 H   0  0  0  0  0  0  0  0  0  0  0  0
    1.8470    0.6046    0.2558 H   0  0  0  0  0  0  0  0  0  0  0  0
    0.8758   -0.4201    1.8310 C   0  0  0  0  0  0  0  0  0  0  0  0
    1.1743    0.3051    2.9865 N   0  3  0  0  0  0  0  0  0  0  0  0
    1.3159    1.3170    2.9882 H   0  0  0  0  0  0  0  0  0  0  0  0
    1.0944   -0.4680    4.0427 C   0  0  0  0  0  0  0  0  0  0  0  0
    1.2137   -0.1610    5.0829 H   0  0  0  0  0  0  0  0  0  0  0  0
    0.8074   -1.7535    3.5935 N   0  0  0  0  0  0  0  0  0  0  0  0
    0.6415   -2.5718    4.1863 H   0  0  0  0  0  0  0  0  0  0  0  0
    0.6948   -1.7288    2.2102 C   0  0  0  0  0  0  0  0  0  0  0  0
    0.4663   -2.5666    1.5524 H   0  0  0  0  0  0  0  0  0  0  0  0
    0.1149    1.3384   -1.5119 C   0  0  0  0  0  0  0  0  0  0  0  0
   -0.3485    0.6642   -2.4226 O   0  0  0  0  0  0  0  0  0  0  0  0
    0.9930    2.3666   -1.8062 N   0  0  0  0  0  0  0  0  0  0  0  0
    1.2770    2.9869   -1.0533 H   0  0  0  0  0  0  0  0  0  0  0  0
    1.3470    2.7349   -3.1757 C   0  0  0  0  0  0  0  0  0  0  0  0
    0.4569    3.0470   -3.7332 H   0  0  0  0  0  0  0  0  0  0  0  0
    2.0617    3.5641   -3.1752 H   0  0  0  0  0  0  0  0  0  0  0  0
    1.8062    1.8873   -3.6965 H   0  0  0  0  0  0  0  0  0  0  0  0
  1  2  1  0  0  0  0
  2  3  1  0  0  0  0
  2  4  1  0  0  0  0
  2  5  1  0  0  0  0
  5  6  2  0  0  0  0
  5  7  1  0  0  0  0
  7  8  1  0  0  0  0
  7  9  1  0  0  0  0
  9 10  1  0  0  0  0
  9 11  1  0  0  0  0
  9 23  1  0  0  0  0
 11 12  1  0  0  0  0
 11 13  1  0  0  0  0
 11 14  1  0  0  0  0
 14 15  1  0  0  0  0
 14 21  2  0  0  0  0
 15 16  1  0  0  0  0
 15 17  2  0  0  0  0
 17 18  1  0  0  0  0
 17 19  1  0  0  0  0
 19 20  1  0  0  0  0
 19 21  1  0  0  0  0
 21 22  1  0  0  0  0
 23 24  2  0  0  0  0
 23 25  1  0  0  0  0
 25 26  1  0  0  0  0
 25 27  1  0  0  0  0
 27 28  1  0  0  0  0
 27 29  1  0  0  0  0
 27 30  1  0  0  0  0
M  CHG  1  15   1
M  END
$$$$

  -OEChem-01062216083D

 30 30  0     1  0  0  0  0  0999 V2000
   -3.8749   -1.9018    0.9458 H   0  0  0  0  0  0  0  0  0  0  0  0
   -3.5004   -1.1997    0.1957 C   0  0  0  0  0  0  0  0  0  0  0  0
   -4.2895   -0.4798   -0.0357 H   0  0  0  0  0  0  0  0  0  0  0  0
   -3.2483   -1.7552   -0.7110 H   0  0  0  0  0  0  0  0  0  0  0  0
   -2.2756   -0.4742    0.7185 C   0  0  0  0  0  0  0  0  0  0  0  0
   -1.9606   -0.6042    1.8884 O   0  0  0  0  0  0  0  0  0  0  0  0
   -1.6392    0.4363   -0.1000 N   0  0  0  0  0  0  0  0  0  0  0  0
   -2.0467    0.4682   -1.0389 H   0  0  0  0  0  0  0  0  0  0  0  0
   -0.2628    0.9911   -0.0684 C   0  0  1  0  0  0  0  0  0  0  0  0
   -0.2714    1.9132    0.5203 H   0  0  0  0  0  0  0  0  0  0  0  0
    0.9042    0.0693    0.4090 C   0  0  0  0  0  0  0  0  0  0  0  0
    0.9158   -0.8098   -0.2461 H   0  0  0  0  0  0  0  0  0  0  0  0
    1.8584    0.5850    0.2599 H   0  0  0  0  0  0  0  0  0  0  0  0
    0.8771   -0.4162    1.8381 C   0  0  0  0  0  0  0  0  0  0  0  0
    1.1708    0.3214    2.9876 N   0  3  0  0  0  0  0  0  0  0  0  0
    1.2992    1.3351    2.9812 H   0  0  0  0  0  0  0  0  0  0  0  0
    1.0938   -0.4421    4.0511 C   0  0  0  0  0  0  0  0  0  0  0  0
    1.2064   -0.1242    5.0890 H   0  0  0  0  0  0  0  0  0  0  0  0
    0.8192   -1.7341    3.6132 N   0  0  0  0  0  0  0  0  0  0  0  0
    0.6604   -2.5486    4.2132 H   0  0  0  0  0  0  0  0  0  0  0  0
    0.7075   -1.7228    2.2298 C   0  0  0  0  0  0  0  0  0  0  0  0
    0.4884   -2.5690    1.5798 H   0  0  0  0  0  0  0  0  0  0  0  0
    0.1235    1.3212   -1.5345 C   0  0  0  0  0  0  0  0  0  0  0  0
   -0.5135    0.8216   -2.4538 O   0  0  0  0  0  0  0  0  0  0  0  0
    1.2073    2.1297   -1.8339 N   0  0  0  0  0  0  0  0  0  0  0  0
    1.6606    2.6280   -1.0737 H   0  0  0  0  0  0  0  0  0  0  0  0
    1.5795    2.4751   -3.2048 C   0  0  0  0  0  0  0  0  0  0  0  0
    0.7637    3.0116   -3.7019 H   0  0  0  0  0  0  0  0  0  0  0  0
    2.4669    3.1161   -3.2101 H   0  0  0  0  0  0  0  0  0  0  0  0
    1.8056    1.5716   -3.7820 H   0  0  0  0  0  0  0  0  0  0  0  0
  1  2  1  0  0  0  0
  2  3  1  0  0  0  0
  2  4  1  0  0  0  0
  2  5  1  0  0  0  0
  5  6  2  0  0  0  0
  5  7  1  0  0  0  0
  7  8  1  0  0  0  0
  7  9  1  0  0  0  0
  9 10  1  0  0  0  0
  9 11  1  0  0  0  0
  9 23  1  0  0  0  0
 11 12  1  0  0  0  0
 11 13  1  0  0  0  0
 11 14  1  0  0  0  0
 14 15  1  0  0  0  0
 14 21  2  0  0  0  0
 15 16  1  0  0  0  0
 15 17  2  0  0  0  0
 17 18  1  0  0  0  0
 17 19  1  0  0  0  0
 19 20  1  0  0  0  0
 19 21  1  0  0  0  0
 21 22  1  0  0  0  0
 23 24  2  0  0  0  0
 23 25  1  0  0  0  0
 25 26  1  0  0  0  0
 25 27  1  0  0  0  0
 27 28  1  0  0  0  0
 27 29  1  0  0  0  0
 27 30  1  0  0  0  0
M  CHG  1  15   1
M  END
$$$$

  -OEChem-01062216083D

 30 30  0     1  0  0  0  0  0999 V2000
   -3.8383   -1.8305    1.1596 H   0  0  0  0  0  0  0  0  0  0  0  0
   -3.5181   -1.0870    0.4244 C   0  0  0  0  0  0  0  0  0  0  0  0
   -4.2669   -0.2919    0.3806 H   0  0  0  0  0  0  0  0  0  0  0  0
   -3.4519   -1.5666   -0.5553 H   0  0  0  0  0  0  0  0  0  0  0  0
   -2.1717   -0.5074    0.8138 C   0  0  0  0  0  0  0  0  0  0  0  0
   -1.7028   -0.7643    1.9104 O   0  0  0  0  0  0  0  0  0  0  0  0
   -1.5697    0.4124   -0.0206 N   0  0  0  0  0  0  0  0  0  0  0  0
   -2.0966    0.6152   -0.8754 H   0  0  0  0  0  0  0  0  0  0  0  0
   -0.1867    0.9456   -0.0426 C   0  0  1  0  0  0  0  0  0  0  0  0
   -0.0697    1.6783    0.7614 H   0  0  0  0  0  0  0  0  0  0  0  0
    0.9603   -0.1129    0.0165 C   0  0  0  0  0  0  0  0  0  0  0  0
    0.8308   -0.7886   -0.8370 H   0  0  0  0  0  0  0  0  0  0  0  0
    1.9271    0.3826   -0.1155 H   0  0  0  0  0  0  0  0  0  0  0  0
    1.0592   -0.9472    1.2692 C   0  0  0  0  0  0  0  0  0  0  0  0
    1.5376   -0.5387    2.5162 N   0  3  0  0  0  0  0  0  0  0  0  0
    1.7417    0.4368    2.7421 H   0  0  0  0  0  0  0  0  0  0  0  0
    1.5016   -1.5371    3.3653 C   0  0  0  0  0  0  0  0  0  0  0  0
    1.7461   -1.4935    4.4279 H   0  0  0  0  0  0  0  0  0  0  0  0
    1.0651   -2.6592    2.6671 N   0  0  0  0  0  0  0  0  0  0  0  0
    0.8976   -3.5855    3.0702 H   0  0  0  0  0  0  0  0  0  0  0  0
    0.8041   -2.2951    1.3527 C   0  0  0  0  0  0  0  0  0  0  0  0
    0.4368   -2.9359    0.5520 H   0  0  0  0  0  0  0  0  0  0  0  0
    0.0105    1.6538   -1.4132 C   0  0  0  0  0  0  0  0  0  0  0  0
   -0.8818    1.6014   -2.2515 O   0  0  0  0  0  0  0  0  0  0  0  0
    1.2032    2.2688   -1.7601 N   0  0  0  0  0  0  0  0  0  0  0  0
    1.9028    2.4036   -1.0366 H   0  0  0  0  0  0  0  0  0  0  0  0
    1.4051    2.9353   -3.0457 C   0  0  0  0  0  0  0  0  0  0  0  0
    0.6881    3.7541   -3.1718 H   0  0  0  0  0  0  0  0  0  0  0  0
    2.4161    3.3507   -3.1064 H   0  0  0  0  0  0  0  0  0  0  0  0
    1.2750    2.2271   -3.8716 H   0  0  0  0  0  0  0  0  0  0  0  0
  1  2  1  0  0  0  0
  2  3  1  0  0  0  0
  2  4  1  0  0  0  0
  2  5  1  0  0  0  0
  5  6  2  0  0  0  0
  5  7  1  0  0  0  0
  7  8  1  0  0  0  0
  7  9  1  0  0  0  0
  9 10  1  0  0  0  0
  9 11  1  0  0  0  0
  9 23  1  0  0  0  0
 11 12  1  0  0  0  0
 11 13  1  0  0  0  0
 11 14  1  0  0  0  0
 14 15  1  0  0  0  0
 14 21  2  0  0  0  0
 15 16  1  0  0  0  0
 15 17  2  0  0  0  0
 17 18  1  0  0  0  0
 17 19  1  0  0  0  0
 19 20  1  0  0  0  0
 19 21  1  0  0  0  0
 21 22  1  0  0  0  0
 23 24  2  0  0  0  0
 23 25  1  0  0  0  0
 25 26  1  0  0  0  0
 25 27  1  0  0  0  0
 27 28  1  0  0  0  0
 27 29  1  0  0  0  0
 27 30  1  0  0  0  0
M  CHG  1  15   1
M  END
$$$$

  -OEChem-01062216083D

 30 30  0     1  0  0  0  0  0999 V2000
   -3.8908   -1.7966    1.1071 H   0  0  0  0  0  0  0  0  0  0  0  0
   -3.5466   -1.0496    0.3866 C   0  0  0  0  0  0  0  0  0  0  0  0
   -4.2600   -0.2216    0.3717 H   0  0  0  0  0  0  0  0  0  0  0  0
   -3.5130   -1.5071   -0.6051 H   0  0  0  0  0  0  0  0  0  0  0  0
   -2.1716   -0.5394    0.7729 C   0  0  0  0  0  0  0  0  0  0  0  0
   -1.7009   -0.8524    1.8533 O   0  0  0  0  0  0  0  0  0  0  0  0
   -1.5492    0.3839   -0.0427 N   0  0  0  0  0  0  0  0  0  0  0  0
   -2.0978    0.6592   -0.8631 H   0  0  0  0  0  0  0  0  0  0  0  0
   -0.1633    0.9121   -0.0620 C   0  0  1  0  0  0  0  0  0  0  0  0
   -0.0504    1.6489    0.7391 H   0  0  0  0  0  0  0  0  0  0  0  0
    0.9852   -0.1443    0.0229 C   0  0  0  0  0  0  0  0  0  0  0  0
    0.8665   -0.8312   -0.8230 H   0  0  0  0  0  0  0  0  0  0  0  0
    1.9526    0.3510   -0.0999 H   0  0  0  0  0  0  0  0  0  0  0  0
    1.0771   -0.9597    1.2889 C   0  0  0  0  0  0  0  0  0  0  0  0
    1.5462   -0.5316    2.5331 N   0  3  0  0  0  0  0  0  0  0  0  0
    1.7447    0.4480    2.7465 H   0  0  0  0  0  0  0  0  0  0  0  0
    1.5113   -1.5182    3.3960 C   0  0  0  0  0  0  0  0  0  0  0  0
    1.7502   -1.4589    4.4591 H   0  0  0  0  0  0  0  0  0  0  0  0
    1.0853   -2.6524    2.7108 N   0  0  0  0  0  0  0  0  0  0  0  0
    0.9167   -3.5731    3.1258 H   0  0  0  0  0  0  0  0  0  0  0  0
    0.8325   -2.3085    1.3894 C   0  0  0  0  0  0  0  0  0  0  0  0
    0.4734   -2.9625    0.5957 H   0  0  0  0  0  0  0  0  0  0  0  0
    0.0198    1.6310   -1.4336 C   0  0  0  0  0  0  0  0  0  0  0  0
   -0.9623    1.8237   -2.1405 O   0  0  0  0  0  0  0  0  0  0  0  0
    1.2593    1.9891   -1.9428 N   0  0  0  0  0  0  0  0  0  0  0  0
    2.0700    1.9169   -1.3367 H   0  0  0  0  0  0  0  0  0  0  0  0
    1.4248    2.6545   -3.2345 C   0  0  0  0  0  0  0  0  0  0  0  0
    0.8899    3.6107   -3.2469 H   0  0  0  0  0  0  0  0  0  0  0  0
    2.4839    2.8501   -3.4306 H   0  0  0  0  0  0  0  0  0  0  0  0
    1.0368    2.0268   -4.0443 H   0  0  0  0  0  0  0  0  0  0  0  0
  1  2  1  0  0  0  0
  2  3  1  0  0  0  0
  2  4  1  0  0  0  0
  2  5  1  0  0  0  0
  5  6  2  0  0  0  0
  5  7  1  0  0  0  0
  7  8  1  0  0  0  0
  7  9  1  0  0  0  0
  9 10  1  0  0  0  0
  9 11  1  0  0  0  0
  9 23  1  0  0  0  0
 11 12  1  0  0  0  0
 11 13  1  0  0  0  0
 11 14  1  0  0  0  0
 14 15  1  0  0  0  0
 14 21  2  0  0  0  0
 15 16  1  0  0  0  0
 15 17  2  0  0  0  0
 17 18  1  0  0  0  0
 17 19  1  0  0  0  0
 19 20  1  0  0  0  0
 19 21  1  0  0  0  0
 21 22  1  0  0  0  0
 23 24  2  0  0  0  0
 23 25  1  0  0  0  0
 25 26  1  0  0  0  0
 25 27  1  0  0  0  0
 27 28  1  0  0  0  0
 27 29  1  0  0  0  0
 27 30  1  0  0  0  0
M  CHG  1  15   1
M  END
$$$$

  -OEChem-01062216083D

 30 30  0     1  0  0  0  0  0999 V2000
   -3.9445   -1.7689    1.0469 H   0  0  0  0  0  0  0  0  0  0  0  0
   -3.5814   -1.0123    0.3456 C   0  0  0  0  0  0  0  0  0  0  0  0
   -4.2589   -0.1551    0.3722 H   0  0  0  0  0  0  0  0  0  0  0  0
   -3.5844   -1.4365   -0.6615 H   0  0  0  0  0  0  0  0  0  0  0  0
   -2.1796   -0.5734    0.7231 C   0  0  0  0  0  0  0  0  0  0  0  0
   -1.7014   -0.9534    1.7777 O   0  0  0  0  0  0  0  0  0  0  0  0
   -1.5374    0.3543   -0.0722 N   0  0  0  0  0  0  0  0  0  0  0  0
   -2.1070    0.7090   -0.8462 H   0  0  0  0  0  0  0  0  0  0  0  0
   -0.1451    0.8663   -0.0868 C   0  0  1  0  0  0  0  0  0  0  0  0
   -0.0355    1.6055    0.7126 H   0  0  0  0  0  0  0  0  0  0  0  0
    1.0090   -0.1803    0.0262 C   0  0  0  0  0  0  0  0  0  0  0  0
    0.9038   -0.8828   -0.8084 H   0  0  0  0  0  0  0  0  0  0  0  0
    1.9721    0.3252   -0.0907 H   0  0  0  0  0  0  0  0  0  0  0  0
    1.0969   -0.9729    1.3068 C   0  0  0  0  0  0  0  0  0  0  0  0
    1.5545   -0.5151    2.5447 N   0  3  0  0  0  0  0  0  0  0  0  0
    1.7452    0.4703    2.7388 H   0  0  0  0  0  0  0  0  0  0  0  0
    1.5259   -1.4849    3.4266 C   0  0  0  0  0  0  0  0  0  0  0  0
    1.7588   -1.4025    4.4896 H   0  0  0  0  0  0  0  0  0  0  0  0
    1.1168   -2.6371    2.7616 N   0  0  0  0  0  0  0  0  0  0  0  0
    0.9537   -3.5506    3.1944 H   0  0  0  0  0  0  0  0  0  0  0  0
    0.8687   -2.3225    1.4321 C   0  0  0  0  0  0  0  0  0  0  0  0
    0.5205   -2.9956    0.6499 H   0  0  0  0  0  0  0  0  0  0  0  0
    0.0254    1.6012   -1.4516 C   0  0  0  0  0  0  0  0  0  0  0  0
   -0.9720    2.0625   -1.9923 O   0  0  0  0  0  0  0  0  0  0  0  0
    1.2287    1.7029   -2.1346 N   0  0  0  0  0  0  0  0  0  0  0  0
    2.0720    1.3537   -1.6921 H   0  0  0  0  0  0  0  0  0  0  0  0
    1.3576    2.3839   -3.4222 C   0  0  0  0  0  0  0  0  0  0  0  0
    1.0617    3.4351   -3.3330 H   0  0  0  0  0  0  0  0  0  0  0  0
    2.3942    2.3470   -3.7720 H   0  0  0  0  0  0  0  0  0  0  0  0
    0.7236    1.9055   -4.1769 H   0  0  0  0  0  0  0  0  0  0  0  0
  1  2  1  0  0  0  0
  2  3  1  0  0  0  0
  2  4  1  0  0  0  0
  2  5  1  0  0  0  0
  5  6  2  0  0  0  0
  5  7  1  0  0  0  0
  7  8  1  0  0  0  0
  7  9  1  0  0  0  0
  9 10  1  0  0  0  0
  9 11  1  0  0  0  0
  9 23  1  0  0  0  0
 11 12  1  0  0  0  0
 11 13  1  0  0  0  0
 11 14  1  0  0  0  0
 14 15  1  0  0  0  0
 14 21  2  0  0  0  0
 15 16  1  0  0  0  0
 15 17  2  0  0  0  0
 17 18  1  0  0  0  0
 17 19  1  0  0  0  0
 19 20  1  0  0  0  0
 19 21  1  0  0  0  0
 21 22  1  0  0  0  0
 23 24  2  0  0  0  0
 23 25  1  0  0  0  0
 25 26  1  0  0  0  0
 25 27  1  0  0  0  0
 27 28  1  0  0  0  0
 27 29  1  0  0  0  0
 27 30  1  0  0  0  0
M  CHG  1  15   1
M  END
$$$$

  -OEChem-01062216083D

 30 30  0     1  0  0  0  0  0999 V2000
   -4.0088   -1.7293    1.0208 H   0  0  0  0  0  0  0  0  0  0  0  0
   -3.6296   -0.9737    0.3271 C   0  0  0  0  0  0  0  0  0  0  0  0
   -4.2636   -0.0860    0.3954 H   0  0  0  0  0  0  0  0  0  0  0  0
   -3.6835   -1.3717   -0.6891 H   0  0  0  0  0  0  0  0  0  0  0  0
   -2.1968   -0.6138    0.6715 C   0  0  0  0  0  0  0  0  0  0  0  0
   -1.7011   -1.0700    1.6861 O   0  0  0  0  0  0  0  0  0  0  0  0
   -1.5423    0.3209   -0.1067 N   0  0  0  0  0  0  0  0  0  0  0  0
   -2.1304    0.7452   -0.8291 H   0  0  0  0  0  0  0  0  0  0  0  0
   -0.1454    0.8207   -0.1151 C   0  0  1  0  0  0  0  0  0  0  0  0
   -0.0458    1.5597    0.6862 H   0  0  0  0  0  0  0  0  0  0  0  0
    1.0216   -0.2069    0.0208 C   0  0  0  0  0  0  0  0  0  0  0  0
    0.9302   -0.9263   -0.8007 H   0  0  0  0  0  0  0  0  0  0  0  0
    1.9756    0.3159   -0.1022 H   0  0  0  0  0  0  0  0  0  0  0  0
    1.1143   -0.9804    1.3127 C   0  0  0  0  0  0  0  0  0  0  0  0
    1.5595   -0.4930    2.5436 N   0  3  0  0  0  0  0  0  0  0  0  0
    1.7367    0.4985    2.7187 H   0  0  0  0  0  0  0  0  0  0  0  0
    1.5505   -1.4482    3.4418 C   0  0  0  0  0  0  0  0  0  0  0  0
    1.7836   -1.3434    4.5026 H   0  0  0  0  0  0  0  0  0  0  0  0
    1.1635   -2.6188    2.7964 N   0  0  0  0  0  0  0  0  0  0  0  0
    1.0172   -3.5279    3.2442 H   0  0  0  0  0  0  0  0  0  0  0  0
    0.9124   -2.3319    1.4614 C   0  0  0  0  0  0  0  0  0  0  0  0
    0.5763   -3.0250    0.6915 H   0  0  0  0  0  0  0  0  0  0  0  0
    0.0254    1.5735   -1.4662 C   0  0  0  0  0  0  0  0  0  0  0  0
   -0.9040    2.2709   -1.8487 O   0  0  0  0  0  0  0  0  0  0  0  0
    1.1224    1.4404   -2.3054 N   0  0  0  0  0  0  0  0  0  0  0  0
    1.8783    0.8239   -2.0268 H   0  0  0  0  0  0  0  0  0  0  0  0
    1.2308    2.1288   -3.5909 C   0  0  0  0  0  0  0  0  0  0  0  0
    1.1588    3.2136   -3.4545 H   0  0  0  0  0  0  0  0  0  0  0  0
    2.1926    1.9066   -4.0641 H   0  0  0  0  0  0  0  0  0  0  0  0
    0.4315    1.8081   -4.2680 H   0  0  0  0  0  0  0  0  0  0  0  0
  1  2  1  0  0  0  0
  2  3  1  0  0  0  0
  2  4  1  0  0  0  0
  2  5  1  0  0  0  0
  5  6  2  0  0  0  0
  5  7  1  0  0  0  0
  7  8  1  0  0  0  0
  7  9  1  0  0  0  0
  9 10  1  0  0  0  0
  9 11  1  0  0  0  0
  9 23  1  0  0  0  0
 11 12  1  0  0  0  0
 11 13  1  0  0  0  0
 11 14  1  0  0  0  0
 14 15  1  0  0  0  0
 14 21  2  0  0  0  0
 15 16  1  0  0  0  0
 15 17  2  0  0  0  0
 17 18  1  0  0  0  0
 17 19  1  0  0  0  0
 19 20  1  0  0  0  0
 19 21  1  0  0  0  0
 21 22  1  0  0  0  0
 23 24  2  0  0  0  0
 23 25  1  0  0  0  0
 25 26  1  0  0  0  0
 25 27  1  0  0  0  0
 27 28  1  0  0  0  0
 27 29  1  0  0  0  0
 27 30  1  0  0  0  0
M  CHG  1  15   1
M  END
$$$$

  -OEChem-01062216083D

 30 30  0     1  0  0  0  0  0999 V2000
   -4.0250   -1.7319    1.0081 H   0  0  0  0  0  0  0  0  0  0  0  0
   -3.6490   -0.9647    0.3253 C   0  0  0  0  0  0  0  0  0  0  0  0
   -4.2703   -0.0711    0.4266 H   0  0  0  0  0  0  0  0  0  0  0  0
   -3.7267   -1.3382   -0.6987 H   0  0  0  0  0  0  0  0  0  0  0  0
   -2.2051   -0.6319    0.6506 C   0  0  0  0  0  0  0  0  0  0  0  0
   -1.6973   -1.1208    1.6430 O   0  0  0  0  0  0  0  0  0  0  0  0
   -1.5496    0.3045   -0.1252 N   0  0  0  0  0  0  0  0  0  0  0  0
   -2.1491    0.7571   -0.8192 H   0  0  0  0  0  0  0  0  0  0  0  0
   -0.1488    0.7923   -0.1373 C   0  0  1  0  0  0  0  0  0  0  0  0
   -0.0489    1.5301    0.6654 H   0  0  0  0  0  0  0  0  0  0  0  0
    1.0249   -0.2255    0.0059 C   0  0  0  0  0  0  0  0  0  0  0  0
    0.9305   -0.9593   -0.8018 H   0  0  0  0  0  0  0  0  0  0  0  0
    1.9738    0.3033   -0.1363 H   0  0  0  0  0  0  0  0  0  0  0  0
    1.1235   -0.9848    1.3057 C   0  0  0  0  0  0  0  0  0  0  0  0
    1.5676   -0.4769    2.5287 N   0  3  0  0  0  0  0  0  0  0  0  0
    1.7468    0.5173    2.6867 H   0  0  0  0  0  0  0  0  0  0  0  0
    1.5601   -1.4177    3.4419 C   0  0  0  0  0  0  0  0  0  0  0  0
    1.7911   -1.2954    4.5015 H   0  0  0  0  0  0  0  0  0  0  0  0
    1.1793   -2.6000    2.8139 N   0  0  0  0  0  0  0  0  0  0  0  0
    1.0342   -3.5023    3.2759 H   0  0  0  0  0  0  0  0  0  0  0  0
    0.9298   -2.3351    1.4739 C   0  0  0  0  0  0  0  0  0  0  0  0
    0.5968   -3.0409    0.7143 H   0  0  0  0  0  0  0  0  0  0  0  0
    0.0246    1.5533   -1.4782 C   0  0  0  0  0  0  0  0  0  0  0  0
   -0.7731    2.4462   -1.7209 O   0  0  0  0  0  0  0  0  0  0  0  0
    0.9453    1.2139   -2.4585 N   0  0  0  0  0  0  0  0  0  0  0  0
    1.5558    0.4191   -2.2998 H   0  0  0  0  0  0  0  0  0  0  0  0
    1.0304    1.9070   -3.7430 C   0  0  0  0  0  0  0  0  0  0  0  0
    1.2450    2.9709   -3.5924 H   0  0  0  0  0  0  0  0  0  0  0  0
    1.8300    1.4795   -4.3561 H   0  0  0  0  0  0  0  0  0  0  0  0
    0.0880    1.8154   -4.2939 H   0  0  0  0  0  0  0  0  0  0  0  0
  1  2  1  0  0  0  0
  2  3  1  0  0  0  0
  2  4  1  0  0  0  0
  2  5  1  0  0  0  0
  5  6  2  0  0  0  0
  5  7  1  0  0  0  0
  7  8  1  0  0  0  0
  7  9  1  0  0  0  0
  9 10  1  0  0  0  0
  9 11  1  0  0  0  0
  9 23  1  0  0  0  0
 11 12  1  0  0  0  0
 11 13  1  0  0  0  0
 11 14  1  0  0  0  0
 14 15  1  0  0  0  0
 14 21  2  0  0  0  0
 15 16  1  0  0  0  0
 15 17  2  0  0  0  0
 17 18  1  0  0  0  0
 17 19  1  0  0  0  0
 19 20  1  0  0  0  0
 19 21  1  0  0  0  0
 21 22  1  0  0  0  0
 23 24  2  0  0  0  0
 23 25  1  0  0  0  0
 25 26  1  0  0  0  0
 25 27  1  0  0  0  0
 27 28  1  0  0  0  0
 27 29  1  0  0  0  0
 27 30  1  0  0  0  0
M  CHG  1  15   1
M  END
$$$$

  -OEChem-01062216083D

 30 30  0     1  0  0  0  0  0999 V2000
   -4.0588   -1.7194    1.0256 H   0  0  0  0  0  0  0  0  0  0  0  0
   -3.6837   -0.9553    0.3387 C   0  0  0  0  0  0  0  0  0  0  0  0
   -4.2853   -0.0509    0.4603 H   0  0  0  0  0  0  0  0  0  0  0  0
   -3.7928   -1.3206   -0.6856 H   0  0  0  0  0  0  0  0  0  0  0  0
   -2.2267   -0.6524    0.6334 C   0  0  0  0  0  0  0  0  0  0  0  0
   -1.7007   -1.1770    1.5971 O   0  0  0  0  0  0  0  0  0  0  0  0
   -1.5750    0.2867   -0.1431 N   0  0  0  0  0  0  0  0  0  0  0  0
   -2.1870    0.7588   -0.8110 H   0  0  0  0  0  0  0  0  0  0  0  0
   -0.1716    0.7668   -0.1612 C   0  0  1  0  0  0  0  0  0  0  0  0
   -0.0725    1.5026    0.6440 H   0  0  0  0  0  0  0  0  0  0  0  0
    1.0108   -0.2393   -0.0122 C   0  0  0  0  0  0  0  0  0  0  0  0
    0.9181   -0.9852   -0.8082 H   0  0  0  0  0  0  0  0  0  0  0  0
    1.9532    0.2966   -0.1730 H   0  0  0  0  0  0  0  0  0  0  0  0
    1.1233   -0.9868    1.2938 C   0  0  0  0  0  0  0  0  0  0  0  0
    1.5700   -0.4597    2.5076 N   0  3  0  0  0  0  0  0  0  0  0  0
    1.7438    0.5377    2.6511 H   0  0  0  0  0  0  0  0  0  0  0  0
    1.5889   -1.3914    3.4299 C   0  0  0  0  0  0  0  0  0  0  0  0
    1.8365   -1.2557    4.4841 H   0  0  0  0  0  0  0  0  0  0  0  0
    1.2142   -2.5846    2.8190 N   0  0  0  0  0  0  0  0  0  0  0  0
    1.0881   -3.4843    3.2913 H   0  0  0  0  0  0  0  0  0  0  0  0
    0.9473   -2.3374    1.4790 C   0  0  0  0  0  0  0  0  0  0  0  0
    0.6168   -3.0561    0.7306 H   0  0  0  0  0  0  0  0  0  0  0  0
    0.0152    1.5367   -1.4906 C   0  0  0  0  0  0  0  0  0  0  0  0
   -0.5595    2.6073   -1.6043 O   0  0  0  0  0  0  0  0  0  0  0  0
    0.7079    1.0348   -2.5815 N   0  0  0  0  0  0  0  0  0  0  0  0
    1.0719    0.0890   -2.5282 H   0  0  0  0  0  0  0  0  0  0  0  0
    0.7930    1.7392   -3.8597 C   0  0  0  0  0  0  0  0  0  0  0  0
    1.2515    2.7253   -3.7262 H   0  0  0  0  0  0  0  0  0  0  0  0
    1.4031    1.1712   -4.5691 H   0  0  0  0  0  0  0  0  0  0  0  0
   -0.2042    1.8738   -4.2928 H   0  0  0  0  0  0  0  0  0  0  0  0
  1  2  1  0  0  0  0
  2  3  1  0  0  0  0
  2  4  1  0  0  0  0
  2  5  1  0  0  0  0
  5  6  2  0  0  0  0
  5  7  1  0  0  0  0
  7  8  1  0  0  0  0
  7  9  1  0  0  0  0
  9 10  1  0  0  0  0
  9 11  1  0  0  0  0
  9 23  1  0  0  0  0
 11 12  1  0  0  0  0
 11 13  1  0  0  0  0
 11 14  1  0  0  0  0
 14 15  1  0  0  0  0
 14 21  2  0  0  0  0
 15 16  1  0  0  0  0
 15 17  2  0  0  0  0
 17 18  1  0  0  0  0
 17 19  1  0  0  0  0
 19 20  1  0  0  0  0
 19 21  1  0  0  0  0
 21 22  1  0  0  0  0
 23 24  2  0  0  0  0
 23 25  1  0  0  0  0
 25 26  1  0  0  0  0
 25 27  1  0  0  0  0
 27 28  1  0  0  0  0
 27 29  1  0  0  0  0
 27 30  1  0  0  0  0
M  CHG  1  15   1
M  END
$$$$

  -OEChem-01062216083D

 30 30  0     1  0  0  0  0  0999 V2000
   -4.0764   -1.7254    1.0731 H   0  0  0  0  0  0  0  0  0  0  0  0
   -3.7132   -0.9644    0.3762 C   0  0  0  0  0  0  0  0  0  0  0  0
   -4.3135   -0.0598    0.5026 H   0  0  0  0  0  0  0  0  0  0  0  0
   -3.8386   -1.3357   -0.6439 H   0  0  0  0  0  0  0  0  0  0  0  0
   -2.2515   -0.6593    0.6451 C   0  0  0  0  0  0  0  0  0  0  0  0
   -1.7061   -1.1856    1.5966 O   0  0  0  0  0  0  0  0  0  0  0  0
   -1.6131    0.2782   -0.1447 N   0  0  0  0  0  0  0  0  0  0  0  0
   -2.2364    0.7449   -0.8045 H   0  0  0  0  0  0  0  0  0  0  0  0
   -0.2082    0.7550   -0.1760 C   0  0  1  0  0  0  0  0  0  0  0  0
   -0.1061    1.4872    0.6324 H   0  0  0  0  0  0  0  0  0  0  0  0
    0.9839   -0.2408   -0.0385 C   0  0  0  0  0  0  0  0  0  0  0  0
    0.8953   -0.9876   -0.8335 H   0  0  0  0  0  0  0  0  0  0  0  0
    1.9192    0.3044   -0.2102 H   0  0  0  0  0  0  0  0  0  0  0  0
    1.1156   -0.9846    1.2674 C   0  0  0  0  0  0  0  0  0  0  0  0
    1.5710   -0.4463    2.4727 N   0  3  0  0  0  0  0  0  0  0  0  0
    1.7425    0.5531    2.6061 H   0  0  0  0  0  0  0  0  0  0  0  0
    1.6108   -1.3723    3.3997 C   0  0  0  0  0  0  0  0  0  0  0  0
    1.8717   -1.2283    4.4494 H   0  0  0  0  0  0  0  0  0  0  0  0
    1.2396   -2.5724    2.8002 N   0  0  0  0  0  0  0  0  0  0  0  0
    1.1333   -3.4715    3.2782 H   0  0  0  0  0  0  0  0  0  0  0  0
    0.9535   -2.3355    1.4621 C   0  0  0  0  0  0  0  0  0  0  0  0
    0.6225   -3.0614    0.7210 H   0  0  0  0  0  0  0  0  0  0  0  0
   -0.0093    1.5237   -1.5007 C   0  0  0  0  0  0  0  0  0  0  0  0
   -0.2667    2.7156   -1.5123 O   0  0  0  0  0  0  0  0  0  0  0  0
    0.4095    0.9122   -2.6712 N   0  0  0  0  0  0  0  0  0  0  0  0
    0.4872   -0.1001   -2.6806 H   0  0  0  0  0  0  0  0  0  0  0  0
    0.5317    1.6293   -3.9389 C   0  0  0  0  0  0  0  0  0  0  0  0
    1.2072    2.4859   -3.8345 H   0  0  0  0  0  0  0  0  0  0  0  0
    0.9348    0.9695   -4.7138 H   0  0  0  0  0  0  0  0  0  0  0  0
   -0.4465    1.9950   -4.2701 H   0  0  0  0  0  0  0  0  0  0  0  0
  1  2  1  0  0  0  0
  2  3  1  0  0  0  0
  2  4  1  0  0  0  0
  2  5  1  0  0  0  0
  5  6  2  0  0  0  0
  5  7  1  0  0  0  0
  7  8  1  0  0  0  0
  7  9  1  0  0  0  0
  9 10  1  0  0  0  0
  9 11  1  0  0  0  0
  9 23  1  0  0  0  0
 11 12  1  0  0  0  0
 11 13  1  0  0  0  0
 11 14  1  0  0  0  0
 14 15  1  0  0  0  0
 14 21  2  0  0  0  0
 15 16  1  0  0  0  0
 15 17  2  0  0  0  0
 17 18  1  0  0  0  0
 17 19  1  0  0  0  0
 19 20  1  0  0  0  0
 19 21  1  0  0  0  0
 21 22  1  0  0  0  0
 23 24  2  0  0  0  0
 23 25  1  0  0  0  0
 25 26  1  0  0  0  0
 25 27  1  0  0  0  0
 27 28  1  0  0  0  0
 27 29  1  0  0  0  0
 27 30  1  0  0  0  0
M  CHG  1  15   1
M  END
$$$$

  -OEChem-01062216083D

 30 30  0     1  0  0  0  0  0999 V2000
   -4.0804   -1.7433    1.1400 H   0  0  0  0  0  0  0  0  0  0  0  0
   -3.7353   -0.9893    0.4267 C   0  0  0  0  0  0  0  0  0  0  0  0
   -4.3451   -0.0903    0.5467 H   0  0  0  0  0  0  0  0  0  0  0  0
   -3.8683   -1.3785   -0.5856 H   0  0  0  0  0  0  0  0  0  0  0  0
   -2.2746   -0.6624    0.6733 C   0  0  0  0  0  0  0  0  0  0  0  0
   -1.7117   -1.1686    1.6253 O   0  0  0  0  0  0  0  0  0  0  0  0
   -1.6579    0.2766   -0.1325 N   0  0  0  0  0  0  0  0  0  0  0  0
   -2.2923    0.7239   -0.7941 H   0  0  0  0  0  0  0  0  0  0  0  0
   -0.2562    0.7638   -0.1765 C   0  0  1  0  0  0  0  0  0  0  0  0
   -0.1520    1.4937    0.6339 H   0  0  0  0  0  0  0  0  0  0  0  0
    0.9469   -0.2209   -0.0634 C   0  0  0  0  0  0  0  0  0  0  0  0
    0.8617   -0.9582   -0.8679 H   0  0  0  0  0  0  0  0  0  0  0  0
    1.8740    0.3376   -0.2381 H   0  0  0  0  0  0  0  0  0  0  0  0
    1.0999   -0.9742    1.2341 C   0  0  0  0  0  0  0  0  0  0  0  0
    1.5643   -0.4361    2.4356 N   0  3  0  0  0  0  0  0  0  0  0  0
    1.7314    0.5641    2.5686 H   0  0  0  0  0  0  0  0  0  0  0  0
    1.6251   -1.3652    3.3582 C   0  0  0  0  0  0  0  0  0  0  0  0
    1.8992   -1.2222    4.4048 H   0  0  0  0  0  0  0  0  0  0  0  0
    1.2581   -2.5666    2.7581 N   0  0  0  0  0  0  0  0  0  0  0  0
    1.1721   -3.4698    3.2327 H   0  0  0  0  0  0  0  0  0  0  0  0
    0.9525   -2.3273    1.4245 C   0  0  0  0  0  0  0  0  0  0  0  0
    0.6223   -3.0541    0.6840 H   0  0  0  0  0  0  0  0  0  0  0  0
   -0.0532    1.5275   -1.5005 C   0  0  0  0  0  0  0  0  0  0  0  0
    0.0471    2.7419   -1.4594 O   0  0  0  0  0  0  0  0  0  0  0  0
    0.0709    0.8727   -2.7138 N   0  0  0  0  0  0  0  0  0  0  0  0
   -0.1063   -0.1273   -2.7367 H   0  0  0  0  0  0  0  0  0  0  0  0
    0.2607    1.5786   -3.9792 C   0  0  0  0  0  0  0  0  0  0  0  0
    1.1667    2.1938   -3.9445 H   0  0  0  0  0  0  0  0  0  0  0  0
    0.3625    0.8655   -4.8035 H   0  0  0  0  0  0  0  0  0  0  0  0
   -0.5951    2.2297   -4.1894 H   0  0  0  0  0  0  0  0  0  0  0  0
  1  2  1  0  0  0  0
  2  3  1  0  0  0  0
  2  4  1  0  0  0  0
  2  5  1  0  0  0  0
  5  6  2  0  0  0  0
  5  7  1  0  0  0  0
  7  8  1  0  0  0  0
  7  9  1  0  0  0  0
  9 10  1  0  0  0  0
  9 11  1  0  0  0  0
  9 23  1  0  0  0  0
 11 12  1  0  0  0  0
 11 13  1  0  0  0  0
 11 14  1  0  0  0  0
 14 15  1  0  0  0  0
 14 21  2  0  0  0  0
 15 16  1  0  0  0  0
 15 17  2  0  0  0  0
 17 18  1  0  0  0  0
 17 19  1  0  0  0  0
 19 20  1  0  0  0  0
 19 21  1  0  0  0  0
 21 22  1  0  0  0  0
 23 24  2  0  0  0  0
 23 25  1  0  0  0  0
 25 26  1  0  0  0  0
 25 27  1  0  0  0  0
 27 28  1  0  0  0  0
 27 29  1  0  0  0  0
 27 30  1  0  0  0  0
M  CHG  1  15   1
M  END
$$$$

  -OEChem-01062216083D

 30 30  0     1  0  0  0  0  0999 V2000
   -4.0711   -1.7654    1.1987 H   0  0  0  0  0  0  0  0  0  0  0  0
   -3.7452   -1.0140    0.4736 C   0  0  0  0  0  0  0  0  0  0  0  0
   -4.3759   -0.1279    0.5818 H   0  0  0  0  0  0  0  0  0  0  0  0
   -3.8715   -1.4215   -0.5323 H   0  0  0  0  0  0  0  0  0  0  0  0
   -2.2922   -0.6493    0.7128 C   0  0  0  0  0  0  0  0  0  0  0  0
   -1.7173   -1.1230    1.6745 O   0  0  0  0  0  0  0  0  0  0  0  0
   -1.6965    0.2903   -0.1084 N   0  0  0  0  0  0  0  0  0  0  0  0
   -2.3402    0.7164   -0.7745 H   0  0  0  0  0  0  0  0  0  0  0  0
   -0.2999    0.7936   -0.1608 C   0  0  1  0  0  0  0  0  0  0  0  0
   -0.1934    1.5231    0.6495 H   0  0  0  0  0  0  0  0  0  0  0  0
    0.9101   -0.1842   -0.0752 C   0  0  0  0  0  0  0  0  0  0  0  0
    0.8222   -0.9061   -0.8936 H   0  0  0  0  0  0  0  0  0  0  0  0
    1.8320    0.3837   -0.2495 H   0  0  0  0  0  0  0  0  0  0  0  0
    1.0836   -0.9566    1.2078 C   0  0  0  0  0  0  0  0  0  0  0  0
    1.5584   -0.4356    2.4128 N   0  3  0  0  0  0  0  0  0  0  0  0
    1.7254    0.5630    2.5590 H   0  0  0  0  0  0  0  0  0  0  0  0
    1.6346   -1.3795    3.3191 C   0  0  0  0  0  0  0  0  0  0  0  0
    1.9222   -1.2533    4.3642 H   0  0  0  0  0  0  0  0  0  0  0  0
    1.2644   -2.5722    2.7037 N   0  0  0  0  0  0  0  0  0  0  0  0
    1.1898   -3.4837    3.1637 H   0  0  0  0  0  0  0  0  0  0  0  0
    0.9421   -2.3127    1.3777 C   0  0  0  0  0  0  0  0  0  0  0  0
    0.6072   -3.0283    0.6283 H   0  0  0  0  0  0  0  0  0  0  0  0
   -0.0951    1.5489   -1.4876 C   0  0  0  0  0  0  0  0  0  0  0  0
    0.3285    2.6917   -1.4484 O   0  0  0  0  0  0  0  0  0  0  0  0
   -0.2651    0.9201   -2.7088 N   0  0  0  0  0  0  0  0  0  0  0  0
   -0.6280   -0.0291   -2.7119 H   0  0  0  0  0  0  0  0  0  0  0  0
   -0.0276    1.5875   -3.9868 C   0  0  0  0  0  0  0  0  0  0  0  0
    1.0139    1.9193   -4.0595 H   0  0  0  0  0  0  0  0  0  0  0  0
   -0.2293    0.9047   -4.8182 H   0  0  0  0  0  0  0  0  0  0  0  0
   -0.6805    2.4610   -4.0925 H   0  0  0  0  0  0  0  0  0  0  0  0
  1  2  1  0  0  0  0
  2  3  1  0  0  0  0
  2  4  1  0  0  0  0
  2  5  1  0  0  0  0
  5  6  2  0  0  0  0
  5  7  1  0  0  0  0
  7  8  1  0  0  0  0
  7  9  1  0  0  0  0
  9 10  1  0  0  0  0
  9 11  1  0  0  0  0
  9 23  1  0  0  0  0
 11 12  1  0  0  0  0
 11 13  1  0  0  0  0
 11 14  1  0  0  0  0
 14 15  1  0  0  0  0
 14 21  2  0  0  0  0
 15 16  1  0  0  0  0
 15 17  2  0  0  0  0
 17 18  1  0  0  0  0
 17 19  1  0  0  0  0
 19 20  1  0  0  0  0
 19 21  1  0  0  0  0
 21 22  1  0  0  0  0
 23 24  2  0  0  0  0
 23 25  1  0  0  0  0
 25 26  1  0  0  0  0
 25 27  1  0  0  0  0
 27 28  1  0  0  0  0
 27 29  1  0  0  0  0
 27 30  1  0  0  0  0
M  CHG  1  15   1
M  END
$$$$

  -OEChem-01062216083D

 30 30  0     1  0  0  0  0  0999 V2000
   -4.0720   -1.7742    1.2533 H   0  0  0  0  0  0  0  0  0  0  0  0
   -3.7567   -1.0266    0.5195 C   0  0  0  0  0  0  0  0  0  0  0  0
   -4.3942   -0.1451    0.6240 H   0  0  0  0  0  0  0  0  0  0  0  0
   -3.8851   -1.4436   -0.4821 H   0  0  0  0  0  0  0  0  0  0  0  0
   -2.3056   -0.6468    0.7464 C   0  0  0  0  0  0  0  0  0  0  0  0
   -1.7216   -1.1041    1.7105 O   0  0  0  0  0  0  0  0  0  0  0  0
   -1.7263    0.2952   -0.0841 N   0  0  0  0  0  0  0  0  0  0  0  0
   -2.3810    0.7172   -0.7416 H   0  0  0  0  0  0  0  0  0  0  0  0
   -0.3362    0.8184   -0.1422 C   0  0  1  0  0  0  0  0  0  0  0  0
   -0.2288    1.5471    0.6686 H   0  0  0  0  0  0  0  0  0  0  0  0
    0.8782   -0.1564   -0.0783 C   0  0  0  0  0  0  0  0  0  0  0  0
    0.7852   -0.8655   -0.9076 H   0  0  0  0  0  0  0  0  0  0  0  0
    1.7978    0.4154   -0.2525 H   0  0  0  0  0  0  0  0  0  0  0  0
    1.0680   -0.9458    1.1913 C   0  0  0  0  0  0  0  0  0  0  0  0
    1.5526   -0.4381    2.3977 N   0  3  0  0  0  0  0  0  0  0  0  0
    1.7184    0.5590    2.5540 H   0  0  0  0  0  0  0  0  0  0  0  0
    1.6439   -1.3935    3.2903 C   0  0  0  0  0  0  0  0  0  0  0  0
    1.9434   -1.2792    4.3332 H   0  0  0  0  0  0  0  0  0  0  0  0
    1.2723   -2.5799    2.6635 N   0  0  0  0  0  0  0  0  0  0  0  0
    1.2089   -3.4980    3.1120 H   0  0  0  0  0  0  0  0  0  0  0  0
    0.9341   -2.3045    1.3448 C   0  0  0  0  0  0  0  0  0  0  0  0
    0.5967   -3.0120    0.5891 H   0  0  0  0  0  0  0  0  0  0  0  0
   -0.1277    1.5699   -1.4707 C   0  0  0  0  0  0  0  0  0  0  0  0
    0.5254    2.6001   -1.4596 O   0  0  0  0  0  0  0  0  0  0  0  0
   -0.5676    1.0448   -2.6734 N   0  0  0  0  0  0  0  0  0  0  0  0
   -1.0383    0.1444   -2.6587 H   0  0  0  0  0  0  0  0  0  0  0  0
   -0.3106    1.6855   -3.9613 C   0  0  0  0  0  0  0  0  0  0  0  0
    0.7662    1.7435   -4.1546 H   0  0  0  0  0  0  0  0  0  0  0  0
   -0.7760    1.1157   -4.7718 H   0  0  0  0  0  0  0  0  0  0  0  0
   -0.7226    2.7007   -3.9750 H   0  0  0  0  0  0  0  0  0  0  0  0
  1  2  1  0  0  0  0
  2  3  1  0  0  0  0
  2  4  1  0  0  0  0
  2  5  1  0  0  0  0
  5  6  2  0  0  0  0
  5  7  1  0  0  0  0
  7  8  1  0  0  0  0
  7  9  1  0  0  0  0
  9 10  1  0  0  0  0
  9 11  1  0  0  0  0
  9 23  1  0  0  0  0
 11 12  1  0  0  0  0
 11 13  1  0  0  0  0
 11 14  1  0  0  0  0
 14 15  1  0  0  0  0
 14 21  2  0  0  0  0
 15 16  1  0  0  0  0
 15 17  2  0  0  0  0
 17 18  1  0  0  0  0
 17 19  1  0  0  0  0
 19 20  1  0  0  0  0
 19 21  1  0  0  0  0
 21 22  1  0  0  0  0
 23 24  2  0  0  0  0
 23 25  1  0  0  0  0
 25 26  1  0  0  0  0
 25 27  1  0  0  0  0
 27 28  1  0  0  0  0
 27 29  1  0  0  0  0
 27 30  1  0  0  0  0
M  CHG  1  15   1
M  END
$$$$

  -OEChem-01062216083D

 30 30  0     1  0  0  0  0  0999 V2000
   -4.0551   -1.7895    1.2807 H   0  0  0  0  0  0  0  0  0  0  0  0
   -3.7499   -1.0376    0.5468 C   0  0  0  0  0  0  0  0  0  0  0  0
   -4.3989   -0.1643    0.6522 H   0  0  0  0  0  0  0  0  0  0  0  0
   -3.8735   -1.4563   -0.4548 H   0  0  0  0  0  0  0  0  0  0  0  0
   -2.3031   -0.6408    0.7727 C   0  0  0  0  0  0  0  0  0  0  0  0
   -1.7180   -1.0814    1.7439 O   0  0  0  0  0  0  0  0  0  0  0  0
   -1.7325    0.3011   -0.0643 N   0  0  0  0  0  0  0  0  0  0  0  0
   -2.3968    0.7300   -0.7071 H   0  0  0  0  0  0  0  0  0  0  0  0
   -0.3463    0.8383   -0.1250 C   0  0  1  0  0  0  0  0  0  0  0  0
   -0.2368    1.5685    0.6843 H   0  0  0  0  0  0  0  0  0  0  0  0
    0.8670   -0.1411   -0.0718 C   0  0  0  0  0  0  0  0  0  0  0  0
    0.7701   -0.8421   -0.9078 H   0  0  0  0  0  0  0  0  0  0  0  0
    1.7898    0.4271   -0.2416 H   0  0  0  0  0  0  0  0  0  0  0  0
    1.0602   -0.9407    1.1905 C   0  0  0  0  0  0  0  0  0  0  0  0
    1.5505   -0.4467    2.4000 N   0  3  0  0  0  0  0  0  0  0  0  0
    1.7196    0.5484    2.5655 H   0  0  0  0  0  0  0  0  0  0  0  0
    1.6411   -1.4113    3.2828 C   0  0  0  0  0  0  0  0  0  0  0  0
    1.9437   -1.3084    4.3261 H   0  0  0  0  0  0  0  0  0  0  0  0
    1.2647   -2.5903    2.6450 N   0  0  0  0  0  0  0  0  0  0  0  0
    1.2016   -3.5129    3.0840 H   0  0  0  0  0  0  0  0  0  0  0  0
    0.9230   -2.3004    1.3301 C   0  0  0  0  0  0  0  0  0  0  0  0
    0.5813   -2.9987    0.5677 H   0  0  0  0  0  0  0  0  0  0  0  0
   -0.1377    1.5848   -1.4588 C   0  0  0  0  0  0  0  0  0  0  0  0
    0.6793    2.4907   -1.4977 O   0  0  0  0  0  0  0  0  0  0  0  0
   -0.8167    1.2204   -2.6091 N   0  0  0  0  0  0  0  0  0  0  0  0
   -1.3793    0.3752   -2.5801 H   0  0  0  0  0  0  0  0  0  0  0  0
   -0.5968    1.8706   -3.8990 C   0  0  0  0  0  0  0  0  0  0  0  0
    0.4327    1.7139   -4.2389 H   0  0  0  0  0  0  0  0  0  0  0  0
   -1.2762    1.4617   -4.6536 H   0  0  0  0  0  0  0  0  0  0  0  0
   -0.7792    2.9483   -3.8229 H   0  0  0  0  0  0  0  0  0  0  0  0
  1  2  1  0  0  0  0
  2  3  1  0  0  0  0
  2  4  1  0  0  0  0
  2  5  1  0  0  0  0
  5  6  2  0  0  0  0
  5  7  1  0  0  0  0
  7  8  1  0  0  0  0
  7  9  1  0  0  0  0
  9 10  1  0  0  0  0
  9 11  1  0  0  0  0
  9 23  1  0  0  0  0
 11 12  1  0  0  0  0
 11 13  1  0  0  0  0
 11 14  1  0  0  0  0
 14 15  1  0  0  0  0
 14 21  2  0  0  0  0
 15 16  1  0  0  0  0
 15 17  2  0  0  0  0
 17 18  1  0  0  0  0
 17 19  1  0  0  0  0
 19 20  1  0  0  0  0
 19 21  1  0  0  0  0
 21 22  1  0  0  0  0
 23 24  2  0  0  0  0
 23 25  1  0  0  0  0
 25 26  1  0  0  0  0
 25 27  1  0  0  0  0
 27 28  1  0  0  0  0
 27 29  1  0  0  0  0
 27 30  1  0  0  0  0
M  CHG  1  15   1
M  END
$$$$

  -OEChem-01062216083D

 30 30  0     1  0  0  0  0  0999 V2000
   -4.0577   -1.7923    1.3151 H   0  0  0  0  0  0  0  0  0  0  0  0
   -3.7537   -1.0462    0.5750 C   0  0  0  0  0  0  0  0  0  0  0  0
   -4.3985   -0.1697    0.6786 H   0  0  0  0  0  0  0  0  0  0  0  0
   -3.8851   -1.4710   -0.4232 H   0  0  0  0  0  0  0  0  0  0  0  0
   -2.3042   -0.6530    0.7900 C   0  0  0  0  0  0  0  0  0  0  0  0
   -1.7160   -1.0900    1.7607 O   0  0  0  0  0  0  0  0  0  0  0  0
   -1.7414    0.2916   -0.0496 N   0  0  0  0  0  0  0  0  0  0  0  0
   -2.4192    0.7376   -0.6649 H   0  0  0  0  0  0  0  0  0  0  0  0
   -0.3602    0.8438   -0.1147 C   0  0  1  0  0  0  0  0  0  0  0  0
   -0.2519    1.5737    0.6945 H   0  0  0  0  0  0  0  0  0  0  0  0
    0.8529   -0.1404   -0.0632 C   0  0  0  0  0  0  0  0  0  0  0  0
    0.7500   -0.8389   -0.9007 H   0  0  0  0  0  0  0  0  0  0  0  0
    1.7789    0.4214   -0.2340 H   0  0  0  0  0  0  0  0  0  0  0  0
    1.0547   -0.9439    1.1951 C   0  0  0  0  0  0  0  0  0  0  0  0
    1.5534   -0.4528    2.4024 N   0  3  0  0  0  0  0  0  0  0  0  0
    1.7272    0.5414    2.5677 H   0  0  0  0  0  0  0  0  0  0  0  0
    1.6553   -1.4205    3.2806 C   0  0  0  0  0  0  0  0  0  0  0  0
    1.9690   -1.3210    4.3209 H   0  0  0  0  0  0  0  0  0  0  0  0
    1.2752   -2.5980    2.6420 N   0  0  0  0  0  0  0  0  0  0  0  0
    1.2183   -3.5227    3.0775 H   0  0  0  0  0  0  0  0  0  0  0  0
    0.9231   -2.3047    1.3308 C   0  0  0  0  0  0  0  0  0  0  0  0
    0.5801   -3.0017    0.5678 H   0  0  0  0  0  0  0  0  0  0  0  0
   -0.1488    1.5924   -1.4516 C   0  0  0  0  0  0  0  0  0  0  0  0
    0.7882    2.3706   -1.5422 O   0  0  0  0  0  0  0  0  0  0  0  0
   -1.0129    1.4431   -2.5240 N   0  0  0  0  0  0  0  0  0  0  0  0
   -1.6706    0.6706   -2.4938 H   0  0  0  0  0  0  0  0  0  0  0  0
   -0.8177    2.1353   -3.7965 C   0  0  0  0  0  0  0  0  0  0  0  0
    0.1255    1.8288   -4.2616 H   0  0  0  0  0  0  0  0  0  0  0  0
   -1.6351    1.9033   -4.4866 H   0  0  0  0  0  0  0  0  0  0  0  0
   -0.7962    3.2203   -3.6451 H   0  0  0  0  0  0  0  0  0  0  0  0
  1  2  1  0  0  0  0
  2  3  1  0  0  0  0
  2  4  1  0  0  0  0
  2  5  1  0  0  0  0
  5  6  2  0  0  0  0
  5  7  1  0  0  0  0
  7  8  1  0  0  0  0
  7  9  1  0  0  0  0
  9 10  1  0  0  0  0
  9 11  1  0  0  0  0
  9 23  1  0  0  0  0
 11 12  1  0  0  0  0
 11 13  1  0  0  0  0
 11 14  1  0  0  0  0
 14 15  1  0  0  0  0
 14 21  2  0  0  0  0
 15 16  1  0  0  0  0
 15 17  2  0  0  0  0
 17 18  1  0  0  0  0
 17 19  1  0  0  0  0
 19 20  1  0  0  0  0
 19 21  1  0  0  0  0
 21 22  1  0  0  0  0
 23 24  2  0  0  0  0
 23 25  1  0  0  0  0
 25 26  1  0  0  0  0
 25 27  1  0  0  0  0
 27 28  1  0  0  0  0
 27 29  1  0  0  0  0
 27 30  1  0  0  0  0
M  CHG  1  15   1
M  END
$$$$

  -OEChem-01062216083D

 30 30  0     1  0  0  0  0  0999 V2000
   -3.7995   -1.9469    1.3944 H   0  0  0  0  0  0  0  0  0  0  0  0
   -3.5575   -1.2299    0.6044 C   0  0  0  0  0  0  0  0  0  0  0  0
   -4.3589   -0.4886    0.5491 H   0  0  0  0  0  0  0  0  0  0  0  0
   -3.4983   -1.7643   -0.3467 H   0  0  0  0  0  0  0  0  0  0  0  0
   -2.2378   -0.5452    0.9051 C   0  0  0  0  0  0  0  0  0  0  0  0
   -1.7152   -0.7120    1.9929 O   0  0  0  0  0  0  0  0  0  0  0  0
   -1.7358    0.3792    0.0079 N   0  0  0  0  0  0  0  0  0  0  0  0
   -2.3059    0.4539   -0.8286 H   0  0  0  0  0  0  0  0  0  0  0  0
   -0.3439    0.8930   -0.1179 C   0  0  1  0  0  0  0  0  0  0  0  0
   -0.1759    1.6222    0.6817 H   0  0  0  0  0  0  0  0  0  0  0  0
    0.8046   -0.1738   -0.0867 C   0  0  0  0  0  0  0  0  0  0  0  0
    0.6328   -0.8740   -0.9110 H   0  0  0  0  0  0  0  0  0  0  0  0
    1.7666    0.3128   -0.2841 H   0  0  0  0  0  0  0  0  0  0  0  0
    0.9857   -0.9631    1.1835 C   0  0  0  0  0  0  0  0  0  0  0  0
    1.5515   -0.4837    2.3655 N   0  3  0  0  0  0  0  0  0  0  0  0
    1.7912    0.5005    2.5064 H   0  0  0  0  0  0  0  0  0  0  0  0
    1.6040   -1.4360    3.2642 C   0  0  0  0  0  0  0  0  0  0  0  0
    1.9481   -1.3353    4.2947 H   0  0  0  0  0  0  0  0  0  0  0  0
    1.1245   -2.5966    2.6629 N   0  0  0  0  0  0  0  0  0  0  0  0
    1.0224   -3.5067    3.1205 H   0  0  0  0  0  0  0  0  0  0  0  0
    0.7570   -2.3067    1.3547 C   0  0  0  0  0  0  0  0  0  0  0  0
    0.3515   -2.9948    0.6149 H   0  0  0  0  0  0  0  0  0  0  0  0
   -0.1458    1.6314   -1.4718 C   0  0  0  0  0  0  0  0  0  0  0  0
    0.9572    2.0782   -1.7515 O   0  0  0  0  0  0  0  0  0  0  0  0
   -1.1624    1.7684   -2.4056 N   0  0  0  0  0  0  0  0  0  0  0  0
   -2.1142    1.6307   -2.0869 H   0  0  0  0  0  0  0  0  0  0  0  0
   -0.9736    2.4863   -3.6657 C   0  0  0  0  0  0  0  0  0  0  0  0
   -0.1595    2.0388   -4.2466 H   0  0  0  0  0  0  0  0  0  0  0  0
   -1.8858    2.4442   -4.2696 H   0  0  0  0  0  0  0  0  0  0  0  0
   -0.7309    3.5382   -3.4782 H   0  0  0  0  0  0  0  0  0  0  0  0
  1  2  1  0  0  0  0
  2  3  1  0  0  0  0
  2  4  1  0  0  0  0
  2  5  1  0  0  0  0
  5  6  2  0  0  0  0
  5  7  1  0  0  0  0
  7  8  1  0  0  0  0
  7  9  1  0  0  0  0
  9 10  1  0  0  0  0
  9 11  1  0  0  0  0
  9 23  1  0  0  0  0
 11 12  1  0  0  0  0
 11 13  1  0  0  0  0
 11 14  1  0  0  0  0
 14 15  1  0  0  0  0
 14 21  2  0  0  0  0
 15 16  1  0  0  0  0
 15 17  2  0  0  0  0
 17 18  1  0  0  0  0
 17 19  1  0  0  0  0
 19 20  1  0  0  0  0
 19 21  1  0  0  0  0
 21 22  1  0  0  0  0
 23 24  2  0  0  0  0
 23 25  1  0  0  0  0
 25 26  1  0  0  0  0
 25 27  1  0  0  0  0
 27 28  1  0  0  0  0
 27 29  1  0  0  0  0
 27 30  1  0  0  0  0
M  CHG  1  15   1
M  END
$$$$

  -OEChem-01062216083D

 30 30  0     1  0  0  0  0  0999 V2000
   -3.7837   -1.9209    1.3470 H   0  0  0  0  0  0  0  0  0  0  0  0
   -3.5228   -1.2103    0.5575 C   0  0  0  0  0  0  0  0  0  0  0  0
   -4.3256   -0.4736    0.4720 H   0  0  0  0  0  0  0  0  0  0  0  0
   -3.4332   -1.7527   -0.3866 H   0  0  0  0  0  0  0  0  0  0  0  0
   -2.2159   -0.5160    0.8890 C   0  0  0  0  0  0  0  0  0  0  0  0
   -1.7149   -0.6774    1.9881 O   0  0  0  0  0  0  0  0  0  0  0  0
   -1.7000    0.4126    0.0051 N   0  0  0  0  0  0  0  0  0  0  0  0
   -2.2363    0.4607   -0.8586 H   0  0  0  0  0  0  0  0  0  0  0  0
   -0.3008    0.9069   -0.1066 C   0  0  1  0  0  0  0  0  0  0  0  0
   -0.1269    1.6323    0.6945 H   0  0  0  0  0  0  0  0  0  0  0  0
    0.8360   -0.1724   -0.0708 C   0  0  0  0  0  0  0  0  0  0  0  0
    0.6681   -0.8659   -0.9017 H   0  0  0  0  0  0  0  0  0  0  0  0
    1.8039    0.3084   -0.2530 H   0  0  0  0  0  0  0  0  0  0  0  0
    0.9957   -0.9687    1.1984 C   0  0  0  0  0  0  0  0  0  0  0  0
    1.5545   -0.5055    2.3904 N   0  3  0  0  0  0  0  0  0  0  0  0
    1.8096    0.4733    2.5407 H   0  0  0  0  0  0  0  0  0  0  0  0
    1.5818   -1.4649    3.2829 C   0  0  0  0  0  0  0  0  0  0  0  0
    1.9152   -1.3772    4.3180 H   0  0  0  0  0  0  0  0  0  0  0  0
    1.0913   -2.6141    2.6685 N   0  0  0  0  0  0  0  0  0  0  0  0
    0.9676   -3.5251    3.1188 H   0  0  0  0  0  0  0  0  0  0  0  0
    0.7441   -2.3098    1.3582 C   0  0  0  0  0  0  0  0  0  0  0  0
    0.3363   -2.9866    0.6090 H   0  0  0  0  0  0  0  0  0  0  0  0
   -0.1353    1.6510   -1.4632 C   0  0  0  0  0  0  0  0  0  0  0  0
    0.9753    1.8523   -1.9328 O   0  0  0  0  0  0  0  0  0  0  0  0
   -1.2412    2.0436   -2.2022 N   0  0  0  0  0  0  0  0  0  0  0  0
   -2.1172    2.1327   -1.6955 H   0  0  0  0  0  0  0  0  0  0  0  0
   -1.1210    2.7624   -3.4700 C   0  0  0  0  0  0  0  0  0  0  0  0
   -0.5030    2.1982   -4.1773 H   0  0  0  0  0  0  0  0  0  0  0  0
   -2.1077    2.9069   -3.9214 H   0  0  0  0  0  0  0  0  0  0  0  0
   -0.6633    3.7454   -3.3138 H   0  0  0  0  0  0  0  0  0  0  0  0
  1  2  1  0  0  0  0
  2  3  1  0  0  0  0
  2  4  1  0  0  0  0
  2  5  1  0  0  0  0
  5  6  2  0  0  0  0
  5  7  1  0  0  0  0
  7  8  1  0  0  0  0
  7  9  1  0  0  0  0
  9 10  1  0  0  0  0
  9 11  1  0  0  0  0
  9 23  1  0  0  0  0
 11 12  1  0  0  0  0
 11 13  1  0  0  0  0
 11 14  1  0  0  0  0
 14 15  1  0  0  0  0
 14 21  2  0  0  0  0
 15 16  1  0  0  0  0
 15 17  2  0  0  0  0
 17 18  1  0  0  0  0
 17 19  1  0  0  0  0
 19 20  1  0  0  0  0
 19 21  1  0  0  0  0
 21 22  1  0  0  0  0
 23 24  2  0  0  0  0
 23 25  1  0  0  0  0
 25 26  1  0  0  0  0
 25 27  1  0  0  0  0
 27 28  1  0  0  0  0
 27 29  1  0  0  0  0
 27 30  1  0  0  0  0
M  CHG  1  15   1
M  END
$$$$

  -OEChem-01062216083D

 30 30  0     1  0  0  0  0  0999 V2000
   -3.8099   -1.8861    1.3135 H   0  0  0  0  0  0  0  0  0  0  0  0
   -3.5291   -1.1784    0.5281 C   0  0  0  0  0  0  0  0  0  0  0  0
   -4.3165   -0.4256    0.4388 H   0  0  0  0  0  0  0  0  0  0  0  0
   -3.4441   -1.7199   -0.4171 H   0  0  0  0  0  0  0  0  0  0  0  0
   -2.2111   -0.5104    0.8703 C   0  0  0  0  0  0  0  0  0  0  0  0
   -1.7150   -0.6929    1.9684 O   0  0  0  0  0  0  0  0  0  0  0  0
   -1.6783    0.4202   -0.0013 N   0  0  0  0  0  0  0  0  0  0  0  0
   -2.2178    0.5053   -0.8617 H   0  0  0  0  0  0  0  0  0  0  0  0
   -0.2764    0.9069   -0.0997 C   0  0  1  0  0  0  0  0  0  0  0  0
   -0.1043    1.6325    0.7014 H   0  0  0  0  0  0  0  0  0  0  0  0
    0.8603   -0.1712   -0.0553 C   0  0  0  0  0  0  0  0  0  0  0  0
    0.7009   -0.8647   -0.8883 H   0  0  0  0  0  0  0  0  0  0  0  0
    1.8267    0.3157   -0.2306 H   0  0  0  0  0  0  0  0  0  0  0  0
    1.0106   -0.9696    1.2138 C   0  0  0  0  0  0  0  0  0  0  0  0
    1.5583   -0.5143    2.4142 N   0  3  0  0  0  0  0  0  0  0  0  0
    1.8151    0.4625    2.5729 H   0  0  0  0  0  0  0  0  0  0  0  0
    1.5785   -1.4800    3.3002 C   0  0  0  0  0  0  0  0  0  0  0  0
    1.9046   -1.4004    4.3383 H   0  0  0  0  0  0  0  0  0  0  0  0
    1.0921   -2.6245    2.6739 N   0  0  0  0  0  0  0  0  0  0  0  0
    0.9645   -3.5389    3.1163 H   0  0  0  0  0  0  0  0  0  0  0  0
    0.7567   -2.3113    1.3630 C   0  0  0  0  0  0  0  0  0  0  0  0
    0.3547   -2.9826    0.6057 H   0  0  0  0  0  0  0  0  0  0  0  0
   -0.1279    1.6520   -1.4571 C   0  0  0  0  0  0  0  0  0  0  0  0
    0.9217    1.6392   -2.0842 O   0  0  0  0  0  0  0  0  0  0  0  0
   -1.2181    2.3017   -2.0138 N   0  0  0  0  0  0  0  0  0  0  0  0
   -2.0072    2.4846   -1.3990 H   0  0  0  0  0  0  0  0  0  0  0  0
   -1.1349    3.0558   -3.2636 C   0  0  0  0  0  0  0  0  0  0  0  0
   -0.7639    2.4192   -4.0745 H   0  0  0  0  0  0  0  0  0  0  0  0
   -2.1225    3.4310   -3.5502 H   0  0  0  0  0  0  0  0  0  0  0  0
   -0.4583    3.9102   -3.1533 H   0  0  0  0  0  0  0  0  0  0  0  0
  1  2  1  0  0  0  0
  2  3  1  0  0  0  0
  2  4  1  0  0  0  0
  2  5  1  0  0  0  0
  5  6  2  0  0  0  0
  5  7  1  0  0  0  0
  7  8  1  0  0  0  0
  7  9  1  0  0  0  0
  9 10  1  0  0  0  0
  9 11  1  0  0  0  0
  9 23  1  0  0  0  0
 11 12  1  0  0  0  0
 11 13  1  0  0  0  0
 11 14  1  0  0  0  0
 14 15  1  0  0  0  0
 14 21  2  0  0  0  0
 15 16  1  0  0  0  0
 15 17  2  0  0  0  0
 17 18  1  0  0  0  0
 17 19  1  0  0  0  0
 19 20  1  0  0  0  0
 19 21  1  0  0  0  0
 21 22  1  0  0  0  0
 23 24  2  0  0  0  0
 23 25  1  0  0  0  0
 25 26  1  0  0  0  0
 25 27  1  0  0  0  0
 27 28  1  0  0  0  0
 27 29  1  0  0  0  0
 27 30  1  0  0  0  0
M  CHG  1  15   1
M  END
$$$$

  -OEChem-01062216083D

 30 30  0     1  0  0  0  0  0999 V2000
   -3.8168   -1.8799    1.2828 H   0  0  0  0  0  0  0  0  0  0  0  0
   -3.5317   -1.1634    0.5071 C   0  0  0  0  0  0  0  0  0  0  0  0
   -4.3145   -0.4048    0.4280 H   0  0  0  0  0  0  0  0  0  0  0  0
   -3.4497   -1.6923   -0.4455 H   0  0  0  0  0  0  0  0  0  0  0  0
   -2.2087   -0.5095    0.8579 C   0  0  0  0  0  0  0  0  0  0  0  0
   -1.7137   -0.7103    1.9534 O   0  0  0  0  0  0  0  0  0  0  0  0
   -1.6656    0.4251   -0.0028 N   0  0  0  0  0  0  0  0  0  0  0  0
   -2.2122    0.5455   -0.8552 H   0  0  0  0  0  0  0  0  0  0  0  0
   -0.2636    0.9100   -0.0893 C   0  0  1  0  0  0  0  0  0  0  0  0
   -0.0951    1.6322    0.7155 H   0  0  0  0  0  0  0  0  0  0  0  0
    0.8756   -0.1642   -0.0421 C   0  0  0  0  0  0  0  0  0  0  0  0
    0.7192   -0.8584   -0.8756 H   0  0  0  0  0  0  0  0  0  0  0  0
    1.8383    0.3294   -0.2189 H   0  0  0  0  0  0  0  0  0  0  0  0
    1.0215   -0.9684    1.2242 C   0  0  0  0  0  0  0  0  0  0  0  0
    1.5604   -0.5195    2.4309 N   0  3  0  0  0  0  0  0  0  0  0  0
    1.8144    0.4565    2.5975 H   0  0  0  0  0  0  0  0  0  0  0  0
    1.5750   -1.4900    3.3119 C   0  0  0  0  0  0  0  0  0  0  0  0
    1.8934   -1.4156    4.3529 H   0  0  0  0  0  0  0  0  0  0  0  0
    1.0940   -2.6315    2.6762 N   0  0  0  0  0  0  0  0  0  0  0  0
    0.9626   -3.5480    3.1131 H   0  0  0  0  0  0  0  0  0  0  0  0
    0.7675   -2.3111    1.3646 C   0  0  0  0  0  0  0  0  0  0  0  0
    0.3691   -2.9776    0.6012 H   0  0  0  0  0  0  0  0  0  0  0  0
   -0.1214    1.6588   -1.4435 C   0  0  0  0  0  0  0  0  0  0  0  0
    0.8152    1.4557   -2.2032 O   0  0  0  0  0  0  0  0  0  0  0  0
   -1.1056    2.5513   -1.8330 N   0  0  0  0  0  0  0  0  0  0  0  0
   -1.8089    2.8034   -1.1427 H   0  0  0  0  0  0  0  0  0  0  0  0
   -1.0324    3.3313   -3.0671 C   0  0  0  0  0  0  0  0  0  0  0  0
   -0.9574    2.6701   -3.9375 H   0  0  0  0  0  0  0  0  0  0  0  0
   -1.9293    3.9480   -3.1826 H   0  0  0  0  0  0  0  0  0  0  0  0
   -0.1584    3.9917   -3.0539 H   0  0  0  0  0  0  0  0  0  0  0  0
  1  2  1  0  0  0  0
  2  3  1  0  0  0  0
  2  4  1  0  0  0  0
  2  5  1  0  0  0  0
  5  6  2  0  0  0  0
  5  7  1  0  0  0  0
  7  8  1  0  0  0  0
  7  9  1  0  0  0  0
  9 10  1  0  0  0  0
  9 11  1  0  0  0  0
  9 23  1  0  0  0  0
 11 12  1  0  0  0  0
 11 13  1  0  0  0  0
 11 14  1  0  0  0  0
 14 15  1  0  0  0  0
 14 21  2  0  0  0  0
 15 16  1  0  0  0  0
 15 17  2  0  0  0  0
 17 18  1  0  0  0  0
 17 19  1  0  0  0  0
 19 20  1  0  0  0  0
 19 21  1  0  0  0  0
 21 22  1  0  0  0  0
 23 24  2  0  0  0  0
 23 25  1  0  0  0  0
 25 26  1  0  0  0  0
 25 27  1  0  0  0  0
 27 28  1  0  0  0  0
 27 29  1  0  0  0  0
 27 30  1  0  0  0  0
M  CHG  1  15   1
M  END
$$$$

  -OEChem-01062216083D

 30 30  0     1  0  0  0  0  0999 V2000
   -3.8378   -1.8501    1.2620 H   0  0  0  0  0  0  0  0  0  0  0  0
   -3.5361   -1.1367    0.4897 C   0  0  0  0  0  0  0  0  0  0  0  0
   -4.3049   -0.3641    0.4090 H   0  0  0  0  0  0  0  0  0  0  0  0
   -3.4593   -1.6645   -0.4639 H   0  0  0  0  0  0  0  0  0  0  0  0
   -2.2034   -0.5072    0.8481 C   0  0  0  0  0  0  0  0  0  0  0  0
   -1.7101   -0.7312    1.9400 O   0  0  0  0  0  0  0  0  0  0  0  0
   -1.6503    0.4337    0.0011 N   0  0  0  0  0  0  0  0  0  0  0  0
   -2.1982    0.5812   -0.8462 H   0  0  0  0  0  0  0  0  0  0  0  0
   -0.2496    0.9197   -0.0692 C   0  0  1  0  0  0  0  0  0  0  0  0
   -0.0865    1.6347    0.7429 H   0  0  0  0  0  0  0  0  0  0  0  0
    0.8933   -0.1496   -0.0247 C   0  0  0  0  0  0  0  0  0  0  0  0
    0.7400   -0.8416   -0.8606 H   0  0  0  0  0  0  0  0  0  0  0  0
    1.8525    0.3505   -0.2022 H   0  0  0  0  0  0  0  0  0  0  0  0
    1.0339   -0.9667    1.2343 C   0  0  0  0  0  0  0  0  0  0  0  0
    1.5617   -0.5310    2.4506 N   0  3  0  0  0  0  0  0  0  0  0  0
    1.8094    0.4440    2.6317 H   0  0  0  0  0  0  0  0  0  0  0  0
    1.5698   -1.5114    3.3205 C   0  0  0  0  0  0  0  0  0  0  0  0
    1.8763   -1.4473    4.3657 H   0  0  0  0  0  0  0  0  0  0  0  0
    1.0987   -2.6472    2.6672 N   0  0  0  0  0  0  0  0  0  0  0  0
    0.9642   -3.5687    3.0928 H   0  0  0  0  0  0  0  0  0  0  0  0
    0.7828   -2.3120    1.3566 C   0  0  0  0  0  0  0  0  0  0  0  0
    0.3926   -2.9699    0.5812 H   0  0  0  0  0  0  0  0  0  0  0  0
   -0.1046    1.6757   -1.4163 C   0  0  0  0  0  0  0  0  0  0  0  0
    0.6645    1.3040   -2.2915 O   0  0  0  0  0  0  0  0  0  0  0  0
   -0.9056    2.7769   -1.6608 N   0  0  0  0  0  0  0  0  0  0  0  0
   -1.5165    3.0970   -0.9129 H   0  0  0  0  0  0  0  0  0  0  0  0
   -0.8498    3.5502   -2.8997 C   0  0  0  0  0  0  0  0  0  0  0  0
   -1.0676    2.9115   -3.7627 H   0  0  0  0  0  0  0  0  0  0  0  0
   -1.5864    4.3598   -2.8781 H   0  0  0  0  0  0  0  0  0  0  0  0
    0.1439    3.9917   -3.0333 H   0  0  0  0  0  0  0  0  0  0  0  0
  1  2  1  0  0  0  0
  2  3  1  0  0  0  0
  2  4  1  0  0  0  0
  2  5  1  0  0  0  0
  5  6  2  0  0  0  0
  5  7  1  0  0  0  0
  7  8  1  0  0  0  0
  7  9  1  0  0  0  0
  9 10  1  0  0  0  0
  9 11  1  0  0  0  0
  9 23  1  0  0  0  0
 11 12  1  0  0  0  0
 11 13  1  0  0  0  0
 11 14  1  0  0  0  0
 14 15  1  0  0  0  0
 14 21  2  0  0  0  0
 15 16  1  0  0  0  0
 15 17  2  0  0  0  0
 17 18  1  0  0  0  0
 17 19  1  0  0  0  0
 19 20  1  0  0  0  0
 19 21  1  0  0  0  0
 21 22  1  0  0  0  0
 23 24  2  0  0  0  0
 23 25  1  0  0  0  0
 25 26  1  0  0  0  0
 25 27  1  0  0  0  0
 27 28  1  0  0  0  0
 27 29  1  0  0  0  0
 27 30  1  0  0  0  0
M  CHG  1  15   1
M  END
$$$$

  -OEChem-01062216083D

 30 30  0     1  0  0  0  0  0999 V2000
   -3.8199   -1.8646    1.2396 H   0  0  0  0  0  0  0  0  0  0  0  0
   -3.5220   -1.1390    0.4775 C   0  0  0  0  0  0  0  0  0  0  0  0
   -4.2995   -0.3748    0.4000 H   0  0  0  0  0  0  0  0  0  0  0  0
   -3.4322   -1.6547   -0.4816 H   0  0  0  0  0  0  0  0  0  0  0  0
   -2.1995   -0.4975    0.8514 C   0  0  0  0  0  0  0  0  0  0  0  0
   -1.7130   -0.7196    1.9471 O   0  0  0  0  0  0  0  0  0  0  0  0
   -1.6446    0.4467    0.0099 N   0  0  0  0  0  0  0  0  0  0  0  0
   -2.1830    0.5883   -0.8446 H   0  0  0  0  0  0  0  0  0  0  0  0
   -0.2457    0.9353   -0.0475 C   0  0  1  0  0  0  0  0  0  0  0  0
   -0.0881    1.6434    0.7716 H   0  0  0  0  0  0  0  0  0  0  0  0
    0.8986   -0.1314   -0.0071 C   0  0  0  0  0  0  0  0  0  0  0  0
    0.7467   -0.8220   -0.8447 H   0  0  0  0  0  0  0  0  0  0  0  0
    1.8562    0.3716   -0.1838 H   0  0  0  0  0  0  0  0  0  0  0  0
    1.0341   -0.9603    1.2446 C   0  0  0  0  0  0  0  0  0  0  0  0
    1.5536   -0.5399    2.4700 N   0  3  0  0  0  0  0  0  0  0  0  0
    1.7971    0.4329    2.6667 H   0  0  0  0  0  0  0  0  0  0  0  0
    1.5593   -1.5324    3.3265 C   0  0  0  0  0  0  0  0  0  0  0  0
    1.8610   -1.4828    4.3738 H   0  0  0  0  0  0  0  0  0  0  0  0
    1.0938   -2.6597    2.6554 N   0  0  0  0  0  0  0  0  0  0  0  0
    0.9606   -3.5877    3.0669 H   0  0  0  0  0  0  0  0  0  0  0  0
    0.7834   -2.3071    1.3483 C   0  0  0  0  0  0  0  0  0  0  0  0
    0.3978   -2.9551    0.5623 H   0  0  0  0  0  0  0  0  0  0  0  0
   -0.0868    1.6946   -1.3891 C   0  0  0  0  0  0  0  0  0  0  0  0
    0.4594    1.1808   -2.3553 O   0  0  0  0  0  0  0  0  0  0  0  0
   -0.6379    2.9553   -1.5280 N   0  0  0  0  0  0  0  0  0  0  0  0
   -1.1272    3.3543   -0.7304 H   0  0  0  0  0  0  0  0  0  0  0  0
   -0.5822    3.7225   -2.7708 C   0  0  0  0  0  0  0  0  0  0  0  0
   -1.0984    3.1892   -3.5766 H   0  0  0  0  0  0  0  0  0  0  0  0
   -1.0635    4.6969   -2.6398 H   0  0  0  0  0  0  0  0  0  0  0  0
    0.4571    3.8911   -3.0733 H   0  0  0  0  0  0  0  0  0  0  0  0
  1  2  1  0  0  0  0
  2  3  1  0  0  0  0
  2  4  1  0  0  0  0
  2  5  1  0  0  0  0
  5  6  2  0  0  0  0
  5  7  1  0  0  0  0
  7  8  1  0  0  0  0
  7  9  1  0  0  0  0
  9 10  1  0  0  0  0
  9 11  1  0  0  0  0
  9 23  1  0  0  0  0
 11 12  1  0  0  0  0
 11 13  1  0  0  0  0
 11 14  1  0  0  0  0
 14 15  1  0  0  0  0
 14 21  2  0  0  0  0
 15 16  1  0  0  0  0
 15 17  2  0  0  0  0
 17 18  1  0  0  0  0
 17 19  1  0  0  0  0
 19 20  1  0  0  0  0
 19 21  1  0  0  0  0
 21 22  1  0  0  0  0
 23 24  2  0  0  0  0
 23 25  1  0  0  0  0
 25 26  1  0  0  0  0
 25 27  1  0  0  0  0
 27 28  1  0  0  0  0
 27 29  1  0  0  0  0
 27 30  1  0  0  0  0
M  CHG  1  15   1
M  END
$$$$

  -OEChem-01062216083D

 30 30  0     1  0  0  0  0  0999 V2000
   -3.8016   -1.8636    1.2320 H   0  0  0  0  0  0  0  0  0  0  0  0
   -3.5033   -1.1369    0.4711 C   0  0  0  0  0  0  0  0  0  0  0  0
   -4.2862   -0.3791    0.3841 H   0  0  0  0  0  0  0  0  0  0  0  0
   -3.3999   -1.6540   -0.4859 H   0  0  0  0  0  0  0  0  0  0  0  0
   -2.1897   -0.4837    0.8555 C   0  0  0  0  0  0  0  0  0  0  0  0
   -1.7093   -0.7011    1.9552 O   0  0  0  0  0  0  0  0  0  0  0  0
   -1.6312    0.4599    0.0162 N   0  0  0  0  0  0  0  0  0  0  0  0
   -2.1542    0.5873   -0.8506 H   0  0  0  0  0  0  0  0  0  0  0  0
   -0.2338    0.9508   -0.0262 C   0  0  1  0  0  0  0  0  0  0  0  0
   -0.0837    1.6541    0.7983 H   0  0  0  0  0  0  0  0  0  0  0  0
    0.9123   -0.1123    0.0072 C   0  0  0  0  0  0  0  0  0  0  0  0
    0.7669   -0.7955   -0.8378 H   0  0  0  0  0  0  0  0  0  0  0  0
    1.8693    0.3943   -0.1601 H   0  0  0  0  0  0  0  0  0  0  0  0
    1.0382   -0.9550    1.2513 C   0  0  0  0  0  0  0  0  0  0  0  0
    1.5457   -0.5524    2.4881 N   0  3  0  0  0  0  0  0  0  0  0  0
    1.7845    0.4178    2.7028 H   0  0  0  0  0  0  0  0  0  0  0  0
    1.5378   -1.5563    3.3315 C   0  0  0  0  0  0  0  0  0  0  0  0
    1.8252   -1.5224    4.3836 H   0  0  0  0  0  0  0  0  0  0  0  0
    1.0759   -2.6730    2.6403 N   0  0  0  0  0  0  0  0  0  0  0  0
    0.9321   -3.6052    3.0386 H   0  0  0  0  0  0  0  0  0  0  0  0
    0.7804   -2.3019    1.3353 C   0  0  0  0  0  0  0  0  0  0  0  0
    0.3986   -2.9381    0.5378 H   0  0  0  0  0  0  0  0  0  0  0  0
   -0.0594    1.7061   -1.3651 C   0  0  0  0  0  0  0  0  0  0  0  0
    0.2172    1.1012   -2.3912 O   0  0  0  0  0  0  0  0  0  0  0  0
   -0.3217    3.0618   -1.4356 N   0  0  0  0  0  0  0  0  0  0  0  0
   -0.6497    3.5303   -0.5946 H   0  0  0  0  0  0  0  0  0  0  0  0
   -0.2728    3.8211   -2.6833 C   0  0  0  0  0  0  0  0  0  0  0  0
   -1.0176    3.4447   -3.3928 H   0  0  0  0  0  0  0  0  0  0  0  0
   -0.4809    4.8790   -2.4939 H   0  0  0  0  0  0  0  0  0  0  0  0
    0.7185    3.7437   -3.1433 H   0  0  0  0  0  0  0  0  0  0  0  0
  1  2  1  0  0  0  0
  2  3  1  0  0  0  0
  2  4  1  0  0  0  0
  2  5  1  0  0  0  0
  5  6  2  0  0  0  0
  5  7  1  0  0  0  0
  7  8  1  0  0  0  0
  7  9  1  0  0  0  0
  9 10  1  0  0  0  0
  9 11  1  0  0  0  0
  9 23  1  0  0  0  0
 11 12  1  0  0  0  0
 11 13  1  0  0  0  0
 11 14  1  0  0  0  0
 14 15  1  0  0  0  0
 14 21  2  0  0  0  0
 15 16  1  0  0  0  0
 15 17  2  0  0  0  0
 17 18  1  0  0  0  0
 17 19  1  0  0  0  0
 19 20  1  0  0  0  0
 19 21  1  0  0  0  0
 21 22  1  0  0  0  0
 23 24  2  0  0  0  0
 23 25  1  0  0  0  0
 25 26  1  0  0  0  0
 25 27  1  0  0  0  0
 27 28  1  0  0  0  0
 27 29  1  0  0  0  0
 27 30  1  0  0  0  0
M  CHG  1  15   1
M  END
$$$$

  -OEChem-01062216083D

 30 30  0     1  0  0  0  0  0999 V2000
   -3.7886   -1.8558    1.2245 H   0  0  0  0  0  0  0  0  0  0  0  0
   -3.4875   -1.1280    0.4657 C   0  0  0  0  0  0  0  0  0  0  0  0
   -4.2701   -0.3703    0.3770 H   0  0  0  0  0  0  0  0  0  0  0  0
   -3.3802   -1.6432   -0.4920 H   0  0  0  0  0  0  0  0  0  0  0  0
   -2.1765   -0.4734    0.8565 C   0  0  0  0  0  0  0  0  0  0  0  0
   -1.7053   -0.6826    1.9622 O   0  0  0  0  0  0  0  0  0  0  0  0
   -1.6110    0.4656    0.0173 N   0  0  0  0  0  0  0  0  0  0  0  0
   -2.1138    0.5764   -0.8642 H   0  0  0  0  0  0  0  0  0  0  0  0
   -0.2163    0.9619   -0.0069 C   0  0  1  0  0  0  0  0  0  0  0  0
   -0.0770    1.6647    0.8197 H   0  0  0  0  0  0  0  0  0  0  0  0
    0.9326   -0.0959    0.0203 C   0  0  0  0  0  0  0  0  0  0  0  0
    0.8001   -0.7663   -0.8371 H   0  0  0  0  0  0  0  0  0  0  0  0
    1.8901    0.4162   -0.1276 H   0  0  0  0  0  0  0  0  0  0  0  0
    1.0449   -0.9525    1.2561 C   0  0  0  0  0  0  0  0  0  0  0  0
    1.5363   -0.5646    2.5038 N   0  3  0  0  0  0  0  0  0  0  0  0
    1.7712    0.4029    2.7336 H   0  0  0  0  0  0  0  0  0  0  0  0
    1.5080   -1.5759    3.3376 C   0  0  0  0  0  0  0  0  0  0  0  0
    1.7748   -1.5517    4.3953 H   0  0  0  0  0  0  0  0  0  0  0  0
    1.0533   -2.6842    2.6281 N   0  0  0  0  0  0  0  0  0  0  0  0
    0.8944   -3.6181    3.0168 H   0  0  0  0  0  0  0  0  0  0  0  0
    0.7806   -2.2991    1.3220 C   0  0  0  0  0  0  0  0  0  0  0  0
    0.4069   -2.9249    0.5125 H   0  0  0  0  0  0  0  0  0  0  0  0
   -0.0283    1.7047   -1.3486 C   0  0  0  0  0  0  0  0  0  0  0  0
   -0.0197    1.0721   -2.3953 O   0  0  0  0  0  0  0  0  0  0  0  0
    0.0106    3.0863   -1.3912 N   0  0  0  0  0  0  0  0  0  0  0  0
   -0.1285    3.5965   -0.5228 H   0  0  0  0  0  0  0  0  0  0  0  0
    0.0564    3.8420   -2.6412 C   0  0  0  0  0  0  0  0  0  0  0  0
   -0.8457    3.6588   -3.2351 H   0  0  0  0  0  0  0  0  0  0  0  0
    0.1223    4.9153   -2.4360 H   0  0  0  0  0  0  0  0  0  0  0  0
    0.9305    3.5527   -3.2350 H   0  0  0  0  0  0  0  0  0  0  0  0
  1  2  1  0  0  0  0
  2  3  1  0  0  0  0
  2  4  1  0  0  0  0
  2  5  1  0  0  0  0
  5  6  2  0  0  0  0
  5  7  1  0  0  0  0
  7  8  1  0  0  0  0
  7  9  1  0  0  0  0
  9 10  1  0  0  0  0
  9 11  1  0  0  0  0
  9 23  1  0  0  0  0
 11 12  1  0  0  0  0
 11 13  1  0  0  0  0
 11 14  1  0  0  0  0
 14 15  1  0  0  0  0
 14 21  2  0  0  0  0
 15 16  1  0  0  0  0
 15 17  2  0  0  0  0
 17 18  1  0  0  0  0
 17 19  1  0  0  0  0
 19 20  1  0  0  0  0
 19 21  1  0  0  0  0
 21 22  1  0  0  0  0
 23 24  2  0  0  0  0
 23 25  1  0  0  0  0
 25 26  1  0  0  0  0
 25 27  1  0  0  0  0
 27 28  1  0  0  0  0
 27 29  1  0  0  0  0
 27 30  1  0  0  0  0
M  CHG  1  15   1
M  END
$$$$

  -OEChem-01062216083D

 30 30  0     1  0  0  0  0  0999 V2000
   -3.7736   -1.8623    1.2185 H   0  0  0  0  0  0  0  0  0  0  0  0
   -3.4785   -1.1259    0.4658 C   0  0  0  0  0  0  0  0  0  0  0  0
   -4.2660   -0.3722    0.3851 H   0  0  0  0  0  0  0  0  0  0  0  0
   -3.3696   -1.6313   -0.4969 H   0  0  0  0  0  0  0  0  0  0  0  0
   -2.1711   -0.4666    0.8604 C   0  0  0  0  0  0  0  0  0  0  0  0
   -1.7040   -0.6691    1.9694 O   0  0  0  0  0  0  0  0  0  0  0  0
   -1.6006    0.4645    0.0164 N   0  0  0  0  0  0  0  0  0  0  0  0
   -2.0905    0.5628   -0.8747 H   0  0  0  0  0  0  0  0  0  0  0  0
   -0.2093    0.9689    0.0014 C   0  0  1  0  0  0  0  0  0  0  0  0
   -0.0784    1.6764    0.8253 H   0  0  0  0  0  0  0  0  0  0  0  0
    0.9403   -0.0849    0.0261 C   0  0  0  0  0  0  0  0  0  0  0  0
    0.8122   -0.7473   -0.8382 H   0  0  0  0  0  0  0  0  0  0  0  0
    1.8978    0.4294   -0.1120 H   0  0  0  0  0  0  0  0  0  0  0  0
    1.0458   -0.9479    1.2578 C   0  0  0  0  0  0  0  0  0  0  0  0
    1.5284   -0.5679    2.5116 N   0  3  0  0  0  0  0  0  0  0  0  0
    1.7564    0.3989    2.7508 H   0  0  0  0  0  0  0  0  0  0  0  0
    1.4895   -1.5832    3.3400 C   0  0  0  0  0  0  0  0  0  0  0  0
    1.7451   -1.5645    4.4006 H   0  0  0  0  0  0  0  0  0  0  0  0
    1.0391   -2.6867    2.6207 N   0  0  0  0  0  0  0  0  0  0  0  0
    0.8728   -3.6215    3.0037 H   0  0  0  0  0  0  0  0  0  0  0  0
    0.7768   -2.2938    1.3148 C   0  0  0  0  0  0  0  0  0  0  0  0
    0.4046   -2.9141    0.5001 H   0  0  0  0  0  0  0  0  0  0  0  0
   -0.0088    1.6952   -1.3462 C   0  0  0  0  0  0  0  0  0  0  0  0
   -0.2231    1.0890   -2.3870 O   0  0  0  0  0  0  0  0  0  0  0  0
    0.3298    3.0351   -1.3919 N   0  0  0  0  0  0  0  0  0  0  0  0
    0.3689    3.5494   -0.5159 H   0  0  0  0  0  0  0  0  0  0  0  0
    0.4112    3.7887   -2.6412 C   0  0  0  0  0  0  0  0  0  0  0  0
   -0.5692    3.8333   -3.1280 H   0  0  0  0  0  0  0  0  0  0  0  0
    0.7478    4.8122   -2.4482 H   0  0  0  0  0  0  0  0  0  0  0  0
    1.1222    3.3189   -3.3297 H   0  0  0  0  0  0  0  0  0  0  0  0
  1  2  1  0  0  0  0
  2  3  1  0  0  0  0
  2  4  1  0  0  0  0
  2  5  1  0  0  0  0
  5  6  2  0  0  0  0
  5  7  1  0  0  0  0
  7  8  1  0  0  0  0
  7  9  1  0  0  0  0
  9 10  1  0  0  0  0
  9 11  1  0  0  0  0
  9 23  1  0  0  0  0
 11 12  1  0  0  0  0
 11 13  1  0  0  0  0
 11 14  1  0  0  0  0
 14 15  1  0  0  0  0
 14 21  2  0  0  0  0
 15 16  1  0  0  0  0
 15 17  2  0  0  0  0
 17 18  1  0  0  0  0
 17 19  1  0  0  0  0
 19 20  1  0  0  0  0
 19 21  1  0  0  0  0
 21 22  1  0  0  0  0
 23 24  2  0  0  0  0
 23 25  1  0  0  0  0
 25 26  1  0  0  0  0
 25 27  1  0  0  0  0
 27 28  1  0  0  0  0
 27 29  1  0  0  0  0
 27 30  1  0  0  0  0
M  CHG  1  15   1
M  END
$$$$

  -OEChem-01062216083D

 30 30  0     1  0  0  0  0  0999 V2000
   -3.7777   -1.8600    1.2189 H   0  0  0  0  0  0  0  0  0  0  0  0
   -3.4788   -1.1267    0.4648 C   0  0  0  0  0  0  0  0  0  0  0  0
   -4.2666   -0.3743    0.3755 H   0  0  0  0  0  0  0  0  0  0  0  0
   -3.3635   -1.6361   -0.4951 H   0  0  0  0  0  0  0  0  0  0  0  0
   -2.1746   -0.4635    0.8636 C   0  0  0  0  0  0  0  0  0  0  0  0
   -1.7083   -0.6649    1.9734 O   0  0  0  0  0  0  0  0  0  0  0  0
   -1.5996    0.4609    0.0155 N   0  0  0  0  0  0  0  0  0  0  0  0
   -2.0862    0.5600   -0.8783 H   0  0  0  0  0  0  0  0  0  0  0  0
   -0.2116    0.9742    0.0028 C   0  0  1  0  0  0  0  0  0  0  0  0
   -0.0867    1.6885    0.8219 H   0  0  0  0  0  0  0  0  0  0  0  0
    0.9384   -0.0770    0.0267 C   0  0  0  0  0  0  0  0  0  0  0  0
    0.8106   -0.7358   -0.8408 H   0  0  0  0  0  0  0  0  0  0  0  0
    1.8965    0.4377   -0.1074 H   0  0  0  0  0  0  0  0  0  0  0  0
    1.0425   -0.9418    1.2573 C   0  0  0  0  0  0  0  0  0  0  0  0
    1.5225   -0.5632    2.5125 N   0  3  0  0  0  0  0  0  0  0  0  0
    1.7449    0.4040    2.7553 H   0  0  0  0  0  0  0  0  0  0  0  0
    1.4867   -1.5809    3.3381 C   0  0  0  0  0  0  0  0  0  0  0  0
    1.7418   -1.5642    4.3989 H   0  0  0  0  0  0  0  0  0  0  0  0
    1.0387   -2.6836    2.6163 N   0  0  0  0  0  0  0  0  0  0  0  0
    0.8732   -3.6194    2.9974 H   0  0  0  0  0  0  0  0  0  0  0  0
    0.7753   -2.2883    1.3113 C   0  0  0  0  0  0  0  0  0  0  0  0
    0.4038   -2.9074    0.4954 H   0  0  0  0  0  0  0  0  0  0  0  0
   -0.0046    1.6869   -1.3515 C   0  0  0  0  0  0  0  0  0  0  0  0
   -0.4148    1.1504   -2.3724 O   0  0  0  0  0  0  0  0  0  0  0  0
    0.6153    2.9209   -1.4277 N   0  0  0  0  0  0  0  0  0  0  0  0
    0.8369    3.4020   -0.5603 H   0  0  0  0  0  0  0  0  0  0  0  0
    0.7594    3.6552   -2.6829 C   0  0  0  0  0  0  0  0  0  0  0  0
   -0.2233    3.9054   -3.0975 H   0  0  0  0  0  0  0  0  0  0  0  0
    1.3125    4.5857   -2.5198 H   0  0  0  0  0  0  0  0  0  0  0  0
    1.3073    3.0563   -3.4187 H   0  0  0  0  0  0  0  0  0  0  0  0
  1  2  1  0  0  0  0
  2  3  1  0  0  0  0
  2  4  1  0  0  0  0
  2  5  1  0  0  0  0
  5  6  2  0  0  0  0
  5  7  1  0  0  0  0
  7  8  1  0  0  0  0
  7  9  1  0  0  0  0
  9 10  1  0  0  0  0
  9 11  1  0  0  0  0
  9 23  1  0  0  0  0
 11 12  1  0  0  0  0
 11 13  1  0  0  0  0
 11 14  1  0  0  0  0
 14 15  1  0  0  0  0
 14 21  2  0  0  0  0
 15 16  1  0  0  0  0
 15 17  2  0  0  0  0
 17 18  1  0  0  0  0
 17 19  1  0  0  0  0
 19 20  1  0  0  0  0
 19 21  1  0  0  0  0
 21 22  1  0  0  0  0
 23 24  2  0  0  0  0
 23 25  1  0  0  0  0
 25 26  1  0  0  0  0
 25 27  1  0  0  0  0
 27 28  1  0  0  0  0
 27 29  1  0  0  0  0
 27 30  1  0  0  0  0
M  CHG  1  15   1
M  END
$$$$

  -OEChem-01062216083D

 30 30  0     1  0  0  0  0  0999 V2000
   -3.7954   -1.8469    1.2278 H   0  0  0  0  0  0  0  0  0  0  0  0
   -3.4910   -1.1214    0.4683 C   0  0  0  0  0  0  0  0  0  0  0  0
   -4.2693   -0.3590    0.3803 H   0  0  0  0  0  0  0  0  0  0  0  0
   -3.3888   -1.6370   -0.4897 H   0  0  0  0  0  0  0  0  0  0  0  0
   -2.1756   -0.4739    0.8566 C   0  0  0  0  0  0  0  0  0  0  0  0
   -1.7055   -0.6807    1.9638 O   0  0  0  0  0  0  0  0  0  0  0  0
   -1.5976    0.4467    0.0063 N   0  0  0  0  0  0  0  0  0  0  0  0
   -2.0900    0.5601   -0.8833 H   0  0  0  0  0  0  0  0  0  0  0  0
   -0.2140    0.9737   -0.0081 C   0  0  1  0  0  0  0  0  0  0  0  0
   -0.0957    1.6953    0.8058 H   0  0  0  0  0  0  0  0  0  0  0  0
    0.9389   -0.0744    0.0205 C   0  0  0  0  0  0  0  0  0  0  0  0
    0.8117   -0.7348   -0.8457 H   0  0  0  0  0  0  0  0  0  0  0  0
    1.8967    0.4402   -0.1138 H   0  0  0  0  0  0  0  0  0  0  0  0
    1.0465   -0.9355    1.2539 C   0  0  0  0  0  0  0  0  0  0  0  0
    1.5252   -0.5542    2.5090 N   0  3  0  0  0  0  0  0  0  0  0  0
    1.7410    0.4146    2.7519 H   0  0  0  0  0  0  0  0  0  0  0  0
    1.4890   -1.5705    3.3366 C   0  0  0  0  0  0  0  0  0  0  0  0
    1.7395   -1.5511    4.3985 H   0  0  0  0  0  0  0  0  0  0  0  0
    1.0451   -2.6756    2.6158 N   0  0  0  0  0  0  0  0  0  0  0  0
    0.8779   -3.6104    2.9986 H   0  0  0  0  0  0  0  0  0  0  0  0
    0.7829   -2.2827    1.3099 C   0  0  0  0  0  0  0  0  0  0  0  0
    0.4119   -2.9036    0.4953 H   0  0  0  0  0  0  0  0  0  0  0  0
   -0.0030    1.6776   -1.3687 C   0  0  0  0  0  0  0  0  0  0  0  0
   -0.5825    1.2484   -2.3582 O   0  0  0  0  0  0  0  0  0  0  0  0
    0.8623    2.7497   -1.4972 N   0  0  0  0  0  0  0  0  0  0  0  0
    1.2460    3.1619   -0.6514 H   0  0  0  0  0  0  0  0  0  0  0  0
    1.0634    3.4536   -2.7622 C   0  0  0  0  0  0  0  0  0  0  0  0
    0.1244    3.8993   -3.1088 H   0  0  0  0  0  0  0  0  0  0  0  0
    1.8011    4.2533   -2.6414 H   0  0  0  0  0  0  0  0  0  0  0  0
    1.4283    2.7651   -3.5324 H   0  0  0  0  0  0  0  0  0  0  0  0
  1  2  1  0  0  0  0
  2  3  1  0  0  0  0
  2  4  1  0  0  0  0
  2  5  1  0  0  0  0
  5  6  2  0  0  0  0
  5  7  1  0  0  0  0
  7  8  1  0  0  0  0
  7  9  1  0  0  0  0
  9 10  1  0  0  0  0
  9 11  1  0  0  0  0
  9 23  1  0  0  0  0
 11 12  1  0  0  0  0
 11 13  1  0  0  0  0
 11 14  1  0  0  0  0
 14 15  1  0  0  0  0
 14 21  2  0  0  0  0
 15 16  1  0  0  0  0
 15 17  2  0  0  0  0
 17 18  1  0  0  0  0
 17 19  1  0  0  0  0
 19 20  1  0  0  0  0
 19 21  1  0  0  0  0
 21 22  1  0  0  0  0
 23 24  2  0  0  0  0
 23 25  1  0  0  0  0
 25 26  1  0  0  0  0
 25 27  1  0  0  0  0
 27 28  1  0  0  0  0
 27 29  1  0  0  0  0
 27 30  1  0  0  0  0
M  CHG  1  15   1
M  END
$$$$

  -OEChem-01062216083D

 30 30  0     1  0  0  0  0  0999 V2000
   -3.8080   -1.8521    1.1929 H   0  0  0  0  0  0  0  0  0  0  0  0
   -3.5026   -1.1104    0.4495 C   0  0  0  0  0  0  0  0  0  0  0  0
   -4.2724   -0.3369    0.3883 H   0  0  0  0  0  0  0  0  0  0  0  0
   -3.4155   -1.6020   -0.5225 H   0  0  0  0  0  0  0  0  0  0  0  0
   -2.1760   -0.4878    0.8403 C   0  0  0  0  0  0  0  0  0  0  0  0
   -1.7054   -0.7137    1.9434 O   0  0  0  0  0  0  0  0  0  0  0  0
   -1.5889    0.4315   -0.0047 N   0  0  0  0  0  0  0  0  0  0  0  0
   -2.0977    0.5828   -0.8803 H   0  0  0  0  0  0  0  0  0  0  0  0
   -0.2068    0.9640   -0.0247 C   0  0  1  0  0  0  0  0  0  0  0  0
   -0.0896    1.6911    0.7844 H   0  0  0  0  0  0  0  0  0  0  0  0
    0.9443   -0.0881    0.0149 C   0  0  0  0  0  0  0  0  0  0  0  0
    0.8139   -0.7552   -0.8455 H   0  0  0  0  0  0  0  0  0  0  0  0
    1.9058    0.4172   -0.1223 H   0  0  0  0  0  0  0  0  0  0  0  0
    1.0501   -0.9374    1.2569 C   0  0  0  0  0  0  0  0  0  0  0  0
    1.5303   -0.5434    2.5079 N   0  3  0  0  0  0  0  0  0  0  0  0
    1.7394    0.4287    2.7430 H   0  0  0  0  0  0  0  0  0  0  0  0
    1.4957   -1.5512    3.3459 C   0  0  0  0  0  0  0  0  0  0  0  0
    1.7439   -1.5206    4.4081 H   0  0  0  0  0  0  0  0  0  0  0  0
    1.0559   -2.6644    2.6357 N   0  0  0  0  0  0  0  0  0  0  0  0
    0.8907   -3.5956    3.0279 H   0  0  0  0  0  0  0  0  0  0  0  0
    0.7923   -2.2852    1.3262 C   0  0  0  0  0  0  0  0  0  0  0  0
    0.4233   -2.9159    0.5184 H   0  0  0  0  0  0  0  0  0  0  0  0
    0.0002    1.6680   -1.3900 C   0  0  0  0  0  0  0  0  0  0  0  0
   -0.7491    1.4035   -2.3221 O   0  0  0  0  0  0  0  0  0  0  0  0
    1.0644    2.5275   -1.6056 N   0  0  0  0  0  0  0  0  0  0  0  0
    1.6099    2.8271   -0.8028 H   0  0  0  0  0  0  0  0  0  0  0  0
    1.2852    3.2053   -2.8818 C   0  0  0  0  0  0  0  0  0  0  0  0
    0.4444    3.8669   -3.1173 H   0  0  0  0  0  0  0  0  0  0  0  0
    2.1982    3.8079   -2.8414 H   0  0  0  0  0  0  0  0  0  0  0  0
    1.3928    2.4758   -3.6921 H   0  0  0  0  0  0  0  0  0  0  0  0
  1  2  1  0  0  0  0
  2  3  1  0  0  0  0
  2  4  1  0  0  0  0
  2  5  1  0  0  0  0
  5  6  2  0  0  0  0
  5  7  1  0  0  0  0
  7  8  1  0  0  0  0
  7  9  1  0  0  0  0
  9 10  1  0  0  0  0
  9 11  1  0  0  0  0
  9 23  1  0  0  0  0
 11 12  1  0  0  0  0
 11 13  1  0  0  0  0
 11 14  1  0  0  0  0
 14 15  1  0  0  0  0
 14 21  2  0  0  0  0
 15 16  1  0  0  0  0
 15 17  2  0  0  0  0
 17 18  1  0  0  0  0
 17 19  1  0  0  0  0
 19 20  1  0  0  0  0
 19 21  1  0  0  0  0
 21 22  1  0  0  0  0
 23 24  2  0  0  0  0
 23 25  1  0  0  0  0
 25 26  1  0  0  0  0
 25 27  1  0  0  0  0
 27 28  1  0  0  0  0
 27 29  1  0  0  0  0
 27 30  1  0  0  0  0
M  CHG  1  15   1
M  END
$$$$
