@<TRIPOS>MOLECULE
default_name
   29    28     1     0     0
SMALL
No Charge or Current Charge


@<TRIPOS>ATOM
      1 H1          25.9540    25.2440    24.6420 H          1 ACE       0.112300
      2 CH3         26.0010    26.2120    24.1450 C.3        1 ACE      -0.366200
      3 H2          25.2950    26.8970    24.6100 H          1 ACE       0.112300
      4 H3          25.7640    26.0920    23.0900 H          1 ACE       0.112300
      5 C           27.4000    26.7650    24.2830 C.2        1 ACE       0.597200
      6 O           28.2570    26.1310    24.8830 O.2        1 ACE      -0.567900
      7 N           27.6280    27.9550    23.7320 N.am       2 MET      -0.415700
      8 H           26.8650    28.4320    23.2730 H          2 MET       0.271900
      9 CA          28.9190    28.6500    23.7550 C.3        2 MET      -0.023700
     10 HA          29.4460    28.3750    24.6700 H          2 MET       0.088000
     11 CB          29.7630    28.1850    22.5540 C.3        2 MET       0.034200
     12 HB2         29.8970    27.1030    22.6170 H          2 MET       0.024100
     13 HB3         29.2280    28.4090    21.6300 H          2 MET       0.024100
     14 CG          31.1480    28.8390    22.4890 C.3        2 MET       0.001800
     15 HG2         31.0300    29.9120    22.3410 H          2 MET       0.044000
     16 HG3         31.6600    28.6700    23.4370 H          2 MET       0.044000
     17 SD          32.1910    28.1990    21.1540 S.3        2 MET      -0.273700
     18 CE          33.6770    29.2020    21.4140 C.3        2 MET      -0.053600
     19 HE1         34.0770    29.0150    22.4110 H          2 MET       0.068400
     20 HE2         34.4280    28.9350    20.6700 H          2 MET       0.068400
     21 HE3         33.4300    30.2590    21.3110 H          2 MET       0.068400
     22 C           28.7100    30.1710    23.7620 C.2        2 MET       0.597300
     23 O           27.7840    30.6690    23.1250 O.2        2 MET      -0.567900
     24 N           29.5730    30.9080    24.4730 N.am       3 NME      -0.415700
     25 H           30.2980    30.4280    24.9820 H          3 NME       0.271900
     26 CH3         29.5170    32.3660    24.5670 C.3        3 NME      -0.149000
     27 HH31        28.5450    32.6720    24.9610 H          3 NME       0.097600
     28 HH32        30.3040    32.7350    25.2260 H          3 NME       0.097600
     29 HH33        29.6410    32.8040    23.5750 H          3 NME       0.097600
@<TRIPOS>BOND
     1     5     6 2   
     2     5     7 am  
     3     2     3 1   
     4     2     4 1   
     5     2     5 1   
     6     1     2 1   
     7    22    23 2   
     8    22    24 am  
     9    18    19 1   
    10    18    20 1   
    11    18    21 1   
    12    17    18 1   
    13    14    15 1   
    14    14    16 1   
    15    14    17 1   
    16    11    12 1   
    17    11    13 1   
    18    11    14 1   
    19     9    10 1   
    20     9    11 1   
    21     9    22 1   
    22     7     8 1   
    23     7     9 1   
    24    26    27 1   
    25    26    28 1   
    26    26    29 1   
    27    24    25 1   
    28    24    26 1   
@<TRIPOS>SUBSTRUCTURE
     1 ACE         1 TEMP              0 ****  ****    0 ROOT
