
  -OEChem-02062319033D

 43 42  0     1  0  0  0  0  0999 V2000
    0.7424   -1.0926    4.5665 C   0  0  0  0  0  0  0  0  0  0  0  0
    0.1409   -0.5364    5.4779 O   0  0  0  0  0  0  0  0  0  0  0  0
    1.7940   -2.1023    4.8871 C   0  0  0  0  0  0  0  0  0  0  0  0
    2.7935   -1.6502    4.9904 H   0  0  0  0  0  0  0  0  0  0  0  0
    1.6064   -2.6156    5.8438 H   0  0  0  0  0  0  0  0  0  0  0  0
    1.9156   -2.9078    4.1453 H   0  0  0  0  0  0  0  0  0  0  0  0
    0.5488   -0.8838    3.2109 N   0  0  0  0  0  0  0  0  0  0  0  0
   -0.4159    0.0446    2.6829 C   0  0  2  0  0  0  0  0  0  0  0  0
   -0.7551   -0.3867    1.2623 C   0  0  0  0  0  0  0  0  0  0  0  0
   -0.0106   -1.0851    0.5774 O   0  0  0  0  0  0  0  0  0  0  0  0
    0.1168    1.4689    2.7060 C   0  0  0  0  0  0  0  0  0  0  0  0
    1.1183   -1.4145    2.5542 H   0  0  0  0  0  0  0  0  0  0  0  0
   -1.3088   -0.0350    3.3125 H   0  0  0  0  0  0  0  0  0  0  0  0
    1.0116    1.5681    2.0808 H   0  0  0  0  0  0  0  0  0  0  0  0
   -0.6289    2.1775    2.3307 H   0  0  0  0  0  0  0  0  0  0  0  0
    0.3882    1.7670    3.7245 H   0  0  0  0  0  0  0  0  0  0  0  0
   -1.9689    0.1350    0.8298 N   0  0  0  0  0  0  0  0  0  0  0  0
   -2.5096   -0.1281   -0.4787 C   0  0  2  0  0  0  0  0  0  0  0  0
   -1.5179    0.3859   -1.5167 C   0  0  0  0  0  0  0  0  0  0  0  0
   -1.2222   -0.2440   -2.5301 O   0  0  0  0  0  0  0  0  0  0  0  0
   -3.8918    0.4928   -0.6536 C   0  0  0  0  0  0  0  0  0  0  0  0
   -3.8018    1.9127   -0.6217 O   0  0  0  0  0  0  0  0  0  0  0  0
   -2.5234    0.6967    1.4722 H   0  0  0  0  0  0  0  0  0  0  0  0
   -2.5835   -1.2180   -0.5685 H   0  0  0  0  0  0  0  0  0  0  0  0
   -4.5687    0.1777    0.1471 H   0  0  0  0  0  0  0  0  0  0  0  0
   -4.3262    0.2010   -1.6157 H   0  0  0  0  0  0  0  0  0  0  0  0
   -3.2185    2.1711   -1.3528 H   0  0  0  0  0  0  0  0  0  0  0  0
   -1.0364    1.6479   -1.1988 N   0  0  0  0  0  0  0  0  0  0  0  0
   -0.1066    2.3653   -2.0399 C   0  0  2  0  0  0  0  0  0  0  0  0
   -0.4191    2.0178   -3.4895 C   0  0  0  0  0  0  0  0  0  0  0  0
   -1.0141    0.9944   -3.8206 O   0  0  0  0  0  0  0  0  0  0  0  0
    1.3331    2.0168   -1.6958 C   0  0  0  0  0  0  0  0  0  0  0  0
   -1.3677    2.1115   -0.3580 H   0  0  0  0  0  0  0  0  0  0  0  0
   -0.2873    3.4327   -1.8725 H   0  0  0  0  0  0  0  0  0  0  0  0
    1.5331    0.9512   -1.8573 H   0  0  0  0  0  0  0  0  0  0  0  0
    2.0372    2.5827   -2.3148 H   0  0  0  0  0  0  0  0  0  0  0  0
    1.5475    2.2396   -0.6450 H   0  0  0  0  0  0  0  0  0  0  0  0
    0.0824    2.9637   -4.3726 N   0  0  0  0  0  0  0  0  0  0  0  0
   -0.0730    2.8532   -5.8043 C   0  0  0  0  0  0  0  0  0  0  0  0
    0.5463    3.7908   -4.0087 H   0  0  0  0  0  0  0  0  0  0  0  0
    0.8016    2.3397   -6.2301 H   0  0  0  0  0  0  0  0  0  0  0  0
   -0.9825    2.2774   -6.0309 H   0  0  0  0  0  0  0  0  0  0  0  0
   -0.1569    3.8587   -6.2425 H   0  0  0  0  0  0  0  0  0  0  0  0
  1  3  1  0  0  0  0
  1  7  1  0  0  0  0
  1  2  2  0  0  0  0
 29 30  1  0  0  0  0
 30 38  1  0  0  0  0
 30 31  2  0  0  0  0
  8  9  1  0  0  0  0
  9 17  1  0  0  0  0
  9 10  2  0  0  0  0
 18 19  1  0  0  0  0
 19 28  1  0  0  0  0
 19 20  2  0  0  0  0
 29 32  1  0  0  0  0
  8 11  1  0  0  0  0
 38 39  1  0  0  0  0
 18 21  1  0  0  0  0
 21 22  1  0  0  0  0
 28 29  1  0  0  0  0
  7  8  1  0  0  0  0
 17 18  1  0  0  0  0
  3  4  1  0  0  0  0
  3  5  1  0  0  0  0
  3  6  1  0  0  0  0
 32 35  1  0  0  0  0
 32 36  1  0  0  0  0
 32 37  1  0  0  0  0
 11 14  1  0  0  0  0
 11 15  1  0  0  0  0
 11 16  1  0  0  0  0
 39 41  1  0  0  0  0
 39 42  1  0  0  0  0
 39 43  1  0  0  0  0
 21 25  1  0  0  0  0
 21 26  1  0  0  0  0
 29 34  1  0  0  0  0
  8 13  1  0  0  0  0
 18 24  1  0  0  0  0
 38 40  1  0  0  0  0
  7 12  1  0  0  0  0
 28 33  1  0  0  0  0
 17 23  1  0  0  0  0
 22 27  1  0  0  0  0
M  END
$$$$

  -OEChem-02062319033D

 43 42  0     1  0  0  0  0  0999 V2000
    0.7424   -1.0926    4.5665 C   0  0  0  0  0  0  0  0  0  0  0  0
    0.1409   -0.5364    5.4779 O   0  0  0  0  0  0  0  0  0  0  0  0
    1.7940   -2.1023    4.8871 C   0  0  0  0  0  0  0  0  0  0  0  0
    2.7935   -1.6502    4.9904 H   0  0  0  0  0  0  0  0  0  0  0  0
    1.6064   -2.6156    5.8438 H   0  0  0  0  0  0  0  0  0  0  0  0
    1.9156   -2.9078    4.1453 H   0  0  0  0  0  0  0  0  0  0  0  0
    0.5488   -0.8838    3.2109 N   0  0  0  0  0  0  0  0  0  0  0  0
   -0.4159    0.0446    2.6829 C   0  0  2  0  0  0  0  0  0  0  0  0
   -0.7551   -0.3867    1.2623 C   0  0  0  0  0  0  0  0  0  0  0  0
   -0.0106   -1.0851    0.5774 O   0  0  0  0  0  0  0  0  0  0  0  0
    0.1168    1.4689    2.7060 C   0  0  0  0  0  0  0  0  0  0  0  0
    1.1183   -1.4145    2.5542 H   0  0  0  0  0  0  0  0  0  0  0  0
   -1.3088   -0.0350    3.3125 H   0  0  0  0  0  0  0  0  0  0  0  0
    1.0116    1.5681    2.0808 H   0  0  0  0  0  0  0  0  0  0  0  0
   -0.6289    2.1775    2.3307 H   0  0  0  0  0  0  0  0  0  0  0  0
    0.3882    1.7670    3.7245 H   0  0  0  0  0  0  0  0  0  0  0  0
   -1.9689    0.1350    0.8298 N   0  0  0  0  0  0  0  0  0  0  0  0
   -2.6627   -0.3613   -0.3305 C   0  0  2  0  0  0  0  0  0  0  0  0
   -1.7538   -0.1838   -1.5418 C   0  0  0  0  0  0  0  0  0  0  0  0
   -1.6119   -1.0473   -2.4052 O   0  0  0  0  0  0  0  0  0  0  0  0
   -4.0092    0.3293   -0.5212 C   0  0  0  0  0  0  0  0  0  0  0  0
   -3.8181    1.7065   -0.8248 O   0  0  0  0  0  0  0  0  0  0  0  0
   -2.4116    0.8737    1.3720 H   0  0  0  0  0  0  0  0  0  0  0  0
   -2.8211   -1.4325   -0.1603 H   0  0  0  0  0  0  0  0  0  0  0  0
   -4.6173    0.2632    0.3867 H   0  0  0  0  0  0  0  0  0  0  0  0
   -4.5627   -0.1277   -1.3484 H   0  0  0  0  0  0  0  0  0  0  0  0
   -3.2993    1.7415   -1.6441 H   0  0  0  0  0  0  0  0  0  0  0  0
   -1.1548    1.0678   -1.5663 N   0  0  0  0  0  0  0  0  0  0  0  0
   -0.2723    1.4921   -2.6281 C   0  0  2  0  0  0  0  0  0  0  0  0
   -0.7606    0.8617   -3.9257 C   0  0  0  0  0  0  0  0  0  0  0  0
   -1.4570   -0.1507   -3.9591 O   0  0  0  0  0  0  0  0  0  0  0  0
    1.1683    1.0983   -2.3409 C   0  0  0  0  0  0  0  0  0  0  0  0
   -1.3618    1.7348   -0.8288 H   0  0  0  0  0  0  0  0  0  0  0  0
   -0.3596    2.5820   -2.6954 H   0  0  0  0  0  0  0  0  0  0  0  0
    1.2755    0.0097   -2.2700 H   0  0  0  0  0  0  0  0  0  0  0  0
    1.8400    1.4456   -3.1329 H   0  0  0  0  0  0  0  0  0  0  0  0
    1.5082    1.5282   -1.3926 H   0  0  0  0  0  0  0  0  0  0  0  0
   -0.2915    1.5378   -5.0433 N   0  0  0  0  0  0  0  0  0  0  0  0
   -0.6056    1.1270   -6.3918 C   0  0  0  0  0  0  0  0  0  0  0  0
    0.2647    2.3790   -4.9215 H   0  0  0  0  0  0  0  0  0  0  0  0
    0.1810    0.4538   -6.7632 H   0  0  0  0  0  0  0  0  0  0  0  0
   -1.5717    0.6011   -6.3991 H   0  0  0  0  0  0  0  0  0  0  0  0
   -0.6657    2.0134   -7.0404 H   0  0  0  0  0  0  0  0  0  0  0  0
  1  3  1  0  0  0  0
  1  7  1  0  0  0  0
  1  2  2  0  0  0  0
 29 30  1  0  0  0  0
 30 38  1  0  0  0  0
 30 31  2  0  0  0  0
  8  9  1  0  0  0  0
  9 17  1  0  0  0  0
  9 10  2  0  0  0  0
 18 19  1  0  0  0  0
 19 28  1  0  0  0  0
 19 20  2  0  0  0  0
 29 32  1  0  0  0  0
  8 11  1  0  0  0  0
 38 39  1  0  0  0  0
 18 21  1  0  0  0  0
 21 22  1  0  0  0  0
 28 29  1  0  0  0  0
  7  8  1  0  0  0  0
 17 18  1  0  0  0  0
  3  4  1  0  0  0  0
  3  5  1  0  0  0  0
  3  6  1  0  0  0  0
 32 35  1  0  0  0  0
 32 36  1  0  0  0  0
 32 37  1  0  0  0  0
 11 14  1  0  0  0  0
 11 15  1  0  0  0  0
 11 16  1  0  0  0  0
 39 41  1  0  0  0  0
 39 42  1  0  0  0  0
 39 43  1  0  0  0  0
 21 25  1  0  0  0  0
 21 26  1  0  0  0  0
 29 34  1  0  0  0  0
  8 13  1  0  0  0  0
 18 24  1  0  0  0  0
 38 40  1  0  0  0  0
  7 12  1  0  0  0  0
 28 33  1  0  0  0  0
 17 23  1  0  0  0  0
 22 27  1  0  0  0  0
M  END
$$$$

  -OEChem-02062319033D

 43 42  0     1  0  0  0  0  0999 V2000
    0.7424   -1.0926    4.5665 C   0  0  0  0  0  0  0  0  0  0  0  0
    0.1409   -0.5364    5.4779 O   0  0  0  0  0  0  0  0  0  0  0  0
    1.7940   -2.1023    4.8871 C   0  0  0  0  0  0  0  0  0  0  0  0
    2.7935   -1.6502    4.9904 H   0  0  0  0  0  0  0  0  0  0  0  0
    1.6064   -2.6156    5.8438 H   0  0  0  0  0  0  0  0  0  0  0  0
    1.9156   -2.9078    4.1453 H   0  0  0  0  0  0  0  0  0  0  0  0
    0.5488   -0.8838    3.2109 N   0  0  0  0  0  0  0  0  0  0  0  0
   -0.4159    0.0446    2.6829 C   0  0  2  0  0  0  0  0  0  0  0  0
   -0.7551   -0.3867    1.2623 C   0  0  0  0  0  0  0  0  0  0  0  0
   -0.0106   -1.0851    0.5774 O   0  0  0  0  0  0  0  0  0  0  0  0
    0.1168    1.4689    2.7060 C   0  0  0  0  0  0  0  0  0  0  0  0
    1.1183   -1.4145    2.5542 H   0  0  0  0  0  0  0  0  0  0  0  0
   -1.3088   -0.0350    3.3125 H   0  0  0  0  0  0  0  0  0  0  0  0
    1.0116    1.5681    2.0808 H   0  0  0  0  0  0  0  0  0  0  0  0
   -0.6289    2.1775    2.3307 H   0  0  0  0  0  0  0  0  0  0  0  0
    0.3882    1.7670    3.7245 H   0  0  0  0  0  0  0  0  0  0  0  0
   -1.9689    0.1350    0.8298 N   0  0  0  0  0  0  0  0  0  0  0  0
   -2.8149   -0.5408   -0.1197 C   0  0  2  0  0  0  0  0  0  0  0  0
   -2.0300   -0.7207   -1.4144 C   0  0  0  0  0  0  0  0  0  0  0  0
   -2.0410   -1.7636   -2.0651 O   0  0  0  0  0  0  0  0  0  0  0  0
   -4.1230    0.2108   -0.3451 C   0  0  0  0  0  0  0  0  0  0  0  0
   -3.8701    1.4627   -0.9728 O   0  0  0  0  0  0  0  0  0  0  0  0
   -2.2991    1.0131    1.2243 H   0  0  0  0  0  0  0  0  0  0  0  0
   -3.0282   -1.5282    0.3055 H   0  0  0  0  0  0  0  0  0  0  0  0
   -4.6341    0.4039    0.6036 H   0  0  0  0  0  0  0  0  0  0  0  0
   -4.7916   -0.3658   -0.9931 H   0  0  0  0  0  0  0  0  0  0  0  0
   -3.4403    1.2672   -1.8205 H   0  0  0  0  0  0  0  0  0  0  0  0
   -1.3516    0.4339   -1.7786 N   0  0  0  0  0  0  0  0  0  0  0  0
   -0.5597    0.5291   -2.9829 C   0  0  2  0  0  0  0  0  0  0  0  0
   -1.2259   -0.3261   -4.0526 C   0  0  0  0  0  0  0  0  0  0  0  0
   -1.9904   -1.2524   -3.7910 O   0  0  0  0  0  0  0  0  0  0  0  0
    0.8724    0.0785   -2.7406 C   0  0  0  0  0  0  0  0  0  0  0  0
   -1.4322    1.2641   -1.1990 H   0  0  0  0  0  0  0  0  0  0  0  0
   -0.5780    1.5802   -3.2911 H   0  0  0  0  0  0  0  0  0  0  0  0
    0.9107   -0.9723   -2.4309 H   0  0  0  0  0  0  0  0  0  0  0  0
    1.4785    0.1783   -3.6470 H   0  0  0  0  0  0  0  0  0  0  0  0
    1.3402    0.6752   -1.9501 H   0  0  0  0  0  0  0  0  0  0  0  0
   -0.8326    0.0391   -5.3325 N   0  0  0  0  0  0  0  0  0  0  0  0
   -1.3161   -0.6303   -6.5175 C   0  0  0  0  0  0  0  0  0  0  0  0
   -0.2096    0.8316   -5.4568 H   0  0  0  0  0  0  0  0  0  0  0  0
   -0.6220   -1.4384   -6.7918 H   0  0  0  0  0  0  0  0  0  0  0  0
   -2.3116   -1.0538   -6.3188 H   0  0  0  0  0  0  0  0  0  0  0  0
   -1.3832    0.0917   -7.3447 H   0  0  0  0  0  0  0  0  0  0  0  0
  1  3  1  0  0  0  0
  1  7  1  0  0  0  0
  1  2  2  0  0  0  0
 29 30  1  0  0  0  0
 30 38  1  0  0  0  0
 30 31  2  0  0  0  0
  8  9  1  0  0  0  0
  9 17  1  0  0  0  0
  9 10  2  0  0  0  0
 18 19  1  0  0  0  0
 19 28  1  0  0  0  0
 19 20  2  0  0  0  0
 29 32  1  0  0  0  0
  8 11  1  0  0  0  0
 38 39  1  0  0  0  0
 18 21  1  0  0  0  0
 21 22  1  0  0  0  0
 28 29  1  0  0  0  0
  7  8  1  0  0  0  0
 17 18  1  0  0  0  0
  3  4  1  0  0  0  0
  3  5  1  0  0  0  0
  3  6  1  0  0  0  0
 32 35  1  0  0  0  0
 32 36  1  0  0  0  0
 32 37  1  0  0  0  0
 11 14  1  0  0  0  0
 11 15  1  0  0  0  0
 11 16  1  0  0  0  0
 39 41  1  0  0  0  0
 39 42  1  0  0  0  0
 39 43  1  0  0  0  0
 21 25  1  0  0  0  0
 21 26  1  0  0  0  0
 29 34  1  0  0  0  0
  8 13  1  0  0  0  0
 18 24  1  0  0  0  0
 38 40  1  0  0  0  0
  7 12  1  0  0  0  0
 28 33  1  0  0  0  0
 17 23  1  0  0  0  0
 22 27  1  0  0  0  0
M  END
$$$$

  -OEChem-02062319033D

 43 42  0     1  0  0  0  0  0999 V2000
    0.7424   -1.0926    4.5665 C   0  0  0  0  0  0  0  0  0  0  0  0
    0.1409   -0.5364    5.4779 O   0  0  0  0  0  0  0  0  0  0  0  0
    1.7940   -2.1023    4.8871 C   0  0  0  0  0  0  0  0  0  0  0  0
    2.7935   -1.6502    4.9904 H   0  0  0  0  0  0  0  0  0  0  0  0
    1.6064   -2.6156    5.8438 H   0  0  0  0  0  0  0  0  0  0  0  0
    1.9156   -2.9078    4.1453 H   0  0  0  0  0  0  0  0  0  0  0  0
    0.5488   -0.8838    3.2109 N   0  0  0  0  0  0  0  0  0  0  0  0
   -0.4159    0.0446    2.6829 C   0  0  2  0  0  0  0  0  0  0  0  0
   -0.7551   -0.3867    1.2623 C   0  0  0  0  0  0  0  0  0  0  0  0
   -0.0106   -1.0851    0.5774 O   0  0  0  0  0  0  0  0  0  0  0  0
    0.1168    1.4689    2.7060 C   0  0  0  0  0  0  0  0  0  0  0  0
    1.1183   -1.4145    2.5542 H   0  0  0  0  0  0  0  0  0  0  0  0
   -1.3088   -0.0350    3.3125 H   0  0  0  0  0  0  0  0  0  0  0  0
    1.0116    1.5681    2.0808 H   0  0  0  0  0  0  0  0  0  0  0  0
   -0.6289    2.1775    2.3307 H   0  0  0  0  0  0  0  0  0  0  0  0
    0.3882    1.7670    3.7245 H   0  0  0  0  0  0  0  0  0  0  0  0
   -1.9689    0.1350    0.8298 N   0  0  0  0  0  0  0  0  0  0  0  0
   -2.9559   -0.6542    0.1393 C   0  0  2  0  0  0  0  0  0  0  0  0
   -2.3275   -1.1882   -1.1432 C   0  0  0  0  0  0  0  0  0  0  0  0
   -2.4800   -2.3441   -1.5331 O   0  0  0  0  0  0  0  0  0  0  0  0
   -4.2253    0.1452   -0.1371 C   0  0  0  0  0  0  0  0  0  0  0  0
   -3.9544    1.1980   -1.0556 O   0  0  0  0  0  0  0  0  0  0  0  0
   -2.1936    1.1053    1.0393 H   0  0  0  0  0  0  0  0  0  0  0  0
   -3.1908   -1.4988    0.7972 H   0  0  0  0  0  0  0  0  0  0  0  0
   -4.6179    0.5902    0.7829 H   0  0  0  0  0  0  0  0  0  0  0  0
   -4.9974   -0.4970   -0.5738 H   0  0  0  0  0  0  0  0  0  0  0  0
   -3.6318    0.7806   -1.8700 H   0  0  0  0  0  0  0  0  0  0  0  0
   -1.6134   -0.2105   -1.8213 N   0  0  0  0  0  0  0  0  0  0  0  0
   -0.9494   -0.4580   -3.0800 C   0  0  2  0  0  0  0  0  0  0  0  0
   -1.7833   -1.4647   -3.8616 C   0  0  0  0  0  0  0  0  0  0  0  0
   -2.5780   -2.2357   -3.3278 O   0  0  0  0  0  0  0  0  0  0  0  0
    0.4656   -0.9730   -2.8674 C   0  0  0  0  0  0  0  0  0  0  0  0
   -1.5741    0.7315   -1.4434 H   0  0  0  0  0  0  0  0  0  0  0  0
   -0.9274    0.4955   -3.6188 H   0  0  0  0  0  0  0  0  0  0  0  0
    0.4638   -1.9278   -2.3290 H   0  0  0  0  0  0  0  0  0  0  0  0
    0.9773   -1.1330   -3.8221 H   0  0  0  0  0  0  0  0  0  0  0  0
    1.0552   -0.2611   -2.2796 H   0  0  0  0  0  0  0  0  0  0  0  0
   -1.5040   -1.4304   -5.2207 N   0  0  0  0  0  0  0  0  0  0  0  0
   -2.1561   -2.2989   -6.1728 C   0  0  0  0  0  0  0  0  0  0  0  0
   -0.8443   -0.7457   -5.5781 H   0  0  0  0  0  0  0  0  0  0  0  0
   -1.5529   -3.2079   -6.3137 H   0  0  0  0  0  0  0  0  0  0  0  0
   -3.1518   -2.5746   -5.7953 H   0  0  0  0  0  0  0  0  0  0  0  0
   -2.2606   -1.7755   -7.1346 H   0  0  0  0  0  0  0  0  0  0  0  0
  1  3  1  0  0  0  0
  1  7  1  0  0  0  0
  1  2  2  0  0  0  0
 29 30  1  0  0  0  0
 30 38  1  0  0  0  0
 30 31  2  0  0  0  0
  8  9  1  0  0  0  0
  9 17  1  0  0  0  0
  9 10  2  0  0  0  0
 18 19  1  0  0  0  0
 19 28  1  0  0  0  0
 19 20  2  0  0  0  0
 29 32  1  0  0  0  0
  8 11  1  0  0  0  0
 38 39  1  0  0  0  0
 18 21  1  0  0  0  0
 21 22  1  0  0  0  0
 28 29  1  0  0  0  0
  7  8  1  0  0  0  0
 17 18  1  0  0  0  0
  3  4  1  0  0  0  0
  3  5  1  0  0  0  0
  3  6  1  0  0  0  0
 32 35  1  0  0  0  0
 32 36  1  0  0  0  0
 32 37  1  0  0  0  0
 11 14  1  0  0  0  0
 11 15  1  0  0  0  0
 11 16  1  0  0  0  0
 39 41  1  0  0  0  0
 39 42  1  0  0  0  0
 39 43  1  0  0  0  0
 21 25  1  0  0  0  0
 21 26  1  0  0  0  0
 29 34  1  0  0  0  0
  8 13  1  0  0  0  0
 18 24  1  0  0  0  0
 38 40  1  0  0  0  0
  7 12  1  0  0  0  0
 28 33  1  0  0  0  0
 17 23  1  0  0  0  0
 22 27  1  0  0  0  0
M  END
$$$$

  -OEChem-02062319033D

 43 42  0     1  0  0  0  0  0999 V2000
    0.7424   -1.0926    4.5665 C   0  0  0  0  0  0  0  0  0  0  0  0
    0.1409   -0.5364    5.4779 O   0  0  0  0  0  0  0  0  0  0  0  0
    1.7940   -2.1023    4.8871 C   0  0  0  0  0  0  0  0  0  0  0  0
    2.7935   -1.6502    4.9904 H   0  0  0  0  0  0  0  0  0  0  0  0
    1.6064   -2.6156    5.8438 H   0  0  0  0  0  0  0  0  0  0  0  0
    1.9156   -2.9078    4.1453 H   0  0  0  0  0  0  0  0  0  0  0  0
    0.5488   -0.8838    3.2109 N   0  0  0  0  0  0  0  0  0  0  0  0
   -0.4159    0.0446    2.6829 C   0  0  2  0  0  0  0  0  0  0  0  0
   -0.7551   -0.3867    1.2623 C   0  0  0  0  0  0  0  0  0  0  0  0
   -0.0106   -1.0851    0.5774 O   0  0  0  0  0  0  0  0  0  0  0  0
    0.1168    1.4689    2.7060 C   0  0  0  0  0  0  0  0  0  0  0  0
    1.1183   -1.4145    2.5542 H   0  0  0  0  0  0  0  0  0  0  0  0
   -1.3088   -0.0350    3.3125 H   0  0  0  0  0  0  0  0  0  0  0  0
    1.0116    1.5681    2.0808 H   0  0  0  0  0  0  0  0  0  0  0  0
   -0.6289    2.1775    2.3307 H   0  0  0  0  0  0  0  0  0  0  0  0
    0.3882    1.7670    3.7245 H   0  0  0  0  0  0  0  0  0  0  0  0
   -1.9689    0.1350    0.8298 N   0  0  0  0  0  0  0  0  0  0  0  0
   -3.0761   -0.6939    0.4287 C   0  0  2  0  0  0  0  0  0  0  0  0
   -2.6263   -1.5547   -0.7467 C   0  0  0  0  0  0  0  0  0  0  0  0
   -2.8992   -2.7492   -0.8454 O   0  0  0  0  0  0  0  0  0  0  0  0
   -4.3091    0.1372    0.0886 C   0  0  0  0  0  0  0  0  0  0  0  0
   -4.0652    0.9303   -1.0675 O   0  0  0  0  0  0  0  0  0  0  0  0
   -2.1022    1.1440    0.8294 H   0  0  0  0  0  0  0  0  0  0  0  0
   -3.2976   -1.3462    1.2813 H   0  0  0  0  0  0  0  0  0  0  0  0
   -4.5699    0.8093    0.9124 H   0  0  0  0  0  0  0  0  0  0  0  0
   -5.1660   -0.5125   -0.1191 H   0  0  0  0  0  0  0  0  0  0  0  0
   -3.8607    0.3148   -1.7893 H   0  0  0  0  0  0  0  0  0  0  0  0
   -1.9222   -0.8216   -1.6915 N   0  0  0  0  0  0  0  0  0  0  0  0
   -1.4147   -1.4022   -2.9129 C   0  0  2  0  0  0  0  0  0  0  0  0
   -2.3948   -2.4764   -3.3657 C   0  0  0  0  0  0  0  0  0  0  0  0
   -3.1798   -3.0335   -2.6012 O   0  0  0  0  0  0  0  0  0  0  0  0
   -0.0242   -1.9845   -2.7127 C   0  0  0  0  0  0  0  0  0  0  0  0
   -1.7777    0.1731   -1.5453 H   0  0  0  0  0  0  0  0  0  0  0  0
   -1.3841   -0.5982   -3.6564 H   0  0  0  0  0  0  0  0  0  0  0  0
   -0.0350   -2.7917   -1.9711 H   0  0  0  0  0  0  0  0  0  0  0  0
    0.3706   -2.3987   -3.6463 H   0  0  0  0  0  0  0  0  0  0  0  0
    0.6724   -1.2171   -2.3585 H   0  0  0  0  0  0  0  0  0  0  0  0
   -2.2600   -2.7704   -4.7153 N   0  0  0  0  0  0  0  0  0  0  0  0
   -3.0683   -3.7651   -5.3811 C   0  0  0  0  0  0  0  0  0  0  0  0
   -1.5961   -2.2457   -5.2772 H   0  0  0  0  0  0  0  0  0  0  0  0
   -2.5480   -4.7341   -5.3617 H   0  0  0  0  0  0  0  0  0  0  0  0
   -4.0349   -3.8577   -4.8643 H   0  0  0  0  0  0  0  0  0  0  0  0
   -3.2380   -3.4610   -6.4245 H   0  0  0  0  0  0  0  0  0  0  0  0
  1  3  1  0  0  0  0
  1  7  1  0  0  0  0
  1  2  2  0  0  0  0
 29 30  1  0  0  0  0
 30 38  1  0  0  0  0
 30 31  2  0  0  0  0
  8  9  1  0  0  0  0
  9 17  1  0  0  0  0
  9 10  2  0  0  0  0
 18 19  1  0  0  0  0
 19 28  1  0  0  0  0
 19 20  2  0  0  0  0
 29 32  1  0  0  0  0
  8 11  1  0  0  0  0
 38 39  1  0  0  0  0
 18 21  1  0  0  0  0
 21 22  1  0  0  0  0
 28 29  1  0  0  0  0
  7  8  1  0  0  0  0
 17 18  1  0  0  0  0
  3  4  1  0  0  0  0
  3  5  1  0  0  0  0
  3  6  1  0  0  0  0
 32 35  1  0  0  0  0
 32 36  1  0  0  0  0
 32 37  1  0  0  0  0
 11 14  1  0  0  0  0
 11 15  1  0  0  0  0
 11 16  1  0  0  0  0
 39 41  1  0  0  0  0
 39 42  1  0  0  0  0
 39 43  1  0  0  0  0
 21 25  1  0  0  0  0
 21 26  1  0  0  0  0
 29 34  1  0  0  0  0
  8 13  1  0  0  0  0
 18 24  1  0  0  0  0
 38 40  1  0  0  0  0
  7 12  1  0  0  0  0
 28 33  1  0  0  0  0
 17 23  1  0  0  0  0
 22 27  1  0  0  0  0
M  END
$$$$

  -OEChem-02062319033D

 43 42  0     1  0  0  0  0  0999 V2000
    0.7424   -1.0926    4.5665 C   0  0  0  0  0  0  0  0  0  0  0  0
    0.1409   -0.5364    5.4779 O   0  0  0  0  0  0  0  0  0  0  0  0
    1.7940   -2.1023    4.8871 C   0  0  0  0  0  0  0  0  0  0  0  0
    2.7935   -1.6502    4.9904 H   0  0  0  0  0  0  0  0  0  0  0  0
    1.6064   -2.6156    5.8438 H   0  0  0  0  0  0  0  0  0  0  0  0
    1.9156   -2.9078    4.1453 H   0  0  0  0  0  0  0  0  0  0  0  0
    0.5488   -0.8838    3.2109 N   0  0  0  0  0  0  0  0  0  0  0  0
   -0.4159    0.0446    2.6829 C   0  0  2  0  0  0  0  0  0  0  0  0
   -0.7551   -0.3867    1.2623 C   0  0  0  0  0  0  0  0  0  0  0  0
   -0.0106   -1.0851    0.5774 O   0  0  0  0  0  0  0  0  0  0  0  0
    0.1168    1.4689    2.7060 C   0  0  0  0  0  0  0  0  0  0  0  0
    1.1183   -1.4145    2.5542 H   0  0  0  0  0  0  0  0  0  0  0  0
   -1.3088   -0.0350    3.3125 H   0  0  0  0  0  0  0  0  0  0  0  0
    1.0116    1.5681    2.0808 H   0  0  0  0  0  0  0  0  0  0  0  0
   -0.6289    2.1775    2.3307 H   0  0  0  0  0  0  0  0  0  0  0  0
    0.3882    1.7670    3.7245 H   0  0  0  0  0  0  0  0  0  0  0  0
   -1.9689    0.1350    0.8298 N   0  0  0  0  0  0  0  0  0  0  0  0
   -3.1673   -0.6571    0.7290 C   0  0  2  0  0  0  0  0  0  0  0  0
   -2.9059   -1.7949   -0.2519 C   0  0  0  0  0  0  0  0  0  0  0  0
   -3.2699   -2.9514   -0.0488 O   0  0  0  0  0  0  0  0  0  0  0  0
   -4.3689    0.1871    0.3165 C   0  0  0  0  0  0  0  0  0  0  0  0
   -4.1949    0.6780   -1.0078 O   0  0  0  0  0  0  0  0  0  0  0  0
   -2.0312    1.1266    0.6091 H   0  0  0  0  0  0  0  0  0  0  0  0
   -3.3416   -1.0808    1.7247 H   0  0  0  0  0  0  0  0  0  0  0  0
   -4.4933    1.0464    0.9833 H   0  0  0  0  0  0  0  0  0  0  0  0
   -5.2860   -0.4110    0.3399 H   0  0  0  0  0  0  0  0  0  0  0  0
   -4.1116   -0.0985   -1.5838 H   0  0  0  0  0  0  0  0  0  0  0  0
   -2.2572   -1.3576   -1.3980 N   0  0  0  0  0  0  0  0  0  0  0  0
   -1.9240   -2.2389   -2.4929 C   0  0  2  0  0  0  0  0  0  0  0  0
   -3.0188   -3.2923   -2.5986 C   0  0  0  0  0  0  0  0  0  0  0  0
   -3.7547   -3.5914   -1.6605 O   0  0  0  0  0  0  0  0  0  0  0  0
   -0.5639   -2.8873   -2.2871 C   0  0  0  0  0  0  0  0  0  0  0  0
   -2.0293   -0.3728   -1.4978 H   0  0  0  0  0  0  0  0  0  0  0  0
   -1.9169   -1.6263   -3.4011 H   0  0  0  0  0  0  0  0  0  0  0  0
   -0.5516   -3.5051   -1.3819 H   0  0  0  0  0  0  0  0  0  0  0  0
   -0.3002   -3.5328   -3.1314 H   0  0  0  0  0  0  0  0  0  0  0  0
    0.2181   -2.1275   -2.1816 H   0  0  0  0  0  0  0  0  0  0  0  0
   -3.0490   -3.8898   -3.8510 N   0  0  0  0  0  0  0  0  0  0  0  0
   -3.9906   -4.9290   -4.1965 C   0  0  0  0  0  0  0  0  0  0  0  0
   -2.4139   -3.5659   -4.5745 H   0  0  0  0  0  0  0  0  0  0  0  0
   -3.5397   -5.9130   -4.0006 H   0  0  0  0  0  0  0  0  0  0  0  0
   -4.9009   -4.8155   -3.5894 H   0  0  0  0  0  0  0  0  0  0  0  0
   -4.2489   -4.8499   -5.2628 H   0  0  0  0  0  0  0  0  0  0  0  0
  1  3  1  0  0  0  0
  1  7  1  0  0  0  0
  1  2  2  0  0  0  0
 29 30  1  0  0  0  0
 30 38  1  0  0  0  0
 30 31  2  0  0  0  0
  8  9  1  0  0  0  0
  9 17  1  0  0  0  0
  9 10  2  0  0  0  0
 18 19  1  0  0  0  0
 19 28  1  0  0  0  0
 19 20  2  0  0  0  0
 29 32  1  0  0  0  0
  8 11  1  0  0  0  0
 38 39  1  0  0  0  0
 18 21  1  0  0  0  0
 21 22  1  0  0  0  0
 28 29  1  0  0  0  0
  7  8  1  0  0  0  0
 17 18  1  0  0  0  0
  3  4  1  0  0  0  0
  3  5  1  0  0  0  0
  3  6  1  0  0  0  0
 32 35  1  0  0  0  0
 32 36  1  0  0  0  0
 32 37  1  0  0  0  0
 11 14  1  0  0  0  0
 11 15  1  0  0  0  0
 11 16  1  0  0  0  0
 39 41  1  0  0  0  0
 39 42  1  0  0  0  0
 39 43  1  0  0  0  0
 21 25  1  0  0  0  0
 21 26  1  0  0  0  0
 29 34  1  0  0  0  0
  8 13  1  0  0  0  0
 18 24  1  0  0  0  0
 38 40  1  0  0  0  0
  7 12  1  0  0  0  0
 28 33  1  0  0  0  0
 17 23  1  0  0  0  0
 22 27  1  0  0  0  0
M  END
$$$$

  -OEChem-02062319033D

 43 42  0     1  0  0  0  0  0999 V2000
    0.7424   -1.0926    4.5665 C   0  0  0  0  0  0  0  0  0  0  0  0
    0.1409   -0.5364    5.4779 O   0  0  0  0  0  0  0  0  0  0  0  0
    1.7940   -2.1023    4.8871 C   0  0  0  0  0  0  0  0  0  0  0  0
    2.7935   -1.6502    4.9904 H   0  0  0  0  0  0  0  0  0  0  0  0
    1.6064   -2.6156    5.8438 H   0  0  0  0  0  0  0  0  0  0  0  0
    1.9156   -2.9078    4.1453 H   0  0  0  0  0  0  0  0  0  0  0  0
    0.5488   -0.8838    3.2109 N   0  0  0  0  0  0  0  0  0  0  0  0
   -0.4159    0.0446    2.6829 C   0  0  2  0  0  0  0  0  0  0  0  0
   -0.7551   -0.3867    1.2623 C   0  0  0  0  0  0  0  0  0  0  0  0
   -0.0106   -1.0851    0.5774 O   0  0  0  0  0  0  0  0  0  0  0  0
    0.1168    1.4689    2.7060 C   0  0  0  0  0  0  0  0  0  0  0  0
    1.1183   -1.4145    2.5542 H   0  0  0  0  0  0  0  0  0  0  0  0
   -1.3088   -0.0350    3.3125 H   0  0  0  0  0  0  0  0  0  0  0  0
    1.0116    1.5681    2.0808 H   0  0  0  0  0  0  0  0  0  0  0  0
   -0.6289    2.1775    2.3307 H   0  0  0  0  0  0  0  0  0  0  0  0
    0.3882    1.7670    3.7245 H   0  0  0  0  0  0  0  0  0  0  0  0
   -1.9689    0.1350    0.8298 N   0  0  0  0  0  0  0  0  0  0  0  0
   -3.2233   -0.5464    1.0195 C   0  0  2  0  0  0  0  0  0  0  0  0
   -3.1472   -1.8926    0.3075 C   0  0  0  0  0  0  0  0  0  0  0  0
   -3.5669   -2.9368    0.8023 O   0  0  0  0  0  0  0  0  0  0  0  0
   -4.4004    0.2917    0.5312 C   0  0  0  0  0  0  0  0  0  0  0  0
   -4.3347    0.4583   -0.8806 O   0  0  0  0  0  0  0  0  0  0  0  0
   -1.9853    1.0543    0.3933 H   0  0  0  0  0  0  0  0  0  0  0  0
   -3.3196   -0.7206    2.0974 H   0  0  0  0  0  0  0  0  0  0  0  0
   -4.3933    1.2853    0.9908 H   0  0  0  0  0  0  0  0  0  0  0  0
   -5.3491   -0.1997    0.7720 H   0  0  0  0  0  0  0  0  0  0  0  0
   -4.3672   -0.4310   -1.2675 H   0  0  0  0  0  0  0  0  0  0  0  0
   -2.5954   -1.7821   -0.9609 N   0  0  0  0  0  0  0  0  0  0  0  0
   -2.4425   -2.9112   -1.8487 C   0  0  2  0  0  0  0  0  0  0  0  0
   -3.6127   -3.8569   -1.6127 C   0  0  0  0  0  0  0  0  0  0  0  0
   -4.2636   -3.8714   -0.5700 O   0  0  0  0  0  0  0  0  0  0  0  0
   -1.1164   -3.6196   -1.6197 C   0  0  0  0  0  0  0  0  0  0  0  0
   -2.3116   -0.8691   -1.3041 H   0  0  0  0  0  0  0  0  0  0  0  0
   -2.4896   -2.5188   -2.8704 H   0  0  0  0  0  0  0  0  0  0  0  0
   -1.0509   -4.0195   -0.6012 H   0  0  0  0  0  0  0  0  0  0  0  0
   -0.9895   -4.4578   -2.3127 H   0  0  0  0  0  0  0  0  0  0  0  0
   -0.2769   -2.9303   -1.7608 H   0  0  0  0  0  0  0  0  0  0  0  0
   -3.8174   -4.7121   -2.6865 N   0  0  0  0  0  0  0  0  0  0  0  0
   -4.8602   -5.7112   -2.6996 C   0  0  0  0  0  0  0  0  0  0  0  0
   -3.2419   -4.6166   -3.5180 H   0  0  0  0  0  0  0  0  0  0  0  0
   -4.4603   -6.6643   -2.3231 H   0  0  0  0  0  0  0  0  0  0  0  0
   -5.6906   -5.3828   -2.0573 H   0  0  0  0  0  0  0  0  0  0  0  0
   -5.2243   -5.8475   -3.7286 H   0  0  0  0  0  0  0  0  0  0  0  0
  1  3  1  0  0  0  0
  1  7  1  0  0  0  0
  1  2  2  0  0  0  0
 29 30  1  0  0  0  0
 30 38  1  0  0  0  0
 30 31  2  0  0  0  0
  8  9  1  0  0  0  0
  9 17  1  0  0  0  0
  9 10  2  0  0  0  0
 18 19  1  0  0  0  0
 19 28  1  0  0  0  0
 19 20  2  0  0  0  0
 29 32  1  0  0  0  0
  8 11  1  0  0  0  0
 38 39  1  0  0  0  0
 18 21  1  0  0  0  0
 21 22  1  0  0  0  0
 28 29  1  0  0  0  0
  7  8  1  0  0  0  0
 17 18  1  0  0  0  0
  3  4  1  0  0  0  0
  3  5  1  0  0  0  0
  3  6  1  0  0  0  0
 32 35  1  0  0  0  0
 32 36  1  0  0  0  0
 32 37  1  0  0  0  0
 11 14  1  0  0  0  0
 11 15  1  0  0  0  0
 11 16  1  0  0  0  0
 39 41  1  0  0  0  0
 39 42  1  0  0  0  0
 39 43  1  0  0  0  0
 21 25  1  0  0  0  0
 21 26  1  0  0  0  0
 29 34  1  0  0  0  0
  8 13  1  0  0  0  0
 18 24  1  0  0  0  0
 38 40  1  0  0  0  0
  7 12  1  0  0  0  0
 28 33  1  0  0  0  0
 17 23  1  0  0  0  0
 22 27  1  0  0  0  0
M  END
$$$$

  -OEChem-02062319033D

 43 42  0     1  0  0  0  0  0999 V2000
    0.7424   -1.0926    4.5665 C   0  0  0  0  0  0  0  0  0  0  0  0
    0.1409   -0.5364    5.4779 O   0  0  0  0  0  0  0  0  0  0  0  0
    1.7940   -2.1023    4.8871 C   0  0  0  0  0  0  0  0  0  0  0  0
    2.7935   -1.6502    4.9904 H   0  0  0  0  0  0  0  0  0  0  0  0
    1.6064   -2.6156    5.8438 H   0  0  0  0  0  0  0  0  0  0  0  0
    1.9156   -2.9078    4.1453 H   0  0  0  0  0  0  0  0  0  0  0  0
    0.5488   -0.8838    3.2109 N   0  0  0  0  0  0  0  0  0  0  0  0
   -0.4159    0.0446    2.6829 C   0  0  2  0  0  0  0  0  0  0  0  0
   -0.7551   -0.3867    1.2623 C   0  0  0  0  0  0  0  0  0  0  0  0
   -0.0106   -1.0851    0.5774 O   0  0  0  0  0  0  0  0  0  0  0  0
    0.1168    1.4689    2.7060 C   0  0  0  0  0  0  0  0  0  0  0  0
    1.1183   -1.4145    2.5542 H   0  0  0  0  0  0  0  0  0  0  0  0
   -1.3088   -0.0350    3.3125 H   0  0  0  0  0  0  0  0  0  0  0  0
    1.0116    1.5681    2.0808 H   0  0  0  0  0  0  0  0  0  0  0  0
   -0.6289    2.1775    2.3307 H   0  0  0  0  0  0  0  0  0  0  0  0
    0.3882    1.7670    3.7245 H   0  0  0  0  0  0  0  0  0  0  0  0
   -1.9689    0.1350    0.8298 N   0  0  0  0  0  0  0  0  0  0  0  0
   -3.2402   -0.3693    1.2806 C   0  0  2  0  0  0  0  0  0  0  0  0
   -3.3339   -1.8412    0.8934 C   0  0  0  0  0  0  0  0  0  0  0  0
   -3.7699   -2.7064    1.6499 O   0  0  0  0  0  0  0  0  0  0  0  0
   -4.4016    0.4438    0.7180 C   0  0  0  0  0  0  0  0  0  0  0  0
   -4.4751    0.2860   -0.6944 O   0  0  0  0  0  0  0  0  0  0  0  0
   -1.9679    0.9320    0.1968 H   0  0  0  0  0  0  0  0  0  0  0  0
   -3.2331   -0.2903    2.3738 H   0  0  0  0  0  0  0  0  0  0  0  0
   -4.2767    1.5096    0.9344 H   0  0  0  0  0  0  0  0  0  0  0  0
   -5.3511    0.1072    1.1478 H   0  0  0  0  0  0  0  0  0  0  0  0
   -4.6101   -0.6602   -0.8621 H   0  0  0  0  0  0  0  0  0  0  0  0
   -2.9138   -2.0660   -0.4099 N   0  0  0  0  0  0  0  0  0  0  0  0
   -2.9349   -3.3732   -1.0242 C   0  0  2  0  0  0  0  0  0  0  0  0
   -4.1361   -4.1315   -0.4751 C   0  0  0  0  0  0  0  0  0  0  0  0
   -4.6719   -3.8545    0.5960 O   0  0  0  0  0  0  0  0  0  0  0  0
   -1.6443   -4.1316   -0.7558 C   0  0  0  0  0  0  0  0  0  0  0  0
   -2.6055   -1.2821   -0.9774 H   0  0  0  0  0  0  0  0  0  0  0  0
   -3.0630   -3.2148   -2.1005 H   0  0  0  0  0  0  0  0  0  0  0  0
   -1.4987   -4.2997    0.3175 H   0  0  0  0  0  0  0  0  0  0  0  0
   -1.6503   -5.1108   -1.2459 H   0  0  0  0  0  0  0  0  0  0  0  0
   -0.7788   -3.5708   -1.1248 H   0  0  0  0  0  0  0  0  0  0  0  0
   -4.5126   -5.1813   -1.3012 N   0  0  0  0  0  0  0  0  0  0  0  0
   -5.6177   -6.0585   -0.9925 C   0  0  0  0  0  0  0  0  0  0  0  0
   -4.0237   -5.3260   -2.1797 H   0  0  0  0  0  0  0  0  0  0  0  0
   -5.2471   -6.9368   -0.4435 H   0  0  0  0  0  0  0  0  0  0  0  0
   -6.3503   -5.5210   -0.3725 H   0  0  0  0  0  0  0  0  0  0  0  0
   -6.0978   -6.3859   -1.9265 H   0  0  0  0  0  0  0  0  0  0  0  0
  1  3  1  0  0  0  0
  1  7  1  0  0  0  0
  1  2  2  0  0  0  0
 29 30  1  0  0  0  0
 30 38  1  0  0  0  0
 30 31  2  0  0  0  0
  8  9  1  0  0  0  0
  9 17  1  0  0  0  0
  9 10  2  0  0  0  0
 18 19  1  0  0  0  0
 19 28  1  0  0  0  0
 19 20  2  0  0  0  0
 29 32  1  0  0  0  0
  8 11  1  0  0  0  0
 38 39  1  0  0  0  0
 18 21  1  0  0  0  0
 21 22  1  0  0  0  0
 28 29  1  0  0  0  0
  7  8  1  0  0  0  0
 17 18  1  0  0  0  0
  3  4  1  0  0  0  0
  3  5  1  0  0  0  0
  3  6  1  0  0  0  0
 32 35  1  0  0  0  0
 32 36  1  0  0  0  0
 32 37  1  0  0  0  0
 11 14  1  0  0  0  0
 11 15  1  0  0  0  0
 11 16  1  0  0  0  0
 39 41  1  0  0  0  0
 39 42  1  0  0  0  0
 39 43  1  0  0  0  0
 21 25  1  0  0  0  0
 21 26  1  0  0  0  0
 29 34  1  0  0  0  0
  8 13  1  0  0  0  0
 18 24  1  0  0  0  0
 38 40  1  0  0  0  0
  7 12  1  0  0  0  0
 28 33  1  0  0  0  0
 17 23  1  0  0  0  0
 22 27  1  0  0  0  0
M  END
$$$$

  -OEChem-02062319033D

 43 42  0     1  0  0  0  0  0999 V2000
    0.7424   -1.0926    4.5665 C   0  0  0  0  0  0  0  0  0  0  0  0
    0.1409   -0.5364    5.4779 O   0  0  0  0  0  0  0  0  0  0  0  0
    1.7940   -2.1023    4.8871 C   0  0  0  0  0  0  0  0  0  0  0  0
    2.7935   -1.6502    4.9904 H   0  0  0  0  0  0  0  0  0  0  0  0
    1.6064   -2.6156    5.8438 H   0  0  0  0  0  0  0  0  0  0  0  0
    1.9156   -2.9078    4.1453 H   0  0  0  0  0  0  0  0  0  0  0  0
    0.5488   -0.8838    3.2109 N   0  0  0  0  0  0  0  0  0  0  0  0
   -0.4159    0.0446    2.6829 C   0  0  2  0  0  0  0  0  0  0  0  0
   -0.7551   -0.3867    1.2623 C   0  0  0  0  0  0  0  0  0  0  0  0
   -0.0106   -1.0851    0.5774 O   0  0  0  0  0  0  0  0  0  0  0  0
    0.1168    1.4689    2.7060 C   0  0  0  0  0  0  0  0  0  0  0  0
    1.1183   -1.4145    2.5542 H   0  0  0  0  0  0  0  0  0  0  0  0
   -1.3088   -0.0350    3.3125 H   0  0  0  0  0  0  0  0  0  0  0  0
    1.0116    1.5681    2.0808 H   0  0  0  0  0  0  0  0  0  0  0  0
   -0.6289    2.1775    2.3307 H   0  0  0  0  0  0  0  0  0  0  0  0
    0.3882    1.7670    3.7245 H   0  0  0  0  0  0  0  0  0  0  0  0
   -1.9689    0.1350    0.8298 N   0  0  0  0  0  0  0  0  0  0  0  0
   -3.2169   -0.1379    1.4944 C   0  0  2  0  0  0  0  0  0  0  0  0
   -3.4531   -1.6440    1.4659 C   0  0  0  0  0  0  0  0  0  0  0  0
   -3.8651   -2.2760    2.4364 O   0  0  0  0  0  0  0  0  0  0  0  0
   -4.3724    0.6330    0.8642 C   0  0  0  0  0  0  0  0  0  0  0  0
   -4.6064    0.1730   -0.4620 O   0  0  0  0  0  0  0  0  0  0  0  0
   -1.9799    0.7680    0.0329 H   0  0  0  0  0  0  0  0  0  0  0  0
   -3.0881    0.1808    2.5352 H   0  0  0  0  0  0  0  0  0  0  0  0
   -4.1516    1.7042    0.8178 H   0  0  0  0  0  0  0  0  0  0  0  0
   -5.2918    0.4887    1.4416 H   0  0  0  0  0  0  0  0  0  0  0  0
   -4.8239   -0.7703   -0.3951 H   0  0  0  0  0  0  0  0  0  0  0  0
   -3.1906   -2.1902    0.2174 N   0  0  0  0  0  0  0  0  0  0  0  0
   -3.3676   -3.5935   -0.0755 C   0  0  2  0  0  0  0  0  0  0  0  0
   -4.5533   -4.0976    0.7366 C   0  0  0  0  0  0  0  0  0  0  0  0
   -4.9515   -3.5418    1.7581 O   0  0  0  0  0  0  0  0  0  0  0  0
   -2.1115   -4.3885    0.2456 C   0  0  0  0  0  0  0  0  0  0  0  0
   -2.8909   -1.5834   -0.5400 H   0  0  0  0  0  0  0  0  0  0  0  0
   -3.5982   -3.6670   -1.1439 H   0  0  0  0  0  0  0  0  0  0  0  0
   -1.8645   -4.3267    1.3118 H   0  0  0  0  0  0  0  0  0  0  0  0
   -2.2375   -5.4473   -0.0036 H   0  0  0  0  0  0  0  0  0  0  0  0
   -1.2534   -4.0054   -0.3170 H   0  0  0  0  0  0  0  0  0  0  0  0
   -5.0875   -5.2655    0.2105 N   0  0  0  0  0  0  0  0  0  0  0  0
   -6.2116   -5.9472    0.8085 C   0  0  0  0  0  0  0  0  0  0  0  0
   -4.7060   -5.6459   -0.6507 H   0  0  0  0  0  0  0  0  0  0  0  0
   -5.8465   -6.7119    1.5100 H   0  0  0  0  0  0  0  0  0  0  0  0
   -6.8350   -5.2206    1.3502 H   0  0  0  0  0  0  0  0  0  0  0  0
   -6.8098   -6.4283    0.0207 H   0  0  0  0  0  0  0  0  0  0  0  0
  1  3  1  0  0  0  0
  1  7  1  0  0  0  0
  1  2  2  0  0  0  0
 29 30  1  0  0  0  0
 30 38  1  0  0  0  0
 30 31  2  0  0  0  0
  8  9  1  0  0  0  0
  9 17  1  0  0  0  0
  9 10  2  0  0  0  0
 18 19  1  0  0  0  0
 19 28  1  0  0  0  0
 19 20  2  0  0  0  0
 29 32  1  0  0  0  0
  8 11  1  0  0  0  0
 38 39  1  0  0  0  0
 18 21  1  0  0  0  0
 21 22  1  0  0  0  0
 28 29  1  0  0  0  0
  7  8  1  0  0  0  0
 17 18  1  0  0  0  0
  3  4  1  0  0  0  0
  3  5  1  0  0  0  0
  3  6  1  0  0  0  0
 32 35  1  0  0  0  0
 32 36  1  0  0  0  0
 32 37  1  0  0  0  0
 11 14  1  0  0  0  0
 11 15  1  0  0  0  0
 11 16  1  0  0  0  0
 39 41  1  0  0  0  0
 39 42  1  0  0  0  0
 39 43  1  0  0  0  0
 21 25  1  0  0  0  0
 21 26  1  0  0  0  0
 29 34  1  0  0  0  0
  8 13  1  0  0  0  0
 18 24  1  0  0  0  0
 38 40  1  0  0  0  0
  7 12  1  0  0  0  0
 28 33  1  0  0  0  0
 17 23  1  0  0  0  0
 22 27  1  0  0  0  0
M  END
$$$$

  -OEChem-02062319033D

 43 42  0     1  0  0  0  0  0999 V2000
    0.7424   -1.0926    4.5665 C   0  0  0  0  0  0  0  0  0  0  0  0
    0.1409   -0.5364    5.4779 O   0  0  0  0  0  0  0  0  0  0  0  0
    1.7940   -2.1023    4.8871 C   0  0  0  0  0  0  0  0  0  0  0  0
    2.7935   -1.6502    4.9904 H   0  0  0  0  0  0  0  0  0  0  0  0
    1.6064   -2.6156    5.8438 H   0  0  0  0  0  0  0  0  0  0  0  0
    1.9156   -2.9078    4.1453 H   0  0  0  0  0  0  0  0  0  0  0  0
    0.5488   -0.8838    3.2109 N   0  0  0  0  0  0  0  0  0  0  0  0
   -0.4159    0.0446    2.6829 C   0  0  2  0  0  0  0  0  0  0  0  0
   -0.7551   -0.3867    1.2623 C   0  0  0  0  0  0  0  0  0  0  0  0
   -0.0106   -1.0851    0.5774 O   0  0  0  0  0  0  0  0  0  0  0  0
    0.1168    1.4689    2.7060 C   0  0  0  0  0  0  0  0  0  0  0  0
    1.1183   -1.4145    2.5542 H   0  0  0  0  0  0  0  0  0  0  0  0
   -1.3088   -0.0350    3.3125 H   0  0  0  0  0  0  0  0  0  0  0  0
    1.0116    1.5681    2.0808 H   0  0  0  0  0  0  0  0  0  0  0  0
   -0.6289    2.1775    2.3307 H   0  0  0  0  0  0  0  0  0  0  0  0
    0.3882    1.7670    3.7245 H   0  0  0  0  0  0  0  0  0  0  0  0
   -1.9689    0.1350    0.8298 N   0  0  0  0  0  0  0  0  0  0  0  0
   -3.1550    0.1321    1.6464 C   0  0  2  0  0  0  0  0  0  0  0  0
   -3.4968   -1.3147    1.9858 C   0  0  0  0  0  0  0  0  0  0  0  0
   -3.8461   -1.6749    3.1080 O   0  0  0  0  0  0  0  0  0  0  0  0
   -4.3147    0.8464    0.9598 C   0  0  0  0  0  0  0  0  0  0  0  0
   -4.7199    0.1269   -0.1992 O   0  0  0  0  0  0  0  0  0  0  0  0
   -2.0207    0.5736   -0.0872 H   0  0  0  0  0  0  0  0  0  0  0  0
   -2.8945    0.6607    2.5705 H   0  0  0  0  0  0  0  0  0  0  0  0
   -4.0263    1.8557    0.6491 H   0  0  0  0  0  0  0  0  0  0  0  0
   -5.1753    0.9189    1.6334 H   0  0  0  0  0  0  0  0  0  0  0  0
   -4.9939   -0.7540    0.1017 H   0  0  0  0  0  0  0  0  0  0  0  0
   -3.4072   -2.1460    0.8783 N   0  0  0  0  0  0  0  0  0  0  0  0
   -3.7112   -3.5571    0.9327 C   0  0  2  0  0  0  0  0  0  0  0  0
   -4.8358   -3.7574    1.9399 C   0  0  0  0  0  0  0  0  0  0  0  0
   -5.0836   -2.9546    2.8372 O   0  0  0  0  0  0  0  0  0  0  0  0
   -2.4862   -4.3727    1.3164 C   0  0  0  0  0  0  0  0  0  0  0  0
   -3.1483   -1.7527   -0.0216 H   0  0  0  0  0  0  0  0  0  0  0  0
   -4.0587   -3.8445   -0.0656 H   0  0  0  0  0  0  0  0  0  0  0  0
   -2.1236   -4.0987    2.3138 H   0  0  0  0  0  0  0  0  0  0  0  0
   -2.7111   -5.4442    1.3293 H   0  0  0  0  0  0  0  0  0  0  0  0
   -1.6683   -4.2044    0.6075 H   0  0  0  0  0  0  0  0  0  0  0  0
   -5.5027   -4.9590    1.7455 N   0  0  0  0  0  0  0  0  0  0  0  0
   -6.6013   -5.3849    2.5806 C   0  0  0  0  0  0  0  0  0  0  0  0
   -5.2423   -5.5543    0.9648 H   0  0  0  0  0  0  0  0  0  0  0  0
   -6.2176   -6.0049    3.4043 H   0  0  0  0  0  0  0  0  0  0  0  0
   -7.1117   -4.5022    2.9933 H   0  0  0  0  0  0  0  0  0  0  0  0
   -7.3119   -5.9720    1.9803 H   0  0  0  0  0  0  0  0  0  0  0  0
  1  3  1  0  0  0  0
  1  7  1  0  0  0  0
  1  2  2  0  0  0  0
 29 30  1  0  0  0  0
 30 38  1  0  0  0  0
 30 31  2  0  0  0  0
  8  9  1  0  0  0  0
  9 17  1  0  0  0  0
  9 10  2  0  0  0  0
 18 19  1  0  0  0  0
 19 28  1  0  0  0  0
 19 20  2  0  0  0  0
 29 32  1  0  0  0  0
  8 11  1  0  0  0  0
 38 39  1  0  0  0  0
 18 21  1  0  0  0  0
 21 22  1  0  0  0  0
 28 29  1  0  0  0  0
  7  8  1  0  0  0  0
 17 18  1  0  0  0  0
  3  4  1  0  0  0  0
  3  5  1  0  0  0  0
  3  6  1  0  0  0  0
 32 35  1  0  0  0  0
 32 36  1  0  0  0  0
 32 37  1  0  0  0  0
 11 14  1  0  0  0  0
 11 15  1  0  0  0  0
 11 16  1  0  0  0  0
 39 41  1  0  0  0  0
 39 42  1  0  0  0  0
 39 43  1  0  0  0  0
 21 25  1  0  0  0  0
 21 26  1  0  0  0  0
 29 34  1  0  0  0  0
  8 13  1  0  0  0  0
 18 24  1  0  0  0  0
 38 40  1  0  0  0  0
  7 12  1  0  0  0  0
 28 33  1  0  0  0  0
 17 23  1  0  0  0  0
 22 27  1  0  0  0  0
M  END
$$$$

  -OEChem-02062319033D

 43 42  0     1  0  0  0  0  0999 V2000
    0.7424   -1.0926    4.5665 C   0  0  0  0  0  0  0  0  0  0  0  0
    0.1409   -0.5364    5.4779 O   0  0  0  0  0  0  0  0  0  0  0  0
    1.7940   -2.1023    4.8871 C   0  0  0  0  0  0  0  0  0  0  0  0
    2.7935   -1.6502    4.9904 H   0  0  0  0  0  0  0  0  0  0  0  0
    1.6064   -2.6156    5.8438 H   0  0  0  0  0  0  0  0  0  0  0  0
    1.9156   -2.9078    4.1453 H   0  0  0  0  0  0  0  0  0  0  0  0
    0.5488   -0.8838    3.2109 N   0  0  0  0  0  0  0  0  0  0  0  0
   -0.4159    0.0446    2.6829 C   0  0  2  0  0  0  0  0  0  0  0  0
   -0.7551   -0.3867    1.2623 C   0  0  0  0  0  0  0  0  0  0  0  0
   -0.0106   -1.0851    0.5774 O   0  0  0  0  0  0  0  0  0  0  0  0
    0.1168    1.4689    2.7060 C   0  0  0  0  0  0  0  0  0  0  0  0
    1.1183   -1.4145    2.5542 H   0  0  0  0  0  0  0  0  0  0  0  0
   -1.3088   -0.0350    3.3125 H   0  0  0  0  0  0  0  0  0  0  0  0
    1.0116    1.5681    2.0808 H   0  0  0  0  0  0  0  0  0  0  0  0
   -0.6289    2.1775    2.3307 H   0  0  0  0  0  0  0  0  0  0  0  0
    0.3882    1.7670    3.7245 H   0  0  0  0  0  0  0  0  0  0  0  0
   -1.9689    0.1350    0.8298 N   0  0  0  0  0  0  0  0  0  0  0  0
   -3.0587    0.4222    1.7261 C   0  0  2  0  0  0  0  0  0  0  0  0
   -3.4620   -0.8755    2.4178 C   0  0  0  0  0  0  0  0  0  0  0  0
   -3.7141   -0.9440    3.6190 O   0  0  0  0  0  0  0  0  0  0  0  0
   -4.2326    1.0695    0.9983 C   0  0  0  0  0  0  0  0  0  0  0  0
   -4.8076    0.1509    0.0760 O   0  0  0  0  0  0  0  0  0  0  0  0
   -2.0874    0.3619   -0.1553 H   0  0  0  0  0  0  0  0  0  0  0  0
   -2.6653    1.1167    2.4773 H   0  0  0  0  0  0  0  0  0  0  0  0
   -3.9095    1.9539    0.4397 H   0  0  0  0  0  0  0  0  0  0  0  0
   -5.0095    1.3683    1.7101 H   0  0  0  0  0  0  0  0  0  0  0  0
   -5.1085   -0.6123    0.5943 H   0  0  0  0  0  0  0  0  0  0  0  0
   -3.5485   -1.9366    1.5278 N   0  0  0  0  0  0  0  0  0  0  0  0
   -3.9422   -3.2664    1.9317 C   0  0  2  0  0  0  0  0  0  0  0  0
   -4.9645   -3.1342    3.0528 C   0  0  0  0  0  0  0  0  0  0  0  0
   -5.0591   -2.1329    3.7596 O   0  0  0  0  0  0  0  0  0  0  0  0
   -2.7429   -4.0852    2.3835 C   0  0  0  0  0  0  0  0  0  0  0  0
   -3.3603   -1.7783    0.5423 H   0  0  0  0  0  0  0  0  0  0  0  0
   -4.4130   -3.7351    1.0607 H   0  0  0  0  0  0  0  0  0  0  0  0
   -2.2581   -3.6311    3.2553 H   0  0  0  0  0  0  0  0  0  0  0  0
   -3.0389   -5.1019    2.6622 H   0  0  0  0  0  0  0  0  0  0  0  0
   -1.9954   -4.1543    1.5859 H   0  0  0  0  0  0  0  0  0  0  0  0
   -5.7299   -4.2826    3.1993 N   0  0  0  0  0  0  0  0  0  0  0  0
   -6.7604   -4.4099    4.2032 C   0  0  0  0  0  0  0  0  0  0  0  0
   -5.5960   -5.0577    2.5566 H   0  0  0  0  0  0  0  0  0  0  0  0
   -6.3352   -4.8640    5.1103 H   0  0  0  0  0  0  0  0  0  0  0  0
   -7.1615   -3.4146    4.4450 H   0  0  0  0  0  0  0  0  0  0  0  0
   -7.5698   -5.0479    3.8188 H   0  0  0  0  0  0  0  0  0  0  0  0
  1  3  1  0  0  0  0
  1  7  1  0  0  0  0
  1  2  2  0  0  0  0
 29 30  1  0  0  0  0
 30 38  1  0  0  0  0
 30 31  2  0  0  0  0
  8  9  1  0  0  0  0
  9 17  1  0  0  0  0
  9 10  2  0  0  0  0
 18 19  1  0  0  0  0
 19 28  1  0  0  0  0
 19 20  2  0  0  0  0
 29 32  1  0  0  0  0
  8 11  1  0  0  0  0
 38 39  1  0  0  0  0
 18 21  1  0  0  0  0
 21 22  1  0  0  0  0
 28 29  1  0  0  0  0
  7  8  1  0  0  0  0
 17 18  1  0  0  0  0
  3  4  1  0  0  0  0
  3  5  1  0  0  0  0
  3  6  1  0  0  0  0
 32 35  1  0  0  0  0
 32 36  1  0  0  0  0
 32 37  1  0  0  0  0
 11 14  1  0  0  0  0
 11 15  1  0  0  0  0
 11 16  1  0  0  0  0
 39 41  1  0  0  0  0
 39 42  1  0  0  0  0
 39 43  1  0  0  0  0
 21 25  1  0  0  0  0
 21 26  1  0  0  0  0
 29 34  1  0  0  0  0
  8 13  1  0  0  0  0
 18 24  1  0  0  0  0
 38 40  1  0  0  0  0
  7 12  1  0  0  0  0
 28 33  1  0  0  0  0
 17 23  1  0  0  0  0
 22 27  1  0  0  0  0
M  END
$$$$

  -OEChem-02062319033D

 43 42  0     1  0  0  0  0  0999 V2000
    0.7424   -1.0926    4.5665 C   0  0  0  0  0  0  0  0  0  0  0  0
    0.1409   -0.5364    5.4779 O   0  0  0  0  0  0  0  0  0  0  0  0
    1.7940   -2.1023    4.8871 C   0  0  0  0  0  0  0  0  0  0  0  0
    2.7935   -1.6502    4.9904 H   0  0  0  0  0  0  0  0  0  0  0  0
    1.6064   -2.6156    5.8438 H   0  0  0  0  0  0  0  0  0  0  0  0
    1.9156   -2.9078    4.1453 H   0  0  0  0  0  0  0  0  0  0  0  0
    0.5488   -0.8838    3.2109 N   0  0  0  0  0  0  0  0  0  0  0  0
   -0.4159    0.0446    2.6829 C   0  0  2  0  0  0  0  0  0  0  0  0
   -0.7551   -0.3867    1.2623 C   0  0  0  0  0  0  0  0  0  0  0  0
   -0.0106   -1.0851    0.5774 O   0  0  0  0  0  0  0  0  0  0  0  0
    0.1168    1.4689    2.7060 C   0  0  0  0  0  0  0  0  0  0  0  0
    1.1183   -1.4145    2.5542 H   0  0  0  0  0  0  0  0  0  0  0  0
   -1.3088   -0.0350    3.3125 H   0  0  0  0  0  0  0  0  0  0  0  0
    1.0116    1.5681    2.0808 H   0  0  0  0  0  0  0  0  0  0  0  0
   -0.6289    2.1775    2.3307 H   0  0  0  0  0  0  0  0  0  0  0  0
    0.3882    1.7670    3.7245 H   0  0  0  0  0  0  0  0  0  0  0  0
   -1.9689    0.1350    0.8298 N   0  0  0  0  0  0  0  0  0  0  0  0
   -2.9346    0.7127    1.7283 C   0  0  2  0  0  0  0  0  0  0  0  0
   -3.3510   -0.3564    2.7325 C   0  0  0  0  0  0  0  0  0  0  0  0
   -3.4780   -0.1332    3.9347 O   0  0  0  0  0  0  0  0  0  0  0  0
   -4.1315    1.2871    0.9772 C   0  0  0  0  0  0  0  0  0  0  0  0
   -4.8637    0.2434    0.3450 O   0  0  0  0  0  0  0  0  0  0  0  0
   -2.1755    0.1475   -0.1667 H   0  0  0  0  0  0  0  0  0  0  0  0
   -2.4163    1.5176    2.2621 H   0  0  0  0  0  0  0  0  0  0  0  0
   -3.8092    1.9920    0.2040 H   0  0  0  0  0  0  0  0  0  0  0  0
   -4.8057    1.8064    1.6666 H   0  0  0  0  0  0  0  0  0  0  0  0
   -5.1599   -0.3548    1.0493 H   0  0  0  0  0  0  0  0  0  0  0  0
   -3.6052   -1.5762    2.1215 N   0  0  0  0  0  0  0  0  0  0  0  0
   -4.0449   -2.7413    2.8534 C   0  0  2  0  0  0  0  0  0  0  0  0
   -4.9305   -2.2703    3.9994 C   0  0  0  0  0  0  0  0  0  0  0  0
   -4.8797   -1.1327    4.4625 O   0  0  0  0  0  0  0  0  0  0  0  0
   -2.8641   -3.5458    3.3742 C   0  0  0  0  0  0  0  0  0  0  0  0
   -3.5123   -1.6585    1.1134 H   0  0  0  0  0  0  0  0  0  0  0  0
   -4.6371   -3.3465    2.1583 H   0  0  0  0  0  0  0  0  0  0  0  0
   -2.2589   -2.9558    4.0721 H   0  0  0  0  0  0  0  0  0  0  0  0
   -3.1986   -4.4437    3.9041 H   0  0  0  0  0  0  0  0  0  0  0  0
   -2.2122   -3.8584    2.5513 H   0  0  0  0  0  0  0  0  0  0  0  0
   -5.7538   -3.2824    4.4727 N   0  0  0  0  0  0  0  0  0  0  0  0
   -6.6780   -3.0886    5.5656 C   0  0  0  0  0  0  0  0  0  0  0  0
   -5.7431   -4.1897    4.0163 H   0  0  0  0  0  0  0  0  0  0  0  0
   -6.1912   -3.3670    6.5119 H   0  0  0  0  0  0  0  0  0  0  0  0
   -6.9810   -2.0319    5.6063 H   0  0  0  0  0  0  0  0  0  0  0  0
   -7.5660   -3.7190    5.4108 H   0  0  0  0  0  0  0  0  0  0  0  0
  1  3  1  0  0  0  0
  1  7  1  0  0  0  0
  1  2  2  0  0  0  0
 29 30  1  0  0  0  0
 30 38  1  0  0  0  0
 30 31  2  0  0  0  0
  8  9  1  0  0  0  0
  9 17  1  0  0  0  0
  9 10  2  0  0  0  0
 18 19  1  0  0  0  0
 19 28  1  0  0  0  0
 19 20  2  0  0  0  0
 29 32  1  0  0  0  0
  8 11  1  0  0  0  0
 38 39  1  0  0  0  0
 18 21  1  0  0  0  0
 21 22  1  0  0  0  0
 28 29  1  0  0  0  0
  7  8  1  0  0  0  0
 17 18  1  0  0  0  0
  3  4  1  0  0  0  0
  3  5  1  0  0  0  0
  3  6  1  0  0  0  0
 32 35  1  0  0  0  0
 32 36  1  0  0  0  0
 32 37  1  0  0  0  0
 11 14  1  0  0  0  0
 11 15  1  0  0  0  0
 11 16  1  0  0  0  0
 39 41  1  0  0  0  0
 39 42  1  0  0  0  0
 39 43  1  0  0  0  0
 21 25  1  0  0  0  0
 21 26  1  0  0  0  0
 29 34  1  0  0  0  0
  8 13  1  0  0  0  0
 18 24  1  0  0  0  0
 38 40  1  0  0  0  0
  7 12  1  0  0  0  0
 28 33  1  0  0  0  0
 17 23  1  0  0  0  0
 22 27  1  0  0  0  0
M  END
$$$$

  -OEChem-02062319033D

 43 42  0     1  0  0  0  0  0999 V2000
    0.7424   -1.0926    4.5665 C   0  0  0  0  0  0  0  0  0  0  0  0
    0.1409   -0.5364    5.4779 O   0  0  0  0  0  0  0  0  0  0  0  0
    1.7940   -2.1023    4.8871 C   0  0  0  0  0  0  0  0  0  0  0  0
    2.7935   -1.6502    4.9904 H   0  0  0  0  0  0  0  0  0  0  0  0
    1.6064   -2.6156    5.8438 H   0  0  0  0  0  0  0  0  0  0  0  0
    1.9156   -2.9078    4.1453 H   0  0  0  0  0  0  0  0  0  0  0  0
    0.5488   -0.8838    3.2109 N   0  0  0  0  0  0  0  0  0  0  0  0
   -0.4159    0.0446    2.6829 C   0  0  2  0  0  0  0  0  0  0  0  0
   -0.7551   -0.3867    1.2623 C   0  0  0  0  0  0  0  0  0  0  0  0
   -0.0106   -1.0851    0.5774 O   0  0  0  0  0  0  0  0  0  0  0  0
    0.1168    1.4689    2.7060 C   0  0  0  0  0  0  0  0  0  0  0  0
    1.1183   -1.4145    2.5542 H   0  0  0  0  0  0  0  0  0  0  0  0
   -1.3088   -0.0350    3.3125 H   0  0  0  0  0  0  0  0  0  0  0  0
    1.0116    1.5681    2.0808 H   0  0  0  0  0  0  0  0  0  0  0  0
   -0.6289    2.1775    2.3307 H   0  0  0  0  0  0  0  0  0  0  0  0
    0.3882    1.7670    3.7245 H   0  0  0  0  0  0  0  0  0  0  0  0
   -1.9689    0.1350    0.8298 N   0  0  0  0  0  0  0  0  0  0  0  0
   -2.7912    0.9838    1.6526 C   0  0  2  0  0  0  0  0  0  0  0  0
   -3.1715    0.2071    2.9084 C   0  0  0  0  0  0  0  0  0  0  0  0
   -3.1541    0.7023    4.0334 O   0  0  0  0  0  0  0  0  0  0  0  0
   -4.0184    1.4844    0.8977 C   0  0  0  0  0  0  0  0  0  0  0  0
   -4.8843    0.3980    0.5893 O   0  0  0  0  0  0  0  0  0  0  0  0
   -2.2790   -0.0552   -0.1208 H   0  0  0  0  0  0  0  0  0  0  0  0
   -2.1644    1.8361    1.9394 H   0  0  0  0  0  0  0  0  0  0  0  0
   -3.7320    1.9674   -0.0421 H   0  0  0  0  0  0  0  0  0  0  0  0
   -4.5777    2.2034    1.5057 H   0  0  0  0  0  0  0  0  0  0  0  0
   -5.1447    0.0008    1.4355 H   0  0  0  0  0  0  0  0  0  0  0  0
   -3.5732   -1.0893    2.6190 N   0  0  0  0  0  0  0  0  0  0  0  0
   -4.0123   -2.0175    3.6349 C   0  0  2  0  0  0  0  0  0  0  0  0
   -4.7361   -1.2246    4.7152 C   0  0  0  0  0  0  0  0  0  0  0  0
   -4.5576   -0.0222    4.8980 O   0  0  0  0  0  0  0  0  0  0  0  0
   -2.8414   -2.7911    4.2210 C   0  0  0  0  0  0  0  0  0  0  0  0
   -3.5940   -1.4015    1.6527 H   0  0  0  0  0  0  0  0  0  0  0  0
   -4.7156   -2.7050    3.1525 H   0  0  0  0  0  0  0  0  0  0  0  0
   -2.1260   -2.1189    4.7086 H   0  0  0  0  0  0  0  0  0  0  0  0
   -3.1791   -3.5144    4.9705 H   0  0  0  0  0  0  0  0  0  0  0  0
   -2.3040   -3.3370    3.4380 H   0  0  0  0  0  0  0  0  0  0  0  0
   -5.5726   -2.0265    5.4790 N   0  0  0  0  0  0  0  0  0  0  0  0
   -6.3596   -1.5111    6.5749 C   0  0  0  0  0  0  0  0  0  0  0  0
   -5.6735   -3.0096    5.2444 H   0  0  0  0  0  0  0  0  0  0  0  0
   -5.7954   -1.6159    7.5133 H   0  0  0  0  0  0  0  0  0  0  0  0
   -6.5826   -0.4485    6.3980 H   0  0  0  0  0  0  0  0  0  0  0  0
   -7.3006   -2.0760    6.6479 H   0  0  0  0  0  0  0  0  0  0  0  0
  1  3  1  0  0  0  0
  1  7  1  0  0  0  0
  1  2  2  0  0  0  0
 29 30  1  0  0  0  0
 30 38  1  0  0  0  0
 30 31  2  0  0  0  0
  8  9  1  0  0  0  0
  9 17  1  0  0  0  0
  9 10  2  0  0  0  0
 18 19  1  0  0  0  0
 19 28  1  0  0  0  0
 19 20  2  0  0  0  0
 29 32  1  0  0  0  0
  8 11  1  0  0  0  0
 38 39  1  0  0  0  0
 18 21  1  0  0  0  0
 21 22  1  0  0  0  0
 28 29  1  0  0  0  0
  7  8  1  0  0  0  0
 17 18  1  0  0  0  0
  3  4  1  0  0  0  0
  3  5  1  0  0  0  0
  3  6  1  0  0  0  0
 32 35  1  0  0  0  0
 32 36  1  0  0  0  0
 32 37  1  0  0  0  0
 11 14  1  0  0  0  0
 11 15  1  0  0  0  0
 11 16  1  0  0  0  0
 39 41  1  0  0  0  0
 39 42  1  0  0  0  0
 39 43  1  0  0  0  0
 21 25  1  0  0  0  0
 21 26  1  0  0  0  0
 29 34  1  0  0  0  0
  8 13  1  0  0  0  0
 18 24  1  0  0  0  0
 38 40  1  0  0  0  0
  7 12  1  0  0  0  0
 28 33  1  0  0  0  0
 17 23  1  0  0  0  0
 22 27  1  0  0  0  0
M  END
$$$$

  -OEChem-02062319033D

 43 42  0     1  0  0  0  0  0999 V2000
    0.7424   -1.0926    4.5665 C   0  0  0  0  0  0  0  0  0  0  0  0
    0.1409   -0.5364    5.4779 O   0  0  0  0  0  0  0  0  0  0  0  0
    1.7940   -2.1023    4.8871 C   0  0  0  0  0  0  0  0  0  0  0  0
    2.7935   -1.6502    4.9904 H   0  0  0  0  0  0  0  0  0  0  0  0
    1.6064   -2.6156    5.8438 H   0  0  0  0  0  0  0  0  0  0  0  0
    1.9156   -2.9078    4.1453 H   0  0  0  0  0  0  0  0  0  0  0  0
    0.5488   -0.8838    3.2109 N   0  0  0  0  0  0  0  0  0  0  0  0
   -0.4159    0.0446    2.6829 C   0  0  2  0  0  0  0  0  0  0  0  0
   -0.7551   -0.3867    1.2623 C   0  0  0  0  0  0  0  0  0  0  0  0
   -0.0106   -1.0851    0.5774 O   0  0  0  0  0  0  0  0  0  0  0  0
    0.1168    1.4689    2.7060 C   0  0  0  0  0  0  0  0  0  0  0  0
    1.1183   -1.4145    2.5542 H   0  0  0  0  0  0  0  0  0  0  0  0
   -1.3088   -0.0350    3.3125 H   0  0  0  0  0  0  0  0  0  0  0  0
    1.0116    1.5681    2.0808 H   0  0  0  0  0  0  0  0  0  0  0  0
   -0.6289    2.1775    2.3307 H   0  0  0  0  0  0  0  0  0  0  0  0
    0.3882    1.7670    3.7245 H   0  0  0  0  0  0  0  0  0  0  0  0
   -1.9689    0.1350    0.8298 N   0  0  0  0  0  0  0  0  0  0  0  0
   -2.6381    1.2170    1.5043 C   0  0  2  0  0  0  0  0  0  0  0  0
   -2.9356    0.7767    2.9335 C   0  0  0  0  0  0  0  0  0  0  0  0
   -2.7643    1.5056    3.9085 O   0  0  0  0  0  0  0  0  0  0  0  0
   -3.9010    1.6479    0.7654 C   0  0  0  0  0  0  0  0  0  0  0  0
   -4.8681    0.6042    0.7924 O   0  0  0  0  0  0  0  0  0  0  0  0
   -2.3908   -0.2322   -0.0206 H   0  0  0  0  0  0  0  0  0  0  0  0
   -1.9268    2.0505    1.5312 H   0  0  0  0  0  0  0  0  0  0  0  0
   -3.6834    1.8819   -0.2818 H   0  0  0  0  0  0  0  0  0  0  0  0
   -4.3413    2.5321    1.2385 H   0  0  0  0  0  0  0  0  0  0  0  0
   -5.0639    0.4304    1.7268 H   0  0  0  0  0  0  0  0  0  0  0  0
   -3.4548   -0.5091    2.9864 N   0  0  0  0  0  0  0  0  0  0  0  0
   -3.8466   -1.1444    4.2232 C   0  0  2  0  0  0  0  0  0  0  0  0
   -4.3947   -0.0685    5.1514 C   0  0  0  0  0  0  0  0  0  0  0  0
   -4.1148    1.1229    5.0364 O   0  0  0  0  0  0  0  0  0  0  0  0
   -2.6765   -1.8725    4.8661 C   0  0  0  0  0  0  0  0  0  0  0  0
   -3.5999   -1.0249    2.1235 H   0  0  0  0  0  0  0  0  0  0  0  0
   -4.6432   -1.8543    3.9755 H   0  0  0  0  0  0  0  0  0  0  0  0
   -1.8684   -1.1774    5.1214 H   0  0  0  0  0  0  0  0  0  0  0  0
   -2.9819   -2.3773    5.7886 H   0  0  0  0  0  0  0  0  0  0  0  0
   -2.2647   -2.6256    4.1856 H   0  0  0  0  0  0  0  0  0  0  0  0
   -5.1987   -0.6007    6.1497 N   0  0  0  0  0  0  0  0  0  0  0  0
   -5.8270    0.2152    7.1624 C   0  0  0  0  0  0  0  0  0  0  0  0
   -5.3919   -1.5978    6.1572 H   0  0  0  0  0  0  0  0  0  0  0  0
   -5.1748    0.2700    8.0465 H   0  0  0  0  0  0  0  0  0  0  0  0
   -5.9933    1.2278    6.7662 H   0  0  0  0  0  0  0  0  0  0  0  0
   -6.7918   -0.2307    7.4458 H   0  0  0  0  0  0  0  0  0  0  0  0
  1  3  1  0  0  0  0
  1  7  1  0  0  0  0
  1  2  2  0  0  0  0
 29 30  1  0  0  0  0
 30 38  1  0  0  0  0
 30 31  2  0  0  0  0
  8  9  1  0  0  0  0
  9 17  1  0  0  0  0
  9 10  2  0  0  0  0
 18 19  1  0  0  0  0
 19 28  1  0  0  0  0
 19 20  2  0  0  0  0
 29 32  1  0  0  0  0
  8 11  1  0  0  0  0
 38 39  1  0  0  0  0
 18 21  1  0  0  0  0
 21 22  1  0  0  0  0
 28 29  1  0  0  0  0
  7  8  1  0  0  0  0
 17 18  1  0  0  0  0
  3  4  1  0  0  0  0
  3  5  1  0  0  0  0
  3  6  1  0  0  0  0
 32 35  1  0  0  0  0
 32 36  1  0  0  0  0
 32 37  1  0  0  0  0
 11 14  1  0  0  0  0
 11 15  1  0  0  0  0
 11 16  1  0  0  0  0
 39 41  1  0  0  0  0
 39 42  1  0  0  0  0
 39 43  1  0  0  0  0
 21 25  1  0  0  0  0
 21 26  1  0  0  0  0
 29 34  1  0  0  0  0
  8 13  1  0  0  0  0
 18 24  1  0  0  0  0
 38 40  1  0  0  0  0
  7 12  1  0  0  0  0
 28 33  1  0  0  0  0
 17 23  1  0  0  0  0
 22 27  1  0  0  0  0
M  END
$$$$

  -OEChem-02062319033D

 43 42  0     1  0  0  0  0  0999 V2000
    0.7424   -1.0926    4.5665 C   0  0  0  0  0  0  0  0  0  0  0  0
    0.1409   -0.5364    5.4779 O   0  0  0  0  0  0  0  0  0  0  0  0
    1.7940   -2.1023    4.8871 C   0  0  0  0  0  0  0  0  0  0  0  0
    2.7935   -1.6502    4.9904 H   0  0  0  0  0  0  0  0  0  0  0  0
    1.6064   -2.6156    5.8438 H   0  0  0  0  0  0  0  0  0  0  0  0
    1.9156   -2.9078    4.1453 H   0  0  0  0  0  0  0  0  0  0  0  0
    0.5488   -0.8838    3.2109 N   0  0  0  0  0  0  0  0  0  0  0  0
   -0.4159    0.0446    2.6829 C   0  0  2  0  0  0  0  0  0  0  0  0
   -0.7551   -0.3867    1.2623 C   0  0  0  0  0  0  0  0  0  0  0  0
   -0.0106   -1.0851    0.5774 O   0  0  0  0  0  0  0  0  0  0  0  0
    0.1168    1.4689    2.7060 C   0  0  0  0  0  0  0  0  0  0  0  0
    1.1183   -1.4145    2.5542 H   0  0  0  0  0  0  0  0  0  0  0  0
   -1.3088   -0.0350    3.3125 H   0  0  0  0  0  0  0  0  0  0  0  0
    1.0116    1.5681    2.0808 H   0  0  0  0  0  0  0  0  0  0  0  0
   -0.6289    2.1775    2.3307 H   0  0  0  0  0  0  0  0  0  0  0  0
    0.3882    1.7670    3.7245 H   0  0  0  0  0  0  0  0  0  0  0  0
   -1.9689    0.1350    0.8298 N   0  0  0  0  0  0  0  0  0  0  0  0
   -2.4859    1.3965    1.2936 C   0  0  2  0  0  0  0  0  0  0  0  0
   -2.6595    1.3136    2.8062 C   0  0  0  0  0  0  0  0  0  0  0  0
   -2.3353    2.2219    3.5684 O   0  0  0  0  0  0  0  0  0  0  0  0
   -3.7872    1.7665    0.5892 C   0  0  0  0  0  0  0  0  0  0  0  0
   -4.8160    0.8480    0.9404 O   0  0  0  0  0  0  0  0  0  0  0  0
   -2.5033   -0.3716    0.1271 H   0  0  0  0  0  0  0  0  0  0  0  0
   -1.7197    2.1463    1.0654 H   0  0  0  0  0  0  0  0  0  0  0  0
   -3.6666    1.7412   -0.4986 H   0  0  0  0  0  0  0  0  0  0  0  0
   -4.1123    2.7701    0.8831 H   0  0  0  0  0  0  0  0  0  0  0  0
   -4.9229    0.9047    1.9032 H   0  0  0  0  0  0  0  0  0  0  0  0
   -3.2580    0.1248    3.1988 N   0  0  0  0  0  0  0  0  0  0  0  0
   -3.5591   -0.1814    4.5779 C   0  0  2  0  0  0  0  0  0  0  0  0
   -3.9294    1.1193    5.2784 C   0  0  0  0  0  0  0  0  0  0  0  0
   -3.5814    2.2246    4.8683 O   0  0  0  0  0  0  0  0  0  0  0  0
   -2.3806   -0.8528    5.2657 C   0  0  0  0  0  0  0  0  0  0  0  0
   -3.5295   -0.5541    2.4937 H   0  0  0  0  0  0  0  0  0  0  0  0
   -4.4249   -0.8525    4.5711 H   0  0  0  0  0  0  0  0  0  0  0  0
   -1.5037   -0.1954    5.2822 H   0  0  0  0  0  0  0  0  0  0  0  0
   -2.6204   -1.1100    6.3028 H   0  0  0  0  0  0  0  0  0  0  0  0
   -2.0967   -1.7726    4.7432 H   0  0  0  0  0  0  0  0  0  0  0  0
   -4.6577    0.8981    6.4389 N   0  0  0  0  0  0  0  0  0  0  0  0
   -5.1165    1.9725    7.2881 C   0  0  0  0  0  0  0  0  0  0  0  0
   -4.9176   -0.0505    6.6925 H   0  0  0  0  0  0  0  0  0  0  0  0
   -4.3717    2.1622    8.0750 H   0  0  0  0  0  0  0  0  0  0  0  0
   -5.2534    2.8827    6.6859 H   0  0  0  0  0  0  0  0  0  0  0  0
   -6.0743    1.6910    7.7501 H   0  0  0  0  0  0  0  0  0  0  0  0
  1  3  1  0  0  0  0
  1  7  1  0  0  0  0
  1  2  2  0  0  0  0
 29 30  1  0  0  0  0
 30 38  1  0  0  0  0
 30 31  2  0  0  0  0
  8  9  1  0  0  0  0
  9 17  1  0  0  0  0
  9 10  2  0  0  0  0
 18 19  1  0  0  0  0
 19 28  1  0  0  0  0
 19 20  2  0  0  0  0
 29 32  1  0  0  0  0
  8 11  1  0  0  0  0
 38 39  1  0  0  0  0
 18 21  1  0  0  0  0
 21 22  1  0  0  0  0
 28 29  1  0  0  0  0
  7  8  1  0  0  0  0
 17 18  1  0  0  0  0
  3  4  1  0  0  0  0
  3  5  1  0  0  0  0
  3  6  1  0  0  0  0
 32 35  1  0  0  0  0
 32 36  1  0  0  0  0
 32 37  1  0  0  0  0
 11 14  1  0  0  0  0
 11 15  1  0  0  0  0
 11 16  1  0  0  0  0
 39 41  1  0  0  0  0
 39 42  1  0  0  0  0
 39 43  1  0  0  0  0
 21 25  1  0  0  0  0
 21 26  1  0  0  0  0
 29 34  1  0  0  0  0
  8 13  1  0  0  0  0
 18 24  1  0  0  0  0
 38 40  1  0  0  0  0
  7 12  1  0  0  0  0
 28 33  1  0  0  0  0
 17 23  1  0  0  0  0
 22 27  1  0  0  0  0
M  END
$$$$

  -OEChem-02062319033D

 43 42  0     1  0  0  0  0  0999 V2000
    0.7424   -1.0926    4.5665 C   0  0  0  0  0  0  0  0  0  0  0  0
    0.1409   -0.5364    5.4779 O   0  0  0  0  0  0  0  0  0  0  0  0
    1.7940   -2.1023    4.8871 C   0  0  0  0  0  0  0  0  0  0  0  0
    2.7935   -1.6502    4.9904 H   0  0  0  0  0  0  0  0  0  0  0  0
    1.6064   -2.6156    5.8438 H   0  0  0  0  0  0  0  0  0  0  0  0
    1.9156   -2.9078    4.1453 H   0  0  0  0  0  0  0  0  0  0  0  0
    0.5488   -0.8838    3.2109 N   0  0  0  0  0  0  0  0  0  0  0  0
   -0.4159    0.0446    2.6829 C   0  0  2  0  0  0  0  0  0  0  0  0
   -0.7551   -0.3867    1.2623 C   0  0  0  0  0  0  0  0  0  0  0  0
   -0.0106   -1.0851    0.5774 O   0  0  0  0  0  0  0  0  0  0  0  0
    0.1168    1.4689    2.7060 C   0  0  0  0  0  0  0  0  0  0  0  0
    1.1183   -1.4145    2.5542 H   0  0  0  0  0  0  0  0  0  0  0  0
   -1.3088   -0.0350    3.3125 H   0  0  0  0  0  0  0  0  0  0  0  0
    1.0116    1.5681    2.0808 H   0  0  0  0  0  0  0  0  0  0  0  0
   -0.6289    2.1775    2.3307 H   0  0  0  0  0  0  0  0  0  0  0  0
    0.3882    1.7670    3.7245 H   0  0  0  0  0  0  0  0  0  0  0  0
   -1.9689    0.1350    0.8298 N   0  0  0  0  0  0  0  0  0  0  0  0
   -2.3448    1.5099    1.0346 C   0  0  2  0  0  0  0  0  0  0  0  0
   -2.3619    1.7812    2.5350 C   0  0  0  0  0  0  0  0  0  0  0  0
   -1.8963    2.8024    3.0364 O   0  0  0  0  0  0  0  0  0  0  0  0
   -3.6850    1.8320    0.3812 C   0  0  0  0  0  0  0  0  0  0  0  0
   -4.7317    1.1128    1.0232 O   0  0  0  0  0  0  0  0  0  0  0  0
   -2.6088   -0.4637    0.3122 H   0  0  0  0  0  0  0  0  0  0  0  0
   -1.5571    2.1169    0.5737 H   0  0  0  0  0  0  0  0  0  0  0  0
   -3.6828    1.5549   -0.6779 H   0  0  0  0  0  0  0  0  0  0  0  0
   -3.9065    2.9014    0.4638 H   0  0  0  0  0  0  0  0  0  0  0  0
   -4.7314    1.3913    1.9527 H   0  0  0  0  0  0  0  0  0  0  0  0
   -2.9962    0.7692    3.2415 N   0  0  0  0  0  0  0  0  0  0  0  0
   -3.1695    0.8058    4.6751 C   0  0  2  0  0  0  0  0  0  0  0  0
   -3.3720    2.2578    5.0874 C   0  0  0  0  0  0  0  0  0  0  0  0
   -2.9937    3.2079    4.4051 O   0  0  0  0  0  0  0  0  0  0  0  0
   -1.9739    0.1987    5.3926 C   0  0  0  0  0  0  0  0  0  0  0  0
   -3.3876   -0.0215    2.7381 H   0  0  0  0  0  0  0  0  0  0  0  0
   -4.0755    0.2322    4.8989 H   0  0  0  0  0  0  0  0  0  0  0  0
   -1.0567    0.7601    5.1803 H   0  0  0  0  0  0  0  0  0  0  0  0
   -2.1192    0.2013    6.4779 H   0  0  0  0  0  0  0  0  0  0  0  0
   -1.8117   -0.8362    5.0726 H   0  0  0  0  0  0  0  0  0  0  0  0
   -3.9862    2.3675    6.3271 N   0  0  0  0  0  0  0  0  0  0  0  0
   -4.2766    3.6411    6.9434 C   0  0  0  0  0  0  0  0  0  0  0  0
   -4.2829    1.5268    6.8138 H   0  0  0  0  0  0  0  0  0  0  0  0
   -3.4409    3.9317    7.5970 H   0  0  0  0  0  0  0  0  0  0  0  0
   -4.4133    4.4035    6.1624 H   0  0  0  0  0  0  0  0  0  0  0  0
   -5.1970    3.5582    7.5400 H   0  0  0  0  0  0  0  0  0  0  0  0
  1  3  1  0  0  0  0
  1  7  1  0  0  0  0
  1  2  2  0  0  0  0
 29 30  1  0  0  0  0
 30 38  1  0  0  0  0
 30 31  2  0  0  0  0
  8  9  1  0  0  0  0
  9 17  1  0  0  0  0
  9 10  2  0  0  0  0
 18 19  1  0  0  0  0
 19 28  1  0  0  0  0
 19 20  2  0  0  0  0
 29 32  1  0  0  0  0
  8 11  1  0  0  0  0
 38 39  1  0  0  0  0
 18 21  1  0  0  0  0
 21 22  1  0  0  0  0
 28 29  1  0  0  0  0
  7  8  1  0  0  0  0
 17 18  1  0  0  0  0
  3  4  1  0  0  0  0
  3  5  1  0  0  0  0
  3  6  1  0  0  0  0
 32 35  1  0  0  0  0
 32 36  1  0  0  0  0
 32 37  1  0  0  0  0
 11 14  1  0  0  0  0
 11 15  1  0  0  0  0
 11 16  1  0  0  0  0
 39 41  1  0  0  0  0
 39 42  1  0  0  0  0
 39 43  1  0  0  0  0
 21 25  1  0  0  0  0
 21 26  1  0  0  0  0
 29 34  1  0  0  0  0
  8 13  1  0  0  0  0
 18 24  1  0  0  0  0
 38 40  1  0  0  0  0
  7 12  1  0  0  0  0
 28 33  1  0  0  0  0
 17 23  1  0  0  0  0
 22 27  1  0  0  0  0
M  END
$$$$

  -OEChem-02062319033D

 43 42  0     1  0  0  0  0  0999 V2000
    0.7424   -1.0926    4.5665 C   0  0  0  0  0  0  0  0  0  0  0  0
    0.1409   -0.5364    5.4779 O   0  0  0  0  0  0  0  0  0  0  0  0
    1.7940   -2.1023    4.8871 C   0  0  0  0  0  0  0  0  0  0  0  0
    2.7935   -1.6502    4.9904 H   0  0  0  0  0  0  0  0  0  0  0  0
    1.6064   -2.6156    5.8438 H   0  0  0  0  0  0  0  0  0  0  0  0
    1.9156   -2.9078    4.1453 H   0  0  0  0  0  0  0  0  0  0  0  0
    0.5488   -0.8838    3.2109 N   0  0  0  0  0  0  0  0  0  0  0  0
   -0.4159    0.0446    2.6829 C   0  0  2  0  0  0  0  0  0  0  0  0
   -0.7551   -0.3867    1.2623 C   0  0  0  0  0  0  0  0  0  0  0  0
   -0.0106   -1.0851    0.5774 O   0  0  0  0  0  0  0  0  0  0  0  0
    0.1168    1.4689    2.7060 C   0  0  0  0  0  0  0  0  0  0  0  0
    1.1183   -1.4145    2.5542 H   0  0  0  0  0  0  0  0  0  0  0  0
   -1.3088   -0.0350    3.3125 H   0  0  0  0  0  0  0  0  0  0  0  0
    1.0116    1.5681    2.0808 H   0  0  0  0  0  0  0  0  0  0  0  0
   -0.6289    2.1775    2.3307 H   0  0  0  0  0  0  0  0  0  0  0  0
    0.3882    1.7670    3.7245 H   0  0  0  0  0  0  0  0  0  0  0  0
   -1.9689    0.1350    0.8298 N   0  0  0  0  0  0  0  0  0  0  0  0
   -2.2246    1.5496    0.7451 C   0  0  2  0  0  0  0  0  0  0  0  0
   -2.0631    2.1476    2.1384 C   0  0  0  0  0  0  0  0  0  0  0  0
   -1.4771    3.2076    2.3487 O   0  0  0  0  0  0  0  0  0  0  0  0
   -3.6011    1.8401    0.1555 C   0  0  0  0  0  0  0  0  0  0  0  0
   -4.6210    1.3804    1.0352 O   0  0  0  0  0  0  0  0  0  0  0  0
   -2.7002   -0.5024    0.5220 H   0  0  0  0  0  0  0  0  0  0  0  0
   -1.4502    1.9643    0.0896 H   0  0  0  0  0  0  0  0  0  0  0  0
   -3.7308    1.3357   -0.8074 H   0  0  0  0  0  0  0  0  0  0  0  0
   -3.7379    2.9168    0.0092 H   0  0  0  0  0  0  0  0  0  0  0  0
   -4.5024    1.8571    1.8720 H   0  0  0  0  0  0  0  0  0  0  0  0
   -2.6874    1.3802    3.1117 N   0  0  0  0  0  0  0  0  0  0  0  0
   -2.7041    1.7499    4.5079 C   0  0  2  0  0  0  0  0  0  0  0  0
   -2.7605    3.2696    4.5914 C   0  0  0  0  0  0  0  0  0  0  0  0
   -2.3920    4.0057    3.6785 O   0  0  0  0  0  0  0  0  0  0  0  0
   -1.4840    1.2103    5.2379 C   0  0  0  0  0  0  0  0  0  0  0  0
   -3.1839    0.5369    2.8400 H   0  0  0  0  0  0  0  0  0  0  0  0
   -3.6188    1.3259    4.9364 H   0  0  0  0  0  0  0  0  0  0  0  0
   -0.5579    1.6240    4.8225 H   0  0  0  0  0  0  0  0  0  0  0  0
   -1.5126    1.4670    6.3020 H   0  0  0  0  0  0  0  0  0  0  0  0
   -1.4289    0.1197    5.1516 H   0  0  0  0  0  0  0  0  0  0  0  0
   -3.2302    3.7076    5.8217 N   0  0  0  0  0  0  0  0  0  0  0  0
   -3.3643    5.1073    6.1517 C   0  0  0  0  0  0  0  0  0  0  0  0
   -3.5311    3.0268    6.5129 H   0  0  0  0  0  0  0  0  0  0  0  0
   -2.4457    5.4579    6.6450 H   0  0  0  0  0  0  0  0  0  0  0  0
   -3.5301    5.6866    5.2314 H   0  0  0  0  0  0  0  0  0  0  0  0
   -4.2195    5.2437    6.8299 H   0  0  0  0  0  0  0  0  0  0  0  0
  1  3  1  0  0  0  0
  1  7  1  0  0  0  0
  1  2  2  0  0  0  0
 29 30  1  0  0  0  0
 30 38  1  0  0  0  0
 30 31  2  0  0  0  0
  8  9  1  0  0  0  0
  9 17  1  0  0  0  0
  9 10  2  0  0  0  0
 18 19  1  0  0  0  0
 19 28  1  0  0  0  0
 19 20  2  0  0  0  0
 29 32  1  0  0  0  0
  8 11  1  0  0  0  0
 38 39  1  0  0  0  0
 18 21  1  0  0  0  0
 21 22  1  0  0  0  0
 28 29  1  0  0  0  0
  7  8  1  0  0  0  0
 17 18  1  0  0  0  0
  3  4  1  0  0  0  0
  3  5  1  0  0  0  0
  3  6  1  0  0  0  0
 32 35  1  0  0  0  0
 32 36  1  0  0  0  0
 32 37  1  0  0  0  0
 11 14  1  0  0  0  0
 11 15  1  0  0  0  0
 11 16  1  0  0  0  0
 39 41  1  0  0  0  0
 39 42  1  0  0  0  0
 39 43  1  0  0  0  0
 21 25  1  0  0  0  0
 21 26  1  0  0  0  0
 29 34  1  0  0  0  0
  8 13  1  0  0  0  0
 18 24  1  0  0  0  0
 38 40  1  0  0  0  0
  7 12  1  0  0  0  0
 28 33  1  0  0  0  0
 17 23  1  0  0  0  0
 22 27  1  0  0  0  0
M  END
$$$$

  -OEChem-02062319033D

 43 42  0     1  0  0  0  0  0999 V2000
    0.7424   -1.0926    4.5665 C   0  0  0  0  0  0  0  0  0  0  0  0
    0.1409   -0.5364    5.4779 O   0  0  0  0  0  0  0  0  0  0  0  0
    1.7940   -2.1023    4.8871 C   0  0  0  0  0  0  0  0  0  0  0  0
    2.7935   -1.6502    4.9904 H   0  0  0  0  0  0  0  0  0  0  0  0
    1.6064   -2.6156    5.8438 H   0  0  0  0  0  0  0  0  0  0  0  0
    1.9156   -2.9078    4.1453 H   0  0  0  0  0  0  0  0  0  0  0  0
    0.5488   -0.8838    3.2109 N   0  0  0  0  0  0  0  0  0  0  0  0
   -0.4159    0.0446    2.6829 C   0  0  2  0  0  0  0  0  0  0  0  0
   -0.7551   -0.3867    1.2623 C   0  0  0  0  0  0  0  0  0  0  0  0
   -0.0106   -1.0851    0.5774 O   0  0  0  0  0  0  0  0  0  0  0  0
    0.1168    1.4689    2.7060 C   0  0  0  0  0  0  0  0  0  0  0  0
    1.1183   -1.4145    2.5542 H   0  0  0  0  0  0  0  0  0  0  0  0
   -1.3088   -0.0350    3.3125 H   0  0  0  0  0  0  0  0  0  0  0  0
    1.0116    1.5681    2.0808 H   0  0  0  0  0  0  0  0  0  0  0  0
   -0.6289    2.1775    2.3307 H   0  0  0  0  0  0  0  0  0  0  0  0
    0.3882    1.7670    3.7245 H   0  0  0  0  0  0  0  0  0  0  0  0
   -1.9689    0.1350    0.8298 N   0  0  0  0  0  0  0  0  0  0  0  0
   -2.1335    1.5128    0.4449 C   0  0  2  0  0  0  0  0  0  0  0  0
   -1.7835    2.3879    1.6436 C   0  0  0  0  0  0  0  0  0  0  0  0
   -1.1064    3.4097    1.5521 O   0  0  0  0  0  0  0  0  0  0  0  0
   -3.5413    1.7901   -0.0724 C   0  0  0  0  0  0  0  0  0  0  0  0
   -4.4913    1.6327    0.9755 O   0  0  0  0  0  0  0  0  0  0  0  0
   -2.7713   -0.4850    0.7423 H   0  0  0  0  0  0  0  0  0  0  0  0
   -1.4063    1.6989   -0.3539 H   0  0  0  0  0  0  0  0  0  0  0  0
   -3.8075    1.0987   -0.8784 H   0  0  0  0  0  0  0  0  0  0  0  0
   -3.6179    2.8154   -0.4499 H   0  0  0  0  0  0  0  0  0  0  0  0
   -4.2516    2.2704    1.6665 H   0  0  0  0  0  0  0  0  0  0  0  0
   -2.3524    1.9163    2.8182 N   0  0  0  0  0  0  0  0  0  0  0  0
   -2.1949    2.5866    4.0880 C   0  0  2  0  0  0  0  0  0  0  0  0
   -2.1365    4.0855    3.8244 C   0  0  0  0  0  0  0  0  0  0  0  0
   -1.8170    4.5636    2.7379 O   0  0  0  0  0  0  0  0  0  0  0  0
   -0.9444    2.1130    4.8123 C   0  0  0  0  0  0  0  0  0  0  0  0
   -2.9324    1.0828    2.7925 H   0  0  0  0  0  0  0  0  0  0  0  0
   -3.0860    2.3540    4.6811 H   0  0  0  0  0  0  0  0  0  0  0  0
   -0.0413    2.3375    4.2332 H   0  0  0  0  0  0  0  0  0  0  0  0
   -0.8417    2.6011    5.7872 H   0  0  0  0  0  0  0  0  0  0  0  0
   -0.9746    1.0301    4.9746 H   0  0  0  0  0  0  0  0  0  0  0  0
   -2.4412    4.8269    4.9574 N   0  0  0  0  0  0  0  0  0  0  0  0
   -2.4420    6.2712    4.9671 C   0  0  0  0  0  0  0  0  0  0  0  0
   -2.7132    4.3470    5.8103 H   0  0  0  0  0  0  0  0  0  0  0  0
   -1.4541    6.6368    5.2838 H   0  0  0  0  0  0  0  0  0  0  0  0
   -2.6642    6.6444    3.9565 H   0  0  0  0  0  0  0  0  0  0  0  0
   -3.2087    6.6326    5.6682 H   0  0  0  0  0  0  0  0  0  0  0  0
  1  3  1  0  0  0  0
  1  7  1  0  0  0  0
  1  2  2  0  0  0  0
 29 30  1  0  0  0  0
 30 38  1  0  0  0  0
 30 31  2  0  0  0  0
  8  9  1  0  0  0  0
  9 17  1  0  0  0  0
  9 10  2  0  0  0  0
 18 19  1  0  0  0  0
 19 28  1  0  0  0  0
 19 20  2  0  0  0  0
 29 32  1  0  0  0  0
  8 11  1  0  0  0  0
 38 39  1  0  0  0  0
 18 21  1  0  0  0  0
 21 22  1  0  0  0  0
 28 29  1  0  0  0  0
  7  8  1  0  0  0  0
 17 18  1  0  0  0  0
  3  4  1  0  0  0  0
  3  5  1  0  0  0  0
  3  6  1  0  0  0  0
 32 35  1  0  0  0  0
 32 36  1  0  0  0  0
 32 37  1  0  0  0  0
 11 14  1  0  0  0  0
 11 15  1  0  0  0  0
 11 16  1  0  0  0  0
 39 41  1  0  0  0  0
 39 42  1  0  0  0  0
 39 43  1  0  0  0  0
 21 25  1  0  0  0  0
 21 26  1  0  0  0  0
 29 34  1  0  0  0  0
  8 13  1  0  0  0  0
 18 24  1  0  0  0  0
 38 40  1  0  0  0  0
  7 12  1  0  0  0  0
 28 33  1  0  0  0  0
 17 23  1  0  0  0  0
 22 27  1  0  0  0  0
M  END
$$$$

  -OEChem-02062319033D

 43 42  0     1  0  0  0  0  0999 V2000
    0.7424   -1.0926    4.5665 C   0  0  0  0  0  0  0  0  0  0  0  0
    0.1409   -0.5364    5.4779 O   0  0  0  0  0  0  0  0  0  0  0  0
    1.7940   -2.1023    4.8871 C   0  0  0  0  0  0  0  0  0  0  0  0
    2.7935   -1.6502    4.9904 H   0  0  0  0  0  0  0  0  0  0  0  0
    1.6064   -2.6156    5.8438 H   0  0  0  0  0  0  0  0  0  0  0  0
    1.9156   -2.9078    4.1453 H   0  0  0  0  0  0  0  0  0  0  0  0
    0.5488   -0.8838    3.2109 N   0  0  0  0  0  0  0  0  0  0  0  0
   -0.4159    0.0446    2.6829 C   0  0  2  0  0  0  0  0  0  0  0  0
   -0.7551   -0.3867    1.2623 C   0  0  0  0  0  0  0  0  0  0  0  0
   -0.0106   -1.0851    0.5774 O   0  0  0  0  0  0  0  0  0  0  0  0
    0.1168    1.4689    2.7060 C   0  0  0  0  0  0  0  0  0  0  0  0
    1.1183   -1.4145    2.5542 H   0  0  0  0  0  0  0  0  0  0  0  0
   -1.3088   -0.0350    3.3125 H   0  0  0  0  0  0  0  0  0  0  0  0
    1.0116    1.5681    2.0808 H   0  0  0  0  0  0  0  0  0  0  0  0
   -0.6289    2.1775    2.3307 H   0  0  0  0  0  0  0  0  0  0  0  0
    0.3882    1.7670    3.7245 H   0  0  0  0  0  0  0  0  0  0  0  0
   -1.9689    0.1350    0.8298 N   0  0  0  0  0  0  0  0  0  0  0  0
   -2.0775    1.4021    0.1543 C   0  0  2  0  0  0  0  0  0  0  0  0
   -1.5422    2.4856    1.0842 C   0  0  0  0  0  0  0  0  0  0  0  0
   -0.8094    3.3952    0.7010 O   0  0  0  0  0  0  0  0  0  0  0  0
   -3.5098    1.6855   -0.2871 C   0  0  0  0  0  0  0  0  0  0  0  0
   -4.3515    1.8525    0.8482 O   0  0  0  0  0  0  0  0  0  0  0  0
   -2.8171   -0.4127    0.9581 H   0  0  0  0  0  0  0  0  0  0  0  0
   -1.4283    1.3387   -0.7265 H   0  0  0  0  0  0  0  0  0  0  0  0
   -3.9075    0.8598   -0.8859 H   0  0  0  0  0  0  0  0  0  0  0  0
   -3.5548    2.6040   -0.8820 H   0  0  0  0  0  0  0  0  0  0  0  0
   -3.9960    2.6029    1.3503 H   0  0  0  0  0  0  0  0  0  0  0  0
   -2.0142    2.3407    2.3811 N   0  0  0  0  0  0  0  0  0  0  0  0
   -1.6764    3.2589    3.4437 C   0  0  2  0  0  0  0  0  0  0  0  0
   -1.5425    4.6500    2.8385 C   0  0  0  0  0  0  0  0  0  0  0  0
   -1.3081    4.8436    1.6474 O   0  0  0  0  0  0  0  0  0  0  0  0
   -0.3918    2.8453    4.1449 C   0  0  0  0  0  0  0  0  0  0  0  0
   -2.6500    1.5791    2.5988 H   0  0  0  0  0  0  0  0  0  0  0  0
   -2.5133    3.2465    4.1505 H   0  0  0  0  0  0  0  0  0  0  0  0
    0.4580    2.8518    3.4526 H   0  0  0  0  0  0  0  0  0  0  0  0
   -0.1524    3.5261    4.9684 H   0  0  0  0  0  0  0  0  0  0  0  0
   -0.4796    1.8330    4.5538 H   0  0  0  0  0  0  0  0  0  0  0  0
   -1.6728    5.6492    3.7928 N   0  0  0  0  0  0  0  0  0  0  0  0
   -1.5724    7.0534    3.4702 C   0  0  0  0  0  0  0  0  0  0  0  0
   -1.8852    5.3977    4.7538 H   0  0  0  0  0  0  0  0  0  0  0  0
   -0.5335    7.3881    3.6063 H   0  0  0  0  0  0  0  0  0  0  0  0
   -1.8745    7.2117    2.4244 H   0  0  0  0  0  0  0  0  0  0  0  0
   -2.2333    7.6302    4.1340 H   0  0  0  0  0  0  0  0  0  0  0  0
  1  3  1  0  0  0  0
  1  7  1  0  0  0  0
  1  2  2  0  0  0  0
 29 30  1  0  0  0  0
 30 38  1  0  0  0  0
 30 31  2  0  0  0  0
  8  9  1  0  0  0  0
  9 17  1  0  0  0  0
  9 10  2  0  0  0  0
 18 19  1  0  0  0  0
 19 28  1  0  0  0  0
 19 20  2  0  0  0  0
 29 32  1  0  0  0  0
  8 11  1  0  0  0  0
 38 39  1  0  0  0  0
 18 21  1  0  0  0  0
 21 22  1  0  0  0  0
 28 29  1  0  0  0  0
  7  8  1  0  0  0  0
 17 18  1  0  0  0  0
  3  4  1  0  0  0  0
  3  5  1  0  0  0  0
  3  6  1  0  0  0  0
 32 35  1  0  0  0  0
 32 36  1  0  0  0  0
 32 37  1  0  0  0  0
 11 14  1  0  0  0  0
 11 15  1  0  0  0  0
 11 16  1  0  0  0  0
 39 41  1  0  0  0  0
 39 42  1  0  0  0  0
 39 43  1  0  0  0  0
 21 25  1  0  0  0  0
 21 26  1  0  0  0  0
 29 34  1  0  0  0  0
  8 13  1  0  0  0  0
 18 24  1  0  0  0  0
 38 40  1  0  0  0  0
  7 12  1  0  0  0  0
 28 33  1  0  0  0  0
 17 23  1  0  0  0  0
 22 27  1  0  0  0  0
M  END
$$$$

  -OEChem-02062319033D

 43 42  0     1  0  0  0  0  0999 V2000
    0.7424   -1.0926    4.5665 C   0  0  0  0  0  0  0  0  0  0  0  0
    0.1409   -0.5364    5.4779 O   0  0  0  0  0  0  0  0  0  0  0  0
    1.7940   -2.1023    4.8871 C   0  0  0  0  0  0  0  0  0  0  0  0
    2.7935   -1.6502    4.9904 H   0  0  0  0  0  0  0  0  0  0  0  0
    1.6064   -2.6156    5.8438 H   0  0  0  0  0  0  0  0  0  0  0  0
    1.9156   -2.9078    4.1453 H   0  0  0  0  0  0  0  0  0  0  0  0
    0.5488   -0.8838    3.2109 N   0  0  0  0  0  0  0  0  0  0  0  0
   -0.4159    0.0446    2.6829 C   0  0  2  0  0  0  0  0  0  0  0  0
   -0.7551   -0.3867    1.2623 C   0  0  0  0  0  0  0  0  0  0  0  0
   -0.0106   -1.0851    0.5774 O   0  0  0  0  0  0  0  0  0  0  0  0
    0.1168    1.4689    2.7060 C   0  0  0  0  0  0  0  0  0  0  0  0
    1.1183   -1.4145    2.5542 H   0  0  0  0  0  0  0  0  0  0  0  0
   -1.3088   -0.0350    3.3125 H   0  0  0  0  0  0  0  0  0  0  0  0
    1.0116    1.5681    2.0808 H   0  0  0  0  0  0  0  0  0  0  0  0
   -0.6289    2.1775    2.3307 H   0  0  0  0  0  0  0  0  0  0  0  0
    0.3882    1.7670    3.7245 H   0  0  0  0  0  0  0  0  0  0  0  0
   -1.9689    0.1350    0.8298 N   0  0  0  0  0  0  0  0  0  0  0  0
   -2.0606    1.2251   -0.1067 C   0  0  2  0  0  0  0  0  0  0  0  0
   -1.3556    2.4341    0.4983 C   0  0  0  0  0  0  0  0  0  0  0  0
   -0.6064    3.1648   -0.1466 O   0  0  0  0  0  0  0  0  0  0  0  0
   -3.5086    1.5335   -0.4739 C   0  0  0  0  0  0  0  0  0  0  0  0
   -4.2111    2.0247    0.6620 O   0  0  0  0  0  0  0  0  0  0  0  0
   -2.8345   -0.2904    1.1546 H   0  0  0  0  0  0  0  0  0  0  0  0
   -1.5148    0.9084   -1.0029 H   0  0  0  0  0  0  0  0  0  0  0  0
   -4.0240    0.6354   -0.8294 H   0  0  0  0  0  0  0  0  0  0  0  0
   -3.5528    2.2971   -1.2577 H   0  0  0  0  0  0  0  0  0  0  0  0
   -3.7530    2.8321    0.9448 H   0  0  0  0  0  0  0  0  0  0  0  0
   -1.6958    2.6247    1.8301 N   0  0  0  0  0  0  0  0  0  0  0  0
   -1.1840    3.7210    2.6192 C   0  0  2  0  0  0  0  0  0  0  0  0
   -1.0192    4.9247    1.7009 C   0  0  0  0  0  0  0  0  0  0  0  0
   -0.8999    4.8267    0.4813 O   0  0  0  0  0  0  0  0  0  0  0  0
    0.1360    3.3574    3.2810 C   0  0  0  0  0  0  0  0  0  0  0  0
   -2.3562    1.9920    2.2721 H   0  0  0  0  0  0  0  0  0  0  0  0
   -1.9398    3.9425    3.3806 H   0  0  0  0  0  0  0  0  0  0  0  0
    0.9058    3.1321    2.5338 H   0  0  0  0  0  0  0  0  0  0  0  0
    0.5083    4.1791    3.9016 H   0  0  0  0  0  0  0  0  0  0  0  0
    0.0223    2.4735    3.9179 H   0  0  0  0  0  0  0  0  0  0  0  0
   -0.9776    6.1185    2.4076 N   0  0  0  0  0  0  0  0  0  0  0  0
   -0.8149    7.4007    1.7631 C   0  0  0  0  0  0  0  0  0  0  0  0
   -1.1035    6.1071    3.4154 H   0  0  0  0  0  0  0  0  0  0  0  0
    0.2534    7.6605    1.7268 H   0  0  0  0  0  0  0  0  0  0  0  0
   -1.2148    7.3499    0.7396 H   0  0  0  0  0  0  0  0  0  0  0  0
   -1.3598    8.1686    2.3319 H   0  0  0  0  0  0  0  0  0  0  0  0
  1  3  1  0  0  0  0
  1  7  1  0  0  0  0
  1  2  2  0  0  0  0
 29 30  1  0  0  0  0
 30 38  1  0  0  0  0
 30 31  2  0  0  0  0
  8  9  1  0  0  0  0
  9 17  1  0  0  0  0
  9 10  2  0  0  0  0
 18 19  1  0  0  0  0
 19 28  1  0  0  0  0
 19 20  2  0  0  0  0
 29 32  1  0  0  0  0
  8 11  1  0  0  0  0
 38 39  1  0  0  0  0
 18 21  1  0  0  0  0
 21 22  1  0  0  0  0
 28 29  1  0  0  0  0
  7  8  1  0  0  0  0
 17 18  1  0  0  0  0
  3  4  1  0  0  0  0
  3  5  1  0  0  0  0
  3  6  1  0  0  0  0
 32 35  1  0  0  0  0
 32 36  1  0  0  0  0
 32 37  1  0  0  0  0
 11 14  1  0  0  0  0
 11 15  1  0  0  0  0
 11 16  1  0  0  0  0
 39 41  1  0  0  0  0
 39 42  1  0  0  0  0
 39 43  1  0  0  0  0
 21 25  1  0  0  0  0
 21 26  1  0  0  0  0
 29 34  1  0  0  0  0
  8 13  1  0  0  0  0
 18 24  1  0  0  0  0
 38 40  1  0  0  0  0
  7 12  1  0  0  0  0
 28 33  1  0  0  0  0
 17 23  1  0  0  0  0
 22 27  1  0  0  0  0
M  END
$$$$

  -OEChem-02062319033D

 43 42  0     1  0  0  0  0  0999 V2000
    0.7424   -1.0926    4.5665 C   0  0  0  0  0  0  0  0  0  0  0  0
    0.1409   -0.5364    5.4779 O   0  0  0  0  0  0  0  0  0  0  0  0
    1.7940   -2.1023    4.8871 C   0  0  0  0  0  0  0  0  0  0  0  0
    2.7935   -1.6502    4.9904 H   0  0  0  0  0  0  0  0  0  0  0  0
    1.6064   -2.6156    5.8438 H   0  0  0  0  0  0  0  0  0  0  0  0
    1.9156   -2.9078    4.1453 H   0  0  0  0  0  0  0  0  0  0  0  0
    0.5488   -0.8838    3.2109 N   0  0  0  0  0  0  0  0  0  0  0  0
   -0.4159    0.0446    2.6829 C   0  0  2  0  0  0  0  0  0  0  0  0
   -0.7551   -0.3867    1.2623 C   0  0  0  0  0  0  0  0  0  0  0  0
   -0.0106   -1.0851    0.5774 O   0  0  0  0  0  0  0  0  0  0  0  0
    0.1168    1.4689    2.7060 C   0  0  0  0  0  0  0  0  0  0  0  0
    1.1183   -1.4145    2.5542 H   0  0  0  0  0  0  0  0  0  0  0  0
   -1.3088   -0.0350    3.3125 H   0  0  0  0  0  0  0  0  0  0  0  0
    1.0116    1.5681    2.0808 H   0  0  0  0  0  0  0  0  0  0  0  0
   -0.6289    2.1775    2.3307 H   0  0  0  0  0  0  0  0  0  0  0  0
    0.3882    1.7670    3.7245 H   0  0  0  0  0  0  0  0  0  0  0  0
   -1.9689    0.1350    0.8298 N   0  0  0  0  0  0  0  0  0  0  0  0
   -2.0839    0.9936   -0.3205 C   0  0  2  0  0  0  0  0  0  0  0  0
   -1.2363    2.2370   -0.0741 C   0  0  0  0  0  0  0  0  0  0  0  0
   -0.5111    2.7344   -0.9331 O   0  0  0  0  0  0  0  0  0  0  0  0
   -3.5378    1.3443   -0.6201 C   0  0  0  0  0  0  0  0  0  0  0  0
   -4.0797    2.1377    0.4296 O   0  0  0  0  0  0  0  0  0  0  0  0
   -2.8225   -0.1265    1.3185 H   0  0  0  0  0  0  0  0  0  0  0  0
   -1.6598    0.4372   -1.1643 H   0  0  0  0  0  0  0  0  0  0  0  0
   -4.1492    0.4409   -0.7128 H   0  0  0  0  0  0  0  0  0  0  0  0
   -3.6121    1.9156   -1.5515 H   0  0  0  0  0  0  0  0  0  0  0  0
   -3.5393    2.9422    0.4778 H   0  0  0  0  0  0  0  0  0  0  0  0
   -1.4190    2.7488    1.2027 N   0  0  0  0  0  0  0  0  0  0  0  0
   -0.7513    3.9413    1.6705 C   0  0  2  0  0  0  0  0  0  0  0  0
   -0.6020    4.8908    0.4891 C   0  0  0  0  0  0  0  0  0  0  0  0
   -0.6202    4.5140   -0.6808 O   0  0  0  0  0  0  0  0  0  0  0  0
    0.6033    3.6142    2.2795 C   0  0  0  0  0  0  0  0  0  0  0  0
   -2.0708    2.2934    1.8347 H   0  0  0  0  0  0  0  0  0  0  0  0
   -1.4046    4.3947    2.4239 H   0  0  0  0  0  0  0  0  0  0  0  0
    1.2716    3.1591    1.5396 H   0  0  0  0  0  0  0  0  0  0  0  0
    1.0956    4.5156    2.6594 H   0  0  0  0  0  0  0  0  0  0  0  0
    0.4969    2.9080    3.1101 H   0  0  0  0  0  0  0  0  0  0  0  0
   -0.4028    6.2027    0.8959 N   0  0  0  0  0  0  0  0  0  0  0  0
   -0.2210    7.2894   -0.0379 C   0  0  0  0  0  0  0  0  0  0  0  0
   -0.4212    6.4270    1.8864 H   0  0  0  0  0  0  0  0  0  0  0  0
    0.8527    7.4356   -0.2267 H   0  0  0  0  0  0  0  0  0  0  0  0
   -0.7301    7.0495   -0.9831 H   0  0  0  0  0  0  0  0  0  0  0  0
   -0.6477    8.2110    0.3847 H   0  0  0  0  0  0  0  0  0  0  0  0
  1  3  1  0  0  0  0
  1  7  1  0  0  0  0
  1  2  2  0  0  0  0
 29 30  1  0  0  0  0
 30 38  1  0  0  0  0
 30 31  2  0  0  0  0
  8  9  1  0  0  0  0
  9 17  1  0  0  0  0
  9 10  2  0  0  0  0
 18 19  1  0  0  0  0
 19 28  1  0  0  0  0
 19 20  2  0  0  0  0
 29 32  1  0  0  0  0
  8 11  1  0  0  0  0
 38 39  1  0  0  0  0
 18 21  1  0  0  0  0
 21 22  1  0  0  0  0
 28 29  1  0  0  0  0
  7  8  1  0  0  0  0
 17 18  1  0  0  0  0
  3  4  1  0  0  0  0
  3  5  1  0  0  0  0
  3  6  1  0  0  0  0
 32 35  1  0  0  0  0
 32 36  1  0  0  0  0
 32 37  1  0  0  0  0
 11 14  1  0  0  0  0
 11 15  1  0  0  0  0
 11 16  1  0  0  0  0
 39 41  1  0  0  0  0
 39 42  1  0  0  0  0
 39 43  1  0  0  0  0
 21 25  1  0  0  0  0
 21 26  1  0  0  0  0
 29 34  1  0  0  0  0
  8 13  1  0  0  0  0
 18 24  1  0  0  0  0
 38 40  1  0  0  0  0
  7 12  1  0  0  0  0
 28 33  1  0  0  0  0
 17 23  1  0  0  0  0
 22 27  1  0  0  0  0
M  END
$$$$

  -OEChem-02062319033D

 43 42  0     1  0  0  0  0  0999 V2000
    0.7424   -1.0926    4.5665 C   0  0  0  0  0  0  0  0  0  0  0  0
    0.1409   -0.5364    5.4779 O   0  0  0  0  0  0  0  0  0  0  0  0
    1.7940   -2.1023    4.8871 C   0  0  0  0  0  0  0  0  0  0  0  0
    2.7935   -1.6502    4.9904 H   0  0  0  0  0  0  0  0  0  0  0  0
    1.6064   -2.6156    5.8438 H   0  0  0  0  0  0  0  0  0  0  0  0
    1.9156   -2.9078    4.1453 H   0  0  0  0  0  0  0  0  0  0  0  0
    0.5488   -0.8838    3.2109 N   0  0  0  0  0  0  0  0  0  0  0  0
   -0.4159    0.0446    2.6829 C   0  0  2  0  0  0  0  0  0  0  0  0
   -0.7551   -0.3867    1.2623 C   0  0  0  0  0  0  0  0  0  0  0  0
   -0.0106   -1.0851    0.5774 O   0  0  0  0  0  0  0  0  0  0  0  0
    0.1168    1.4689    2.7060 C   0  0  0  0  0  0  0  0  0  0  0  0
    1.1183   -1.4145    2.5542 H   0  0  0  0  0  0  0  0  0  0  0  0
   -1.3088   -0.0350    3.3125 H   0  0  0  0  0  0  0  0  0  0  0  0
    1.0116    1.5681    2.0808 H   0  0  0  0  0  0  0  0  0  0  0  0
   -0.6289    2.1775    2.3307 H   0  0  0  0  0  0  0  0  0  0  0  0
    0.3882    1.7670    3.7245 H   0  0  0  0  0  0  0  0  0  0  0  0
   -1.9689    0.1350    0.8298 N   0  0  0  0  0  0  0  0  0  0  0  0
   -2.1458    0.7237   -0.4725 C   0  0  2  0  0  0  0  0  0  0  0  0
   -1.1926    1.9076   -0.5941 C   0  0  0  0  0  0  0  0  0  0  0  0
   -0.5302    2.1333   -1.6047 O   0  0  0  0  0  0  0  0  0  0  0  0
   -3.5955    1.1308   -0.7157 C   0  0  0  0  0  0  0  0  0  0  0  0
   -3.9663    2.1838    0.1669 O   0  0  0  0  0  0  0  0  0  0  0  0
   -2.7817    0.0679    1.4386 H   0  0  0  0  0  0  0  0  0  0  0  0
   -1.8534   -0.0426   -1.1996 H   0  0  0  0  0  0  0  0  0  0  0  0
   -4.2744    0.2893   -0.5441 H   0  0  0  0  0  0  0  0  0  0  0  0
   -3.7286    1.4855   -1.7433 H   0  0  0  0  0  0  0  0  0  0  0  0
   -3.3693    2.9259   -0.0189 H   0  0  0  0  0  0  0  0  0  0  0  0
   -1.2024    2.7047    0.5418 N   0  0  0  0  0  0  0  0  0  0  0  0
   -0.4077    3.9049    0.6623 C   0  0  2  0  0  0  0  0  0  0  0  0
   -0.3194    4.5506   -0.7142 C   0  0  0  0  0  0  0  0  0  0  0  0
   -0.4881    3.9268   -1.7598 O   0  0  0  0  0  0  0  0  0  0  0  0
    0.9780    3.5984    1.2088 C   0  0  0  0  0  0  0  0  0  0  0  0
   -1.8134    2.4626    1.3163 H   0  0  0  0  0  0  0  0  0  0  0  0
   -0.9442    4.5722    1.3457 H   0  0  0  0  0  0  0  0  0  0  0  0
    1.5306    2.9310    0.5375 H   0  0  0  0  0  0  0  0  0  0  0  0
    1.5692    4.5125    1.3264 H   0  0  0  0  0  0  0  0  0  0  0  0
    0.9118    3.1070    2.1855 H   0  0  0  0  0  0  0  0  0  0  0  0
    0.0124    5.8961   -0.6391 N   0  0  0  0  0  0  0  0  0  0  0  0
    0.1687    6.7271   -1.8100 C   0  0  0  0  0  0  0  0  0  0  0  0
    0.1151    6.3354    0.2709 H   0  0  0  0  0  0  0  0  0  0  0  0
    1.2239    6.7286   -2.1210 H   0  0  0  0  0  0  0  0  0  0  0  0
   -0.4534    6.3310   -2.6262 H   0  0  0  0  0  0  0  0  0  0  0  0
   -0.1456    7.7546   -1.5749 H   0  0  0  0  0  0  0  0  0  0  0  0
  1  3  1  0  0  0  0
  1  7  1  0  0  0  0
  1  2  2  0  0  0  0
 29 30  1  0  0  0  0
 30 38  1  0  0  0  0
 30 31  2  0  0  0  0
  8  9  1  0  0  0  0
  9 17  1  0  0  0  0
  9 10  2  0  0  0  0
 18 19  1  0  0  0  0
 19 28  1  0  0  0  0
 19 20  2  0  0  0  0
 29 32  1  0  0  0  0
  8 11  1  0  0  0  0
 38 39  1  0  0  0  0
 18 21  1  0  0  0  0
 21 22  1  0  0  0  0
 28 29  1  0  0  0  0
  7  8  1  0  0  0  0
 17 18  1  0  0  0  0
  3  4  1  0  0  0  0
  3  5  1  0  0  0  0
  3  6  1  0  0  0  0
 32 35  1  0  0  0  0
 32 36  1  0  0  0  0
 32 37  1  0  0  0  0
 11 14  1  0  0  0  0
 11 15  1  0  0  0  0
 11 16  1  0  0  0  0
 39 41  1  0  0  0  0
 39 42  1  0  0  0  0
 39 43  1  0  0  0  0
 21 25  1  0  0  0  0
 21 26  1  0  0  0  0
 29 34  1  0  0  0  0
  8 13  1  0  0  0  0
 18 24  1  0  0  0  0
 38 40  1  0  0  0  0
  7 12  1  0  0  0  0
 28 33  1  0  0  0  0
 17 23  1  0  0  0  0
 22 27  1  0  0  0  0
M  END
$$$$

  -OEChem-02062319033D

 43 42  0     1  0  0  0  0  0999 V2000
    0.7424   -1.0926    4.5665 C   0  0  0  0  0  0  0  0  0  0  0  0
    0.1409   -0.5364    5.4779 O   0  0  0  0  0  0  0  0  0  0  0  0
    1.7940   -2.1023    4.8871 C   0  0  0  0  0  0  0  0  0  0  0  0
    2.7935   -1.6502    4.9904 H   0  0  0  0  0  0  0  0  0  0  0  0
    1.6064   -2.6156    5.8438 H   0  0  0  0  0  0  0  0  0  0  0  0
    1.9156   -2.9078    4.1453 H   0  0  0  0  0  0  0  0  0  0  0  0
    0.5488   -0.8838    3.2109 N   0  0  0  0  0  0  0  0  0  0  0  0
   -0.4159    0.0446    2.6829 C   0  0  2  0  0  0  0  0  0  0  0  0
   -0.7551   -0.3867    1.2623 C   0  0  0  0  0  0  0  0  0  0  0  0
   -0.0106   -1.0851    0.5774 O   0  0  0  0  0  0  0  0  0  0  0  0
    0.1168    1.4689    2.7060 C   0  0  0  0  0  0  0  0  0  0  0  0
    1.1183   -1.4145    2.5542 H   0  0  0  0  0  0  0  0  0  0  0  0
   -1.3088   -0.0350    3.3125 H   0  0  0  0  0  0  0  0  0  0  0  0
    1.0116    1.5681    2.0808 H   0  0  0  0  0  0  0  0  0  0  0  0
   -0.6289    2.1775    2.3307 H   0  0  0  0  0  0  0  0  0  0  0  0
    0.3882    1.7670    3.7245 H   0  0  0  0  0  0  0  0  0  0  0  0
   -1.9689    0.1350    0.8298 N   0  0  0  0  0  0  0  0  0  0  0  0
   -2.2420    0.4335   -0.5523 C   0  0  2  0  0  0  0  0  0  0  0  0
   -1.2275    1.4685   -1.0261 C   0  0  0  0  0  0  0  0  0  0  0  0
   -0.6622    1.4024   -2.1157 O   0  0  0  0  0  0  0  0  0  0  0  0
   -3.6776    0.9077   -0.7542 C   0  0  0  0  0  0  0  0  0  0  0  0
   -3.8785    2.1598   -0.1084 O   0  0  0  0  0  0  0  0  0  0  0  0
   -2.7150    0.2796    1.5067 H   0  0  0  0  0  0  0  0  0  0  0  0
   -2.0826   -0.4986   -1.1065 H   0  0  0  0  0  0  0  0  0  0  0  0
   -4.3912    0.1912   -0.3348 H   0  0  0  0  0  0  0  0  0  0  0  0
   -3.8945    1.0360   -1.8201 H   0  0  0  0  0  0  0  0  0  0  0  0
   -3.2547    2.7842   -0.5116 H   0  0  0  0  0  0  0  0  0  0  0  0
   -1.0611    2.4953   -0.1076 N   0  0  0  0  0  0  0  0  0  0  0  0
   -0.1767    3.6142   -0.3367 C   0  0  2  0  0  0  0  0  0  0  0  0
   -0.1908    3.9273   -1.8270 C   0  0  0  0  0  0  0  0  0  0  0  0
   -0.5126    3.1051   -2.6822 O   0  0  0  0  0  0  0  0  0  0  0  0
    1.2346    3.3110    0.1417 C   0  0  0  0  0  0  0  0  0  0  0  0
   -1.6014    2.4883    0.7524 H   0  0  0  0  0  0  0  0  0  0  0  0
   -0.5898    4.4628    0.2193 H   0  0  0  0  0  0  0  0  0  0  0  0
    1.6651    2.4634   -0.4040 H   0  0  0  0  0  0  0  0  0  0  0  0
    1.8970    4.1702   -0.0065 H   0  0  0  0  0  0  0  0  0  0  0  0
    1.2389    3.0569    1.2072 H   0  0  0  0  0  0  0  0  0  0  0  0
    0.2397    5.2197   -2.0929 N   0  0  0  0  0  0  0  0  0  0  0  0
    0.3278    5.7520   -3.4326 C   0  0  0  0  0  0  0  0  0  0  0  0
    0.4688    5.8388   -1.3209 H   0  0  0  0  0  0  0  0  0  0  0  0
    1.3414    5.5878   -3.8271 H   0  0  0  0  0  0  0  0  0  0  0  0
   -0.4036    5.2434   -4.0779 H   0  0  0  0  0  0  0  0  0  0  0  0
    0.1123    6.8306   -3.4134 H   0  0  0  0  0  0  0  0  0  0  0  0
  1  3  1  0  0  0  0
  1  7  1  0  0  0  0
  1  2  2  0  0  0  0
 29 30  1  0  0  0  0
 30 38  1  0  0  0  0
 30 31  2  0  0  0  0
  8  9  1  0  0  0  0
  9 17  1  0  0  0  0
  9 10  2  0  0  0  0
 18 19  1  0  0  0  0
 19 28  1  0  0  0  0
 19 20  2  0  0  0  0
 29 32  1  0  0  0  0
  8 11  1  0  0  0  0
 38 39  1  0  0  0  0
 18 21  1  0  0  0  0
 21 22  1  0  0  0  0
 28 29  1  0  0  0  0
  7  8  1  0  0  0  0
 17 18  1  0  0  0  0
  3  4  1  0  0  0  0
  3  5  1  0  0  0  0
  3  6  1  0  0  0  0
 32 35  1  0  0  0  0
 32 36  1  0  0  0  0
 32 37  1  0  0  0  0
 11 14  1  0  0  0  0
 11 15  1  0  0  0  0
 11 16  1  0  0  0  0
 39 41  1  0  0  0  0
 39 42  1  0  0  0  0
 39 43  1  0  0  0  0
 21 25  1  0  0  0  0
 21 26  1  0  0  0  0
 29 34  1  0  0  0  0
  8 13  1  0  0  0  0
 18 24  1  0  0  0  0
 38 40  1  0  0  0  0
  7 12  1  0  0  0  0
 28 33  1  0  0  0  0
 17 23  1  0  0  0  0
 22 27  1  0  0  0  0
M  END
$$$$

  -OEChem-02062319033D

 43 42  0     1  0  0  0  0  0999 V2000
    0.7424   -1.0926    4.5665 C   0  0  0  0  0  0  0  0  0  0  0  0
    0.1409   -0.5364    5.4779 O   0  0  0  0  0  0  0  0  0  0  0  0
    1.7940   -2.1023    4.8871 C   0  0  0  0  0  0  0  0  0  0  0  0
    2.7935   -1.6502    4.9904 H   0  0  0  0  0  0  0  0  0  0  0  0
    1.6064   -2.6156    5.8438 H   0  0  0  0  0  0  0  0  0  0  0  0
    1.9156   -2.9078    4.1453 H   0  0  0  0  0  0  0  0  0  0  0  0
    0.5488   -0.8838    3.2109 N   0  0  0  0  0  0  0  0  0  0  0  0
   -0.4159    0.0446    2.6829 C   0  0  2  0  0  0  0  0  0  0  0  0
   -0.7551   -0.3867    1.2623 C   0  0  0  0  0  0  0  0  0  0  0  0
   -0.0106   -1.0851    0.5774 O   0  0  0  0  0  0  0  0  0  0  0  0
    0.1168    1.4689    2.7060 C   0  0  0  0  0  0  0  0  0  0  0  0
    1.1183   -1.4145    2.5542 H   0  0  0  0  0  0  0  0  0  0  0  0
   -1.3088   -0.0350    3.3125 H   0  0  0  0  0  0  0  0  0  0  0  0
    1.0116    1.5681    2.0808 H   0  0  0  0  0  0  0  0  0  0  0  0
   -0.6289    2.1775    2.3307 H   0  0  0  0  0  0  0  0  0  0  0  0
    0.3882    1.7670    3.7245 H   0  0  0  0  0  0  0  0  0  0  0  0
   -1.9689    0.1350    0.8298 N   0  0  0  0  0  0  0  0  0  0  0  0
   -2.3661    0.1430   -0.5544 C   0  0  2  0  0  0  0  0  0  0  0  0
   -1.3384    0.9494   -1.3408 C   0  0  0  0  0  0  0  0  0  0  0  0
   -0.8982    0.5916   -2.4314 O   0  0  0  0  0  0  0  0  0  0  0  0
   -3.7787    0.6901   -0.7330 C   0  0  0  0  0  0  0  0  0  0  0  0
   -3.8224    2.0673   -0.3773 O   0  0  0  0  0  0  0  0  0  0  0  0
   -2.6269    0.4941    1.5182 H   0  0  0  0  0  0  0  0  0  0  0  0
   -2.3316   -0.8995   -0.8912 H   0  0  0  0  0  0  0  0  0  0  0  0
   -4.4916    0.1531   -0.0990 H   0  0  0  0  0  0  0  0  0  0  0  0
   -4.0983    0.5979   -1.7765 H   0  0  0  0  0  0  0  0  0  0  0  0
   -3.2032    2.5267   -0.9665 H   0  0  0  0  0  0  0  0  0  0  0  0
   -1.0044    2.1348   -0.7013 N   0  0  0  0  0  0  0  0  0  0  0  0
   -0.0740    3.0891   -1.2584 C   0  0  2  0  0  0  0  0  0  0  0  0
   -0.2248    3.0635   -2.7736 C   0  0  0  0  0  0  0  0  0  0  0  0
   -0.6920    2.1049   -3.3851 O   0  0  0  0  0  0  0  0  0  0  0  0
    1.3558    2.7715   -0.8490 C   0  0  0  0  0  0  0  0  0  0  0  0
   -1.4494    2.3685    0.1813 H   0  0  0  0  0  0  0  0  0  0  0  0
   -0.3658    4.0742   -0.8783 H   0  0  0  0  0  0  0  0  0  0  0  0
    1.6660    1.7882   -1.2208 H   0  0  0  0  0  0  0  0  0  0  0  0
    2.0566    3.5120   -1.2484 H   0  0  0  0  0  0  0  0  0  0  0  0
    1.4557    2.7610    0.2418 H   0  0  0  0  0  0  0  0  0  0  0  0
    0.2636    4.2195   -3.3663 N   0  0  0  0  0  0  0  0  0  0  0  0
    0.2453    4.4307   -4.7950 C   0  0  0  0  0  0  0  0  0  0  0  0
    0.6159    4.9708   -2.7806 H   0  0  0  0  0  0  0  0  0  0  0  0
    1.1974    4.0908   -5.2286 H   0  0  0  0  0  0  0  0  0  0  0  0
   -0.5840    3.8608   -5.2392 H   0  0  0  0  0  0  0  0  0  0  0  0
    0.1084    5.5017   -5.0054 H   0  0  0  0  0  0  0  0  0  0  0  0
  1  3  1  0  0  0  0
  1  7  1  0  0  0  0
  1  2  2  0  0  0  0
 29 30  1  0  0  0  0
 30 38  1  0  0  0  0
 30 31  2  0  0  0  0
  8  9  1  0  0  0  0
  9 17  1  0  0  0  0
  9 10  2  0  0  0  0
 18 19  1  0  0  0  0
 19 28  1  0  0  0  0
 19 20  2  0  0  0  0
 29 32  1  0  0  0  0
  8 11  1  0  0  0  0
 38 39  1  0  0  0  0
 18 21  1  0  0  0  0
 21 22  1  0  0  0  0
 28 29  1  0  0  0  0
  7  8  1  0  0  0  0
 17 18  1  0  0  0  0
  3  4  1  0  0  0  0
  3  5  1  0  0  0  0
  3  6  1  0  0  0  0
 32 35  1  0  0  0  0
 32 36  1  0  0  0  0
 32 37  1  0  0  0  0
 11 14  1  0  0  0  0
 11 15  1  0  0  0  0
 11 16  1  0  0  0  0
 39 41  1  0  0  0  0
 39 42  1  0  0  0  0
 39 43  1  0  0  0  0
 21 25  1  0  0  0  0
 21 26  1  0  0  0  0
 29 34  1  0  0  0  0
  8 13  1  0  0  0  0
 18 24  1  0  0  0  0
 38 40  1  0  0  0  0
  7 12  1  0  0  0  0
 28 33  1  0  0  0  0
 17 23  1  0  0  0  0
 22 27  1  0  0  0  0
M  END
$$$$
