
  -OEChem-02062319123D

 43 42  0     1  0  0  0  0  0999 V2000
    0.7984   -2.1075    5.1824 C   0  0  0  0  0  0  0  0  0  0  0  0
   -0.1297   -1.7097    5.8684 O   0  0  0  0  0  0  0  0  0  0  0  0
    1.8297   -3.0529    5.7687 C   0  0  0  0  0  0  0  0  0  0  0  0
    2.8152   -2.5813    5.7592 H   0  0  0  0  0  0  0  0  0  0  0  0
    1.5681   -3.3032    6.8006 H   0  0  0  0  0  0  0  0  0  0  0  0
    1.8684   -3.9743    5.1826 H   0  0  0  0  0  0  0  0  0  0  0  0
    0.9069   -1.7022    3.8691 N   0  0  0  0  0  0  0  0  0  0  0  0
   -0.1102   -0.9156    3.1594 C   0  0  2  0  0  0  0  0  0  0  0  0
   -0.1166   -1.2265    1.6478 C   0  0  0  0  0  0  0  0  0  0  0  0
    0.7639   -1.9203    1.1541 O   0  0  0  0  0  0  0  0  0  0  0  0
    0.1688    0.5715    3.4032 C   0  0  0  0  0  0  0  0  0  0  0  0
    1.6178   -2.1567    3.2962 H   0  0  0  0  0  0  0  0  0  0  0  0
   -1.1040   -1.1648    3.5472 H   0  0  0  0  0  0  0  0  0  0  0  0
    1.1546    0.8448    3.0134 H   0  0  0  0  0  0  0  0  0  0  0  0
   -0.5866    1.1921    2.9120 H   0  0  0  0  0  0  0  0  0  0  0  0
    0.1461    0.7900    4.4759 H   0  0  0  0  0  0  0  0  0  0  0  0
   -1.1272   -0.7491    0.8355 N   0  0  0  0  0  0  0  0  0  0  0  0
   -1.2247   -0.9884   -0.6158 C   0  0  2  0  0  0  0  0  0  0  0  0
   -0.0342   -0.4587   -1.4327 C   0  0  0  0  0  0  0  0  0  0  0  0
    0.2204   -0.9789   -2.5116 O   0  0  0  0  0  0  0  0  0  0  0  0
   -2.5214   -0.3498   -1.1291 C   0  0  0  0  0  0  0  0  0  0  0  0
   -2.5732    1.0468   -0.8006 O   0  0  0  0  0  0  0  0  0  0  0  0
   -1.8308   -0.1446    1.2565 H   0  0  0  0  0  0  0  0  0  0  0  0
   -1.2736   -2.0677   -0.7933 H   0  0  0  0  0  0  0  0  0  0  0  0
   -3.3742   -0.8563   -0.6660 H   0  0  0  0  0  0  0  0  0  0  0  0
   -2.6079   -0.4817   -2.2131 H   0  0  0  0  0  0  0  0  0  0  0  0
   -2.2063    1.5877   -1.5476 H   0  0  0  0  0  0  0  0  0  0  0  0
    0.4391    0.8134   -1.1495 N   0  0  0  0  0  0  0  0  0  0  0  0
    0.9231    1.7479   -2.1786 C   0  0  2  0  0  0  0  0  0  0  0  0
   -0.1833    2.0257   -3.2247 C   0  0  0  0  0  0  0  0  0  0  0  0
   -1.3012    2.3417   -2.8221 O   0  0  0  0  0  0  0  0  0  0  0  0
    2.2630    1.2872   -2.7789 C   0  0  0  0  0  0  0  0  0  0  0  0
   -0.0268    1.2315   -0.3484 H   0  0  0  0  0  0  0  0  0  0  0  0
    1.1192    2.7054   -1.6864 H   0  0  0  0  0  0  0  0  0  0  0  0
    2.1449    0.3879   -3.3898 H   0  0  0  0  0  0  0  0  0  0  0  0
    2.6868    2.0761   -3.4076 H   0  0  0  0  0  0  0  0  0  0  0  0
    2.9750    1.0658   -1.9780 H   0  0  0  0  0  0  0  0  0  0  0  0
    0.0337    1.8798   -4.5819 N   0  0  0  0  0  0  0  0  0  0  0  0
   -1.0412    1.9576   -5.5632 C   0  0  0  0  0  0  0  0  0  0  0  0
    0.8917    1.4027   -4.8458 H   0  0  0  0  0  0  0  0  0  0  0  0
   -0.6375    1.8484   -6.5742 H   0  0  0  0  0  0  0  0  0  0  0  0
   -1.7735    1.1614   -5.3932 H   0  0  0  0  0  0  0  0  0  0  0  0
   -1.5507    2.9248   -5.5000 H   0  0  0  0  0  0  0  0  0  0  0  0
  1  2  2  0  0  0  0
  1  3  1  0  0  0  0
  1  7  1  0  0  0  0
  3  4  1  0  0  0  0
  3  5  1  0  0  0  0
  3  6  1  0  0  0  0
  7  8  1  0  0  0  0
  7 12  1  0  0  0  0
  8  9  1  0  0  0  0
  8 11  1  0  0  0  0
  8 13  1  0  0  0  0
  9 10  2  0  0  0  0
  9 17  1  0  0  0  0
 11 14  1  0  0  0  0
 11 15  1  0  0  0  0
 11 16  1  0  0  0  0
 17 18  1  0  0  0  0
 17 23  1  0  0  0  0
 18 19  1  0  0  0  0
 18 21  1  0  0  0  0
 18 24  1  0  0  0  0
 19 20  2  0  0  0  0
 19 28  1  0  0  0  0
 21 22  1  0  0  0  0
 21 25  1  0  0  0  0
 21 26  1  0  0  0  0
 22 27  1  0  0  0  0
 28 29  1  0  0  0  0
 28 33  1  0  0  0  0
 29 30  1  0  0  0  0
 29 32  1  0  0  0  0
 29 34  1  0  0  0  0
 30 31  2  0  0  0  0
 30 38  1  0  0  0  0
 32 35  1  0  0  0  0
 32 36  1  0  0  0  0
 32 37  1  0  0  0  0
 38 39  1  0  0  0  0
 38 40  1  0  0  0  0
 39 41  1  0  0  0  0
 39 42  1  0  0  0  0
 39 43  1  0  0  0  0
M  END
$$$$

  -OEChem-02062319123D

 43 42  0     1  0  0  0  0  0999 V2000
    0.8428   -1.9451    5.2131 C   0  0  0  0  0  0  0  0  0  0  0  0
   -0.0960   -1.5346    5.8769 O   0  0  0  0  0  0  0  0  0  0  0  0
    1.8777   -2.8600    5.8405 C   0  0  0  0  0  0  0  0  0  0  0  0
    2.8639   -2.3910    5.8003 H   0  0  0  0  0  0  0  0  0  0  0  0
    1.6231   -3.0563    6.8860 H   0  0  0  0  0  0  0  0  0  0  0  0
    1.9116   -3.8104    5.3020 H   0  0  0  0  0  0  0  0  0  0  0  0
    0.9589   -1.5841    3.8874 N   0  0  0  0  0  0  0  0  0  0  0  0
   -0.0603   -0.8320    3.1436 C   0  0  2  0  0  0  0  0  0  0  0  0
   -0.0484   -1.1811    1.6399 C   0  0  0  0  0  0  0  0  0  0  0  0
    0.8314   -1.8981    1.1795 O   0  0  0  0  0  0  0  0  0  0  0  0
    0.1920    0.6652    3.3486 C   0  0  0  0  0  0  0  0  0  0  0  0
    1.6796   -2.0501    3.3366 H   0  0  0  0  0  0  0  0  0  0  0  0
   -1.0547   -1.0858    3.5279 H   0  0  0  0  0  0  0  0  0  0  0  0
    1.1805    0.9417    2.9682 H   0  0  0  0  0  0  0  0  0  0  0  0
   -0.5633    1.2598    2.8258 H   0  0  0  0  0  0  0  0  0  0  0  0
    0.1465    0.9145    4.4137 H   0  0  0  0  0  0  0  0  0  0  0  0
   -1.1096   -0.8172    0.8328 N   0  0  0  0  0  0  0  0  0  0  0  0
   -1.3659   -1.3494   -0.5193 C   0  0  2  0  0  0  0  0  0  0  0  0
   -0.2452   -1.0928   -1.5410 C   0  0  0  0  0  0  0  0  0  0  0  0
   -0.1380   -1.8467   -2.5005 O   0  0  0  0  0  0  0  0  0  0  0  0
   -2.6814   -0.7578   -1.0431 C   0  0  0  0  0  0  0  0  0  0  0  0
   -2.6448    0.6765   -1.0394 O   0  0  0  0  0  0  0  0  0  0  0  0
   -1.8269   -0.2207    1.2406 H   0  0  0  0  0  0  0  0  0  0  0  0
   -1.4801   -2.4361   -0.4503 H   0  0  0  0  0  0  0  0  0  0  0  0
   -3.5018   -1.0934   -0.4008 H   0  0  0  0  0  0  0  0  0  0  0  0
   -2.8850   -1.1221   -2.0560 H   0  0  0  0  0  0  0  0  0  0  0  0
   -2.3184    1.0133   -1.9141 H   0  0  0  0  0  0  0  0  0  0  0  0
    0.3178    0.1731   -1.5889 N   0  0  0  0  0  0  0  0  0  0  0  0
    0.7284    0.8322   -2.8393 C   0  0  2  0  0  0  0  0  0  0  0  0
   -0.4647    0.9383   -3.8196 C   0  0  0  0  0  0  0  0  0  0  0  0
   -1.5221    1.4074   -3.4034 O   0  0  0  0  0  0  0  0  0  0  0  0
    1.9837    0.1732   -3.4366 C   0  0  0  0  0  0  0  0  0  0  0  0
   -0.0259    0.7809   -0.8495 H   0  0  0  0  0  0  0  0  0  0  0  0
    1.0068    1.8614   -2.5933 H   0  0  0  0  0  0  0  0  0  0  0  0
    1.7741   -0.8360   -3.8023 H   0  0  0  0  0  0  0  0  0  0  0  0
    2.3639    0.7701   -4.2712 H   0  0  0  0  0  0  0  0  0  0  0  0
    2.7681    0.1060   -2.6764 H   0  0  0  0  0  0  0  0  0  0  0  0
   -0.3929    0.4782   -5.1213 N   0  0  0  0  0  0  0  0  0  0  0  0
   -1.5578    0.4052   -5.9944 C   0  0  0  0  0  0  0  0  0  0  0  0
    0.4115   -0.1021   -5.3440 H   0  0  0  0  0  0  0  0  0  0  0  0
   -1.2639    0.0562   -6.9889 H   0  0  0  0  0  0  0  0  0  0  0  0
   -2.2988   -0.2902   -5.5864 H   0  0  0  0  0  0  0  0  0  0  0  0
   -2.0208    1.3920   -6.1004 H   0  0  0  0  0  0  0  0  0  0  0  0
  1  2  2  0  0  0  0
  1  3  1  0  0  0  0
  1  7  1  0  0  0  0
  3  4  1  0  0  0  0
  3  5  1  0  0  0  0
  3  6  1  0  0  0  0
  7  8  1  0  0  0  0
  7 12  1  0  0  0  0
  8  9  1  0  0  0  0
  8 11  1  0  0  0  0
  8 13  1  0  0  0  0
  9 10  2  0  0  0  0
  9 17  1  0  0  0  0
 11 14  1  0  0  0  0
 11 15  1  0  0  0  0
 11 16  1  0  0  0  0
 17 18  1  0  0  0  0
 17 23  1  0  0  0  0
 18 19  1  0  0  0  0
 18 21  1  0  0  0  0
 18 24  1  0  0  0  0
 19 20  2  0  0  0  0
 19 28  1  0  0  0  0
 21 22  1  0  0  0  0
 21 25  1  0  0  0  0
 21 26  1  0  0  0  0
 22 27  1  0  0  0  0
 28 29  1  0  0  0  0
 28 33  1  0  0  0  0
 29 30  1  0  0  0  0
 29 32  1  0  0  0  0
 29 34  1  0  0  0  0
 30 31  2  0  0  0  0
 30 38  1  0  0  0  0
 32 35  1  0  0  0  0
 32 36  1  0  0  0  0
 32 37  1  0  0  0  0
 38 39  1  0  0  0  0
 38 40  1  0  0  0  0
 39 41  1  0  0  0  0
 39 42  1  0  0  0  0
 39 43  1  0  0  0  0
M  END
$$$$

  -OEChem-02062319123D

 43 42  0     1  0  0  0  0  0999 V2000
    0.9437   -1.8226    5.1774 C   0  0  0  0  0  0  0  0  0  0  0  0
   -0.0080   -1.4651    5.8532 O   0  0  0  0  0  0  0  0  0  0  0  0
    2.0320   -2.6847    5.7892 C   0  0  0  0  0  0  0  0  0  0  0  0
    2.9909   -2.1627    5.7436 H   0  0  0  0  0  0  0  0  0  0  0  0
    1.7980   -2.9012    6.8354 H   0  0  0  0  0  0  0  0  0  0  0  0
    2.1126   -3.6283    5.2441 H   0  0  0  0  0  0  0  0  0  0  0  0
    1.0259   -1.4505    3.8522 N   0  0  0  0  0  0  0  0  0  0  0  0
   -0.0476   -0.7658    3.1196 C   0  0  2  0  0  0  0  0  0  0  0  0
   -0.0388   -1.1276    1.6188 C   0  0  0  0  0  0  0  0  0  0  0  0
    0.8451   -1.8473    1.1710 O   0  0  0  0  0  0  0  0  0  0  0  0
    0.1172    0.7457    3.3084 C   0  0  0  0  0  0  0  0  0  0  0  0
    1.7530   -1.8918    3.2897 H   0  0  0  0  0  0  0  0  0  0  0  0
   -1.0188   -1.0739    3.5224 H   0  0  0  0  0  0  0  0  0  0  0  0
    1.0793    1.0798    2.9072 H   0  0  0  0  0  0  0  0  0  0  0  0
   -0.6831    1.2882    2.7958 H   0  0  0  0  0  0  0  0  0  0  0  0
    0.0767    1.0013    4.3721 H   0  0  0  0  0  0  0  0  0  0  0  0
   -1.1492   -0.8647    0.8383 N   0  0  0  0  0  0  0  0  0  0  0  0
   -1.5446   -1.6555   -0.3444 C   0  0  2  0  0  0  0  0  0  0  0  0
   -0.5085   -1.7009   -1.4804 C   0  0  0  0  0  0  0  0  0  0  0  0
   -0.5296   -2.6475   -2.2578 O   0  0  0  0  0  0  0  0  0  0  0  0
   -2.8758   -1.1165   -0.8867 C   0  0  0  0  0  0  0  0  0  0  0  0
   -2.7899    0.2817   -1.1954 O   0  0  0  0  0  0  0  0  0  0  0  0
   -1.8687   -0.2754    1.2514 H   0  0  0  0  0  0  0  0  0  0  0  0
   -1.6993   -2.6929   -0.0305 H   0  0  0  0  0  0  0  0  0  0  0  0
   -3.6524   -1.2640   -0.1292 H   0  0  0  0  0  0  0  0  0  0  0  0
   -3.1756   -1.6758   -1.7798 H   0  0  0  0  0  0  0  0  0  0  0  0
   -2.5087    0.4100   -2.1382 H   0  0  0  0  0  0  0  0  0  0  0  0
    0.1087   -0.5159   -1.8480 N   0  0  0  0  0  0  0  0  0  0  0  0
    0.4236   -0.1616   -3.2409 C   0  0  2  0  0  0  0  0  0  0  0  0
   -0.8541   -0.1948   -4.1135 C   0  0  0  0  0  0  0  0  0  0  0  0
   -1.8347    0.4436   -3.7371 O   0  0  0  0  0  0  0  0  0  0  0  0
    1.5863   -1.0085   -3.7863 C   0  0  0  0  0  0  0  0  0  0  0  0
   -0.1170    0.2536   -1.2224 H   0  0  0  0  0  0  0  0  0  0  0  0
    0.7667    0.8774   -3.2477 H   0  0  0  0  0  0  0  0  0  0  0  0
    1.3025   -2.0585   -3.8998 H   0  0  0  0  0  0  0  0  0  0  0  0
    1.9046   -0.6296   -4.7623 H   0  0  0  0  0  0  0  0  0  0  0  0
    2.4390   -0.9573   -3.1024 H   0  0  0  0  0  0  0  0  0  0  0  0
   -0.9479   -0.9765   -5.2496 N   0  0  0  0  0  0  0  0  0  0  0  0
   -2.2051   -1.1887   -5.9561 C   0  0  0  0  0  0  0  0  0  0  0  0
   -0.2077   -1.6620   -5.3745 H   0  0  0  0  0  0  0  0  0  0  0  0
   -2.0392   -1.8067   -6.8439 H   0  0  0  0  0  0  0  0  0  0  0  0
   -2.9268   -1.6978   -5.3086 H   0  0  0  0  0  0  0  0  0  0  0  0
   -2.6321   -0.2328   -6.2777 H   0  0  0  0  0  0  0  0  0  0  0  0
  1  2  2  0  0  0  0
  1  3  1  0  0  0  0
  1  7  1  0  0  0  0
  3  4  1  0  0  0  0
  3  5  1  0  0  0  0
  3  6  1  0  0  0  0
  7  8  1  0  0  0  0
  7 12  1  0  0  0  0
  8  9  1  0  0  0  0
  8 11  1  0  0  0  0
  8 13  1  0  0  0  0
  9 10  2  0  0  0  0
  9 17  1  0  0  0  0
 11 14  1  0  0  0  0
 11 15  1  0  0  0  0
 11 16  1  0  0  0  0
 17 18  1  0  0  0  0
 17 23  1  0  0  0  0
 18 19  1  0  0  0  0
 18 21  1  0  0  0  0
 18 24  1  0  0  0  0
 19 20  2  0  0  0  0
 19 28  1  0  0  0  0
 21 22  1  0  0  0  0
 21 25  1  0  0  0  0
 21 26  1  0  0  0  0
 22 27  1  0  0  0  0
 28 29  1  0  0  0  0
 28 33  1  0  0  0  0
 29 30  1  0  0  0  0
 29 32  1  0  0  0  0
 29 34  1  0  0  0  0
 30 31  2  0  0  0  0
 30 38  1  0  0  0  0
 32 35  1  0  0  0  0
 32 36  1  0  0  0  0
 32 37  1  0  0  0  0
 38 39  1  0  0  0  0
 38 40  1  0  0  0  0
 39 41  1  0  0  0  0
 39 42  1  0  0  0  0
 39 43  1  0  0  0  0
M  END
$$$$

  -OEChem-02062319123D

 43 42  0     1  0  0  0  0  0999 V2000
    1.0153   -1.7381    5.1040 C   0  0  0  0  0  0  0  0  0  0  0  0
    0.0665   -1.4081    5.7978 O   0  0  0  0  0  0  0  0  0  0  0  0
    2.1095   -2.6192    5.6767 C   0  0  0  0  0  0  0  0  0  0  0  0
    3.0729   -2.1075    5.6129 H   0  0  0  0  0  0  0  0  0  0  0  0
    1.8995   -2.8466    6.7256 H   0  0  0  0  0  0  0  0  0  0  0  0
    2.1649   -3.5565    5.1177 H   0  0  0  0  0  0  0  0  0  0  0  0
    1.0842   -1.3258    3.7904 N   0  0  0  0  0  0  0  0  0  0  0  0
   -0.0121   -0.6521    3.0818 C   0  0  2  0  0  0  0  0  0  0  0  0
   -0.0393   -1.0233    1.5836 C   0  0  0  0  0  0  0  0  0  0  0  0
    0.8475   -1.7335    1.1264 O   0  0  0  0  0  0  0  0  0  0  0  0
    0.1478    0.8608    3.2582 C   0  0  0  0  0  0  0  0  0  0  0  0
    1.8064   -1.7517    3.2096 H   0  0  0  0  0  0  0  0  0  0  0  0
   -0.9712   -0.9630    3.5103 H   0  0  0  0  0  0  0  0  0  0  0  0
    1.1013    1.1971    2.8384 H   0  0  0  0  0  0  0  0  0  0  0  0
   -0.6635    1.3958    2.7554 H   0  0  0  0  0  0  0  0  0  0  0  0
    0.1237    1.1216    4.3214 H   0  0  0  0  0  0  0  0  0  0  0  0
   -1.2084   -0.8640    0.8620 N   0  0  0  0  0  0  0  0  0  0  0  0
   -1.7329   -1.8777   -0.0773 C   0  0  2  0  0  0  0  0  0  0  0  0
   -0.8094   -2.2345   -1.2550 C   0  0  0  0  0  0  0  0  0  0  0  0
   -0.9366   -3.3299   -1.7896 O   0  0  0  0  0  0  0  0  0  0  0  0
   -3.0945   -1.4156   -0.6177 C   0  0  0  0  0  0  0  0  0  0  0  0
   -3.0062   -0.1316   -1.2510 O   0  0  0  0  0  0  0  0  0  0  0  0
   -1.9072   -0.2592    1.2874 H   0  0  0  0  0  0  0  0  0  0  0  0
   -1.8878   -2.8091    0.4763 H   0  0  0  0  0  0  0  0  0  0  0  0
   -3.8010   -1.3502    0.2161 H   0  0  0  0  0  0  0  0  0  0  0  0
   -3.4902   -2.1515   -1.3265 H   0  0  0  0  0  0  0  0  0  0  0  0
   -2.7943   -0.2321   -2.2148 H   0  0  0  0  0  0  0  0  0  0  0  0
   -0.1880   -1.1994   -1.9341 N   0  0  0  0  0  0  0  0  0  0  0  0
    0.0005   -1.1813   -3.3927 C   0  0  2  0  0  0  0  0  0  0  0  0
   -1.3565   -1.3541   -4.1154 C   0  0  0  0  0  0  0  0  0  0  0  0
   -2.2692   -0.5802   -3.8350 O   0  0  0  0  0  0  0  0  0  0  0  0
    1.0856   -2.1803   -3.8299 C   0  0  0  0  0  0  0  0  0  0  0  0
   -0.3075   -0.2995   -1.4750 H   0  0  0  0  0  0  0  0  0  0  0  0
    0.3642   -0.1869   -3.6687 H   0  0  0  0  0  0  0  0  0  0  0  0
    0.7822   -3.2142   -3.6434 H   0  0  0  0  0  0  0  0  0  0  0  0
    1.2934   -2.0692   -4.8984 H   0  0  0  0  0  0  0  0  0  0  0  0
    2.0115   -1.9909   -3.2780 H   0  0  0  0  0  0  0  0  0  0  0  0
   -1.5994   -2.4046   -4.9800 N   0  0  0  0  0  0  0  0  0  0  0  0
   -2.9327   -2.7145   -5.4811 C   0  0  0  0  0  0  0  0  0  0  0  0
   -0.9092   -3.1511   -4.9663 H   0  0  0  0  0  0  0  0  0  0  0  0
   -2.8881   -3.5554   -6.1797 H   0  0  0  0  0  0  0  0  0  0  0  0
   -3.5981   -2.9837   -4.6541 H   0  0  0  0  0  0  0  0  0  0  0  0
   -3.3558   -1.8532   -6.0087 H   0  0  0  0  0  0  0  0  0  0  0  0
  1  2  2  0  0  0  0
  1  3  1  0  0  0  0
  1  7  1  0  0  0  0
  3  4  1  0  0  0  0
  3  5  1  0  0  0  0
  3  6  1  0  0  0  0
  7  8  1  0  0  0  0
  7 12  1  0  0  0  0
  8  9  1  0  0  0  0
  8 11  1  0  0  0  0
  8 13  1  0  0  0  0
  9 10  2  0  0  0  0
  9 17  1  0  0  0  0
 11 14  1  0  0  0  0
 11 15  1  0  0  0  0
 11 16  1  0  0  0  0
 17 18  1  0  0  0  0
 17 23  1  0  0  0  0
 18 19  1  0  0  0  0
 18 21  1  0  0  0  0
 18 24  1  0  0  0  0
 19 20  2  0  0  0  0
 19 28  1  0  0  0  0
 21 22  1  0  0  0  0
 21 25  1  0  0  0  0
 21 26  1  0  0  0  0
 22 27  1  0  0  0  0
 28 29  1  0  0  0  0
 28 33  1  0  0  0  0
 29 30  1  0  0  0  0
 29 32  1  0  0  0  0
 29 34  1  0  0  0  0
 30 31  2  0  0  0  0
 30 38  1  0  0  0  0
 32 35  1  0  0  0  0
 32 36  1  0  0  0  0
 32 37  1  0  0  0  0
 38 39  1  0  0  0  0
 38 40  1  0  0  0  0
 39 41  1  0  0  0  0
 39 42  1  0  0  0  0
 39 43  1  0  0  0  0
M  END
$$$$

  -OEChem-02062319123D

 43 42  0     1  0  0  0  0  0999 V2000
    1.1958   -1.5880    5.0480 C   0  0  0  0  0  0  0  0  0  0  0  0
    0.3073   -1.2110    5.7957 O   0  0  0  0  0  0  0  0  0  0  0  0
    2.3267   -2.4486    5.5789 C   0  0  0  0  0  0  0  0  0  0  0  0
    3.2766   -1.9175    5.4798 H   0  0  0  0  0  0  0  0  0  0  0  0
    2.1608   -2.6807    6.6348 H   0  0  0  0  0  0  0  0  0  0  0  0
    2.3797   -3.3846    5.0173 H   0  0  0  0  0  0  0  0  0  0  0  0
    1.1672   -1.2404    3.7143 N   0  0  0  0  0  0  0  0  0  0  0  0
    0.0380   -0.5641    3.0626 C   0  0  2  0  0  0  0  0  0  0  0  0
   -0.0879   -0.9532    1.5733 C   0  0  0  0  0  0  0  0  0  0  0  0
    0.7690   -1.6729    1.0758 O   0  0  0  0  0  0  0  0  0  0  0  0
    0.2287    0.9493    3.2011 C   0  0  0  0  0  0  0  0  0  0  0  0
    1.8418   -1.6968    3.1004 H   0  0  0  0  0  0  0  0  0  0  0  0
   -0.8955   -0.8555    3.5565 H   0  0  0  0  0  0  0  0  0  0  0  0
    1.1583    1.2641    2.7160 H   0  0  0  0  0  0  0  0  0  0  0  0
   -0.6054    1.4869    2.7402 H   0  0  0  0  0  0  0  0  0  0  0  0
    0.2756    1.2302    4.2582 H   0  0  0  0  0  0  0  0  0  0  0  0
   -1.3205   -0.8585    0.9522 N   0  0  0  0  0  0  0  0  0  0  0  0
   -1.9964   -2.0238    0.3404 C   0  0  2  0  0  0  0  0  0  0  0  0
   -1.2303   -2.7207   -0.7979 C   0  0  0  0  0  0  0  0  0  0  0  0
   -1.4594   -3.9031   -1.0220 O   0  0  0  0  0  0  0  0  0  0  0  0
   -3.3877   -1.6099   -0.1623 C   0  0  0  0  0  0  0  0  0  0  0  0
   -3.3141   -0.5416   -1.1149 O   0  0  0  0  0  0  0  0  0  0  0  0
   -1.9520   -0.1810    1.3725 H   0  0  0  0  0  0  0  0  0  0  0  0
   -2.1339   -2.7838    1.1163 H   0  0  0  0  0  0  0  0  0  0  0  0
   -3.9893   -1.2810    0.6907 H   0  0  0  0  0  0  0  0  0  0  0  0
   -3.8977   -2.4693   -0.6114 H   0  0  0  0  0  0  0  0  0  0  0  0
   -3.1961   -0.9037   -2.0312 H   0  0  0  0  0  0  0  0  0  0  0  0
   -0.6352   -1.9294   -1.7660 N   0  0  0  0  0  0  0  0  0  0  0  0
   -0.5560   -2.2851   -3.1909 C   0  0  2  0  0  0  0  0  0  0  0  0
   -1.9676   -2.5069   -3.7861 C   0  0  0  0  0  0  0  0  0  0  0  0
   -2.8517   -1.6921   -3.5293 O   0  0  0  0  0  0  0  0  0  0  0  0
    0.4155   -3.4556   -3.4201 C   0  0  0  0  0  0  0  0  0  0  0  0
   -0.6542   -0.9385   -1.5354 H   0  0  0  0  0  0  0  0  0  0  0  0
   -0.1372   -1.4240   -3.7203 H   0  0  0  0  0  0  0  0  0  0  0  0
    0.0160   -4.3928   -3.0221 H   0  0  0  0  0  0  0  0  0  0  0  0
    0.6048   -3.5874   -4.4896 H   0  0  0  0  0  0  0  0  0  0  0  0
    1.3699   -3.2518   -2.9248 H   0  0  0  0  0  0  0  0  0  0  0  0
   -2.2623   -3.5929   -4.5895 N   0  0  0  0  0  0  0  0  0  0  0  0
   -3.6148   -3.9006   -5.0369 C   0  0  0  0  0  0  0  0  0  0  0  0
   -1.5645   -4.3310   -4.6198 H   0  0  0  0  0  0  0  0  0  0  0  0
   -3.6044   -4.7721   -5.6986 H   0  0  0  0  0  0  0  0  0  0  0  0
   -4.2599   -4.1217   -4.1800 H   0  0  0  0  0  0  0  0  0  0  0  0
   -4.0389   -3.0554   -5.5894 H   0  0  0  0  0  0  0  0  0  0  0  0
  1  2  2  0  0  0  0
  1  3  1  0  0  0  0
  1  7  1  0  0  0  0
  3  4  1  0  0  0  0
  3  5  1  0  0  0  0
  3  6  1  0  0  0  0
  7  8  1  0  0  0  0
  7 12  1  0  0  0  0
  8  9  1  0  0  0  0
  8 11  1  0  0  0  0
  8 13  1  0  0  0  0
  9 10  2  0  0  0  0
  9 17  1  0  0  0  0
 11 14  1  0  0  0  0
 11 15  1  0  0  0  0
 11 16  1  0  0  0  0
 17 18  1  0  0  0  0
 17 23  1  0  0  0  0
 18 19  1  0  0  0  0
 18 21  1  0  0  0  0
 18 24  1  0  0  0  0
 19 20  2  0  0  0  0
 19 28  1  0  0  0  0
 21 22  1  0  0  0  0
 21 25  1  0  0  0  0
 21 26  1  0  0  0  0
 22 27  1  0  0  0  0
 28 29  1  0  0  0  0
 28 33  1  0  0  0  0
 29 30  1  0  0  0  0
 29 32  1  0  0  0  0
 29 34  1  0  0  0  0
 30 31  2  0  0  0  0
 30 38  1  0  0  0  0
 32 35  1  0  0  0  0
 32 36  1  0  0  0  0
 32 37  1  0  0  0  0
 38 39  1  0  0  0  0
 38 40  1  0  0  0  0
 39 41  1  0  0  0  0
 39 42  1  0  0  0  0
 39 43  1  0  0  0  0
M  END
$$$$

  -OEChem-02062319123D

 43 42  0     1  0  0  0  0  0999 V2000
    1.1224   -1.6731    4.8378 C   0  0  0  0  0  0  0  0  0  0  0  0
    0.2232   -1.3458    5.5961 O   0  0  0  0  0  0  0  0  0  0  0  0
    2.1721   -2.6722    5.2863 C   0  0  0  0  0  0  0  0  0  0  0  0
    3.1664   -2.2240    5.2203 H   0  0  0  0  0  0  0  0  0  0  0  0
    1.9887   -2.9729    6.3217 H   0  0  0  0  0  0  0  0  0  0  0  0
    2.1376   -3.5607    4.6510 H   0  0  0  0  0  0  0  0  0  0  0  0
    1.1746   -1.1499    3.5632 N   0  0  0  0  0  0  0  0  0  0  0  0
    0.0956   -0.3596    2.9553 C   0  0  2  0  0  0  0  0  0  0  0  0
   -0.1365   -0.7452    1.4785 C   0  0  0  0  0  0  0  0  0  0  0  0
    0.7019   -1.4331    0.9102 O   0  0  0  0  0  0  0  0  0  0  0  0
    0.4571    1.1228    3.0699 C   0  0  0  0  0  0  0  0  0  0  0  0
    1.8400   -1.5776    2.9198 H   0  0  0  0  0  0  0  0  0  0  0  0
   -0.8437   -0.5383    3.4900 H   0  0  0  0  0  0  0  0  0  0  0  0
    1.3909    1.3324    2.5383 H   0  0  0  0  0  0  0  0  0  0  0  0
   -0.3347    1.7460    2.6434 H   0  0  0  0  0  0  0  0  0  0  0  0
    0.5853    1.3995    4.1213 H   0  0  0  0  0  0  0  0  0  0  0  0
   -1.4222   -0.7228    0.9711 N   0  0  0  0  0  0  0  0  0  0  0  0
   -2.1652   -1.9776    0.7217 C   0  0  2  0  0  0  0  0  0  0  0  0
   -1.5257   -2.9515   -0.2835 C   0  0  0  0  0  0  0  0  0  0  0  0
   -1.7785   -4.1462   -0.1848 O   0  0  0  0  0  0  0  0  0  0  0  0
   -3.5979   -1.6514    0.2736 C   0  0  0  0  0  0  0  0  0  0  0  0
   -3.6197   -0.8618   -0.9223 O   0  0  0  0  0  0  0  0  0  0  0  0
   -2.0010    0.0140    1.3658 H   0  0  0  0  0  0  0  0  0  0  0  0
   -2.2300   -2.5272    1.6665 H   0  0  0  0  0  0  0  0  0  0  0  0
   -4.0998   -1.0958    1.0721 H   0  0  0  0  0  0  0  0  0  0  0  0
   -4.1615   -2.5771    0.1128 H   0  0  0  0  0  0  0  0  0  0  0  0
   -3.5925   -1.4452   -1.7240 H   0  0  0  0  0  0  0  0  0  0  0  0
   -1.0226   -2.4395   -1.4670 N   0  0  0  0  0  0  0  0  0  0  0  0
   -1.0961   -3.1312   -2.7620 C   0  0  2  0  0  0  0  0  0  0  0  0
   -2.5617   -3.4733   -3.1240 C   0  0  0  0  0  0  0  0  0  0  0  0
   -3.4184   -2.5994   -3.0077 O   0  0  0  0  0  0  0  0  0  0  0  0
   -0.1388   -4.3343   -2.7996 C   0  0  0  0  0  0  0  0  0  0  0  0
   -0.9887   -1.4223   -1.4801 H   0  0  0  0  0  0  0  0  0  0  0  0
   -0.7507   -2.4319   -3.5294 H   0  0  0  0  0  0  0  0  0  0  0  0
   -0.4686   -5.1314   -2.1274 H   0  0  0  0  0  0  0  0  0  0  0  0
   -0.0795   -4.7401   -3.8138 H   0  0  0  0  0  0  0  0  0  0  0  0
    0.8650   -4.0229   -2.4950 H   0  0  0  0  0  0  0  0  0  0  0  0
   -2.9352   -4.7353   -3.5472 N   0  0  0  0  0  0  0  0  0  0  0  0
   -4.3269   -5.1259   -3.7327 C   0  0  0  0  0  0  0  0  0  0  0  0
   -2.2402   -5.4677   -3.4337 H   0  0  0  0  0  0  0  0  0  0  0  0
   -4.3840   -6.1561   -4.0969 H   0  0  0  0  0  0  0  0  0  0  0  0
   -4.8720   -5.0610   -2.7852 H   0  0  0  0  0  0  0  0  0  0  0  0
   -4.8147   -4.4753   -4.4660 H   0  0  0  0  0  0  0  0  0  0  0  0
  1  2  2  0  0  0  0
  1  3  1  0  0  0  0
  1  7  1  0  0  0  0
  3  4  1  0  0  0  0
  3  5  1  0  0  0  0
  3  6  1  0  0  0  0
  7  8  1  0  0  0  0
  7 12  1  0  0  0  0
  8  9  1  0  0  0  0
  8 11  1  0  0  0  0
  8 13  1  0  0  0  0
  9 10  2  0  0  0  0
  9 17  1  0  0  0  0
 11 14  1  0  0  0  0
 11 15  1  0  0  0  0
 11 16  1  0  0  0  0
 17 18  1  0  0  0  0
 17 23  1  0  0  0  0
 18 19  1  0  0  0  0
 18 21  1  0  0  0  0
 18 24  1  0  0  0  0
 19 20  2  0  0  0  0
 19 28  1  0  0  0  0
 21 22  1  0  0  0  0
 21 25  1  0  0  0  0
 21 26  1  0  0  0  0
 22 27  1  0  0  0  0
 28 29  1  0  0  0  0
 28 33  1  0  0  0  0
 29 30  1  0  0  0  0
 29 32  1  0  0  0  0
 29 34  1  0  0  0  0
 30 31  2  0  0  0  0
 30 38  1  0  0  0  0
 32 35  1  0  0  0  0
 32 36  1  0  0  0  0
 32 37  1  0  0  0  0
 38 39  1  0  0  0  0
 38 40  1  0  0  0  0
 39 41  1  0  0  0  0
 39 42  1  0  0  0  0
 39 43  1  0  0  0  0
M  END
$$$$

  -OEChem-02062319123D

 43 42  0     1  0  0  0  0  0999 V2000
    0.5348   -2.2199    4.0782 C   0  0  0  0  0  0  0  0  0  0  0  0
   -0.6614   -2.3509    4.2815 O   0  0  0  0  0  0  0  0  0  0  0  0
    1.5000   -3.3293    4.4494 C   0  0  0  0  0  0  0  0  0  0  0  0
    2.2501   -2.9534    5.1495 H   0  0  0  0  0  0  0  0  0  0  0  0
    0.9600   -4.1548    4.9215 H   0  0  0  0  0  0  0  0  0  0  0  0
    2.0010   -3.7035    3.5533 H   0  0  0  0  0  0  0  0  0  0  0  0
    1.0029   -1.0724    3.4710 N   0  0  0  0  0  0  0  0  0  0  0  0
    0.1105   -0.0582    2.8946 C   0  0  2  0  0  0  0  0  0  0  0  0
   -0.3027   -0.4378    1.4580 C   0  0  0  0  0  0  0  0  0  0  0  0
    0.4828   -0.3369    0.5271 O   0  0  0  0  0  0  0  0  0  0  0  0
    0.8295    1.2934    2.9455 C   0  0  0  0  0  0  0  0  0  0  0  0
    1.9746   -1.0769    3.1730 H   0  0  0  0  0  0  0  0  0  0  0  0
   -0.8024    0.0279    3.4946 H   0  0  0  0  0  0  0  0  0  0  0  0
    1.7605    1.2604    2.3703 H   0  0  0  0  0  0  0  0  0  0  0  0
    0.1910    2.0772    2.5261 H   0  0  0  0  0  0  0  0  0  0  0  0
    1.0672    1.5576    3.9805 H   0  0  0  0  0  0  0  0  0  0  0  0
   -1.6171   -0.4476    1.0674 N   0  0  0  0  0  0  0  0  0  0  0  0
   -2.3620   -1.7065    1.2410 C   0  0  2  0  0  0  0  0  0  0  0  0
   -1.7743   -2.9051    0.4707 C   0  0  0  0  0  0  0  0  0  0  0  0
   -1.9237   -4.0314    0.9238 O   0  0  0  0  0  0  0  0  0  0  0  0
   -3.8069   -1.4799    0.7785 C   0  0  0  0  0  0  0  0  0  0  0  0
   -3.8558   -1.0992   -0.6057 O   0  0  0  0  0  0  0  0  0  0  0  0
   -1.7251   -0.0579    0.1332 H   0  0  0  0  0  0  0  0  0  0  0  0
   -2.3792   -1.9763    2.3027 H   0  0  0  0  0  0  0  0  0  0  0  0
   -4.2540   -0.6850    1.3841 H   0  0  0  0  0  0  0  0  0  0  0  0
   -4.3995   -2.3879    0.9345 H   0  0  0  0  0  0  0  0  0  0  0  0
   -3.9550   -1.9015   -1.1812 H   0  0  0  0  0  0  0  0  0  0  0  0
   -1.3741   -2.7444   -0.8466 N   0  0  0  0  0  0  0  0  0  0  0  0
   -1.5110   -3.7889   -1.8745 C   0  0  2  0  0  0  0  0  0  0  0  0
   -2.9853   -4.2451   -2.0029 C   0  0  0  0  0  0  0  0  0  0  0  0
   -3.8618   -3.3862   -2.0735 O   0  0  0  0  0  0  0  0  0  0  0  0
   -0.5118   -4.9363   -1.6455 C   0  0  0  0  0  0  0  0  0  0  0  0
   -1.4054   -1.7805   -1.1704 H   0  0  0  0  0  0  0  0  0  0  0  0
   -1.2504   -3.3379   -2.8370 H   0  0  0  0  0  0  0  0  0  0  0  0
   -0.7666   -5.5210   -0.7571 H   0  0  0  0  0  0  0  0  0  0  0  0
   -0.5026   -5.6082   -2.5091 H   0  0  0  0  0  0  0  0  0  0  0  0
    0.4970   -4.5328   -1.5139 H   0  0  0  0  0  0  0  0  0  0  0  0
   -3.3443   -5.5801   -2.0078 N   0  0  0  0  0  0  0  0  0  0  0  0
   -4.7321   -6.0222   -1.9492 C   0  0  0  0  0  0  0  0  0  0  0  0
   -2.6181   -6.2388   -1.7413 H   0  0  0  0  0  0  0  0  0  0  0  0
   -4.7829   -7.1142   -1.9968 H   0  0  0  0  0  0  0  0  0  0  0  0
   -5.1994   -5.6927   -1.0151 H   0  0  0  0  0  0  0  0  0  0  0  0
   -5.3020   -5.6150   -2.7912 H   0  0  0  0  0  0  0  0  0  0  0  0
  1  2  2  0  0  0  0
  1  3  1  0  0  0  0
  1  7  1  0  0  0  0
  3  4  1  0  0  0  0
  3  5  1  0  0  0  0
  3  6  1  0  0  0  0
  7  8  1  0  0  0  0
  7 12  1  0  0  0  0
  8  9  1  0  0  0  0
  8 11  1  0  0  0  0
  8 13  1  0  0  0  0
  9 10  2  0  0  0  0
  9 17  1  0  0  0  0
 11 14  1  0  0  0  0
 11 15  1  0  0  0  0
 11 16  1  0  0  0  0
 17 18  1  0  0  0  0
 17 23  1  0  0  0  0
 18 19  1  0  0  0  0
 18 21  1  0  0  0  0
 18 24  1  0  0  0  0
 19 20  2  0  0  0  0
 19 28  1  0  0  0  0
 21 22  1  0  0  0  0
 21 25  1  0  0  0  0
 21 26  1  0  0  0  0
 22 27  1  0  0  0  0
 28 29  1  0  0  0  0
 28 33  1  0  0  0  0
 29 30  1  0  0  0  0
 29 32  1  0  0  0  0
 29 34  1  0  0  0  0
 30 31  2  0  0  0  0
 30 38  1  0  0  0  0
 32 35  1  0  0  0  0
 32 36  1  0  0  0  0
 32 37  1  0  0  0  0
 38 39  1  0  0  0  0
 38 40  1  0  0  0  0
 39 41  1  0  0  0  0
 39 42  1  0  0  0  0
 39 43  1  0  0  0  0
M  END
$$$$

  -OEChem-02062319123D

 43 42  0     1  0  0  0  0  0999 V2000
    1.0319   -2.2077    4.0561 C   0  0  0  0  0  0  0  0  0  0  0  0
   -0.0986   -2.5847    4.3171 O   0  0  0  0  0  0  0  0  0  0  0  0
    2.2241   -3.0972    4.3532 C   0  0  0  0  0  0  0  0  0  0  0  0
    2.8716   -2.6179    5.0914 H   0  0  0  0  0  0  0  0  0  0  0  0
    1.8869   -4.0585    4.7510 H   0  0  0  0  0  0  0  0  0  0  0  0
    2.7947   -3.2758    3.4386 H   0  0  0  0  0  0  0  0  0  0  0  0
    1.2204   -0.9779    3.4612 N   0  0  0  0  0  0  0  0  0  0  0  0
    0.1042   -0.1666    2.9595 C   0  0  2  0  0  0  0  0  0  0  0  0
   -0.2960   -0.5743    1.5265 C   0  0  0  0  0  0  0  0  0  0  0  0
    0.5252   -0.5666    0.6215 O   0  0  0  0  0  0  0  0  0  0  0  0
    0.5272    1.3039    3.0129 C   0  0  0  0  0  0  0  0  0  0  0  0
    2.1463   -0.7934    3.0845 H   0  0  0  0  0  0  0  0  0  0  0  0
   -0.7711   -0.2874    3.6064 H   0  0  0  0  0  0  0  0  0  0  0  0
    1.4008    1.4790    2.3768 H   0  0  0  0  0  0  0  0  0  0  0  0
   -0.2885    1.9454    2.6650 H   0  0  0  0  0  0  0  0  0  0  0  0
    0.7782    1.5895    4.0390 H   0  0  0  0  0  0  0  0  0  0  0  0
   -1.5962   -0.5190    1.0919 N   0  0  0  0  0  0  0  0  0  0  0  0
   -2.5599   -1.5383    1.5414 C   0  0  2  0  0  0  0  0  0  0  0  0
   -2.1804   -2.9814    1.1588 C   0  0  0  0  0  0  0  0  0  0  0  0
   -2.5946   -3.8995    1.8519 O   0  0  0  0  0  0  0  0  0  0  0  0
   -3.9326   -1.2031    0.9441 C   0  0  0  0  0  0  0  0  0  0  0  0
   -3.8809   -1.1789   -0.4906 O   0  0  0  0  0  0  0  0  0  0  0  0
   -1.6477   -0.3235    0.0936 H   0  0  0  0  0  0  0  0  0  0  0  0
   -2.6405   -1.5081    2.6330 H   0  0  0  0  0  0  0  0  0  0  0  0
   -4.2483   -0.2196    1.3072 H   0  0  0  0  0  0  0  0  0  0  0  0
   -4.6784   -1.9336    1.2758 H   0  0  0  0  0  0  0  0  0  0  0  0
   -4.1051   -2.0733   -0.8584 H   0  0  0  0  0  0  0  0  0  0  0  0
   -1.7294   -3.2438   -0.1258 N   0  0  0  0  0  0  0  0  0  0  0  0
   -2.0277   -4.4833   -0.8626 C   0  0  2  0  0  0  0  0  0  0  0  0
   -3.5550   -4.6867   -1.0169 C   0  0  0  0  0  0  0  0  0  0  0  0
   -4.2484   -3.7251   -1.3422 O   0  0  0  0  0  0  0  0  0  0  0  0
   -1.2912   -5.6906   -0.2560 C   0  0  0  0  0  0  0  0  0  0  0  0
   -1.5871   -2.4070   -0.6868 H   0  0  0  0  0  0  0  0  0  0  0  0
   -1.6378   -4.3605   -1.8776 H   0  0  0  0  0  0  0  0  0  0  0  0
   -1.7087   -5.9701    0.7159 H   0  0  0  0  0  0  0  0  0  0  0  0
   -1.3660   -6.5542   -0.9237 H   0  0  0  0  0  0  0  0  0  0  0  0
   -0.2314   -5.4539   -0.1197 H   0  0  0  0  0  0  0  0  0  0  0  0
   -4.1573   -5.9138   -0.8093 N   0  0  0  0  0  0  0  0  0  0  0  0
   -5.6034   -6.0966   -0.8251 C   0  0  0  0  0  0  0  0  0  0  0  0
   -3.5843   -6.6288   -0.3701 H   0  0  0  0  0  0  0  0  0  0  0  0
   -5.8534   -7.1496   -0.6631 H   0  0  0  0  0  0  0  0  0  0  0  0
   -6.0727   -5.5025   -0.0338 H   0  0  0  0  0  0  0  0  0  0  0  0
   -6.0193   -5.7893   -1.7906 H   0  0  0  0  0  0  0  0  0  0  0  0
  1  2  2  0  0  0  0
  1  3  1  0  0  0  0
  1  7  1  0  0  0  0
  3  4  1  0  0  0  0
  3  5  1  0  0  0  0
  3  6  1  0  0  0  0
  7  8  1  0  0  0  0
  7 12  1  0  0  0  0
  8  9  1  0  0  0  0
  8 11  1  0  0  0  0
  8 13  1  0  0  0  0
  9 10  2  0  0  0  0
  9 17  1  0  0  0  0
 11 14  1  0  0  0  0
 11 15  1  0  0  0  0
 11 16  1  0  0  0  0
 17 18  1  0  0  0  0
 17 23  1  0  0  0  0
 18 19  1  0  0  0  0
 18 21  1  0  0  0  0
 18 24  1  0  0  0  0
 19 20  2  0  0  0  0
 19 28  1  0  0  0  0
 21 22  1  0  0  0  0
 21 25  1  0  0  0  0
 21 26  1  0  0  0  0
 22 27  1  0  0  0  0
 28 29  1  0  0  0  0
 28 33  1  0  0  0  0
 29 30  1  0  0  0  0
 29 32  1  0  0  0  0
 29 34  1  0  0  0  0
 30 31  2  0  0  0  0
 30 38  1  0  0  0  0
 32 35  1  0  0  0  0
 32 36  1  0  0  0  0
 32 37  1  0  0  0  0
 38 39  1  0  0  0  0
 38 40  1  0  0  0  0
 39 41  1  0  0  0  0
 39 42  1  0  0  0  0
 39 43  1  0  0  0  0
M  END
$$$$

  -OEChem-02062319123D

 43 42  0     1  0  0  0  0  0999 V2000
    1.7909   -2.1400    4.4310 C   0  0  0  0  0  0  0  0  0  0  0  0
    1.0597   -2.1241    5.4081 O   0  0  0  0  0  0  0  0  0  0  0  0
    3.1609   -2.7865    4.5140 C   0  0  0  0  0  0  0  0  0  0  0  0
    3.9373   -2.0202    4.4529 H   0  0  0  0  0  0  0  0  0  0  0  0
    3.2681   -3.3237    5.4605 H   0  0  0  0  0  0  0  0  0  0  0  0
    3.2916   -3.4945    3.6921 H   0  0  0  0  0  0  0  0  0  0  0  0
    1.3754   -1.5628    3.2499 N   0  0  0  0  0  0  0  0  0  0  0  0
    0.0421   -0.9886    3.0265 C   0  0  2  0  0  0  0  0  0  0  0  0
   -0.3774   -1.1020    1.5436 C   0  0  0  0  0  0  0  0  0  0  0  0
    0.4530   -1.3066    0.6700 O   0  0  0  0  0  0  0  0  0  0  0  0
    0.0678    0.4761    3.4762 C   0  0  0  0  0  0  0  0  0  0  0  0
    1.9770   -1.6702    2.4343 H   0  0  0  0  0  0  0  0  0  0  0  0
   -0.6976   -1.5357    3.6210 H   0  0  0  0  0  0  0  0  0  0  0  0
    0.7932    1.0444    2.8853 H   0  0  0  0  0  0  0  0  0  0  0  0
   -0.9183    0.9338    3.3534 H   0  0  0  0  0  0  0  0  0  0  0  0
    0.3481    0.5441    4.5322 H   0  0  0  0  0  0  0  0  0  0  0  0
   -1.5811   -0.6407    1.0658 N   0  0  0  0  0  0  0  0  0  0  0  0
   -2.8445   -1.1733    1.6001 C   0  0  2  0  0  0  0  0  0  0  0  0
   -3.0031   -2.6913    1.4015 C   0  0  0  0  0  0  0  0  0  0  0  0
   -3.3587   -3.3748    2.3511 O   0  0  0  0  0  0  0  0  0  0  0  0
   -3.9925   -0.4694    0.8697 C   0  0  0  0  0  0  0  0  0  0  0  0
   -3.8147   -0.5754   -0.5527 O   0  0  0  0  0  0  0  0  0  0  0  0
   -1.5639   -0.5269    0.0533 H   0  0  0  0  0  0  0  0  0  0  0  0
   -2.9242   -0.9607    2.6712 H   0  0  0  0  0  0  0  0  0  0  0  0
   -4.0109    0.5875    1.1557 H   0  0  0  0  0  0  0  0  0  0  0  0
   -4.9511   -0.9118    1.1630 H   0  0  0  0  0  0  0  0  0  0  0  0
   -4.5437   -0.1309   -1.0252 H   0  0  0  0  0  0  0  0  0  0  0  0
   -2.6954   -3.2727    0.1837 N   0  0  0  0  0  0  0  0  0  0  0  0
   -2.6733   -4.7107   -0.1490 C   0  0  2  0  0  0  0  0  0  0  0  0
   -4.0540   -5.4066   -0.1238 C   0  0  0  0  0  0  0  0  0  0  0  0
   -4.4420   -6.0132   -1.1137 O   0  0  0  0  0  0  0  0  0  0  0  0
   -1.6640   -5.4569    0.7348 C   0  0  0  0  0  0  0  0  0  0  0  0
   -2.5088   -2.6124   -0.5690 H   0  0  0  0  0  0  0  0  0  0  0  0
   -2.3136   -4.7916   -1.1801 H   0  0  0  0  0  0  0  0  0  0  0  0
   -2.0036   -5.5040    1.7736 H   0  0  0  0  0  0  0  0  0  0  0  0
   -1.5339   -6.4813    0.3721 H   0  0  0  0  0  0  0  0  0  0  0  0
   -0.6921   -4.9546    0.7083 H   0  0  0  0  0  0  0  0  0  0  0  0
   -4.8592   -5.3645    0.9969 N   0  0  0  0  0  0  0  0  0  0  0  0
   -6.1636   -6.0046    1.0905 C   0  0  0  0  0  0  0  0  0  0  0  0
   -4.5048   -4.8206    1.7880 H   0  0  0  0  0  0  0  0  0  0  0  0
   -6.5989   -5.8309    2.0793 H   0  0  0  0  0  0  0  0  0  0  0  0
   -6.8445   -5.5987    0.3351 H   0  0  0  0  0  0  0  0  0  0  0  0
   -6.0706   -7.0850    0.9385 H   0  0  0  0  0  0  0  0  0  0  0  0
  1  2  2  0  0  0  0
  1  3  1  0  0  0  0
  1  7  1  0  0  0  0
  3  4  1  0  0  0  0
  3  5  1  0  0  0  0
  3  6  1  0  0  0  0
  7  8  1  0  0  0  0
  7 12  1  0  0  0  0
  8  9  1  0  0  0  0
  8 11  1  0  0  0  0
  8 13  1  0  0  0  0
  9 10  2  0  0  0  0
  9 17  1  0  0  0  0
 11 14  1  0  0  0  0
 11 15  1  0  0  0  0
 11 16  1  0  0  0  0
 17 18  1  0  0  0  0
 17 23  1  0  0  0  0
 18 19  1  0  0  0  0
 18 21  1  0  0  0  0
 18 24  1  0  0  0  0
 19 20  2  0  0  0  0
 19 28  1  0  0  0  0
 21 22  1  0  0  0  0
 21 25  1  0  0  0  0
 21 26  1  0  0  0  0
 22 27  1  0  0  0  0
 28 29  1  0  0  0  0
 28 33  1  0  0  0  0
 29 30  1  0  0  0  0
 29 32  1  0  0  0  0
 29 34  1  0  0  0  0
 30 31  2  0  0  0  0
 30 38  1  0  0  0  0
 32 35  1  0  0  0  0
 32 36  1  0  0  0  0
 32 37  1  0  0  0  0
 38 39  1  0  0  0  0
 38 40  1  0  0  0  0
 39 41  1  0  0  0  0
 39 42  1  0  0  0  0
 39 43  1  0  0  0  0
M  END
$$$$

  -OEChem-02062319123D

 43 42  0     1  0  0  0  0  0999 V2000
    1.8378   -2.1638    4.3893 C   0  0  0  0  0  0  0  0  0  0  0  0
    1.1405   -2.1121    5.3896 O   0  0  0  0  0  0  0  0  0  0  0  0
    3.1742   -2.8809    4.4284 C   0  0  0  0  0  0  0  0  0  0  0  0
    3.9845   -2.1680    4.2570 H   0  0  0  0  0  0  0  0  0  0  0  0
    3.3200   -3.3534    5.4040 H   0  0  0  0  0  0  0  0  0  0  0  0
    3.2070   -3.6525    3.6553 H   0  0  0  0  0  0  0  0  0  0  0  0
    1.4142   -1.5681    3.2203 N   0  0  0  0  0  0  0  0  0  0  0  0
    0.1000   -0.9399    3.0332 C   0  0  2  0  0  0  0  0  0  0  0  0
   -0.3651   -1.0446    1.5630 C   0  0  0  0  0  0  0  0  0  0  0  0
    0.4257   -1.3086    0.6689 O   0  0  0  0  0  0  0  0  0  0  0  0
    0.2029    0.5254    3.4687 C   0  0  0  0  0  0  0  0  0  0  0  0
    1.9858   -1.7037    2.3874 H   0  0  0  0  0  0  0  0  0  0  0  0
   -0.6434   -1.4515    3.6546 H   0  0  0  0  0  0  0  0  0  0  0  0
    0.9386    1.0552    2.8555 H   0  0  0  0  0  0  0  0  0  0  0  0
   -0.7634    1.0275    3.3654 H   0  0  0  0  0  0  0  0  0  0  0  0
    0.5120    0.5882    4.5170 H   0  0  0  0  0  0  0  0  0  0  0  0
   -1.5908   -0.6089    1.1160 N   0  0  0  0  0  0  0  0  0  0  0  0
   -2.8320   -0.8977    1.8514 C   0  0  2  0  0  0  0  0  0  0  0  0
   -3.1100   -2.4027    2.0094 C   0  0  0  0  0  0  0  0  0  0  0  0
   -3.4209   -2.8307    3.1118 O   0  0  0  0  0  0  0  0  0  0  0  0
   -3.9939   -0.2674    1.0776 C   0  0  0  0  0  0  0  0  0  0  0  0
   -3.9589   -0.6846   -0.2970 O   0  0  0  0  0  0  0  0  0  0  0  0
   -1.6646   -0.6256    0.0996 H   0  0  0  0  0  0  0  0  0  0  0  0
   -2.7939   -0.4519    2.8505 H   0  0  0  0  0  0  0  0  0  0  0  0
   -3.9143    0.8236    1.1282 H   0  0  0  0  0  0  0  0  0  0  0  0
   -4.9473   -0.5551    1.5348 H   0  0  0  0  0  0  0  0  0  0  0  0
   -4.7032   -0.2960   -0.7942 H   0  0  0  0  0  0  0  0  0  0  0  0
   -2.9568   -3.2570    0.9311 N   0  0  0  0  0  0  0  0  0  0  0  0
   -3.0748   -4.7286    0.9244 C   0  0  2  0  0  0  0  0  0  0  0  0
   -4.4976   -5.2656    1.2025 C   0  0  0  0  0  0  0  0  0  0  0  0
   -5.0327   -6.0066    0.3884 O   0  0  0  0  0  0  0  0  0  0  0  0
   -2.0501   -5.3624    1.8763 C   0  0  0  0  0  0  0  0  0  0  0  0
   -2.8103   -2.7917    0.0366 H   0  0  0  0  0  0  0  0  0  0  0  0
   -2.8183   -5.0634   -0.0862 H   0  0  0  0  0  0  0  0  0  0  0  0
   -2.2890   -5.1446    2.9212 H   0  0  0  0  0  0  0  0  0  0  0  0
   -2.0415   -6.4495    1.7484 H   0  0  0  0  0  0  0  0  0  0  0  0
   -1.0469   -4.9816    1.6623 H   0  0  0  0  0  0  0  0  0  0  0  0
   -5.1809   -4.9222    2.3519 N   0  0  0  0  0  0  0  0  0  0  0  0
   -6.5288   -5.3739    2.6674 C   0  0  0  0  0  0  0  0  0  0  0  0
   -4.7096   -4.2627    2.9770 H   0  0  0  0  0  0  0  0  0  0  0  0
   -6.8390   -4.9815    3.6408 H   0  0  0  0  0  0  0  0  0  0  0  0
   -7.2370   -5.0236    1.9094 H   0  0  0  0  0  0  0  0  0  0  0  0
   -6.5665   -6.4675    2.7074 H   0  0  0  0  0  0  0  0  0  0  0  0
  1  2  2  0  0  0  0
  1  3  1  0  0  0  0
  1  7  1  0  0  0  0
  3  4  1  0  0  0  0
  3  5  1  0  0  0  0
  3  6  1  0  0  0  0
  7  8  1  0  0  0  0
  7 12  1  0  0  0  0
  8  9  1  0  0  0  0
  8 11  1  0  0  0  0
  8 13  1  0  0  0  0
  9 10  2  0  0  0  0
  9 17  1  0  0  0  0
 11 14  1  0  0  0  0
 11 15  1  0  0  0  0
 11 16  1  0  0  0  0
 17 18  1  0  0  0  0
 17 23  1  0  0  0  0
 18 19  1  0  0  0  0
 18 21  1  0  0  0  0
 18 24  1  0  0  0  0
 19 20  2  0  0  0  0
 19 28  1  0  0  0  0
 21 22  1  0  0  0  0
 21 25  1  0  0  0  0
 21 26  1  0  0  0  0
 22 27  1  0  0  0  0
 28 29  1  0  0  0  0
 28 33  1  0  0  0  0
 29 30  1  0  0  0  0
 29 32  1  0  0  0  0
 29 34  1  0  0  0  0
 30 31  2  0  0  0  0
 30 38  1  0  0  0  0
 32 35  1  0  0  0  0
 32 36  1  0  0  0  0
 32 37  1  0  0  0  0
 38 39  1  0  0  0  0
 38 40  1  0  0  0  0
 39 41  1  0  0  0  0
 39 42  1  0  0  0  0
 39 43  1  0  0  0  0
M  END
$$$$

  -OEChem-02062319123D

 43 42  0     1  0  0  0  0  0999 V2000
    1.7555   -2.2790    4.3326 C   0  0  0  0  0  0  0  0  0  0  0  0
    1.0615   -2.2019    5.3332 O   0  0  0  0  0  0  0  0  0  0  0  0
    2.9926   -3.1569    4.3303 C   0  0  0  0  0  0  0  0  0  0  0  0
    3.8821   -2.5461    4.1591 H   0  0  0  0  0  0  0  0  0  0  0  0
    3.0942   -3.6674    5.2922 H   0  0  0  0  0  0  0  0  0  0  0  0
    2.9164   -3.9074    3.5399 H   0  0  0  0  0  0  0  0  0  0  0  0
    1.4150   -1.5752    3.1972 N   0  0  0  0  0  0  0  0  0  0  0  0
    0.1619   -0.8283    3.0257 C   0  0  2  0  0  0  0  0  0  0  0  0
   -0.3512   -0.9421    1.5715 C   0  0  0  0  0  0  0  0  0  0  0  0
    0.3911   -1.3002    0.6683 O   0  0  0  0  0  0  0  0  0  0  0  0
    0.4255    0.6326    3.4021 C   0  0  0  0  0  0  0  0  0  0  0  0
    1.9576   -1.7603    2.3544 H   0  0  0  0  0  0  0  0  0  0  0  0
   -0.6081   -1.2381    3.6881 H   0  0  0  0  0  0  0  0  0  0  0  0
    1.2001    1.0605    2.7577 H   0  0  0  0  0  0  0  0  0  0  0  0
   -0.4847    1.2297    3.2958 H   0  0  0  0  0  0  0  0  0  0  0  0
    0.7607    0.6991    4.4423 H   0  0  0  0  0  0  0  0  0  0  0  0
   -1.5947   -0.5344    1.1455 N   0  0  0  0  0  0  0  0  0  0  0  0
   -2.7936   -0.5323    1.9987 C   0  0  2  0  0  0  0  0  0  0  0  0
   -3.1568   -1.9269    2.5349 C   0  0  0  0  0  0  0  0  0  0  0  0
   -3.4078   -2.0529    3.7246 O   0  0  0  0  0  0  0  0  0  0  0  0
   -3.9654   -0.0126    1.1594 C   0  0  0  0  0  0  0  0  0  0  0  0
   -4.0583   -0.7459   -0.0730 O   0  0  0  0  0  0  0  0  0  0  0  0
   -1.7447   -0.6707    0.1465 H   0  0  0  0  0  0  0  0  0  0  0  0
   -2.6506    0.1346    2.8549 H   0  0  0  0  0  0  0  0  0  0  0  0
   -3.8115    1.0488    0.9384 H   0  0  0  0  0  0  0  0  0  0  0  0
   -4.8999   -0.1042    1.7238 H   0  0  0  0  0  0  0  0  0  0  0  0
   -4.8146   -0.4339   -0.6049 H   0  0  0  0  0  0  0  0  0  0  0  0
   -3.1406   -3.0216    1.6890 N   0  0  0  0  0  0  0  0  0  0  0  0
   -3.3154   -4.4418    2.0510 C   0  0  2  0  0  0  0  0  0  0  0  0
   -4.7278   -4.8155    2.5575 C   0  0  0  0  0  0  0  0  0  0  0  0
   -5.3494   -5.7115    2.0014 O   0  0  0  0  0  0  0  0  0  0  0  0
   -2.2360   -4.8859    3.0490 C   0  0  0  0  0  0  0  0  0  0  0  0
   -3.0295   -2.7945    0.7019 H   0  0  0  0  0  0  0  0  0  0  0  0
   -3.1599   -5.0233    1.1362 H   0  0  0  0  0  0  0  0  0  0  0  0
   -2.3689   -4.4039    4.0222 H   0  0  0  0  0  0  0  0  0  0  0  0
   -2.2863   -5.9692    3.1961 H   0  0  0  0  0  0  0  0  0  0  0  0
   -1.2408   -4.6352    2.6697 H   0  0  0  0  0  0  0  0  0  0  0  0
   -5.3049   -4.1577    3.6254 N   0  0  0  0  0  0  0  0  0  0  0  0
   -6.6299   -4.4548    4.1517 C   0  0  0  0  0  0  0  0  0  0  0  0
   -4.7594   -3.3935    4.0331 H   0  0  0  0  0  0  0  0  0  0  0  0
   -6.8558   -3.7976    4.9972 H   0  0  0  0  0  0  0  0  0  0  0  0
   -7.3918   -4.3022    3.3803 H   0  0  0  0  0  0  0  0  0  0  0  0
   -6.6809   -5.4925    4.4976 H   0  0  0  0  0  0  0  0  0  0  0  0
  1  2  2  0  0  0  0
  1  3  1  0  0  0  0
  1  7  1  0  0  0  0
  3  4  1  0  0  0  0
  3  5  1  0  0  0  0
  3  6  1  0  0  0  0
  7  8  1  0  0  0  0
  7 12  1  0  0  0  0
  8  9  1  0  0  0  0
  8 11  1  0  0  0  0
  8 13  1  0  0  0  0
  9 10  2  0  0  0  0
  9 17  1  0  0  0  0
 11 14  1  0  0  0  0
 11 15  1  0  0  0  0
 11 16  1  0  0  0  0
 17 18  1  0  0  0  0
 17 23  1  0  0  0  0
 18 19  1  0  0  0  0
 18 21  1  0  0  0  0
 18 24  1  0  0  0  0
 19 20  2  0  0  0  0
 19 28  1  0  0  0  0
 21 22  1  0  0  0  0
 21 25  1  0  0  0  0
 21 26  1  0  0  0  0
 22 27  1  0  0  0  0
 28 29  1  0  0  0  0
 28 33  1  0  0  0  0
 29 30  1  0  0  0  0
 29 32  1  0  0  0  0
 29 34  1  0  0  0  0
 30 31  2  0  0  0  0
 30 38  1  0  0  0  0
 32 35  1  0  0  0  0
 32 36  1  0  0  0  0
 32 37  1  0  0  0  0
 38 39  1  0  0  0  0
 38 40  1  0  0  0  0
 39 41  1  0  0  0  0
 39 42  1  0  0  0  0
 39 43  1  0  0  0  0
M  END
$$$$

  -OEChem-02062319123D

 43 42  0     1  0  0  0  0  0999 V2000
    1.7201   -2.4569    3.6258 C   0  0  0  0  0  0  0  0  0  0  0  0
    0.6754   -2.9223    4.0541 O   0  0  0  0  0  0  0  0  0  0  0  0
    2.9632   -3.3232    3.5554 C   0  0  0  0  0  0  0  0  0  0  0  0
    3.7640   -2.8765    4.1494 H   0  0  0  0  0  0  0  0  0  0  0  0
    2.7489   -4.3213    3.9470 H   0  0  0  0  0  0  0  0  0  0  0  0
    3.2945   -3.4162    2.5182 H   0  0  0  0  0  0  0  0  0  0  0  0
    1.7661   -1.1556    3.1684 N   0  0  0  0  0  0  0  0  0  0  0  0
    0.5454   -0.3703    2.9404 C   0  0  2  0  0  0  0  0  0  0  0  0
   -0.1158   -0.7210    1.5848 C   0  0  0  0  0  0  0  0  0  0  0  0
    0.5592   -1.0821    0.6320 O   0  0  0  0  0  0  0  0  0  0  0  0
    0.9241    1.1112    2.9822 C   0  0  0  0  0  0  0  0  0  0  0  0
    2.5788   -0.9199    2.6056 H   0  0  0  0  0  0  0  0  0  0  0  0
   -0.1657   -0.5631    3.7493 H   0  0  0  0  0  0  0  0  0  0  0  0
    1.6333    1.3493    2.1829 H   0  0  0  0  0  0  0  0  0  0  0  0
    0.0352    1.7368    2.8550 H   0  0  0  0  0  0  0  0  0  0  0  0
    1.3844    1.3579    3.9440 H   0  0  0  0  0  0  0  0  0  0  0  0
   -1.4516   -0.5524    1.2951 N   0  0  0  0  0  0  0  0  0  0  0  0
   -2.5249   -0.3155    2.2735 C   0  0  2  0  0  0  0  0  0  0  0  0
   -2.6847   -1.4373    3.3097 C   0  0  0  0  0  0  0  0  0  0  0  0
   -3.0718   -1.1406    4.4314 O   0  0  0  0  0  0  0  0  0  0  0  0
   -3.8537   -0.1337    1.5268 C   0  0  0  0  0  0  0  0  0  0  0  0
   -4.2013   -1.3066    0.7768 O   0  0  0  0  0  0  0  0  0  0  0  0
   -1.7215   -0.8475    0.3572 H   0  0  0  0  0  0  0  0  0  0  0  0
   -2.3146    0.6091    2.8199 H   0  0  0  0  0  0  0  0  0  0  0  0
   -3.7635    0.7148    0.8408 H   0  0  0  0  0  0  0  0  0  0  0  0
   -4.6545    0.0990    2.2372 H   0  0  0  0  0  0  0  0  0  0  0  0
   -4.7303   -1.9318    1.3368 H   0  0  0  0  0  0  0  0  0  0  0  0
   -2.6642   -2.7531    2.8817 N   0  0  0  0  0  0  0  0  0  0  0  0
   -3.4220   -3.8333    3.5290 C   0  0  2  0  0  0  0  0  0  0  0  0
   -4.9372   -3.5160    3.5266 C   0  0  0  0  0  0  0  0  0  0  0  0
   -5.4385   -3.0324    2.5125 O   0  0  0  0  0  0  0  0  0  0  0  0
   -2.8440   -4.1637    4.9157 C   0  0  0  0  0  0  0  0  0  0  0  0
   -2.4862   -2.8539    1.8847 H   0  0  0  0  0  0  0  0  0  0  0  0
   -3.2989   -4.7334    2.9192 H   0  0  0  0  0  0  0  0  0  0  0  0
   -3.0437   -3.3642    5.6348 H   0  0  0  0  0  0  0  0  0  0  0  0
   -3.2811   -5.0905    5.2990 H   0  0  0  0  0  0  0  0  0  0  0  0
   -1.7595   -4.2988    4.8459 H   0  0  0  0  0  0  0  0  0  0  0  0
   -5.7372   -3.7553    4.6282 N   0  0  0  0  0  0  0  0  0  0  0  0
   -7.1324   -3.3399    4.6986 C   0  0  0  0  0  0  0  0  0  0  0  0
   -5.2565   -3.9885    5.4925 H   0  0  0  0  0  0  0  0  0  0  0  0
   -7.5613   -3.6195    5.6656 H   0  0  0  0  0  0  0  0  0  0  0  0
   -7.2148   -2.2540    4.5832 H   0  0  0  0  0  0  0  0  0  0  0  0
   -7.7173   -3.8245    3.9097 H   0  0  0  0  0  0  0  0  0  0  0  0
  1  2  2  0  0  0  0
  1  3  1  0  0  0  0
  1  7  1  0  0  0  0
  3  4  1  0  0  0  0
  3  5  1  0  0  0  0
  3  6  1  0  0  0  0
  7  8  1  0  0  0  0
  7 12  1  0  0  0  0
  8  9  1  0  0  0  0
  8 11  1  0  0  0  0
  8 13  1  0  0  0  0
  9 10  2  0  0  0  0
  9 17  1  0  0  0  0
 11 14  1  0  0  0  0
 11 15  1  0  0  0  0
 11 16  1  0  0  0  0
 17 18  1  0  0  0  0
 17 23  1  0  0  0  0
 18 19  1  0  0  0  0
 18 21  1  0  0  0  0
 18 24  1  0  0  0  0
 19 20  2  0  0  0  0
 19 28  1  0  0  0  0
 21 22  1  0  0  0  0
 21 25  1  0  0  0  0
 21 26  1  0  0  0  0
 22 27  1  0  0  0  0
 28 29  1  0  0  0  0
 28 33  1  0  0  0  0
 29 30  1  0  0  0  0
 29 32  1  0  0  0  0
 29 34  1  0  0  0  0
 30 31  2  0  0  0  0
 30 38  1  0  0  0  0
 32 35  1  0  0  0  0
 32 36  1  0  0  0  0
 32 37  1  0  0  0  0
 38 39  1  0  0  0  0
 38 40  1  0  0  0  0
 39 41  1  0  0  0  0
 39 42  1  0  0  0  0
 39 43  1  0  0  0  0
M  END
$$$$

  -OEChem-02062319123D

 43 42  0     1  0  0  0  0  0999 V2000
    1.7494   -2.6145    3.5817 C   0  0  0  0  0  0  0  0  0  0  0  0
    0.7153   -2.9528    4.1372 O   0  0  0  0  0  0  0  0  0  0  0  0
    2.8862   -3.6070    3.4281 C   0  0  0  0  0  0  0  0  0  0  0  0
    3.7852   -3.2238    3.9169 H   0  0  0  0  0  0  0  0  0  0  0  0
    2.6168   -4.5636    3.8846 H   0  0  0  0  0  0  0  0  0  0  0  0
    3.0965   -3.7706    2.3681 H   0  0  0  0  0  0  0  0  0  0  0  0
    1.8771   -1.3455    3.0536 N   0  0  0  0  0  0  0  0  0  0  0  0
    0.7215   -0.4531    2.8865 C   0  0  2  0  0  0  0  0  0  0  0  0
   -0.0350   -0.7449    1.5664 C   0  0  0  0  0  0  0  0  0  0  0  0
    0.5512   -1.2185    0.6038 O   0  0  0  0  0  0  0  0  0  0  0  0
    1.2324    0.9884    2.9068 C   0  0  0  0  0  0  0  0  0  0  0  0
    2.6466   -1.2255    2.4005 H   0  0  0  0  0  0  0  0  0  0  0  0
    0.0423   -0.5819    3.7327 H   0  0  0  0  0  0  0  0  0  0  0  0
    1.9138    1.1669    2.0689 H   0  0  0  0  0  0  0  0  0  0  0  0
    0.3972    1.6913    2.8319 H   0  0  0  0  0  0  0  0  0  0  0  0
    1.7665    1.1866    3.8415 H   0  0  0  0  0  0  0  0  0  0  0  0
   -1.3728   -0.5056    1.3381 N   0  0  0  0  0  0  0  0  0  0  0  0
   -2.3528    0.0660    2.2771 C   0  0  2  0  0  0  0  0  0  0  0  0
   -2.5420   -0.7469    3.5643 C   0  0  0  0  0  0  0  0  0  0  0  0
   -2.7914   -0.1506    4.6025 O   0  0  0  0  0  0  0  0  0  0  0  0
   -3.7101    0.2055    1.5731 C   0  0  0  0  0  0  0  0  0  0  0  0
   -4.2217   -1.0671    1.1528 O   0  0  0  0  0  0  0  0  0  0  0  0
   -1.7107   -0.8249    0.4310 H   0  0  0  0  0  0  0  0  0  0  0  0
   -2.0220    1.0673    2.5695 H   0  0  0  0  0  0  0  0  0  0  0  0
   -3.5913    0.8496    0.6957 H   0  0  0  0  0  0  0  0  0  0  0  0
   -4.4317    0.6873    2.2421 H   0  0  0  0  0  0  0  0  0  0  0  0
   -4.7528   -1.4837    1.8798 H   0  0  0  0  0  0  0  0  0  0  0  0
   -2.6663   -2.1212    3.4742 N   0  0  0  0  0  0  0  0  0  0  0  0
   -3.4505   -2.9381    4.4109 C   0  0  2  0  0  0  0  0  0  0  0  0
   -4.9394   -2.5134    4.3981 C   0  0  0  0  0  0  0  0  0  0  0  0
   -5.4565   -2.1844    3.3311 O   0  0  0  0  0  0  0  0  0  0  0  0
   -2.8123   -2.9541    5.8105 C   0  0  0  0  0  0  0  0  0  0  0  0
   -2.5760   -2.4762    2.5241 H   0  0  0  0  0  0  0  0  0  0  0  0
   -3.4234   -3.9688    4.0457 H   0  0  0  0  0  0  0  0  0  0  0  0
   -2.9410   -1.9958    6.3214 H   0  0  0  0  0  0  0  0  0  0  0  0
   -3.2667   -3.7358    6.4261 H   0  0  0  0  0  0  0  0  0  0  0  0
   -1.7400   -3.1613    5.7305 H   0  0  0  0  0  0  0  0  0  0  0  0
   -5.7084   -2.5175    5.5471 N   0  0  0  0  0  0  0  0  0  0  0  0
   -7.0768   -2.0169    5.5871 C   0  0  0  0  0  0  0  0  0  0  0  0
   -5.2153   -2.6558    6.4247 H   0  0  0  0  0  0  0  0  0  0  0  0
   -7.4962   -2.1442    6.5898 H   0  0  0  0  0  0  0  0  0  0  0  0
   -7.1025   -0.9522    5.3314 H   0  0  0  0  0  0  0  0  0  0  0  0
   -7.7074   -2.5648    4.8791 H   0  0  0  0  0  0  0  0  0  0  0  0
  1  2  2  0  0  0  0
  1  3  1  0  0  0  0
  1  7  1  0  0  0  0
  3  4  1  0  0  0  0
  3  5  1  0  0  0  0
  3  6  1  0  0  0  0
  7  8  1  0  0  0  0
  7 12  1  0  0  0  0
  8  9  1  0  0  0  0
  8 11  1  0  0  0  0
  8 13  1  0  0  0  0
  9 10  2  0  0  0  0
  9 17  1  0  0  0  0
 11 14  1  0  0  0  0
 11 15  1  0  0  0  0
 11 16  1  0  0  0  0
 17 18  1  0  0  0  0
 17 23  1  0  0  0  0
 18 19  1  0  0  0  0
 18 21  1  0  0  0  0
 18 24  1  0  0  0  0
 19 20  2  0  0  0  0
 19 28  1  0  0  0  0
 21 22  1  0  0  0  0
 21 25  1  0  0  0  0
 21 26  1  0  0  0  0
 22 27  1  0  0  0  0
 28 29  1  0  0  0  0
 28 33  1  0  0  0  0
 29 30  1  0  0  0  0
 29 32  1  0  0  0  0
 29 34  1  0  0  0  0
 30 31  2  0  0  0  0
 30 38  1  0  0  0  0
 32 35  1  0  0  0  0
 32 36  1  0  0  0  0
 32 37  1  0  0  0  0
 38 39  1  0  0  0  0
 38 40  1  0  0  0  0
 39 41  1  0  0  0  0
 39 42  1  0  0  0  0
 39 43  1  0  0  0  0
M  END
$$$$

  -OEChem-02062319123D

 43 42  0     1  0  0  0  0  0999 V2000
    1.5844   -2.7546    3.6510 C   0  0  0  0  0  0  0  0  0  0  0  0
    0.5439   -2.8734    4.2805 O   0  0  0  0  0  0  0  0  0  0  0  0
    2.5494   -3.9214    3.5589 C   0  0  0  0  0  0  0  0  0  0  0  0
    3.5265   -3.6299    3.9514 H   0  0  0  0  0  0  0  0  0  0  0  0
    2.1748   -4.7679    4.1410 H   0  0  0  0  0  0  0  0  0  0  0  0
    2.6601   -4.2318    2.5168 H   0  0  0  0  0  0  0  0  0  0  0  0
    1.8763   -1.5763    2.9933 N   0  0  0  0  0  0  0  0  0  0  0  0
    0.8691   -0.5259    2.7865 C   0  0  2  0  0  0  0  0  0  0  0  0
    0.0392   -0.7795    1.5020 C   0  0  0  0  0  0  0  0  0  0  0  0
    0.5305   -1.3870    0.5619 O   0  0  0  0  0  0  0  0  0  0  0  0
    1.5966    0.8163    2.6982 C   0  0  0  0  0  0  0  0  0  0  0  0
    2.6202   -1.6386    2.3034 H   0  0  0  0  0  0  0  0  0  0  0  0
    0.2071   -0.4918    3.6535 H   0  0  0  0  0  0  0  0  0  0  0  0
    2.2675    0.8347    1.8333 H   0  0  0  0  0  0  0  0  0  0  0  0
    0.8768    1.6346    2.5990 H   0  0  0  0  0  0  0  0  0  0  0  0
    2.1877    0.9855    3.6038 H   0  0  0  0  0  0  0  0  0  0  0  0
   -1.2904   -0.4667    1.3125 N   0  0  0  0  0  0  0  0  0  0  0  0
   -2.1388    0.4235    2.1255 C   0  0  2  0  0  0  0  0  0  0  0  0
   -2.2833   -0.0056    3.5899 C   0  0  0  0  0  0  0  0  0  0  0  0
   -2.3648    0.8536    4.4558 O   0  0  0  0  0  0  0  0  0  0  0  0
   -3.5363    0.5240    1.4955 C   0  0  0  0  0  0  0  0  0  0  0  0
   -4.2017   -0.7464    1.4683 O   0  0  0  0  0  0  0  0  0  0  0  0
   -1.6772   -0.8174    0.4377 H   0  0  0  0  0  0  0  0  0  0  0  0
   -1.6982    1.4251    2.1237 H   0  0  0  0  0  0  0  0  0  0  0  0
   -3.4388    0.8969    0.4709 H   0  0  0  0  0  0  0  0  0  0  0  0
   -4.1470    1.2437    2.0517 H   0  0  0  0  0  0  0  0  0  0  0  0
   -4.6792   -0.9080    2.3227 H   0  0  0  0  0  0  0  0  0  0  0  0
   -2.5248   -1.3386    3.8650 N   0  0  0  0  0  0  0  0  0  0  0  0
   -3.2552   -1.8302    5.0415 C   0  0  2  0  0  0  0  0  0  0  0  0
   -4.7228   -1.3362    5.0305 C   0  0  0  0  0  0  0  0  0  0  0  0
   -5.2897   -1.1589    3.9529 O   0  0  0  0  0  0  0  0  0  0  0  0
   -2.5012   -1.5184    6.3453 C   0  0  0  0  0  0  0  0  0  0  0  0
   -2.5497   -1.9271    3.0337 H   0  0  0  0  0  0  0  0  0  0  0  0
   -3.2963   -2.9207    4.9617 H   0  0  0  0  0  0  0  0  0  0  0  0
   -2.5774   -0.4593    6.6068 H   0  0  0  0  0  0  0  0  0  0  0  0
   -2.9104   -2.1066    7.1716 H   0  0  0  0  0  0  0  0  0  0  0  0
   -1.4418   -1.7730    6.2365 H   0  0  0  0  0  0  0  0  0  0  0  0
   -5.4332   -1.1490    6.2020 N   0  0  0  0  0  0  0  0  0  0  0  0
   -6.7955   -0.6311    6.2356 C   0  0  0  0  0  0  0  0  0  0  0  0
   -4.9091   -1.2013    7.0705 H   0  0  0  0  0  0  0  0  0  0  0  0
   -7.1729   -0.6279    7.2625 H   0  0  0  0  0  0  0  0  0  0  0  0
   -6.8250    0.3936    5.8509 H   0  0  0  0  0  0  0  0  0  0  0  0
   -7.4596   -1.2554    5.6285 H   0  0  0  0  0  0  0  0  0  0  0  0
  1  2  2  0  0  0  0
  1  3  1  0  0  0  0
  1  7  1  0  0  0  0
  3  4  1  0  0  0  0
  3  5  1  0  0  0  0
  3  6  1  0  0  0  0
  7  8  1  0  0  0  0
  7 12  1  0  0  0  0
  8  9  1  0  0  0  0
  8 11  1  0  0  0  0
  8 13  1  0  0  0  0
  9 10  2  0  0  0  0
  9 17  1  0  0  0  0
 11 14  1  0  0  0  0
 11 15  1  0  0  0  0
 11 16  1  0  0  0  0
 17 18  1  0  0  0  0
 17 23  1  0  0  0  0
 18 19  1  0  0  0  0
 18 21  1  0  0  0  0
 18 24  1  0  0  0  0
 19 20  2  0  0  0  0
 19 28  1  0  0  0  0
 21 22  1  0  0  0  0
 21 25  1  0  0  0  0
 21 26  1  0  0  0  0
 22 27  1  0  0  0  0
 28 29  1  0  0  0  0
 28 33  1  0  0  0  0
 29 30  1  0  0  0  0
 29 32  1  0  0  0  0
 29 34  1  0  0  0  0
 30 31  2  0  0  0  0
 30 38  1  0  0  0  0
 32 35  1  0  0  0  0
 32 36  1  0  0  0  0
 32 37  1  0  0  0  0
 38 39  1  0  0  0  0
 38 40  1  0  0  0  0
 39 41  1  0  0  0  0
 39 42  1  0  0  0  0
 39 43  1  0  0  0  0
M  END
$$$$

  -OEChem-02062319123D

 43 42  0     1  0  0  0  0  0999 V2000
    2.1003   -2.7760    3.8036 C   0  0  0  0  0  0  0  0  0  0  0  0
    1.6178   -2.5438    4.9010 O   0  0  0  0  0  0  0  0  0  0  0  0
    3.0285   -3.9619    3.6170 C   0  0  0  0  0  0  0  0  0  0  0  0
    4.0044   -3.6197    3.2643 H   0  0  0  0  0  0  0  0  0  0  0  0
    3.1620   -4.4902    4.5652 H   0  0  0  0  0  0  0  0  0  0  0  0
    2.6064   -4.6542    2.8843 H   0  0  0  0  0  0  0  0  0  0  0  0
    1.7961   -1.9738    2.7236 N   0  0  0  0  0  0  0  0  0  0  0  0
    0.7572   -0.9338    2.7308 C   0  0  2  0  0  0  0  0  0  0  0  0
   -0.0766   -0.9708    1.4247 C   0  0  0  0  0  0  0  0  0  0  0  0
    0.2981   -1.6532    0.4817 O   0  0  0  0  0  0  0  0  0  0  0  0
    1.4575    0.4166    2.9097 C   0  0  0  0  0  0  0  0  0  0  0  0
    2.0893   -2.3123    1.8080 H   0  0  0  0  0  0  0  0  0  0  0  0
    0.0805   -1.1028    3.5716 H   0  0  0  0  0  0  0  0  0  0  0  0
    2.1352    0.6111    2.0723 H   0  0  0  0  0  0  0  0  0  0  0  0
    0.7306    1.2312    2.9657 H   0  0  0  0  0  0  0  0  0  0  0  0
    2.0393    0.4173    3.8372 H   0  0  0  0  0  0  0  0  0  0  0  0
   -1.3561   -0.4832    1.2554 N   0  0  0  0  0  0  0  0  0  0  0  0
   -1.9733    0.6494    1.9721 C   0  0  2  0  0  0  0  0  0  0  0  0
   -2.0589    0.4785    3.4932 C   0  0  0  0  0  0  0  0  0  0  0  0
   -1.8985    1.4505    4.2164 O   0  0  0  0  0  0  0  0  0  0  0  0
   -3.3873    0.9018    1.4262 C   0  0  0  0  0  0  0  0  0  0  0  0
   -4.2638   -0.2057    1.6761 O   0  0  0  0  0  0  0  0  0  0  0  0
   -1.7700   -0.7501    0.3639 H   0  0  0  0  0  0  0  0  0  0  0  0
   -1.3776    1.5473    1.7802 H   0  0  0  0  0  0  0  0  0  0  0  0
   -3.3273    1.0736    0.3465 H   0  0  0  0  0  0  0  0  0  0  0  0
   -3.8065    1.8061    1.8808 H   0  0  0  0  0  0  0  0  0  0  0  0
   -4.7029   -0.1102    2.5605 H   0  0  0  0  0  0  0  0  0  0  0  0
   -2.4934   -0.7352    3.9975 N   0  0  0  0  0  0  0  0  0  0  0  0
   -3.2079   -0.8662    5.2766 C   0  0  2  0  0  0  0  0  0  0  0  0
   -4.5008   -0.0126    5.2766 C   0  0  0  0  0  0  0  0  0  0  0  0
   -5.1718    0.0440    4.2471 O   0  0  0  0  0  0  0  0  0  0  0  0
   -2.2745   -0.5979    6.4694 C   0  0  0  0  0  0  0  0  0  0  0  0
   -2.7648   -1.3885    3.2631 H   0  0  0  0  0  0  0  0  0  0  0  0
   -3.5328   -1.9073    5.3650 H   0  0  0  0  0  0  0  0  0  0  0  0
   -2.0186    0.4627    6.5472 H   0  0  0  0  0  0  0  0  0  0  0  0
   -2.7540   -0.9058    7.4035 H   0  0  0  0  0  0  0  0  0  0  0  0
   -1.3469   -1.1688    6.3567 H   0  0  0  0  0  0  0  0  0  0  0  0
   -4.9265    0.6720    6.3999 N   0  0  0  0  0  0  0  0  0  0  0  0
   -6.0735    1.5715    6.3935 C   0  0  0  0  0  0  0  0  0  0  0  0
   -4.2753    0.7209    7.1783 H   0  0  0  0  0  0  0  0  0  0  0  0
   -6.2376    1.9826    7.3942 H   0  0  0  0  0  0  0  0  0  0  0  0
   -5.9044    2.4024    5.7002 H   0  0  0  0  0  0  0  0  0  0  0  0
   -6.9792    1.0364    6.0895 H   0  0  0  0  0  0  0  0  0  0  0  0
  1  2  2  0  0  0  0
  1  3  1  0  0  0  0
  1  7  1  0  0  0  0
  3  4  1  0  0  0  0
  3  5  1  0  0  0  0
  3  6  1  0  0  0  0
  7  8  1  0  0  0  0
  7 12  1  0  0  0  0
  8  9  1  0  0  0  0
  8 11  1  0  0  0  0
  8 13  1  0  0  0  0
  9 10  2  0  0  0  0
  9 17  1  0  0  0  0
 11 14  1  0  0  0  0
 11 15  1  0  0  0  0
 11 16  1  0  0  0  0
 17 18  1  0  0  0  0
 17 23  1  0  0  0  0
 18 19  1  0  0  0  0
 18 21  1  0  0  0  0
 18 24  1  0  0  0  0
 19 20  2  0  0  0  0
 19 28  1  0  0  0  0
 21 22  1  0  0  0  0
 21 25  1  0  0  0  0
 21 26  1  0  0  0  0
 22 27  1  0  0  0  0
 28 29  1  0  0  0  0
 28 33  1  0  0  0  0
 29 30  1  0  0  0  0
 29 32  1  0  0  0  0
 29 34  1  0  0  0  0
 30 31  2  0  0  0  0
 30 38  1  0  0  0  0
 32 35  1  0  0  0  0
 32 36  1  0  0  0  0
 32 37  1  0  0  0  0
 38 39  1  0  0  0  0
 38 40  1  0  0  0  0
 39 41  1  0  0  0  0
 39 42  1  0  0  0  0
 39 43  1  0  0  0  0
M  END
$$$$

  -OEChem-02062319123D

 43 42  0     1  0  0  0  0  0999 V2000
    1.8260   -2.9224    3.9479 C   0  0  0  0  0  0  0  0  0  0  0  0
    1.4078   -2.4976    5.0139 O   0  0  0  0  0  0  0  0  0  0  0  0
    2.5595   -4.2491    3.8955 C   0  0  0  0  0  0  0  0  0  0  0  0
    3.5850   -4.0942    3.5514 H   0  0  0  0  0  0  0  0  0  0  0  0
    2.5855   -4.7053    4.8890 H   0  0  0  0  0  0  0  0  0  0  0  0
    2.0509   -4.9307    3.2095 H   0  0  0  0  0  0  0  0  0  0  0  0
    1.6254   -2.2058    2.7867 N   0  0  0  0  0  0  0  0  0  0  0  0
    0.7784   -1.0089    2.6905 C   0  0  2  0  0  0  0  0  0  0  0  0
   -0.0421   -0.9998    1.3769 C   0  0  0  0  0  0  0  0  0  0  0  0
    0.2627   -1.7657    0.4737 O   0  0  0  0  0  0  0  0  0  0  0  0
    1.6950    0.2157    2.7713 C   0  0  0  0  0  0  0  0  0  0  0  0
    1.8558   -2.6721    1.9100 H   0  0  0  0  0  0  0  0  0  0  0  0
    0.0814   -0.9962    3.5298 H   0  0  0  0  0  0  0  0  0  0  0  0
    2.4172    0.2082    1.9486 H   0  0  0  0  0  0  0  0  0  0  0  0
    1.1168    1.1421    2.7173 H   0  0  0  0  0  0  0  0  0  0  0  0
    2.2448    0.2113    3.7178 H   0  0  0  0  0  0  0  0  0  0  0  0
   -1.2976   -0.4556    1.1981 N   0  0  0  0  0  0  0  0  0  0  0  0
   -1.7420    0.8649    1.6901 C   0  0  2  0  0  0  0  0  0  0  0  0
   -1.6864    1.0561    3.2103 C   0  0  0  0  0  0  0  0  0  0  0  0
   -1.3738    2.1446    3.6699 O   0  0  0  0  0  0  0  0  0  0  0  0
   -3.1780    1.1423    1.2186 C   0  0  0  0  0  0  0  0  0  0  0  0
   -4.1181    0.2195    1.7863 O   0  0  0  0  0  0  0  0  0  0  0  0
   -1.7331   -0.7837    0.3380 H   0  0  0  0  0  0  0  0  0  0  0  0
   -1.0932    1.6297    1.2506 H   0  0  0  0  0  0  0  0  0  0  0  0
   -3.2153    1.0645    0.1273 H   0  0  0  0  0  0  0  0  0  0  0  0
   -3.4665    2.1648    1.4864 H   0  0  0  0  0  0  0  0  0  0  0  0
   -4.4510    0.5522    2.6593 H   0  0  0  0  0  0  0  0  0  0  0  0
   -2.1668    0.0403    4.0186 N   0  0  0  0  0  0  0  0  0  0  0  0
   -2.7533    0.2735    5.3468 C   0  0  2  0  0  0  0  0  0  0  0  0
   -3.9692    1.2288    5.2554 C   0  0  0  0  0  0  0  0  0  0  0  0
   -4.7340    1.1234    4.2977 O   0  0  0  0  0  0  0  0  0  0  0  0
   -1.6829    0.7095    6.3615 C   0  0  0  0  0  0  0  0  0  0  0  0
   -2.5638   -0.7307    3.4821 H   0  0  0  0  0  0  0  0  0  0  0  0
   -3.1464   -0.6835    5.7032 H   0  0  0  0  0  0  0  0  0  0  0  0
   -1.3348    1.7280    6.1665 H   0  0  0  0  0  0  0  0  0  0  0  0
   -2.0869    0.6724    7.3776 H   0  0  0  0  0  0  0  0  0  0  0  0
   -0.8217    0.0352    6.3111 H   0  0  0  0  0  0  0  0  0  0  0  0
   -4.2267    2.1803    6.2253 N   0  0  0  0  0  0  0  0  0  0  0  0
   -5.3005    3.1592    6.1109 C   0  0  0  0  0  0  0  0  0  0  0  0
   -3.4974    2.3381    6.9151 H   0  0  0  0  0  0  0  0  0  0  0  0
   -5.3350    3.7891    7.0049 H   0  0  0  0  0  0  0  0  0  0  0  0
   -5.1409    3.8027    5.2395 H   0  0  0  0  0  0  0  0  0  0  0  0
   -6.2681    2.6572    6.0069 H   0  0  0  0  0  0  0  0  0  0  0  0
  1  2  2  0  0  0  0
  1  3  1  0  0  0  0
  1  7  1  0  0  0  0
  3  4  1  0  0  0  0
  3  5  1  0  0  0  0
  3  6  1  0  0  0  0
  7  8  1  0  0  0  0
  7 12  1  0  0  0  0
  8  9  1  0  0  0  0
  8 11  1  0  0  0  0
  8 13  1  0  0  0  0
  9 10  2  0  0  0  0
  9 17  1  0  0  0  0
 11 14  1  0  0  0  0
 11 15  1  0  0  0  0
 11 16  1  0  0  0  0
 17 18  1  0  0  0  0
 17 23  1  0  0  0  0
 18 19  1  0  0  0  0
 18 21  1  0  0  0  0
 18 24  1  0  0  0  0
 19 20  2  0  0  0  0
 19 28  1  0  0  0  0
 21 22  1  0  0  0  0
 21 25  1  0  0  0  0
 21 26  1  0  0  0  0
 22 27  1  0  0  0  0
 28 29  1  0  0  0  0
 28 33  1  0  0  0  0
 29 30  1  0  0  0  0
 29 32  1  0  0  0  0
 29 34  1  0  0  0  0
 30 31  2  0  0  0  0
 30 38  1  0  0  0  0
 32 35  1  0  0  0  0
 32 36  1  0  0  0  0
 32 37  1  0  0  0  0
 38 39  1  0  0  0  0
 38 40  1  0  0  0  0
 39 41  1  0  0  0  0
 39 42  1  0  0  0  0
 39 43  1  0  0  0  0
M  END
$$$$

  -OEChem-02062319123D

 43 42  0     1  0  0  0  0  0999 V2000
    0.7020   -1.3818    4.0186 C   0  0  0  0  0  0  0  0  0  0  0  0
   -0.4935   -1.5856    3.8627 O   0  0  0  0  0  0  0  0  0  0  0  0
    1.5390   -2.3579    4.8224 C   0  0  0  0  0  0  0  0  0  0  0  0
    1.9758   -1.8496    5.6858 H   0  0  0  0  0  0  0  0  0  0  0  0
    0.9173   -3.1841    5.1787 H   0  0  0  0  0  0  0  0  0  0  0  0
    2.3410   -2.7639    4.2011 H   0  0  0  0  0  0  0  0  0  0  0  0
    1.2941   -0.2726    3.4500 N   0  0  0  0  0  0  0  0  0  0  0  0
    0.5728    0.7313    2.6557 C   0  0  2  0  0  0  0  0  0  0  0  0
    0.0759    0.1818    1.2940 C   0  0  0  0  0  0  0  0  0  0  0  0
    0.8896   -0.1949    0.4649 O   0  0  0  0  0  0  0  0  0  0  0  0
    1.5176    1.9175    2.4427 C   0  0  0  0  0  0  0  0  0  0  0  0
    2.3047   -0.2013    3.5192 H   0  0  0  0  0  0  0  0  0  0  0  0
   -0.2740    1.0951    3.2319 H   0  0  0  0  0  0  0  0  0  0  0  0
    1.0083    2.7129    1.8902 H   0  0  0  0  0  0  0  0  0  0  0  0
    2.4015    1.6117    1.8735 H   0  0  0  0  0  0  0  0  0  0  0  0
    1.8458    2.3209    3.4051 H   0  0  0  0  0  0  0  0  0  0  0  0
   -1.1886   -0.3060    1.0393 N   0  0  0  0  0  0  0  0  0  0  0  0
   -2.4475    0.4535    1.1836 C   0  0  2  0  0  0  0  0  0  0  0  0
   -2.7846    1.0000    2.5813 C   0  0  0  0  0  0  0  0  0  0  0  0
   -3.1943    2.1481    2.6978 O   0  0  0  0  0  0  0  0  0  0  0  0
   -3.6198   -0.4155    0.7048 C   0  0  0  0  0  0  0  0  0  0  0  0
   -3.5776   -1.7335    1.2677 O   0  0  0  0  0  0  0  0  0  0  0  0
   -1.1722   -0.9699    0.2673 H   0  0  0  0  0  0  0  0  0  0  0  0
   -2.3927    1.3251    0.5225 H   0  0  0  0  0  0  0  0  0  0  0  0
   -3.5748   -0.5034   -0.3855 H   0  0  0  0  0  0  0  0  0  0  0  0
   -4.5713    0.0665    0.9553 H   0  0  0  0  0  0  0  0  0  0  0  0
   -3.5961   -1.7097    2.2411 H   0  0  0  0  0  0  0  0  0  0  0  0
   -2.6430    0.2202    3.7136 N   0  0  0  0  0  0  0  0  0  0  0  0
   -2.8707    0.7130    5.0803 C   0  0  2  0  0  0  0  0  0  0  0  0
   -1.7244    1.6291    5.5740 C   0  0  0  0  0  0  0  0  0  0  0  0
   -0.9132    1.2655    6.4173 O   0  0  0  0  0  0  0  0  0  0  0  0
   -3.0767   -0.5108    5.9809 C   0  0  0  0  0  0  0  0  0  0  0  0
   -2.0346   -0.6019    3.6140 H   0  0  0  0  0  0  0  0  0  0  0  0
   -3.7930    1.3026    5.1068 H   0  0  0  0  0  0  0  0  0  0  0  0
   -2.1798   -1.1381    5.9925 H   0  0  0  0  0  0  0  0  0  0  0  0
   -3.2887   -0.1950    7.0071 H   0  0  0  0  0  0  0  0  0  0  0  0
   -3.9174   -1.1120    5.6223 H   0  0  0  0  0  0  0  0  0  0  0  0
   -1.5847    2.8837    5.0135 N   0  0  0  0  0  0  0  0  0  0  0  0
   -0.5271    3.8209    5.3663 C   0  0  0  0  0  0  0  0  0  0  0  0
   -2.2235    3.1091    4.2469 H   0  0  0  0  0  0  0  0  0  0  0  0
   -0.5981    4.0955    6.4240 H   0  0  0  0  0  0  0  0  0  0  0  0
    0.4565    3.3764    5.1840 H   0  0  0  0  0  0  0  0  0  0  0  0
   -0.6136    4.7315    4.7656 H   0  0  0  0  0  0  0  0  0  0  0  0
  1  2  2  0  0  0  0
  1  3  1  0  0  0  0
  1  7  1  0  0  0  0
  3  4  1  0  0  0  0
  3  5  1  0  0  0  0
  3  6  1  0  0  0  0
  7  8  1  0  0  0  0
  7 12  1  0  0  0  0
  8  9  1  0  0  0  0
  8 11  1  0  0  0  0
  8 13  1  0  0  0  0
  9 10  2  0  0  0  0
  9 17  1  0  0  0  0
 11 14  1  0  0  0  0
 11 15  1  0  0  0  0
 11 16  1  0  0  0  0
 17 18  1  0  0  0  0
 17 23  1  0  0  0  0
 18 19  1  0  0  0  0
 18 21  1  0  0  0  0
 18 24  1  0  0  0  0
 19 20  2  0  0  0  0
 19 28  1  0  0  0  0
 21 22  1  0  0  0  0
 21 25  1  0  0  0  0
 21 26  1  0  0  0  0
 22 27  1  0  0  0  0
 28 29  1  0  0  0  0
 28 33  1  0  0  0  0
 29 30  1  0  0  0  0
 29 32  1  0  0  0  0
 29 34  1  0  0  0  0
 30 31  2  0  0  0  0
 30 38  1  0  0  0  0
 32 35  1  0  0  0  0
 32 36  1  0  0  0  0
 32 37  1  0  0  0  0
 38 39  1  0  0  0  0
 38 40  1  0  0  0  0
 39 41  1  0  0  0  0
 39 42  1  0  0  0  0
 39 43  1  0  0  0  0
M  END
$$$$

  -OEChem-02062319123D

 43 42  0     1  0  0  0  0  0999 V2000
    1.2262   -2.9733    4.3886 C   0  0  0  0  0  0  0  0  0  0  0  0
    0.9475   -2.2510    5.3331 O   0  0  0  0  0  0  0  0  0  0  0  0
    1.6193   -4.4199    4.6246 C   0  0  0  0  0  0  0  0  0  0  0  0
    2.6213   -4.6044    4.2292 H   0  0  0  0  0  0  0  0  0  0  0  0
    1.6169   -4.6417    5.6955 H   0  0  0  0  0  0  0  0  0  0  0  0
    0.9107   -5.0854    4.1256 H   0  0  0  0  0  0  0  0  0  0  0  0
    1.1797   -2.4791    3.1023 N   0  0  0  0  0  0  0  0  0  0  0  0
    0.6858   -1.1433    2.7413 C   0  0  2  0  0  0  0  0  0  0  0  0
   -0.0767   -1.1686    1.3950 C   0  0  0  0  0  0  0  0  0  0  0  0
    0.1188   -2.0921    0.6177 O   0  0  0  0  0  0  0  0  0  0  0  0
    1.8980   -0.2083    2.6721 C   0  0  0  0  0  0  0  0  0  0  0  0
    1.2992   -3.1453    2.3403 H   0  0  0  0  0  0  0  0  0  0  0  0
   -0.0053   -0.7929    3.5117 H   0  0  0  0  0  0  0  0  0  0  0  0
    2.3897   -0.1573    3.6489 H   0  0  0  0  0  0  0  0  0  0  0  0
    1.6010    0.8040    2.3871 H   0  0  0  0  0  0  0  0  0  0  0  0
    2.6207   -0.5754    1.9367 H   0  0  0  0  0  0  0  0  0  0  0  0
   -1.2918   -0.5588    1.1702 N   0  0  0  0  0  0  0  0  0  0  0  0
   -1.4157    0.9050    1.0115 C   0  0  2  0  0  0  0  0  0  0  0  0
   -0.9570    1.7479    2.2078 C   0  0  0  0  0  0  0  0  0  0  0  0
   -0.3771    2.8059    2.0122 O   0  0  0  0  0  0  0  0  0  0  0  0
   -2.8720    1.2743    0.6896 C   0  0  0  0  0  0  0  0  0  0  0  0
   -3.7551    0.9957    1.7851 O   0  0  0  0  0  0  0  0  0  0  0  0
   -1.8192   -1.0922    0.4818 H   0  0  0  0  0  0  0  0  0  0  0  0
   -0.7988    1.2074    0.1587 H   0  0  0  0  0  0  0  0  0  0  0  0
   -3.1987    0.7053   -0.1868 H   0  0  0  0  0  0  0  0  0  0  0  0
   -2.9378    2.3377    0.4350 H   0  0  0  0  0  0  0  0  0  0  0  0
   -3.7981    1.7684    2.4052 H   0  0  0  0  0  0  0  0  0  0  0  0
   -1.3465    1.3671    3.4804 N   0  0  0  0  0  0  0  0  0  0  0  0
   -1.5344    2.3219    4.5843 C   0  0  2  0  0  0  0  0  0  0  0  0
   -2.5802    3.4030    4.2115 C   0  0  0  0  0  0  0  0  0  0  0  0
   -3.5645    3.0735    3.5518 O   0  0  0  0  0  0  0  0  0  0  0  0
   -0.1890    2.8879    5.0699 C   0  0  0  0  0  0  0  0  0  0  0  0
   -1.9831    0.5700    3.4688 H   0  0  0  0  0  0  0  0  0  0  0  0
   -1.9597    1.7674    5.4266 H   0  0  0  0  0  0  0  0  0  0  0  0
   -0.3215    3.4253    6.0136 H   0  0  0  0  0  0  0  0  0  0  0  0
    0.2441    3.5777    4.3398 H   0  0  0  0  0  0  0  0  0  0  0  0
    0.5211    2.0721    5.2382 H   0  0  0  0  0  0  0  0  0  0  0  0
   -2.4471    4.7197    4.6121 N   0  0  0  0  0  0  0  0  0  0  0  0
   -3.3568    5.7760    4.1850 C   0  0  0  0  0  0  0  0  0  0  0  0
   -1.5617    4.9823    5.0354 H   0  0  0  0  0  0  0  0  0  0  0  0
   -3.0573    6.7329    4.6238 H   0  0  0  0  0  0  0  0  0  0  0  0
   -3.3440    5.8755    3.0943 H   0  0  0  0  0  0  0  0  0  0  0  0
   -4.3798    5.5548    4.5073 H   0  0  0  0  0  0  0  0  0  0  0  0
  1  2  2  0  0  0  0
  1  3  1  0  0  0  0
  1  7  1  0  0  0  0
  3  4  1  0  0  0  0
  3  5  1  0  0  0  0
  3  6  1  0  0  0  0
  7  8  1  0  0  0  0
  7 12  1  0  0  0  0
  8  9  1  0  0  0  0
  8 11  1  0  0  0  0
  8 13  1  0  0  0  0
  9 10  2  0  0  0  0
  9 17  1  0  0  0  0
 11 14  1  0  0  0  0
 11 15  1  0  0  0  0
 11 16  1  0  0  0  0
 17 18  1  0  0  0  0
 17 23  1  0  0  0  0
 18 19  1  0  0  0  0
 18 21  1  0  0  0  0
 18 24  1  0  0  0  0
 19 20  2  0  0  0  0
 19 28  1  0  0  0  0
 21 22  1  0  0  0  0
 21 25  1  0  0  0  0
 21 26  1  0  0  0  0
 22 27  1  0  0  0  0
 28 29  1  0  0  0  0
 28 33  1  0  0  0  0
 29 30  1  0  0  0  0
 29 32  1  0  0  0  0
 29 34  1  0  0  0  0
 30 31  2  0  0  0  0
 30 38  1  0  0  0  0
 32 35  1  0  0  0  0
 32 36  1  0  0  0  0
 32 37  1  0  0  0  0
 38 39  1  0  0  0  0
 38 40  1  0  0  0  0
 39 41  1  0  0  0  0
 39 42  1  0  0  0  0
 39 43  1  0  0  0  0
M  END
$$$$

  -OEChem-02062319123D

 43 42  0     1  0  0  0  0  0999 V2000
   -0.1318   -1.8913    3.9141 C   0  0  0  0  0  0  0  0  0  0  0  0
   -1.0189   -1.1002    3.6324 O   0  0  0  0  0  0  0  0  0  0  0  0
   -0.4234   -3.0931    4.7920 C   0  0  0  0  0  0  0  0  0  0  0  0
   -0.3243   -4.0132    4.2110 H   0  0  0  0  0  0  0  0  0  0  0  0
    0.2761   -3.1230    5.6309 H   0  0  0  0  0  0  0  0  0  0  0  0
   -1.4416   -3.0336    5.1867 H   0  0  0  0  0  0  0  0  0  0  0  0
    1.1287   -1.7040    3.3868 N   0  0  0  0  0  0  0  0  0  0  0  0
    1.5238   -0.5448    2.5707 C   0  0  2  0  0  0  0  0  0  0  0  0
    0.9627   -0.6239    1.1248 C   0  0  0  0  0  0  0  0  0  0  0  0
    1.7083   -0.4099    0.1796 O   0  0  0  0  0  0  0  0  0  0  0  0
    3.0559   -0.4663    2.6178 C   0  0  0  0  0  0  0  0  0  0  0  0
    1.8350   -2.3999    3.6114 H   0  0  0  0  0  0  0  0  0  0  0  0
    1.1465    0.3682    3.0316 H   0  0  0  0  0  0  0  0  0  0  0  0
    3.5029   -1.3453    2.1421 H   0  0  0  0  0  0  0  0  0  0  0  0
    3.4061    0.4274    2.0907 H   0  0  0  0  0  0  0  0  0  0  0  0
    3.4052   -0.4102    3.6533 H   0  0  0  0  0  0  0  0  0  0  0  0
   -0.3809   -0.4382    0.8547 N   0  0  0  0  0  0  0  0  0  0  0  0
   -0.8856    0.9164    0.5536 C   0  0  2  0  0  0  0  0  0  0  0  0
   -0.7020    1.9884    1.6445 C   0  0  0  0  0  0  0  0  0  0  0  0
   -0.3626    3.1186    1.3206 O   0  0  0  0  0  0  0  0  0  0  0  0
   -2.3774    0.8036    0.2295 C   0  0  0  0  0  0  0  0  0  0  0  0
   -3.0774    0.1807    1.3157 O   0  0  0  0  0  0  0  0  0  0  0  0
   -0.9600   -0.8750    1.5767 H   0  0  0  0  0  0  0  0  0  0  0  0
   -0.3681    1.2835   -0.3398 H   0  0  0  0  0  0  0  0  0  0  0  0
   -2.5068    0.2044   -0.6780 H   0  0  0  0  0  0  0  0  0  0  0  0
   -2.7936    1.7982    0.0358 H   0  0  0  0  0  0  0  0  0  0  0  0
   -4.0300    0.1164    1.1233 H   0  0  0  0  0  0  0  0  0  0  0  0
   -0.9926    1.7065    2.9692 N   0  0  0  0  0  0  0  0  0  0  0  0
   -0.9178    2.6160    4.1302 C   0  0  2  0  0  0  0  0  0  0  0  0
   -1.9485    3.7683    4.1266 C   0  0  0  0  0  0  0  0  0  0  0  0
   -2.5572    4.0356    5.1551 O   0  0  0  0  0  0  0  0  0  0  0  0
    0.5033    3.1642    4.3222 C   0  0  0  0  0  0  0  0  0  0  0  0
   -1.3553    0.7621    3.1397 H   0  0  0  0  0  0  0  0  0  0  0  0
   -1.1486    2.0109    5.0131 H   0  0  0  0  0  0  0  0  0  0  0  0
    0.7804    3.8431    3.5106 H   0  0  0  0  0  0  0  0  0  0  0  0
    0.5649    3.7181    5.2641 H   0  0  0  0  0  0  0  0  0  0  0  0
    1.2276    2.3462    4.3565 H   0  0  0  0  0  0  0  0  0  0  0  0
   -2.1666    4.5337    2.9985 N   0  0  0  0  0  0  0  0  0  0  0  0
   -3.0506    5.6895    2.9564 C   0  0  0  0  0  0  0  0  0  0  0  0
   -1.5714    4.3241    2.1928 H   0  0  0  0  0  0  0  0  0  0  0  0
   -3.0613    6.1197    1.9505 H   0  0  0  0  0  0  0  0  0  0  0  0
   -4.0731    5.3988    3.2187 H   0  0  0  0  0  0  0  0  0  0  0  0
   -2.7104    6.4571    3.6591 H   0  0  0  0  0  0  0  0  0  0  0  0
  1  2  2  0  0  0  0
  1  3  1  0  0  0  0
  1  7  1  0  0  0  0
  3  4  1  0  0  0  0
  3  5  1  0  0  0  0
  3  6  1  0  0  0  0
  7  8  1  0  0  0  0
  7 12  1  0  0  0  0
  8  9  1  0  0  0  0
  8 11  1  0  0  0  0
  8 13  1  0  0  0  0
  9 10  2  0  0  0  0
  9 17  1  0  0  0  0
 11 14  1  0  0  0  0
 11 15  1  0  0  0  0
 11 16  1  0  0  0  0
 17 18  1  0  0  0  0
 17 23  1  0  0  0  0
 18 19  1  0  0  0  0
 18 21  1  0  0  0  0
 18 24  1  0  0  0  0
 19 20  2  0  0  0  0
 19 28  1  0  0  0  0
 21 22  1  0  0  0  0
 21 25  1  0  0  0  0
 21 26  1  0  0  0  0
 22 27  1  0  0  0  0
 28 29  1  0  0  0  0
 28 33  1  0  0  0  0
 29 30  1  0  0  0  0
 29 32  1  0  0  0  0
 29 34  1  0  0  0  0
 30 31  2  0  0  0  0
 30 38  1  0  0  0  0
 32 35  1  0  0  0  0
 32 36  1  0  0  0  0
 32 37  1  0  0  0  0
 38 39  1  0  0  0  0
 38 40  1  0  0  0  0
 39 41  1  0  0  0  0
 39 42  1  0  0  0  0
 39 43  1  0  0  0  0
M  END
$$$$

  -OEChem-02062319123D

 43 42  0     1  0  0  0  0  0999 V2000
   -0.2518   -1.4904    4.0390 C   0  0  0  0  0  0  0  0  0  0  0  0
   -0.9740   -0.5903    3.6392 O   0  0  0  0  0  0  0  0  0  0  0  0
   -0.7693   -2.5079    5.0372 C   0  0  0  0  0  0  0  0  0  0  0  0
   -0.7491   -3.5079    4.5968 H   0  0  0  0  0  0  0  0  0  0  0  0
   -0.1476   -2.5000    5.9360 H   0  0  0  0  0  0  0  0  0  0  0  0
   -1.7986   -2.2687    5.3199 H   0  0  0  0  0  0  0  0  0  0  0  0
    1.0241   -1.6005    3.5272 N   0  0  0  0  0  0  0  0  0  0  0  0
    1.6403   -0.6145    2.6241 C   0  0  2  0  0  0  0  0  0  0  0  0
    1.1725   -0.7659    1.1527 C   0  0  0  0  0  0  0  0  0  0  0  0
    1.9720   -0.6158    0.2396 O   0  0  0  0  0  0  0  0  0  0  0  0
    3.1605   -0.7495    2.7814 C   0  0  0  0  0  0  0  0  0  0  0  0
    1.5970   -2.3680    3.8679 H   0  0  0  0  0  0  0  0  0  0  0  0
    1.3694    0.3933    2.9498 H   0  0  0  0  0  0  0  0  0  0  0  0
    3.6737    0.0189    2.1936 H   0  0  0  0  0  0  0  0  0  0  0  0
    3.4491   -0.6259    3.8296 H   0  0  0  0  0  0  0  0  0  0  0  0
    3.4985   -1.7315    2.4353 H   0  0  0  0  0  0  0  0  0  0  0  0
   -0.1633   -0.6241    0.8259 N   0  0  0  0  0  0  0  0  0  0  0  0
   -0.6095    0.6080    0.1478 C   0  0  2  0  0  0  0  0  0  0  0  0
   -0.3594    1.9047    0.9396 C   0  0  0  0  0  0  0  0  0  0  0  0
    0.0212    2.9074    0.3492 O   0  0  0  0  0  0  0  0  0  0  0  0
   -2.1051    0.4893   -0.1545 C   0  0  0  0  0  0  0  0  0  0  0  0
   -2.8352    0.1927    1.0442 O   0  0  0  0  0  0  0  0  0  0  0  0
   -0.7722   -0.8526    1.6156 H   0  0  0  0  0  0  0  0  0  0  0  0
   -0.0727    0.7039   -0.8023 H   0  0  0  0  0  0  0  0  0  0  0  0
   -2.2657   -0.3105   -0.8851 H   0  0  0  0  0  0  0  0  0  0  0  0
   -2.4702    1.4233   -0.5954 H   0  0  0  0  0  0  0  0  0  0  0  0
   -3.7923    0.1533    0.8672 H   0  0  0  0  0  0  0  0  0  0  0  0
   -0.6612    1.9656    2.2905 N   0  0  0  0  0  0  0  0  0  0  0  0
   -0.5131    3.1160    3.2034 C   0  0  2  0  0  0  0  0  0  0  0  0
   -1.4687    4.2997    2.9286 C   0  0  0  0  0  0  0  0  0  0  0  0
   -2.0374    4.8457    3.8657 O   0  0  0  0  0  0  0  0  0  0  0  0
    0.9431    3.5987    3.2551 C   0  0  0  0  0  0  0  0  0  0  0  0
   -1.0799    1.1135    2.6791 H   0  0  0  0  0  0  0  0  0  0  0  0
   -0.7656    2.7521    4.2047 H   0  0  0  0  0  0  0  0  0  0  0  0
    1.2422    4.0577    2.3083 H   0  0  0  0  0  0  0  0  0  0  0  0
    1.0610    4.3450    4.0470 H   0  0  0  0  0  0  0  0  0  0  0  0
    1.6164    2.7631    3.4657 H   0  0  0  0  0  0  0  0  0  0  0  0
   -1.6600    4.7881    1.6514 N   0  0  0  0  0  0  0  0  0  0  0  0
   -2.4592    5.9646    1.3395 C   0  0  0  0  0  0  0  0  0  0  0  0
   -1.0902    4.3570    0.9187 H   0  0  0  0  0  0  0  0  0  0  0  0
   -2.0294    6.8543    1.8107 H   0  0  0  0  0  0  0  0  0  0  0  0
   -2.4895    6.1251    0.2575 H   0  0  0  0  0  0  0  0  0  0  0  0
   -3.4857    5.8357    1.6980 H   0  0  0  0  0  0  0  0  0  0  0  0
  1  2  2  0  0  0  0
  1  3  1  0  0  0  0
  1  7  1  0  0  0  0
  3  4  1  0  0  0  0
  3  5  1  0  0  0  0
  3  6  1  0  0  0  0
  7  8  1  0  0  0  0
  7 12  1  0  0  0  0
  8  9  1  0  0  0  0
  8 11  1  0  0  0  0
  8 13  1  0  0  0  0
  9 10  2  0  0  0  0
  9 17  1  0  0  0  0
 11 14  1  0  0  0  0
 11 15  1  0  0  0  0
 11 16  1  0  0  0  0
 17 18  1  0  0  0  0
 17 23  1  0  0  0  0
 18 19  1  0  0  0  0
 18 21  1  0  0  0  0
 18 24  1  0  0  0  0
 19 20  2  0  0  0  0
 19 28  1  0  0  0  0
 21 22  1  0  0  0  0
 21 25  1  0  0  0  0
 21 26  1  0  0  0  0
 22 27  1  0  0  0  0
 28 29  1  0  0  0  0
 28 33  1  0  0  0  0
 29 30  1  0  0  0  0
 29 32  1  0  0  0  0
 29 34  1  0  0  0  0
 30 31  2  0  0  0  0
 30 38  1  0  0  0  0
 32 35  1  0  0  0  0
 32 36  1  0  0  0  0
 32 37  1  0  0  0  0
 38 39  1  0  0  0  0
 38 40  1  0  0  0  0
 39 41  1  0  0  0  0
 39 42  1  0  0  0  0
 39 43  1  0  0  0  0
M  END
$$$$

  -OEChem-02062319123D

 43 42  0     1  0  0  0  0  0999 V2000
    1.0541   -2.9021    4.5948 C   0  0  0  0  0  0  0  0  0  0  0  0
    0.0960   -2.9571    5.3497 O   0  0  0  0  0  0  0  0  0  0  0  0
    2.2563   -3.7990    4.8214 C   0  0  0  0  0  0  0  0  0  0  0  0
    3.1492   -3.1908    4.9850 H   0  0  0  0  0  0  0  0  0  0  0  0
    2.0949   -4.4317    5.6986 H   0  0  0  0  0  0  0  0  0  0  0  0
    2.4144   -4.4390    3.9499 H   0  0  0  0  0  0  0  0  0  0  0  0
    1.0431   -2.0276    3.5289 N   0  0  0  0  0  0  0  0  0  0  0  0
   -0.1280   -1.2449    3.1100 C   0  0  2  0  0  0  0  0  0  0  0  0
   -0.2597   -1.2253    1.5659 C   0  0  0  0  0  0  0  0  0  0  0  0
    0.7314   -1.4972    0.8986 O   0  0  0  0  0  0  0  0  0  0  0  0
    0.0018    0.1402    3.7401 C   0  0  0  0  0  0  0  0  0  0  0  0
    1.7977   -2.1160    2.8482 H   0  0  0  0  0  0  0  0  0  0  0  0
   -1.0405   -1.7154    3.4922 H   0  0  0  0  0  0  0  0  0  0  0  0
    0.8539    0.6753    3.3112 H   0  0  0  0  0  0  0  0  0  0  0  0
   -0.9108    0.7186    3.5792 H   0  0  0  0  0  0  0  0  0  0  0  0
    0.1566    0.0511    4.8204 H   0  0  0  0  0  0  0  0  0  0  0  0
   -1.2680   -0.5425    0.9070 N   0  0  0  0  0  0  0  0  0  0  0  0
   -0.9777    0.5304   -0.0694 C   0  0  2  0  0  0  0  0  0  0  0  0
   -0.1993    1.7725    0.4030 C   0  0  0  0  0  0  0  0  0  0  0  0
    0.6364    2.2694   -0.3404 O   0  0  0  0  0  0  0  0  0  0  0  0
   -2.3363    1.0206   -0.5792 C   0  0  0  0  0  0  0  0  0  0  0  0
   -3.1671    1.3975    0.5339 O   0  0  0  0  0  0  0  0  0  0  0  0
   -2.0919   -0.3594    1.4763 H   0  0  0  0  0  0  0  0  0  0  0  0
   -0.4152    0.1016   -0.9065 H   0  0  0  0  0  0  0  0  0  0  0  0
   -2.8246    0.2200   -1.1450 H   0  0  0  0  0  0  0  0  0  0  0  0
   -2.2010    1.8716   -1.2564 H   0  0  0  0  0  0  0  0  0  0  0  0
   -4.0212    1.7491    0.2174 H   0  0  0  0  0  0  0  0  0  0  0  0
   -0.5271    2.3962    1.5947 N   0  0  0  0  0  0  0  0  0  0  0  0
   -0.0234    3.6994    2.0747 C   0  0  2  0  0  0  0  0  0  0  0  0
   -0.4606    4.8987    1.2022 C   0  0  0  0  0  0  0  0  0  0  0  0
   -1.2106    5.7437    1.6726 O   0  0  0  0  0  0  0  0  0  0  0  0
    1.5002    3.6843    2.2734 C   0  0  0  0  0  0  0  0  0  0  0  0
   -1.4103    2.0766    1.9873 H   0  0  0  0  0  0  0  0  0  0  0  0
   -0.4645    3.8661    3.0630 H   0  0  0  0  0  0  0  0  0  0  0  0
    2.0298    3.5998    1.3204 H   0  0  0  0  0  0  0  0  0  0  0  0
    1.8226    4.6109    2.7583 H   0  0  0  0  0  0  0  0  0  0  0  0
    1.7939    2.8440    2.9082 H   0  0  0  0  0  0  0  0  0  0  0  0
   -0.0550    5.0105   -0.1130 N   0  0  0  0  0  0  0  0  0  0  0  0
   -0.5063    6.0581   -1.0182 C   0  0  0  0  0  0  0  0  0  0  0  0
    0.4551    4.2071   -0.4909 H   0  0  0  0  0  0  0  0  0  0  0  0
    0.0126    5.9753   -1.9781 H   0  0  0  0  0  0  0  0  0  0  0  0
   -1.5833    5.9735   -1.1954 H   0  0  0  0  0  0  0  0  0  0  0  0
   -0.2939    7.0462   -0.5966 H   0  0  0  0  0  0  0  0  0  0  0  0
  1  2  2  0  0  0  0
  1  3  1  0  0  0  0
  1  7  1  0  0  0  0
  3  4  1  0  0  0  0
  3  5  1  0  0  0  0
  3  6  1  0  0  0  0
  7  8  1  0  0  0  0
  7 12  1  0  0  0  0
  8  9  1  0  0  0  0
  8 11  1  0  0  0  0
  8 13  1  0  0  0  0
  9 10  2  0  0  0  0
  9 17  1  0  0  0  0
 11 14  1  0  0  0  0
 11 15  1  0  0  0  0
 11 16  1  0  0  0  0
 17 18  1  0  0  0  0
 17 23  1  0  0  0  0
 18 19  1  0  0  0  0
 18 21  1  0  0  0  0
 18 24  1  0  0  0  0
 19 20  2  0  0  0  0
 19 28  1  0  0  0  0
 21 22  1  0  0  0  0
 21 25  1  0  0  0  0
 21 26  1  0  0  0  0
 22 27  1  0  0  0  0
 28 29  1  0  0  0  0
 28 33  1  0  0  0  0
 29 30  1  0  0  0  0
 29 32  1  0  0  0  0
 29 34  1  0  0  0  0
 30 31  2  0  0  0  0
 30 38  1  0  0  0  0
 32 35  1  0  0  0  0
 32 36  1  0  0  0  0
 32 37  1  0  0  0  0
 38 39  1  0  0  0  0
 38 40  1  0  0  0  0
 39 41  1  0  0  0  0
 39 42  1  0  0  0  0
 39 43  1  0  0  0  0
M  END
$$$$

  -OEChem-02062319123D

 43 42  0     1  0  0  0  0  0999 V2000
    1.0069   -2.5855    4.7399 C   0  0  0  0  0  0  0  0  0  0  0  0
    0.0338   -2.5400    5.4760 O   0  0  0  0  0  0  0  0  0  0  0  0
    2.1806   -3.4836    5.0815 C   0  0  0  0  0  0  0  0  0  0  0  0
    3.0883   -2.8853    5.1906 H   0  0  0  0  0  0  0  0  0  0  0  0
    1.9909   -4.0113    6.0203 H   0  0  0  0  0  0  0  0  0  0  0  0
    2.3309   -4.2197    4.2881 H   0  0  0  0  0  0  0  0  0  0  0  0
    1.0349   -1.8298    3.5870 N   0  0  0  0  0  0  0  0  0  0  0  0
   -0.1138   -1.0796    3.0624 C   0  0  2  0  0  0  0  0  0  0  0  0
   -0.2041   -1.1963    1.5237 C   0  0  0  0  0  0  0  0  0  0  0  0
    0.7830   -1.5468    0.8886 O   0  0  0  0  0  0  0  0  0  0  0  0
    0.0253    0.3736    3.5235 C   0  0  0  0  0  0  0  0  0  0  0  0
    1.8013   -2.0035    2.9368 H   0  0  0  0  0  0  0  0  0  0  0  0
   -1.0440   -1.4928    3.4671 H   0  0  0  0  0  0  0  0  0  0  0  0
    0.9200    0.8292    3.0882 H   0  0  0  0  0  0  0  0  0  0  0  0
   -0.8501    0.9573    3.2268 H   0  0  0  0  0  0  0  0  0  0  0  0
    0.1089    0.4168    4.6142 H   0  0  0  0  0  0  0  0  0  0  0  0
   -1.2493   -0.6179    0.8275 N   0  0  0  0  0  0  0  0  0  0  0  0
   -1.0300    0.1489   -0.4146 C   0  0  2  0  0  0  0  0  0  0  0  0
   -0.1205    1.3832   -0.2795 C   0  0  0  0  0  0  0  0  0  0  0  0
    0.6588    1.6593   -1.1821 O   0  0  0  0  0  0  0  0  0  0  0  0
   -2.4027    0.6250   -0.8970 C   0  0  0  0  0  0  0  0  0  0  0  0
   -3.0968    1.2884    0.1752 O   0  0  0  0  0  0  0  0  0  0  0  0
   -2.0301   -0.2963    1.3962 H   0  0  0  0  0  0  0  0  0  0  0  0
   -0.5867   -0.5045   -1.1741 H   0  0  0  0  0  0  0  0  0  0  0  0
   -2.9894   -0.2365   -1.2330 H   0  0  0  0  0  0  0  0  0  0  0  0
   -2.2872    1.3029   -1.7500 H   0  0  0  0  0  0  0  0  0  0  0  0
   -3.9573    1.6290   -0.1357 H   0  0  0  0  0  0  0  0  0  0  0  0
   -0.2932    2.2513    0.7859 N   0  0  0  0  0  0  0  0  0  0  0  0
    0.3960    3.5385    1.0051 C   0  0  2  0  0  0  0  0  0  0  0  0
    0.0122    4.6404   -0.0083 C   0  0  0  0  0  0  0  0  0  0  0  0
   -0.4916    5.6801    0.3956 O   0  0  0  0  0  0  0  0  0  0  0  0
    1.9194    3.3554    1.0742 C   0  0  0  0  0  0  0  0  0  0  0  0
   -1.1483    2.0880    1.3129 H   0  0  0  0  0  0  0  0  0  0  0  0
    0.0800    3.9042    1.9876 H   0  0  0  0  0  0  0  0  0  0  0  0
    2.3366    3.1013    0.0956 H   0  0  0  0  0  0  0  0  0  0  0  0
    2.3920    4.2823    1.4138 H   0  0  0  0  0  0  0  0  0  0  0  0
    2.1762    2.5584    1.7779 H   0  0  0  0  0  0  0  0  0  0  0  0
    0.1937    4.4587   -1.3648 N   0  0  0  0  0  0  0  0  0  0  0  0
   -0.1986    5.4289   -2.3769 C   0  0  0  0  0  0  0  0  0  0  0  0
    0.5468    3.5418   -1.6532 H   0  0  0  0  0  0  0  0  0  0  0  0
    0.0800    5.0694   -3.3718 H   0  0  0  0  0  0  0  0  0  0  0  0
   -1.2815    5.5876   -2.3552 H   0  0  0  0  0  0  0  0  0  0  0  0
    0.3023    6.3870   -2.2036 H   0  0  0  0  0  0  0  0  0  0  0  0
  1  2  2  0  0  0  0
  1  3  1  0  0  0  0
  1  7  1  0  0  0  0
  3  4  1  0  0  0  0
  3  5  1  0  0  0  0
  3  6  1  0  0  0  0
  7  8  1  0  0  0  0
  7 12  1  0  0  0  0
  8  9  1  0  0  0  0
  8 11  1  0  0  0  0
  8 13  1  0  0  0  0
  9 10  2  0  0  0  0
  9 17  1  0  0  0  0
 11 14  1  0  0  0  0
 11 15  1  0  0  0  0
 11 16  1  0  0  0  0
 17 18  1  0  0  0  0
 17 23  1  0  0  0  0
 18 19  1  0  0  0  0
 18 21  1  0  0  0  0
 18 24  1  0  0  0  0
 19 20  2  0  0  0  0
 19 28  1  0  0  0  0
 21 22  1  0  0  0  0
 21 25  1  0  0  0  0
 21 26  1  0  0  0  0
 22 27  1  0  0  0  0
 28 29  1  0  0  0  0
 28 33  1  0  0  0  0
 29 30  1  0  0  0  0
 29 32  1  0  0  0  0
 29 34  1  0  0  0  0
 30 31  2  0  0  0  0
 30 38  1  0  0  0  0
 32 35  1  0  0  0  0
 32 36  1  0  0  0  0
 32 37  1  0  0  0  0
 38 39  1  0  0  0  0
 38 40  1  0  0  0  0
 39 41  1  0  0  0  0
 39 42  1  0  0  0  0
 39 43  1  0  0  0  0
M  END
$$$$

  -OEChem-02062319123D

 43 42  0     1  0  0  0  0  0999 V2000
    1.0195   -2.3682    4.8217 C   0  0  0  0  0  0  0  0  0  0  0  0
    0.0754   -2.1956    5.5765 O   0  0  0  0  0  0  0  0  0  0  0  0
    2.1746   -3.2608    5.2340 C   0  0  0  0  0  0  0  0  0  0  0  0
    3.1025   -2.6843    5.2548 H   0  0  0  0  0  0  0  0  0  0  0  0
    1.9950   -3.6752    6.2299 H   0  0  0  0  0  0  0  0  0  0  0  0
    2.2814   -4.0843    4.5237 H   0  0  0  0  0  0  0  0  0  0  0  0
    1.0324   -1.7579    3.5855 N   0  0  0  0  0  0  0  0  0  0  0  0
   -0.0941   -1.0034    3.0216 C   0  0  2  0  0  0  0  0  0  0  0  0
   -0.1872   -1.1837    1.4922 C   0  0  0  0  0  0  0  0  0  0  0  0
    0.7697   -1.6232    0.8664 O   0  0  0  0  0  0  0  0  0  0  0  0
    0.0903    0.4737    3.3849 C   0  0  0  0  0  0  0  0  0  0  0  0
    1.7757   -2.0241    2.9401 H   0  0  0  0  0  0  0  0  0  0  0  0
   -1.0352   -1.3662    3.4489 H   0  0  0  0  0  0  0  0  0  0  0  0
    1.0103    0.8653    2.9386 H   0  0  0  0  0  0  0  0  0  0  0  0
   -0.7537    1.0687    3.0246 H   0  0  0  0  0  0  0  0  0  0  0  0
    0.1525    0.5903    4.4717 H   0  0  0  0  0  0  0  0  0  0  0  0
   -1.2655   -0.6782    0.7910 N   0  0  0  0  0  0  0  0  0  0  0  0
   -1.1631   -0.2329   -0.6106 C   0  0  2  0  0  0  0  0  0  0  0  0
   -0.1575    0.9101   -0.8359 C   0  0  0  0  0  0  0  0  0  0  0  0
    0.5276    0.9233   -1.8503 O   0  0  0  0  0  0  0  0  0  0  0  0
   -2.5498    0.2469   -1.0486 C   0  0  0  0  0  0  0  0  0  0  0  0
   -3.0818    1.1683   -0.0796 O   0  0  0  0  0  0  0  0  0  0  0  0
   -2.0031   -0.2448    1.3432 H   0  0  0  0  0  0  0  0  0  0  0  0
   -0.8539   -1.0732   -1.2416 H   0  0  0  0  0  0  0  0  0  0  0  0
   -3.2214   -0.6135   -1.1382 H   0  0  0  0  0  0  0  0  0  0  0  0
   -2.4876    0.7253   -2.0326 H   0  0  0  0  0  0  0  0  0  0  0  0
   -3.9422    1.5185   -0.3794 H   0  0  0  0  0  0  0  0  0  0  0  0
   -0.1470    1.9882    0.0347 N   0  0  0  0  0  0  0  0  0  0  0  0
    0.6728    3.2115   -0.0669 C   0  0  2  0  0  0  0  0  0  0  0  0
    0.3043    4.1288   -1.2551 C   0  0  0  0  0  0  0  0  0  0  0  0
   -0.0363    5.2847   -1.0402 O   0  0  0  0  0  0  0  0  0  0  0  0
    2.1710    2.8755   -0.0691 C   0  0  0  0  0  0  0  0  0  0  0  0
   -0.9258    2.0001    0.6892 H   0  0  0  0  0  0  0  0  0  0  0  0
    0.4836    3.7962    0.8392 H   0  0  0  0  0  0  0  0  0  0  0  0
    2.4668    2.3786   -0.9976 H   0  0  0  0  0  0  0  0  0  0  0  0
    2.7601    3.7927    0.0278 H   0  0  0  0  0  0  0  0  0  0  0  0
    2.4145    2.2171    0.7704 H   0  0  0  0  0  0  0  0  0  0  0  0
    0.3251    3.6615   -2.5538 N   0  0  0  0  0  0  0  0  0  0  0  0
   -0.0639    4.4507   -3.7140 C   0  0  0  0  0  0  0  0  0  0  0  0
    0.5482    2.6688   -2.6701 H   0  0  0  0  0  0  0  0  0  0  0  0
    0.0735    3.8670   -4.6293 H   0  0  0  0  0  0  0  0  0  0  0  0
   -1.1168    4.7422   -3.6428 H   0  0  0  0  0  0  0  0  0  0  0  0
    0.5490    5.3553   -3.7866 H   0  0  0  0  0  0  0  0  0  0  0  0
  1  2  2  0  0  0  0
  1  3  1  0  0  0  0
  1  7  1  0  0  0  0
  3  4  1  0  0  0  0
  3  5  1  0  0  0  0
  3  6  1  0  0  0  0
  7  8  1  0  0  0  0
  7 12  1  0  0  0  0
  8  9  1  0  0  0  0
  8 11  1  0  0  0  0
  8 13  1  0  0  0  0
  9 10  2  0  0  0  0
  9 17  1  0  0  0  0
 11 14  1  0  0  0  0
 11 15  1  0  0  0  0
 11 16  1  0  0  0  0
 17 18  1  0  0  0  0
 17 23  1  0  0  0  0
 18 19  1  0  0  0  0
 18 21  1  0  0  0  0
 18 24  1  0  0  0  0
 19 20  2  0  0  0  0
 19 28  1  0  0  0  0
 21 22  1  0  0  0  0
 21 25  1  0  0  0  0
 21 26  1  0  0  0  0
 22 27  1  0  0  0  0
 28 29  1  0  0  0  0
 28 33  1  0  0  0  0
 29 30  1  0  0  0  0
 29 32  1  0  0  0  0
 29 34  1  0  0  0  0
 30 31  2  0  0  0  0
 30 38  1  0  0  0  0
 32 35  1  0  0  0  0
 32 36  1  0  0  0  0
 32 37  1  0  0  0  0
 38 39  1  0  0  0  0
 38 40  1  0  0  0  0
 39 41  1  0  0  0  0
 39 42  1  0  0  0  0
 39 43  1  0  0  0  0
M  END
$$$$

  -OEChem-02062319123D

 43 42  0     1  0  0  0  0  0999 V2000
    0.8393   -2.2642    5.1041 C   0  0  0  0  0  0  0  0  0  0  0  0
   -0.0562   -1.9047    5.8518 O   0  0  0  0  0  0  0  0  0  0  0  0
    1.9174   -3.2081    5.6025 C   0  0  0  0  0  0  0  0  0  0  0  0
    2.8917   -2.7149    5.5624 H   0  0  0  0  0  0  0  0  0  0  0  0
    1.7127   -3.5017    6.6358 H   0  0  0  0  0  0  0  0  0  0  0  0
    1.9456   -4.1062    4.9805 H   0  0  0  0  0  0  0  0  0  0  0  0
    0.8712   -1.8130    3.8019 N   0  0  0  0  0  0  0  0  0  0  0  0
   -0.1932   -1.0206    3.1723 C   0  0  2  0  0  0  0  0  0  0  0  0
   -0.2590   -1.2745    1.6512 C   0  0  0  0  0  0  0  0  0  0  0  0
    0.6086   -1.9401    1.0988 O   0  0  0  0  0  0  0  0  0  0  0  0
    0.0665    0.4621    3.4646 C   0  0  0  0  0  0  0  0  0  0  0  0
    1.5559   -2.2381    3.1767 H   0  0  0  0  0  0  0  0  0  0  0  0
   -1.1631   -1.3075    3.5933 H   0  0  0  0  0  0  0  0  0  0  0  0
    1.0193    0.7773    3.0275 H   0  0  0  0  0  0  0  0  0  0  0  0
   -0.7324    1.0838    3.0498 H   0  0  0  0  0  0  0  0  0  0  0  0
    0.1058    0.6342    4.5451 H   0  0  0  0  0  0  0  0  0  0  0  0
   -1.2293   -0.6704    0.8748 N   0  0  0  0  0  0  0  0  0  0  0  0
   -1.1812   -0.5987   -0.5965 C   0  0  2  0  0  0  0  0  0  0  0  0
    0.0477    0.1396   -1.1534 C   0  0  0  0  0  0  0  0  0  0  0  0
    0.4456   -0.1365   -2.2776 O   0  0  0  0  0  0  0  0  0  0  0  0
   -2.4560    0.0969   -1.0884 C   0  0  0  0  0  0  0  0  0  0  0  0
   -2.5931    1.3961   -0.4915 O   0  0  0  0  0  0  0  0  0  0  0  0
   -1.9030   -0.0675    1.3444 H   0  0  0  0  0  0  0  0  0  0  0  0
   -1.1562   -1.6154   -1.0025 H   0  0  0  0  0  0  0  0  0  0  0  0
   -3.3225   -0.5150   -0.8176 H   0  0  0  0  0  0  0  0  0  0  0  0
   -2.4430    0.1874   -2.1801 H   0  0  0  0  0  0  0  0  0  0  0  0
   -2.1959    2.0867   -1.0837 H   0  0  0  0  0  0  0  0  0  0  0  0
    0.4177    1.3382   -0.5620 N   0  0  0  0  0  0  0  0  0  0  0  0
    0.9682    2.4775   -1.3138 C   0  0  2  0  0  0  0  0  0  0  0  0
   -0.0279    2.9456   -2.4023 C   0  0  0  0  0  0  0  0  0  0  0  0
   -1.2050    3.1087   -2.0860 O   0  0  0  0  0  0  0  0  0  0  0  0
    2.3849    2.1804   -1.8352 C   0  0  0  0  0  0  0  0  0  0  0  0
   -0.1639    1.5719    0.2381 H   0  0  0  0  0  0  0  0  0  0  0  0
    1.0665    3.3144   -0.6158 H   0  0  0  0  0  0  0  0  0  0  0  0
    2.3722    1.4369   -2.6371 H   0  0  0  0  0  0  0  0  0  0  0  0
    2.8452    3.0949   -2.2214 H   0  0  0  0  0  0  0  0  0  0  0  0
    3.0098    1.7974   -1.0226 H   0  0  0  0  0  0  0  0  0  0  0  0
    0.3588    3.1535   -3.7130 N   0  0  0  0  0  0  0  0  0  0  0  0
   -0.5921    3.4372   -4.7805 C   0  0  0  0  0  0  0  0  0  0  0  0
    1.2786    2.8042   -3.9682 H   0  0  0  0  0  0  0  0  0  0  0  0
   -0.0620    3.6052   -5.7229 H   0  0  0  0  0  0  0  0  0  0  0  0
   -1.2801    2.5957   -4.9136 H   0  0  0  0  0  0  0  0  0  0  0  0
   -1.1732    4.3360   -4.5488 H   0  0  0  0  0  0  0  0  0  0  0  0
  1  2  2  0  0  0  0
  1  3  1  0  0  0  0
  1  7  1  0  0  0  0
  3  4  1  0  0  0  0
  3  5  1  0  0  0  0
  3  6  1  0  0  0  0
  7  8  1  0  0  0  0
  7 12  1  0  0  0  0
  8  9  1  0  0  0  0
  8 11  1  0  0  0  0
  8 13  1  0  0  0  0
  9 10  2  0  0  0  0
  9 17  1  0  0  0  0
 11 14  1  0  0  0  0
 11 15  1  0  0  0  0
 11 16  1  0  0  0  0
 17 18  1  0  0  0  0
 17 23  1  0  0  0  0
 18 19  1  0  0  0  0
 18 21  1  0  0  0  0
 18 24  1  0  0  0  0
 19 20  2  0  0  0  0
 19 28  1  0  0  0  0
 21 22  1  0  0  0  0
 21 25  1  0  0  0  0
 21 26  1  0  0  0  0
 22 27  1  0  0  0  0
 28 29  1  0  0  0  0
 28 33  1  0  0  0  0
 29 30  1  0  0  0  0
 29 32  1  0  0  0  0
 29 34  1  0  0  0  0
 30 31  2  0  0  0  0
 30 38  1  0  0  0  0
 32 35  1  0  0  0  0
 32 36  1  0  0  0  0
 32 37  1  0  0  0  0
 38 39  1  0  0  0  0
 38 40  1  0  0  0  0
 39 41  1  0  0  0  0
 39 42  1  0  0  0  0
 39 43  1  0  0  0  0
M  END
$$$$
