@<TRIPOS>MOLECULE
default_name
   31    30     1     0     0
SMALL
No Charge or Current Charge


@<TRIPOS>ATOM
      1 H1          25.8810    25.2890    24.6070 H          1 ACE       0.112300
      2 CH3         25.9560    26.2540    24.1070 C.3        1 ACE      -0.366200
      3 H2          25.2420    26.9490    24.5440 H          1 ACE       0.112300
      4 H3          25.7550    26.1320    23.0450 H          1 ACE       0.112300
      5 C           27.3550    26.7940    24.2910 C.2        1 ACE       0.597200
      6 O           28.1830    26.1520    24.9240 O.2        1 ACE      -0.567900
      7 N           27.6130    27.9780    23.7390 N.am       2 LEU      -0.415700
      8 H           26.8700    28.4570    23.2510 H          2 LEU       0.271900
      9 CA          28.9030    28.6700    23.8090 C.3        2 LEU      -0.051800
     10 HA          29.3750    28.4170    24.7590 H          2 LEU       0.092200
     11 CB          29.7950    28.1640    22.6560 C.3        2 LEU      -0.110200
     12 HB2         29.8930    27.0800    22.7410 H          2 LEU       0.045700
     13 HB3         29.2830    28.3770    21.7150 H          2 LEU       0.045700
     14 CG          31.2060    28.7760    22.5830 C.3        2 LEU       0.353100
     15 HG          31.1330    29.8600    22.4950 H          2 LEU      -0.036100
     16 CD1         32.0510    28.4320    23.8130 C.3        2 LEU      -0.412100
     17 HD11        32.1200    27.3490    23.9240 H          2 LEU       0.100000
     18 HD12        33.0540    28.8430    23.6960 H          2 LEU       0.100000
     19 HD13        31.6090    28.8540    24.7130 H          2 LEU       0.100000
     20 CD2         31.9340    28.2490    21.3470 C.3        2 LEU      -0.412100
     21 HD21        31.3700    28.5080    20.4510 H          2 LEU       0.100000
     22 HD22        32.9230    28.7020    21.2780 H          2 LEU       0.100000
     23 HD23        32.0380    27.1650    21.4060 H          2 LEU       0.100000
     24 C           28.6920    30.1930    23.7650 C.2        2 LEU       0.597300
     25 O           27.7950    30.6720    23.0750 O.2        2 LEU      -0.567900
     26 N           29.5240    30.9500    24.4920 N.am       3 NME      -0.415700
     27 H           30.2310    30.4830    25.0370 H          3 NME       0.271900
     28 CH3         29.4650    32.4090    24.5430 C.3        3 NME      -0.149000
     29 HH31        28.4840    32.7260    24.9040 H          3 NME       0.097600
     30 HH32        30.2360    32.7960    25.2110 H          3 NME       0.097600
     31 HH33        29.6150    32.8190    23.5430 H          3 NME       0.097600
@<TRIPOS>BOND
     1     5     6 2   
     2     5     7 am  
     3     2     3 1   
     4     2     4 1   
     5     2     5 1   
     6     1     2 1   
     7    24    25 2   
     8    24    26 am  
     9    20    21 1   
    10    20    22 1   
    11    20    23 1   
    12    16    17 1   
    13    16    18 1   
    14    16    19 1   
    15    14    15 1   
    16    14    16 1   
    17    14    20 1   
    18    11    12 1   
    19    11    13 1   
    20    11    14 1   
    21     9    10 1   
    22     9    11 1   
    23     9    24 1   
    24     7     8 1   
    25     7     9 1   
    26    28    29 1   
    27    28    30 1   
    28    28    31 1   
    29    26    27 1   
    30    26    28 1   
@<TRIPOS>SUBSTRUCTURE
     1 ACE         1 TEMP              0 ****  ****    0 ROOT
