
  -OEChem-05262215353D

 42 41  0     1  0  0  0  0  0999 V2000
   -5.5831   -1.1155    2.0261 C   0  0  0  0  0  0  0  0  0  0  0  0
   -6.0655   -0.1333    1.4847 O   0  0  0  0  0  0  0  0  0  0  0  0
   -6.4518   -2.3225    2.3283 C   0  0  0  0  0  0  0  0  0  0  0  0
   -6.4853   -2.4979    3.4063 H   0  0  0  0  0  0  0  0  0  0  0  0
   -7.4700   -2.1552    1.9661 H   0  0  0  0  0  0  0  0  0  0  0  0
   -6.0444   -3.2082    1.8346 H   0  0  0  0  0  0  0  0  0  0  0  0
   -4.2434   -1.1407    2.3498 N   0  0  0  0  0  0  0  0  0  0  0  0
   -3.2689   -0.1243    1.9311 C   0  0  2  0  0  0  0  0  0  0  0  0
   -1.8884   -0.7536    1.6454 C   0  0  0  0  0  0  0  0  0  0  0  0
   -1.6593   -1.9097    1.9865 O   0  0  0  0  0  0  0  0  0  0  0  0
   -3.1673    0.9320    3.0353 C   0  0  0  0  0  0  0  0  0  0  0  0
   -3.8605   -2.0288    2.6727 H   0  0  0  0  0  0  0  0  0  0  0  0
   -3.6052    0.3543    1.0049 H   0  0  0  0  0  0  0  0  0  0  0  0
   -2.8158    0.4786    3.9674 H   0  0  0  0  0  0  0  0  0  0  0  0
   -2.4696    1.7245    2.7481 H   0  0  0  0  0  0  0  0  0  0  0  0
   -4.1471    1.3857    3.2155 H   0  0  0  0  0  0  0  0  0  0  0  0
   -0.8968   -0.0155    1.0269 N   0  0  0  0  0  0  0  0  0  0  0  0
    0.3922   -0.5277    0.5345 C   0  0  2  0  0  0  0  0  0  0  0  0
    1.2257    0.6145   -0.0917 C   0  0  0  0  0  0  0  0  0  0  0  0
    0.7722    1.7542   -0.1405 O   0  0  0  0  0  0  0  0  0  0  0  0
    0.1591   -1.6078   -0.5387 C   0  0  0  0  0  0  0  0  0  0  0  0
   -1.1161    0.9513    0.7840 H   0  0  0  0  0  0  0  0  0  0  0  0
    0.9590   -0.9534    1.3689 H   0  0  0  0  0  0  0  0  0  0  0  0
   -0.4327   -1.2011   -1.3652 H   0  0  0  0  0  0  0  0  0  0  0  0
    1.1106   -1.9706   -0.9388 H   0  0  0  0  0  0  0  0  0  0  0  0
   -0.3723   -2.4684   -0.1236 H   0  0  0  0  0  0  0  0  0  0  0  0
    2.4777    0.3659   -0.6211 N   0  0  0  0  0  0  0  0  0  0  0  0
    3.2382    1.3206   -1.4376 C   0  0  2  0  0  0  0  0  0  0  0  0
    4.0009    0.6017   -2.5709 C   0  0  0  0  0  0  0  0  0  0  0  0
    4.0808   -0.6224   -2.5755 O   0  0  0  0  0  0  0  0  0  0  0  0
    4.2075    2.0728   -0.5215 C   0  0  0  0  0  0  0  0  0  0  0  0
    2.7593   -0.6117   -0.6982 H   0  0  0  0  0  0  0  0  0  0  0  0
    2.5563    2.0370   -1.9083 H   0  0  0  0  0  0  0  0  0  0  0  0
    4.9127    1.3764   -0.0562 H   0  0  0  0  0  0  0  0  0  0  0  0
    4.7745    2.8166   -1.0892 H   0  0  0  0  0  0  0  0  0  0  0  0
    3.6552    2.5906    0.2692 H   0  0  0  0  0  0  0  0  0  0  0  0
    4.5820    1.3236   -3.5970 N   0  0  0  0  0  0  0  0  0  0  0  0
    5.2864    0.7034   -4.7131 C   0  0  0  0  0  0  0  0  0  0  0  0
    4.4790    2.3343   -3.5802 H   0  0  0  0  0  0  0  0  0  0  0  0
    6.1299    0.1063   -4.3506 H   0  0  0  0  0  0  0  0  0  0  0  0
    4.6110    0.0525   -5.2783 H   0  0  0  0  0  0  0  0  0  0  0  0
    5.6733    1.4711   -5.3902 H   0  0  0  0  0  0  0  0  0  0  0  0
  1  2  2  0  0  0  0
  1  3  1  0  0  0  0
  1  7  1  0  0  0  0
  3  4  1  0  0  0  0
  3  5  1  0  0  0  0
  3  6  1  0  0  0  0
  7  8  1  0  0  0  0
  7 12  1  0  0  0  0
  8  9  1  0  0  0  0
  8 11  1  0  0  0  0
  8 13  1  0  0  0  0
  9 10  2  0  0  0  0
  9 17  1  0  0  0  0
 11 14  1  0  0  0  0
 11 15  1  0  0  0  0
 11 16  1  0  0  0  0
 17 18  1  0  0  0  0
 17 22  1  0  0  0  0
 18 19  1  0  0  0  0
 18 21  1  0  0  0  0
 18 23  1  0  0  0  0
 19 20  2  0  0  0  0
 19 27  1  0  0  0  0
 21 24  1  0  0  0  0
 21 25  1  0  0  0  0
 21 26  1  0  0  0  0
 27 28  1  0  0  0  0
 27 32  1  0  0  0  0
 28 29  1  0  0  0  0
 28 31  1  0  0  0  0
 28 33  1  0  0  0  0
 29 30  2  0  0  0  0
 29 37  1  0  0  0  0
 31 34  1  0  0  0  0
 31 35  1  0  0  0  0
 31 36  1  0  0  0  0
 37 38  1  0  0  0  0
 37 39  1  0  0  0  0
 38 40  1  0  0  0  0
 38 41  1  0  0  0  0
 38 42  1  0  0  0  0
M  END
$$$$

  -OEChem-05262215353D

 42 41  0     1  0  0  0  0  0999 V2000
   -5.5107   -1.0003    1.8093 C   0  0  0  0  0  0  0  0  0  0  0  0
   -5.8861    0.0141    1.2433 O   0  0  0  0  0  0  0  0  0  0  0  0
   -6.4435   -2.1908    1.9304 C   0  0  0  0  0  0  0  0  0  0  0  0
   -6.6037   -2.4334    2.9838 H   0  0  0  0  0  0  0  0  0  0  0  0
   -7.4092   -1.9623    1.4703 H   0  0  0  0  0  0  0  0  0  0  0  0
   -6.0096   -3.0572    1.4251 H   0  0  0  0  0  0  0  0  0  0  0  0
   -4.2345   -1.0774    2.3261 N   0  0  0  0  0  0  0  0  0  0  0  0
   -3.1791   -0.0876    2.0726 C   0  0  2  0  0  0  0  0  0  0  0  0
   -1.8349   -0.7695    1.7442 C   0  0  0  0  0  0  0  0  0  0  0  0
   -1.6311   -1.9247    2.1017 O   0  0  0  0  0  0  0  0  0  0  0  0
   -3.0448    0.7976    3.3136 C   0  0  0  0  0  0  0  0  0  0  0  0
   -3.9273   -1.9904    2.6590 H   0  0  0  0  0  0  0  0  0  0  0  0
   -3.4448    0.5382    1.2137 H   0  0  0  0  0  0  0  0  0  0  0  0
   -2.7680    0.1957    4.1852 H   0  0  0  0  0  0  0  0  0  0  0  0
   -2.2764    1.5613    3.1588 H   0  0  0  0  0  0  0  0  0  0  0  0
   -3.9942    1.3006    3.5231 H   0  0  0  0  0  0  0  0  0  0  0  0
   -0.8487   -0.0657    1.0801 N   0  0  0  0  0  0  0  0  0  0  0  0
    0.4520   -0.5787    0.6200 C   0  0  2  0  0  0  0  0  0  0  0  0
    1.2425    0.5582   -0.0740 C   0  0  0  0  0  0  0  0  0  0  0  0
    0.8523    1.7184    0.0188 O   0  0  0  0  0  0  0  0  0  0  0  0
    0.2553   -1.7431   -0.3718 C   0  0  0  0  0  0  0  0  0  0  0  0
   -1.0413    0.9138    0.8665 H   0  0  0  0  0  0  0  0  0  0  0  0
    1.0324   -0.9282    1.4798 H   0  0  0  0  0  0  0  0  0  0  0  0
   -0.3278   -1.4128   -1.2374 H   0  0  0  0  0  0  0  0  0  0  0  0
    1.2189   -2.1219   -0.7249 H   0  0  0  0  0  0  0  0  0  0  0  0
   -0.2680   -2.5795    0.0982 H   0  0  0  0  0  0  0  0  0  0  0  0
    2.3478    0.2916   -0.8599 N   0  0  0  0  0  0  0  0  0  0  0  0
    2.9574    1.2538   -1.7864 C   0  0  2  0  0  0  0  0  0  0  0  0
    3.4304    0.5529   -3.0778 C   0  0  0  0  0  0  0  0  0  0  0  0
    3.4839   -0.6718   -3.1253 O   0  0  0  0  0  0  0  0  0  0  0  0
    4.1261    1.9381   -1.0723 C   0  0  0  0  0  0  0  0  0  0  0  0
    2.5572   -0.6904   -1.0396 H   0  0  0  0  0  0  0  0  0  0  0  0
    2.2219    2.0106   -2.0794 H   0  0  0  0  0  0  0  0  0  0  0  0
    4.8820    1.2016   -0.7814 H   0  0  0  0  0  0  0  0  0  0  0  0
    4.5948    2.6807   -1.7249 H   0  0  0  0  0  0  0  0  0  0  0  0
    3.7710    2.4477   -0.1707 H   0  0  0  0  0  0  0  0  0  0  0  0
    3.7653    1.2908   -4.1981 N   0  0  0  0  0  0  0  0  0  0  0  0
    4.1780    0.6877   -5.4598 C   0  0  0  0  0  0  0  0  0  0  0  0
    3.6775    2.3013   -4.1408 H   0  0  0  0  0  0  0  0  0  0  0  0
    5.0855    0.0906   -5.3210 H   0  0  0  0  0  0  0  0  0  0  0  0
    3.3868    0.0403   -5.8526 H   0  0  0  0  0  0  0  0  0  0  0  0
    4.3869    1.4656   -6.2005 H   0  0  0  0  0  0  0  0  0  0  0  0
  1  2  2  0  0  0  0
  1  3  1  0  0  0  0
  1  7  1  0  0  0  0
  3  4  1  0  0  0  0
  3  5  1  0  0  0  0
  3  6  1  0  0  0  0
  7  8  1  0  0  0  0
  7 12  1  0  0  0  0
  8  9  1  0  0  0  0
  8 11  1  0  0  0  0
  8 13  1  0  0  0  0
  9 10  2  0  0  0  0
  9 17  1  0  0  0  0
 11 14  1  0  0  0  0
 11 15  1  0  0  0  0
 11 16  1  0  0  0  0
 17 18  1  0  0  0  0
 17 22  1  0  0  0  0
 18 19  1  0  0  0  0
 18 21  1  0  0  0  0
 18 23  1  0  0  0  0
 19 20  2  0  0  0  0
 19 27  1  0  0  0  0
 21 24  1  0  0  0  0
 21 25  1  0  0  0  0
 21 26  1  0  0  0  0
 27 28  1  0  0  0  0
 27 32  1  0  0  0  0
 28 29  1  0  0  0  0
 28 31  1  0  0  0  0
 28 33  1  0  0  0  0
 29 30  2  0  0  0  0
 29 37  1  0  0  0  0
 31 34  1  0  0  0  0
 31 35  1  0  0  0  0
 31 36  1  0  0  0  0
 37 38  1  0  0  0  0
 37 39  1  0  0  0  0
 38 40  1  0  0  0  0
 38 41  1  0  0  0  0
 38 42  1  0  0  0  0
M  END
$$$$

  -OEChem-05262215353D

 42 41  0     1  0  0  0  0  0999 V2000
   -5.6135   -1.0587    2.1485 C   0  0  0  0  0  0  0  0  0  0  0  0
   -6.0821   -0.0837    1.5825 O   0  0  0  0  0  0  0  0  0  0  0  0
   -6.5164   -2.2064    2.5610 C   0  0  0  0  0  0  0  0  0  0  0  0
   -6.4543   -2.3605    3.6410 H   0  0  0  0  0  0  0  0  0  0  0  0
   -7.5539   -1.9842    2.2959 H   0  0  0  0  0  0  0  0  0  0  0  0
   -6.2110   -3.1233    2.0509 H   0  0  0  0  0  0  0  0  0  0  0  0
   -4.2600   -1.1280    2.4016 N   0  0  0  0  0  0  0  0  0  0  0  0
   -3.2711   -0.1726    1.8845 C   0  0  2  0  0  0  0  0  0  0  0  0
   -1.9296   -0.8644    1.5603 C   0  0  0  0  0  0  0  0  0  0  0  0
   -1.7334   -2.0188    1.9249 O   0  0  0  0  0  0  0  0  0  0  0  0
   -3.0748    0.9324    2.9274 C   0  0  0  0  0  0  0  0  0  0  0  0
   -3.8960   -2.0168    2.7438 H   0  0  0  0  0  0  0  0  0  0  0  0
   -3.6380    0.2727    0.9533 H   0  0  0  0  0  0  0  0  0  0  0  0
   -2.6829    0.5138    3.8600 H   0  0  0  0  0  0  0  0  0  0  0  0
   -2.3722    1.6874    2.5615 H   0  0  0  0  0  0  0  0  0  0  0  0
   -4.0287    1.4258    3.1400 H   0  0  0  0  0  0  0  0  0  0  0  0
   -0.9346   -0.1679    0.8997 N   0  0  0  0  0  0  0  0  0  0  0  0
    0.3722   -0.6845    0.4596 C   0  0  2  0  0  0  0  0  0  0  0  0
    1.1652    0.4512   -0.2355 C   0  0  0  0  0  0  0  0  0  0  0  0
    0.9272    1.6177    0.0612 O   0  0  0  0  0  0  0  0  0  0  0  0
    0.1894   -1.8710   -0.5094 C   0  0  0  0  0  0  0  0  0  0  0  0
   -1.1051    0.8223    0.7234 H   0  0  0  0  0  0  0  0  0  0  0  0
    0.9456   -1.0174    1.3306 H   0  0  0  0  0  0  0  0  0  0  0  0
   -0.3705   -1.5569   -1.3963 H   0  0  0  0  0  0  0  0  0  0  0  0
    1.1590   -2.2661   -0.8271 H   0  0  0  0  0  0  0  0  0  0  0  0
   -0.3518   -2.6927   -0.0339 H   0  0  0  0  0  0  0  0  0  0  0  0
    2.0812    0.2015   -1.2407 N   0  0  0  0  0  0  0  0  0  0  0  0
    2.7086    1.2318   -2.0780 C   0  0  2  0  0  0  0  0  0  0  0  0
    2.9240    0.7239   -3.5193 C   0  0  0  0  0  0  0  0  0  0  0  0
    2.8013   -0.4700   -3.7729 O   0  0  0  0  0  0  0  0  0  0  0  0
    4.0417    1.6233   -1.4345 C   0  0  0  0  0  0  0  0  0  0  0  0
    2.1361   -0.7546   -1.5912 H   0  0  0  0  0  0  0  0  0  0  0  0
    2.0619    2.1138   -2.1364 H   0  0  0  0  0  0  0  0  0  0  0  0
    4.7058    0.7551   -1.3723 H   0  0  0  0  0  0  0  0  0  0  0  0
    4.5390    2.4017   -2.0206 H   0  0  0  0  0  0  0  0  0  0  0  0
    3.8748    2.0075   -0.4231 H   0  0  0  0  0  0  0  0  0  0  0  0
    3.2373    1.6050   -4.5377 N   0  0  0  0  0  0  0  0  0  0  0  0
    3.4208    1.1916   -5.9239 C   0  0  0  0  0  0  0  0  0  0  0  0
    3.3103    2.5909   -4.3033 H   0  0  0  0  0  0  0  0  0  0  0  0
    4.2551    0.4872   -6.0071 H   0  0  0  0  0  0  0  0  0  0  0  0
    2.5139    0.7091   -6.3034 H   0  0  0  0  0  0  0  0  0  0  0  0
    3.6384    2.0601   -6.5527 H   0  0  0  0  0  0  0  0  0  0  0  0
  1  2  2  0  0  0  0
  1  3  1  0  0  0  0
  1  7  1  0  0  0  0
  3  4  1  0  0  0  0
  3  5  1  0  0  0  0
  3  6  1  0  0  0  0
  7  8  1  0  0  0  0
  7 12  1  0  0  0  0
  8  9  1  0  0  0  0
  8 11  1  0  0  0  0
  8 13  1  0  0  0  0
  9 10  2  0  0  0  0
  9 17  1  0  0  0  0
 11 14  1  0  0  0  0
 11 15  1  0  0  0  0
 11 16  1  0  0  0  0
 17 18  1  0  0  0  0
 17 22  1  0  0  0  0
 18 19  1  0  0  0  0
 18 21  1  0  0  0  0
 18 23  1  0  0  0  0
 19 20  2  0  0  0  0
 19 27  1  0  0  0  0
 21 24  1  0  0  0  0
 21 25  1  0  0  0  0
 21 26  1  0  0  0  0
 27 28  1  0  0  0  0
 27 32  1  0  0  0  0
 28 29  1  0  0  0  0
 28 31  1  0  0  0  0
 28 33  1  0  0  0  0
 29 30  2  0  0  0  0
 29 37  1  0  0  0  0
 31 34  1  0  0  0  0
 31 35  1  0  0  0  0
 31 36  1  0  0  0  0
 37 38  1  0  0  0  0
 37 39  1  0  0  0  0
 38 40  1  0  0  0  0
 38 41  1  0  0  0  0
 38 42  1  0  0  0  0
M  END
$$$$

  -OEChem-05262215353D

 42 41  0     1  0  0  0  0  0999 V2000
   -5.5315   -0.9932    1.8901 C   0  0  0  0  0  0  0  0  0  0  0  0
   -5.9164    0.0210    1.3300 O   0  0  0  0  0  0  0  0  0  0  0  0
   -6.4780   -2.1643    2.0759 C   0  0  0  0  0  0  0  0  0  0  0  0
   -6.6331   -2.3532    3.1410 H   0  0  0  0  0  0  0  0  0  0  0  0
   -7.4436   -1.9447    1.6115 H   0  0  0  0  0  0  0  0  0  0  0  0
   -6.0596   -3.0605    1.6108 H   0  0  0  0  0  0  0  0  0  0  0  0
   -4.2325   -1.0863    2.3426 N   0  0  0  0  0  0  0  0  0  0  0  0
   -3.1786   -0.1101    2.0357 C   0  0  2  0  0  0  0  0  0  0  0  0
   -1.8466   -0.8092    1.6927 C   0  0  0  0  0  0  0  0  0  0  0  0
   -1.6501   -1.9588    2.0705 O   0  0  0  0  0  0  0  0  0  0  0  0
   -3.0134    0.8099    3.2478 C   0  0  0  0  0  0  0  0  0  0  0  0
   -3.9216   -2.0006    2.6691 H   0  0  0  0  0  0  0  0  0  0  0  0
   -3.4631    0.4908    1.1653 H   0  0  0  0  0  0  0  0  0  0  0  0
   -2.7147    0.2333    4.1292 H   0  0  0  0  0  0  0  0  0  0  0  0
   -2.2502    1.5692    3.0525 H   0  0  0  0  0  0  0  0  0  0  0  0
   -3.9580    1.3181    3.4668 H   0  0  0  0  0  0  0  0  0  0  0  0
   -0.8698   -0.1285    0.9889 N   0  0  0  0  0  0  0  0  0  0  0  0
    0.4365   -0.6506    0.5513 C   0  0  2  0  0  0  0  0  0  0  0  0
    1.2015    0.4677   -0.2018 C   0  0  0  0  0  0  0  0  0  0  0  0
    1.1132    1.6218    0.2025 O   0  0  0  0  0  0  0  0  0  0  0  0
    0.2615   -1.8908   -0.3511 C   0  0  0  0  0  0  0  0  0  0  0  0
   -1.0362    0.8631    0.8190 H   0  0  0  0  0  0  0  0  0  0  0  0
    1.0281   -0.9312    1.4287 H   0  0  0  0  0  0  0  0  0  0  0  0
   -0.3525   -1.6462   -1.2239 H   0  0  0  0  0  0  0  0  0  0  0  0
    1.2332   -2.2588   -0.6940 H   0  0  0  0  0  0  0  0  0  0  0  0
   -0.2191   -2.7109    0.1880 H   0  0  0  0  0  0  0  0  0  0  0  0
    1.8654    0.2385   -1.3937 N   0  0  0  0  0  0  0  0  0  0  0  0
    2.3477    1.2895   -2.2996 C   0  0  2  0  0  0  0  0  0  0  0  0
    2.1680    0.8758   -3.7757 C   0  0  0  0  0  0  0  0  0  0  0  0
    1.8805   -0.2832   -4.0568 O   0  0  0  0  0  0  0  0  0  0  0  0
    3.8217    1.5571   -1.9850 C   0  0  0  0  0  0  0  0  0  0  0  0
    1.7553   -0.6875   -1.8068 H   0  0  0  0  0  0  0  0  0  0  0  0
    1.7736    2.2098   -2.1490 H   0  0  0  0  0  0  0  0  0  0  0  0
    4.4162    0.6511   -2.1400 H   0  0  0  0  0  0  0  0  0  0  0  0
    4.2162    2.3479   -2.6300 H   0  0  0  0  0  0  0  0  0  0  0  0
    3.9332    1.8741   -0.9434 H   0  0  0  0  0  0  0  0  0  0  0  0
    2.3041    1.8059   -4.7898 N   0  0  0  0  0  0  0  0  0  0  0  0
    2.0898    1.4901   -6.1973 C   0  0  0  0  0  0  0  0  0  0  0  0
    2.5055    2.7661   -4.5260 H   0  0  0  0  0  0  0  0  0  0  0  0
    2.7596    0.6845   -6.5166 H   0  0  0  0  0  0  0  0  0  0  0  0
    1.0545    1.1748   -6.3652 H   0  0  0  0  0  0  0  0  0  0  0  0
    2.2884    2.3696   -6.8176 H   0  0  0  0  0  0  0  0  0  0  0  0
  1  2  2  0  0  0  0
  1  3  1  0  0  0  0
  1  7  1  0  0  0  0
  3  4  1  0  0  0  0
  3  5  1  0  0  0  0
  3  6  1  0  0  0  0
  7  8  1  0  0  0  0
  7 12  1  0  0  0  0
  8  9  1  0  0  0  0
  8 11  1  0  0  0  0
  8 13  1  0  0  0  0
  9 10  2  0  0  0  0
  9 17  1  0  0  0  0
 11 14  1  0  0  0  0
 11 15  1  0  0  0  0
 11 16  1  0  0  0  0
 17 18  1  0  0  0  0
 17 22  1  0  0  0  0
 18 19  1  0  0  0  0
 18 21  1  0  0  0  0
 18 23  1  0  0  0  0
 19 20  2  0  0  0  0
 19 27  1  0  0  0  0
 21 24  1  0  0  0  0
 21 25  1  0  0  0  0
 21 26  1  0  0  0  0
 27 28  1  0  0  0  0
 27 32  1  0  0  0  0
 28 29  1  0  0  0  0
 28 31  1  0  0  0  0
 28 33  1  0  0  0  0
 29 30  2  0  0  0  0
 29 37  1  0  0  0  0
 31 34  1  0  0  0  0
 31 35  1  0  0  0  0
 31 36  1  0  0  0  0
 37 38  1  0  0  0  0
 37 39  1  0  0  0  0
 38 40  1  0  0  0  0
 38 41  1  0  0  0  0
 38 42  1  0  0  0  0
M  END
$$$$

  -OEChem-05262215353D

 42 41  0     1  0  0  0  0  0999 V2000
   -5.4878   -0.9529    1.7802 C   0  0  0  0  0  0  0  0  0  0  0  0
   -5.8233    0.0400    1.1540 O   0  0  0  0  0  0  0  0  0  0  0  0
   -6.4516   -2.1147    1.9300 C   0  0  0  0  0  0  0  0  0  0  0  0
   -6.6405   -2.3090    2.9884 H   0  0  0  0  0  0  0  0  0  0  0  0
   -7.4010   -1.8822    1.4396 H   0  0  0  0  0  0  0  0  0  0  0  0
   -6.0285   -3.0116    1.4710 H   0  0  0  0  0  0  0  0  0  0  0  0
   -4.2299   -1.0316    2.3403 N   0  0  0  0  0  0  0  0  0  0  0  0
   -3.1421   -0.0840    2.0598 C   0  0  2  0  0  0  0  0  0  0  0  0
   -1.8380   -0.8159    1.6817 C   0  0  0  0  0  0  0  0  0  0  0  0
   -1.6666   -1.9754    2.0400 O   0  0  0  0  0  0  0  0  0  0  0  0
   -2.9321    0.7818    3.3042 C   0  0  0  0  0  0  0  0  0  0  0  0
   -3.9513   -1.9407    2.7071 H   0  0  0  0  0  0  0  0  0  0  0  0
   -3.4069    0.5629    1.2167 H   0  0  0  0  0  0  0  0  0  0  0  0
   -2.6453    0.1612    4.1593 H   0  0  0  0  0  0  0  0  0  0  0  0
   -2.1431    1.5199    3.1295 H   0  0  0  0  0  0  0  0  0  0  0  0
   -3.8550    1.3152    3.5535 H   0  0  0  0  0  0  0  0  0  0  0  0
   -0.8555   -0.1461    0.9758 N   0  0  0  0  0  0  0  0  0  0  0  0
    0.4469   -0.6800    0.5439 C   0  0  2  0  0  0  0  0  0  0  0  0
    1.2101    0.4348   -0.2118 C   0  0  0  0  0  0  0  0  0  0  0  0
    1.3023    1.5409    0.3070 O   0  0  0  0  0  0  0  0  0  0  0  0
    0.2715   -1.9270   -0.3473 C   0  0  0  0  0  0  0  0  0  0  0  0
   -0.9998    0.8535    0.8390 H   0  0  0  0  0  0  0  0  0  0  0  0
    1.0394   -0.9555    1.4225 H   0  0  0  0  0  0  0  0  0  0  0  0
   -0.3803   -1.7038   -1.1981 H   0  0  0  0  0  0  0  0  0  0  0  0
    1.2404   -2.2695   -0.7233 H   0  0  0  0  0  0  0  0  0  0  0  0
   -0.1683   -2.7553    0.2137 H   0  0  0  0  0  0  0  0  0  0  0  0
    1.6084    0.2912   -1.5285 N   0  0  0  0  0  0  0  0  0  0  0  0
    1.9856    1.3998   -2.4146 C   0  0  2  0  0  0  0  0  0  0  0  0
    1.4800    1.1517   -3.8518 C   0  0  0  0  0  0  0  0  0  0  0  0
    1.0681    0.0415   -4.1721 O   0  0  0  0  0  0  0  0  0  0  0  0
    3.5095    1.5419   -2.3877 C   0  0  0  0  0  0  0  0  0  0  0  0
    1.3275   -0.5715   -1.9951 H   0  0  0  0  0  0  0  0  0  0  0  0
    1.5295    2.3325   -2.0661 H   0  0  0  0  0  0  0  0  0  0  0  0
    3.9860    0.6265   -2.7529 H   0  0  0  0  0  0  0  0  0  0  0  0
    3.8293    2.3772   -3.0178 H   0  0  0  0  0  0  0  0  0  0  0  0
    3.8531    1.7300   -1.3655 H   0  0  0  0  0  0  0  0  0  0  0  0
    1.4532    2.1779   -4.7782 N   0  0  0  0  0  0  0  0  0  0  0  0
    0.9199    2.0220   -6.1266 C   0  0  0  0  0  0  0  0  0  0  0  0
    1.7656    3.0960   -4.4753 H   0  0  0  0  0  0  0  0  0  0  0  0
    1.4657    1.2417   -6.6677 H   0  0  0  0  0  0  0  0  0  0  0  0
   -0.1404    1.7494   -6.0897 H   0  0  0  0  0  0  0  0  0  0  0  0
    1.0166    2.9593   -6.6833 H   0  0  0  0  0  0  0  0  0  0  0  0
  1  2  2  0  0  0  0
  1  3  1  0  0  0  0
  1  7  1  0  0  0  0
  3  4  1  0  0  0  0
  3  5  1  0  0  0  0
  3  6  1  0  0  0  0
  7  8  1  0  0  0  0
  7 12  1  0  0  0  0
  8  9  1  0  0  0  0
  8 11  1  0  0  0  0
  8 13  1  0  0  0  0
  9 10  2  0  0  0  0
  9 17  1  0  0  0  0
 11 14  1  0  0  0  0
 11 15  1  0  0  0  0
 11 16  1  0  0  0  0
 17 18  1  0  0  0  0
 17 22  1  0  0  0  0
 18 19  1  0  0  0  0
 18 21  1  0  0  0  0
 18 23  1  0  0  0  0
 19 20  2  0  0  0  0
 19 27  1  0  0  0  0
 21 24  1  0  0  0  0
 21 25  1  0  0  0  0
 21 26  1  0  0  0  0
 27 28  1  0  0  0  0
 27 32  1  0  0  0  0
 28 29  1  0  0  0  0
 28 31  1  0  0  0  0
 28 33  1  0  0  0  0
 29 30  2  0  0  0  0
 29 37  1  0  0  0  0
 31 34  1  0  0  0  0
 31 35  1  0  0  0  0
 31 36  1  0  0  0  0
 37 38  1  0  0  0  0
 37 39  1  0  0  0  0
 38 40  1  0  0  0  0
 38 41  1  0  0  0  0
 38 42  1  0  0  0  0
M  END
$$$$

  -OEChem-05262215353D

 42 41  0     1  0  0  0  0  0999 V2000
   -5.4934   -0.9635    1.8024 C   0  0  0  0  0  0  0  0  0  0  0  0
   -5.8432    0.0394    1.2005 O   0  0  0  0  0  0  0  0  0  0  0  0
   -6.4476   -2.1342    1.9441 C   0  0  0  0  0  0  0  0  0  0  0  0
   -6.6355   -2.3350    3.0016 H   0  0  0  0  0  0  0  0  0  0  0  0
   -7.3984   -1.9078    1.4533 H   0  0  0  0  0  0  0  0  0  0  0  0
   -6.0163   -3.0250    1.4805 H   0  0  0  0  0  0  0  0  0  0  0  0
   -4.2272   -1.0453    2.3424 N   0  0  0  0  0  0  0  0  0  0  0  0
   -3.1497   -0.0853    2.0661 C   0  0  2  0  0  0  0  0  0  0  0  0
   -1.8420   -0.8046    1.6768 C   0  0  0  0  0  0  0  0  0  0  0  0
   -1.6558   -1.9611    2.0377 O   0  0  0  0  0  0  0  0  0  0  0  0
   -2.9428    0.7703    3.3178 C   0  0  0  0  0  0  0  0  0  0  0  0
   -3.9381   -1.9587    2.6904 H   0  0  0  0  0  0  0  0  0  0  0  0
   -3.4245    0.5664    1.2296 H   0  0  0  0  0  0  0  0  0  0  0  0
   -2.6500    0.1432    4.1661 H   0  0  0  0  0  0  0  0  0  0  0  0
   -2.1597    1.5158    3.1487 H   0  0  0  0  0  0  0  0  0  0  0  0
   -3.8692    1.2942    3.5740 H   0  0  0  0  0  0  0  0  0  0  0  0
   -0.8757   -0.1304    0.9524 N   0  0  0  0  0  0  0  0  0  0  0  0
    0.4275   -0.6605    0.5158 C   0  0  2  0  0  0  0  0  0  0  0  0
    1.1809    0.4423   -0.2628 C   0  0  0  0  0  0  0  0  0  0  0  0
    1.5026    1.4663    0.3258 O   0  0  0  0  0  0  0  0  0  0  0  0
    0.2556   -1.9214   -0.3556 C   0  0  0  0  0  0  0  0  0  0  0  0
   -1.0388    0.8635    0.8023 H   0  0  0  0  0  0  0  0  0  0  0  0
    1.0313   -0.9186    1.3924 H   0  0  0  0  0  0  0  0  0  0  0  0
   -0.4501   -1.7351   -1.1716 H   0  0  0  0  0  0  0  0  0  0  0  0
    1.2165   -2.2268   -0.7814 H   0  0  0  0  0  0  0  0  0  0  0  0
   -0.1193   -2.7597    0.2374 H   0  0  0  0  0  0  0  0  0  0  0  0
    1.2989    0.4088   -1.6403 N   0  0  0  0  0  0  0  0  0  0  0  0
    1.6496    1.5615   -2.4794 C   0  0  2  0  0  0  0  0  0  0  0  0
    0.8515    1.5453   -3.8001 C   0  0  0  0  0  0  0  0  0  0  0  0
    0.2355    0.5374   -4.1307 O   0  0  0  0  0  0  0  0  0  0  0  0
    3.1554    1.5199   -2.7506 C   0  0  0  0  0  0  0  0  0  0  0  0
    0.8291   -0.3609   -2.1177 H   0  0  0  0  0  0  0  0  0  0  0  0
    1.4020    2.4940   -1.9614 H   0  0  0  0  0  0  0  0  0  0  0  0
    3.4225    0.6036   -3.2870 H   0  0  0  0  0  0  0  0  0  0  0  0
    3.4613    2.3799   -3.3538 H   0  0  0  0  0  0  0  0  0  0  0  0
    3.7095    1.5461   -1.8069 H   0  0  0  0  0  0  0  0  0  0  0  0
    0.7934    2.6696   -4.6021 N   0  0  0  0  0  0  0  0  0  0  0  0
   -0.0039    2.7393   -5.8208 C   0  0  0  0  0  0  0  0  0  0  0  0
    1.2820    3.5016   -4.2841 H   0  0  0  0  0  0  0  0  0  0  0  0
    0.3098    1.9657   -6.5295 H   0  0  0  0  0  0  0  0  0  0  0  0
   -1.0654    2.5976   -5.5922 H   0  0  0  0  0  0  0  0  0  0  0  0
    0.1196    3.7156   -6.2990 H   0  0  0  0  0  0  0  0  0  0  0  0
  1  2  2  0  0  0  0
  1  3  1  0  0  0  0
  1  7  1  0  0  0  0
  3  4  1  0  0  0  0
  3  5  1  0  0  0  0
  3  6  1  0  0  0  0
  7  8  1  0  0  0  0
  7 12  1  0  0  0  0
  8  9  1  0  0  0  0
  8 11  1  0  0  0  0
  8 13  1  0  0  0  0
  9 10  2  0  0  0  0
  9 17  1  0  0  0  0
 11 14  1  0  0  0  0
 11 15  1  0  0  0  0
 11 16  1  0  0  0  0
 17 18  1  0  0  0  0
 17 22  1  0  0  0  0
 18 19  1  0  0  0  0
 18 21  1  0  0  0  0
 18 23  1  0  0  0  0
 19 20  2  0  0  0  0
 19 27  1  0  0  0  0
 21 24  1  0  0  0  0
 21 25  1  0  0  0  0
 21 26  1  0  0  0  0
 27 28  1  0  0  0  0
 27 32  1  0  0  0  0
 28 29  1  0  0  0  0
 28 31  1  0  0  0  0
 28 33  1  0  0  0  0
 29 30  2  0  0  0  0
 29 37  1  0  0  0  0
 31 34  1  0  0  0  0
 31 35  1  0  0  0  0
 31 36  1  0  0  0  0
 37 38  1  0  0  0  0
 37 39  1  0  0  0  0
 38 40  1  0  0  0  0
 38 41  1  0  0  0  0
 38 42  1  0  0  0  0
M  END
$$$$

  -OEChem-05262215353D

 42 41  0     1  0  0  0  0  0999 V2000
   -5.6383   -1.1736    2.1916 C   0  0  0  0  0  0  0  0  0  0  0  0
   -6.1345   -0.1723    1.6999 O   0  0  0  0  0  0  0  0  0  0  0  0
   -6.5214   -2.3368    2.6027 C   0  0  0  0  0  0  0  0  0  0  0  0
   -6.4055   -2.5333    3.6712 H   0  0  0  0  0  0  0  0  0  0  0  0
   -7.5703   -2.1033    2.3994 H   0  0  0  0  0  0  0  0  0  0  0  0
   -6.2450   -3.2328    2.0420 H   0  0  0  0  0  0  0  0  0  0  0  0
   -4.2736   -1.2501    2.3721 N   0  0  0  0  0  0  0  0  0  0  0  0
   -3.3135   -0.2443    1.8996 C   0  0  2  0  0  0  0  0  0  0  0  0
   -1.9555   -0.8810    1.5319 C   0  0  0  0  0  0  0  0  0  0  0  0
   -1.7027   -2.0247    1.8930 O   0  0  0  0  0  0  0  0  0  0  0  0
   -3.1366    0.8046    3.0020 C   0  0  0  0  0  0  0  0  0  0  0  0
   -3.8883   -2.1434    2.6768 H   0  0  0  0  0  0  0  0  0  0  0  0
   -3.7020    0.2410    0.9978 H   0  0  0  0  0  0  0  0  0  0  0  0
   -2.7387    0.3401    3.9100 H   0  0  0  0  0  0  0  0  0  0  0  0
   -2.4465    1.5906    2.6812 H   0  0  0  0  0  0  0  0  0  0  0  0
   -4.0987    1.2691    3.2410 H   0  0  0  0  0  0  0  0  0  0  0  0
   -1.0132   -0.1463    0.8332 N   0  0  0  0  0  0  0  0  0  0  0  0
    0.3250   -0.6081    0.4213 C   0  0  2  0  0  0  0  0  0  0  0  0
    1.0585    0.5213   -0.3339 C   0  0  0  0  0  0  0  0  0  0  0  0
    1.6303    1.3957    0.3019 O   0  0  0  0  0  0  0  0  0  0  0  0
    0.2439   -1.8651   -0.4669 C   0  0  0  0  0  0  0  0  0  0  0  0
   -1.2456    0.8283    0.6561 H   0  0  0  0  0  0  0  0  0  0  0  0
    0.9162   -0.8470    1.3120 H   0  0  0  0  0  0  0  0  0  0  0  0
   -0.4727   -1.7222   -1.2815 H   0  0  0  0  0  0  0  0  0  0  0  0
    1.2249   -2.0906   -0.8969 H   0  0  0  0  0  0  0  0  0  0  0  0
   -0.0676   -2.7360    0.1159 H   0  0  0  0  0  0  0  0  0  0  0  0
    0.9524    0.6578   -1.7057 N   0  0  0  0  0  0  0  0  0  0  0  0
    1.4000    1.8290   -2.4705 C   0  0  2  0  0  0  0  0  0  0  0  0
    0.4275    2.1478   -3.6253 C   0  0  0  0  0  0  0  0  0  0  0  0
   -0.4461    1.3428   -3.9308 O   0  0  0  0  0  0  0  0  0  0  0  0
    2.8048    1.5400   -3.0063 C   0  0  0  0  0  0  0  0  0  0  0  0
    0.3009    0.0323   -2.1796 H   0  0  0  0  0  0  0  0  0  0  0  0
    1.4360    2.7114   -1.8229 H   0  0  0  0  0  0  0  0  0  0  0  0
    2.7883    0.6740   -3.6759 H   0  0  0  0  0  0  0  0  0  0  0  0
    3.1912    2.4015   -3.5591 H   0  0  0  0  0  0  0  0  0  0  0  0
    3.4882    1.3278   -2.1779 H   0  0  0  0  0  0  0  0  0  0  0  0
    0.5145    3.3473   -4.3073 N   0  0  0  0  0  0  0  0  0  0  0  0
   -0.3975    3.7260   -5.3802 C   0  0  0  0  0  0  0  0  0  0  0  0
    1.2306    4.0057   -4.0140 H   0  0  0  0  0  0  0  0  0  0  0  0
   -0.3699    2.9856   -6.1869 H   0  0  0  0  0  0  0  0  0  0  0  0
   -1.4234    3.7987   -5.0035 H   0  0  0  0  0  0  0  0  0  0  0  0
   -0.1112    4.6978   -5.7942 H   0  0  0  0  0  0  0  0  0  0  0  0
  1  2  2  0  0  0  0
  1  3  1  0  0  0  0
  1  7  1  0  0  0  0
  3  4  1  0  0  0  0
  3  5  1  0  0  0  0
  3  6  1  0  0  0  0
  7  8  1  0  0  0  0
  7 12  1  0  0  0  0
  8  9  1  0  0  0  0
  8 11  1  0  0  0  0
  8 13  1  0  0  0  0
  9 10  2  0  0  0  0
  9 17  1  0  0  0  0
 11 14  1  0  0  0  0
 11 15  1  0  0  0  0
 11 16  1  0  0  0  0
 17 18  1  0  0  0  0
 17 22  1  0  0  0  0
 18 19  1  0  0  0  0
 18 21  1  0  0  0  0
 18 23  1  0  0  0  0
 19 20  2  0  0  0  0
 19 27  1  0  0  0  0
 21 24  1  0  0  0  0
 21 25  1  0  0  0  0
 21 26  1  0  0  0  0
 27 28  1  0  0  0  0
 27 32  1  0  0  0  0
 28 29  1  0  0  0  0
 28 31  1  0  0  0  0
 28 33  1  0  0  0  0
 29 30  2  0  0  0  0
 29 37  1  0  0  0  0
 31 34  1  0  0  0  0
 31 35  1  0  0  0  0
 31 36  1  0  0  0  0
 37 38  1  0  0  0  0
 37 39  1  0  0  0  0
 38 40  1  0  0  0  0
 38 41  1  0  0  0  0
 38 42  1  0  0  0  0
M  END
$$$$

  -OEChem-05262215353D

 42 41  0     1  0  0  0  0  0999 V2000
   -5.6513   -1.2529    2.1147 C   0  0  0  0  0  0  0  0  0  0  0  0
   -6.1855   -0.3112    1.5503 O   0  0  0  0  0  0  0  0  0  0  0  0
   -6.4895   -2.4126    2.6198 C   0  0  0  0  0  0  0  0  0  0  0  0
   -6.3154   -2.5618    3.6883 H   0  0  0  0  0  0  0  0  0  0  0  0
   -7.5520   -2.2060    2.4622 H   0  0  0  0  0  0  0  0  0  0  0  0
   -6.2241   -3.3269    2.0831 H   0  0  0  0  0  0  0  0  0  0  0  0
   -4.2843   -1.2660    2.2917 N   0  0  0  0  0  0  0  0  0  0  0  0
   -3.3626   -0.2597    1.7488 C   0  0  2  0  0  0  0  0  0  0  0  0
   -1.9635   -0.8559    1.4829 C   0  0  0  0  0  0  0  0  0  0  0  0
   -1.6817   -1.9653    1.9219 O   0  0  0  0  0  0  0  0  0  0  0  0
   -3.2707    0.8992    2.7472 C   0  0  0  0  0  0  0  0  0  0  0  0
   -3.8653   -2.1154    2.6694 H   0  0  0  0  0  0  0  0  0  0  0  0
   -3.7474    0.1142    0.7937 H   0  0  0  0  0  0  0  0  0  0  0  0
   -2.8775    0.5467    3.7061 H   0  0  0  0  0  0  0  0  0  0  0  0
   -2.6110    1.6848    2.3675 H   0  0  0  0  0  0  0  0  0  0  0  0
   -4.2606    1.3349    2.9154 H   0  0  0  0  0  0  0  0  0  0  0  0
   -1.0142   -0.1189    0.7961 N   0  0  0  0  0  0  0  0  0  0  0  0
    0.3568   -0.5560    0.4741 C   0  0  2  0  0  0  0  0  0  0  0  0
    1.1018    0.5524   -0.2972 C   0  0  0  0  0  0  0  0  0  0  0  0
    1.8714    1.2954    0.2947 O   0  0  0  0  0  0  0  0  0  0  0  0
    0.3550   -1.8443   -0.3701 C   0  0  0  0  0  0  0  0  0  0  0  0
   -1.2909    0.8191    0.5139 H   0  0  0  0  0  0  0  0  0  0  0  0
    0.9056   -0.7438    1.4036 H   0  0  0  0  0  0  0  0  0  0  0  0
   -0.3093   -1.7444   -1.2339 H   0  0  0  0  0  0  0  0  0  0  0  0
    1.3658   -2.0639   -0.7283 H   0  0  0  0  0  0  0  0  0  0  0  0
    0.0216   -2.7003    0.2227 H   0  0  0  0  0  0  0  0  0  0  0  0
    0.8139    0.7937   -1.6278 N   0  0  0  0  0  0  0  0  0  0  0  0
    1.2118    2.0051   -2.3592 C   0  0  2  0  0  0  0  0  0  0  0  0
    0.0004    2.6703   -3.0471 C   0  0  0  0  0  0  0  0  0  0  0  0
   -1.0869    2.1024   -3.0576 O   0  0  0  0  0  0  0  0  0  0  0  0
    2.2716    1.6029   -3.3878 C   0  0  0  0  0  0  0  0  0  0  0  0
    0.0109    0.2904   -2.0029 H   0  0  0  0  0  0  0  0  0  0  0  0
    1.6420    2.7452   -1.6763 H   0  0  0  0  0  0  0  0  0  0  0  0
    1.8543    0.8962   -4.1123 H   0  0  0  0  0  0  0  0  0  0  0  0
    2.6374    2.4812   -3.9281 H   0  0  0  0  0  0  0  0  0  0  0  0
    3.1216    1.1284   -2.8874 H   0  0  0  0  0  0  0  0  0  0  0  0
    0.1255    3.9080   -3.6508 N   0  0  0  0  0  0  0  0  0  0  0  0
   -0.9808    4.5952   -4.3067 C   0  0  0  0  0  0  0  0  0  0  0  0
    1.0302    4.3677   -3.6018 H   0  0  0  0  0  0  0  0  0  0  0  0
   -1.4125    3.9659   -5.0924 H   0  0  0  0  0  0  0  0  0  0  0  0
   -1.7636    4.8402   -3.5812 H   0  0  0  0  0  0  0  0  0  0  0  0
   -0.6303    5.5249   -4.7651 H   0  0  0  0  0  0  0  0  0  0  0  0
  1  2  2  0  0  0  0
  1  3  1  0  0  0  0
  1  7  1  0  0  0  0
  3  4  1  0  0  0  0
  3  5  1  0  0  0  0
  3  6  1  0  0  0  0
  7  8  1  0  0  0  0
  7 12  1  0  0  0  0
  8  9  1  0  0  0  0
  8 11  1  0  0  0  0
  8 13  1  0  0  0  0
  9 10  2  0  0  0  0
  9 17  1  0  0  0  0
 11 14  1  0  0  0  0
 11 15  1  0  0  0  0
 11 16  1  0  0  0  0
 17 18  1  0  0  0  0
 17 22  1  0  0  0  0
 18 19  1  0  0  0  0
 18 21  1  0  0  0  0
 18 23  1  0  0  0  0
 19 20  2  0  0  0  0
 19 27  1  0  0  0  0
 21 24  1  0  0  0  0
 21 25  1  0  0  0  0
 21 26  1  0  0  0  0
 27 28  1  0  0  0  0
 27 32  1  0  0  0  0
 28 29  1  0  0  0  0
 28 31  1  0  0  0  0
 28 33  1  0  0  0  0
 29 30  2  0  0  0  0
 29 37  1  0  0  0  0
 31 34  1  0  0  0  0
 31 35  1  0  0  0  0
 31 36  1  0  0  0  0
 37 38  1  0  0  0  0
 37 39  1  0  0  0  0
 38 40  1  0  0  0  0
 38 41  1  0  0  0  0
 38 42  1  0  0  0  0
M  END
$$$$

  -OEChem-05262215353D

 42 41  0     1  0  0  0  0  0999 V2000
   -5.4861   -1.0962    1.5438 C   0  0  0  0  0  0  0  0  0  0  0  0
   -5.9666   -0.5143    0.5840 O   0  0  0  0  0  0  0  0  0  0  0  0
   -6.3202   -2.0986    2.3193 C   0  0  0  0  0  0  0  0  0  0  0  0
   -6.4345   -1.7661    3.3539 H   0  0  0  0  0  0  0  0  0  0  0  0
   -7.3117   -2.1933    1.8677 H   0  0  0  0  0  0  0  0  0  0  0  0
   -5.8336   -3.0770    2.3100 H   0  0  0  0  0  0  0  0  0  0  0  0
   -4.1853   -0.8493    1.9272 N   0  0  0  0  0  0  0  0  0  0  0  0
   -3.2382   -0.0187    1.1721 C   0  0  2  0  0  0  0  0  0  0  0  0
   -1.7885   -0.5245    1.3379 C   0  0  0  0  0  0  0  0  0  0  0  0
   -1.5359   -1.4235    2.1331 O   0  0  0  0  0  0  0  0  0  0  0  0
   -3.3707    1.4298    1.6537 C   0  0  0  0  0  0  0  0  0  0  0  0
   -3.7856   -1.4568    2.6417 H   0  0  0  0  0  0  0  0  0  0  0  0
   -3.4762   -0.0620    0.1036 H   0  0  0  0  0  0  0  0  0  0  0  0
   -3.1261    1.5036    2.7180 H   0  0  0  0  0  0  0  0  0  0  0  0
   -2.6970    2.0853    1.0935 H   0  0  0  0  0  0  0  0  0  0  0  0
   -4.3951    1.7856    1.5048 H   0  0  0  0  0  0  0  0  0  0  0  0
   -0.7742    0.0434    0.5927 N   0  0  0  0  0  0  0  0  0  0  0  0
    0.6457   -0.3532    0.5874 C   0  0  2  0  0  0  0  0  0  0  0  0
    1.4007    0.5621   -0.3922 C   0  0  0  0  0  0  0  0  0  0  0  0
    2.1198    1.4585    0.0272 O   0  0  0  0  0  0  0  0  0  0  0  0
    0.8266   -1.8196    0.1619 C   0  0  0  0  0  0  0  0  0  0  0  0
   -1.0506    0.8262   -0.0111 H   0  0  0  0  0  0  0  0  0  0  0  0
    1.0724   -0.2135    1.5866 H   0  0  0  0  0  0  0  0  0  0  0  0
    0.2920   -2.0243   -0.7707 H   0  0  0  0  0  0  0  0  0  0  0  0
    1.8880   -2.0425    0.0136 H   0  0  0  0  0  0  0  0  0  0  0  0
    0.4475   -2.4963    0.9330 H   0  0  0  0  0  0  0  0  0  0  0  0
    1.0110    0.5677   -1.7199 N   0  0  0  0  0  0  0  0  0  0  0  0
    0.9175    1.8449   -2.4393 C   0  0  2  0  0  0  0  0  0  0  0  0
   -0.3099    2.6632   -1.9698 C   0  0  0  0  0  0  0  0  0  0  0  0
   -1.2556    2.0970   -1.4235 O   0  0  0  0  0  0  0  0  0  0  0  0
    0.8205    1.5389   -3.9351 C   0  0  0  0  0  0  0  0  0  0  0  0
    0.2678   -0.0979   -1.9161 H   0  0  0  0  0  0  0  0  0  0  0  0
    1.8205    2.4400   -2.2650 H   0  0  0  0  0  0  0  0  0  0  0  0
   -0.0776    0.9508   -4.1503 H   0  0  0  0  0  0  0  0  0  0  0  0
    0.7744    2.4673   -4.5129 H   0  0  0  0  0  0  0  0  0  0  0  0
    1.6972    0.9714   -4.2632 H   0  0  0  0  0  0  0  0  0  0  0  0
   -0.3533    4.0335   -2.1428 N   0  0  0  0  0  0  0  0  0  0  0  0
   -1.4401    4.8662   -1.6406 C   0  0  0  0  0  0  0  0  0  0  0  0
    0.4840    4.4861   -2.4989 H   0  0  0  0  0  0  0  0  0  0  0  0
   -2.3924    4.5681   -2.0922 H   0  0  0  0  0  0  0  0  0  0  0  0
   -1.5221    4.7752   -0.5522 H   0  0  0  0  0  0  0  0  0  0  0  0
   -1.2564    5.9167   -1.8864 H   0  0  0  0  0  0  0  0  0  0  0  0
  1  2  2  0  0  0  0
  1  3  1  0  0  0  0
  1  7  1  0  0  0  0
  3  4  1  0  0  0  0
  3  5  1  0  0  0  0
  3  6  1  0  0  0  0
  7  8  1  0  0  0  0
  7 12  1  0  0  0  0
  8  9  1  0  0  0  0
  8 11  1  0  0  0  0
  8 13  1  0  0  0  0
  9 10  2  0  0  0  0
  9 17  1  0  0  0  0
 11 14  1  0  0  0  0
 11 15  1  0  0  0  0
 11 16  1  0  0  0  0
 17 18  1  0  0  0  0
 17 22  1  0  0  0  0
 18 19  1  0  0  0  0
 18 21  1  0  0  0  0
 18 23  1  0  0  0  0
 19 20  2  0  0  0  0
 19 27  1  0  0  0  0
 21 24  1  0  0  0  0
 21 25  1  0  0  0  0
 21 26  1  0  0  0  0
 27 28  1  0  0  0  0
 27 32  1  0  0  0  0
 28 29  1  0  0  0  0
 28 31  1  0  0  0  0
 28 33  1  0  0  0  0
 29 30  2  0  0  0  0
 29 37  1  0  0  0  0
 31 34  1  0  0  0  0
 31 35  1  0  0  0  0
 31 36  1  0  0  0  0
 37 38  1  0  0  0  0
 37 39  1  0  0  0  0
 38 40  1  0  0  0  0
 38 41  1  0  0  0  0
 38 42  1  0  0  0  0
M  END
$$$$

  -OEChem-05262215353D

 42 41  0     1  0  0  0  0  0999 V2000
   -5.5616   -1.0003    1.6109 C   0  0  0  0  0  0  0  0  0  0  0  0
   -6.0377   -0.2689    0.7572 O   0  0  0  0  0  0  0  0  0  0  0  0
   -6.4286   -2.0488    2.2823 C   0  0  0  0  0  0  0  0  0  0  0  0
   -6.4984   -1.8428    3.3532 H   0  0  0  0  0  0  0  0  0  0  0  0
   -7.4350   -2.0364    1.8542 H   0  0  0  0  0  0  0  0  0  0  0  0
   -5.9961   -3.0416    2.1360 H   0  0  0  0  0  0  0  0  0  0  0  0
   -4.2364   -0.8785    1.9701 N   0  0  0  0  0  0  0  0  0  0  0  0
   -3.2701    0.0071    1.3067 C   0  0  2  0  0  0  0  0  0  0  0  0
   -1.8460   -0.5899    1.3281 C   0  0  0  0  0  0  0  0  0  0  0  0
   -1.6046   -1.5737    2.0188 O   0  0  0  0  0  0  0  0  0  0  0  0
   -3.3000    1.3665    2.0123 C   0  0  0  0  0  0  0  0  0  0  0  0
   -3.8514   -1.5901    2.5902 H   0  0  0  0  0  0  0  0  0  0  0  0
   -3.5499    0.1429    0.2563 H   0  0  0  0  0  0  0  0  0  0  0  0
   -3.0041    1.2604    3.0608 H   0  0  0  0  0  0  0  0  0  0  0  0
   -2.6165    2.0685    1.5252 H   0  0  0  0  0  0  0  0  0  0  0  0
   -4.3084    1.7902    1.9748 H   0  0  0  0  0  0  0  0  0  0  0  0
   -0.8407    0.0049    0.5889 N   0  0  0  0  0  0  0  0  0  0  0  0
    0.5793   -0.4004    0.5500 C   0  0  2  0  0  0  0  0  0  0  0  0
    1.3487    0.5351   -0.3999 C   0  0  0  0  0  0  0  0  0  0  0  0
    2.2770    1.2127    0.0180 O   0  0  0  0  0  0  0  0  0  0  0  0
    0.7454   -1.8412    0.0395 C   0  0  0  0  0  0  0  0  0  0  0  0
   -1.0913    0.8963    0.1458 H   0  0  0  0  0  0  0  0  0  0  0  0
    1.0162   -0.3162    1.5512 H   0  0  0  0  0  0  0  0  0  0  0  0
    0.2159   -1.9795   -0.9080 H   0  0  0  0  0  0  0  0  0  0  0  0
    1.8051   -2.0667   -0.1168 H   0  0  0  0  0  0  0  0  0  0  0  0
    0.3555   -2.5620    0.7632 H   0  0  0  0  0  0  0  0  0  0  0  0
    0.7794    0.8353   -1.6241 N   0  0  0  0  0  0  0  0  0  0  0  0
    0.7911    2.2122   -2.1342 C   0  0  2  0  0  0  0  0  0  0  0  0
   -0.3586    3.0392   -1.5112 C   0  0  0  0  0  0  0  0  0  0  0  0
   -1.2826    2.4684   -0.9332 O   0  0  0  0  0  0  0  0  0  0  0  0
    0.6539    2.1471   -3.6566 C   0  0  0  0  0  0  0  0  0  0  0  0
   -0.0793    0.3178   -1.7958 H   0  0  0  0  0  0  0  0  0  0  0  0
    1.7407    2.7022   -1.8932 H   0  0  0  0  0  0  0  0  0  0  0  0
   -0.2988    1.6871   -3.9381 H   0  0  0  0  0  0  0  0  0  0  0  0
    0.6963    3.1515   -4.0886 H   0  0  0  0  0  0  0  0  0  0  0  0
    1.4678    1.5532   -4.0848 H   0  0  0  0  0  0  0  0  0  0  0  0
   -0.3635    4.4186   -1.5931 N   0  0  0  0  0  0  0  0  0  0  0  0
   -1.3992    5.2524   -0.9940 C   0  0  0  0  0  0  0  0  0  0  0  0
    0.4413    4.8680   -2.0208 H   0  0  0  0  0  0  0  0  0  0  0  0
   -2.3791    5.0140   -1.4212 H   0  0  0  0  0  0  0  0  0  0  0  0
   -1.4391    5.0958    0.0892 H   0  0  0  0  0  0  0  0  0  0  0  0
   -1.1898    6.3099   -1.1825 H   0  0  0  0  0  0  0  0  0  0  0  0
  1  2  2  0  0  0  0
  1  3  1  0  0  0  0
  1  7  1  0  0  0  0
  3  4  1  0  0  0  0
  3  5  1  0  0  0  0
  3  6  1  0  0  0  0
  7  8  1  0  0  0  0
  7 12  1  0  0  0  0
  8  9  1  0  0  0  0
  8 11  1  0  0  0  0
  8 13  1  0  0  0  0
  9 10  2  0  0  0  0
  9 17  1  0  0  0  0
 11 14  1  0  0  0  0
 11 15  1  0  0  0  0
 11 16  1  0  0  0  0
 17 18  1  0  0  0  0
 17 22  1  0  0  0  0
 18 19  1  0  0  0  0
 18 21  1  0  0  0  0
 18 23  1  0  0  0  0
 19 20  2  0  0  0  0
 19 27  1  0  0  0  0
 21 24  1  0  0  0  0
 21 25  1  0  0  0  0
 21 26  1  0  0  0  0
 27 28  1  0  0  0  0
 27 32  1  0  0  0  0
 28 29  1  0  0  0  0
 28 31  1  0  0  0  0
 28 33  1  0  0  0  0
 29 30  2  0  0  0  0
 29 37  1  0  0  0  0
 31 34  1  0  0  0  0
 31 35  1  0  0  0  0
 31 36  1  0  0  0  0
 37 38  1  0  0  0  0
 37 39  1  0  0  0  0
 38 40  1  0  0  0  0
 38 41  1  0  0  0  0
 38 42  1  0  0  0  0
M  END
$$$$

  -OEChem-05262215353D

 42 41  0     1  0  0  0  0  0999 V2000
   -5.5061   -0.9433    1.5986 C   0  0  0  0  0  0  0  0  0  0  0  0
   -5.9284   -0.2169    0.7129 O   0  0  0  0  0  0  0  0  0  0  0  0
   -6.3663   -2.0786    2.1208 C   0  0  0  0  0  0  0  0  0  0  0  0
   -6.6184   -1.9020    3.1691 H   0  0  0  0  0  0  0  0  0  0  0  0
   -7.2915   -2.1479    1.5417 H   0  0  0  0  0  0  0  0  0  0  0  0
   -5.8275   -3.0256    2.0368 H   0  0  0  0  0  0  0  0  0  0  0  0
   -4.2457   -0.7473    2.1223 N   0  0  0  0  0  0  0  0  0  0  0  0
   -3.2455    0.1636    1.5489 C   0  0  2  0  0  0  0  0  0  0  0  0
   -1.8635   -0.5140    1.4361 C   0  0  0  0  0  0  0  0  0  0  0  0
   -1.6234   -1.5239    2.0882 O   0  0  0  0  0  0  0  0  0  0  0  0
   -3.1701    1.4076    2.4373 C   0  0  0  0  0  0  0  0  0  0  0  0
   -3.8882   -1.4780    2.7361 H   0  0  0  0  0  0  0  0  0  0  0  0
   -3.5404    0.4678    0.5387 H   0  0  0  0  0  0  0  0  0  0  0  0
   -2.8640    1.1367    3.4529 H   0  0  0  0  0  0  0  0  0  0  0  0
   -2.4479    2.1241    2.0341 H   0  0  0  0  0  0  0  0  0  0  0  0
   -4.1486    1.8957    2.4850 H   0  0  0  0  0  0  0  0  0  0  0  0
   -0.8947    0.0462    0.6244 N   0  0  0  0  0  0  0  0  0  0  0  0
    0.5130   -0.3939    0.5102 C   0  0  2  0  0  0  0  0  0  0  0  0
    1.2663    0.4924   -0.5011 C   0  0  0  0  0  0  0  0  0  0  0  0
    2.3663    0.9461   -0.2189 O   0  0  0  0  0  0  0  0  0  0  0  0
    0.6077   -1.8438    0.0069 C   0  0  0  0  0  0  0  0  0  0  0  0
   -1.1162    0.9919    0.2928 H   0  0  0  0  0  0  0  0  0  0  0  0
    1.0085   -0.3098    1.4836 H   0  0  0  0  0  0  0  0  0  0  0  0
    0.0187   -1.9735   -0.9063 H   0  0  0  0  0  0  0  0  0  0  0  0
    1.6491   -2.1025   -0.2104 H   0  0  0  0  0  0  0  0  0  0  0  0
    0.2419   -2.5473    0.7594 H   0  0  0  0  0  0  0  0  0  0  0  0
    0.5528    1.0432   -1.5500 N   0  0  0  0  0  0  0  0  0  0  0  0
    0.6763    2.4680   -1.8810 C   0  0  2  0  0  0  0  0  0  0  0  0
   -0.3326    3.3035   -1.0600 C   0  0  0  0  0  0  0  0  0  0  0  0
   -1.2472    2.7413   -0.4589 O   0  0  0  0  0  0  0  0  0  0  0  0
    0.4224    2.6230   -3.3813 C   0  0  0  0  0  0  0  0  0  0  0  0
   -0.3900    0.6674   -1.6218 H   0  0  0  0  0  0  0  0  0  0  0  0
    1.6856    2.8327   -1.6614 H   0  0  0  0  0  0  0  0  0  0  0  0
   -0.5839    2.2770   -3.6390 H   0  0  0  0  0  0  0  0  0  0  0  0
    0.5174    3.6715   -3.6801 H   0  0  0  0  0  0  0  0  0  0  0  0
    1.1503    2.0345   -3.9493 H   0  0  0  0  0  0  0  0  0  0  0  0
   -0.2198    4.6785   -0.9880 N   0  0  0  0  0  0  0  0  0  0  0  0
   -1.1283    5.5169   -0.2150 C   0  0  0  0  0  0  0  0  0  0  0  0
    0.5743    5.1113   -1.4516 H   0  0  0  0  0  0  0  0  0  0  0  0
   -2.1568    5.3995   -0.5725 H   0  0  0  0  0  0  0  0  0  0  0  0
   -1.0909    5.2476    0.8459 H   0  0  0  0  0  0  0  0  0  0  0  0
   -0.8475    6.5699   -0.3144 H   0  0  0  0  0  0  0  0  0  0  0  0
  1  2  2  0  0  0  0
  1  3  1  0  0  0  0
  1  7  1  0  0  0  0
  3  4  1  0  0  0  0
  3  5  1  0  0  0  0
  3  6  1  0  0  0  0
  7  8  1  0  0  0  0
  7 12  1  0  0  0  0
  8  9  1  0  0  0  0
  8 11  1  0  0  0  0
  8 13  1  0  0  0  0
  9 10  2  0  0  0  0
  9 17  1  0  0  0  0
 11 14  1  0  0  0  0
 11 15  1  0  0  0  0
 11 16  1  0  0  0  0
 17 18  1  0  0  0  0
 17 22  1  0  0  0  0
 18 19  1  0  0  0  0
 18 21  1  0  0  0  0
 18 23  1  0  0  0  0
 19 20  2  0  0  0  0
 19 27  1  0  0  0  0
 21 24  1  0  0  0  0
 21 25  1  0  0  0  0
 21 26  1  0  0  0  0
 27 28  1  0  0  0  0
 27 32  1  0  0  0  0
 28 29  1  0  0  0  0
 28 31  1  0  0  0  0
 28 33  1  0  0  0  0
 29 30  2  0  0  0  0
 29 37  1  0  0  0  0
 31 34  1  0  0  0  0
 31 35  1  0  0  0  0
 31 36  1  0  0  0  0
 37 38  1  0  0  0  0
 37 39  1  0  0  0  0
 38 40  1  0  0  0  0
 38 41  1  0  0  0  0
 38 42  1  0  0  0  0
M  END
$$$$

  -OEChem-05262215353D

 42 41  0     1  0  0  0  0  0999 V2000
   -5.3569   -1.0218    1.5722 C   0  0  0  0  0  0  0  0  0  0  0  0
   -5.6282   -0.5391    0.4841 O   0  0  0  0  0  0  0  0  0  0  0  0
   -6.1953   -2.1594    2.1246 C   0  0  0  0  0  0  0  0  0  0  0  0
   -6.6362   -1.8668    3.0804 H   0  0  0  0  0  0  0  0  0  0  0  0
   -6.9999   -2.4093    1.4274 H   0  0  0  0  0  0  0  0  0  0  0  0
   -5.5717   -3.0444    2.2740 H   0  0  0  0  0  0  0  0  0  0  0  0
   -4.2840   -0.5550    2.3027 N   0  0  0  0  0  0  0  0  0  0  0  0
   -3.2488    0.3313    1.7500 C   0  0  2  0  0  0  0  0  0  0  0  0
   -1.9283   -0.4263    1.4952 C   0  0  0  0  0  0  0  0  0  0  0  0
   -1.6770   -1.4395    2.1373 O   0  0  0  0  0  0  0  0  0  0  0  0
   -3.0308    1.4704    2.7489 C   0  0  0  0  0  0  0  0  0  0  0  0
   -3.9937   -1.1500    3.0755 H   0  0  0  0  0  0  0  0  0  0  0  0
   -3.5742    0.7654    0.7986 H   0  0  0  0  0  0  0  0  0  0  0  0
   -2.6818    1.0776    3.7091 H   0  0  0  0  0  0  0  0  0  0  0  0
   -2.2848    2.1755    2.3697 H   0  0  0  0  0  0  0  0  0  0  0  0
   -3.9661    2.0150    2.9122 H   0  0  0  0  0  0  0  0  0  0  0  0
   -1.0018    0.1000    0.6133 N   0  0  0  0  0  0  0  0  0  0  0  0
    0.3830   -0.3867    0.4190 C   0  0  2  0  0  0  0  0  0  0  0  0
    1.1220    0.4488   -0.6482 C   0  0  0  0  0  0  0  0  0  0  0  0
    2.3208    0.6572   -0.5255 O   0  0  0  0  0  0  0  0  0  0  0  0
    0.3988   -1.8449   -0.0712 C   0  0  0  0  0  0  0  0  0  0  0  0
   -1.1855    1.0773    0.3630 H   0  0  0  0  0  0  0  0  0  0  0  0
    0.9356   -0.3106    1.3617 H   0  0  0  0  0  0  0  0  0  0  0  0
   -0.2353   -1.9606   -0.9556 H   0  0  0  0  0  0  0  0  0  0  0  0
    1.4188   -2.1448   -0.3326 H   0  0  0  0  0  0  0  0  0  0  0  0
    0.0431   -2.5288    0.7032 H   0  0  0  0  0  0  0  0  0  0  0  0
    0.3843    1.2666   -1.4843 N   0  0  0  0  0  0  0  0  0  0  0  0
    0.6824    2.6991   -1.6012 C   0  0  2  0  0  0  0  0  0  0  0  0
   -0.1800    3.5038   -0.6025 C   0  0  0  0  0  0  0  0  0  0  0  0
   -1.1320    2.9604   -0.0432 O   0  0  0  0  0  0  0  0  0  0  0  0
    0.3948    3.1255   -3.0419 C   0  0  0  0  0  0  0  0  0  0  0  0
   -0.6078    1.0412   -1.4759 H   0  0  0  0  0  0  0  0  0  0  0  0
    1.7374    2.8976   -1.3835 H   0  0  0  0  0  0  0  0  0  0  0  0
   -0.6628    2.9778   -3.2833 H   0  0  0  0  0  0  0  0  0  0  0  0
    0.6408    4.1820   -3.1854 H   0  0  0  0  0  0  0  0  0  0  0  0
    0.9974    2.5334   -3.7382 H   0  0  0  0  0  0  0  0  0  0  0  0
    0.1073    4.8249   -0.3190 N   0  0  0  0  0  0  0  0  0  0  0  0
   -0.6648    5.6278    0.6220 C   0  0  0  0  0  0  0  0  0  0  0  0
    0.9205    5.2380   -0.7674 H   0  0  0  0  0  0  0  0  0  0  0  0
   -1.7096    5.6955    0.3008 H   0  0  0  0  0  0  0  0  0  0  0  0
   -0.6317    5.1841    1.6227 H   0  0  0  0  0  0  0  0  0  0  0  0
   -0.2559    6.6411    0.6796 H   0  0  0  0  0  0  0  0  0  0  0  0
  1  2  2  0  0  0  0
  1  3  1  0  0  0  0
  1  7  1  0  0  0  0
  3  4  1  0  0  0  0
  3  5  1  0  0  0  0
  3  6  1  0  0  0  0
  7  8  1  0  0  0  0
  7 12  1  0  0  0  0
  8  9  1  0  0  0  0
  8 11  1  0  0  0  0
  8 13  1  0  0  0  0
  9 10  2  0  0  0  0
  9 17  1  0  0  0  0
 11 14  1  0  0  0  0
 11 15  1  0  0  0  0
 11 16  1  0  0  0  0
 17 18  1  0  0  0  0
 17 22  1  0  0  0  0
 18 19  1  0  0  0  0
 18 21  1  0  0  0  0
 18 23  1  0  0  0  0
 19 20  2  0  0  0  0
 19 27  1  0  0  0  0
 21 24  1  0  0  0  0
 21 25  1  0  0  0  0
 21 26  1  0  0  0  0
 27 28  1  0  0  0  0
 27 32  1  0  0  0  0
 28 29  1  0  0  0  0
 28 31  1  0  0  0  0
 28 33  1  0  0  0  0
 29 30  2  0  0  0  0
 29 37  1  0  0  0  0
 31 34  1  0  0  0  0
 31 35  1  0  0  0  0
 31 36  1  0  0  0  0
 37 38  1  0  0  0  0
 37 39  1  0  0  0  0
 38 40  1  0  0  0  0
 38 41  1  0  0  0  0
 38 42  1  0  0  0  0
M  END
$$$$

  -OEChem-05262215353D

 42 41  0     1  0  0  0  0  0999 V2000
   -5.4845   -1.6720    1.7770 C   0  0  0  0  0  0  0  0  0  0  0  0
   -5.9222   -0.9083    0.9309 O   0  0  0  0  0  0  0  0  0  0  0  0
   -6.1723   -3.0009    2.0271 C   0  0  0  0  0  0  0  0  0  0  0  0
   -6.5265   -3.0487    3.0597 H   0  0  0  0  0  0  0  0  0  0  0  0
   -7.0278   -3.1154    1.3554 H   0  0  0  0  0  0  0  0  0  0  0  0
   -5.4738   -3.8225    1.8501 H   0  0  0  0  0  0  0  0  0  0  0  0
   -4.3577   -1.3408    2.5004 N   0  0  0  0  0  0  0  0  0  0  0  0
   -3.4780   -0.2078    2.1796 C   0  0  2  0  0  0  0  0  0  0  0  0
   -2.0466   -0.6789    1.8478 C   0  0  0  0  0  0  0  0  0  0  0  0
   -1.6353   -1.7435    2.2943 O   0  0  0  0  0  0  0  0  0  0  0  0
   -3.4680    0.7337    3.3862 C   0  0  0  0  0  0  0  0  0  0  0  0
   -3.9402   -2.0935    3.0453 H   0  0  0  0  0  0  0  0  0  0  0  0
   -3.8553    0.3414    1.3108 H   0  0  0  0  0  0  0  0  0  0  0  0
   -3.0743    0.2214    4.2701 H   0  0  0  0  0  0  0  0  0  0  0  0
   -2.8436    1.6097    3.1848 H   0  0  0  0  0  0  0  0  0  0  0  0
   -4.4840    1.0771    3.6053 H   0  0  0  0  0  0  0  0  0  0  0  0
   -1.2008    0.1304    1.1083 N   0  0  0  0  0  0  0  0  0  0  0  0
    0.0511   -0.3445    0.4782 C   0  0  2  0  0  0  0  0  0  0  0  0
    0.7975    0.7796   -0.2804 C   0  0  0  0  0  0  0  0  0  0  0  0
    1.8212    0.5403   -0.9068 O   0  0  0  0  0  0  0  0  0  0  0  0
   -0.2595   -1.4803   -0.5165 C   0  0  0  0  0  0  0  0  0  0  0  0
   -1.6653    0.9194    0.6681 H   0  0  0  0  0  0  0  0  0  0  0  0
    0.7245   -0.7203    1.2564 H   0  0  0  0  0  0  0  0  0  0  0  0
   -0.9494   -1.1326   -1.2916 H   0  0  0  0  0  0  0  0  0  0  0  0
    0.6595   -1.8261   -1.0008 H   0  0  0  0  0  0  0  0  0  0  0  0
   -0.7075   -2.3401   -0.0115 H   0  0  0  0  0  0  0  0  0  0  0  0
    0.2866    2.0645   -0.3184 N   0  0  0  0  0  0  0  0  0  0  0  0
    0.9742    3.2131   -0.9195 C   0  0  2  0  0  0  0  0  0  0  0  0
    0.5994    4.5154   -0.1814 C   0  0  0  0  0  0  0  0  0  0  0  0
   -0.3133    4.5092    0.6396 O   0  0  0  0  0  0  0  0  0  0  0  0
    0.5876    3.2938   -2.3999 C   0  0  0  0  0  0  0  0  0  0  0  0
   -0.4039    2.2983    0.3925 H   0  0  0  0  0  0  0  0  0  0  0  0
    2.0586    3.0853   -0.8334 H   0  0  0  0  0  0  0  0  0  0  0  0
   -0.4919    3.4411   -2.5061 H   0  0  0  0  0  0  0  0  0  0  0  0
    1.1032    4.1261   -2.8879 H   0  0  0  0  0  0  0  0  0  0  0  0
    0.8653    2.3688   -2.9156 H   0  0  0  0  0  0  0  0  0  0  0  0
    1.2985    5.6850   -0.4135 N   0  0  0  0  0  0  0  0  0  0  0  0
    1.0163    6.9369    0.2784 C   0  0  0  0  0  0  0  0  0  0  0  0
    2.0675    5.6511   -1.0768 H   0  0  0  0  0  0  0  0  0  0  0  0
   -0.0168    7.2518    0.0968 H   0  0  0  0  0  0  0  0  0  0  0  0
    1.1646    6.8205    1.3571 H   0  0  0  0  0  0  0  0  0  0  0  0
    1.6848    7.7258   -0.0794 H   0  0  0  0  0  0  0  0  0  0  0  0
  1  2  2  0  0  0  0
  1  3  1  0  0  0  0
  1  7  1  0  0  0  0
  3  4  1  0  0  0  0
  3  5  1  0  0  0  0
  3  6  1  0  0  0  0
  7  8  1  0  0  0  0
  7 12  1  0  0  0  0
  8  9  1  0  0  0  0
  8 11  1  0  0  0  0
  8 13  1  0  0  0  0
  9 10  2  0  0  0  0
  9 17  1  0  0  0  0
 11 14  1  0  0  0  0
 11 15  1  0  0  0  0
 11 16  1  0  0  0  0
 17 18  1  0  0  0  0
 17 22  1  0  0  0  0
 18 19  1  0  0  0  0
 18 21  1  0  0  0  0
 18 23  1  0  0  0  0
 19 20  2  0  0  0  0
 19 27  1  0  0  0  0
 21 24  1  0  0  0  0
 21 25  1  0  0  0  0
 21 26  1  0  0  0  0
 27 28  1  0  0  0  0
 27 32  1  0  0  0  0
 28 29  1  0  0  0  0
 28 31  1  0  0  0  0
 28 33  1  0  0  0  0
 29 30  2  0  0  0  0
 29 37  1  0  0  0  0
 31 34  1  0  0  0  0
 31 35  1  0  0  0  0
 31 36  1  0  0  0  0
 37 38  1  0  0  0  0
 37 39  1  0  0  0  0
 38 40  1  0  0  0  0
 38 41  1  0  0  0  0
 38 42  1  0  0  0  0
M  END
$$$$

  -OEChem-05262215353D

 42 41  0     1  0  0  0  0  0999 V2000
   -5.5607   -1.5253    1.8052 C   0  0  0  0  0  0  0  0  0  0  0  0
   -6.0365   -0.6881    1.0545 O   0  0  0  0  0  0  0  0  0  0  0  0
   -6.3042   -2.8220    2.0648 C   0  0  0  0  0  0  0  0  0  0  0  0
   -6.5032   -2.9311    3.1339 H   0  0  0  0  0  0  0  0  0  0  0  0
   -7.2567   -2.8244    1.5272 H   0  0  0  0  0  0  0  0  0  0  0  0
   -5.7049   -3.6700    1.7241 H   0  0  0  0  0  0  0  0  0  0  0  0
   -4.3419   -1.3040    2.4117 N   0  0  0  0  0  0  0  0  0  0  0  0
   -3.4396   -0.1946    2.0745 C   0  0  2  0  0  0  0  0  0  0  0  0
   -2.0119   -0.6974    1.7758 C   0  0  0  0  0  0  0  0  0  0  0  0
   -1.6404   -1.7807    2.2122 O   0  0  0  0  0  0  0  0  0  0  0  0
   -3.4319    0.7816    3.2536 C   0  0  0  0  0  0  0  0  0  0  0  0
   -3.9197   -2.1008    2.8867 H   0  0  0  0  0  0  0  0  0  0  0  0
   -3.7950    0.3303    1.1816 H   0  0  0  0  0  0  0  0  0  0  0  0
   -3.0619    0.2883    4.1583 H   0  0  0  0  0  0  0  0  0  0  0  0
   -2.7885    1.6401    3.0380 H   0  0  0  0  0  0  0  0  0  0  0  0
   -4.4450    1.1489    3.4462 H   0  0  0  0  0  0  0  0  0  0  0  0
   -1.1278    0.1023    1.0727 N   0  0  0  0  0  0  0  0  0  0  0  0
    0.1379   -0.3767    0.4765 C   0  0  2  0  0  0  0  0  0  0  0  0
    0.8960    0.7707   -0.2360 C   0  0  0  0  0  0  0  0  0  0  0  0
    1.7831    0.5491   -1.0495 O   0  0  0  0  0  0  0  0  0  0  0  0
   -0.1474   -1.5054   -0.5348 C   0  0  0  0  0  0  0  0  0  0  0  0
   -1.5511    0.9235    0.6475 H   0  0  0  0  0  0  0  0  0  0  0  0
    0.7868   -0.7620    1.2702 H   0  0  0  0  0  0  0  0  0  0  0  0
   -0.8058   -1.1477   -1.3322 H   0  0  0  0  0  0  0  0  0  0  0  0
    0.7848   -1.8580   -0.9875 H   0  0  0  0  0  0  0  0  0  0  0  0
   -0.6208   -2.3634   -0.0505 H   0  0  0  0  0  0  0  0  0  0  0  0
    0.5378    2.0842    0.0071 N   0  0  0  0  0  0  0  0  0  0  0  0
    1.2323    3.2565   -0.5387 C   0  0  2  0  0  0  0  0  0  0  0  0
    1.0767    4.4709    0.4011 C   0  0  0  0  0  0  0  0  0  0  0  0
    0.2853    4.4198    1.3379 O   0  0  0  0  0  0  0  0  0  0  0  0
    0.6548    3.5676   -1.9235 C   0  0  0  0  0  0  0  0  0  0  0  0
   -0.0265    2.2531    0.8394 H   0  0  0  0  0  0  0  0  0  0  0  0
    2.3030    3.0437   -0.6302 H   0  0  0  0  0  0  0  0  0  0  0  0
   -0.4161    3.7830   -1.8520 H   0  0  0  0  0  0  0  0  0  0  0  0
    1.1560    4.4342   -2.3647 H   0  0  0  0  0  0  0  0  0  0  0  0
    0.7945    2.7134   -2.5936 H   0  0  0  0  0  0  0  0  0  0  0  0
    1.8325    5.6128    0.2107 N   0  0  0  0  0  0  0  0  0  0  0  0
    1.7466    6.7833    1.0761 C   0  0  0  0  0  0  0  0  0  0  0  0
    2.4907    5.6199   -0.5634 H   0  0  0  0  0  0  0  0  0  0  0  0
    0.7366    7.2060    1.0511 H   0  0  0  0  0  0  0  0  0  0  0  0
    1.9907    6.5150    2.1095 H   0  0  0  0  0  0  0  0  0  0  0  0
    2.4510    7.5519    0.7435 H   0  0  0  0  0  0  0  0  0  0  0  0
  1  2  2  0  0  0  0
  1  3  1  0  0  0  0
  1  7  1  0  0  0  0
  3  4  1  0  0  0  0
  3  5  1  0  0  0  0
  3  6  1  0  0  0  0
  7  8  1  0  0  0  0
  7 12  1  0  0  0  0
  8  9  1  0  0  0  0
  8 11  1  0  0  0  0
  8 13  1  0  0  0  0
  9 10  2  0  0  0  0
  9 17  1  0  0  0  0
 11 14  1  0  0  0  0
 11 15  1  0  0  0  0
 11 16  1  0  0  0  0
 17 18  1  0  0  0  0
 17 22  1  0  0  0  0
 18 19  1  0  0  0  0
 18 21  1  0  0  0  0
 18 23  1  0  0  0  0
 19 20  2  0  0  0  0
 19 27  1  0  0  0  0
 21 24  1  0  0  0  0
 21 25  1  0  0  0  0
 21 26  1  0  0  0  0
 27 28  1  0  0  0  0
 27 32  1  0  0  0  0
 28 29  1  0  0  0  0
 28 31  1  0  0  0  0
 28 33  1  0  0  0  0
 29 30  2  0  0  0  0
 29 37  1  0  0  0  0
 31 34  1  0  0  0  0
 31 35  1  0  0  0  0
 31 36  1  0  0  0  0
 37 38  1  0  0  0  0
 37 39  1  0  0  0  0
 38 40  1  0  0  0  0
 38 41  1  0  0  0  0
 38 42  1  0  0  0  0
M  END
$$$$

  -OEChem-05262215353D

 42 41  0     1  0  0  0  0  0999 V2000
   -5.6001   -1.4779    1.8795 C   0  0  0  0  0  0  0  0  0  0  0  0
   -6.1254   -0.6202    1.1872 O   0  0  0  0  0  0  0  0  0  0  0  0
   -6.3459   -2.7594    2.2006 C   0  0  0  0  0  0  0  0  0  0  0  0
   -6.5078   -2.8359    3.2787 H   0  0  0  0  0  0  0  0  0  0  0  0
   -7.3164   -2.7677    1.6966 H   0  0  0  0  0  0  0  0  0  0  0  0
   -5.7672   -3.6230    1.8633 H   0  0  0  0  0  0  0  0  0  0  0  0
   -4.3231   -1.2910    2.3650 N   0  0  0  0  0  0  0  0  0  0  0  0
   -3.4393   -0.1865    1.9689 C   0  0  2  0  0  0  0  0  0  0  0  0
   -1.9969   -0.6764    1.7210 C   0  0  0  0  0  0  0  0  0  0  0  0
   -1.6312   -1.7557    2.1724 O   0  0  0  0  0  0  0  0  0  0  0  0
   -3.4720    0.8687    3.0782 C   0  0  0  0  0  0  0  0  0  0  0  0
   -3.8763   -2.0940    2.8065 H   0  0  0  0  0  0  0  0  0  0  0  0
   -3.7944    0.2634    1.0356 H   0  0  0  0  0  0  0  0  0  0  0  0
   -3.1067    0.4466    4.0202 H   0  0  0  0  0  0  0  0  0  0  0  0
   -2.8451    1.7258    2.8141 H   0  0  0  0  0  0  0  0  0  0  0  0
   -4.4961    1.2247    3.2299 H   0  0  0  0  0  0  0  0  0  0  0  0
   -1.0986    0.1191    1.0304 N   0  0  0  0  0  0  0  0  0  0  0  0
    0.1800   -0.3600    0.4638 C   0  0  2  0  0  0  0  0  0  0  0  0
    0.9371    0.7951   -0.2368 C   0  0  0  0  0  0  0  0  0  0  0  0
    1.6658    0.6095   -1.2028 O   0  0  0  0  0  0  0  0  0  0  0  0
   -0.0774   -1.5049   -0.5378 C   0  0  0  0  0  0  0  0  0  0  0  0
   -1.5006    0.9547    0.6120 H   0  0  0  0  0  0  0  0  0  0  0  0
    0.8169   -0.7315    1.2733 H   0  0  0  0  0  0  0  0  0  0  0  0
   -0.7135   -1.1595   -1.3586 H   0  0  0  0  0  0  0  0  0  0  0  0
    0.8674   -1.8633   -0.9592 H   0  0  0  0  0  0  0  0  0  0  0  0
   -0.5639   -2.3562   -0.0550 H   0  0  0  0  0  0  0  0  0  0  0  0
    0.7731    2.0875    0.2259 N   0  0  0  0  0  0  0  0  0  0  0  0
    1.5226    3.2513   -0.2632 C   0  0  2  0  0  0  0  0  0  0  0  0
    1.6588    4.3232    0.8385 C   0  0  0  0  0  0  0  0  0  0  0  0
    0.9901    4.2343    1.8635 O   0  0  0  0  0  0  0  0  0  0  0  0
    0.7981    3.8225   -1.4868 C   0  0  0  0  0  0  0  0  0  0  0  0
    0.3286    2.1918    1.1385 H   0  0  0  0  0  0  0  0  0  0  0  0
    2.5342    2.9448   -0.5503 H   0  0  0  0  0  0  0  0  0  0  0  0
   -0.2160    4.1359   -1.2197 H   0  0  0  0  0  0  0  0  0  0  0  0
    1.3370    4.6875   -1.8845 H   0  0  0  0  0  0  0  0  0  0  0  0
    0.7326    3.0673   -2.2766 H   0  0  0  0  0  0  0  0  0  0  0  0
    2.5411    5.3774    0.6913 N   0  0  0  0  0  0  0  0  0  0  0  0
    2.7294    6.4097    1.7036 C   0  0  0  0  0  0  0  0  0  0  0  0
    3.0939    5.4155   -0.1605 H   0  0  0  0  0  0  0  0  0  0  0  0
    1.7896    6.9408    1.8881 H   0  0  0  0  0  0  0  0  0  0  0  0
    3.0744    5.9662    2.6439 H   0  0  0  0  0  0  0  0  0  0  0  0
    3.4767    7.1362    1.3696 H   0  0  0  0  0  0  0  0  0  0  0  0
  1  2  2  0  0  0  0
  1  3  1  0  0  0  0
  1  7  1  0  0  0  0
  3  4  1  0  0  0  0
  3  5  1  0  0  0  0
  3  6  1  0  0  0  0
  7  8  1  0  0  0  0
  7 12  1  0  0  0  0
  8  9  1  0  0  0  0
  8 11  1  0  0  0  0
  8 13  1  0  0  0  0
  9 10  2  0  0  0  0
  9 17  1  0  0  0  0
 11 14  1  0  0  0  0
 11 15  1  0  0  0  0
 11 16  1  0  0  0  0
 17 18  1  0  0  0  0
 17 22  1  0  0  0  0
 18 19  1  0  0  0  0
 18 21  1  0  0  0  0
 18 23  1  0  0  0  0
 19 20  2  0  0  0  0
 19 27  1  0  0  0  0
 21 24  1  0  0  0  0
 21 25  1  0  0  0  0
 21 26  1  0  0  0  0
 27 28  1  0  0  0  0
 27 32  1  0  0  0  0
 28 29  1  0  0  0  0
 28 31  1  0  0  0  0
 28 33  1  0  0  0  0
 29 30  2  0  0  0  0
 29 37  1  0  0  0  0
 31 34  1  0  0  0  0
 31 35  1  0  0  0  0
 31 36  1  0  0  0  0
 37 38  1  0  0  0  0
 37 39  1  0  0  0  0
 38 40  1  0  0  0  0
 38 41  1  0  0  0  0
 38 42  1  0  0  0  0
M  END
$$$$

  -OEChem-05262215353D

 42 41  0     1  0  0  0  0  0999 V2000
   -5.6088   -1.4039    1.9305 C   0  0  0  0  0  0  0  0  0  0  0  0
   -6.1504   -0.5249    1.2790 O   0  0  0  0  0  0  0  0  0  0  0  0
   -6.3672   -2.6704    2.2812 C   0  0  0  0  0  0  0  0  0  0  0  0
   -6.4719   -2.7546    3.3656 H   0  0  0  0  0  0  0  0  0  0  0  0
   -7.3638   -2.6497    1.8316 H   0  0  0  0  0  0  0  0  0  0  0  0
   -5.8295   -3.5442    1.9051 H   0  0  0  0  0  0  0  0  0  0  0  0
   -4.3009   -1.2537    2.3401 N   0  0  0  0  0  0  0  0  0  0  0  0
   -3.4169   -0.1634    1.9082 C   0  0  2  0  0  0  0  0  0  0  0  0
   -1.9762   -0.6659    1.6743 C   0  0  0  0  0  0  0  0  0  0  0  0
   -1.6253   -1.7496    2.1272 O   0  0  0  0  0  0  0  0  0  0  0  0
   -3.4453    0.9285    2.9819 C   0  0  0  0  0  0  0  0  0  0  0  0
   -3.8488   -2.0674    2.7560 H   0  0  0  0  0  0  0  0  0  0  0  0
   -3.7744    0.2545    0.9610 H   0  0  0  0  0  0  0  0  0  0  0  0
   -3.0756    0.5374    3.9353 H   0  0  0  0  0  0  0  0  0  0  0  0
   -2.8203    1.7770    2.6872 H   0  0  0  0  0  0  0  0  0  0  0  0
   -4.4687    1.2893    3.1268 H   0  0  0  0  0  0  0  0  0  0  0  0
   -1.0616    0.1219    0.9968 N   0  0  0  0  0  0  0  0  0  0  0  0
    0.2240   -0.3611    0.4542 C   0  0  2  0  0  0  0  0  0  0  0  0
    0.9809    0.8020   -0.2318 C   0  0  0  0  0  0  0  0  0  0  0  0
    1.5034    0.6938   -1.3337 O   0  0  0  0  0  0  0  0  0  0  0  0
   -0.0105   -1.5158   -0.5426 C   0  0  0  0  0  0  0  0  0  0  0  0
   -1.4416    0.9728    0.5887 H   0  0  0  0  0  0  0  0  0  0  0  0
    0.8491   -0.7264    1.2757 H   0  0  0  0  0  0  0  0  0  0  0  0
   -0.6514   -1.1863   -1.3665 H   0  0  0  0  0  0  0  0  0  0  0  0
    0.9427   -1.8566   -0.9596 H   0  0  0  0  0  0  0  0  0  0  0  0
   -0.4822   -2.3741   -0.0568 H   0  0  0  0  0  0  0  0  0  0  0  0
    1.0491    2.0231    0.4121 N   0  0  0  0  0  0  0  0  0  0  0  0
    1.8356    3.1721   -0.0547 C   0  0  2  0  0  0  0  0  0  0  0  0
    2.2818    4.0595    1.1268 C   0  0  0  0  0  0  0  0  0  0  0  0
    1.7810    3.8997    2.2351 O   0  0  0  0  0  0  0  0  0  0  0  0
    0.9855    3.9786   -1.0418 C   0  0  0  0  0  0  0  0  0  0  0  0
    0.7459    2.0472    1.3865 H   0  0  0  0  0  0  0  0  0  0  0  0
    2.7405    2.8177   -0.5603 H   0  0  0  0  0  0  0  0  0  0  0  0
    0.0767    4.3450   -0.5536 H   0  0  0  0  0  0  0  0  0  0  0  0
    1.5478    4.8368   -1.4217 H   0  0  0  0  0  0  0  0  0  0  0  0
    0.6967    3.3537   -1.8932 H   0  0  0  0  0  0  0  0  0  0  0  0
    3.2520    5.0295    0.9533 N   0  0  0  0  0  0  0  0  0  0  0  0
    3.7324    5.8825    2.0341 C   0  0  0  0  0  0  0  0  0  0  0  0
    3.6630    5.1269    0.0292 H   0  0  0  0  0  0  0  0  0  0  0  0
    2.9112    6.4782    2.4465 H   0  0  0  0  0  0  0  0  0  0  0  0
    4.1659    5.2768    2.8371 H   0  0  0  0  0  0  0  0  0  0  0  0
    4.5026    6.5660    1.6634 H   0  0  0  0  0  0  0  0  0  0  0  0
  1  2  2  0  0  0  0
  1  3  1  0  0  0  0
  1  7  1  0  0  0  0
  3  4  1  0  0  0  0
  3  5  1  0  0  0  0
  3  6  1  0  0  0  0
  7  8  1  0  0  0  0
  7 12  1  0  0  0  0
  8  9  1  0  0  0  0
  8 11  1  0  0  0  0
  8 13  1  0  0  0  0
  9 10  2  0  0  0  0
  9 17  1  0  0  0  0
 11 14  1  0  0  0  0
 11 15  1  0  0  0  0
 11 16  1  0  0  0  0
 17 18  1  0  0  0  0
 17 22  1  0  0  0  0
 18 19  1  0  0  0  0
 18 21  1  0  0  0  0
 18 23  1  0  0  0  0
 19 20  2  0  0  0  0
 19 27  1  0  0  0  0
 21 24  1  0  0  0  0
 21 25  1  0  0  0  0
 21 26  1  0  0  0  0
 27 28  1  0  0  0  0
 27 32  1  0  0  0  0
 28 29  1  0  0  0  0
 28 31  1  0  0  0  0
 28 33  1  0  0  0  0
 29 30  2  0  0  0  0
 29 37  1  0  0  0  0
 31 34  1  0  0  0  0
 31 35  1  0  0  0  0
 31 36  1  0  0  0  0
 37 38  1  0  0  0  0
 37 39  1  0  0  0  0
 38 40  1  0  0  0  0
 38 41  1  0  0  0  0
 38 42  1  0  0  0  0
M  END
$$$$

  -OEChem-05262215353D

 42 41  0     1  0  0  0  0  0999 V2000
   -5.6083   -1.3292    1.9332 C   0  0  0  0  0  0  0  0  0  0  0  0
   -6.1349   -0.4081    1.3290 O   0  0  0  0  0  0  0  0  0  0  0  0
   -6.4023   -2.5812    2.2558 C   0  0  0  0  0  0  0  0  0  0  0  0
   -6.4833   -2.7025    3.3387 H   0  0  0  0  0  0  0  0  0  0  0  0
   -7.4082   -2.5089    1.8326 H   0  0  0  0  0  0  0  0  0  0  0  0
   -5.9055   -3.4582    1.8335 H   0  0  0  0  0  0  0  0  0  0  0  0
   -4.2868   -1.2371    2.3156 N   0  0  0  0  0  0  0  0  0  0  0  0
   -3.3811   -0.1553    1.9078 C   0  0  2  0  0  0  0  0  0  0  0  0
   -1.9468   -0.6733    1.6722 C   0  0  0  0  0  0  0  0  0  0  0  0
   -1.6097   -1.7667    2.1124 O   0  0  0  0  0  0  0  0  0  0  0  0
   -3.3939    0.9206    2.9975 C   0  0  0  0  0  0  0  0  0  0  0  0
   -3.8530   -2.0754    2.7012 H   0  0  0  0  0  0  0  0  0  0  0  0
   -3.7274    0.2824    0.9652 H   0  0  0  0  0  0  0  0  0  0  0  0
   -3.0312    0.5100    3.9454 H   0  0  0  0  0  0  0  0  0  0  0  0
   -2.7548    1.7624    2.7148 H   0  0  0  0  0  0  0  0  0  0  0  0
   -4.4114    1.2958    3.1464 H   0  0  0  0  0  0  0  0  0  0  0  0
   -1.0248    0.1130    1.0040 N   0  0  0  0  0  0  0  0  0  0  0  0
    0.2657   -0.3665    0.4751 C   0  0  2  0  0  0  0  0  0  0  0  0
    1.0203    0.8029   -0.2014 C   0  0  0  0  0  0  0  0  0  0  0  0
    1.3009    0.8064   -1.3934 O   0  0  0  0  0  0  0  0  0  0  0  0
    0.0431   -1.5194   -0.5252 C   0  0  0  0  0  0  0  0  0  0  0  0
   -1.3913    0.9767    0.6105 H   0  0  0  0  0  0  0  0  0  0  0  0
    0.8848   -0.7336    1.3005 H   0  0  0  0  0  0  0  0  0  0  0  0
   -0.6165   -1.1994   -1.3379 H   0  0  0  0  0  0  0  0  0  0  0  0
    0.9977   -1.8353   -0.9578 H   0  0  0  0  0  0  0  0  0  0  0  0
   -0.4039   -2.3897   -0.0378 H   0  0  0  0  0  0  0  0  0  0  0  0
    1.3491    1.9120    0.5542 N   0  0  0  0  0  0  0  0  0  0  0  0
    2.1540    3.0431    0.0738 C   0  0  2  0  0  0  0  0  0  0  0  0
    2.9286    3.7125    1.2286 C   0  0  0  0  0  0  0  0  0  0  0  0
    2.6391    3.4537    2.3920 O   0  0  0  0  0  0  0  0  0  0  0  0
    1.2250    4.0537   -0.6076 C   0  0  0  0  0  0  0  0  0  0  0  0
    1.2056    1.8492    1.5628 H   0  0  0  0  0  0  0  0  0  0  0  0
    2.8926    2.6851   -0.6513 H   0  0  0  0  0  0  0  0  0  0  0  0
    0.4865    4.4361    0.1043 H   0  0  0  0  0  0  0  0  0  0  0  0
    1.7988    4.8973   -1.0026 H   0  0  0  0  0  0  0  0  0  0  0  0
    0.6944    3.5814   -1.4402 H   0  0  0  0  0  0  0  0  0  0  0  0
    3.9581    4.5974    0.9650 N   0  0  0  0  0  0  0  0  0  0  0  0
    4.7399    5.2506    2.0084 C   0  0  0  0  0  0  0  0  0  0  0  0
    4.1935    4.7709   -0.0081 H   0  0  0  0  0  0  0  0  0  0  0  0
    4.0943    5.8688    2.6412 H   0  0  0  0  0  0  0  0  0  0  0  0
    5.2394    4.5055    2.6365 H   0  0  0  0  0  0  0  0  0  0  0  0
    5.5045    5.8939    1.5619 H   0  0  0  0  0  0  0  0  0  0  0  0
  1  2  2  0  0  0  0
  1  3  1  0  0  0  0
  1  7  1  0  0  0  0
  3  4  1  0  0  0  0
  3  5  1  0  0  0  0
  3  6  1  0  0  0  0
  7  8  1  0  0  0  0
  7 12  1  0  0  0  0
  8  9  1  0  0  0  0
  8 11  1  0  0  0  0
  8 13  1  0  0  0  0
  9 10  2  0  0  0  0
  9 17  1  0  0  0  0
 11 14  1  0  0  0  0
 11 15  1  0  0  0  0
 11 16  1  0  0  0  0
 17 18  1  0  0  0  0
 17 22  1  0  0  0  0
 18 19  1  0  0  0  0
 18 21  1  0  0  0  0
 18 23  1  0  0  0  0
 19 20  2  0  0  0  0
 19 27  1  0  0  0  0
 21 24  1  0  0  0  0
 21 25  1  0  0  0  0
 21 26  1  0  0  0  0
 27 28  1  0  0  0  0
 27 32  1  0  0  0  0
 28 29  1  0  0  0  0
 28 31  1  0  0  0  0
 28 33  1  0  0  0  0
 29 30  2  0  0  0  0
 29 37  1  0  0  0  0
 31 34  1  0  0  0  0
 31 35  1  0  0  0  0
 31 36  1  0  0  0  0
 37 38  1  0  0  0  0
 37 39  1  0  0  0  0
 38 40  1  0  0  0  0
 38 41  1  0  0  0  0
 38 42  1  0  0  0  0
M  END
$$$$

  -OEChem-05262215353D

 42 41  0     1  0  0  0  0  0999 V2000
   -5.6078   -1.3228    1.9581 C   0  0  0  0  0  0  0  0  0  0  0  0
   -6.1522   -0.3991    1.3742 O   0  0  0  0  0  0  0  0  0  0  0  0
   -6.3945   -2.5718    2.3092 C   0  0  0  0  0  0  0  0  0  0  0  0
   -6.4396   -2.6915    3.3943 H   0  0  0  0  0  0  0  0  0  0  0  0
   -7.4138   -2.4974    1.9199 H   0  0  0  0  0  0  0  0  0  0  0  0
   -5.9152   -3.4511    1.8723 H   0  0  0  0  0  0  0  0  0  0  0  0
   -4.2729   -1.2359    2.2917 N   0  0  0  0  0  0  0  0  0  0  0  0
   -3.3804   -0.1487    1.8700 C   0  0  2  0  0  0  0  0  0  0  0  0
   -1.9341   -0.6493    1.6687 C   0  0  0  0  0  0  0  0  0  0  0  0
   -1.5943   -1.7390    2.1168 O   0  0  0  0  0  0  0  0  0  0  0  0
   -3.4292    0.9547    2.9313 C   0  0  0  0  0  0  0  0  0  0  0  0
   -3.8283   -2.0718    2.6703 H   0  0  0  0  0  0  0  0  0  0  0  0
   -3.7211    0.2569    0.9111 H   0  0  0  0  0  0  0  0  0  0  0  0
   -3.0858    0.5711    3.8973 H   0  0  0  0  0  0  0  0  0  0  0  0
   -2.7921    1.7962    2.6433 H   0  0  0  0  0  0  0  0  0  0  0  0
   -4.4535    1.3234    3.0470 H   0  0  0  0  0  0  0  0  0  0  0  0
   -1.0055    0.1399    1.0133 N   0  0  0  0  0  0  0  0  0  0  0  0
    0.2817   -0.3491    0.4884 C   0  0  2  0  0  0  0  0  0  0  0  0
    1.0549    0.8140   -0.1743 C   0  0  0  0  0  0  0  0  0  0  0  0
    1.0678    0.9788   -1.3877 O   0  0  0  0  0  0  0  0  0  0  0  0
    0.0548   -1.4869   -0.5269 C   0  0  0  0  0  0  0  0  0  0  0  0
   -1.3752    0.9899    0.5936 H   0  0  0  0  0  0  0  0  0  0  0  0
    0.8906   -0.7342    1.3128 H   0  0  0  0  0  0  0  0  0  0  0  0
   -0.6240   -1.1629   -1.3226 H   0  0  0  0  0  0  0  0  0  0  0  0
    1.0056   -1.7822   -0.9817 H   0  0  0  0  0  0  0  0  0  0  0  0
   -0.3728   -2.3696   -0.0435 H   0  0  0  0  0  0  0  0  0  0  0  0
    1.6672    1.7594    0.6253 N   0  0  0  0  0  0  0  0  0  0  0  0
    2.4946    2.8666    0.1279 C   0  0  2  0  0  0  0  0  0  0  0  0
    3.5782    3.2646    1.1519 C   0  0  0  0  0  0  0  0  0  0  0  0
    3.5183    2.8456    2.3028 O   0  0  0  0  0  0  0  0  0  0  0  0
    1.5815    4.0582   -0.1797 C   0  0  0  0  0  0  0  0  0  0  0  0
    1.7157    1.5668    1.6264 H   0  0  0  0  0  0  0  0  0  0  0  0
    3.0087    2.5590   -0.7891 H   0  0  0  0  0  0  0  0  0  0  0  0
    1.0603    4.3848    0.7259 H   0  0  0  0  0  0  0  0  0  0  0  0
    2.1637    4.8986   -0.5692 H   0  0  0  0  0  0  0  0  0  0  0  0
    0.8351    3.7812   -0.9310 H   0  0  0  0  0  0  0  0  0  0  0  0
    4.6274    4.0856    0.7817 N   0  0  0  0  0  0  0  0  0  0  0  0
    5.6903    4.4884    1.6950 C   0  0  0  0  0  0  0  0  0  0  0  0
    4.6598    4.4036   -0.1826 H   0  0  0  0  0  0  0  0  0  0  0  0
    5.2757    5.0260    2.5542 H   0  0  0  0  0  0  0  0  0  0  0  0
    6.2366    3.6116    2.0585 H   0  0  0  0  0  0  0  0  0  0  0  0
    6.3979    5.1486    1.1843 H   0  0  0  0  0  0  0  0  0  0  0  0
  1  2  2  0  0  0  0
  1  3  1  0  0  0  0
  1  7  1  0  0  0  0
  3  4  1  0  0  0  0
  3  5  1  0  0  0  0
  3  6  1  0  0  0  0
  7  8  1  0  0  0  0
  7 12  1  0  0  0  0
  8  9  1  0  0  0  0
  8 11  1  0  0  0  0
  8 13  1  0  0  0  0
  9 10  2  0  0  0  0
  9 17  1  0  0  0  0
 11 14  1  0  0  0  0
 11 15  1  0  0  0  0
 11 16  1  0  0  0  0
 17 18  1  0  0  0  0
 17 22  1  0  0  0  0
 18 19  1  0  0  0  0
 18 21  1  0  0  0  0
 18 23  1  0  0  0  0
 19 20  2  0  0  0  0
 19 27  1  0  0  0  0
 21 24  1  0  0  0  0
 21 25  1  0  0  0  0
 21 26  1  0  0  0  0
 27 28  1  0  0  0  0
 27 32  1  0  0  0  0
 28 29  1  0  0  0  0
 28 31  1  0  0  0  0
 28 33  1  0  0  0  0
 29 30  2  0  0  0  0
 29 37  1  0  0  0  0
 31 34  1  0  0  0  0
 31 35  1  0  0  0  0
 31 36  1  0  0  0  0
 37 38  1  0  0  0  0
 37 39  1  0  0  0  0
 38 40  1  0  0  0  0
 38 41  1  0  0  0  0
 38 42  1  0  0  0  0
M  END
$$$$

  -OEChem-05262215353D

 42 41  0     1  0  0  0  0  0999 V2000
   -5.5963   -1.3099    1.9729 C   0  0  0  0  0  0  0  0  0  0  0  0
   -6.1428   -0.3998    1.3699 O   0  0  0  0  0  0  0  0  0  0  0  0
   -6.3810   -2.5512    2.3538 C   0  0  0  0  0  0  0  0  0  0  0  0
   -6.4123   -2.6545    3.4413 H   0  0  0  0  0  0  0  0  0  0  0  0
   -7.4052   -2.4801    1.9768 H   0  0  0  0  0  0  0  0  0  0  0  0
   -5.9081   -3.4376    1.9238 H   0  0  0  0  0  0  0  0  0  0  0  0
   -4.2603   -1.2172    2.2994 N   0  0  0  0  0  0  0  0  0  0  0  0
   -3.3691   -0.1427    1.8438 C   0  0  2  0  0  0  0  0  0  0  0  0
   -1.9253   -0.6493    1.6442 C   0  0  0  0  0  0  0  0  0  0  0  0
   -1.5913   -1.7432    2.0864 O   0  0  0  0  0  0  0  0  0  0  0  0
   -3.4074    0.9864    2.8780 C   0  0  0  0  0  0  0  0  0  0  0  0
   -3.8141   -2.0477    2.6880 H   0  0  0  0  0  0  0  0  0  0  0  0
   -3.7157    0.2404    0.8778 H   0  0  0  0  0  0  0  0  0  0  0  0
   -3.0518    0.6272    3.8492 H   0  0  0  0  0  0  0  0  0  0  0  0
   -2.7750    1.8213    2.5616 H   0  0  0  0  0  0  0  0  0  0  0  0
   -4.4311    1.3562    2.9963 H   0  0  0  0  0  0  0  0  0  0  0  0
   -0.9895    0.1434    1.0049 N   0  0  0  0  0  0  0  0  0  0  0  0
    0.3023   -0.3425    0.4942 C   0  0  2  0  0  0  0  0  0  0  0  0
    1.0793    0.8249   -0.1507 C   0  0  0  0  0  0  0  0  0  0  0  0
    0.8610    1.1751   -1.3039 O   0  0  0  0  0  0  0  0  0  0  0  0
    0.0942   -1.4656   -0.5388 C   0  0  0  0  0  0  0  0  0  0  0  0
   -1.3518    0.9962    0.5835 H   0  0  0  0  0  0  0  0  0  0  0  0
    0.8988   -0.7369    1.3233 H   0  0  0  0  0  0  0  0  0  0  0  0
   -0.5839   -1.1387   -1.3335 H   0  0  0  0  0  0  0  0  0  0  0  0
    1.0506   -1.7431   -0.9924 H   0  0  0  0  0  0  0  0  0  0  0  0
   -0.3271   -2.3588   -0.0694 H   0  0  0  0  0  0  0  0  0  0  0  0
    1.9343    1.5853    0.6225 N   0  0  0  0  0  0  0  0  0  0  0  0
    2.7766    2.6747    0.1123 C   0  0  2  0  0  0  0  0  0  0  0  0
    4.0948    2.7828    0.9075 C   0  0  0  0  0  0  0  0  0  0  0  0
    4.2211    2.1850    1.9710 O   0  0  0  0  0  0  0  0  0  0  0  0
    1.9850    3.9834    0.1967 C   0  0  0  0  0  0  0  0  0  0  0  0
    2.1518    1.2417    1.5584 H   0  0  0  0  0  0  0  0  0  0  0  0
    3.0404    2.4794   -0.9328 H   0  0  0  0  0  0  0  0  0  0  0  0
    1.7204    4.2042    1.2357 H   0  0  0  0  0  0  0  0  0  0  0  0
    2.5750    4.8162   -0.1978 H   0  0  0  0  0  0  0  0  0  0  0  0
    1.0638    3.9071   -0.3896 H   0  0  0  0  0  0  0  0  0  0  0  0
    5.1491    3.5334    0.4215 N   0  0  0  0  0  0  0  0  0  0  0  0
    6.4368    3.6343    1.0980 C   0  0  0  0  0  0  0  0  0  0  0  0
    5.0269    3.9916   -0.4770 H   0  0  0  0  0  0  0  0  0  0  0  0
    6.3093    4.0387    2.1078 H   0  0  0  0  0  0  0  0  0  0  0  0
    6.9094    2.6489    1.1697 H   0  0  0  0  0  0  0  0  0  0  0  0
    7.1051    4.2990    0.5422 H   0  0  0  0  0  0  0  0  0  0  0  0
  1  2  2  0  0  0  0
  1  3  1  0  0  0  0
  1  7  1  0  0  0  0
  3  4  1  0  0  0  0
  3  5  1  0  0  0  0
  3  6  1  0  0  0  0
  7  8  1  0  0  0  0
  7 12  1  0  0  0  0
  8  9  1  0  0  0  0
  8 11  1  0  0  0  0
  8 13  1  0  0  0  0
  9 10  2  0  0  0  0
  9 17  1  0  0  0  0
 11 14  1  0  0  0  0
 11 15  1  0  0  0  0
 11 16  1  0  0  0  0
 17 18  1  0  0  0  0
 17 22  1  0  0  0  0
 18 19  1  0  0  0  0
 18 21  1  0  0  0  0
 18 23  1  0  0  0  0
 19 20  2  0  0  0  0
 19 27  1  0  0  0  0
 21 24  1  0  0  0  0
 21 25  1  0  0  0  0
 21 26  1  0  0  0  0
 27 28  1  0  0  0  0
 27 32  1  0  0  0  0
 28 29  1  0  0  0  0
 28 31  1  0  0  0  0
 28 33  1  0  0  0  0
 29 30  2  0  0  0  0
 29 37  1  0  0  0  0
 31 34  1  0  0  0  0
 31 35  1  0  0  0  0
 31 36  1  0  0  0  0
 37 38  1  0  0  0  0
 37 39  1  0  0  0  0
 38 40  1  0  0  0  0
 38 41  1  0  0  0  0
 38 42  1  0  0  0  0
M  END
$$$$

  -OEChem-05262215353D

 42 41  0     1  0  0  0  0  0999 V2000
   -5.5893   -1.2541    1.9506 C   0  0  0  0  0  0  0  0  0  0  0  0
   -6.1130   -0.3112    1.3784 O   0  0  0  0  0  0  0  0  0  0  0  0
   -6.4021   -2.4935    2.2751 C   0  0  0  0  0  0  0  0  0  0  0  0
   -6.4829   -2.6119    3.3583 H   0  0  0  0  0  0  0  0  0  0  0  0
   -7.4075   -2.4057    1.8538 H   0  0  0  0  0  0  0  0  0  0  0  0
   -5.9204   -3.3793    1.8533 H   0  0  0  0  0  0  0  0  0  0  0  0
   -4.2552   -1.1982    2.2941 N   0  0  0  0  0  0  0  0  0  0  0  0
   -3.3402   -0.1237    1.8880 C   0  0  2  0  0  0  0  0  0  0  0  0
   -1.9035   -0.6501    1.6842 C   0  0  0  0  0  0  0  0  0  0  0  0
   -1.5874   -1.7550    2.1127 O   0  0  0  0  0  0  0  0  0  0  0  0
   -3.3708    0.9694    2.9608 C   0  0  0  0  0  0  0  0  0  0  0  0
   -3.8279   -2.0494    2.6584 H   0  0  0  0  0  0  0  0  0  0  0  0
   -3.6700    0.2992    0.9329 H   0  0  0  0  0  0  0  0  0  0  0  0
   -3.0265    0.5726    3.9212 H   0  0  0  0  0  0  0  0  0  0  0  0
   -2.7256    1.8061    2.6768 H   0  0  0  0  0  0  0  0  0  0  0  0
   -4.3903    1.3484    3.0854 H   0  0  0  0  0  0  0  0  0  0  0  0
   -0.9573    0.1297    1.0445 N   0  0  0  0  0  0  0  0  0  0  0  0
    0.3268   -0.3702    0.5286 C   0  0  2  0  0  0  0  0  0  0  0  0
    1.1166    0.7881   -0.1151 C   0  0  0  0  0  0  0  0  0  0  0  0
    0.7040    1.3258   -1.1358 O   0  0  0  0  0  0  0  0  0  0  0  0
    0.1064   -1.4736   -0.5208 C   0  0  0  0  0  0  0  0  0  0  0  0
   -1.3070    0.9866    0.6192 H   0  0  0  0  0  0  0  0  0  0  0  0
    0.9174   -0.7799    1.3547 H   0  0  0  0  0  0  0  0  0  0  0  0
   -0.5561   -1.1195   -1.3174 H   0  0  0  0  0  0  0  0  0  0  0  0
    1.0614   -1.7660   -0.9684 H   0  0  0  0  0  0  0  0  0  0  0  0
   -0.3400   -2.3630   -0.0673 H   0  0  0  0  0  0  0  0  0  0  0  0
    2.2001    1.3428    0.5375 N   0  0  0  0  0  0  0  0  0  0  0  0
    3.0431    2.4141   -0.0091 C   0  0  2  0  0  0  0  0  0  0  0  0
    4.5017    2.2838    0.4776 C   0  0  0  0  0  0  0  0  0  0  0  0
    4.7729    1.5293    1.4056 O   0  0  0  0  0  0  0  0  0  0  0  0
    2.4493    3.7612    0.4140 C   0  0  0  0  0  0  0  0  0  0  0  0
    2.5653    0.8471    1.3511 H   0  0  0  0  0  0  0  0  0  0  0  0
    3.0562    2.3525   -1.1026 H   0  0  0  0  0  0  0  0  0  0  0  0
    2.4342    3.8462    1.5054 H   0  0  0  0  0  0  0  0  0  0  0  0
    3.0400    4.5876    0.0074 H   0  0  0  0  0  0  0  0  0  0  0  0
    1.4240    3.8563    0.0425 H   0  0  0  0  0  0  0  0  0  0  0  0
    5.5157    2.9962   -0.1357 N   0  0  0  0  0  0  0  0  0  0  0  0
    6.9162    2.8885    0.2558 C   0  0  0  0  0  0  0  0  0  0  0  0
    5.2672    3.5924   -0.9200 H   0  0  0  0  0  0  0  0  0  0  0  0
    7.0429    3.1679    1.3071 H   0  0  0  0  0  0  0  0  0  0  0  0
    7.2744    1.8627    0.1186 H   0  0  0  0  0  0  0  0  0  0  0  0
    7.5330    3.5546   -0.3549 H   0  0  0  0  0  0  0  0  0  0  0  0
  1  2  2  0  0  0  0
  1  3  1  0  0  0  0
  1  7  1  0  0  0  0
  3  4  1  0  0  0  0
  3  5  1  0  0  0  0
  3  6  1  0  0  0  0
  7  8  1  0  0  0  0
  7 12  1  0  0  0  0
  8  9  1  0  0  0  0
  8 11  1  0  0  0  0
  8 13  1  0  0  0  0
  9 10  2  0  0  0  0
  9 17  1  0  0  0  0
 11 14  1  0  0  0  0
 11 15  1  0  0  0  0
 11 16  1  0  0  0  0
 17 18  1  0  0  0  0
 17 22  1  0  0  0  0
 18 19  1  0  0  0  0
 18 21  1  0  0  0  0
 18 23  1  0  0  0  0
 19 20  2  0  0  0  0
 19 27  1  0  0  0  0
 21 24  1  0  0  0  0
 21 25  1  0  0  0  0
 21 26  1  0  0  0  0
 27 28  1  0  0  0  0
 27 32  1  0  0  0  0
 28 29  1  0  0  0  0
 28 31  1  0  0  0  0
 28 33  1  0  0  0  0
 29 30  2  0  0  0  0
 29 37  1  0  0  0  0
 31 34  1  0  0  0  0
 31 35  1  0  0  0  0
 31 36  1  0  0  0  0
 37 38  1  0  0  0  0
 37 39  1  0  0  0  0
 38 40  1  0  0  0  0
 38 41  1  0  0  0  0
 38 42  1  0  0  0  0
M  END
$$$$

  -OEChem-05262215353D

 42 41  0     1  0  0  0  0  0999 V2000
   -5.5821   -1.2509    1.9749 C   0  0  0  0  0  0  0  0  0  0  0  0
   -6.1150   -0.3155    1.3994 O   0  0  0  0  0  0  0  0  0  0  0  0
   -6.3860   -2.4894    2.3217 C   0  0  0  0  0  0  0  0  0  0  0  0
   -6.4331   -2.6108    3.4065 H   0  0  0  0  0  0  0  0  0  0  0  0
   -7.4034   -2.3994    1.9316 H   0  0  0  0  0  0  0  0  0  0  0  0
   -5.9182   -3.3738    1.8825 H   0  0  0  0  0  0  0  0  0  0  0  0
   -4.2454   -1.1883    2.3050 N   0  0  0  0  0  0  0  0  0  0  0  0
   -3.3352   -0.1156    1.8840 C   0  0  2  0  0  0  0  0  0  0  0  0
   -1.8983   -0.6433    1.6825 C   0  0  0  0  0  0  0  0  0  0  0  0
   -1.5884   -1.7561    2.0959 O   0  0  0  0  0  0  0  0  0  0  0  0
   -3.3663    0.9882    2.9457 C   0  0  0  0  0  0  0  0  0  0  0  0
   -3.8129   -2.0354    2.6726 H   0  0  0  0  0  0  0  0  0  0  0  0
   -3.6685    0.2966    0.9252 H   0  0  0  0  0  0  0  0  0  0  0  0
   -3.0239    0.6008    3.9105 H   0  0  0  0  0  0  0  0  0  0  0  0
   -2.7203    1.8219    2.6545 H   0  0  0  0  0  0  0  0  0  0  0  0
   -4.3856    1.3693    3.0653 H   0  0  0  0  0  0  0  0  0  0  0  0
   -0.9460    0.1355    1.0514 N   0  0  0  0  0  0  0  0  0  0  0  0
    0.3315   -0.3700    0.5251 C   0  0  2  0  0  0  0  0  0  0  0  0
    1.1345    0.7848   -0.1054 C   0  0  0  0  0  0  0  0  0  0  0  0
    0.6094    1.5065   -0.9457 O   0  0  0  0  0  0  0  0  0  0  0  0
    0.0997   -1.4483   -0.5465 C   0  0  0  0  0  0  0  0  0  0  0  0
   -1.2803    1.0083    0.6448 H   0  0  0  0  0  0  0  0  0  0  0  0
    0.9174   -0.7986    1.3447 H   0  0  0  0  0  0  0  0  0  0  0  0
   -0.5440   -1.0637   -1.3441 H   0  0  0  0  0  0  0  0  0  0  0  0
    1.0526   -1.7557   -0.9885 H   0  0  0  0  0  0  0  0  0  0  0  0
   -0.3731   -2.3353   -0.1156 H   0  0  0  0  0  0  0  0  0  0  0  0
    2.3858    1.1145    0.3771 N   0  0  0  0  0  0  0  0  0  0  0  0
    3.2535    2.1476   -0.2024 C   0  0  2  0  0  0  0  0  0  0  0  0
    4.7446    1.7712   -0.0685 C   0  0  0  0  0  0  0  0  0  0  0  0
    5.0784    0.8313    0.6451 O   0  0  0  0  0  0  0  0  0  0  0  0
    2.9634    3.4746    0.5056 C   0  0  0  0  0  0  0  0  0  0  0  0
    2.8309    0.4559    1.0168 H   0  0  0  0  0  0  0  0  0  0  0  0
    3.0389    2.2537   -1.2712 H   0  0  0  0  0  0  0  0  0  0  0  0
    3.1818    3.3940    1.5754 H   0  0  0  0  0  0  0  0  0  0  0  0
    3.5751    4.2778    0.0841 H   0  0  0  0  0  0  0  0  0  0  0  0
    1.9096    3.7453    0.3846 H   0  0  0  0  0  0  0  0  0  0  0  0
    5.7136    2.4744   -0.7603 N   0  0  0  0  0  0  0  0  0  0  0  0
    7.1348    2.1550   -0.6934 C   0  0  0  0  0  0  0  0  0  0  0  0
    5.4069    3.2321   -1.3636 H   0  0  0  0  0  0  0  0  0  0  0  0
    7.4901    2.2004    0.3415 H   0  0  0  0  0  0  0  0  0  0  0  0
    7.3207    1.1497   -1.0857 H   0  0  0  0  0  0  0  0  0  0  0  0
    7.7124    2.8701   -1.2869 H   0  0  0  0  0  0  0  0  0  0  0  0
  1  2  2  0  0  0  0
  1  3  1  0  0  0  0
  1  7  1  0  0  0  0
  3  4  1  0  0  0  0
  3  5  1  0  0  0  0
  3  6  1  0  0  0  0
  7  8  1  0  0  0  0
  7 12  1  0  0  0  0
  8  9  1  0  0  0  0
  8 11  1  0  0  0  0
  8 13  1  0  0  0  0
  9 10  2  0  0  0  0
  9 17  1  0  0  0  0
 11 14  1  0  0  0  0
 11 15  1  0  0  0  0
 11 16  1  0  0  0  0
 17 18  1  0  0  0  0
 17 22  1  0  0  0  0
 18 19  1  0  0  0  0
 18 21  1  0  0  0  0
 18 23  1  0  0  0  0
 19 20  2  0  0  0  0
 19 27  1  0  0  0  0
 21 24  1  0  0  0  0
 21 25  1  0  0  0  0
 21 26  1  0  0  0  0
 27 28  1  0  0  0  0
 27 32  1  0  0  0  0
 28 29  1  0  0  0  0
 28 31  1  0  0  0  0
 28 33  1  0  0  0  0
 29 30  2  0  0  0  0
 29 37  1  0  0  0  0
 31 34  1  0  0  0  0
 31 35  1  0  0  0  0
 31 36  1  0  0  0  0
 37 38  1  0  0  0  0
 37 39  1  0  0  0  0
 38 40  1  0  0  0  0
 38 41  1  0  0  0  0
 38 42  1  0  0  0  0
M  END
$$$$

  -OEChem-05262215353D

 42 41  0     1  0  0  0  0  0999 V2000
   -5.5758   -1.1973    1.9585 C   0  0  0  0  0  0  0  0  0  0  0  0
   -6.0809   -0.2285    1.4139 O   0  0  0  0  0  0  0  0  0  0  0  0
   -6.4132   -2.4294    2.2472 C   0  0  0  0  0  0  0  0  0  0  0  0
   -6.5137   -2.5665    3.3266 H   0  0  0  0  0  0  0  0  0  0  0  0
   -7.4100   -2.3182    1.8109 H   0  0  0  0  0  0  0  0  0  0  0  0
   -5.9381   -3.3145    1.8169 H   0  0  0  0  0  0  0  0  0  0  0  0
   -4.2418   -1.1778    2.3059 N   0  0  0  0  0  0  0  0  0  0  0  0
   -3.3029   -0.1104    1.9366 C   0  0  2  0  0  0  0  0  0  0  0  0
   -1.8831   -0.6657    1.6964 C   0  0  0  0  0  0  0  0  0  0  0  0
   -1.5892   -1.7912    2.0861 O   0  0  0  0  0  0  0  0  0  0  0  0
   -3.2932    0.9334    3.0575 C   0  0  0  0  0  0  0  0  0  0  0  0
   -3.8327   -2.0492    2.6417 H   0  0  0  0  0  0  0  0  0  0  0  0
   -3.6292    0.3643    1.0049 H   0  0  0  0  0  0  0  0  0  0  0  0
   -2.9590    0.4827    3.9975 H   0  0  0  0  0  0  0  0  0  0  0  0
   -2.6209    1.7597    2.8080 H   0  0  0  0  0  0  0  0  0  0  0  0
   -4.2986    1.3410    3.2043 H   0  0  0  0  0  0  0  0  0  0  0  0
   -0.9268    0.1068    1.0645 N   0  0  0  0  0  0  0  0  0  0  0  0
    0.3536   -0.3945    0.5432 C   0  0  2  0  0  0  0  0  0  0  0  0
    1.1568    0.7589   -0.0901 C   0  0  0  0  0  0  0  0  0  0  0  0
    0.5781    1.6160   -0.7493 O   0  0  0  0  0  0  0  0  0  0  0  0
    0.1303   -1.4708   -0.5308 C   0  0  0  0  0  0  0  0  0  0  0  0
   -1.2431    0.9984    0.6835 H   0  0  0  0  0  0  0  0  0  0  0  0
    0.9366   -0.8184    1.3673 H   0  0  0  0  0  0  0  0  0  0  0  0
   -0.5009   -1.0820   -1.3362 H   0  0  0  0  0  0  0  0  0  0  0  0
    1.0872   -1.7836   -0.9598 H   0  0  0  0  0  0  0  0  0  0  0  0
   -0.3530   -2.3553   -0.1069 H   0  0  0  0  0  0  0  0  0  0  0  0
    2.5055    0.9034    0.1701 N   0  0  0  0  0  0  0  0  0  0  0  0
    3.3717    1.9009   -0.4711 C   0  0  2  0  0  0  0  0  0  0  0  0
    4.8012    1.3544   -0.6719 C   0  0  0  0  0  0  0  0  0  0  0  0
    5.1488    0.3246   -0.1036 O   0  0  0  0  0  0  0  0  0  0  0  0
    3.3897    3.1601    0.4009 C   0  0  0  0  0  0  0  0  0  0  0  0
    2.9780    0.1311    0.6407 H   0  0  0  0  0  0  0  0  0  0  0  0
    2.9767    2.1530   -1.4610 H   0  0  0  0  0  0  0  0  0  0  0  0
    3.7962    2.9338    1.3919 H   0  0  0  0  0  0  0  0  0  0  0  0
    4.0052    3.9386   -0.0597 H   0  0  0  0  0  0  0  0  0  0  0  0
    2.3745    3.5516    0.5220 H   0  0  0  0  0  0  0  0  0  0  0  0
    5.6936    2.0035   -1.5051 N   0  0  0  0  0  0  0  0  0  0  0  0
    7.0499    1.5273   -1.7496 C   0  0  0  0  0  0  0  0  0  0  0  0
    5.3717    2.8409   -1.9818 H   0  0  0  0  0  0  0  0  0  0  0  0
    7.6217    1.5019   -0.8159 H   0  0  0  0  0  0  0  0  0  0  0  0
    7.0307    0.5198   -2.1784 H   0  0  0  0  0  0  0  0  0  0  0  0
    7.5640    2.1912   -2.4513 H   0  0  0  0  0  0  0  0  0  0  0  0
  1  2  2  0  0  0  0
  1  3  1  0  0  0  0
  1  7  1  0  0  0  0
  3  4  1  0  0  0  0
  3  5  1  0  0  0  0
  3  6  1  0  0  0  0
  7  8  1  0  0  0  0
  7 12  1  0  0  0  0
  8  9  1  0  0  0  0
  8 11  1  0  0  0  0
  8 13  1  0  0  0  0
  9 10  2  0  0  0  0
  9 17  1  0  0  0  0
 11 14  1  0  0  0  0
 11 15  1  0  0  0  0
 11 16  1  0  0  0  0
 17 18  1  0  0  0  0
 17 22  1  0  0  0  0
 18 19  1  0  0  0  0
 18 21  1  0  0  0  0
 18 23  1  0  0  0  0
 19 20  2  0  0  0  0
 19 27  1  0  0  0  0
 21 24  1  0  0  0  0
 21 25  1  0  0  0  0
 21 26  1  0  0  0  0
 27 28  1  0  0  0  0
 27 32  1  0  0  0  0
 28 29  1  0  0  0  0
 28 31  1  0  0  0  0
 28 33  1  0  0  0  0
 29 30  2  0  0  0  0
 29 37  1  0  0  0  0
 31 34  1  0  0  0  0
 31 35  1  0  0  0  0
 31 36  1  0  0  0  0
 37 38  1  0  0  0  0
 37 39  1  0  0  0  0
 38 40  1  0  0  0  0
 38 41  1  0  0  0  0
 38 42  1  0  0  0  0
M  END
$$$$

  -OEChem-05262215353D

 42 41  0     1  0  0  0  0  0999 V2000
   -5.5759   -1.1810    1.9885 C   0  0  0  0  0  0  0  0  0  0  0  0
   -6.0792   -0.2107    1.4448 O   0  0  0  0  0  0  0  0  0  0  0  0
   -6.4163   -2.4087    2.2853 C   0  0  0  0  0  0  0  0  0  0  0  0
   -6.4647   -2.5760    3.3639 H   0  0  0  0  0  0  0  0  0  0  0  0
   -7.4318   -2.2722    1.9032 H   0  0  0  0  0  0  0  0  0  0  0  0
   -5.9759   -3.2868    1.8070 H   0  0  0  0  0  0  0  0  0  0  0  0
   -4.2390   -1.1706    2.3241 N   0  0  0  0  0  0  0  0  0  0  0  0
   -3.2939   -0.1159    1.9352 C   0  0  2  0  0  0  0  0  0  0  0  0
   -1.8822   -0.6867    1.6820 C   0  0  0  0  0  0  0  0  0  0  0  0
   -1.6032   -1.8240    2.0482 O   0  0  0  0  0  0  0  0  0  0  0  0
   -3.2622    0.9369    3.0467 C   0  0  0  0  0  0  0  0  0  0  0  0
   -3.8346   -2.0445    2.6587 H   0  0  0  0  0  0  0  0  0  0  0  0
   -3.6264    0.3542    1.0033 H   0  0  0  0  0  0  0  0  0  0  0  0
   -2.9180    0.4914    3.9855 H   0  0  0  0  0  0  0  0  0  0  0  0
   -2.5882    1.7570    2.7812 H   0  0  0  0  0  0  0  0  0  0  0  0
   -4.2631    1.3515    3.2035 H   0  0  0  0  0  0  0  0  0  0  0  0
   -0.9167    0.0823    1.0600 N   0  0  0  0  0  0  0  0  0  0  0  0
    0.3641   -0.4167    0.5367 C   0  0  2  0  0  0  0  0  0  0  0  0
    1.1778    0.7374   -0.0842 C   0  0  0  0  0  0  0  0  0  0  0  0
    0.6027    1.7221   -0.5368 O   0  0  0  0  0  0  0  0  0  0  0  0
    0.1338   -1.4770   -0.5526 C   0  0  0  0  0  0  0  0  0  0  0  0
   -1.2049    1.0024    0.7263 H   0  0  0  0  0  0  0  0  0  0  0  0
    0.9444   -0.8525    1.3567 H   0  0  0  0  0  0  0  0  0  0  0  0
   -0.5008   -1.0744   -1.3488 H   0  0  0  0  0  0  0  0  0  0  0  0
    1.0874   -1.7865   -0.9920 H   0  0  0  0  0  0  0  0  0  0  0  0
   -0.3497   -2.3669   -0.1396 H   0  0  0  0  0  0  0  0  0  0  0  0
    2.5583    0.7025   -0.0762 N   0  0  0  0  0  0  0  0  0  0  0  0
    3.4166    1.6677   -0.7744 C   0  0  2  0  0  0  0  0  0  0  0  0
    4.6838    0.9852   -1.3320 C   0  0  0  0  0  0  0  0  0  0  0  0
    4.9609   -0.1614   -0.9958 O   0  0  0  0  0  0  0  0  0  0  0  0
    3.7860    2.7846    0.2065 C   0  0  0  0  0  0  0  0  0  0  0  0
    2.9999   -0.1751    0.1993 H   0  0  0  0  0  0  0  0  0  0  0  0
    2.8771    2.0983   -1.6249 H   0  0  0  0  0  0  0  0  0  0  0  0
    4.3388    2.3779    1.0594 H   0  0  0  0  0  0  0  0  0  0  0  0
    4.4081    3.5387   -0.2847 H   0  0  0  0  0  0  0  0  0  0  0  0
    2.8810    3.2749    0.5794 H   0  0  0  0  0  0  0  0  0  0  0  0
    5.5047    1.6468   -2.2262 N   0  0  0  0  0  0  0  0  0  0  0  0
    6.7029    1.0505   -2.8051 C   0  0  0  0  0  0  0  0  0  0  0  0
    5.2417    2.5892   -2.4996 H   0  0  0  0  0  0  0  0  0  0  0  0
    7.4184    0.7881   -2.0188 H   0  0  0  0  0  0  0  0  0  0  0  0
    6.4490    0.1451   -3.3663 H   0  0  0  0  0  0  0  0  0  0  0  0
    7.1842    1.7561   -3.4890 H   0  0  0  0  0  0  0  0  0  0  0  0
  1  2  2  0  0  0  0
  1  3  1  0  0  0  0
  1  7  1  0  0  0  0
  3  4  1  0  0  0  0
  3  5  1  0  0  0  0
  3  6  1  0  0  0  0
  7  8  1  0  0  0  0
  7 12  1  0  0  0  0
  8  9  1  0  0  0  0
  8 11  1  0  0  0  0
  8 13  1  0  0  0  0
  9 10  2  0  0  0  0
  9 17  1  0  0  0  0
 11 14  1  0  0  0  0
 11 15  1  0  0  0  0
 11 16  1  0  0  0  0
 17 18  1  0  0  0  0
 17 22  1  0  0  0  0
 18 19  1  0  0  0  0
 18 21  1  0  0  0  0
 18 23  1  0  0  0  0
 19 20  2  0  0  0  0
 19 27  1  0  0  0  0
 21 24  1  0  0  0  0
 21 25  1  0  0  0  0
 21 26  1  0  0  0  0
 27 28  1  0  0  0  0
 27 32  1  0  0  0  0
 28 29  1  0  0  0  0
 28 31  1  0  0  0  0
 28 33  1  0  0  0  0
 29 30  2  0  0  0  0
 29 37  1  0  0  0  0
 31 34  1  0  0  0  0
 31 35  1  0  0  0  0
 31 36  1  0  0  0  0
 37 38  1  0  0  0  0
 37 39  1  0  0  0  0
 38 40  1  0  0  0  0
 38 41  1  0  0  0  0
 38 42  1  0  0  0  0
M  END
$$$$

  -OEChem-05262215353D

 42 41  0     1  0  0  0  0  0999 V2000
   -5.5508   -1.1284    1.9126 C   0  0  0  0  0  0  0  0  0  0  0  0
   -6.0088   -0.1471    1.3489 O   0  0  0  0  0  0  0  0  0  0  0  0
   -6.4193   -2.3511    2.1389 C   0  0  0  0  0  0  0  0  0  0  0  0
   -6.4899   -2.5657    3.2080 H   0  0  0  0  0  0  0  0  0  0  0  0
   -7.4251   -2.1772    1.7467 H   0  0  0  0  0  0  0  0  0  0  0  0
   -5.9863   -3.2149    1.6288 H   0  0  0  0  0  0  0  0  0  0  0  0
   -4.2393   -1.1368    2.3366 N   0  0  0  0  0  0  0  0  0  0  0  0
   -3.2564   -0.0958    2.0096 C   0  0  2  0  0  0  0  0  0  0  0  0
   -1.8682   -0.7029    1.7166 C   0  0  0  0  0  0  0  0  0  0  0  0
   -1.6153   -1.8518    2.0644 O   0  0  0  0  0  0  0  0  0  0  0  0
   -3.1854    0.8799    3.1869 C   0  0  0  0  0  0  0  0  0  0  0  0
   -3.8657   -2.0253    2.6685 H   0  0  0  0  0  0  0  0  0  0  0  0
   -3.5695    0.4474    1.1113 H   0  0  0  0  0  0  0  0  0  0  0  0
   -2.8768    0.3584    4.0988 H   0  0  0  0  0  0  0  0  0  0  0  0
   -2.4665    1.6786    2.9810 H   0  0  0  0  0  0  0  0  0  0  0  0
   -4.1660    1.3347    3.3597 H   0  0  0  0  0  0  0  0  0  0  0  0
   -0.8963    0.0484    1.0831 N   0  0  0  0  0  0  0  0  0  0  0  0
    0.3896   -0.4538    0.5747 C   0  0  2  0  0  0  0  0  0  0  0  0
    1.2029    0.6914   -0.0660 C   0  0  0  0  0  0  0  0  0  0  0  0
    0.6601    1.7582   -0.3369 O   0  0  0  0  0  0  0  0  0  0  0  0
    0.1641   -1.5355   -0.4955 C   0  0  0  0  0  0  0  0  0  0  0  0
   -1.1527    0.9929    0.7934 H   0  0  0  0  0  0  0  0  0  0  0  0
    0.9695   -0.8705    1.4045 H   0  0  0  0  0  0  0  0  0  0  0  0
   -0.4550   -1.1429   -1.3085 H   0  0  0  0  0  0  0  0  0  0  0  0
    1.1192   -1.8661   -0.9152 H   0  0  0  0  0  0  0  0  0  0  0  0
   -0.3344   -2.4118   -0.0722 H   0  0  0  0  0  0  0  0  0  0  0  0
    2.5493    0.5319   -0.3303 N   0  0  0  0  0  0  0  0  0  0  0  0
    3.3539    1.4723   -1.1202 C   0  0  2  0  0  0  0  0  0  0  0  0
    4.4136    0.7294   -1.9611 C   0  0  0  0  0  0  0  0  0  0  0  0
    4.6472   -0.4553   -1.7455 O   0  0  0  0  0  0  0  0  0  0  0  0
    4.0166    2.4680   -0.1639 C   0  0  0  0  0  0  0  0  0  0  0  0
    2.9367   -0.4053   -0.2174 H   0  0  0  0  0  0  0  0  0  0  0  0
    2.7096    2.0180   -1.8179 H   0  0  0  0  0  0  0  0  0  0  0  0
    4.6699    1.9454    0.5422 H   0  0  0  0  0  0  0  0  0  0  0  0
    4.6151    3.1955   -0.7203 H   0  0  0  0  0  0  0  0  0  0  0  0
    3.2543    3.0118    0.4031 H   0  0  0  0  0  0  0  0  0  0  0  0
    5.0864    1.3794   -2.9792 N   0  0  0  0  0  0  0  0  0  0  0  0
    6.0636    0.7225   -3.8393 C   0  0  0  0  0  0  0  0  0  0  0  0
    4.8455    2.3499   -3.1593 H   0  0  0  0  0  0  0  0  0  0  0  0
    6.8765    0.2965   -3.2416 H   0  0  0  0  0  0  0  0  0  0  0  0
    5.5900   -0.0810   -4.4133 H   0  0  0  0  0  0  0  0  0  0  0  0
    6.4941    1.4428   -4.5418 H   0  0  0  0  0  0  0  0  0  0  0  0
  1  2  2  0  0  0  0
  1  3  1  0  0  0  0
  1  7  1  0  0  0  0
  3  4  1  0  0  0  0
  3  5  1  0  0  0  0
  3  6  1  0  0  0  0
  7  8  1  0  0  0  0
  7 12  1  0  0  0  0
  8  9  1  0  0  0  0
  8 11  1  0  0  0  0
  8 13  1  0  0  0  0
  9 10  2  0  0  0  0
  9 17  1  0  0  0  0
 11 14  1  0  0  0  0
 11 15  1  0  0  0  0
 11 16  1  0  0  0  0
 17 18  1  0  0  0  0
 17 22  1  0  0  0  0
 18 19  1  0  0  0  0
 18 21  1  0  0  0  0
 18 23  1  0  0  0  0
 19 20  2  0  0  0  0
 19 27  1  0  0  0  0
 21 24  1  0  0  0  0
 21 25  1  0  0  0  0
 21 26  1  0  0  0  0
 27 28  1  0  0  0  0
 27 32  1  0  0  0  0
 28 29  1  0  0  0  0
 28 31  1  0  0  0  0
 28 33  1  0  0  0  0
 29 30  2  0  0  0  0
 29 37  1  0  0  0  0
 31 34  1  0  0  0  0
 31 35  1  0  0  0  0
 31 36  1  0  0  0  0
 37 38  1  0  0  0  0
 37 39  1  0  0  0  0
 38 40  1  0  0  0  0
 38 41  1  0  0  0  0
 38 42  1  0  0  0  0
M  END
$$$$

  -OEChem-05262215353D

 42 41  0     1  0  0  0  0  0999 V2000
   -5.5591   -1.0438    1.8653 C   0  0  0  0  0  0  0  0  0  0  0  0
   -5.9904    0.0026    1.4076 O   0  0  0  0  0  0  0  0  0  0  0  0
   -6.4566   -2.2643    1.9510 C   0  0  0  0  0  0  0  0  0  0  0  0
   -6.5661   -2.5745    2.9931 H   0  0  0  0  0  0  0  0  0  0  0  0
   -7.4460   -2.0355    1.5447 H   0  0  0  0  0  0  0  0  0  0  0  0
   -6.0223   -3.0867    1.3770 H   0  0  0  0  0  0  0  0  0  0  0  0
   -4.2504   -1.1306    2.2900 N   0  0  0  0  0  0  0  0  0  0  0  0
   -3.2337   -0.0965    2.0576 C   0  0  2  0  0  0  0  0  0  0  0  0
   -1.8830   -0.7220    1.6525 C   0  0  0  0  0  0  0  0  0  0  0  0
   -1.6425   -1.8947    1.9214 O   0  0  0  0  0  0  0  0  0  0  0  0
   -3.0844    0.7258    3.3396 C   0  0  0  0  0  0  0  0  0  0  0  0
   -3.9040   -2.0591    2.5286 H   0  0  0  0  0  0  0  0  0  0  0  0
   -3.5458    0.5640    1.2414 H   0  0  0  0  0  0  0  0  0  0  0  0
   -2.7641    0.0871    4.1690 H   0  0  0  0  0  0  0  0  0  0  0  0
   -2.3424    1.5184    3.2030 H   0  0  0  0  0  0  0  0  0  0  0  0
   -4.0403    1.1887    3.6045 H   0  0  0  0  0  0  0  0  0  0  0  0
   -0.9316    0.0325    0.9940 N   0  0  0  0  0  0  0  0  0  0  0  0
    0.3953   -0.4430    0.5785 C   0  0  2  0  0  0  0  0  0  0  0  0
    1.3185    0.7418    0.2164 C   0  0  0  0  0  0  0  0  0  0  0  0
    0.8983    1.8933    0.2782 O   0  0  0  0  0  0  0  0  0  0  0  0
    0.2427   -1.3778   -0.6316 C   0  0  0  0  0  0  0  0  0  0  0  0
   -1.1254    1.0244    0.8537 H   0  0  0  0  0  0  0  0  0  0  0  0
    0.8619   -0.9903    1.4045 H   0  0  0  0  0  0  0  0  0  0  0  0
   -0.2273   -0.8479   -1.4662 H   0  0  0  0  0  0  0  0  0  0  0  0
    1.2176   -1.7503   -0.9600 H   0  0  0  0  0  0  0  0  0  0  0  0
   -0.3778   -2.2419   -0.3763 H   0  0  0  0  0  0  0  0  0  0  0  0
    2.6164    0.5195   -0.2012 N   0  0  0  0  0  0  0  0  0  0  0  0
    3.4779    1.5426   -0.8065 C   0  0  2  0  0  0  0  0  0  0  0  0
    4.2993    0.9541   -1.9731 C   0  0  0  0  0  0  0  0  0  0  0  0
    4.3555   -0.2611   -2.1318 O   0  0  0  0  0  0  0  0  0  0  0  0
    4.3956    2.1041    0.2826 C   0  0  0  0  0  0  0  0  0  0  0  0
    2.8783   -0.4489   -0.3868 H   0  0  0  0  0  0  0  0  0  0  0  0
    2.8681    2.3547   -1.2166 H   0  0  0  0  0  0  0  0  0  0  0  0
    5.0242    1.3115    0.7011 H   0  0  0  0  0  0  0  0  0  0  0  0
    5.0440    2.8852   -0.1253 H   0  0  0  0  0  0  0  0  0  0  0  0
    3.7987    2.5393    1.0904 H   0  0  0  0  0  0  0  0  0  0  0  0
    4.9533    1.7856   -2.8631 N   0  0  0  0  0  0  0  0  0  0  0  0
    5.7037    1.2944   -4.0128 C   0  0  0  0  0  0  0  0  0  0  0  0
    4.8571    2.7882   -2.7298 H   0  0  0  0  0  0  0  0  0  0  0  0
    6.5044    0.6207   -3.6894 H   0  0  0  0  0  0  0  0  0  0  0  0
    5.0433    0.7529   -4.6987 H   0  0  0  0  0  0  0  0  0  0  0  0
    6.1557    2.1307   -4.5550 H   0  0  0  0  0  0  0  0  0  0  0  0
  1  2  2  0  0  0  0
  1  3  1  0  0  0  0
  1  7  1  0  0  0  0
  3  4  1  0  0  0  0
  3  5  1  0  0  0  0
  3  6  1  0  0  0  0
  7  8  1  0  0  0  0
  7 12  1  0  0  0  0
  8  9  1  0  0  0  0
  8 11  1  0  0  0  0
  8 13  1  0  0  0  0
  9 10  2  0  0  0  0
  9 17  1  0  0  0  0
 11 14  1  0  0  0  0
 11 15  1  0  0  0  0
 11 16  1  0  0  0  0
 17 18  1  0  0  0  0
 17 22  1  0  0  0  0
 18 19  1  0  0  0  0
 18 21  1  0  0  0  0
 18 23  1  0  0  0  0
 19 20  2  0  0  0  0
 19 27  1  0  0  0  0
 21 24  1  0  0  0  0
 21 25  1  0  0  0  0
 21 26  1  0  0  0  0
 27 28  1  0  0  0  0
 27 32  1  0  0  0  0
 28 29  1  0  0  0  0
 28 31  1  0  0  0  0
 28 33  1  0  0  0  0
 29 30  2  0  0  0  0
 29 37  1  0  0  0  0
 31 34  1  0  0  0  0
 31 35  1  0  0  0  0
 31 36  1  0  0  0  0
 37 38  1  0  0  0  0
 37 39  1  0  0  0  0
 38 40  1  0  0  0  0
 38 41  1  0  0  0  0
 38 42  1  0  0  0  0
M  END
$$$$

  -OEChem-05262215353D

 42 41  0     1  0  0  0  0  0999 V2000
   -5.5500   -1.0131    1.8554 C   0  0  0  0  0  0  0  0  0  0  0  0
   -5.9601    0.0316    1.3750 O   0  0  0  0  0  0  0  0  0  0  0  0
   -6.4670   -2.2186    1.9474 C   0  0  0  0  0  0  0  0  0  0  0  0
   -6.5890   -2.5149    2.9920 H   0  0  0  0  0  0  0  0  0  0  0  0
   -7.4498   -1.9787    1.5318 H   0  0  0  0  0  0  0  0  0  0  0  0
   -6.0423   -3.0543    1.3854 H   0  0  0  0  0  0  0  0  0  0  0  0
   -4.2485   -1.1109    2.3000 N   0  0  0  0  0  0  0  0  0  0  0  0
   -3.2123   -0.0984    2.0567 C   0  0  2  0  0  0  0  0  0  0  0  0
   -1.8826   -0.7509    1.6260 C   0  0  0  0  0  0  0  0  0  0  0  0
   -1.6657   -1.9313    1.8809 O   0  0  0  0  0  0  0  0  0  0  0  0
   -3.0245    0.7105    3.3420 C   0  0  0  0  0  0  0  0  0  0  0  0
   -3.9184   -2.0417    2.5516 H   0  0  0  0  0  0  0  0  0  0  0  0
   -3.5207    0.5761    1.2505 H   0  0  0  0  0  0  0  0  0  0  0  0
   -2.7075    0.0583    4.1621 H   0  0  0  0  0  0  0  0  0  0  0  0
   -2.2661    1.4865    3.2000 H   0  0  0  0  0  0  0  0  0  0  0  0
   -3.9650    1.1941    3.6241 H   0  0  0  0  0  0  0  0  0  0  0  0
   -0.9223   -0.0077    0.9673 N   0  0  0  0  0  0  0  0  0  0  0  0
    0.4043   -0.4947    0.5626 C   0  0  2  0  0  0  0  0  0  0  0  0
    1.3308    0.6895    0.1990 C   0  0  0  0  0  0  0  0  0  0  0  0
    0.9928    1.8373    0.4720 O   0  0  0  0  0  0  0  0  0  0  0  0
    0.2480   -1.4445   -0.6379 C   0  0  0  0  0  0  0  0  0  0  0  0
   -1.0833    0.9961    0.8807 H   0  0  0  0  0  0  0  0  0  0  0  0
    0.8662   -1.0362    1.3951 H   0  0  0  0  0  0  0  0  0  0  0  0
   -0.1891   -0.9135   -1.4895 H   0  0  0  0  0  0  0  0  0  0  0  0
    1.2167   -1.8533   -0.9405 H   0  0  0  0  0  0  0  0  0  0  0  0
   -0.4031   -2.2864   -0.3848 H   0  0  0  0  0  0  0  0  0  0  0  0
    2.5090    0.4851   -0.4939 N   0  0  0  0  0  0  0  0  0  0  0  0
    3.2887    1.5492   -1.1386 C   0  0  2  0  0  0  0  0  0  0  0  0
    3.8182    1.0889   -2.5136 C   0  0  0  0  0  0  0  0  0  0  0  0
    3.7792   -0.0988   -2.8185 O   0  0  0  0  0  0  0  0  0  0  0  0
    4.4406    1.9311   -0.2057 C   0  0  0  0  0  0  0  0  0  0  0  0
    2.6728   -0.4583   -0.8454 H   0  0  0  0  0  0  0  0  0  0  0  0
    2.6595    2.4287   -1.3112 H   0  0  0  0  0  0  0  0  0  0  0  0
    5.0892    1.0680   -0.0241 H   0  0  0  0  0  0  0  0  0  0  0  0
    5.0411    2.7332   -0.6450 H   0  0  0  0  0  0  0  0  0  0  0  0
    4.0482    2.2804    0.7549 H   0  0  0  0  0  0  0  0  0  0  0  0
    4.3113    2.0073   -3.4219 N   0  0  0  0  0  0  0  0  0  0  0  0
    4.7675    1.6449   -4.7589 C   0  0  0  0  0  0  0  0  0  0  0  0
    4.2878    2.9884   -3.1591 H   0  0  0  0  0  0  0  0  0  0  0  0
    5.5599    0.8909   -4.7051 H   0  0  0  0  0  0  0  0  0  0  0  0
    3.9380    1.2423   -5.3497 H   0  0  0  0  0  0  0  0  0  0  0  0
    5.1655    2.5246   -5.2737 H   0  0  0  0  0  0  0  0  0  0  0  0
  1  2  2  0  0  0  0
  1  3  1  0  0  0  0
  1  7  1  0  0  0  0
  3  4  1  0  0  0  0
  3  5  1  0  0  0  0
  3  6  1  0  0  0  0
  7  8  1  0  0  0  0
  7 12  1  0  0  0  0
  8  9  1  0  0  0  0
  8 11  1  0  0  0  0
  8 13  1  0  0  0  0
  9 10  2  0  0  0  0
  9 17  1  0  0  0  0
 11 14  1  0  0  0  0
 11 15  1  0  0  0  0
 11 16  1  0  0  0  0
 17 18  1  0  0  0  0
 17 22  1  0  0  0  0
 18 19  1  0  0  0  0
 18 21  1  0  0  0  0
 18 23  1  0  0  0  0
 19 20  2  0  0  0  0
 19 27  1  0  0  0  0
 21 24  1  0  0  0  0
 21 25  1  0  0  0  0
 21 26  1  0  0  0  0
 27 28  1  0  0  0  0
 27 32  1  0  0  0  0
 28 29  1  0  0  0  0
 28 31  1  0  0  0  0
 28 33  1  0  0  0  0
 29 30  2  0  0  0  0
 29 37  1  0  0  0  0
 31 34  1  0  0  0  0
 31 35  1  0  0  0  0
 31 36  1  0  0  0  0
 37 38  1  0  0  0  0
 37 39  1  0  0  0  0
 38 40  1  0  0  0  0
 38 41  1  0  0  0  0
 38 42  1  0  0  0  0
M  END
$$$$

  -OEChem-05262215353D

 42 41  0     1  0  0  0  0  0999 V2000
   -5.6247   -1.0469    2.1288 C   0  0  0  0  0  0  0  0  0  0  0  0
   -6.0939    0.0034    1.7202 O   0  0  0  0  0  0  0  0  0  0  0  0
   -6.5379   -2.2163    2.4474 C   0  0  0  0  0  0  0  0  0  0  0  0
   -6.4010   -2.5244    3.4869 H   0  0  0  0  0  0  0  0  0  0  0  0
   -7.5831   -1.9301    2.3001 H   0  0  0  0  0  0  0  0  0  0  0  0
   -6.3072   -3.0594    1.7915 H   0  0  0  0  0  0  0  0  0  0  0  0
   -4.2626   -1.1775    2.2976 N   0  0  0  0  0  0  0  0  0  0  0  0
   -3.2724   -0.1702    1.8947 C   0  0  2  0  0  0  0  0  0  0  0  0
   -1.9442   -0.8256    1.4582 C   0  0  0  0  0  0  0  0  0  0  0  0
   -1.7342   -2.0095    1.7023 O   0  0  0  0  0  0  0  0  0  0  0  0
   -3.0467    0.7813    3.0742 C   0  0  0  0  0  0  0  0  0  0  0  0
   -3.9049   -2.1063    2.5185 H   0  0  0  0  0  0  0  0  0  0  0  0
   -3.6509    0.3988    1.0386 H   0  0  0  0  0  0  0  0  0  0  0  0
   -2.6617    0.2325    3.9395 H   0  0  0  0  0  0  0  0  0  0  0  0
   -2.3284    1.5629    2.8091 H   0  0  0  0  0  0  0  0  0  0  0  0
   -3.9882    1.2627    3.3577 H   0  0  0  0  0  0  0  0  0  0  0  0
   -0.9790   -0.0818    0.8053 N   0  0  0  0  0  0  0  0  0  0  0  0
    0.3504   -0.5725    0.4105 C   0  0  2  0  0  0  0  0  0  0  0  0
    1.2778    0.6149    0.0544 C   0  0  0  0  0  0  0  0  0  0  0  0
    1.0548    1.7194    0.5392 O   0  0  0  0  0  0  0  0  0  0  0  0
    0.2019   -1.5356   -0.7819 C   0  0  0  0  0  0  0  0  0  0  0  0
   -1.1194    0.9277    0.7684 H   0  0  0  0  0  0  0  0  0  0  0  0
    0.8066   -1.1097    1.2486 H   0  0  0  0  0  0  0  0  0  0  0  0
   -0.2093   -1.0103   -1.6500 H   0  0  0  0  0  0  0  0  0  0  0  0
    1.1700   -1.9648   -1.0564 H   0  0  0  0  0  0  0  0  0  0  0  0
   -0.4672   -2.3642   -0.5330 H   0  0  0  0  0  0  0  0  0  0  0  0
    2.2938    0.4931   -0.8758 N   0  0  0  0  0  0  0  0  0  0  0  0
    3.0395    1.6198   -1.4512 C   0  0  2  0  0  0  0  0  0  0  0  0
    3.3522    1.3760   -2.9425 C   0  0  0  0  0  0  0  0  0  0  0  0
    3.2140    0.2555   -3.4220 O   0  0  0  0  0  0  0  0  0  0  0  0
    4.3301    1.8028   -0.6487 C   0  0  0  0  0  0  0  0  0  0  0  0
    2.3480   -0.3871   -1.3882 H   0  0  0  0  0  0  0  0  0  0  0  0
    2.4434    2.5364   -1.3893 H   0  0  0  0  0  0  0  0  0  0  0  0
    4.9468    0.8999   -0.7049 H   0  0  0  0  0  0  0  0  0  0  0  0
    4.9090    2.6457   -1.0378 H   0  0  0  0  0  0  0  0  0  0  0  0
    4.0961    2.0013    0.4021 H   0  0  0  0  0  0  0  0  0  0  0  0
    3.7669    2.4157   -3.7543 N   0  0  0  0  0  0  0  0  0  0  0  0
    4.0411    2.2592   -5.1780 C   0  0  0  0  0  0  0  0  0  0  0  0
    3.8450    3.3385   -3.3365 H   0  0  0  0  0  0  0  0  0  0  0  0
    4.8438    1.5311   -5.3363 H   0  0  0  0  0  0  0  0  0  0  0  0
    3.1447    1.9159   -5.7055 H   0  0  0  0  0  0  0  0  0  0  0  0
    4.3523    3.2150   -5.6108 H   0  0  0  0  0  0  0  0  0  0  0  0
  1  2  2  0  0  0  0
  1  3  1  0  0  0  0
  1  7  1  0  0  0  0
  3  4  1  0  0  0  0
  3  5  1  0  0  0  0
  3  6  1  0  0  0  0
  7  8  1  0  0  0  0
  7 12  1  0  0  0  0
  8  9  1  0  0  0  0
  8 11  1  0  0  0  0
  8 13  1  0  0  0  0
  9 10  2  0  0  0  0
  9 17  1  0  0  0  0
 11 14  1  0  0  0  0
 11 15  1  0  0  0  0
 11 16  1  0  0  0  0
 17 18  1  0  0  0  0
 17 22  1  0  0  0  0
 18 19  1  0  0  0  0
 18 21  1  0  0  0  0
 18 23  1  0  0  0  0
 19 20  2  0  0  0  0
 19 27  1  0  0  0  0
 21 24  1  0  0  0  0
 21 25  1  0  0  0  0
 21 26  1  0  0  0  0
 27 28  1  0  0  0  0
 27 32  1  0  0  0  0
 28 29  1  0  0  0  0
 28 31  1  0  0  0  0
 28 33  1  0  0  0  0
 29 30  2  0  0  0  0
 29 37  1  0  0  0  0
 31 34  1  0  0  0  0
 31 35  1  0  0  0  0
 31 36  1  0  0  0  0
 37 38  1  0  0  0  0
 37 39  1  0  0  0  0
 38 40  1  0  0  0  0
 38 41  1  0  0  0  0
 38 42  1  0  0  0  0
M  END
$$$$

  -OEChem-05262215353D

 42 41  0     1  0  0  0  0  0999 V2000
   -5.6321   -1.0577    2.2116 C   0  0  0  0  0  0  0  0  0  0  0  0
   -6.1032    0.0023    1.8308 O   0  0  0  0  0  0  0  0  0  0  0  0
   -6.5478   -2.2166    2.5576 C   0  0  0  0  0  0  0  0  0  0  0  0
   -6.3375   -2.5701    3.5697 H   0  0  0  0  0  0  0  0  0  0  0  0
   -7.5929   -1.8992    2.5069 H   0  0  0  0  0  0  0  0  0  0  0  0
   -6.3930   -3.0368    1.8526 H   0  0  0  0  0  0  0  0  0  0  0  0
   -4.2659   -1.2075    2.3174 N   0  0  0  0  0  0  0  0  0  0  0  0
   -3.2841   -0.2073    1.8781 C   0  0  2  0  0  0  0  0  0  0  0  0
   -1.9645   -0.8672    1.4228 C   0  0  0  0  0  0  0  0  0  0  0  0
   -1.7535   -2.0514    1.6637 O   0  0  0  0  0  0  0  0  0  0  0  0
   -3.0337    0.7675    3.0340 C   0  0  0  0  0  0  0  0  0  0  0  0
   -3.9090   -2.1403    2.5223 H   0  0  0  0  0  0  0  0  0  0  0  0
   -3.6820    0.3461    1.0205 H   0  0  0  0  0  0  0  0  0  0  0  0
   -2.6261    0.2369    3.9002 H   0  0  0  0  0  0  0  0  0  0  0  0
   -2.3246    1.5462    2.7368 H   0  0  0  0  0  0  0  0  0  0  0  0
   -3.9696    1.2519    3.3309 H   0  0  0  0  0  0  0  0  0  0  0  0
   -1.0100   -0.1215    0.7564 N   0  0  0  0  0  0  0  0  0  0  0  0
    0.3256   -0.6013    0.3693 C   0  0  2  0  0  0  0  0  0  0  0  0
    1.2284    0.5987   -0.0058 C   0  0  0  0  0  0  0  0  0  0  0  0
    1.1377    1.6355    0.6419 O   0  0  0  0  0  0  0  0  0  0  0  0
    0.1973   -1.5990   -0.7969 C   0  0  0  0  0  0  0  0  0  0  0  0
   -1.1538    0.8872    0.7355 H   0  0  0  0  0  0  0  0  0  0  0  0
    0.7931   -1.1097    1.2194 H   0  0  0  0  0  0  0  0  0  0  0  0
   -0.2597   -1.1164   -1.6670 H   0  0  0  0  0  0  0  0  0  0  0  0
    1.1805   -1.9857   -1.0825 H   0  0  0  0  0  0  0  0  0  0  0  0
   -0.4236   -2.4535   -0.5128 H   0  0  0  0  0  0  0  0  0  0  0  0
    2.0352    0.5920   -1.1290 N   0  0  0  0  0  0  0  0  0  0  0  0
    2.7059    1.7746   -1.6842 C   0  0  2  0  0  0  0  0  0  0  0  0
    2.7460    1.7188   -3.2259 C   0  0  0  0  0  0  0  0  0  0  0  0
    2.4494    0.6813   -3.8091 O   0  0  0  0  0  0  0  0  0  0  0  0
    4.1219    1.8406   -1.1056 C   0  0  0  0  0  0  0  0  0  0  0  0
    1.9432   -0.2059   -1.7578 H   0  0  0  0  0  0  0  0  0  0  0  0
    2.1592    2.6816   -1.4051 H   0  0  0  0  0  0  0  0  0  0  0  0
    4.6930    0.9506   -1.3889 H   0  0  0  0  0  0  0  0  0  0  0  0
    4.6478    2.7254   -1.4761 H   0  0  0  0  0  0  0  0  0  0  0  0
    4.0820    1.8963   -0.0131 H   0  0  0  0  0  0  0  0  0  0  0  0
    3.0954    2.8352   -3.9629 N   0  0  0  0  0  0  0  0  0  0  0  0
    3.1155    2.8568   -5.4207 C   0  0  0  0  0  0  0  0  0  0  0  0
    3.3127    3.6876   -3.4547 H   0  0  0  0  0  0  0  0  0  0  0  0
    3.8125    2.1054   -5.8066 H   0  0  0  0  0  0  0  0  0  0  0  0
    2.1173    2.6498   -5.8206 H   0  0  0  0  0  0  0  0  0  0  0  0
    3.4349    3.8395   -5.7806 H   0  0  0  0  0  0  0  0  0  0  0  0
  1  2  2  0  0  0  0
  1  3  1  0  0  0  0
  1  7  1  0  0  0  0
  3  4  1  0  0  0  0
  3  5  1  0  0  0  0
  3  6  1  0  0  0  0
  7  8  1  0  0  0  0
  7 12  1  0  0  0  0
  8  9  1  0  0  0  0
  8 11  1  0  0  0  0
  8 13  1  0  0  0  0
  9 10  2  0  0  0  0
  9 17  1  0  0  0  0
 11 14  1  0  0  0  0
 11 15  1  0  0  0  0
 11 16  1  0  0  0  0
 17 18  1  0  0  0  0
 17 22  1  0  0  0  0
 18 19  1  0  0  0  0
 18 21  1  0  0  0  0
 18 23  1  0  0  0  0
 19 20  2  0  0  0  0
 19 27  1  0  0  0  0
 21 24  1  0  0  0  0
 21 25  1  0  0  0  0
 21 26  1  0  0  0  0
 27 28  1  0  0  0  0
 27 32  1  0  0  0  0
 28 29  1  0  0  0  0
 28 31  1  0  0  0  0
 28 33  1  0  0  0  0
 29 30  2  0  0  0  0
 29 37  1  0  0  0  0
 31 34  1  0  0  0  0
 31 35  1  0  0  0  0
 31 36  1  0  0  0  0
 37 38  1  0  0  0  0
 37 39  1  0  0  0  0
 38 40  1  0  0  0  0
 38 41  1  0  0  0  0
 38 42  1  0  0  0  0
M  END
$$$$

  -OEChem-05262215353D

 42 41  0     1  0  0  0  0  0999 V2000
   -5.6397   -1.1050    2.2721 C   0  0  0  0  0  0  0  0  0  0  0  0
   -6.1321   -0.0518    1.8992 O   0  0  0  0  0  0  0  0  0  0  0  0
   -6.5328   -2.2743    2.6424 C   0  0  0  0  0  0  0  0  0  0  0  0
   -6.2867   -2.6305    3.6457 H   0  0  0  0  0  0  0  0  0  0  0  0
   -7.5822   -1.9672    2.6264 H   0  0  0  0  0  0  0  0  0  0  0  0
   -6.3924   -3.0898    1.9288 H   0  0  0  0  0  0  0  0  0  0  0  0
   -4.2697   -1.2392    2.3457 N   0  0  0  0  0  0  0  0  0  0  0  0
   -3.3092   -0.2298    1.8818 C   0  0  2  0  0  0  0  0  0  0  0  0
   -1.9959   -0.8776    1.3924 C   0  0  0  0  0  0  0  0  0  0  0  0
   -1.7748   -2.0627    1.6194 O   0  0  0  0  0  0  0  0  0  0  0  0
   -3.0353    0.7425    3.0343 C   0  0  0  0  0  0  0  0  0  0  0  0
   -3.8978   -2.1683    2.5411 H   0  0  0  0  0  0  0  0  0  0  0  0
   -3.7344    0.3222    1.0365 H   0  0  0  0  0  0  0  0  0  0  0  0
   -2.6048    0.2103    3.8887 H   0  0  0  0  0  0  0  0  0  0  0  0
   -2.3364    1.5244    2.7223 H   0  0  0  0  0  0  0  0  0  0  0  0
   -3.9654    1.2224    3.3556 H   0  0  0  0  0  0  0  0  0  0  0  0
   -1.0553   -0.1182    0.7210 N   0  0  0  0  0  0  0  0  0  0  0  0
    0.2830   -0.5867    0.3302 C   0  0  2  0  0  0  0  0  0  0  0  0
    1.1732    0.6192   -0.0500 C   0  0  0  0  0  0  0  0  0  0  0  0
    1.2556    1.5619    0.7277 O   0  0  0  0  0  0  0  0  0  0  0  0
    0.1630   -1.5929   -0.8299 C   0  0  0  0  0  0  0  0  0  0  0  0
   -1.2070    0.8889    0.7194 H   0  0  0  0  0  0  0  0  0  0  0  0
    0.7592   -1.0861    1.1807 H   0  0  0  0  0  0  0  0  0  0  0  0
   -0.3428   -1.1364   -1.6870 H   0  0  0  0  0  0  0  0  0  0  0  0
    1.1538   -1.9353   -1.1446 H   0  0  0  0  0  0  0  0  0  0  0  0
   -0.4099   -2.4728   -0.5237 H   0  0  0  0  0  0  0  0  0  0  0  0
    1.7347    0.7518   -1.3067 N   0  0  0  0  0  0  0  0  0  0  0  0
    2.3674    1.9726   -1.8211 C   0  0  2  0  0  0  0  0  0  0  0  0
    2.1503    2.1167   -3.3422 C   0  0  0  0  0  0  0  0  0  0  0  0
    1.7066    1.1750   -3.9911 O   0  0  0  0  0  0  0  0  0  0  0  0
    3.8608    1.9171   -1.4869 C   0  0  0  0  0  0  0  0  0  0  0  0
    1.4914    0.0443   -2.0000 H   0  0  0  0  0  0  0  0  0  0  0  0
    1.9230    2.8530   -1.3450 H   0  0  0  0  0  0  0  0  0  0  0  0
    4.3265    1.0457   -1.9585 H   0  0  0  0  0  0  0  0  0  0  0  0
    4.3693    2.8189   -1.8408 H   0  0  0  0  0  0  0  0  0  0  0  0
    4.0026    1.8450   -0.4038 H   0  0  0  0  0  0  0  0  0  0  0  0
    2.4278    3.3112   -3.9808 N   0  0  0  0  0  0  0  0  0  0  0  0
    2.1988    3.5293   -5.4040 C   0  0  0  0  0  0  0  0  0  0  0  0
    2.7650    4.0829   -3.4125 H   0  0  0  0  0  0  0  0  0  0  0  0
    2.7571    2.7988   -5.9993 H   0  0  0  0  0  0  0  0  0  0  0  0
    1.1332    3.4348   -5.6385 H   0  0  0  0  0  0  0  0  0  0  0  0
    2.5293    4.5322   -5.6913 H   0  0  0  0  0  0  0  0  0  0  0  0
  1  2  2  0  0  0  0
  1  3  1  0  0  0  0
  1  7  1  0  0  0  0
  3  4  1  0  0  0  0
  3  5  1  0  0  0  0
  3  6  1  0  0  0  0
  7  8  1  0  0  0  0
  7 12  1  0  0  0  0
  8  9  1  0  0  0  0
  8 11  1  0  0  0  0
  8 13  1  0  0  0  0
  9 10  2  0  0  0  0
  9 17  1  0  0  0  0
 11 14  1  0  0  0  0
 11 15  1  0  0  0  0
 11 16  1  0  0  0  0
 17 18  1  0  0  0  0
 17 22  1  0  0  0  0
 18 19  1  0  0  0  0
 18 21  1  0  0  0  0
 18 23  1  0  0  0  0
 19 20  2  0  0  0  0
 19 27  1  0  0  0  0
 21 24  1  0  0  0  0
 21 25  1  0  0  0  0
 21 26  1  0  0  0  0
 27 28  1  0  0  0  0
 27 32  1  0  0  0  0
 28 29  1  0  0  0  0
 28 31  1  0  0  0  0
 28 33  1  0  0  0  0
 29 30  2  0  0  0  0
 29 37  1  0  0  0  0
 31 34  1  0  0  0  0
 31 35  1  0  0  0  0
 31 36  1  0  0  0  0
 37 38  1  0  0  0  0
 37 39  1  0  0  0  0
 38 40  1  0  0  0  0
 38 41  1  0  0  0  0
 38 42  1  0  0  0  0
M  END
$$$$

  -OEChem-05262215353D

 42 41  0     1  0  0  0  0  0999 V2000
   -5.6309   -1.1338    2.2060 C   0  0  0  0  0  0  0  0  0  0  0  0
   -6.1247   -0.0890    1.8118 O   0  0  0  0  0  0  0  0  0  0  0  0
   -6.5190   -2.3198    2.5326 C   0  0  0  0  0  0  0  0  0  0  0  0
   -6.3520   -2.6380    3.5645 H   0  0  0  0  0  0  0  0  0  0  0  0
   -7.5713   -2.0468    2.4140 H   0  0  0  0  0  0  0  0  0  0  0  0
   -6.2929   -3.1516    1.8609 H   0  0  0  0  0  0  0  0  0  0  0  0
   -4.2637   -1.2423    2.3461 N   0  0  0  0  0  0  0  0  0  0  0  0
   -3.3014   -0.2227    1.9091 C   0  0  2  0  0  0  0  0  0  0  0  0
   -1.9753   -0.8589    1.4403 C   0  0  0  0  0  0  0  0  0  0  0  0
   -1.7391   -2.0367    1.6878 O   0  0  0  0  0  0  0  0  0  0  0  0
   -3.0573    0.7430    3.0731 C   0  0  0  0  0  0  0  0  0  0  0  0
   -3.8858   -2.1653    2.5580 H   0  0  0  0  0  0  0  0  0  0  0  0
   -3.7134    0.3334    1.0600 H   0  0  0  0  0  0  0  0  0  0  0  0
   -2.6333    0.2098    3.9302 H   0  0  0  0  0  0  0  0  0  0  0  0
   -2.3636    1.5359    2.7773 H   0  0  0  0  0  0  0  0  0  0  0  0
   -3.9987    1.2084    3.3829 H   0  0  0  0  0  0  0  0  0  0  0  0
   -1.0455   -0.0998    0.7535 N   0  0  0  0  0  0  0  0  0  0  0  0
    0.2937   -0.5642    0.3598 C   0  0  2  0  0  0  0  0  0  0  0  0
    1.1750    0.6392   -0.0417 C   0  0  0  0  0  0  0  0  0  0  0  0
    1.4852    1.4607    0.8106 O   0  0  0  0  0  0  0  0  0  0  0  0
    0.1808   -1.5915   -0.7817 C   0  0  0  0  0  0  0  0  0  0  0  0
   -1.2249    0.9009    0.7082 H   0  0  0  0  0  0  0  0  0  0  0  0
    0.7789   -1.0462    1.2158 H   0  0  0  0  0  0  0  0  0  0  0  0
   -0.3698   -1.1728   -1.6300 H   0  0  0  0  0  0  0  0  0  0  0  0
    1.1760   -1.8952   -1.1208 H   0  0  0  0  0  0  0  0  0  0  0  0
   -0.3441   -2.4896   -0.4439 H   0  0  0  0  0  0  0  0  0  0  0  0
    1.4714    0.9155   -1.3636 N   0  0  0  0  0  0  0  0  0  0  0  0
    2.0682    2.1675   -1.8464 C   0  0  2  0  0  0  0  0  0  0  0  0
    1.5135    2.5546   -3.2337 C   0  0  0  0  0  0  0  0  0  0  0  0
    0.8538    1.7458   -3.8779 O   0  0  0  0  0  0  0  0  0  0  0  0
    3.5878    1.9847   -1.8969 C   0  0  0  0  0  0  0  0  0  0  0  0
    1.0263    0.3272   -2.0680 H   0  0  0  0  0  0  0  0  0  0  0  0
    1.8259    2.9866   -1.1613 H   0  0  0  0  0  0  0  0  0  0  0  0
    3.8536    1.1806   -2.5905 H   0  0  0  0  0  0  0  0  0  0  0  0
    4.0767    2.9060   -2.2271 H   0  0  0  0  0  0  0  0  0  0  0  0
    3.9710    1.7290   -0.9038 H   0  0  0  0  0  0  0  0  0  0  0  0
    1.7260    3.8201   -3.7488 N   0  0  0  0  0  0  0  0  0  0  0  0
    1.1809    4.2656   -5.0259 C   0  0  0  0  0  0  0  0  0  0  0  0
    2.2493    4.4794   -3.1800 H   0  0  0  0  0  0  0  0  0  0  0  0
    1.5266    3.6177   -5.8383 H   0  0  0  0  0  0  0  0  0  0  0  0
    0.0861    4.2470   -5.0026 H   0  0  0  0  0  0  0  0  0  0  0  0
    1.5051    5.2886   -5.2401 H   0  0  0  0  0  0  0  0  0  0  0  0
  1  2  2  0  0  0  0
  1  3  1  0  0  0  0
  1  7  1  0  0  0  0
  3  4  1  0  0  0  0
  3  5  1  0  0  0  0
  3  6  1  0  0  0  0
  7  8  1  0  0  0  0
  7 12  1  0  0  0  0
  8  9  1  0  0  0  0
  8 11  1  0  0  0  0
  8 13  1  0  0  0  0
  9 10  2  0  0  0  0
  9 17  1  0  0  0  0
 11 14  1  0  0  0  0
 11 15  1  0  0  0  0
 11 16  1  0  0  0  0
 17 18  1  0  0  0  0
 17 22  1  0  0  0  0
 18 19  1  0  0  0  0
 18 21  1  0  0  0  0
 18 23  1  0  0  0  0
 19 20  2  0  0  0  0
 19 27  1  0  0  0  0
 21 24  1  0  0  0  0
 21 25  1  0  0  0  0
 21 26  1  0  0  0  0
 27 28  1  0  0  0  0
 27 32  1  0  0  0  0
 28 29  1  0  0  0  0
 28 31  1  0  0  0  0
 28 33  1  0  0  0  0
 29 30  2  0  0  0  0
 29 37  1  0  0  0  0
 31 34  1  0  0  0  0
 31 35  1  0  0  0  0
 31 36  1  0  0  0  0
 37 38  1  0  0  0  0
 37 39  1  0  0  0  0
 38 40  1  0  0  0  0
 38 41  1  0  0  0  0
 38 42  1  0  0  0  0
M  END
$$$$

  -OEChem-05262215353D

 42 41  0     1  0  0  0  0  0999 V2000
   -5.6237   -1.1472    2.0689 C   0  0  0  0  0  0  0  0  0  0  0  0
   -6.1084   -0.1132    1.6371 O   0  0  0  0  0  0  0  0  0  0  0  0
   -6.5146   -2.3388    2.3651 C   0  0  0  0  0  0  0  0  0  0  0  0
   -6.4529   -2.5956    3.4254 H   0  0  0  0  0  0  0  0  0  0  0  0
   -7.5539   -2.1030    2.1195 H   0  0  0  0  0  0  0  0  0  0  0  0
   -6.1987   -3.1987    1.7694 H   0  0  0  0  0  0  0  0  0  0  0  0
   -4.2644   -1.2371    2.2813 N   0  0  0  0  0  0  0  0  0  0  0  0
   -3.2940   -0.2042    1.8978 C   0  0  2  0  0  0  0  0  0  0  0  0
   -1.9370   -0.8198    1.4978 C   0  0  0  0  0  0  0  0  0  0  0  0
   -1.6719   -1.9754    1.8112 O   0  0  0  0  0  0  0  0  0  0  0  0
   -3.1212    0.7570    3.0775 C   0  0  0  0  0  0  0  0  0  0  0  0
   -3.8864   -2.1499    2.5331 H   0  0  0  0  0  0  0  0  0  0  0  0
   -3.6683    0.3511    1.0311 H   0  0  0  0  0  0  0  0  0  0  0  0
   -2.7439    0.2215    3.9547 H   0  0  0  0  0  0  0  0  0  0  0  0
   -2.4150    1.5540    2.8257 H   0  0  0  0  0  0  0  0  0  0  0  0
   -4.0810    1.2160    3.3354 H   0  0  0  0  0  0  0  0  0  0  0  0
   -1.0139   -0.0671    0.7946 N   0  0  0  0  0  0  0  0  0  0  0  0
    0.3413   -0.5179    0.4400 C   0  0  2  0  0  0  0  0  0  0  0  0
    1.2157    0.6759    0.0009 C   0  0  0  0  0  0  0  0  0  0  0  0
    1.7552    1.3726    0.8489 O   0  0  0  0  0  0  0  0  0  0  0  0
    0.2671   -1.5852   -0.6651 C   0  0  0  0  0  0  0  0  0  0  0  0
   -1.2411    0.9145    0.6535 H   0  0  0  0  0  0  0  0  0  0  0  0
    0.8199   -0.9607    1.3209 H   0  0  0  0  0  0  0  0  0  0  0  0
   -0.2960   -1.2155   -1.5277 H   0  0  0  0  0  0  0  0  0  0  0  0
    1.2740   -1.8622   -0.9933 H   0  0  0  0  0  0  0  0  0  0  0  0
   -0.2268   -2.4888   -0.2958 H   0  0  0  0  0  0  0  0  0  0  0  0
    1.2733    1.0680   -1.3240 N   0  0  0  0  0  0  0  0  0  0  0  0
    1.8259    2.3448   -1.7968 C   0  0  2  0  0  0  0  0  0  0  0  0
    0.9045    3.0018   -2.8458 C   0  0  0  0  0  0  0  0  0  0  0  0
   -0.0251    2.3655   -3.3308 O   0  0  0  0  0  0  0  0  0  0  0  0
    3.2109    2.0695   -2.3869 C   0  0  0  0  0  0  0  0  0  0  0  0
    0.6352    0.5932   -1.9621 H   0  0  0  0  0  0  0  0  0  0  0  0
    1.9236    3.0510   -0.9656 H   0  0  0  0  0  0  0  0  0  0  0  0
    3.1350    1.3844   -3.2374 H   0  0  0  0  0  0  0  0  0  0  0  0
    3.6766    2.9988   -2.7282 H   0  0  0  0  0  0  0  0  0  0  0  0
    3.8597    1.6167   -1.6305 H   0  0  0  0  0  0  0  0  0  0  0  0
    1.1117    4.3105   -3.2408 N   0  0  0  0  0  0  0  0  0  0  0  0
    0.2714    4.9943   -4.2166 C   0  0  0  0  0  0  0  0  0  0  0  0
    1.8804    4.8174   -2.8111 H   0  0  0  0  0  0  0  0  0  0  0  0
    0.2696    4.4523   -5.1682 H   0  0  0  0  0  0  0  0  0  0  0  0
   -0.7582    5.0677   -3.8508 H   0  0  0  0  0  0  0  0  0  0  0  0
    0.6477    6.0058   -4.3975 H   0  0  0  0  0  0  0  0  0  0  0  0
  1  2  2  0  0  0  0
  1  3  1  0  0  0  0
  1  7  1  0  0  0  0
  3  4  1  0  0  0  0
  3  5  1  0  0  0  0
  3  6  1  0  0  0  0
  7  8  1  0  0  0  0
  7 12  1  0  0  0  0
  8  9  1  0  0  0  0
  8 11  1  0  0  0  0
  8 13  1  0  0  0  0
  9 10  2  0  0  0  0
  9 17  1  0  0  0  0
 11 14  1  0  0  0  0
 11 15  1  0  0  0  0
 11 16  1  0  0  0  0
 17 18  1  0  0  0  0
 17 22  1  0  0  0  0
 18 19  1  0  0  0  0
 18 21  1  0  0  0  0
 18 23  1  0  0  0  0
 19 20  2  0  0  0  0
 19 27  1  0  0  0  0
 21 24  1  0  0  0  0
 21 25  1  0  0  0  0
 21 26  1  0  0  0  0
 27 28  1  0  0  0  0
 27 32  1  0  0  0  0
 28 29  1  0  0  0  0
 28 31  1  0  0  0  0
 28 33  1  0  0  0  0
 29 30  2  0  0  0  0
 29 37  1  0  0  0  0
 31 34  1  0  0  0  0
 31 35  1  0  0  0  0
 31 36  1  0  0  0  0
 37 38  1  0  0  0  0
 37 39  1  0  0  0  0
 38 40  1  0  0  0  0
 38 41  1  0  0  0  0
 38 42  1  0  0  0  0
M  END
$$$$

  -OEChem-05262215353D

 42 41  0     1  0  0  0  0  0999 V2000
   -5.4110   -0.8180    1.5464 C   0  0  0  0  0  0  0  0  0  0  0  0
   -5.8594   -0.1620    0.6194 O   0  0  0  0  0  0  0  0  0  0  0  0
   -6.3052   -1.7912    2.2908 C   0  0  0  0  0  0  0  0  0  0  0  0
   -6.3294   -1.5358    3.3529 H   0  0  0  0  0  0  0  0  0  0  0  0
   -7.3236   -1.7471    1.8943 H   0  0  0  0  0  0  0  0  0  0  0  0
   -5.9249   -2.8093    2.1758 H   0  0  0  0  0  0  0  0  0  0  0  0
   -4.0904   -0.6854    1.9179 N   0  0  0  0  0  0  0  0  0  0  0  0
   -3.0941    0.0996    1.1780 C   0  0  2  0  0  0  0  0  0  0  0  0
   -1.6786   -0.4990    1.3273 C   0  0  0  0  0  0  0  0  0  0  0  0
   -1.4797   -1.4504    2.0767 O   0  0  0  0  0  0  0  0  0  0  0  0
   -3.1324    1.5441    1.6879 C   0  0  0  0  0  0  0  0  0  0  0  0
   -3.7290   -1.3486    2.6026 H   0  0  0  0  0  0  0  0  0  0  0  0
   -3.3367    0.0914    0.1096 H   0  0  0  0  0  0  0  0  0  0  0  0
   -2.8731    1.5818    2.7504 H   0  0  0  0  0  0  0  0  0  0  0  0
   -2.4251    2.1674    1.1324 H   0  0  0  0  0  0  0  0  0  0  0  0
   -4.1342    1.9652    1.5578 H   0  0  0  0  0  0  0  0  0  0  0  0
   -0.6279    0.0317    0.6077 N   0  0  0  0  0  0  0  0  0  0  0  0
    0.7642   -0.4400    0.6432 C   0  0  2  0  0  0  0  0  0  0  0  0
    1.6577    0.6401    0.0080 C   0  0  0  0  0  0  0  0  0  0  0  0
    2.1455    1.5225    0.7020 O   0  0  0  0  0  0  0  0  0  0  0  0
    0.8938   -1.7875   -0.0825 C   0  0  0  0  0  0  0  0  0  0  0  0
   -0.8428    0.8420    0.0156 H   0  0  0  0  0  0  0  0  0  0  0  0
    1.0855   -0.5663    1.6833 H   0  0  0  0  0  0  0  0  0  0  0  0
    0.4859   -1.7288   -1.0959 H   0  0  0  0  0  0  0  0  0  0  0  0
    1.9452   -2.0858   -0.1422 H   0  0  0  0  0  0  0  0  0  0  0  0
    0.3495   -2.5655    0.4616 H   0  0  0  0  0  0  0  0  0  0  0  0
    1.6489    0.7913   -1.3675 N   0  0  0  0  0  0  0  0  0  0  0  0
    1.6154    2.1487   -1.9292 C   0  0  2  0  0  0  0  0  0  0  0  0
    0.2605    2.8464   -1.6496 C   0  0  0  0  0  0  0  0  0  0  0  0
   -0.7375    2.1798   -1.3785 O   0  0  0  0  0  0  0  0  0  0  0  0
    1.8622    2.0428   -3.4353 C   0  0  0  0  0  0  0  0  0  0  0  0
    1.0536    0.1137   -1.8357 H   0  0  0  0  0  0  0  0  0  0  0  0
    2.4147    2.7529   -1.4864 H   0  0  0  0  0  0  0  0  0  0  0  0
    1.0697    1.4592   -3.9149 H   0  0  0  0  0  0  0  0  0  0  0  0
    1.8832    3.0381   -3.8898 H   0  0  0  0  0  0  0  0  0  0  0  0
    2.8224    1.5543   -3.6291 H   0  0  0  0  0  0  0  0  0  0  0  0
    0.1567    4.2237   -1.6908 N   0  0  0  0  0  0  0  0  0  0  0  0
   -1.0674    4.9406   -1.3527 C   0  0  0  0  0  0  0  0  0  0  0  0
    1.0137    4.7537   -1.8221 H   0  0  0  0  0  0  0  0  0  0  0  0
   -1.8815    4.6480   -2.0242 H   0  0  0  0  0  0  0  0  0  0  0  0
   -1.3661    4.7244   -0.3214 H   0  0  0  0  0  0  0  0  0  0  0  0
   -0.9133    6.0197   -1.4491 H   0  0  0  0  0  0  0  0  0  0  0  0
  1  2  2  0  0  0  0
  1  3  1  0  0  0  0
  1  7  1  0  0  0  0
  3  4  1  0  0  0  0
  3  5  1  0  0  0  0
  3  6  1  0  0  0  0
  7  8  1  0  0  0  0
  7 12  1  0  0  0  0
  8  9  1  0  0  0  0
  8 11  1  0  0  0  0
  8 13  1  0  0  0  0
  9 10  2  0  0  0  0
  9 17  1  0  0  0  0
 11 14  1  0  0  0  0
 11 15  1  0  0  0  0
 11 16  1  0  0  0  0
 17 18  1  0  0  0  0
 17 22  1  0  0  0  0
 18 19  1  0  0  0  0
 18 21  1  0  0  0  0
 18 23  1  0  0  0  0
 19 20  2  0  0  0  0
 19 27  1  0  0  0  0
 21 24  1  0  0  0  0
 21 25  1  0  0  0  0
 21 26  1  0  0  0  0
 27 28  1  0  0  0  0
 27 32  1  0  0  0  0
 28 29  1  0  0  0  0
 28 31  1  0  0  0  0
 28 33  1  0  0  0  0
 29 30  2  0  0  0  0
 29 37  1  0  0  0  0
 31 34  1  0  0  0  0
 31 35  1  0  0  0  0
 31 36  1  0  0  0  0
 37 38  1  0  0  0  0
 37 39  1  0  0  0  0
 38 40  1  0  0  0  0
 38 41  1  0  0  0  0
 38 42  1  0  0  0  0
M  END
$$$$

  -OEChem-05262215353D

 42 41  0     1  0  0  0  0  0999 V2000
   -5.5047   -0.8572    1.5966 C   0  0  0  0  0  0  0  0  0  0  0  0
   -5.9841   -0.1530    0.7221 O   0  0  0  0  0  0  0  0  0  0  0  0
   -6.3761   -1.8632    2.3253 C   0  0  0  0  0  0  0  0  0  0  0  0
   -6.3864   -1.6407    3.3951 H   0  0  0  0  0  0  0  0  0  0  0  0
   -7.4013   -1.8195    1.9466 H   0  0  0  0  0  0  0  0  0  0  0  0
   -5.9874   -2.8732    2.1739 H   0  0  0  0  0  0  0  0  0  0  0  0
   -4.1701   -0.7471    1.9232 N   0  0  0  0  0  0  0  0  0  0  0  0
   -3.1984    0.0787    1.1936 C   0  0  2  0  0  0  0  0  0  0  0  0
   -1.7809   -0.5321    1.2565 C   0  0  0  0  0  0  0  0  0  0  0  0
   -1.5678   -1.5258    1.9442 O   0  0  0  0  0  0  0  0  0  0  0  0
   -3.2143    1.4890    1.7935 C   0  0  0  0  0  0  0  0  0  0  0  0
   -3.7856   -1.4456    2.5585 H   0  0  0  0  0  0  0  0  0  0  0  0
   -3.4800    0.1363    0.1365 H   0  0  0  0  0  0  0  0  0  0  0  0
   -2.9248    1.4598    2.8487 H   0  0  0  0  0  0  0  0  0  0  0  0
   -2.5203    2.1443    1.2589 H   0  0  0  0  0  0  0  0  0  0  0  0
   -4.2172    1.9210    1.7179 H   0  0  0  0  0  0  0  0  0  0  0  0
   -0.7426    0.0376    0.5454 N   0  0  0  0  0  0  0  0  0  0  0  0
    0.6607   -0.4082    0.5940 C   0  0  2  0  0  0  0  0  0  0  0  0
    1.5630    0.6776   -0.0167 C   0  0  0  0  0  0  0  0  0  0  0  0
    2.2433    1.3942    0.7049 O   0  0  0  0  0  0  0  0  0  0  0  0
    0.8262   -1.7332   -0.1643 C   0  0  0  0  0  0  0  0  0  0  0  0
   -0.9497    0.9280    0.0787 H   0  0  0  0  0  0  0  0  0  0  0  0
    0.9670   -0.5524    1.6363 H   0  0  0  0  0  0  0  0  0  0  0  0
    0.4600   -1.6443   -1.1916 H   0  0  0  0  0  0  0  0  0  0  0  0
    1.8809   -2.0244   -0.1919 H   0  0  0  0  0  0  0  0  0  0  0  0
    0.2668   -2.5317    0.3324 H   0  0  0  0  0  0  0  0  0  0  0  0
    1.3519    1.0457   -1.3337 N   0  0  0  0  0  0  0  0  0  0  0  0
    1.3846    2.4675   -1.7008 C   0  0  2  0  0  0  0  0  0  0  0  0
    0.1142    3.1964   -1.2011 C   0  0  0  0  0  0  0  0  0  0  0  0
   -0.9063    2.5541   -0.9568 O   0  0  0  0  0  0  0  0  0  0  0  0
    1.4979    2.5631   -3.2238 C   0  0  0  0  0  0  0  0  0  0  0  0
    0.6246    0.4975   -1.7856 H   0  0  0  0  0  0  0  0  0  0  0  0
    2.2620    2.9511   -1.2574 H   0  0  0  0  0  0  0  0  0  0  0  0
    0.6287    2.1027   -3.7047 H   0  0  0  0  0  0  0  0  0  0  0  0
    1.5539    3.6102   -3.5374 H   0  0  0  0  0  0  0  0  0  0  0  0
    2.4011    2.0504   -3.5695 H   0  0  0  0  0  0  0  0  0  0  0  0
    0.1144    4.5647   -1.0077 N   0  0  0  0  0  0  0  0  0  0  0  0
   -1.0183    5.2896   -0.4437 C   0  0  0  0  0  0  0  0  0  0  0  0
    1.0012    5.0499   -1.1120 H   0  0  0  0  0  0  0  0  0  0  0  0
   -1.9179    5.1270   -1.0467 H   0  0  0  0  0  0  0  0  0  0  0  0
   -1.2150    4.9560    0.5807 H   0  0  0  0  0  0  0  0  0  0  0  0
   -0.8082    6.3633   -0.4242 H   0  0  0  0  0  0  0  0  0  0  0  0
  1  2  2  0  0  0  0
  1  3  1  0  0  0  0
  1  7  1  0  0  0  0
  3  4  1  0  0  0  0
  3  5  1  0  0  0  0
  3  6  1  0  0  0  0
  7  8  1  0  0  0  0
  7 12  1  0  0  0  0
  8  9  1  0  0  0  0
  8 11  1  0  0  0  0
  8 13  1  0  0  0  0
  9 10  2  0  0  0  0
  9 17  1  0  0  0  0
 11 14  1  0  0  0  0
 11 15  1  0  0  0  0
 11 16  1  0  0  0  0
 17 18  1  0  0  0  0
 17 22  1  0  0  0  0
 18 19  1  0  0  0  0
 18 21  1  0  0  0  0
 18 23  1  0  0  0  0
 19 20  2  0  0  0  0
 19 27  1  0  0  0  0
 21 24  1  0  0  0  0
 21 25  1  0  0  0  0
 21 26  1  0  0  0  0
 27 28  1  0  0  0  0
 27 32  1  0  0  0  0
 28 29  1  0  0  0  0
 28 31  1  0  0  0  0
 28 33  1  0  0  0  0
 29 30  2  0  0  0  0
 29 37  1  0  0  0  0
 31 34  1  0  0  0  0
 31 35  1  0  0  0  0
 31 36  1  0  0  0  0
 37 38  1  0  0  0  0
 37 39  1  0  0  0  0
 38 40  1  0  0  0  0
 38 41  1  0  0  0  0
 38 42  1  0  0  0  0
M  END
$$$$

  -OEChem-05262215353D

 42 41  0     1  0  0  0  0  0999 V2000
   -5.5182   -0.7530    1.6149 C   0  0  0  0  0  0  0  0  0  0  0  0
   -5.9569    0.0973    0.8567 O   0  0  0  0  0  0  0  0  0  0  0  0
   -6.4331   -1.8406    2.1456 C   0  0  0  0  0  0  0  0  0  0  0  0
   -6.4986   -1.7744    3.2343 H   0  0  0  0  0  0  0  0  0  0  0  0
   -7.4361   -1.7277    1.7243 H   0  0  0  0  0  0  0  0  0  0  0  0
   -6.0439   -2.8237    1.8696 H   0  0  0  0  0  0  0  0  0  0  0  0
   -4.1906   -0.7359    1.9852 N   0  0  0  0  0  0  0  0  0  0  0  0
   -3.1800    0.1647    1.4149 C   0  0  2  0  0  0  0  0  0  0  0  0
   -1.8000   -0.5212    1.3244 C   0  0  0  0  0  0  0  0  0  0  0  0
   -1.5908   -1.5661    1.9325 O   0  0  0  0  0  0  0  0  0  0  0  0
   -3.1046    1.4182    2.2915 C   0  0  0  0  0  0  0  0  0  0  0  0
   -3.8419   -1.5343    2.5147 H   0  0  0  0  0  0  0  0  0  0  0  0
   -3.4678    0.4545    0.3981 H   0  0  0  0  0  0  0  0  0  0  0  0
   -2.8105    1.1537    3.3121 H   0  0  0  0  0  0  0  0  0  0  0  0
   -2.3730    2.1255    1.8901 H   0  0  0  0  0  0  0  0  0  0  0  0
   -4.0794    1.9151    2.3255 H   0  0  0  0  0  0  0  0  0  0  0  0
   -0.7911    0.0514    0.5736 N   0  0  0  0  0  0  0  0  0  0  0  0
    0.6138   -0.3990    0.5772 C   0  0  2  0  0  0  0  0  0  0  0  0
    1.5135    0.6727   -0.0640 C   0  0  0  0  0  0  0  0  0  0  0  0
    2.4043    1.2012    0.5864 O   0  0  0  0  0  0  0  0  0  0  0  0
    0.7529   -1.7132   -0.2029 C   0  0  0  0  0  0  0  0  0  0  0  0
   -0.9839    1.0038    0.2434 H   0  0  0  0  0  0  0  0  0  0  0  0
    0.9513   -0.5535    1.6085 H   0  0  0  0  0  0  0  0  0  0  0  0
    0.3732   -1.6005   -1.2230 H   0  0  0  0  0  0  0  0  0  0  0  0
    1.8043   -2.0139   -0.2514 H   0  0  0  0  0  0  0  0  0  0  0  0
    0.1938   -2.5153    0.2875 H   0  0  0  0  0  0  0  0  0  0  0  0
    1.0907    1.2605   -1.2426 N   0  0  0  0  0  0  0  0  0  0  0  0
    1.1840    2.7152   -1.4202 C   0  0  2  0  0  0  0  0  0  0  0  0
   -0.0011    3.4259   -0.7262 C   0  0  0  0  0  0  0  0  0  0  0  0
   -1.0133    2.7885   -0.4387 O   0  0  0  0  0  0  0  0  0  0  0  0
    1.1890    3.0081   -2.9217 C   0  0  0  0  0  0  0  0  0  0  0  0
    0.2464    0.8330   -1.6155 H   0  0  0  0  0  0  0  0  0  0  0  0
    2.1176    3.0944   -0.9907 H   0  0  0  0  0  0  0  0  0  0  0  0
    0.2632    2.6536   -3.3861 H   0  0  0  0  0  0  0  0  0  0  0  0
    1.2780    4.0838   -3.1018 H   0  0  0  0  0  0  0  0  0  0  0  0
    2.0350    2.5063   -3.4022 H   0  0  0  0  0  0  0  0  0  0  0  0
    0.0635    4.7697   -0.4125 N   0  0  0  0  0  0  0  0  0  0  0  0
   -0.9993    5.4768    0.2924 C   0  0  0  0  0  0  0  0  0  0  0  0
    0.9411    5.2514   -0.5874 H   0  0  0  0  0  0  0  0  0  0  0  0
   -1.9362    5.4221   -0.2719 H   0  0  0  0  0  0  0  0  0  0  0  0
   -1.1592    5.0404    1.2839 H   0  0  0  0  0  0  0  0  0  0  0  0
   -0.7344    6.5310    0.4174 H   0  0  0  0  0  0  0  0  0  0  0  0
  1  2  2  0  0  0  0
  1  3  1  0  0  0  0
  1  7  1  0  0  0  0
  3  4  1  0  0  0  0
  3  5  1  0  0  0  0
  3  6  1  0  0  0  0
  7  8  1  0  0  0  0
  7 12  1  0  0  0  0
  8  9  1  0  0  0  0
  8 11  1  0  0  0  0
  8 13  1  0  0  0  0
  9 10  2  0  0  0  0
  9 17  1  0  0  0  0
 11 14  1  0  0  0  0
 11 15  1  0  0  0  0
 11 16  1  0  0  0  0
 17 18  1  0  0  0  0
 17 22  1  0  0  0  0
 18 19  1  0  0  0  0
 18 21  1  0  0  0  0
 18 23  1  0  0  0  0
 19 20  2  0  0  0  0
 19 27  1  0  0  0  0
 21 24  1  0  0  0  0
 21 25  1  0  0  0  0
 21 26  1  0  0  0  0
 27 28  1  0  0  0  0
 27 32  1  0  0  0  0
 28 29  1  0  0  0  0
 28 31  1  0  0  0  0
 28 33  1  0  0  0  0
 29 30  2  0  0  0  0
 29 37  1  0  0  0  0
 31 34  1  0  0  0  0
 31 35  1  0  0  0  0
 31 36  1  0  0  0  0
 37 38  1  0  0  0  0
 37 39  1  0  0  0  0
 38 40  1  0  0  0  0
 38 41  1  0  0  0  0
 38 42  1  0  0  0  0
M  END
$$$$

  -OEChem-05262215353D

 42 41  0     1  0  0  0  0  0999 V2000
   -5.4635   -0.7667    1.6295 C   0  0  0  0  0  0  0  0  0  0  0  0
   -5.8626    0.0399    0.8047 O   0  0  0  0  0  0  0  0  0  0  0  0
   -6.3518   -1.9229    2.0502 C   0  0  0  0  0  0  0  0  0  0  0  0
   -6.5943   -1.8400    3.1124 H   0  0  0  0  0  0  0  0  0  0  0  0
   -7.2816   -1.9139    1.4745 H   0  0  0  0  0  0  0  0  0  0  0  0
   -5.8380   -2.8712    1.8739 H   0  0  0  0  0  0  0  0  0  0  0  0
   -4.2034   -0.6449    2.1759 N   0  0  0  0  0  0  0  0  0  0  0  0
   -3.1703    0.2753    1.6799 C   0  0  2  0  0  0  0  0  0  0  0  0
   -1.8352   -0.4606    1.4392 C   0  0  0  0  0  0  0  0  0  0  0  0
   -1.6154   -1.5270    2.0044 O   0  0  0  0  0  0  0  0  0  0  0  0
   -2.9967    1.3894    2.7153 C   0  0  0  0  0  0  0  0  0  0  0  0
   -3.8699   -1.4366    2.7238 H   0  0  0  0  0  0  0  0  0  0  0  0
   -3.4745    0.7209    0.7266 H   0  0  0  0  0  0  0  0  0  0  0  0
   -2.6810    0.9737    3.6776 H   0  0  0  0  0  0  0  0  0  0  0  0
   -2.2432    2.1099    2.3833 H   0  0  0  0  0  0  0  0  0  0  0  0
   -3.9427    1.9215    2.8571 H   0  0  0  0  0  0  0  0  0  0  0  0
   -0.8761    0.0967    0.6137 N   0  0  0  0  0  0  0  0  0  0  0  0
    0.5150   -0.3940    0.5207 C   0  0  2  0  0  0  0  0  0  0  0  0
    1.4222    0.6364   -0.1805 C   0  0  0  0  0  0  0  0  0  0  0  0
    2.5053    0.9291    0.3055 O   0  0  0  0  0  0  0  0  0  0  0  0
    0.5545   -1.7035   -0.2797 C   0  0  0  0  0  0  0  0  0  0  0  0
   -1.0406    1.0854    0.3944 H   0  0  0  0  0  0  0  0  0  0  0  0
    0.9136   -0.5696    1.5267 H   0  0  0  0  0  0  0  0  0  0  0  0
    0.1173   -1.5613   -1.2728 H   0  0  0  0  0  0  0  0  0  0  0  0
    1.5883   -2.0432   -0.3977 H   0  0  0  0  0  0  0  0  0  0  0  0
   -0.0028   -2.4922    0.2339 H   0  0  0  0  0  0  0  0  0  0  0  0
    0.8615    1.4661   -1.1347 N   0  0  0  0  0  0  0  0  0  0  0  0
    1.0847    2.9168   -1.1012 C   0  0  2  0  0  0  0  0  0  0  0  0
    0.0155    3.6021   -0.2204 C   0  0  0  0  0  0  0  0  0  0  0  0
   -1.0014    2.9855    0.0952 O   0  0  0  0  0  0  0  0  0  0  0  0
    1.0249    3.4392   -2.5385 C   0  0  0  0  0  0  0  0  0  0  0  0
   -0.0805    1.1851   -1.3961 H   0  0  0  0  0  0  0  0  0  0  0  0
    2.0727    3.1488   -0.6892 H   0  0  0  0  0  0  0  0  0  0  0  0
    0.0443    3.2375   -2.9817 H   0  0  0  0  0  0  0  0  0  0  0  0
    1.2012    4.5190   -2.5616 H   0  0  0  0  0  0  0  0  0  0  0  0
    1.7909    2.9517   -3.1500 H   0  0  0  0  0  0  0  0  0  0  0  0
    0.1899    4.8968    0.2289 N   0  0  0  0  0  0  0  0  0  0  0  0
   -0.7675    5.5811    1.0901 C   0  0  0  0  0  0  0  0  0  0  0  0
    1.0674    5.3586    0.0058 H   0  0  0  0  0  0  0  0  0  0  0  0
   -1.7425    5.6570    0.5967 H   0  0  0  0  0  0  0  0  0  0  0  0
   -0.8907    5.0386    2.0335 H   0  0  0  0  0  0  0  0  0  0  0  0
   -0.4172    6.5930    1.3161 H   0  0  0  0  0  0  0  0  0  0  0  0
  1  2  2  0  0  0  0
  1  3  1  0  0  0  0
  1  7  1  0  0  0  0
  3  4  1  0  0  0  0
  3  5  1  0  0  0  0
  3  6  1  0  0  0  0
  7  8  1  0  0  0  0
  7 12  1  0  0  0  0
  8  9  1  0  0  0  0
  8 11  1  0  0  0  0
  8 13  1  0  0  0  0
  9 10  2  0  0  0  0
  9 17  1  0  0  0  0
 11 14  1  0  0  0  0
 11 15  1  0  0  0  0
 11 16  1  0  0  0  0
 17 18  1  0  0  0  0
 17 22  1  0  0  0  0
 18 19  1  0  0  0  0
 18 21  1  0  0  0  0
 18 23  1  0  0  0  0
 19 20  2  0  0  0  0
 19 27  1  0  0  0  0
 21 24  1  0  0  0  0
 21 25  1  0  0  0  0
 21 26  1  0  0  0  0
 27 28  1  0  0  0  0
 27 32  1  0  0  0  0
 28 29  1  0  0  0  0
 28 31  1  0  0  0  0
 28 33  1  0  0  0  0
 29 30  2  0  0  0  0
 29 37  1  0  0  0  0
 31 34  1  0  0  0  0
 31 35  1  0  0  0  0
 31 36  1  0  0  0  0
 37 38  1  0  0  0  0
 37 39  1  0  0  0  0
 38 40  1  0  0  0  0
 38 41  1  0  0  0  0
 38 42  1  0  0  0  0
M  END
$$$$

  -OEChem-05262215353D

 42 41  0     1  0  0  0  0  0999 V2000
   -5.3088   -0.7714    1.5760 C   0  0  0  0  0  0  0  0  0  0  0  0
   -5.5457   -0.1041    0.5814 O   0  0  0  0  0  0  0  0  0  0  0  0
   -6.2394   -1.9050    1.9646 C   0  0  0  0  0  0  0  0  0  0  0  0
   -6.6076   -1.7530    2.9819 H   0  0  0  0  0  0  0  0  0  0  0  0
   -7.0939   -1.9423    1.2831 H   0  0  0  0  0  0  0  0  0  0  0  0
   -5.7078   -2.8584    1.9154 H   0  0  0  0  0  0  0  0  0  0  0  0
   -4.1958   -0.5116    2.3487 N   0  0  0  0  0  0  0  0  0  0  0  0
   -3.1064    0.3860    1.9369 C   0  0  2  0  0  0  0  0  0  0  0  0
   -1.8354   -0.4003    1.5519 C   0  0  0  0  0  0  0  0  0  0  0  0
   -1.5859   -1.4630    2.1104 O   0  0  0  0  0  0  0  0  0  0  0  0
   -2.8188    1.3300    3.1072 C   0  0  0  0  0  0  0  0  0  0  0  0
   -3.9520   -1.2307    3.0263 H   0  0  0  0  0  0  0  0  0  0  0  0
   -3.4027    0.9890    1.0718 H   0  0  0  0  0  0  0  0  0  0  0  0
   -2.5097    0.7634    3.9916 H   0  0  0  0  0  0  0  0  0  0  0  0
   -2.0197    2.0311    2.8477 H   0  0  0  0  0  0  0  0  0  0  0  0
   -3.7153    1.9064    3.3563 H   0  0  0  0  0  0  0  0  0  0  0  0
   -0.9440    0.1377    0.6411 N   0  0  0  0  0  0  0  0  0  0  0  0
    0.4415   -0.3517    0.4699 C   0  0  2  0  0  0  0  0  0  0  0  0
    1.3108    0.6449   -0.3262 C   0  0  0  0  0  0  0  0  0  0  0  0
    2.4955    0.7665   -0.0486 O   0  0  0  0  0  0  0  0  0  0  0  0
    0.4355   -1.6885   -0.2862 C   0  0  0  0  0  0  0  0  0  0  0  0
   -1.0997    1.1383    0.4849 H   0  0  0  0  0  0  0  0  0  0  0  0
    0.9056   -0.4919    1.4527 H   0  0  0  0  0  0  0  0  0  0  0  0
   -0.0657   -1.5817   -1.2531 H   0  0  0  0  0  0  0  0  0  0  0  0
    1.4613   -2.0288   -0.4605 H   0  0  0  0  0  0  0  0  0  0  0  0
   -0.0819   -2.4617    0.2885 H   0  0  0  0  0  0  0  0  0  0  0  0
    0.6885    1.6528   -1.0397 N   0  0  0  0  0  0  0  0  0  0  0  0
    1.0292    3.0624   -0.8140 C   0  0  2  0  0  0  0  0  0  0  0  0
    0.0935    3.6666    0.2571 C   0  0  0  0  0  0  0  0  0  0  0  0
   -0.9433    3.0770    0.5595 O   0  0  0  0  0  0  0  0  0  0  0  0
    0.8869    3.8016   -2.1458 C   0  0  0  0  0  0  0  0  0  0  0  0
   -0.3021    1.4767   -1.1882 H   0  0  0  0  0  0  0  0  0  0  0  0
    2.0634    3.1638   -0.4673 H   0  0  0  0  0  0  0  0  0  0  0  0
   -0.1412    3.7343   -2.5162 H   0  0  0  0  0  0  0  0  0  0  0  0
    1.1460    4.8582   -2.0274 H   0  0  0  0  0  0  0  0  0  0  0  0
    1.5558    3.3637   -2.8936 H   0  0  0  0  0  0  0  0  0  0  0  0
    0.4132    4.8481    0.8979 N   0  0  0  0  0  0  0  0  0  0  0  0
   -0.4077    5.4334    1.9516 C   0  0  0  0  0  0  0  0  0  0  0  0
    1.2986    5.2885    0.6625 H   0  0  0  0  0  0  0  0  0  0  0  0
   -1.4008    5.6882    1.5665 H   0  0  0  0  0  0  0  0  0  0  0  0
   -0.5214    4.7315    2.7847 H   0  0  0  0  0  0  0  0  0  0  0  0
    0.0594    6.3466    2.3328 H   0  0  0  0  0  0  0  0  0  0  0  0
  1  2  2  0  0  0  0
  1  3  1  0  0  0  0
  1  7  1  0  0  0  0
  3  4  1  0  0  0  0
  3  5  1  0  0  0  0
  3  6  1  0  0  0  0
  7  8  1  0  0  0  0
  7 12  1  0  0  0  0
  8  9  1  0  0  0  0
  8 11  1  0  0  0  0
  8 13  1  0  0  0  0
  9 10  2  0  0  0  0
  9 17  1  0  0  0  0
 11 14  1  0  0  0  0
 11 15  1  0  0  0  0
 11 16  1  0  0  0  0
 17 18  1  0  0  0  0
 17 22  1  0  0  0  0
 18 19  1  0  0  0  0
 18 21  1  0  0  0  0
 18 23  1  0  0  0  0
 19 20  2  0  0  0  0
 19 27  1  0  0  0  0
 21 24  1  0  0  0  0
 21 25  1  0  0  0  0
 21 26  1  0  0  0  0
 27 28  1  0  0  0  0
 27 32  1  0  0  0  0
 28 29  1  0  0  0  0
 28 31  1  0  0  0  0
 28 33  1  0  0  0  0
 29 30  2  0  0  0  0
 29 37  1  0  0  0  0
 31 34  1  0  0  0  0
 31 35  1  0  0  0  0
 31 36  1  0  0  0  0
 37 38  1  0  0  0  0
 37 39  1  0  0  0  0
 38 40  1  0  0  0  0
 38 41  1  0  0  0  0
 38 42  1  0  0  0  0
M  END
$$$$

  -OEChem-05262215353D

 42 41  0     1  0  0  0  0  0999 V2000
   -5.6243   -1.5645    1.7958 C   0  0  0  0  0  0  0  0  0  0  0  0
   -6.1409   -0.6510    1.1720 O   0  0  0  0  0  0  0  0  0  0  0  0
   -6.3638   -2.8780    1.9700 C   0  0  0  0  0  0  0  0  0  0  0  0
   -6.4820   -3.1014    3.0331 H   0  0  0  0  0  0  0  0  0  0  0  0
   -7.3549   -2.8168    1.5112 H   0  0  0  0  0  0  0  0  0  0  0  0
   -5.8050   -3.6879    1.4946 H   0  0  0  0  0  0  0  0  0  0  0  0
   -4.3633   -1.4120    2.3331 N   0  0  0  0  0  0  0  0  0  0  0  0
   -3.4813   -0.2686    2.0633 C   0  0  2  0  0  0  0  0  0  0  0  0
   -2.0462   -0.7260    1.7293 C   0  0  0  0  0  0  0  0  0  0  0  0
   -1.6595   -1.8382    2.0698 O   0  0  0  0  0  0  0  0  0  0  0  0
   -3.4849    0.6364    3.2975 C   0  0  0  0  0  0  0  0  0  0  0  0
   -3.9187   -2.2500    2.7060 H   0  0  0  0  0  0  0  0  0  0  0  0
   -3.8505    0.3005    1.2038 H   0  0  0  0  0  0  0  0  0  0  0  0
   -3.1084    0.0949    4.1713 H   0  0  0  0  0  0  0  0  0  0  0  0
   -2.8531    1.5146    3.1327 H   0  0  0  0  0  0  0  0  0  0  0  0
   -4.5021    0.9794    3.5112 H   0  0  0  0  0  0  0  0  0  0  0  0
   -1.1854    0.1218    1.0545 N   0  0  0  0  0  0  0  0  0  0  0  0
    0.1099   -0.3109    0.4920 C   0  0  2  0  0  0  0  0  0  0  0  0
    1.0332    0.8738    0.1260 C   0  0  0  0  0  0  0  0  0  0  0  0
    2.1118    0.6849   -0.4198 O   0  0  0  0  0  0  0  0  0  0  0  0
   -0.1552   -1.1757   -0.7501 C   0  0  0  0  0  0  0  0  0  0  0  0
   -1.6196    0.9490    0.6542 H   0  0  0  0  0  0  0  0  0  0  0  0
    0.6454   -0.9100    1.2367 H   0  0  0  0  0  0  0  0  0  0  0  0
   -0.6837   -0.5983   -1.5150 H   0  0  0  0  0  0  0  0  0  0  0  0
    0.7888   -1.5322   -1.1745 H   0  0  0  0  0  0  0  0  0  0  0  0
   -0.7595   -2.0505   -0.4918 H   0  0  0  0  0  0  0  0  0  0  0  0
    0.6135    2.1739    0.3368 N   0  0  0  0  0  0  0  0  0  0  0  0
    1.4304    3.3683    0.0948 C   0  0  2  0  0  0  0  0  0  0  0  0
    0.9815    4.5256    1.0129 C   0  0  0  0  0  0  0  0  0  0  0  0
   -0.0380    4.4084    1.6869 O   0  0  0  0  0  0  0  0  0  0  0  0
    1.2972    3.7645   -1.3796 C   0  0  0  0  0  0  0  0  0  0  0  0
   -0.1686    2.2993    0.9775 H   0  0  0  0  0  0  0  0  0  0  0  0
    2.4801    3.1509    0.3201 H   0  0  0  0  0  0  0  0  0  0  0  0
    0.2558    4.0021   -1.6190 H   0  0  0  0  0  0  0  0  0  0  0  0
    1.9148    4.6399   -1.6005 H   0  0  0  0  0  0  0  0  0  0  0  0
    1.6243    2.9430   -2.0250 H   0  0  0  0  0  0  0  0  0  0  0  0
    1.7174    5.6934    1.0930 N   0  0  0  0  0  0  0  0  0  0  0  0
    1.3336    6.8252    1.9287 C   0  0  0  0  0  0  0  0  0  0  0  0
    2.5588    5.7611    0.5274 H   0  0  0  0  0  0  0  0  0  0  0  0
    0.3537    7.2098    1.6267 H   0  0  0  0  0  0  0  0  0  0  0  0
    1.2857    6.5268    2.9815 H   0  0  0  0  0  0  0  0  0  0  0  0
    2.0657    7.6328    1.8317 H   0  0  0  0  0  0  0  0  0  0  0  0
  1  2  2  0  0  0  0
  1  3  1  0  0  0  0
  1  7  1  0  0  0  0
  3  4  1  0  0  0  0
  3  5  1  0  0  0  0
  3  6  1  0  0  0  0
  7  8  1  0  0  0  0
  7 12  1  0  0  0  0
  8  9  1  0  0  0  0
  8 11  1  0  0  0  0
  8 13  1  0  0  0  0
  9 10  2  0  0  0  0
  9 17  1  0  0  0  0
 11 14  1  0  0  0  0
 11 15  1  0  0  0  0
 11 16  1  0  0  0  0
 17 18  1  0  0  0  0
 17 22  1  0  0  0  0
 18 19  1  0  0  0  0
 18 21  1  0  0  0  0
 18 23  1  0  0  0  0
 19 20  2  0  0  0  0
 19 27  1  0  0  0  0
 21 24  1  0  0  0  0
 21 25  1  0  0  0  0
 21 26  1  0  0  0  0
 27 28  1  0  0  0  0
 27 32  1  0  0  0  0
 28 29  1  0  0  0  0
 28 31  1  0  0  0  0
 28 33  1  0  0  0  0
 29 30  2  0  0  0  0
 29 37  1  0  0  0  0
 31 34  1  0  0  0  0
 31 35  1  0  0  0  0
 31 36  1  0  0  0  0
 37 38  1  0  0  0  0
 37 39  1  0  0  0  0
 38 40  1  0  0  0  0
 38 41  1  0  0  0  0
 38 42  1  0  0  0  0
M  END
$$$$

  -OEChem-05262215353D

 42 41  0     1  0  0  0  0  0999 V2000
   -5.6386   -1.4672    1.8123 C   0  0  0  0  0  0  0  0  0  0  0  0
   -6.1505   -0.5346    1.2132 O   0  0  0  0  0  0  0  0  0  0  0  0
   -6.4054   -2.7634    1.9957 C   0  0  0  0  0  0  0  0  0  0  0  0
   -6.4989   -2.9952    3.0593 H   0  0  0  0  0  0  0  0  0  0  0  0
   -7.4069   -2.6731    1.5658 H   0  0  0  0  0  0  0  0  0  0  0  0
   -5.8810   -3.5814    1.4958 H   0  0  0  0  0  0  0  0  0  0  0  0
   -4.3563   -1.3514    2.3063 N   0  0  0  0  0  0  0  0  0  0  0  0
   -3.4558   -0.2301    2.0062 C   0  0  2  0  0  0  0  0  0  0  0  0
   -2.0261   -0.7161    1.6916 C   0  0  0  0  0  0  0  0  0  0  0  0
   -1.6666   -1.8375    2.0312 O   0  0  0  0  0  0  0  0  0  0  0  0
   -3.4508    0.7180    3.2084 C   0  0  0  0  0  0  0  0  0  0  0  0
   -3.9219   -2.2008    2.6652 H   0  0  0  0  0  0  0  0  0  0  0  0
   -3.8131    0.3128    1.1250 H   0  0  0  0  0  0  0  0  0  0  0  0
   -3.0840    0.2027    4.1019 H   0  0  0  0  0  0  0  0  0  0  0  0
   -2.8066    1.5815    3.0158 H   0  0  0  0  0  0  0  0  0  0  0  0
   -4.4641    1.0813    3.4068 H   0  0  0  0  0  0  0  0  0  0  0  0
   -1.1391    0.1159    1.0318 N   0  0  0  0  0  0  0  0  0  0  0  0
    0.1601   -0.3303    0.4910 C   0  0  2  0  0  0  0  0  0  0  0  0
    1.0861    0.8605    0.1492 C   0  0  0  0  0  0  0  0  0  0  0  0
    2.0515    0.7288   -0.5913 O   0  0  0  0  0  0  0  0  0  0  0  0
   -0.0949   -1.1962   -0.7537 C   0  0  0  0  0  0  0  0  0  0  0  0
   -1.5362    0.9738    0.6565 H   0  0  0  0  0  0  0  0  0  0  0  0
    0.6801   -0.9333    1.2437 H   0  0  0  0  0  0  0  0  0  0  0  0
   -0.5900   -0.6104   -1.5341 H   0  0  0  0  0  0  0  0  0  0  0  0
    0.8500   -1.5777   -1.1535 H   0  0  0  0  0  0  0  0  0  0  0  0
   -0.7271   -2.0542   -0.5072 H   0  0  0  0  0  0  0  0  0  0  0  0
    0.7942    2.1193    0.6402 N   0  0  0  0  0  0  0  0  0  0  0  0
    1.6259    3.3123    0.4441 C   0  0  2  0  0  0  0  0  0  0  0  0
    1.4066    4.3274    1.5857 C   0  0  0  0  0  0  0  0  0  0  0  0
    0.4731    4.1749    2.3678 O   0  0  0  0  0  0  0  0  0  0  0  0
    1.2711    3.9418   -0.9077 C   0  0  0  0  0  0  0  0  0  0  0  0
    0.1158    2.1664    1.4002 H   0  0  0  0  0  0  0  0  0  0  0  0
    2.6840    3.0290    0.4485 H   0  0  0  0  0  0  0  0  0  0  0  0
    0.2179    4.2399   -0.9263 H   0  0  0  0  0  0  0  0  0  0  0  0
    1.8874    4.8264   -1.0937 H   0  0  0  0  0  0  0  0  0  0  0  0
    1.4443    3.2269   -1.7184 H   0  0  0  0  0  0  0  0  0  0  0  0
    2.2532    5.4093    1.7402 N   0  0  0  0  0  0  0  0  0  0  0  0
    2.0813    6.4164    2.7803 C   0  0  0  0  0  0  0  0  0  0  0  0
    3.0180    5.5091    1.0787 H   0  0  0  0  0  0  0  0  0  0  0  0
    1.1287    6.9405    2.6502 H   0  0  0  0  0  0  0  0  0  0  0  0
    2.0951    5.9516    3.7718 H   0  0  0  0  0  0  0  0  0  0  0  0
    2.8907    7.1513    2.7333 H   0  0  0  0  0  0  0  0  0  0  0  0
  1  2  2  0  0  0  0
  1  3  1  0  0  0  0
  1  7  1  0  0  0  0
  3  4  1  0  0  0  0
  3  5  1  0  0  0  0
  3  6  1  0  0  0  0
  7  8  1  0  0  0  0
  7 12  1  0  0  0  0
  8  9  1  0  0  0  0
  8 11  1  0  0  0  0
  8 13  1  0  0  0  0
  9 10  2  0  0  0  0
  9 17  1  0  0  0  0
 11 14  1  0  0  0  0
 11 15  1  0  0  0  0
 11 16  1  0  0  0  0
 17 18  1  0  0  0  0
 17 22  1  0  0  0  0
 18 19  1  0  0  0  0
 18 21  1  0  0  0  0
 18 23  1  0  0  0  0
 19 20  2  0  0  0  0
 19 27  1  0  0  0  0
 21 24  1  0  0  0  0
 21 25  1  0  0  0  0
 21 26  1  0  0  0  0
 27 28  1  0  0  0  0
 27 32  1  0  0  0  0
 28 29  1  0  0  0  0
 28 31  1  0  0  0  0
 28 33  1  0  0  0  0
 29 30  2  0  0  0  0
 29 37  1  0  0  0  0
 31 34  1  0  0  0  0
 31 35  1  0  0  0  0
 31 36  1  0  0  0  0
 37 38  1  0  0  0  0
 37 39  1  0  0  0  0
 38 40  1  0  0  0  0
 38 41  1  0  0  0  0
 38 42  1  0  0  0  0
M  END
$$$$

  -OEChem-05262215353D

 42 41  0     1  0  0  0  0  0999 V2000
   -5.6531   -1.4247    1.8910 C   0  0  0  0  0  0  0  0  0  0  0  0
   -6.2085   -0.4979    1.3224 O   0  0  0  0  0  0  0  0  0  0  0  0
   -6.3981   -2.7218    2.1443 C   0  0  0  0  0  0  0  0  0  0  0  0
   -6.4423   -2.9242    3.2173 H   0  0  0  0  0  0  0  0  0  0  0  0
   -7.4181   -2.6532    1.7561 H   0  0  0  0  0  0  0  0  0  0  0  0
   -5.8866   -3.5485    1.6450 H   0  0  0  0  0  0  0  0  0  0  0  0
   -4.3373   -1.3053    2.2842 N   0  0  0  0  0  0  0  0  0  0  0  0
   -3.4610   -0.1861    1.9154 C   0  0  2  0  0  0  0  0  0  0  0  0
   -2.0217   -0.6689    1.6371 C   0  0  0  0  0  0  0  0  0  0  0  0
   -1.6665   -1.7844    2.0013 O   0  0  0  0  0  0  0  0  0  0  0  0
   -3.4822    0.8361    3.0556 C   0  0  0  0  0  0  0  0  0  0  0  0
   -3.8771   -2.1492    2.6247 H   0  0  0  0  0  0  0  0  0  0  0  0
   -3.8286    0.2889    0.9994 H   0  0  0  0  0  0  0  0  0  0  0  0
   -3.1067    0.3862    3.9804 H   0  0  0  0  0  0  0  0  0  0  0  0
   -2.8591    1.7017    2.8109 H   0  0  0  0  0  0  0  0  0  0  0  0
   -4.5048    1.1865    3.2289 H   0  0  0  0  0  0  0  0  0  0  0  0
   -1.1212    0.1495    0.9784 N   0  0  0  0  0  0  0  0  0  0  0  0
    0.1862   -0.3094    0.4710 C   0  0  2  0  0  0  0  0  0  0  0  0
    1.1114    0.8815    0.1278 C   0  0  0  0  0  0  0  0  0  0  0  0
    1.9458    0.8194   -0.7654 O   0  0  0  0  0  0  0  0  0  0  0  0
   -0.0438   -1.2135   -0.7519 C   0  0  0  0  0  0  0  0  0  0  0  0
   -1.4987    1.0147    0.5993 H   0  0  0  0  0  0  0  0  0  0  0  0
    0.6928   -0.8919    1.2483 H   0  0  0  0  0  0  0  0  0  0  0  0
   -0.5254   -0.6531   -1.5588 H   0  0  0  0  0  0  0  0  0  0  0  0
    0.9092   -1.6047   -1.1217 H   0  0  0  0  0  0  0  0  0  0  0  0
   -0.6783   -2.0656   -0.4915 H   0  0  0  0  0  0  0  0  0  0  0  0
    0.9844    2.0623    0.8347 N   0  0  0  0  0  0  0  0  0  0  0  0
    1.8833    3.2160    0.7075 C   0  0  2  0  0  0  0  0  0  0  0  0
    1.9194    4.0350    2.0151 C   0  0  0  0  0  0  0  0  0  0  0  0
    1.0917    3.8202    2.8950 O   0  0  0  0  0  0  0  0  0  0  0  0
    1.4067    4.0887   -0.4584 C   0  0  0  0  0  0  0  0  0  0  0  0
    0.4096    2.0297    1.6773 H   0  0  0  0  0  0  0  0  0  0  0  0
    2.9023    2.8674    0.5071 H   0  0  0  0  0  0  0  0  0  0  0  0
    0.3910    4.4522   -0.2734 H   0  0  0  0  0  0  0  0  0  0  0  0
    2.0673    4.9511   -0.5891 H   0  0  0  0  0  0  0  0  0  0  0  0
    1.4070    3.5130   -1.3893 H   0  0  0  0  0  0  0  0  0  0  0  0
    2.8850    5.0049    2.2119 N   0  0  0  0  0  0  0  0  0  0  0  0
    2.9833    5.8009    3.4294 C   0  0  0  0  0  0  0  0  0  0  0  0
    3.5669    5.1487    1.4726 H   0  0  0  0  0  0  0  0  0  0  0  0
    2.0691    6.3846    3.5807 H   0  0  0  0  0  0  0  0  0  0  0  0
    3.1368    5.1537    4.2995 H   0  0  0  0  0  0  0  0  0  0  0  0
    3.8280    6.4933    3.3614 H   0  0  0  0  0  0  0  0  0  0  0  0
  1  2  2  0  0  0  0
  1  3  1  0  0  0  0
  1  7  1  0  0  0  0
  3  4  1  0  0  0  0
  3  5  1  0  0  0  0
  3  6  1  0  0  0  0
  7  8  1  0  0  0  0
  7 12  1  0  0  0  0
  8  9  1  0  0  0  0
  8 11  1  0  0  0  0
  8 13  1  0  0  0  0
  9 10  2  0  0  0  0
  9 17  1  0  0  0  0
 11 14  1  0  0  0  0
 11 15  1  0  0  0  0
 11 16  1  0  0  0  0
 17 18  1  0  0  0  0
 17 22  1  0  0  0  0
 18 19  1  0  0  0  0
 18 21  1  0  0  0  0
 18 23  1  0  0  0  0
 19 20  2  0  0  0  0
 19 27  1  0  0  0  0
 21 24  1  0  0  0  0
 21 25  1  0  0  0  0
 21 26  1  0  0  0  0
 27 28  1  0  0  0  0
 27 32  1  0  0  0  0
 28 29  1  0  0  0  0
 28 31  1  0  0  0  0
 28 33  1  0  0  0  0
 29 30  2  0  0  0  0
 29 37  1  0  0  0  0
 31 34  1  0  0  0  0
 31 35  1  0  0  0  0
 31 36  1  0  0  0  0
 37 38  1  0  0  0  0
 37 39  1  0  0  0  0
 38 40  1  0  0  0  0
 38 41  1  0  0  0  0
 38 42  1  0  0  0  0
M  END
$$$$

  -OEChem-05262215353D

 42 41  0     1  0  0  0  0  0999 V2000
   -5.6396   -1.3504    1.9087 C   0  0  0  0  0  0  0  0  0  0  0  0
   -6.1859   -0.4108    1.3524 O   0  0  0  0  0  0  0  0  0  0  0  0
   -6.4111   -2.6271    2.1860 C   0  0  0  0  0  0  0  0  0  0  0  0
   -6.4198   -2.8327    3.2592 H   0  0  0  0  0  0  0  0  0  0  0  0
   -7.4430   -2.5274    1.8380 H   0  0  0  0  0  0  0  0  0  0  0  0
   -5.9434   -3.4661    1.6651 H   0  0  0  0  0  0  0  0  0  0  0  0
   -4.3131   -1.2601    2.2729 N   0  0  0  0  0  0  0  0  0  0  0  0
   -3.4239   -0.1522    1.9002 C   0  0  2  0  0  0  0  0  0  0  0  0
   -1.9912   -0.6519    1.6190 C   0  0  0  0  0  0  0  0  0  0  0  0
   -1.6485   -1.7713    1.9833 O   0  0  0  0  0  0  0  0  0  0  0  0
   -3.4279    0.8719    3.0391 C   0  0  0  0  0  0  0  0  0  0  0  0
   -3.8638   -2.1116    2.6088 H   0  0  0  0  0  0  0  0  0  0  0  0
   -3.7883    0.3261    0.9845 H   0  0  0  0  0  0  0  0  0  0  0  0
   -3.0568    0.4177    3.9637 H   0  0  0  0  0  0  0  0  0  0  0  0
   -2.7926    1.7278    2.7917 H   0  0  0  0  0  0  0  0  0  0  0  0
   -4.4448    1.2377    3.2143 H   0  0  0  0  0  0  0  0  0  0  0  0
   -1.0801    0.1567    0.9629 N   0  0  0  0  0  0  0  0  0  0  0  0
    0.2264   -0.3123    0.4667 C   0  0  2  0  0  0  0  0  0  0  0  0
    1.1521    0.8788    0.1285 C   0  0  0  0  0  0  0  0  0  0  0  0
    1.8046    0.9299   -0.9060 O   0  0  0  0  0  0  0  0  0  0  0  0
    0.0017   -1.2252   -0.7512 C   0  0  0  0  0  0  0  0  0  0  0  0
   -1.4395    1.0347    0.5958 H   0  0  0  0  0  0  0  0  0  0  0  0
    0.7261   -0.8927    1.2497 H   0  0  0  0  0  0  0  0  0  0  0  0
   -0.4826   -0.6722   -1.5621 H   0  0  0  0  0  0  0  0  0  0  0  0
    0.9580   -1.6120   -1.1175 H   0  0  0  0  0  0  0  0  0  0  0  0
   -0.6281   -2.0796   -0.4865 H   0  0  0  0  0  0  0  0  0  0  0  0
    1.2386    1.9321    1.0181 N   0  0  0  0  0  0  0  0  0  0  0  0
    2.1698    3.0609    0.8959 C   0  0  2  0  0  0  0  0  0  0  0  0
    2.4949    3.6645    2.2785 C   0  0  0  0  0  0  0  0  0  0  0  0
    1.8193    3.3565    3.2550 O   0  0  0  0  0  0  0  0  0  0  0  0
    1.5445    4.1207   -0.0180 C   0  0  0  0  0  0  0  0  0  0  0  0
    0.7915    1.8069    1.9272 H   0  0  0  0  0  0  0  0  0  0  0  0
    3.1119    2.7140    0.4576 H   0  0  0  0  0  0  0  0  0  0  0  0
    0.5983    4.4768    0.4020 H   0  0  0  0  0  0  0  0  0  0  0  0
    2.2180    4.9752   -0.1339 H   0  0  0  0  0  0  0  0  0  0  0  0
    1.3500    3.7011   -1.0103 H   0  0  0  0  0  0  0  0  0  0  0  0
    3.5505    4.5436    2.4333 N   0  0  0  0  0  0  0  0  0  0  0  0
    3.9184    5.1318    3.7158 C   0  0  0  0  0  0  0  0  0  0  0  0
    4.1015    4.7699    1.6100 H   0  0  0  0  0  0  0  0  0  0  0  0
    3.0839    5.7105    4.1256 H   0  0  0  0  0  0  0  0  0  0  0  0
    4.1898    4.3497    4.4328 H   0  0  0  0  0  0  0  0  0  0  0  0
    4.7752    5.8011    3.5935 H   0  0  0  0  0  0  0  0  0  0  0  0
  1  2  2  0  0  0  0
  1  3  1  0  0  0  0
  1  7  1  0  0  0  0
  3  4  1  0  0  0  0
  3  5  1  0  0  0  0
  3  6  1  0  0  0  0
  7  8  1  0  0  0  0
  7 12  1  0  0  0  0
  8  9  1  0  0  0  0
  8 11  1  0  0  0  0
  8 13  1  0  0  0  0
  9 10  2  0  0  0  0
  9 17  1  0  0  0  0
 11 14  1  0  0  0  0
 11 15  1  0  0  0  0
 11 16  1  0  0  0  0
 17 18  1  0  0  0  0
 17 22  1  0  0  0  0
 18 19  1  0  0  0  0
 18 21  1  0  0  0  0
 18 23  1  0  0  0  0
 19 20  2  0  0  0  0
 19 27  1  0  0  0  0
 21 24  1  0  0  0  0
 21 25  1  0  0  0  0
 21 26  1  0  0  0  0
 27 28  1  0  0  0  0
 27 32  1  0  0  0  0
 28 29  1  0  0  0  0
 28 31  1  0  0  0  0
 28 33  1  0  0  0  0
 29 30  2  0  0  0  0
 29 37  1  0  0  0  0
 31 34  1  0  0  0  0
 31 35  1  0  0  0  0
 31 36  1  0  0  0  0
 37 38  1  0  0  0  0
 37 39  1  0  0  0  0
 38 40  1  0  0  0  0
 38 41  1  0  0  0  0
 38 42  1  0  0  0  0
M  END
$$$$

  -OEChem-05262215353D

 42 41  0     1  0  0  0  0  0999 V2000
   -5.6222   -1.3088    1.9289 C   0  0  0  0  0  0  0  0  0  0  0  0
   -6.1633   -0.3681    1.3695 O   0  0  0  0  0  0  0  0  0  0  0  0
   -6.4127   -2.5645    2.2443 C   0  0  0  0  0  0  0  0  0  0  0  0
   -6.4348   -2.7297    3.3242 H   0  0  0  0  0  0  0  0  0  0  0  0
   -7.4395   -2.4641    1.8818 H   0  0  0  0  0  0  0  0  0  0  0  0
   -5.9515   -3.4284    1.7596 H   0  0  0  0  0  0  0  0  0  0  0  0
   -4.2872   -1.2361    2.2649 N   0  0  0  0  0  0  0  0  0  0  0  0
   -3.3918   -0.1420    1.8685 C   0  0  2  0  0  0  0  0  0  0  0  0
   -1.9609   -0.6516    1.5983 C   0  0  0  0  0  0  0  0  0  0  0  0
   -1.6243   -1.7702    1.9706 O   0  0  0  0  0  0  0  0  0  0  0  0
   -3.3904    0.9083    2.9834 C   0  0  0  0  0  0  0  0  0  0  0  0
   -3.8439   -2.0880    2.6074 H   0  0  0  0  0  0  0  0  0  0  0  0
   -3.7544    0.3163    0.9421 H   0  0  0  0  0  0  0  0  0  0  0  0
   -3.0202    0.4736    3.9175 H   0  0  0  0  0  0  0  0  0  0  0  0
   -2.7513    1.7551    2.7155 H   0  0  0  0  0  0  0  0  0  0  0  0
   -4.4053    1.2829    3.1513 H   0  0  0  0  0  0  0  0  0  0  0  0
   -1.0427    0.1531    0.9480 N   0  0  0  0  0  0  0  0  0  0  0  0
    0.2700   -0.3130    0.4715 C   0  0  2  0  0  0  0  0  0  0  0  0
    1.1852    0.8876    0.1406 C   0  0  0  0  0  0  0  0  0  0  0  0
    1.6244    1.0870   -0.9848 O   0  0  0  0  0  0  0  0  0  0  0  0
    0.0652   -1.2349   -0.7437 C   0  0  0  0  0  0  0  0  0  0  0  0
   -1.3957    1.0317    0.5763 H   0  0  0  0  0  0  0  0  0  0  0  0
    0.7650   -0.8866    1.2627 H   0  0  0  0  0  0  0  0  0  0  0  0
   -0.4423   -0.6992   -1.5522 H   0  0  0  0  0  0  0  0  0  0  0  0
    1.0306   -1.5914   -1.1165 H   0  0  0  0  0  0  0  0  0  0  0  0
   -0.5365   -2.1075   -0.4728 H   0  0  0  0  0  0  0  0  0  0  0  0
    1.4959    1.7868    1.1420 N   0  0  0  0  0  0  0  0  0  0  0  0
    2.4432    2.9004    1.0060 C   0  0  2  0  0  0  0  0  0  0  0  0
    3.0897    3.2537    2.3619 C   0  0  0  0  0  0  0  0  0  0  0  0
    2.5934    2.8387    3.4038 O   0  0  0  0  0  0  0  0  0  0  0  0
    1.6994    4.1126    0.4358 C   0  0  0  0  0  0  0  0  0  0  0  0
    1.1999    1.5504    2.0898 H   0  0  0  0  0  0  0  0  0  0  0  0
    3.2486    2.6147    0.3210 H   0  0  0  0  0  0  0  0  0  0  0  0
    0.8894    4.4147    1.1073 H   0  0  0  0  0  0  0  0  0  0  0  0
    2.3822    4.9583    0.3108 H   0  0  0  0  0  0  0  0  0  0  0  0
    1.2705    3.8704   -0.5418 H   0  0  0  0  0  0  0  0  0  0  0  0
    4.2360    4.0248    2.4159 N   0  0  0  0  0  0  0  0  0  0  0  0
    4.9116    4.3667    3.6620 C   0  0  0  0  0  0  0  0  0  0  0  0
    4.6418    4.3294    1.5357 H   0  0  0  0  0  0  0  0  0  0  0  0
    4.2511    4.9554    4.3072 H   0  0  0  0  0  0  0  0  0  0  0  0
    5.2106    3.4599    4.1985 H   0  0  0  0  0  0  0  0  0  0  0  0
    5.8096    4.9570    3.4563 H   0  0  0  0  0  0  0  0  0  0  0  0
  1  2  2  0  0  0  0
  1  3  1  0  0  0  0
  1  7  1  0  0  0  0
  3  4  1  0  0  0  0
  3  5  1  0  0  0  0
  3  6  1  0  0  0  0
  7  8  1  0  0  0  0
  7 12  1  0  0  0  0
  8  9  1  0  0  0  0
  8 11  1  0  0  0  0
  8 13  1  0  0  0  0
  9 10  2  0  0  0  0
  9 17  1  0  0  0  0
 11 14  1  0  0  0  0
 11 15  1  0  0  0  0
 11 16  1  0  0  0  0
 17 18  1  0  0  0  0
 17 22  1  0  0  0  0
 18 19  1  0  0  0  0
 18 21  1  0  0  0  0
 18 23  1  0  0  0  0
 19 20  2  0  0  0  0
 19 27  1  0  0  0  0
 21 24  1  0  0  0  0
 21 25  1  0  0  0  0
 21 26  1  0  0  0  0
 27 28  1  0  0  0  0
 27 32  1  0  0  0  0
 28 29  1  0  0  0  0
 28 31  1  0  0  0  0
 28 33  1  0  0  0  0
 29 30  2  0  0  0  0
 29 37  1  0  0  0  0
 31 34  1  0  0  0  0
 31 35  1  0  0  0  0
 31 36  1  0  0  0  0
 37 38  1  0  0  0  0
 37 39  1  0  0  0  0
 38 40  1  0  0  0  0
 38 41  1  0  0  0  0
 38 42  1  0  0  0  0
M  END
$$$$

  -OEChem-05262215353D

 42 41  0     1  0  0  0  0  0999 V2000
   -5.6168   -1.2762    1.9349 C   0  0  0  0  0  0  0  0  0  0  0  0
   -6.1603   -0.3192    1.4064 O   0  0  0  0  0  0  0  0  0  0  0  0
   -6.4034   -2.5430    2.2137 C   0  0  0  0  0  0  0  0  0  0  0  0
   -6.3960   -2.7590    3.2847 H   0  0  0  0  0  0  0  0  0  0  0  0
   -7.4394   -2.4236    1.8850 H   0  0  0  0  0  0  0  0  0  0  0  0
   -5.9584   -3.3841    1.6766 H   0  0  0  0  0  0  0  0  0  0  0  0
   -4.2801   -1.2138    2.2652 N   0  0  0  0  0  0  0  0  0  0  0  0
   -3.3816   -0.1175    1.8822 C   0  0  2  0  0  0  0  0  0  0  0  0
   -1.9478   -0.6293    1.6274 C   0  0  0  0  0  0  0  0  0  0  0  0
   -1.6184   -1.7499    2.0015 O   0  0  0  0  0  0  0  0  0  0  0  0
   -3.3944    0.9311    2.9990 C   0  0  0  0  0  0  0  0  0  0  0  0
   -3.8376   -2.0742    2.5872 H   0  0  0  0  0  0  0  0  0  0  0  0
   -3.7341    0.3419    0.9522 H   0  0  0  0  0  0  0  0  0  0  0  0
   -3.0370    0.4954    3.9376 H   0  0  0  0  0  0  0  0  0  0  0  0
   -2.7517    1.7779    2.7401 H   0  0  0  0  0  0  0  0  0  0  0  0
   -4.4111    1.3064    3.1544 H   0  0  0  0  0  0  0  0  0  0  0  0
   -1.0227    0.1668    0.9765 N   0  0  0  0  0  0  0  0  0  0  0  0
    0.2832   -0.3132    0.4971 C   0  0  2  0  0  0  0  0  0  0  0  0
    1.2120    0.8752    0.1652 C   0  0  0  0  0  0  0  0  0  0  0  0
    1.4004    1.2475   -0.9861 O   0  0  0  0  0  0  0  0  0  0  0  0
    0.0703   -1.2266   -0.7214 C   0  0  0  0  0  0  0  0  0  0  0  0
   -1.3709    1.0426    0.5934 H   0  0  0  0  0  0  0  0  0  0  0  0
    0.7729   -0.8971    1.2840 H   0  0  0  0  0  0  0  0  0  0  0  0
   -0.4625   -0.6931   -1.5148 H   0  0  0  0  0  0  0  0  0  0  0  0
    1.0345   -1.5621   -1.1162 H   0  0  0  0  0  0  0  0  0  0  0  0
   -0.5114   -2.1111   -0.4453 H   0  0  0  0  0  0  0  0  0  0  0  0
    1.7923    1.5879    1.1959 N   0  0  0  0  0  0  0  0  0  0  0  0
    2.7643    2.6743    1.0209 C   0  0  2  0  0  0  0  0  0  0  0  0
    3.7172    2.7740    2.2310 C   0  0  0  0  0  0  0  0  0  0  0  0
    3.4661    2.1592    3.2620 O   0  0  0  0  0  0  0  0  0  0  0  0
    1.9992    3.9878    0.8277 C   0  0  0  0  0  0  0  0  0  0  0  0
    1.6887    1.2154    2.1404 H   0  0  0  0  0  0  0  0  0  0  0  0
    3.3782    2.4789    0.1352 H   0  0  0  0  0  0  0  0  0  0  0  0
    1.3839    4.2040    1.7069 H   0  0  0  0  0  0  0  0  0  0  0  0
    2.6935    4.8193    0.6745 H   0  0  0  0  0  0  0  0  0  0  0  0
    1.3453    3.9215   -0.0477 H   0  0  0  0  0  0  0  0  0  0  0  0
    4.8663    3.5398    2.1613 N   0  0  0  0  0  0  0  0  0  0  0  0
    5.8272    3.6413    3.2536 C   0  0  0  0  0  0  0  0  0  0  0  0
    5.0638    4.0151    1.2854 H   0  0  0  0  0  0  0  0  0  0  0  0
    5.3418    4.0214    4.1588 H   0  0  0  0  0  0  0  0  0  0  0  0
    6.2627    2.6607    3.4730 H   0  0  0  0  0  0  0  0  0  0  0  0
    6.6363    4.3266    2.9833 H   0  0  0  0  0  0  0  0  0  0  0  0
  1  2  2  0  0  0  0
  1  3  1  0  0  0  0
  1  7  1  0  0  0  0
  3  4  1  0  0  0  0
  3  5  1  0  0  0  0
  3  6  1  0  0  0  0
  7  8  1  0  0  0  0
  7 12  1  0  0  0  0
  8  9  1  0  0  0  0
  8 11  1  0  0  0  0
  8 13  1  0  0  0  0
  9 10  2  0  0  0  0
  9 17  1  0  0  0  0
 11 14  1  0  0  0  0
 11 15  1  0  0  0  0
 11 16  1  0  0  0  0
 17 18  1  0  0  0  0
 17 22  1  0  0  0  0
 18 19  1  0  0  0  0
 18 21  1  0  0  0  0
 18 23  1  0  0  0  0
 19 20  2  0  0  0  0
 19 27  1  0  0  0  0
 21 24  1  0  0  0  0
 21 25  1  0  0  0  0
 21 26  1  0  0  0  0
 27 28  1  0  0  0  0
 27 32  1  0  0  0  0
 28 29  1  0  0  0  0
 28 31  1  0  0  0  0
 28 33  1  0  0  0  0
 29 30  2  0  0  0  0
 29 37  1  0  0  0  0
 31 34  1  0  0  0  0
 31 35  1  0  0  0  0
 31 36  1  0  0  0  0
 37 38  1  0  0  0  0
 37 39  1  0  0  0  0
 38 40  1  0  0  0  0
 38 41  1  0  0  0  0
 38 42  1  0  0  0  0
M  END
$$$$

  -OEChem-05262215353D

 42 41  0     1  0  0  0  0  0999 V2000
   -5.6095   -1.2583    1.9451 C   0  0  0  0  0  0  0  0  0  0  0  0
   -6.1487   -0.2995    1.4153 O   0  0  0  0  0  0  0  0  0  0  0  0
   -6.4117   -2.5080    2.2551 C   0  0  0  0  0  0  0  0  0  0  0  0
   -6.4330   -2.6784    3.3343 H   0  0  0  0  0  0  0  0  0  0  0  0
   -7.4383   -2.3960    1.8948 H   0  0  0  0  0  0  0  0  0  0  0  0
   -5.9594   -3.3737    1.7650 H   0  0  0  0  0  0  0  0  0  0  0  0
   -4.2665   -1.2125    2.2534 N   0  0  0  0  0  0  0  0  0  0  0  0
   -3.3625   -0.1232    1.8625 C   0  0  2  0  0  0  0  0  0  0  0  0
   -1.9278   -0.6365    1.6162 C   0  0  0  0  0  0  0  0  0  0  0  0
   -1.6024   -1.7591    1.9880 O   0  0  0  0  0  0  0  0  0  0  0  0
   -3.3758    0.9367    2.9680 C   0  0  0  0  0  0  0  0  0  0  0  0
   -3.8312   -2.0743    2.5811 H   0  0  0  0  0  0  0  0  0  0  0  0
   -3.7122    0.3273    0.9273 H   0  0  0  0  0  0  0  0  0  0  0  0
   -3.0193    0.5108    3.9114 H   0  0  0  0  0  0  0  0  0  0  0  0
   -2.7329    1.7804    2.7005 H   0  0  0  0  0  0  0  0  0  0  0  0
   -4.3925    1.3137    3.1182 H   0  0  0  0  0  0  0  0  0  0  0  0
   -0.9965    0.1621    0.9777 N   0  0  0  0  0  0  0  0  0  0  0  0
    0.3099   -0.3167    0.5027 C   0  0  2  0  0  0  0  0  0  0  0  0
    1.2420    0.8721    0.1868 C   0  0  0  0  0  0  0  0  0  0  0  0
    1.1970    1.4395   -0.8978 O   0  0  0  0  0  0  0  0  0  0  0  0
    0.1065   -1.2080   -0.7327 C   0  0  0  0  0  0  0  0  0  0  0  0
   -1.3362    1.0431    0.5978 H   0  0  0  0  0  0  0  0  0  0  0  0
    0.7903   -0.9142    1.2851 H   0  0  0  0  0  0  0  0  0  0  0  0
   -0.4158   -0.6598   -1.5233 H   0  0  0  0  0  0  0  0  0  0  0  0
    1.0730   -1.5415   -1.1225 H   0  0  0  0  0  0  0  0  0  0  0  0
   -0.4830   -2.0935   -0.4768 H   0  0  0  0  0  0  0  0  0  0  0  0
    2.0625    1.3857    1.1721 N   0  0  0  0  0  0  0  0  0  0  0  0
    3.0357    2.4671    0.9702 C   0  0  2  0  0  0  0  0  0  0  0  0
    4.2403    2.3228    1.9239 C   0  0  0  0  0  0  0  0  0  0  0  0
    4.1741    1.5633    2.8843 O   0  0  0  0  0  0  0  0  0  0  0  0
    2.3287    3.8077    1.1939 C   0  0  0  0  0  0  0  0  0  0  0  0
    2.1338    0.8638    2.0462 H   0  0  0  0  0  0  0  0  0  0  0  0
    3.4216    2.4287   -0.0542 H   0  0  0  0  0  0  0  0  0  0  0  0
    1.9408    3.8699    2.2157 H   0  0  0  0  0  0  0  0  0  0  0  0
    3.0211    4.6393    1.0322 H   0  0  0  0  0  0  0  0  0  0  0  0
    1.4922    3.9168    0.4962 H   0  0  0  0  0  0  0  0  0  0  0  0
    5.4071    3.0298    1.6985 N   0  0  0  0  0  0  0  0  0  0  0  0
    6.5911    2.9046    2.5404 C   0  0  0  0  0  0  0  0  0  0  0  0
    5.4476    3.6247    0.8760 H   0  0  0  0  0  0  0  0  0  0  0  0
    6.3529    3.1596    3.5785 H   0  0  0  0  0  0  0  0  0  0  0  0
    6.9764    1.8800    2.5095 H   0  0  0  0  0  0  0  0  0  0  0  0
    7.3775    3.5807    2.1915 H   0  0  0  0  0  0  0  0  0  0  0  0
  1  2  2  0  0  0  0
  1  3  1  0  0  0  0
  1  7  1  0  0  0  0
  3  4  1  0  0  0  0
  3  5  1  0  0  0  0
  3  6  1  0  0  0  0
  7  8  1  0  0  0  0
  7 12  1  0  0  0  0
  8  9  1  0  0  0  0
  8 11  1  0  0  0  0
  8 13  1  0  0  0  0
  9 10  2  0  0  0  0
  9 17  1  0  0  0  0
 11 14  1  0  0  0  0
 11 15  1  0  0  0  0
 11 16  1  0  0  0  0
 17 18  1  0  0  0  0
 17 22  1  0  0  0  0
 18 19  1  0  0  0  0
 18 21  1  0  0  0  0
 18 23  1  0  0  0  0
 19 20  2  0  0  0  0
 19 27  1  0  0  0  0
 21 24  1  0  0  0  0
 21 25  1  0  0  0  0
 21 26  1  0  0  0  0
 27 28  1  0  0  0  0
 27 32  1  0  0  0  0
 28 29  1  0  0  0  0
 28 31  1  0  0  0  0
 28 33  1  0  0  0  0
 29 30  2  0  0  0  0
 29 37  1  0  0  0  0
 31 34  1  0  0  0  0
 31 35  1  0  0  0  0
 31 36  1  0  0  0  0
 37 38  1  0  0  0  0
 37 39  1  0  0  0  0
 38 40  1  0  0  0  0
 38 41  1  0  0  0  0
 38 42  1  0  0  0  0
M  END
$$$$

  -OEChem-05262215353D

 42 41  0     1  0  0  0  0  0999 V2000
   -5.5946   -1.2435    1.9690 C   0  0  0  0  0  0  0  0  0  0  0  0
   -6.1364   -0.2914    1.4299 O   0  0  0  0  0  0  0  0  0  0  0  0
   -6.3907   -2.4964    2.2821 C   0  0  0  0  0  0  0  0  0  0  0  0
   -6.3632   -2.6981    3.3559 H   0  0  0  0  0  0  0  0  0  0  0  0
   -7.4323   -2.3680    1.9739 H   0  0  0  0  0  0  0  0  0  0  0  0
   -5.9676   -3.3499    1.7466 H   0  0  0  0  0  0  0  0  0  0  0  0
   -4.2527   -1.1894    2.2799 N   0  0  0  0  0  0  0  0  0  0  0  0
   -3.3505   -0.1083    1.8635 C   0  0  2  0  0  0  0  0  0  0  0  0
   -1.9220   -0.6331    1.6092 C   0  0  0  0  0  0  0  0  0  0  0  0
   -1.6062   -1.7622    1.9704 O   0  0  0  0  0  0  0  0  0  0  0  0
   -3.3466    0.9679    2.9533 C   0  0  0  0  0  0  0  0  0  0  0  0
   -3.8134   -2.0502    2.6057 H   0  0  0  0  0  0  0  0  0  0  0  0
   -3.7077    0.3299    0.9252 H   0  0  0  0  0  0  0  0  0  0  0  0
   -2.9744    0.5553    3.8965 H   0  0  0  0  0  0  0  0  0  0  0  0
   -2.7080    1.8076    2.6632 H   0  0  0  0  0  0  0  0  0  0  0  0
   -4.3608    1.3473    3.1142 H   0  0  0  0  0  0  0  0  0  0  0  0
   -0.9853    0.1603    0.9738 N   0  0  0  0  0  0  0  0  0  0  0  0
    0.3199   -0.3221    0.5038 C   0  0  2  0  0  0  0  0  0  0  0  0
    1.2542    0.8635    0.1914 C   0  0  0  0  0  0  0  0  0  0  0  0
    1.0202    1.6058   -0.7547 O   0  0  0  0  0  0  0  0  0  0  0  0
    0.1270   -1.2015   -0.7395 C   0  0  0  0  0  0  0  0  0  0  0  0
   -1.3132    1.0487    0.5994 H   0  0  0  0  0  0  0  0  0  0  0  0
    0.7912   -0.9240    1.2879 H   0  0  0  0  0  0  0  0  0  0  0  0
   -0.3717   -0.6402   -1.5360 H   0  0  0  0  0  0  0  0  0  0  0  0
    1.0954   -1.5480   -1.1128 H   0  0  0  0  0  0  0  0  0  0  0  0
   -0.4810   -2.0788   -0.5000 H   0  0  0  0  0  0  0  0  0  0  0  0
    2.2841    1.1827    1.0537 N   0  0  0  0  0  0  0  0  0  0  0  0
    3.2763    2.2376    0.8138 C   0  0  2  0  0  0  0  0  0  0  0  0
    4.6425    1.8657    1.4277 C   0  0  0  0  0  0  0  0  0  0  0  0
    4.7304    0.9141    2.1965 O   0  0  0  0  0  0  0  0  0  0  0  0
    2.7474    3.5445    1.4123 C   0  0  0  0  0  0  0  0  0  0  0  0
    2.5026    0.5143    1.7931 H   0  0  0  0  0  0  0  0  0  0  0  0
    3.4253    2.3678   -0.2635 H   0  0  0  0  0  0  0  0  0  0  0  0
    2.5953    3.4369    2.4910 H   0  0  0  0  0  0  0  0  0  0  0  0
    3.4536    4.3618    1.2391 H   0  0  0  0  0  0  0  0  0  0  0  0
    1.7917    3.8123    0.9506 H   0  0  0  0  0  0  0  0  0  0  0  0
    5.7797    2.5826    1.1047 N   0  0  0  0  0  0  0  0  0  0  0  0
    7.1043    2.2521    1.6170 C   0  0  0  0  0  0  0  0  0  0  0  0
    5.6847    3.3429    0.4378 H   0  0  0  0  0  0  0  0  0  0  0  0
    7.0933    2.2057    2.7111 H   0  0  0  0  0  0  0  0  0  0  0  0
    7.4341    1.2832    1.2278 H   0  0  0  0  0  0  0  0  0  0  0  0
    7.8292    3.0134    1.3134 H   0  0  0  0  0  0  0  0  0  0  0  0
  1  2  2  0  0  0  0
  1  3  1  0  0  0  0
  1  7  1  0  0  0  0
  3  4  1  0  0  0  0
  3  5  1  0  0  0  0
  3  6  1  0  0  0  0
  7  8  1  0  0  0  0
  7 12  1  0  0  0  0
  8  9  1  0  0  0  0
  8 11  1  0  0  0  0
  8 13  1  0  0  0  0
  9 10  2  0  0  0  0
  9 17  1  0  0  0  0
 11 14  1  0  0  0  0
 11 15  1  0  0  0  0
 11 16  1  0  0  0  0
 17 18  1  0  0  0  0
 17 22  1  0  0  0  0
 18 19  1  0  0  0  0
 18 21  1  0  0  0  0
 18 23  1  0  0  0  0
 19 20  2  0  0  0  0
 19 27  1  0  0  0  0
 21 24  1  0  0  0  0
 21 25  1  0  0  0  0
 21 26  1  0  0  0  0
 27 28  1  0  0  0  0
 27 32  1  0  0  0  0
 28 29  1  0  0  0  0
 28 31  1  0  0  0  0
 28 33  1  0  0  0  0
 29 30  2  0  0  0  0
 29 37  1  0  0  0  0
 31 34  1  0  0  0  0
 31 35  1  0  0  0  0
 31 36  1  0  0  0  0
 37 38  1  0  0  0  0
 37 39  1  0  0  0  0
 38 40  1  0  0  0  0
 38 41  1  0  0  0  0
 38 42  1  0  0  0  0
M  END
$$$$

  -OEChem-05262215353D

 42 41  0     1  0  0  0  0  0999 V2000
   -5.5998   -1.1930    1.9723 C   0  0  0  0  0  0  0  0  0  0  0  0
   -6.1231   -0.2069    1.4784 O   0  0  0  0  0  0  0  0  0  0  0  0
   -6.4256   -2.4355    2.2483 C   0  0  0  0  0  0  0  0  0  0  0  0
   -6.4499   -2.6366    3.3220 H   0  0  0  0  0  0  0  0  0  0  0  0
   -7.4500   -2.2941    1.8926 H   0  0  0  0  0  0  0  0  0  0  0  0
   -5.9907   -3.2956    1.7335 H   0  0  0  0  0  0  0  0  0  0  0  0
   -4.2536   -1.1854    2.2688 N   0  0  0  0  0  0  0  0  0  0  0  0
   -3.3278   -0.1093    1.8929 C   0  0  2  0  0  0  0  0  0  0  0  0
   -1.9118   -0.6554    1.6118 C   0  0  0  0  0  0  0  0  0  0  0  0
   -1.6122   -1.7958    1.9508 O   0  0  0  0  0  0  0  0  0  0  0  0
   -3.2946    0.9190    3.0274 C   0  0  0  0  0  0  0  0  0  0  0  0
   -3.8342   -2.0667    2.5634 H   0  0  0  0  0  0  0  0  0  0  0  0
   -3.6789    0.3758    0.9757 H   0  0  0  0  0  0  0  0  0  0  0  0
   -2.9344    0.4562    3.9517 H   0  0  0  0  0  0  0  0  0  0  0  0
   -2.6331    1.7524    2.7724 H   0  0  0  0  0  0  0  0  0  0  0  0
   -4.2978    1.3194    3.2059 H   0  0  0  0  0  0  0  0  0  0  0  0
   -0.9677    0.1301    0.9776 N   0  0  0  0  0  0  0  0  0  0  0  0
    0.3385   -0.3528    0.5105 C   0  0  2  0  0  0  0  0  0  0  0  0
    1.2746    0.8312    0.1990 C   0  0  0  0  0  0  0  0  0  0  0  0
    0.9055    1.7165   -0.5641 O   0  0  0  0  0  0  0  0  0  0  0  0
    0.1549   -1.2200   -0.7417 C   0  0  0  0  0  0  0  0  0  0  0  0
   -1.2735    1.0379    0.6303 H   0  0  0  0  0  0  0  0  0  0  0  0
    0.8044   -0.9576    1.2961 H   0  0  0  0  0  0  0  0  0  0  0  0
   -0.3361   -0.6483   -1.5359 H   0  0  0  0  0  0  0  0  0  0  0  0
    1.1259   -1.5647   -1.1108 H   0  0  0  0  0  0  0  0  0  0  0  0
   -0.4571   -2.0985   -0.5155 H   0  0  0  0  0  0  0  0  0  0  0  0
    2.4738    0.9764    0.8686 N   0  0  0  0  0  0  0  0  0  0  0  0
    3.4670    2.0184    0.5788 C   0  0  2  0  0  0  0  0  0  0  0  0
    4.9035    1.5015    0.8075 C   0  0  0  0  0  0  0  0  0  0  0  0
    5.0870    0.4402    1.3943 O   0  0  0  0  0  0  0  0  0  0  0  0
    3.1754    3.2256    1.4754 C   0  0  0  0  0  0  0  0  0  0  0  0
    2.7941    0.1910    1.4357 H   0  0  0  0  0  0  0  0  0  0  0  0
    3.3909    2.3218   -0.4709 H   0  0  0  0  0  0  0  0  0  0  0  0
    3.2518    2.9452    2.5308 H   0  0  0  0  0  0  0  0  0  0  0  0
    3.8851    4.0343    1.2768 H   0  0  0  0  0  0  0  0  0  0  0  0
    2.1647    3.6013    1.2871 H   0  0  0  0  0  0  0  0  0  0  0  0
    5.9931    2.2146    0.3420 N   0  0  0  0  0  0  0  0  0  0  0  0
    7.3718    1.7675    0.5056 C   0  0  0  0  0  0  0  0  0  0  0  0
    5.8121    3.0805   -0.1576 H   0  0  0  0  0  0  0  0  0  0  0  0
    7.6219    1.6755    1.5679 H   0  0  0  0  0  0  0  0  0  0  0  0
    7.5200    0.7952    0.0237 H   0  0  0  0  0  0  0  0  0  0  0  0
    8.0601    2.4860    0.0499 H   0  0  0  0  0  0  0  0  0  0  0  0
  1  2  2  0  0  0  0
  1  3  1  0  0  0  0
  1  7  1  0  0  0  0
  3  4  1  0  0  0  0
  3  5  1  0  0  0  0
  3  6  1  0  0  0  0
  7  8  1  0  0  0  0
  7 12  1  0  0  0  0
  8  9  1  0  0  0  0
  8 11  1  0  0  0  0
  8 13  1  0  0  0  0
  9 10  2  0  0  0  0
  9 17  1  0  0  0  0
 11 14  1  0  0  0  0
 11 15  1  0  0  0  0
 11 16  1  0  0  0  0
 17 18  1  0  0  0  0
 17 22  1  0  0  0  0
 18 19  1  0  0  0  0
 18 21  1  0  0  0  0
 18 23  1  0  0  0  0
 19 20  2  0  0  0  0
 19 27  1  0  0  0  0
 21 24  1  0  0  0  0
 21 25  1  0  0  0  0
 21 26  1  0  0  0  0
 27 28  1  0  0  0  0
 27 32  1  0  0  0  0
 28 29  1  0  0  0  0
 28 31  1  0  0  0  0
 28 33  1  0  0  0  0
 29 30  2  0  0  0  0
 29 37  1  0  0  0  0
 31 34  1  0  0  0  0
 31 35  1  0  0  0  0
 31 36  1  0  0  0  0
 37 38  1  0  0  0  0
 37 39  1  0  0  0  0
 38 40  1  0  0  0  0
 38 41  1  0  0  0  0
 38 42  1  0  0  0  0
M  END
$$$$

  -OEChem-05262215353D

 42 41  0     1  0  0  0  0  0999 V2000
   -5.5974   -1.1884    1.9901 C   0  0  0  0  0  0  0  0  0  0  0  0
   -6.1144   -0.1960    1.5020 O   0  0  0  0  0  0  0  0  0  0  0  0
   -6.4376   -2.4164    2.2859 C   0  0  0  0  0  0  0  0  0  0  0  0
   -6.4531   -2.6072    3.3616 H   0  0  0  0  0  0  0  0  0  0  0  0
   -7.4636   -2.2628    1.9401 H   0  0  0  0  0  0  0  0  0  0  0  0
   -6.0203   -3.2868    1.7741 H   0  0  0  0  0  0  0  0  0  0  0  0
   -4.2474   -1.1980    2.2699 N   0  0  0  0  0  0  0  0  0  0  0  0
   -3.3155   -0.1263    1.8957 C   0  0  2  0  0  0  0  0  0  0  0  0
   -1.9061   -0.6773    1.5920 C   0  0  0  0  0  0  0  0  0  0  0  0
   -1.6154   -1.8311    1.8913 O   0  0  0  0  0  0  0  0  0  0  0  0
   -3.2646    0.8900    3.0405 C   0  0  0  0  0  0  0  0  0  0  0  0
   -3.8337   -2.0852    2.5543 H   0  0  0  0  0  0  0  0  0  0  0  0
   -3.6712    0.3717    0.9872 H   0  0  0  0  0  0  0  0  0  0  0  0
   -2.9030    0.4149    3.9581 H   0  0  0  0  0  0  0  0  0  0  0  0
   -2.5965    1.7192    2.7890 H   0  0  0  0  0  0  0  0  0  0  0  0
   -4.2629    1.2979    3.2292 H   0  0  0  0  0  0  0  0  0  0  0  0
   -0.9602    0.1181    0.9739 N   0  0  0  0  0  0  0  0  0  0  0  0
    0.3467   -0.3528    0.4976 C   0  0  2  0  0  0  0  0  0  0  0  0
    1.2881    0.8326    0.2075 C   0  0  0  0  0  0  0  0  0  0  0  0
    0.8503    1.8395   -0.3387 O   0  0  0  0  0  0  0  0  0  0  0  0
    0.1608   -1.1889   -0.7743 C   0  0  0  0  0  0  0  0  0  0  0  0
   -1.2463    1.0531    0.6855 H   0  0  0  0  0  0  0  0  0  0  0  0
    0.8106   -0.9732    1.2719 H   0  0  0  0  0  0  0  0  0  0  0  0
   -0.3264   -0.5956   -1.5549 H   0  0  0  0  0  0  0  0  0  0  0  0
    1.1302   -1.5301   -1.1501 H   0  0  0  0  0  0  0  0  0  0  0  0
   -0.4562   -2.0692   -0.5702 H   0  0  0  0  0  0  0  0  0  0  0  0
    2.6019    0.8113    0.6333 N   0  0  0  0  0  0  0  0  0  0  0  0
    3.6015    1.8304    0.2891 C   0  0  2  0  0  0  0  0  0  0  0  0
    5.0051    1.2076    0.1317 C   0  0  0  0  0  0  0  0  0  0  0  0
    5.2158    0.0639    0.5214 O   0  0  0  0  0  0  0  0  0  0  0  0
    3.6017    2.8995    1.3862 C   0  0  0  0  0  0  0  0  0  0  0  0
    2.9642   -0.0724    0.9924 H   0  0  0  0  0  0  0  0  0  0  0  0
    3.3421    2.2955   -0.6680 H   0  0  0  0  0  0  0  0  0  0  0  0
    3.8718    2.4580    2.3509 H   0  0  0  0  0  0  0  0  0  0  0  0
    4.3190    3.6917    1.1517 H   0  0  0  0  0  0  0  0  0  0  0  0
    2.6084    3.3509    1.4756 H   0  0  0  0  0  0  0  0  0  0  0  0
    6.0285    1.9191   -0.4667 N   0  0  0  0  0  0  0  0  0  0  0  0
    7.3673    1.3778   -0.6674 C   0  0  0  0  0  0  0  0  0  0  0  0
    5.8205    2.8558   -0.8003 H   0  0  0  0  0  0  0  0  0  0  0  0
    7.8250    1.1209    0.2938 H   0  0  0  0  0  0  0  0  0  0  0  0
    7.3270    0.4779   -1.2903 H   0  0  0  0  0  0  0  0  0  0  0  0
    8.0033    2.1153   -1.1662 H   0  0  0  0  0  0  0  0  0  0  0  0
  1  2  2  0  0  0  0
  1  3  1  0  0  0  0
  1  7  1  0  0  0  0
  3  4  1  0  0  0  0
  3  5  1  0  0  0  0
  3  6  1  0  0  0  0
  7  8  1  0  0  0  0
  7 12  1  0  0  0  0
  8  9  1  0  0  0  0
  8 11  1  0  0  0  0
  8 13  1  0  0  0  0
  9 10  2  0  0  0  0
  9 17  1  0  0  0  0
 11 14  1  0  0  0  0
 11 15  1  0  0  0  0
 11 16  1  0  0  0  0
 17 18  1  0  0  0  0
 17 22  1  0  0  0  0
 18 19  1  0  0  0  0
 18 21  1  0  0  0  0
 18 23  1  0  0  0  0
 19 20  2  0  0  0  0
 19 27  1  0  0  0  0
 21 24  1  0  0  0  0
 21 25  1  0  0  0  0
 21 26  1  0  0  0  0
 27 28  1  0  0  0  0
 27 32  1  0  0  0  0
 28 29  1  0  0  0  0
 28 31  1  0  0  0  0
 28 33  1  0  0  0  0
 29 30  2  0  0  0  0
 29 37  1  0  0  0  0
 31 34  1  0  0  0  0
 31 35  1  0  0  0  0
 31 36  1  0  0  0  0
 37 38  1  0  0  0  0
 37 39  1  0  0  0  0
 38 40  1  0  0  0  0
 38 41  1  0  0  0  0
 38 42  1  0  0  0  0
M  END
$$$$

  -OEChem-05262215353D

 42 41  0     1  0  0  0  0  0999 V2000
   -5.5932   -1.1744    2.0094 C   0  0  0  0  0  0  0  0  0  0  0  0
   -6.1073   -0.1727    1.5374 O   0  0  0  0  0  0  0  0  0  0  0  0
   -6.4354   -2.4077    2.2764 C   0  0  0  0  0  0  0  0  0  0  0  0
   -6.4080   -2.6551    3.3403 H   0  0  0  0  0  0  0  0  0  0  0  0
   -7.4733   -2.2262    1.9836 H   0  0  0  0  0  0  0  0  0  0  0  0
   -6.0500   -3.2538    1.7021 H   0  0  0  0  0  0  0  0  0  0  0  0
   -4.2437   -1.1922    2.2907 N   0  0  0  0  0  0  0  0  0  0  0  0
   -3.3060   -0.1258    1.9150 C   0  0  2  0  0  0  0  0  0  0  0  0
   -1.9100   -0.6916    1.5797 C   0  0  0  0  0  0  0  0  0  0  0  0
   -1.6338   -1.8561    1.8507 O   0  0  0  0  0  0  0  0  0  0  0  0
   -3.2206    0.8749    3.0712 C   0  0  0  0  0  0  0  0  0  0  0  0
   -3.8333   -2.0883    2.5518 H   0  0  0  0  0  0  0  0  0  0  0  0
   -3.6704    0.3887    1.0191 H   0  0  0  0  0  0  0  0  0  0  0  0
   -2.8464    0.3843    3.9754 H   0  0  0  0  0  0  0  0  0  0  0  0
   -2.5473    1.6992    2.8170 H   0  0  0  0  0  0  0  0  0  0  0  0
   -4.2097    1.2926    3.2847 H   0  0  0  0  0  0  0  0  0  0  0  0
   -0.9597    0.1027    0.9676 N   0  0  0  0  0  0  0  0  0  0  0  0
    0.3509   -0.3626    0.4966 C   0  0  2  0  0  0  0  0  0  0  0  0
    1.2954    0.8218    0.2117 C   0  0  0  0  0  0  0  0  0  0  0  0
    0.8348    1.9131   -0.1071 O   0  0  0  0  0  0  0  0  0  0  0  0
    0.1719   -1.1923   -0.7804 C   0  0  0  0  0  0  0  0  0  0  0  0
   -1.2184    1.0617    0.7367 H   0  0  0  0  0  0  0  0  0  0  0  0
    0.8128   -0.9833    1.2717 H   0  0  0  0  0  0  0  0  0  0  0  0
   -0.3073   -0.5930   -1.5613 H   0  0  0  0  0  0  0  0  0  0  0  0
    1.1418   -1.5368   -1.1522 H   0  0  0  0  0  0  0  0  0  0  0  0
   -0.4506   -2.0706   -0.5847 H   0  0  0  0  0  0  0  0  0  0  0  0
    2.6604    0.6781    0.3627 N   0  0  0  0  0  0  0  0  0  0  0  0
    3.6491    1.6800   -0.0548 C   0  0  2  0  0  0  0  0  0  0  0  0
    4.9289    1.0080   -0.5962 C   0  0  0  0  0  0  0  0  0  0  0  0
    5.1001   -0.1970   -0.4438 O   0  0  0  0  0  0  0  0  0  0  0  0
    3.9685    2.5756    1.1454 C   0  0  0  0  0  0  0  0  0  0  0  0
    3.0141   -0.2682    0.5057 H   0  0  0  0  0  0  0  0  0  0  0  0
    3.2382    2.2946   -0.8628 H   0  0  0  0  0  0  0  0  0  0  0  0
    4.3975    1.9853    1.9615 H   0  0  0  0  0  0  0  0  0  0  0  0
    4.6837    3.3544    0.8645 H   0  0  0  0  0  0  0  0  0  0  0  0
    3.0565    3.0605    1.5080 H   0  0  0  0  0  0  0  0  0  0  0  0
    5.8778    1.7456   -1.2799 N   0  0  0  0  0  0  0  0  0  0  0  0
    7.0844    1.1597   -1.8521 C   0  0  0  0  0  0  0  0  0  0  0  0
    5.6981    2.7362   -1.4166 H   0  0  0  0  0  0  0  0  0  0  0  0
    7.6795    0.6705   -1.0735 H   0  0  0  0  0  0  0  0  0  0  0  0
    6.8252    0.4184   -2.6156 H   0  0  0  0  0  0  0  0  0  0  0  0
    7.6987    1.9362   -2.3183 H   0  0  0  0  0  0  0  0  0  0  0  0
  1  2  2  0  0  0  0
  1  3  1  0  0  0  0
  1  7  1  0  0  0  0
  3  4  1  0  0  0  0
  3  5  1  0  0  0  0
  3  6  1  0  0  0  0
  7  8  1  0  0  0  0
  7 12  1  0  0  0  0
  8  9  1  0  0  0  0
  8 11  1  0  0  0  0
  8 13  1  0  0  0  0
  9 10  2  0  0  0  0
  9 17  1  0  0  0  0
 11 14  1  0  0  0  0
 11 15  1  0  0  0  0
 11 16  1  0  0  0  0
 17 18  1  0  0  0  0
 17 22  1  0  0  0  0
 18 19  1  0  0  0  0
 18 21  1  0  0  0  0
 18 23  1  0  0  0  0
 19 20  2  0  0  0  0
 19 27  1  0  0  0  0
 21 24  1  0  0  0  0
 21 25  1  0  0  0  0
 21 26  1  0  0  0  0
 27 28  1  0  0  0  0
 27 32  1  0  0  0  0
 28 29  1  0  0  0  0
 28 31  1  0  0  0  0
 28 33  1  0  0  0  0
 29 30  2  0  0  0  0
 29 37  1  0  0  0  0
 31 34  1  0  0  0  0
 31 35  1  0  0  0  0
 31 36  1  0  0  0  0
 37 38  1  0  0  0  0
 37 39  1  0  0  0  0
 38 40  1  0  0  0  0
 38 41  1  0  0  0  0
 38 42  1  0  0  0  0
M  END
$$$$

  -OEChem-05262215353D

 42 41  0     1  0  0  0  0  0999 V2000
   -5.5661   -1.0785    1.8943 C   0  0  0  0  0  0  0  0  0  0  0  0
   -6.0159   -0.0399    1.4370 O   0  0  0  0  0  0  0  0  0  0  0  0
   -6.4486   -2.3081    1.9957 C   0  0  0  0  0  0  0  0  0  0  0  0
   -6.5393   -2.6180    3.0395 H   0  0  0  0  0  0  0  0  0  0  0  0
   -7.4459   -2.0886    1.6044 H   0  0  0  0  0  0  0  0  0  0  0  0
   -6.0152   -3.1264    1.4155 H   0  0  0  0  0  0  0  0  0  0  0  0
   -4.2496   -1.1459    2.2978 N   0  0  0  0  0  0  0  0  0  0  0  0
   -3.2539   -0.0966    2.0432 C   0  0  2  0  0  0  0  0  0  0  0  0
   -1.8862   -0.7002    1.6621 C   0  0  0  0  0  0  0  0  0  0  0  0
   -1.6266   -1.8651    1.9469 O   0  0  0  0  0  0  0  0  0  0  0  0
   -3.1347    0.7670    3.3015 C   0  0  0  0  0  0  0  0  0  0  0  0
   -3.8859   -2.0670    2.5396 H   0  0  0  0  0  0  0  0  0  0  0  0
   -3.5767    0.5320    1.2064 H   0  0  0  0  0  0  0  0  0  0  0  0
   -2.7897    0.1656    4.1486 H   0  0  0  0  0  0  0  0  0  0  0  0
   -2.4243    1.5835    3.1407 H   0  0  0  0  0  0  0  0  0  0  0  0
   -4.1073    1.2008    3.5548 H   0  0  0  0  0  0  0  0  0  0  0  0
   -0.9426    0.0618    1.0012 N   0  0  0  0  0  0  0  0  0  0  0  0
    0.3796   -0.4096    0.5686 C   0  0  2  0  0  0  0  0  0  0  0  0
    1.3002    0.7751    0.2081 C   0  0  0  0  0  0  0  0  0  0  0  0
    0.8311    1.8984    0.0529 O   0  0  0  0  0  0  0  0  0  0  0  0
    0.2258   -1.3301   -0.6499 C   0  0  0  0  0  0  0  0  0  0  0  0
   -1.1714    1.0352    0.7980 H   0  0  0  0  0  0  0  0  0  0  0  0
    0.8507   -0.9648    1.3868 H   0  0  0  0  0  0  0  0  0  0  0  0
   -0.2501   -0.7931   -1.4767 H   0  0  0  0  0  0  0  0  0  0  0  0
    1.2036   -1.6899   -0.9853 H   0  0  0  0  0  0  0  0  0  0  0  0
   -0.3890   -2.2004   -0.4012 H   0  0  0  0  0  0  0  0  0  0  0  0
    2.6618    0.5862    0.0765 N   0  0  0  0  0  0  0  0  0  0  0  0
    3.5926    1.5930   -0.4483 C   0  0  2  0  0  0  0  0  0  0  0  0
    4.6862    0.9376   -1.3183 C   0  0  0  0  0  0  0  0  0  0  0  0
    4.8456   -0.2783   -1.2868 O   0  0  0  0  0  0  0  0  0  0  0  0
    4.2133    2.3353    0.7379 C   0  0  0  0  0  0  0  0  0  0  0  0
    2.9991   -0.3767    0.0818 H   0  0  0  0  0  0  0  0  0  0  0  0
    3.0553    2.3076   -1.0812 H   0  0  0  0  0  0  0  0  0  0  0  0
    4.7623    1.6386    1.3797 H   0  0  0  0  0  0  0  0  0  0  0  0
    4.9050    3.1083    0.3898 H   0  0  0  0  0  0  0  0  0  0  0  0
    3.4303    2.8154    1.3339 H   0  0  0  0  0  0  0  0  0  0  0  0
    5.4763    1.7029   -2.1561 N   0  0  0  0  0  0  0  0  0  0  0  0
    6.4859    1.1328   -3.0410 C   0  0  0  0  0  0  0  0  0  0  0  0
    5.2991    2.7028   -2.1898 H   0  0  0  0  0  0  0  0  0  0  0  0
    7.2300    0.5738   -2.4636 H   0  0  0  0  0  0  0  0  0  0  0  0
    6.0221    0.4556   -3.7662 H   0  0  0  0  0  0  0  0  0  0  0  0
    7.0008    1.9268   -3.5904 H   0  0  0  0  0  0  0  0  0  0  0  0
  1  2  2  0  0  0  0
  1  3  1  0  0  0  0
  1  7  1  0  0  0  0
  3  4  1  0  0  0  0
  3  5  1  0  0  0  0
  3  6  1  0  0  0  0
  7  8  1  0  0  0  0
  7 12  1  0  0  0  0
  8  9  1  0  0  0  0
  8 11  1  0  0  0  0
  8 13  1  0  0  0  0
  9 10  2  0  0  0  0
  9 17  1  0  0  0  0
 11 14  1  0  0  0  0
 11 15  1  0  0  0  0
 11 16  1  0  0  0  0
 17 18  1  0  0  0  0
 17 22  1  0  0  0  0
 18 19  1  0  0  0  0
 18 21  1  0  0  0  0
 18 23  1  0  0  0  0
 19 20  2  0  0  0  0
 19 27  1  0  0  0  0
 21 24  1  0  0  0  0
 21 25  1  0  0  0  0
 21 26  1  0  0  0  0
 27 28  1  0  0  0  0
 27 32  1  0  0  0  0
 28 29  1  0  0  0  0
 28 31  1  0  0  0  0
 28 33  1  0  0  0  0
 29 30  2  0  0  0  0
 29 37  1  0  0  0  0
 31 34  1  0  0  0  0
 31 35  1  0  0  0  0
 31 36  1  0  0  0  0
 37 38  1  0  0  0  0
 37 39  1  0  0  0  0
 38 40  1  0  0  0  0
 38 41  1  0  0  0  0
 38 42  1  0  0  0  0
M  END
$$$$

  -OEChem-05262215353D

 42 41  0     1  0  0  0  0  0999 V2000
   -5.5768   -1.0126    1.8750 C   0  0  0  0  0  0  0  0  0  0  0  0
   -6.0021    0.0557    1.4647 O   0  0  0  0  0  0  0  0  0  0  0  0
   -6.4984   -2.2144    1.9578 C   0  0  0  0  0  0  0  0  0  0  0  0
   -6.5949   -2.5397    2.9964 H   0  0  0  0  0  0  0  0  0  0  0  0
   -7.4892   -1.9540    1.5756 H   0  0  0  0  0  0  0  0  0  0  0  0
   -6.0964   -3.0365    1.3607 H   0  0  0  0  0  0  0  0  0  0  0  0
   -4.2563   -1.1360    2.2510 N   0  0  0  0  0  0  0  0  0  0  0  0
   -3.2314   -0.1105    2.0162 C   0  0  2  0  0  0  0  0  0  0  0  0
   -1.9019   -0.7431    1.5562 C   0  0  0  0  0  0  0  0  0  0  0  0
   -1.6824   -1.9341    1.7556 O   0  0  0  0  0  0  0  0  0  0  0  0
   -3.0355    0.6799    3.3127 C   0  0  0  0  0  0  0  0  0  0  0  0
   -3.9175   -2.0774    2.4466 H   0  0  0  0  0  0  0  0  0  0  0  0
   -3.5571    0.5738    1.2250 H   0  0  0  0  0  0  0  0  0  0  0  0
   -2.6897    0.0203    4.1151 H   0  0  0  0  0  0  0  0  0  0  0  0
   -2.2962    1.4744    3.1710 H   0  0  0  0  0  0  0  0  0  0  0  0
   -3.9801    1.1392    3.6217 H   0  0  0  0  0  0  0  0  0  0  0  0
   -0.9556    0.0195    0.9008 N   0  0  0  0  0  0  0  0  0  0  0  0
    0.3921   -0.4479    0.5521 C   0  0  2  0  0  0  0  0  0  0  0  0
    1.4035    0.7185    0.5367 C   0  0  0  0  0  0  0  0  0  0  0  0
    1.0273    1.8632    0.7699 O   0  0  0  0  0  0  0  0  0  0  0  0
    0.3269   -1.1360   -0.8166 C   0  0  0  0  0  0  0  0  0  0  0  0
   -1.1056    1.0285    0.8779 H   0  0  0  0  0  0  0  0  0  0  0  0
    0.7392   -1.1682    1.3010 H   0  0  0  0  0  0  0  0  0  0  0  0
    0.0124   -0.4256   -1.5876 H   0  0  0  0  0  0  0  0  0  0  0  0
    1.3044   -1.5421   -1.0936 H   0  0  0  0  0  0  0  0  0  0  0  0
   -0.3906   -1.9623   -0.7921 H   0  0  0  0  0  0  0  0  0  0  0  0
    2.7314    0.4918    0.2315 N   0  0  0  0  0  0  0  0  0  0  0  0
    3.7010    1.5518   -0.0735 C   0  0  2  0  0  0  0  0  0  0  0  0
    4.5898    1.1639   -1.2738 C   0  0  0  0  0  0  0  0  0  0  0  0
    4.6064    0.0045   -1.6739 O   0  0  0  0  0  0  0  0  0  0  0  0
    4.5472    1.7986    1.1776 C   0  0  0  0  0  0  0  0  0  0  0  0
    2.9683   -0.4393   -0.1116 H   0  0  0  0  0  0  0  0  0  0  0  0
    3.1794    2.4764   -0.3424 H   0  0  0  0  0  0  0  0  0  0  0  0
    5.0908    0.8907    1.4577 H   0  0  0  0  0  0  0  0  0  0  0  0
    5.2722    2.5987    1.0008 H   0  0  0  0  0  0  0  0  0  0  0  0
    3.9055    2.0929    2.0143 H   0  0  0  0  0  0  0  0  0  0  0  0
    5.3512    2.1176   -1.9238 N   0  0  0  0  0  0  0  0  0  0  0  0
    6.1680    1.8252   -3.0958 C   0  0  0  0  0  0  0  0  0  0  0  0
    5.2843    3.0774   -1.5973 H   0  0  0  0  0  0  0  0  0  0  0  0
    6.8940    1.0366   -2.8710 H   0  0  0  0  0  0  0  0  0  0  0  0
    5.5381    1.4971   -3.9294 H   0  0  0  0  0  0  0  0  0  0  0  0
    6.7168    2.7190   -3.4074 H   0  0  0  0  0  0  0  0  0  0  0  0
  1  2  2  0  0  0  0
  1  3  1  0  0  0  0
  1  7  1  0  0  0  0
  3  4  1  0  0  0  0
  3  5  1  0  0  0  0
  3  6  1  0  0  0  0
  7  8  1  0  0  0  0
  7 12  1  0  0  0  0
  8  9  1  0  0  0  0
  8 11  1  0  0  0  0
  8 13  1  0  0  0  0
  9 10  2  0  0  0  0
  9 17  1  0  0  0  0
 11 14  1  0  0  0  0
 11 15  1  0  0  0  0
 11 16  1  0  0  0  0
 17 18  1  0  0  0  0
 17 22  1  0  0  0  0
 18 19  1  0  0  0  0
 18 21  1  0  0  0  0
 18 23  1  0  0  0  0
 19 20  2  0  0  0  0
 19 27  1  0  0  0  0
 21 24  1  0  0  0  0
 21 25  1  0  0  0  0
 21 26  1  0  0  0  0
 27 28  1  0  0  0  0
 27 32  1  0  0  0  0
 28 29  1  0  0  0  0
 28 31  1  0  0  0  0
 28 33  1  0  0  0  0
 29 30  2  0  0  0  0
 29 37  1  0  0  0  0
 31 34  1  0  0  0  0
 31 35  1  0  0  0  0
 31 36  1  0  0  0  0
 37 38  1  0  0  0  0
 37 39  1  0  0  0  0
 38 40  1  0  0  0  0
 38 41  1  0  0  0  0
 38 42  1  0  0  0  0
M  END
$$$$

  -OEChem-05262215353D

 42 41  0     1  0  0  0  0  0999 V2000
   -5.6157   -1.0192    2.0878 C   0  0  0  0  0  0  0  0  0  0  0  0
   -6.0790    0.0633    1.7650 O   0  0  0  0  0  0  0  0  0  0  0  0
   -6.5345   -2.2046    2.3145 C   0  0  0  0  0  0  0  0  0  0  0  0
   -6.4062   -2.5872    3.3299 H   0  0  0  0  0  0  0  0  0  0  0  0
   -7.5775   -1.9052    2.1805 H   0  0  0  0  0  0  0  0  0  0  0  0
   -6.3012   -2.9982    1.6004 H   0  0  0  0  0  0  0  0  0  0  0  0
   -4.2541   -1.1752    2.2338 N   0  0  0  0  0  0  0  0  0  0  0  0
   -3.2596   -0.1549    1.8801 C   0  0  2  0  0  0  0  0  0  0  0  0
   -1.9487   -0.7955    1.3770 C   0  0  0  0  0  0  0  0  0  0  0  0
   -1.7504   -1.9975    1.5265 O   0  0  0  0  0  0  0  0  0  0  0  0
   -2.9990    0.7138    3.1141 C   0  0  0  0  0  0  0  0  0  0  0  0
   -3.9049   -2.1227    2.3746 H   0  0  0  0  0  0  0  0  0  0  0  0
   -3.6465    0.4740    1.0707 H   0  0  0  0  0  0  0  0  0  0  0  0
   -2.5988    0.1060    3.9318 H   0  0  0  0  0  0  0  0  0  0  0  0
   -2.2806    1.5060    2.8829 H   0  0  0  0  0  0  0  0  0  0  0  0
   -3.9296    1.1817    3.4506 H   0  0  0  0  0  0  0  0  0  0  0  0
   -0.9903   -0.0231    0.7502 N   0  0  0  0  0  0  0  0  0  0  0  0
    0.3594   -0.4948    0.4128 C   0  0  2  0  0  0  0  0  0  0  0  0
    1.3756    0.6700    0.4375 C   0  0  0  0  0  0  0  0  0  0  0  0
    1.0531    1.7534    0.9151 O   0  0  0  0  0  0  0  0  0  0  0  0
    0.3008   -1.1627   -0.9681 C   0  0  0  0  0  0  0  0  0  0  0  0
   -1.1138    0.9882    0.7985 H   0  0  0  0  0  0  0  0  0  0  0  0
    0.6924   -1.2304    1.1530 H   0  0  0  0  0  0  0  0  0  0  0  0
    0.0225   -0.4327   -1.7348 H   0  0  0  0  0  0  0  0  0  0  0  0
    1.2696   -1.5971   -1.2326 H   0  0  0  0  0  0  0  0  0  0  0  0
   -0.4416   -1.9671   -0.9695 H   0  0  0  0  0  0  0  0  0  0  0  0
    2.6256    0.5347   -0.1353 N   0  0  0  0  0  0  0  0  0  0  0  0
    3.5376    1.6517   -0.4123 C   0  0  2  0  0  0  0  0  0  0  0  0
    4.2196    1.4817   -1.7858 C   0  0  0  0  0  0  0  0  0  0  0  0
    4.1698    0.4019   -2.3659 O   0  0  0  0  0  0  0  0  0  0  0  0
    4.5782    1.7101    0.7085 C   0  0  0  0  0  0  0  0  0  0  0  0
    2.7933   -0.3184   -0.6685 H   0  0  0  0  0  0  0  0  0  0  0  0
    2.9835    2.5960   -0.4394 H   0  0  0  0  0  0  0  0  0  0  0  0
    5.1549    0.7802    0.7447 H   0  0  0  0  0  0  0  0  0  0  0  0
    5.2692    2.5432    0.5495 H   0  0  0  0  0  0  0  0  0  0  0  0
    4.0837    1.8517    1.6745 H   0  0  0  0  0  0  0  0  0  0  0  0
    4.8749    2.5432   -2.3817 N   0  0  0  0  0  0  0  0  0  0  0  0
    5.5168    2.4549   -3.6878 C   0  0  0  0  0  0  0  0  0  0  0  0
    4.8803    3.4317   -1.8890 H   0  0  0  0  0  0  0  0  0  0  0  0
    6.3286    1.7202   -3.6667 H   0  0  0  0  0  0  0  0  0  0  0  0
    4.7919    2.1570   -4.4527 H   0  0  0  0  0  0  0  0  0  0  0  0
    5.9357    3.4253   -3.9706 H   0  0  0  0  0  0  0  0  0  0  0  0
  1  2  2  0  0  0  0
  1  3  1  0  0  0  0
  1  7  1  0  0  0  0
  3  4  1  0  0  0  0
  3  5  1  0  0  0  0
  3  6  1  0  0  0  0
  7  8  1  0  0  0  0
  7 12  1  0  0  0  0
  8  9  1  0  0  0  0
  8 11  1  0  0  0  0
  8 13  1  0  0  0  0
  9 10  2  0  0  0  0
  9 17  1  0  0  0  0
 11 14  1  0  0  0  0
 11 15  1  0  0  0  0
 11 16  1  0  0  0  0
 17 18  1  0  0  0  0
 17 22  1  0  0  0  0
 18 19  1  0  0  0  0
 18 21  1  0  0  0  0
 18 23  1  0  0  0  0
 19 20  2  0  0  0  0
 19 27  1  0  0  0  0
 21 24  1  0  0  0  0
 21 25  1  0  0  0  0
 21 26  1  0  0  0  0
 27 28  1  0  0  0  0
 27 32  1  0  0  0  0
 28 29  1  0  0  0  0
 28 31  1  0  0  0  0
 28 33  1  0  0  0  0
 29 30  2  0  0  0  0
 29 37  1  0  0  0  0
 31 34  1  0  0  0  0
 31 35  1  0  0  0  0
 31 36  1  0  0  0  0
 37 38  1  0  0  0  0
 37 39  1  0  0  0  0
 38 40  1  0  0  0  0
 38 41  1  0  0  0  0
 38 42  1  0  0  0  0
M  END
$$$$

  -OEChem-05262215353D

 42 41  0     1  0  0  0  0  0999 V2000
   -5.6208   -1.0191    2.1776 C   0  0  0  0  0  0  0  0  0  0  0  0
   -6.0870    0.0711    1.8866 O   0  0  0  0  0  0  0  0  0  0  0  0
   -6.5437   -2.1888    2.4631 C   0  0  0  0  0  0  0  0  0  0  0  0
   -6.3117   -2.6175    3.4410 H   0  0  0  0  0  0  0  0  0  0  0  0
   -7.5853   -1.8553    2.4636 H   0  0  0  0  0  0  0  0  0  0  0  0
   -6.4189   -2.9578    1.6969 H   0  0  0  0  0  0  0  0  0  0  0  0
   -4.2548   -1.1941    2.2368 N   0  0  0  0  0  0  0  0  0  0  0  0
   -3.2697   -0.1819    1.8358 C   0  0  2  0  0  0  0  0  0  0  0  0
   -1.9771   -0.8317    1.2985 C   0  0  0  0  0  0  0  0  0  0  0  0
   -1.7890   -2.0371    1.4328 O   0  0  0  0  0  0  0  0  0  0  0  0
   -2.9644    0.7060    3.0466 C   0  0  0  0  0  0  0  0  0  0  0  0
   -3.9083   -2.1452    2.3585 H   0  0  0  0  0  0  0  0  0  0  0  0
   -3.6826    0.4354    1.0306 H   0  0  0  0  0  0  0  0  0  0  0  0
   -2.5437    0.1090    3.8619 H   0  0  0  0  0  0  0  0  0  0  0  0
   -2.2467    1.4881    2.7808 H   0  0  0  0  0  0  0  0  0  0  0  0
   -3.8802    1.1877    3.4039 H   0  0  0  0  0  0  0  0  0  0  0  0
   -1.0216   -0.0596    0.6661 N   0  0  0  0  0  0  0  0  0  0  0  0
    0.3318   -0.5332    0.3446 C   0  0  2  0  0  0  0  0  0  0  0  0
    1.3372    0.6422    0.3614 C   0  0  0  0  0  0  0  0  0  0  0  0
    1.0847    1.6423    1.0253 O   0  0  0  0  0  0  0  0  0  0  0  0
    0.2833   -1.2376   -1.0196 C   0  0  0  0  0  0  0  0  0  0  0  0
   -1.1320    0.9503    0.7537 H   0  0  0  0  0  0  0  0  0  0  0  0
    0.6664   -1.2503    1.1022 H   0  0  0  0  0  0  0  0  0  0  0  0
    0.0047   -0.5304   -1.8075 H   0  0  0  0  0  0  0  0  0  0  0  0
    1.2555   -1.6749   -1.2661 H   0  0  0  0  0  0  0  0  0  0  0  0
   -0.4543   -2.0462   -1.0033 H   0  0  0  0  0  0  0  0  0  0  0  0
    2.4605    0.6446   -0.4439 N   0  0  0  0  0  0  0  0  0  0  0  0
    3.2954    1.8246   -0.7059 C   0  0  2  0  0  0  0  0  0  0  0  0
    3.7530    1.8644   -2.1789 C   0  0  0  0  0  0  0  0  0  0  0  0
    3.6271    0.8701   -2.8861 O   0  0  0  0  0  0  0  0  0  0  0  0
    4.5000    1.7837    0.2387 C   0  0  0  0  0  0  0  0  0  0  0  0
    2.5417   -0.1168   -1.1177 H   0  0  0  0  0  0  0  0  0  0  0  0
    2.7238    2.7401   -0.5200 H   0  0  0  0  0  0  0  0  0  0  0  0
    5.0968    0.8832    0.0602 H   0  0  0  0  0  0  0  0  0  0  0  0
    5.1373    2.6602    0.0877 H   0  0  0  0  0  0  0  0  0  0  0  0
    4.1631    1.7784    1.2803 H   0  0  0  0  0  0  0  0  0  0  0  0
    4.2823    3.0212   -2.7201 N   0  0  0  0  0  0  0  0  0  0  0  0
    4.6999    3.1342   -4.1123 C   0  0  0  0  0  0  0  0  0  0  0  0
    4.3531    3.8353   -2.1164 H   0  0  0  0  0  0  0  0  0  0  0  0
    5.5088    2.4284   -4.3276 H   0  0  0  0  0  0  0  0  0  0  0  0
    3.8607    2.9231   -4.7835 H   0  0  0  0  0  0  0  0  0  0  0  0
    5.0599    4.1465   -4.3190 H   0  0  0  0  0  0  0  0  0  0  0  0
  1  2  2  0  0  0  0
  1  3  1  0  0  0  0
  1  7  1  0  0  0  0
  3  4  1  0  0  0  0
  3  5  1  0  0  0  0
  3  6  1  0  0  0  0
  7  8  1  0  0  0  0
  7 12  1  0  0  0  0
  8  9  1  0  0  0  0
  8 11  1  0  0  0  0
  8 13  1  0  0  0  0
  9 10  2  0  0  0  0
  9 17  1  0  0  0  0
 11 14  1  0  0  0  0
 11 15  1  0  0  0  0
 11 16  1  0  0  0  0
 17 18  1  0  0  0  0
 17 22  1  0  0  0  0
 18 19  1  0  0  0  0
 18 21  1  0  0  0  0
 18 23  1  0  0  0  0
 19 20  2  0  0  0  0
 19 27  1  0  0  0  0
 21 24  1  0  0  0  0
 21 25  1  0  0  0  0
 21 26  1  0  0  0  0
 27 28  1  0  0  0  0
 27 32  1  0  0  0  0
 28 29  1  0  0  0  0
 28 31  1  0  0  0  0
 28 33  1  0  0  0  0
 29 30  2  0  0  0  0
 29 37  1  0  0  0  0
 31 34  1  0  0  0  0
 31 35  1  0  0  0  0
 31 36  1  0  0  0  0
 37 38  1  0  0  0  0
 37 39  1  0  0  0  0
 38 40  1  0  0  0  0
 38 41  1  0  0  0  0
 38 42  1  0  0  0  0
M  END
$$$$

  -OEChem-05262215353D

 42 41  0     1  0  0  0  0  0999 V2000
   -5.6261   -1.0249    2.1890 C   0  0  0  0  0  0  0  0  0  0  0  0
   -6.0835    0.0739    1.9169 O   0  0  0  0  0  0  0  0  0  0  0  0
   -6.5598   -2.1882    2.4670 C   0  0  0  0  0  0  0  0  0  0  0  0
   -6.3151   -2.6422    3.4302 H   0  0  0  0  0  0  0  0  0  0  0  0
   -7.5964   -1.8404    2.4958 H   0  0  0  0  0  0  0  0  0  0  0  0
   -6.4619   -2.9412    1.6811 H   0  0  0  0  0  0  0  0  0  0  0  0
   -4.2608   -1.2136    2.2308 N   0  0  0  0  0  0  0  0  0  0  0  0
   -3.2694   -0.2015    1.8435 C   0  0  2  0  0  0  0  0  0  0  0  0
   -1.9762   -0.8474    1.3015 C   0  0  0  0  0  0  0  0  0  0  0  0
   -1.7792   -2.0499    1.4455 O   0  0  0  0  0  0  0  0  0  0  0  0
   -2.9633    0.6730    3.0643 C   0  0  0  0  0  0  0  0  0  0  0  0
   -3.9203   -2.1674    2.3477 H   0  0  0  0  0  0  0  0  0  0  0  0
   -3.6786    0.4258    1.0442 H   0  0  0  0  0  0  0  0  0  0  0  0
   -2.5544    0.0652    3.8778 H   0  0  0  0  0  0  0  0  0  0  0  0
   -2.2358    1.4502    2.8106 H   0  0  0  0  0  0  0  0  0  0  0  0
   -3.8769    1.1610    3.4190 H   0  0  0  0  0  0  0  0  0  0  0  0
   -1.0319   -0.0744    0.6519 N   0  0  0  0  0  0  0  0  0  0  0  0
    0.3276   -0.5393    0.3390 C   0  0  2  0  0  0  0  0  0  0  0  0
    1.3178    0.6491    0.3311 C   0  0  0  0  0  0  0  0  0  0  0  0
    1.1721    1.5506    1.1488 O   0  0  0  0  0  0  0  0  0  0  0  0
    0.2881   -1.2869   -1.0030 C   0  0  0  0  0  0  0  0  0  0  0  0
   -1.1550    0.9339    0.7310 H   0  0  0  0  0  0  0  0  0  0  0  0
    0.6722   -1.2310    1.1157 H   0  0  0  0  0  0  0  0  0  0  0  0
   -0.0149   -0.6129   -1.8107 H   0  0  0  0  0  0  0  0  0  0  0  0
    1.2706   -1.7058   -1.2414 H   0  0  0  0  0  0  0  0  0  0  0  0
   -0.4277   -2.1138   -0.9566 H   0  0  0  0  0  0  0  0  0  0  0  0
    2.2612    0.8067   -0.6676 N   0  0  0  0  0  0  0  0  0  0  0  0
    3.0172    2.0419   -0.9145 C   0  0  2  0  0  0  0  0  0  0  0  0
    3.1884    2.2969   -2.4268 C   0  0  0  0  0  0  0  0  0  0  0  0
    2.9308    1.4079   -3.2318 O   0  0  0  0  0  0  0  0  0  0  0  0
    4.3790    1.9199   -0.2255 C   0  0  0  0  0  0  0  0  0  0  0  0
    2.2192    0.1467   -1.4442 H   0  0  0  0  0  0  0  0  0  0  0  0
    2.4801    2.9017   -0.5005 H   0  0  0  0  0  0  0  0  0  0  0  0
    4.9403    1.0737   -0.6344 H   0  0  0  0  0  0  0  0  0  0  0  0
    4.9668    2.8312   -0.3707 H   0  0  0  0  0  0  0  0  0  0  0  0
    4.2463    1.7637    0.8499 H   0  0  0  0  0  0  0  0  0  0  0  0
    3.6096    3.5302   -2.8888 N   0  0  0  0  0  0  0  0  0  0  0  0
    3.7516    3.8485   -4.3048 C   0  0  0  0  0  0  0  0  0  0  0  0
    3.7894    4.2559   -2.2007 H   0  0  0  0  0  0  0  0  0  0  0  0
    4.4837    3.1844   -4.7765 H   0  0  0  0  0  0  0  0  0  0  0  0
    2.7917    3.7378   -4.8208 H   0  0  0  0  0  0  0  0  0  0  0  0
    4.0929    4.8811   -4.4280 H   0  0  0  0  0  0  0  0  0  0  0  0
  1  2  2  0  0  0  0
  1  3  1  0  0  0  0
  1  7  1  0  0  0  0
  3  4  1  0  0  0  0
  3  5  1  0  0  0  0
  3  6  1  0  0  0  0
  7  8  1  0  0  0  0
  7 12  1  0  0  0  0
  8  9  1  0  0  0  0
  8 11  1  0  0  0  0
  8 13  1  0  0  0  0
  9 10  2  0  0  0  0
  9 17  1  0  0  0  0
 11 14  1  0  0  0  0
 11 15  1  0  0  0  0
 11 16  1  0  0  0  0
 17 18  1  0  0  0  0
 17 22  1  0  0  0  0
 18 19  1  0  0  0  0
 18 21  1  0  0  0  0
 18 23  1  0  0  0  0
 19 20  2  0  0  0  0
 19 27  1  0  0  0  0
 21 24  1  0  0  0  0
 21 25  1  0  0  0  0
 21 26  1  0  0  0  0
 27 28  1  0  0  0  0
 27 32  1  0  0  0  0
 28 29  1  0  0  0  0
 28 31  1  0  0  0  0
 28 33  1  0  0  0  0
 29 30  2  0  0  0  0
 29 37  1  0  0  0  0
 31 34  1  0  0  0  0
 31 35  1  0  0  0  0
 31 36  1  0  0  0  0
 37 38  1  0  0  0  0
 37 39  1  0  0  0  0
 38 40  1  0  0  0  0
 38 41  1  0  0  0  0
 38 42  1  0  0  0  0
M  END
$$$$

  -OEChem-05262215353D

 42 41  0     1  0  0  0  0  0999 V2000
   -5.6229   -1.0538    2.1919 C   0  0  0  0  0  0  0  0  0  0  0  0
   -6.0912    0.0343    1.8961 O   0  0  0  0  0  0  0  0  0  0  0  0
   -6.5429   -2.2298    2.4599 C   0  0  0  0  0  0  0  0  0  0  0  0
   -6.3237   -2.6616    3.4392 H   0  0  0  0  0  0  0  0  0  0  0  0
   -7.5863   -1.9030    2.4453 H   0  0  0  0  0  0  0  0  0  0  0  0
   -6.4022   -2.9943    1.6922 H   0  0  0  0  0  0  0  0  0  0  0  0
   -4.2564   -1.2212    2.2640 N   0  0  0  0  0  0  0  0  0  0  0  0
   -3.2752   -0.2061    1.8596 C   0  0  2  0  0  0  0  0  0  0  0  0
   -1.9873   -0.8492    1.3028 C   0  0  0  0  0  0  0  0  0  0  0  0
   -1.7873   -2.0518    1.4422 O   0  0  0  0  0  0  0  0  0  0  0  0
   -2.9570    0.6744    3.0726 C   0  0  0  0  0  0  0  0  0  0  0  0
   -3.9058   -2.1701    2.3908 H   0  0  0  0  0  0  0  0  0  0  0  0
   -3.6969    0.4167    1.0634 H   0  0  0  0  0  0  0  0  0  0  0  0
   -2.5314    0.0720    3.8815 H   0  0  0  0  0  0  0  0  0  0  0  0
   -2.2385    1.4554    2.8053 H   0  0  0  0  0  0  0  0  0  0  0  0
   -3.8683    1.1574    3.4396 H   0  0  0  0  0  0  0  0  0  0  0  0
   -1.0520   -0.0715    0.6455 N   0  0  0  0  0  0  0  0  0  0  0  0
    0.3076   -0.5316    0.3282 C   0  0  2  0  0  0  0  0  0  0  0  0
    1.2899    0.6618    0.3116 C   0  0  0  0  0  0  0  0  0  0  0  0
    1.3012    1.4330    1.2629 O   0  0  0  0  0  0  0  0  0  0  0  0
    0.2702   -1.2924   -1.0064 C   0  0  0  0  0  0  0  0  0  0  0  0
   -1.1846    0.9351    0.7217 H   0  0  0  0  0  0  0  0  0  0  0  0
    0.6596   -1.2148    1.1093 H   0  0  0  0  0  0  0  0  0  0  0  0
   -0.0815   -0.6424   -1.8140 H   0  0  0  0  0  0  0  0  0  0  0  0
    1.2661   -1.6677   -1.2616 H   0  0  0  0  0  0  0  0  0  0  0  0
   -0.4068   -2.1496   -0.9358 H   0  0  0  0  0  0  0  0  0  0  0  0
    2.0114    0.9978   -0.8192 N   0  0  0  0  0  0  0  0  0  0  0  0
    2.7106    2.2740   -1.0185 C   0  0  2  0  0  0  0  0  0  0  0  0
    2.5928    2.7527   -2.4805 C   0  0  0  0  0  0  0  0  0  0  0  0
    2.1891    1.9839   -3.3469 O   0  0  0  0  0  0  0  0  0  0  0  0
    4.1778    2.0833   -0.6251 C   0  0  0  0  0  0  0  0  0  0  0  0
    1.8212    0.4556   -1.6619 H   0  0  0  0  0  0  0  0  0  0  0  0
    2.2656    3.0504   -0.3873 H   0  0  0  0  0  0  0  0  0  0  0  0
    4.6433    1.3100   -1.2447 H   0  0  0  0  0  0  0  0  0  0  0  0
    4.7354    3.0156   -0.7540 H   0  0  0  0  0  0  0  0  0  0  0  0
    4.2508    1.7801    0.4242 H   0  0  0  0  0  0  0  0  0  0  0  0
    2.9200    4.0517   -2.8227 N   0  0  0  0  0  0  0  0  0  0  0  0
    2.8006    4.5762   -4.1777 C   0  0  0  0  0  0  0  0  0  0  0  0
    3.2217    4.6740   -2.0785 H   0  0  0  0  0  0  0  0  0  0  0  0
    3.4173    3.9941   -4.8705 H   0  0  0  0  0  0  0  0  0  0  0  0
    1.7594    4.5356   -4.5139 H   0  0  0  0  0  0  0  0  0  0  0  0
    3.1343    5.6177   -4.2114 H   0  0  0  0  0  0  0  0  0  0  0  0
  1  2  2  0  0  0  0
  1  3  1  0  0  0  0
  1  7  1  0  0  0  0
  3  4  1  0  0  0  0
  3  5  1  0  0  0  0
  3  6  1  0  0  0  0
  7  8  1  0  0  0  0
  7 12  1  0  0  0  0
  8  9  1  0  0  0  0
  8 11  1  0  0  0  0
  8 13  1  0  0  0  0
  9 10  2  0  0  0  0
  9 17  1  0  0  0  0
 11 14  1  0  0  0  0
 11 15  1  0  0  0  0
 11 16  1  0  0  0  0
 17 18  1  0  0  0  0
 17 22  1  0  0  0  0
 18 19  1  0  0  0  0
 18 21  1  0  0  0  0
 18 23  1  0  0  0  0
 19 20  2  0  0  0  0
 19 27  1  0  0  0  0
 21 24  1  0  0  0  0
 21 25  1  0  0  0  0
 21 26  1  0  0  0  0
 27 28  1  0  0  0  0
 27 32  1  0  0  0  0
 28 29  1  0  0  0  0
 28 31  1  0  0  0  0
 28 33  1  0  0  0  0
 29 30  2  0  0  0  0
 29 37  1  0  0  0  0
 31 34  1  0  0  0  0
 31 35  1  0  0  0  0
 31 36  1  0  0  0  0
 37 38  1  0  0  0  0
 37 39  1  0  0  0  0
 38 40  1  0  0  0  0
 38 41  1  0  0  0  0
 38 42  1  0  0  0  0
M  END
$$$$

  -OEChem-05262215353D

 42 41  0     1  0  0  0  0  0999 V2000
   -5.6219   -1.0767    2.1192 C   0  0  0  0  0  0  0  0  0  0  0  0
   -6.0982   -0.0070    1.7732 O   0  0  0  0  0  0  0  0  0  0  0  0
   -6.5285   -2.2580    2.4066 C   0  0  0  0  0  0  0  0  0  0  0  0
   -6.3530   -2.6235    3.4212 H   0  0  0  0  0  0  0  0  0  0  0  0
   -7.5766   -1.9599    2.3155 H   0  0  0  0  0  0  0  0  0  0  0  0
   -6.3275   -3.0636    1.6964 H   0  0  0  0  0  0  0  0  0  0  0  0
   -4.2566   -1.2176    2.2436 N   0  0  0  0  0  0  0  0  0  0  0  0
   -3.2782   -0.1960    1.8512 C   0  0  2  0  0  0  0  0  0  0  0  0
   -1.9677   -0.8317    1.3424 C   0  0  0  0  0  0  0  0  0  0  0  0
   -1.7502   -2.0259    1.5211 O   0  0  0  0  0  0  0  0  0  0  0  0
   -3.0063    0.7042    3.0605 C   0  0  0  0  0  0  0  0  0  0  0  0
   -3.8951   -2.1563    2.4105 H   0  0  0  0  0  0  0  0  0  0  0  0
   -3.6840    0.4102    1.0340 H   0  0  0  0  0  0  0  0  0  0  0  0
   -2.5929    0.1184    3.8878 H   0  0  0  0  0  0  0  0  0  0  0  0
   -2.2936    1.4931    2.8019 H   0  0  0  0  0  0  0  0  0  0  0  0
   -3.9346    1.1769    3.3973 H   0  0  0  0  0  0  0  0  0  0  0  0
   -1.0366   -0.0586    0.6745 N   0  0  0  0  0  0  0  0  0  0  0  0
    0.3242   -0.5160    0.3593 C   0  0  2  0  0  0  0  0  0  0  0  0
    1.3048    0.6758    0.3252 C   0  0  0  0  0  0  0  0  0  0  0  0
    1.5283    1.2951    1.3565 O   0  0  0  0  0  0  0  0  0  0  0  0
    0.2868   -1.2955   -0.9639 C   0  0  0  0  0  0  0  0  0  0  0  0
   -1.1988    0.9457    0.6909 H   0  0  0  0  0  0  0  0  0  0  0  0
    0.6822   -1.1878    1.1479 H   0  0  0  0  0  0  0  0  0  0  0  0
   -0.1091   -0.6734   -1.7730 H   0  0  0  0  0  0  0  0  0  0  0  0
    1.2912   -1.6341   -1.2363 H   0  0  0  0  0  0  0  0  0  0  0  0
   -0.3542   -2.1772   -0.8649 H   0  0  0  0  0  0  0  0  0  0  0  0
    1.7826    1.1821   -0.8691 N   0  0  0  0  0  0  0  0  0  0  0  0
    2.4469    2.4831   -1.0206 C   0  0  2  0  0  0  0  0  0  0  0  0
    1.9832    3.1998   -2.3061 C   0  0  0  0  0  0  0  0  0  0  0  0
    1.3662    2.5787   -3.1651 O   0  0  0  0  0  0  0  0  0  0  0  0
    3.9580    2.2422   -1.0462 C   0  0  0  0  0  0  0  0  0  0  0  0
    1.4052    0.7706   -1.7226 H   0  0  0  0  0  0  0  0  0  0  0  0
    2.2003    3.1370   -0.1773 H   0  0  0  0  0  0  0  0  0  0  0  0
    4.2276    1.5916   -1.8844 H   0  0  0  0  0  0  0  0  0  0  0  0
    4.4971    3.1884   -1.1514 H   0  0  0  0  0  0  0  0  0  0  0  0
    4.2792    1.7634   -0.1156 H   0  0  0  0  0  0  0  0  0  0  0  0
    2.2380    4.5458   -2.4915 N   0  0  0  0  0  0  0  0  0  0  0  0
    1.8009    5.2884   -3.6674 C   0  0  0  0  0  0  0  0  0  0  0  0
    2.7247    5.0403   -1.7493 H   0  0  0  0  0  0  0  0  0  0  0  0
    2.2453    4.8664   -4.5749 H   0  0  0  0  0  0  0  0  0  0  0  0
    0.7104    5.2533   -3.7599 H   0  0  0  0  0  0  0  0  0  0  0  0
    2.1070    6.3358   -3.5881 H   0  0  0  0  0  0  0  0  0  0  0  0
  1  2  2  0  0  0  0
  1  3  1  0  0  0  0
  1  7  1  0  0  0  0
  3  4  1  0  0  0  0
  3  5  1  0  0  0  0
  3  6  1  0  0  0  0
  7  8  1  0  0  0  0
  7 12  1  0  0  0  0
  8  9  1  0  0  0  0
  8 11  1  0  0  0  0
  8 13  1  0  0  0  0
  9 10  2  0  0  0  0
  9 17  1  0  0  0  0
 11 14  1  0  0  0  0
 11 15  1  0  0  0  0
 11 16  1  0  0  0  0
 17 18  1  0  0  0  0
 17 22  1  0  0  0  0
 18 19  1  0  0  0  0
 18 21  1  0  0  0  0
 18 23  1  0  0  0  0
 19 20  2  0  0  0  0
 19 27  1  0  0  0  0
 21 24  1  0  0  0  0
 21 25  1  0  0  0  0
 21 26  1  0  0  0  0
 27 28  1  0  0  0  0
 27 32  1  0  0  0  0
 28 29  1  0  0  0  0
 28 31  1  0  0  0  0
 28 33  1  0  0  0  0
 29 30  2  0  0  0  0
 29 37  1  0  0  0  0
 31 34  1  0  0  0  0
 31 35  1  0  0  0  0
 31 36  1  0  0  0  0
 37 38  1  0  0  0  0
 37 39  1  0  0  0  0
 38 40  1  0  0  0  0
 38 41  1  0  0  0  0
 38 42  1  0  0  0  0
M  END
$$$$

  -OEChem-05262215353D

 42 41  0     1  0  0  0  0  0999 V2000
   -5.6348   -1.0959    2.0331 C   0  0  0  0  0  0  0  0  0  0  0  0
   -6.1249   -0.0519    1.6325 O   0  0  0  0  0  0  0  0  0  0  0  0
   -6.5266   -2.2790    2.3600 C   0  0  0  0  0  0  0  0  0  0  0  0
   -6.3712   -2.5886    3.3964 H   0  0  0  0  0  0  0  0  0  0  0  0
   -7.5776   -2.0070    2.2272 H   0  0  0  0  0  0  0  0  0  0  0  0
   -6.2934   -3.1163    1.6980 H   0  0  0  0  0  0  0  0  0  0  0  0
   -4.2687   -1.2047    2.1819 N   0  0  0  0  0  0  0  0  0  0  0  0
   -3.3025   -0.1773    1.7732 C   0  0  2  0  0  0  0  0  0  0  0  0
   -1.9502   -0.7989    1.3639 C   0  0  0  0  0  0  0  0  0  0  0  0
   -1.7052   -1.9704    1.6329 O   0  0  0  0  0  0  0  0  0  0  0  0
   -3.1132    0.8000    2.9377 C   0  0  0  0  0  0  0  0  0  0  0  0
   -3.8913   -2.1237    2.4113 H   0  0  0  0  0  0  0  0  0  0  0  0
   -3.6896    0.3659    0.9045 H   0  0  0  0  0  0  0  0  0  0  0  0
   -2.7214    0.2770    3.8163 H   0  0  0  0  0  0  0  0  0  0  0  0
   -2.4132    1.5953    2.6642 H   0  0  0  0  0  0  0  0  0  0  0  0
   -4.0695    1.2611    3.2043 H   0  0  0  0  0  0  0  0  0  0  0  0
   -1.0093   -0.0441    0.6867 N   0  0  0  0  0  0  0  0  0  0  0  0
    0.3710   -0.4896    0.4408 C   0  0  2  0  0  0  0  0  0  0  0  0
    1.3433    0.7065    0.3730 C   0  0  0  0  0  0  0  0  0  0  0  0
    1.7815    1.1902    1.4070 O   0  0  0  0  0  0  0  0  0  0  0  0
    0.3978   -1.3330   -0.8414 C   0  0  0  0  0  0  0  0  0  0  0  0
   -1.2184    0.9449    0.5736 H   0  0  0  0  0  0  0  0  0  0  0  0
    0.7107   -1.1155    1.2742 H   0  0  0  0  0  0  0  0  0  0  0  0
   -0.0046   -0.7697   -1.6889 H   0  0  0  0  0  0  0  0  0  0  0  0
    1.4225   -1.6388   -1.0748 H   0  0  0  0  0  0  0  0  0  0  0  0
   -0.2065   -2.2363   -0.7112 H   0  0  0  0  0  0  0  0  0  0  0  0
    1.6068    1.3360   -0.8296 N   0  0  0  0  0  0  0  0  0  0  0  0
    2.2398    2.6560   -0.9590 C   0  0  2  0  0  0  0  0  0  0  0  0
    1.3965    3.5977   -1.8439 C   0  0  0  0  0  0  0  0  0  0  0  0
    0.4692    3.1479   -2.5091 O   0  0  0  0  0  0  0  0  0  0  0  0
    3.6340    2.4511   -1.5557 C   0  0  0  0  0  0  0  0  0  0  0  0
    1.0372    1.0368   -1.6201 H   0  0  0  0  0  0  0  0  0  0  0  0
    2.3397    3.1352    0.0204 H   0  0  0  0  0  0  0  0  0  0  0  0
    3.5642    1.9935   -2.5478 H   0  0  0  0  0  0  0  0  0  0  0  0
    4.1566    3.4078   -1.6491 H   0  0  0  0  0  0  0  0  0  0  0  0
    4.2274    1.7959   -0.9101 H   0  0  0  0  0  0  0  0  0  0  0  0
    1.6713    4.9519   -1.8909 N   0  0  0  0  0  0  0  0  0  0  0  0
    0.9027    5.8962   -2.6930 C   0  0  0  0  0  0  0  0  0  0  0  0
    2.4319    5.3003   -1.3142 H   0  0  0  0  0  0  0  0  0  0  0  0
    0.9361    5.6163   -3.7512 H   0  0  0  0  0  0  0  0  0  0  0  0
   -0.1424    5.9145   -2.3663 H   0  0  0  0  0  0  0  0  0  0  0  0
    1.3146    6.9047   -2.5899 H   0  0  0  0  0  0  0  0  0  0  0  0
  1  2  2  0  0  0  0
  1  3  1  0  0  0  0
  1  7  1  0  0  0  0
  3  4  1  0  0  0  0
  3  5  1  0  0  0  0
  3  6  1  0  0  0  0
  7  8  1  0  0  0  0
  7 12  1  0  0  0  0
  8  9  1  0  0  0  0
  8 11  1  0  0  0  0
  8 13  1  0  0  0  0
  9 10  2  0  0  0  0
  9 17  1  0  0  0  0
 11 14  1  0  0  0  0
 11 15  1  0  0  0  0
 11 16  1  0  0  0  0
 17 18  1  0  0  0  0
 17 22  1  0  0  0  0
 18 19  1  0  0  0  0
 18 21  1  0  0  0  0
 18 23  1  0  0  0  0
 19 20  2  0  0  0  0
 19 27  1  0  0  0  0
 21 24  1  0  0  0  0
 21 25  1  0  0  0  0
 21 26  1  0  0  0  0
 27 28  1  0  0  0  0
 27 32  1  0  0  0  0
 28 29  1  0  0  0  0
 28 31  1  0  0  0  0
 28 33  1  0  0  0  0
 29 30  2  0  0  0  0
 29 37  1  0  0  0  0
 31 34  1  0  0  0  0
 31 35  1  0  0  0  0
 31 36  1  0  0  0  0
 37 38  1  0  0  0  0
 37 39  1  0  0  0  0
 38 40  1  0  0  0  0
 38 41  1  0  0  0  0
 38 42  1  0  0  0  0
M  END
$$$$

  -OEChem-05262215353D

 42 41  0     1  0  0  0  0  0999 V2000
   -5.3825   -0.5143    1.5651 C   0  0  0  0  0  0  0  0  0  0  0  0
   -5.7806    0.2880    0.7353 O   0  0  0  0  0  0  0  0  0  0  0  0
   -6.3559   -1.4816    2.2126 C   0  0  0  0  0  0  0  0  0  0  0  0
   -6.3692   -1.3282    3.2943 H   0  0  0  0  0  0  0  0  0  0  0  0
   -7.3645   -1.3212    1.8212 H   0  0  0  0  0  0  0  0  0  0  0  0
   -6.0558   -2.5107    2.0010 H   0  0  0  0  0  0  0  0  0  0  0  0
   -4.0494   -0.5505    1.9143 N   0  0  0  0  0  0  0  0  0  0  0  0
   -2.9947    0.2248    1.2481 C   0  0  2  0  0  0  0  0  0  0  0  0
   -1.6421   -0.5192    1.2711 C   0  0  0  0  0  0  0  0  0  0  0  0
   -1.5166   -1.5662    1.8990 O   0  0  0  0  0  0  0  0  0  0  0  0
   -2.8776    1.5861    1.9431 C   0  0  0  0  0  0  0  0  0  0  0  0
   -3.7415   -1.3229    2.5039 H   0  0  0  0  0  0  0  0  0  0  0  0
   -3.2593    0.3822    0.1968 H   0  0  0  0  0  0  0  0  0  0  0  0
   -2.5836    1.4591    2.9899 H   0  0  0  0  0  0  0  0  0  0  0  0
   -2.1302    2.2107    1.4443 H   0  0  0  0  0  0  0  0  0  0  0  0
   -3.8375    2.1111    1.9111 H   0  0  0  0  0  0  0  0  0  0  0  0
   -0.5641   -0.0097    0.5769 N   0  0  0  0  0  0  0  0  0  0  0  0
    0.8079   -0.5313    0.6506 C   0  0  2  0  0  0  0  0  0  0  0  0
    1.7898    0.6292    0.4096 C   0  0  0  0  0  0  0  0  0  0  0  0
    2.1962    1.2981    1.3508 O   0  0  0  0  0  0  0  0  0  0  0  0
    0.9781   -1.6715   -0.3609 C   0  0  0  0  0  0  0  0  0  0  0  0
   -0.7028    0.9042    0.1318 H   0  0  0  0  0  0  0  0  0  0  0  0
    1.0088   -0.9196    1.6558 H   0  0  0  0  0  0  0  0  0  0  0  0
    0.7118   -1.3448   -1.3705 H   0  0  0  0  0  0  0  0  0  0  0  0
    2.0142   -2.0241   -0.3659 H   0  0  0  0  0  0  0  0  0  0  0  0
    0.3303   -2.5114   -0.0898 H   0  0  0  0  0  0  0  0  0  0  0  0
    1.9495    1.1112   -0.8777 N   0  0  0  0  0  0  0  0  0  0  0  0
    1.9960    2.5652   -1.0869 C   0  0  2  0  0  0  0  0  0  0  0  0
    0.6222    3.2206   -0.7974 C   0  0  0  0  0  0  0  0  0  0  0  0
   -0.4069    2.5482   -0.8451 O   0  0  0  0  0  0  0  0  0  0  0  0
    2.4205    2.8222   -2.5341 C   0  0  0  0  0  0  0  0  0  0  0  0
    1.4066    0.5931   -1.5630 H   0  0  0  0  0  0  0  0  0  0  0  0
    2.7425    3.0126   -0.4214 H   0  0  0  0  0  0  0  0  0  0  0  0
    1.6864    2.4051   -3.2312 H   0  0  0  0  0  0  0  0  0  0  0  0
    2.5055    3.8970   -2.7217 H   0  0  0  0  0  0  0  0  0  0  0  0
    3.3926    2.3593   -2.7318 H   0  0  0  0  0  0  0  0  0  0  0  0
    0.5357    4.5579   -0.4603 N   0  0  0  0  0  0  0  0  0  0  0  0
   -0.7123    5.1986   -0.0608 C   0  0  0  0  0  0  0  0  0  0  0  0
    1.4080    5.0591   -0.3178 H   0  0  0  0  0  0  0  0  0  0  0  0
   -1.4642    5.1037   -0.8514 H   0  0  0  0  0  0  0  0  0  0  0  0
   -1.1028    4.7400    0.8539 H   0  0  0  0  0  0  0  0  0  0  0  0
   -0.5472    6.2634    0.1295 H   0  0  0  0  0  0  0  0  0  0  0  0
  1  2  2  0  0  0  0
  1  3  1  0  0  0  0
  1  7  1  0  0  0  0
  3  4  1  0  0  0  0
  3  5  1  0  0  0  0
  3  6  1  0  0  0  0
  7  8  1  0  0  0  0
  7 12  1  0  0  0  0
  8  9  1  0  0  0  0
  8 11  1  0  0  0  0
  8 13  1  0  0  0  0
  9 10  2  0  0  0  0
  9 17  1  0  0  0  0
 11 14  1  0  0  0  0
 11 15  1  0  0  0  0
 11 16  1  0  0  0  0
 17 18  1  0  0  0  0
 17 22  1  0  0  0  0
 18 19  1  0  0  0  0
 18 21  1  0  0  0  0
 18 23  1  0  0  0  0
 19 20  2  0  0  0  0
 19 27  1  0  0  0  0
 21 24  1  0  0  0  0
 21 25  1  0  0  0  0
 21 26  1  0  0  0  0
 27 28  1  0  0  0  0
 27 32  1  0  0  0  0
 28 29  1  0  0  0  0
 28 31  1  0  0  0  0
 28 33  1  0  0  0  0
 29 30  2  0  0  0  0
 29 37  1  0  0  0  0
 31 34  1  0  0  0  0
 31 35  1  0  0  0  0
 31 36  1  0  0  0  0
 37 38  1  0  0  0  0
 37 39  1  0  0  0  0
 38 40  1  0  0  0  0
 38 41  1  0  0  0  0
 38 42  1  0  0  0  0
M  END
$$$$

  -OEChem-05262215353D

 42 41  0     1  0  0  0  0  0999 V2000
   -5.4552   -0.5045    1.6424 C   0  0  0  0  0  0  0  0  0  0  0  0
   -5.8672    0.4122    0.9493 O   0  0  0  0  0  0  0  0  0  0  0  0
   -6.4253   -1.5236    2.2099 C   0  0  0  0  0  0  0  0  0  0  0  0
   -6.4177   -1.4765    3.3015 H   0  0  0  0  0  0  0  0  0  0  0  0
   -7.4389   -1.3180    1.8546 H   0  0  0  0  0  0  0  0  0  0  0  0
   -6.1388   -2.5296    1.8939 H   0  0  0  0  0  0  0  0  0  0  0  0
   -4.1087   -0.6195    1.9130 N   0  0  0  0  0  0  0  0  0  0  0  0
   -3.0620    0.2277    1.3264 C   0  0  2  0  0  0  0  0  0  0  0  0
   -1.7165   -0.5235    1.2317 C   0  0  0  0  0  0  0  0  0  0  0  0
   -1.5758   -1.6107    1.7836 O   0  0  0  0  0  0  0  0  0  0  0  0
   -2.9158    1.4860    2.1891 C   0  0  0  0  0  0  0  0  0  0  0  0
   -3.7963   -1.4607    2.3967 H   0  0  0  0  0  0  0  0  0  0  0  0
   -3.3471    0.5184    0.3094 H   0  0  0  0  0  0  0  0  0  0  0  0
   -2.6247    1.2185    3.2098 H   0  0  0  0  0  0  0  0  0  0  0  0
   -2.1551    2.1528    1.7735 H   0  0  0  0  0  0  0  0  0  0  0  0
   -3.8635    2.0320    2.2276 H   0  0  0  0  0  0  0  0  0  0  0  0
   -0.6598    0.0242    0.5307 N   0  0  0  0  0  0  0  0  0  0  0  0
    0.7203   -0.4849    0.6036 C   0  0  2  0  0  0  0  0  0  0  0  0
    1.7153    0.6661    0.3770 C   0  0  0  0  0  0  0  0  0  0  0  0
    2.3214    1.1528    1.3216 O   0  0  0  0  0  0  0  0  0  0  0  0
    0.9079   -1.5996   -0.4310 C   0  0  0  0  0  0  0  0  0  0  0  0
   -0.7967    0.9899    0.2115 H   0  0  0  0  0  0  0  0  0  0  0  0
    0.9173   -0.8925    1.6022 H   0  0  0  0  0  0  0  0  0  0  0  0
    0.6758   -1.2425   -1.4387 H   0  0  0  0  0  0  0  0  0  0  0  0
    1.9409   -1.9605   -0.4150 H   0  0  0  0  0  0  0  0  0  0  0  0
    0.2469   -2.4412   -0.2016 H   0  0  0  0  0  0  0  0  0  0  0  0
    1.6608    1.3564   -0.8209 N   0  0  0  0  0  0  0  0  0  0  0  0
    1.7533    2.8223   -0.8186 C   0  0  2  0  0  0  0  0  0  0  0  0
    0.4294    3.4551   -0.3288 C   0  0  0  0  0  0  0  0  0  0  0  0
   -0.6168    2.8109   -0.3898 O   0  0  0  0  0  0  0  0  0  0  0  0
    2.0755    3.2803   -2.2420 C   0  0  0  0  0  0  0  0  0  0  0  0
    0.9839    0.9671   -1.4722 H   0  0  0  0  0  0  0  0  0  0  0  0
    2.5633    3.1500   -0.1578 H   0  0  0  0  0  0  0  0  0  0  0  0
    1.2767    2.9863   -2.9304 H   0  0  0  0  0  0  0  0  0  0  0  0
    2.1821    4.3689   -2.2784 H   0  0  0  0  0  0  0  0  0  0  0  0
    3.0134    2.8299   -2.5820 H   0  0  0  0  0  0  0  0  0  0  0  0
    0.4070    4.7336    0.1947 N   0  0  0  0  0  0  0  0  0  0  0  0
   -0.7924    5.3438    0.7570 C   0  0  0  0  0  0  0  0  0  0  0  0
    1.2999    5.2011    0.3253 H   0  0  0  0  0  0  0  0  0  0  0  0
   -1.5891    5.3898    0.0069 H   0  0  0  0  0  0  0  0  0  0  0  0
   -1.1500    4.7660    1.6160 H   0  0  0  0  0  0  0  0  0  0  0  0
   -0.5759    6.3631    1.0912 H   0  0  0  0  0  0  0  0  0  0  0  0
  1  2  2  0  0  0  0
  1  3  1  0  0  0  0
  1  7  1  0  0  0  0
  3  4  1  0  0  0  0
  3  5  1  0  0  0  0
  3  6  1  0  0  0  0
  7  8  1  0  0  0  0
  7 12  1  0  0  0  0
  8  9  1  0  0  0  0
  8 11  1  0  0  0  0
  8 13  1  0  0  0  0
  9 10  2  0  0  0  0
  9 17  1  0  0  0  0
 11 14  1  0  0  0  0
 11 15  1  0  0  0  0
 11 16  1  0  0  0  0
 17 18  1  0  0  0  0
 17 22  1  0  0  0  0
 18 19  1  0  0  0  0
 18 21  1  0  0  0  0
 18 23  1  0  0  0  0
 19 20  2  0  0  0  0
 19 27  1  0  0  0  0
 21 24  1  0  0  0  0
 21 25  1  0  0  0  0
 21 26  1  0  0  0  0
 27 28  1  0  0  0  0
 27 32  1  0  0  0  0
 28 29  1  0  0  0  0
 28 31  1  0  0  0  0
 28 33  1  0  0  0  0
 29 30  2  0  0  0  0
 29 37  1  0  0  0  0
 31 34  1  0  0  0  0
 31 35  1  0  0  0  0
 31 36  1  0  0  0  0
 37 38  1  0  0  0  0
 37 39  1  0  0  0  0
 38 40  1  0  0  0  0
 38 41  1  0  0  0  0
 38 42  1  0  0  0  0
M  END
$$$$

  -OEChem-05262215353D

 42 41  0     1  0  0  0  0  0999 V2000
   -5.4514   -0.4588    1.7017 C   0  0  0  0  0  0  0  0  0  0  0  0
   -5.8307    0.5415    1.1136 O   0  0  0  0  0  0  0  0  0  0  0  0
   -6.4482   -1.5319    2.0967 C   0  0  0  0  0  0  0  0  0  0  0  0
   -6.4900   -1.6188    3.1852 H   0  0  0  0  0  0  0  0  0  0  0  0
   -7.4439   -1.2763    1.7239 H   0  0  0  0  0  0  0  0  0  0  0  0
   -6.1504   -2.4936    1.6721 H   0  0  0  0  0  0  0  0  0  0  0  0
   -4.1169   -0.6216    2.0056 N   0  0  0  0  0  0  0  0  0  0  0  0
   -3.0433    0.2755    1.5590 C   0  0  2  0  0  0  0  0  0  0  0  0
   -1.7276   -0.4977    1.3284 C   0  0  0  0  0  0  0  0  0  0  0  0
   -1.5752   -1.6131    1.8168 O   0  0  0  0  0  0  0  0  0  0  0  0
   -2.8523    1.3615    2.6220 C   0  0  0  0  0  0  0  0  0  0  0  0
   -3.8291   -1.5187    2.3948 H   0  0  0  0  0  0  0  0  0  0  0  0
   -3.3186    0.7464    0.6088 H   0  0  0  0  0  0  0  0  0  0  0  0
   -2.5804    0.9132    3.5827 H   0  0  0  0  0  0  0  0  0  0  0  0
   -2.0612    2.0561    2.3263 H   0  0  0  0  0  0  0  0  0  0  0  0
   -3.7781    1.9309    2.7509 H   0  0  0  0  0  0  0  0  0  0  0  0
   -0.7166    0.0585    0.5684 N   0  0  0  0  0  0  0  0  0  0  0  0
    0.6673   -0.4527    0.5809 C   0  0  2  0  0  0  0  0  0  0  0  0
    1.6667    0.6836    0.3016 C   0  0  0  0  0  0  0  0  0  0  0  0
    2.5014    0.9922    1.1404 O   0  0  0  0  0  0  0  0  0  0  0  0
    0.8070   -1.5622   -0.4665 C   0  0  0  0  0  0  0  0  0  0  0  0
   -0.8496    1.0540    0.3593 H   0  0  0  0  0  0  0  0  0  0  0  0
    0.9065   -0.8633    1.5690 H   0  0  0  0  0  0  0  0  0  0  0  0
    0.5484   -1.1920   -1.4632 H   0  0  0  0  0  0  0  0  0  0  0  0
    1.8355   -1.9361   -0.4874 H   0  0  0  0  0  0  0  0  0  0  0  0
    0.1434   -2.3980   -0.2237 H   0  0  0  0  0  0  0  0  0  0  0  0
    1.3841    1.5602   -0.7306 N   0  0  0  0  0  0  0  0  0  0  0  0
    1.5335    3.0081   -0.5381 C   0  0  2  0  0  0  0  0  0  0  0  0
    0.2846    3.5909    0.1619 C   0  0  0  0  0  0  0  0  0  0  0  0
   -0.7737    2.9645    0.1382 O   0  0  0  0  0  0  0  0  0  0  0  0
    1.7350    3.6483   -1.9124 C   0  0  0  0  0  0  0  0  0  0  0  0
    0.5741    1.2802   -1.2786 H   0  0  0  0  0  0  0  0  0  0  0  0
    2.4129    3.2265    0.0775 H   0  0  0  0  0  0  0  0  0  0  0  0
    0.8671    3.4642   -2.5539 H   0  0  0  0  0  0  0  0  0  0  0  0
    1.8718    4.7295   -1.8142 H   0  0  0  0  0  0  0  0  0  0  0  0
    2.6228    3.2302   -2.3973 H   0  0  0  0  0  0  0  0  0  0  0  0
    0.3431    4.7982    0.8310 N   0  0  0  0  0  0  0  0  0  0  0  0
   -0.7863    5.3646    1.5596 C   0  0  0  0  0  0  0  0  0  0  0  0
    1.2485    5.2550    0.8974 H   0  0  0  0  0  0  0  0  0  0  0  0
   -1.6207    5.5635    0.8789 H   0  0  0  0  0  0  0  0  0  0  0  0
   -1.1252    4.6757    2.3405 H   0  0  0  0  0  0  0  0  0  0  0  0
   -0.4965    6.3073    2.0341 H   0  0  0  0  0  0  0  0  0  0  0  0
  1  2  2  0  0  0  0
  1  3  1  0  0  0  0
  1  7  1  0  0  0  0
  3  4  1  0  0  0  0
  3  5  1  0  0  0  0
  3  6  1  0  0  0  0
  7  8  1  0  0  0  0
  7 12  1  0  0  0  0
  8  9  1  0  0  0  0
  8 11  1  0  0  0  0
  8 13  1  0  0  0  0
  9 10  2  0  0  0  0
  9 17  1  0  0  0  0
 11 14  1  0  0  0  0
 11 15  1  0  0  0  0
 11 16  1  0  0  0  0
 17 18  1  0  0  0  0
 17 22  1  0  0  0  0
 18 19  1  0  0  0  0
 18 21  1  0  0  0  0
 18 23  1  0  0  0  0
 19 20  2  0  0  0  0
 19 27  1  0  0  0  0
 21 24  1  0  0  0  0
 21 25  1  0  0  0  0
 21 26  1  0  0  0  0
 27 28  1  0  0  0  0
 27 32  1  0  0  0  0
 28 29  1  0  0  0  0
 28 31  1  0  0  0  0
 28 33  1  0  0  0  0
 29 30  2  0  0  0  0
 29 37  1  0  0  0  0
 31 34  1  0  0  0  0
 31 35  1  0  0  0  0
 31 36  1  0  0  0  0
 37 38  1  0  0  0  0
 37 39  1  0  0  0  0
 38 40  1  0  0  0  0
 38 41  1  0  0  0  0
 38 42  1  0  0  0  0
M  END
$$$$

  -OEChem-05262215353D

 42 41  0     1  0  0  0  0  0999 V2000
   -5.3780   -0.5015    1.7052 C   0  0  0  0  0  0  0  0  0  0  0  0
   -5.7059    0.4328    0.9914 O   0  0  0  0  0  0  0  0  0  0  0  0
   -6.3661   -1.6170    1.9911 C   0  0  0  0  0  0  0  0  0  0  0  0
   -6.5760   -1.6645    3.0623 H   0  0  0  0  0  0  0  0  0  0  0  0
   -7.3028   -1.4375    1.4559 H   0  0  0  0  0  0  0  0  0  0  0  0
   -5.9529   -2.5746    1.6654 H   0  0  0  0  0  0  0  0  0  0  0  0
   -4.1134   -0.5564    2.2524 N   0  0  0  0  0  0  0  0  0  0  0  0
   -3.0087    0.3396    1.8819 C   0  0  2  0  0  0  0  0  0  0  0  0
   -1.7549   -0.4593    1.4688 C   0  0  0  0  0  0  0  0  0  0  0  0
   -1.5798   -1.5911    1.9090 O   0  0  0  0  0  0  0  0  0  0  0  0
   -2.7079    1.2296    3.0903 C   0  0  0  0  0  0  0  0  0  0  0  0
   -3.8489   -1.4355    2.6939 H   0  0  0  0  0  0  0  0  0  0  0  0
   -3.2892    0.9744    1.0346 H   0  0  0  0  0  0  0  0  0  0  0  0
   -2.4274    0.6205    3.9554 H   0  0  0  0  0  0  0  0  0  0  0  0
   -1.8858    1.9159    2.8689 H   0  0  0  0  0  0  0  0  0  0  0  0
   -3.5911    1.8216    3.3498 H   0  0  0  0  0  0  0  0  0  0  0  0
   -0.8149    0.1012    0.6238 N   0  0  0  0  0  0  0  0  0  0  0  0
    0.5586   -0.4325    0.5133 C   0  0  2  0  0  0  0  0  0  0  0  0
    1.5747    0.6700    0.1583 C   0  0  0  0  0  0  0  0  0  0  0  0
    2.6170    0.7673    0.7897 O   0  0  0  0  0  0  0  0  0  0  0  0
    0.5806   -1.5232   -0.5622 C   0  0  0  0  0  0  0  0  0  0  0  0
   -0.9330    1.1129    0.5093 H   0  0  0  0  0  0  0  0  0  0  0  0
    0.8697   -0.8665    1.4709 H   0  0  0  0  0  0  0  0  0  0  0  0
    0.2636   -1.1203   -1.5288 H   0  0  0  0  0  0  0  0  0  0  0  0
    1.5907   -1.9317   -0.6678 H   0  0  0  0  0  0  0  0  0  0  0  0
   -0.0931   -2.3411   -0.2887 H   0  0  0  0  0  0  0  0  0  0  0  0
    1.1437    1.7421   -0.6012 N   0  0  0  0  0  0  0  0  0  0  0  0
    1.4113    3.1248   -0.1863 C   0  0  2  0  0  0  0  0  0  0  0  0
    0.2440    3.6520    0.6777 C   0  0  0  0  0  0  0  0  0  0  0  0
   -0.8277    3.0478    0.6821 O   0  0  0  0  0  0  0  0  0  0  0  0
    1.5867    3.9717   -1.4483 C   0  0  0  0  0  0  0  0  0  0  0  0
    0.2265    1.5923   -1.0151 H   0  0  0  0  0  0  0  0  0  0  0  0
    2.3322    3.1851    0.4037 H   0  0  0  0  0  0  0  0  0  0  0  0
    0.6744    3.9554   -2.0532 H   0  0  0  0  0  0  0  0  0  0  0  0
    1.8113    5.0097   -1.1849 H   0  0  0  0  0  0  0  0  0  0  0  0
    2.4123    3.5824   -2.0524 H   0  0  0  0  0  0  0  0  0  0  0  0
    0.3892    4.7812    1.4605 N   0  0  0  0  0  0  0  0  0  0  0  0
   -0.6678    5.2996    2.3213 C   0  0  0  0  0  0  0  0  0  0  0  0
    1.3004    5.2313    1.4751 H   0  0  0  0  0  0  0  0  0  0  0  0
   -1.5478    5.5700    1.7282 H   0  0  0  0  0  0  0  0  0  0  0  0
   -0.9606    4.5503    3.0642 H   0  0  0  0  0  0  0  0  0  0  0  0
   -0.3212    6.1925    2.8504 H   0  0  0  0  0  0  0  0  0  0  0  0
  1  2  2  0  0  0  0
  1  3  1  0  0  0  0
  1  7  1  0  0  0  0
  3  4  1  0  0  0  0
  3  5  1  0  0  0  0
  3  6  1  0  0  0  0
  7  8  1  0  0  0  0
  7 12  1  0  0  0  0
  8  9  1  0  0  0  0
  8 11  1  0  0  0  0
  8 13  1  0  0  0  0
  9 10  2  0  0  0  0
  9 17  1  0  0  0  0
 11 14  1  0  0  0  0
 11 15  1  0  0  0  0
 11 16  1  0  0  0  0
 17 18  1  0  0  0  0
 17 22  1  0  0  0  0
 18 19  1  0  0  0  0
 18 21  1  0  0  0  0
 18 23  1  0  0  0  0
 19 20  2  0  0  0  0
 19 27  1  0  0  0  0
 21 24  1  0  0  0  0
 21 25  1  0  0  0  0
 21 26  1  0  0  0  0
 27 28  1  0  0  0  0
 27 32  1  0  0  0  0
 28 29  1  0  0  0  0
 28 31  1  0  0  0  0
 28 33  1  0  0  0  0
 29 30  2  0  0  0  0
 29 37  1  0  0  0  0
 31 34  1  0  0  0  0
 31 35  1  0  0  0  0
 31 36  1  0  0  0  0
 37 38  1  0  0  0  0
 37 39  1  0  0  0  0
 38 40  1  0  0  0  0
 38 41  1  0  0  0  0
 38 42  1  0  0  0  0
M  END
$$$$

  -OEChem-05262215353D

 42 41  0     1  0  0  0  0  0999 V2000
   -5.6525   -1.6352    1.7807 C   0  0  0  0  0  0  0  0  0  0  0  0
   -6.2090   -0.7906    1.0968 O   0  0  0  0  0  0  0  0  0  0  0  0
   -6.3353   -2.9612    2.0584 C   0  0  0  0  0  0  0  0  0  0  0  0
   -6.4769   -3.0894    3.1341 H   0  0  0  0  0  0  0  0  0  0  0  0
   -7.3121   -2.9929    1.5681 H   0  0  0  0  0  0  0  0  0  0  0  0
   -5.7237   -3.7830    1.6779 H   0  0  0  0  0  0  0  0  0  0  0  0
   -4.3939   -1.3963    2.2909 N   0  0  0  0  0  0  0  0  0  0  0  0
   -3.5497   -0.2557    1.9102 C   0  0  2  0  0  0  0  0  0  0  0  0
   -2.0983   -0.6981    1.6268 C   0  0  0  0  0  0  0  0  0  0  0  0
   -1.7121   -1.8038    1.9886 O   0  0  0  0  0  0  0  0  0  0  0  0
   -3.5906    0.7677    3.0481 C   0  0  0  0  0  0  0  0  0  0  0  0
   -3.9134   -2.1918    2.7099 H   0  0  0  0  0  0  0  0  0  0  0  0
   -3.9324    0.2110    0.9963 H   0  0  0  0  0  0  0  0  0  0  0  0
   -3.1937    0.3311    3.9702 H   0  0  0  0  0  0  0  0  0  0  0  0
   -2.9941    1.6500    2.7955 H   0  0  0  0  0  0  0  0  0  0  0  0
   -4.6213    1.0890    3.2297 H   0  0  0  0  0  0  0  0  0  0  0  0
   -1.2291    0.1464    0.9582 N   0  0  0  0  0  0  0  0  0  0  0  0
    0.1109   -0.2631    0.4921 C   0  0  2  0  0  0  0  0  0  0  0  0
    1.1345    0.8923    0.4632 C   0  0  0  0  0  0  0  0  0  0  0  0
    2.3210    0.6627    0.2738 O   0  0  0  0  0  0  0  0  0  0  0  0
   -0.0362   -0.8842   -0.9011 C   0  0  0  0  0  0  0  0  0  0  0  0
   -1.6510    0.9716    0.5417 H   0  0  0  0  0  0  0  0  0  0  0  0
    0.5243   -1.0169    1.1721 H   0  0  0  0  0  0  0  0  0  0  0  0
   -0.4388   -0.1532   -1.6092 H   0  0  0  0  0  0  0  0  0  0  0  0
    0.9370   -1.2253   -1.2692 H   0  0  0  0  0  0  0  0  0  0  0  0
   -0.7095   -1.7465   -0.8645 H   0  0  0  0  0  0  0  0  0  0  0  0
    0.7148    2.2063    0.5478 N   0  0  0  0  0  0  0  0  0  0  0  0
    1.6147    3.3595    0.6570 C   0  0  2  0  0  0  0  0  0  0  0  0
    0.9627    4.4703    1.5071 C   0  0  0  0  0  0  0  0  0  0  0  0
   -0.2149    4.3714    1.8409 O   0  0  0  0  0  0  0  0  0  0  0  0
    1.9369    3.8636   -0.7532 C   0  0  0  0  0  0  0  0  0  0  0  0
   -0.2283    2.3564    0.9007 H   0  0  0  0  0  0  0  0  0  0  0  0
    2.5436    3.0632    1.1564 H   0  0  0  0  0  0  0  0  0  0  0  0
    1.0224    4.1796   -1.2653 H   0  0  0  0  0  0  0  0  0  0  0  0
    2.6254    4.7128   -0.7114 H   0  0  0  0  0  0  0  0  0  0  0  0
    2.4081    3.0686   -1.3403 H   0  0  0  0  0  0  0  0  0  0  0  0
    1.6971    5.5651    1.9218 N   0  0  0  0  0  0  0  0  0  0  0  0
    1.1516    6.6195    2.7676 C   0  0  0  0  0  0  0  0  0  0  0  0
    2.6776    5.6028    1.6580 H   0  0  0  0  0  0  0  0  0  0  0  0
    0.2702    7.0707    2.2998 H   0  0  0  0  0  0  0  0  0  0  0  0
    0.8642    6.2161    3.7441 H   0  0  0  0  0  0  0  0  0  0  0  0
    1.8981    7.4041    2.9228 H   0  0  0  0  0  0  0  0  0  0  0  0
  1  2  2  0  0  0  0
  1  3  1  0  0  0  0
  1  7  1  0  0  0  0
  3  4  1  0  0  0  0
  3  5  1  0  0  0  0
  3  6  1  0  0  0  0
  7  8  1  0  0  0  0
  7 12  1  0  0  0  0
  8  9  1  0  0  0  0
  8 11  1  0  0  0  0
  8 13  1  0  0  0  0
  9 10  2  0  0  0  0
  9 17  1  0  0  0  0
 11 14  1  0  0  0  0
 11 15  1  0  0  0  0
 11 16  1  0  0  0  0
 17 18  1  0  0  0  0
 17 22  1  0  0  0  0
 18 19  1  0  0  0  0
 18 21  1  0  0  0  0
 18 23  1  0  0  0  0
 19 20  2  0  0  0  0
 19 27  1  0  0  0  0
 21 24  1  0  0  0  0
 21 25  1  0  0  0  0
 21 26  1  0  0  0  0
 27 28  1  0  0  0  0
 27 32  1  0  0  0  0
 28 29  1  0  0  0  0
 28 31  1  0  0  0  0
 28 33  1  0  0  0  0
 29 30  2  0  0  0  0
 29 37  1  0  0  0  0
 31 34  1  0  0  0  0
 31 35  1  0  0  0  0
 31 36  1  0  0  0  0
 37 38  1  0  0  0  0
 37 39  1  0  0  0  0
 38 40  1  0  0  0  0
 38 41  1  0  0  0  0
 38 42  1  0  0  0  0
M  END
$$$$

  -OEChem-05262215353D

 42 41  0     1  0  0  0  0  0999 V2000
   -5.6624   -1.4949    1.7385 C   0  0  0  0  0  0  0  0  0  0  0  0
   -6.1786   -0.5768    1.1209 O   0  0  0  0  0  0  0  0  0  0  0  0
   -6.4167   -2.7954    1.9406 C   0  0  0  0  0  0  0  0  0  0  0  0
   -6.5066   -3.0124    3.0075 H   0  0  0  0  0  0  0  0  0  0  0  0
   -7.4194   -2.7213    1.5106 H   0  0  0  0  0  0  0  0  0  0  0  0
   -5.8840   -3.6153    1.4529 H   0  0  0  0  0  0  0  0  0  0  0  0
   -4.3870   -1.3595    2.2444 N   0  0  0  0  0  0  0  0  0  0  0  0
   -3.4937   -0.2328    1.9449 C   0  0  2  0  0  0  0  0  0  0  0  0
   -2.0619   -0.7124    1.6281 C   0  0  0  0  0  0  0  0  0  0  0  0
   -1.7022   -1.8373    1.9554 O   0  0  0  0  0  0  0  0  0  0  0  0
   -3.4919    0.7075    3.1537 C   0  0  0  0  0  0  0  0  0  0  0  0
   -3.9467   -2.2024    2.6115 H   0  0  0  0  0  0  0  0  0  0  0  0
   -3.8555    0.3129    1.0670 H   0  0  0  0  0  0  0  0  0  0  0  0
   -3.1192    0.1882    4.0426 H   0  0  0  0  0  0  0  0  0  0  0  0
   -2.8546    1.5776    2.9669 H   0  0  0  0  0  0  0  0  0  0  0  0
   -4.5074    1.0621    3.3573 H   0  0  0  0  0  0  0  0  0  0  0  0
   -1.1775    0.1257    0.9727 N   0  0  0  0  0  0  0  0  0  0  0  0
    0.1576   -0.2914    0.5020 C   0  0  2  0  0  0  0  0  0  0  0  0
    1.1800    0.8663    0.4981 C   0  0  0  0  0  0  0  0  0  0  0  0
    2.3122    0.7039    0.0641 O   0  0  0  0  0  0  0  0  0  0  0  0
    0.0034   -0.9021   -0.8960 C   0  0  0  0  0  0  0  0  0  0  0  0
   -1.5750    0.9780    0.5863 H   0  0  0  0  0  0  0  0  0  0  0  0
    0.5647   -1.0540    1.1751 H   0  0  0  0  0  0  0  0  0  0  0  0
   -0.3688   -0.1558   -1.6045 H   0  0  0  0  0  0  0  0  0  0  0  0
    0.9679   -1.2737   -1.2573 H   0  0  0  0  0  0  0  0  0  0  0  0
   -0.6978   -1.7423   -0.8693 H   0  0  0  0  0  0  0  0  0  0  0  0
    0.7975    2.1287    0.9104 N   0  0  0  0  0  0  0  0  0  0  0  0
    1.7083    3.2685    1.0621 C   0  0  2  0  0  0  0  0  0  0  0  0
    1.2115    4.2162    2.1747 C   0  0  0  0  0  0  0  0  0  0  0  0
    0.1013    4.0464    2.6707 O   0  0  0  0  0  0  0  0  0  0  0  0
    1.7986    4.0045   -0.2788 C   0  0  0  0  0  0  0  0  0  0  0  0
   -0.0661    2.1809    1.4492 H   0  0  0  0  0  0  0  0  0  0  0  0
    2.7039    2.9130    1.3491 H   0  0  0  0  0  0  0  0  0  0  0  0
    0.8144    4.3806   -0.5761 H   0  0  0  0  0  0  0  0  0  0  0  0
    2.4892    4.8502   -0.2085 H   0  0  0  0  0  0  0  0  0  0  0  0
    2.1628    3.3281   -1.0588 H   0  0  0  0  0  0  0  0  0  0  0  0
    2.0075    5.2510    2.6291 N   0  0  0  0  0  0  0  0  0  0  0  0
    1.5956    6.1771    3.6770 C   0  0  0  0  0  0  0  0  0  0  0  0
    2.9281    5.3562    2.2124 H   0  0  0  0  0  0  0  0  0  0  0  0
    0.6768    6.6984    3.3882 H   0  0  0  0  0  0  0  0  0  0  0  0
    1.4167    5.6405    4.6145 H   0  0  0  0  0  0  0  0  0  0  0  0
    2.3760    6.9243    3.8507 H   0  0  0  0  0  0  0  0  0  0  0  0
  1  2  2  0  0  0  0
  1  3  1  0  0  0  0
  1  7  1  0  0  0  0
  3  4  1  0  0  0  0
  3  5  1  0  0  0  0
  3  6  1  0  0  0  0
  7  8  1  0  0  0  0
  7 12  1  0  0  0  0
  8  9  1  0  0  0  0
  8 11  1  0  0  0  0
  8 13  1  0  0  0  0
  9 10  2  0  0  0  0
  9 17  1  0  0  0  0
 11 14  1  0  0  0  0
 11 15  1  0  0  0  0
 11 16  1  0  0  0  0
 17 18  1  0  0  0  0
 17 22  1  0  0  0  0
 18 19  1  0  0  0  0
 18 21  1  0  0  0  0
 18 23  1  0  0  0  0
 19 20  2  0  0  0  0
 19 27  1  0  0  0  0
 21 24  1  0  0  0  0
 21 25  1  0  0  0  0
 21 26  1  0  0  0  0
 27 28  1  0  0  0  0
 27 32  1  0  0  0  0
 28 29  1  0  0  0  0
 28 31  1  0  0  0  0
 28 33  1  0  0  0  0
 29 30  2  0  0  0  0
 29 37  1  0  0  0  0
 31 34  1  0  0  0  0
 31 35  1  0  0  0  0
 31 36  1  0  0  0  0
 37 38  1  0  0  0  0
 37 39  1  0  0  0  0
 38 40  1  0  0  0  0
 38 41  1  0  0  0  0
 38 42  1  0  0  0  0
M  END
$$$$

  -OEChem-05262215353D

 42 41  0     1  0  0  0  0  0999 V2000
   -5.6727   -1.3790    1.7621 C   0  0  0  0  0  0  0  0  0  0  0  0
   -6.1789   -0.4112    1.2165 O   0  0  0  0  0  0  0  0  0  0  0  0
   -6.4628   -2.6654    1.9138 C   0  0  0  0  0  0  0  0  0  0  0  0
   -6.5271   -2.9419    2.9690 H   0  0  0  0  0  0  0  0  0  0  0  0
   -7.4754   -2.5352    1.5217 H   0  0  0  0  0  0  0  0  0  0  0  0
   -5.9728   -3.4716    1.3623 H   0  0  0  0  0  0  0  0  0  0  0  0
   -4.3765   -1.3127    2.2278 N   0  0  0  0  0  0  0  0  0  0  0  0
   -3.4560   -0.2003    1.9564 C   0  0  2  0  0  0  0  0  0  0  0  0
   -2.0420   -0.7090    1.6065 C   0  0  0  0  0  0  0  0  0  0  0  0
   -1.7108   -1.8533    1.8947 O   0  0  0  0  0  0  0  0  0  0  0  0
   -3.4112    0.6984    3.1954 C   0  0  0  0  0  0  0  0  0  0  0  0
   -3.9533   -2.1872    2.5369 H   0  0  0  0  0  0  0  0  0  0  0  0
   -3.8135    0.3848    1.1023 H   0  0  0  0  0  0  0  0  0  0  0  0
   -3.0405    0.1397    4.0610 H   0  0  0  0  0  0  0  0  0  0  0  0
   -2.7524    1.5559    3.0268 H   0  0  0  0  0  0  0  0  0  0  0  0
   -4.4130    1.0744    3.4260 H   0  0  0  0  0  0  0  0  0  0  0  0
   -1.1377    0.1224    0.9698 N   0  0  0  0  0  0  0  0  0  0  0  0
    0.1914   -0.3104    0.4974 C   0  0  2  0  0  0  0  0  0  0  0  0
    1.2269    0.8365    0.5225 C   0  0  0  0  0  0  0  0  0  0  0  0
    2.2701    0.7679   -0.1133 O   0  0  0  0  0  0  0  0  0  0  0  0
    0.0268   -0.8953   -0.9111 C   0  0  0  0  0  0  0  0  0  0  0  0
   -1.4975    1.0139    0.6380 H   0  0  0  0  0  0  0  0  0  0  0  0
    0.5828   -1.0916    1.1586 H   0  0  0  0  0  0  0  0  0  0  0  0
   -0.3211   -0.1266   -1.6080 H   0  0  0  0  0  0  0  0  0  0  0  0
    0.9816   -1.2881   -1.2749 H   0  0  0  0  0  0  0  0  0  0  0  0
   -0.6976   -1.7156   -0.9018 H   0  0  0  0  0  0  0  0  0  0  0  0
    0.9545    1.9894    1.2337 N   0  0  0  0  0  0  0  0  0  0  0  0
    1.8856    3.1091    1.4113 C   0  0  2  0  0  0  0  0  0  0  0  0
    1.5734    3.8805    2.7114 C   0  0  0  0  0  0  0  0  0  0  0  0
    0.5395    3.6446    3.3294 O   0  0  0  0  0  0  0  0  0  0  0  0
    1.7784    4.0360    0.1950 C   0  0  0  0  0  0  0  0  0  0  0  0
    0.1774    1.9434    1.8924 H   0  0  0  0  0  0  0  0  0  0  0  0
    2.9095    2.7279    1.4881 H   0  0  0  0  0  0  0  0  0  0  0  0
    0.7599    4.4261    0.0992 H   0  0  0  0  0  0  0  0  0  0  0  0
    2.4676    4.8804    0.2910 H   0  0  0  0  0  0  0  0  0  0  0  0
    2.0301    3.4915   -0.7209 H   0  0  0  0  0  0  0  0  0  0  0  0
    2.4527    4.8308    3.1964 N   0  0  0  0  0  0  0  0  0  0  0  0
    2.2204    5.5845    4.4228 C   0  0  0  0  0  0  0  0  0  0  0  0
    3.3072    4.9945    2.6717 H   0  0  0  0  0  0  0  0  0  0  0  0
    1.2821    6.1451    4.3567 H   0  0  0  0  0  0  0  0  0  0  0  0
    2.1678    4.9099    5.2836 H   0  0  0  0  0  0  0  0  0  0  0  0
    3.0352    6.2954    4.5901 H   0  0  0  0  0  0  0  0  0  0  0  0
  1  2  2  0  0  0  0
  1  3  1  0  0  0  0
  1  7  1  0  0  0  0
  3  4  1  0  0  0  0
  3  5  1  0  0  0  0
  3  6  1  0  0  0  0
  7  8  1  0  0  0  0
  7 12  1  0  0  0  0
  8  9  1  0  0  0  0
  8 11  1  0  0  0  0
  8 13  1  0  0  0  0
  9 10  2  0  0  0  0
  9 17  1  0  0  0  0
 11 14  1  0  0  0  0
 11 15  1  0  0  0  0
 11 16  1  0  0  0  0
 17 18  1  0  0  0  0
 17 22  1  0  0  0  0
 18 19  1  0  0  0  0
 18 21  1  0  0  0  0
 18 23  1  0  0  0  0
 19 20  2  0  0  0  0
 19 27  1  0  0  0  0
 21 24  1  0  0  0  0
 21 25  1  0  0  0  0
 21 26  1  0  0  0  0
 27 28  1  0  0  0  0
 27 32  1  0  0  0  0
 28 29  1  0  0  0  0
 28 31  1  0  0  0  0
 28 33  1  0  0  0  0
 29 30  2  0  0  0  0
 29 37  1  0  0  0  0
 31 34  1  0  0  0  0
 31 35  1  0  0  0  0
 31 36  1  0  0  0  0
 37 38  1  0  0  0  0
 37 39  1  0  0  0  0
 38 40  1  0  0  0  0
 38 41  1  0  0  0  0
 38 42  1  0  0  0  0
M  END
$$$$

  -OEChem-05262215353D

 42 41  0     1  0  0  0  0  0999 V2000
   -5.6499   -1.2338    1.7847 C   0  0  0  0  0  0  0  0  0  0  0  0
   -6.1230   -0.2087    1.3201 O   0  0  0  0  0  0  0  0  0  0  0  0
   -6.4938   -2.4921    1.8664 C   0  0  0  0  0  0  0  0  0  0  0  0
   -6.5958   -2.8072    2.9076 H   0  0  0  0  0  0  0  0  0  0  0  0
   -7.4898   -2.3050    1.4553 H   0  0  0  0  0  0  0  0  0  0  0  0
   -6.0223   -3.2950    1.2946 H   0  0  0  0  0  0  0  0  0  0  0  0
   -4.3400   -1.2565    2.2151 N   0  0  0  0  0  0  0  0  0  0  0  0
   -3.3813   -0.1642    2.0041 C   0  0  2  0  0  0  0  0  0  0  0  0
   -1.9842   -0.7024    1.6328 C   0  0  0  0  0  0  0  0  0  0  0  0
   -1.6730   -1.8542    1.9129 O   0  0  0  0  0  0  0  0  0  0  0  0
   -3.3150    0.6691    3.2864 C   0  0  0  0  0  0  0  0  0  0  0  0
   -3.9499   -2.1631    2.4707 H   0  0  0  0  0  0  0  0  0  0  0  0
   -3.7148    0.4742    1.1790 H   0  0  0  0  0  0  0  0  0  0  0  0
   -2.9779    0.0529    4.1263 H   0  0  0  0  0  0  0  0  0  0  0  0
   -2.6200    1.5060    3.1673 H   0  0  0  0  0  0  0  0  0  0  0  0
   -4.3040    1.0733    3.5251 H   0  0  0  0  0  0  0  0  0  0  0  0
   -1.0753    0.1087    0.9780 N   0  0  0  0  0  0  0  0  0  0  0  0
    0.2459   -0.3402    0.5027 C   0  0  2  0  0  0  0  0  0  0  0  0
    1.2747    0.8129    0.5116 C   0  0  0  0  0  0  0  0  0  0  0  0
    2.1891    0.8726   -0.2995 O   0  0  0  0  0  0  0  0  0  0  0  0
    0.0658   -0.9553   -0.8918 C   0  0  0  0  0  0  0  0  0  0  0  0
   -1.4096    1.0208    0.6763 H   0  0  0  0  0  0  0  0  0  0  0  0
    0.6408   -1.1093    1.1756 H   0  0  0  0  0  0  0  0  0  0  0  0
   -0.3016   -0.2046   -1.5982 H   0  0  0  0  0  0  0  0  0  0  0  0
    1.0186   -1.3455   -1.2634 H   0  0  0  0  0  0  0  0  0  0  0  0
   -0.6495   -1.7829   -0.8546 H   0  0  0  0  0  0  0  0  0  0  0  0
    1.1445    1.8224    1.4455 N   0  0  0  0  0  0  0  0  0  0  0  0
    2.0892    2.9289    1.6356 C   0  0  2  0  0  0  0  0  0  0  0  0
    2.0061    3.4791    3.0753 C   0  0  0  0  0  0  0  0  0  0  0  0
    1.0789    3.1439    3.8059 O   0  0  0  0  0  0  0  0  0  0  0  0
    1.7704    4.0321    0.6204 C   0  0  0  0  0  0  0  0  0  0  0  0
    0.4674    1.6699    2.1935 H   0  0  0  0  0  0  0  0  0  0  0  0
    3.1114    2.5702    1.4743 H   0  0  0  0  0  0  0  0  0  0  0  0
    0.7518    4.4047    0.7679 H   0  0  0  0  0  0  0  0  0  0  0  0
    2.4669    4.8686    0.7296 H   0  0  0  0  0  0  0  0  0  0  0  0
    1.8561    3.6469   -0.4007 H   0  0  0  0  0  0  0  0  0  0  0  0
    2.9759    4.3370    3.5598 N   0  0  0  0  0  0  0  0  0  0  0  0
    2.9802    4.8484    4.9251 C   0  0  0  0  0  0  0  0  0  0  0  0
    3.7455    4.5764    2.9413 H   0  0  0  0  0  0  0  0  0  0  0  0
    2.0474    5.3804    5.1398 H   0  0  0  0  0  0  0  0  0  0  0  0
    3.0895    4.0267    5.6405 H   0  0  0  0  0  0  0  0  0  0  0  0
    3.8129    5.5439    5.0663 H   0  0  0  0  0  0  0  0  0  0  0  0
  1  2  2  0  0  0  0
  1  3  1  0  0  0  0
  1  7  1  0  0  0  0
  3  4  1  0  0  0  0
  3  5  1  0  0  0  0
  3  6  1  0  0  0  0
  7  8  1  0  0  0  0
  7 12  1  0  0  0  0
  8  9  1  0  0  0  0
  8 11  1  0  0  0  0
  8 13  1  0  0  0  0
  9 10  2  0  0  0  0
  9 17  1  0  0  0  0
 11 14  1  0  0  0  0
 11 15  1  0  0  0  0
 11 16  1  0  0  0  0
 17 18  1  0  0  0  0
 17 22  1  0  0  0  0
 18 19  1  0  0  0  0
 18 21  1  0  0  0  0
 18 23  1  0  0  0  0
 19 20  2  0  0  0  0
 19 27  1  0  0  0  0
 21 24  1  0  0  0  0
 21 25  1  0  0  0  0
 21 26  1  0  0  0  0
 27 28  1  0  0  0  0
 27 32  1  0  0  0  0
 28 29  1  0  0  0  0
 28 31  1  0  0  0  0
 28 33  1  0  0  0  0
 29 30  2  0  0  0  0
 29 37  1  0  0  0  0
 31 34  1  0  0  0  0
 31 35  1  0  0  0  0
 31 36  1  0  0  0  0
 37 38  1  0  0  0  0
 37 39  1  0  0  0  0
 38 40  1  0  0  0  0
 38 41  1  0  0  0  0
 38 42  1  0  0  0  0
M  END
$$$$

  -OEChem-05262215353D

 42 41  0     1  0  0  0  0  0999 V2000
   -5.6443   -1.2121    1.8179 C   0  0  0  0  0  0  0  0  0  0  0  0
   -6.1297   -0.2030    1.3314 O   0  0  0  0  0  0  0  0  0  0  0  0
   -6.4807   -2.4706    1.9531 C   0  0  0  0  0  0  0  0  0  0  0  0
   -6.4996   -2.7964    2.9959 H   0  0  0  0  0  0  0  0  0  0  0  0
   -7.5065   -2.2787    1.6253 H   0  0  0  0  0  0  0  0  0  0  0  0
   -6.0565   -3.2674    1.3368 H   0  0  0  0  0  0  0  0  0  0  0  0
   -4.3277   -1.2177    2.2269 N   0  0  0  0  0  0  0  0  0  0  0  0
   -3.3758   -0.1305    1.9659 C   0  0  2  0  0  0  0  0  0  0  0  0
   -1.9801   -0.6775    1.6011 C   0  0  0  0  0  0  0  0  0  0  0  0
   -1.6793   -1.8324    1.8806 O   0  0  0  0  0  0  0  0  0  0  0  0
   -3.3005    0.7486    3.2168 C   0  0  0  0  0  0  0  0  0  0  0  0
   -3.9301   -2.1159    2.4998 H   0  0  0  0  0  0  0  0  0  0  0  0
   -3.7207    0.4753    1.1211 H   0  0  0  0  0  0  0  0  0  0  0  0
   -2.9454    0.1668    4.0736 H   0  0  0  0  0  0  0  0  0  0  0  0
   -2.6162    1.5874    3.0577 H   0  0  0  0  0  0  0  0  0  0  0  0
   -4.2902    1.1512    3.4551 H   0  0  0  0  0  0  0  0  0  0  0  0
   -1.0565    0.1277    0.9590 N   0  0  0  0  0  0  0  0  0  0  0  0
    0.2605   -0.3366    0.4902 C   0  0  2  0  0  0  0  0  0  0  0  0
    1.3029    0.8040    0.5168 C   0  0  0  0  0  0  0  0  0  0  0  0
    2.0595    1.0164   -0.4220 O   0  0  0  0  0  0  0  0  0  0  0  0
    0.0824   -0.9469   -0.9074 C   0  0  0  0  0  0  0  0  0  0  0  0
   -1.3724    1.0498    0.6686 H   0  0  0  0  0  0  0  0  0  0  0  0
    0.6399   -1.1155    1.1606 H   0  0  0  0  0  0  0  0  0  0  0  0
   -0.2685   -0.1904   -1.6163 H   0  0  0  0  0  0  0  0  0  0  0  0
    1.0335   -1.3486   -1.2714 H   0  0  0  0  0  0  0  0  0  0  0  0
   -0.6451   -1.7641   -0.8774 H   0  0  0  0  0  0  0  0  0  0  0  0
    1.3734    1.6262    1.6248 N   0  0  0  0  0  0  0  0  0  0  0  0
    2.3601    2.6959    1.8203 C   0  0  2  0  0  0  0  0  0  0  0  0
    2.5687    3.0000    3.3186 C   0  0  0  0  0  0  0  0  0  0  0  0
    1.7684    2.5788    4.1472 O   0  0  0  0  0  0  0  0  0  0  0  0
    1.8776    3.9524    1.0871 C   0  0  0  0  0  0  0  0  0  0  0  0
    0.8137    1.3631    2.4365 H   0  0  0  0  0  0  0  0  0  0  0  0
    3.3252    2.3825    1.4081 H   0  0  0  0  0  0  0  0  0  0  0  0
    0.9130    4.2810    1.4871 H   0  0  0  0  0  0  0  0  0  0  0  0
    2.5991    4.7667    1.2033 H   0  0  0  0  0  0  0  0  0  0  0  0
    1.7604    3.7485    0.0182 H   0  0  0  0  0  0  0  0  0  0  0  0
    3.6516    3.7497    3.7392 N   0  0  0  0  0  0  0  0  0  0  0  0
    3.9024    4.0782    5.1372 C   0  0  0  0  0  0  0  0  0  0  0  0
    4.3081    4.0683    3.0323 H   0  0  0  0  0  0  0  0  0  0  0  0
    3.0445    4.6065    5.5667 H   0  0  0  0  0  0  0  0  0  0  0  0
    4.0829    3.1678    5.7183 H   0  0  0  0  0  0  0  0  0  0  0  0
    4.7819    4.7237    5.2223 H   0  0  0  0  0  0  0  0  0  0  0  0
  1  2  2  0  0  0  0
  1  3  1  0  0  0  0
  1  7  1  0  0  0  0
  3  4  1  0  0  0  0
  3  5  1  0  0  0  0
  3  6  1  0  0  0  0
  7  8  1  0  0  0  0
  7 12  1  0  0  0  0
  8  9  1  0  0  0  0
  8 11  1  0  0  0  0
  8 13  1  0  0  0  0
  9 10  2  0  0  0  0
  9 17  1  0  0  0  0
 11 14  1  0  0  0  0
 11 15  1  0  0  0  0
 11 16  1  0  0  0  0
 17 18  1  0  0  0  0
 17 22  1  0  0  0  0
 18 19  1  0  0  0  0
 18 21  1  0  0  0  0
 18 23  1  0  0  0  0
 19 20  2  0  0  0  0
 19 27  1  0  0  0  0
 21 24  1  0  0  0  0
 21 25  1  0  0  0  0
 21 26  1  0  0  0  0
 27 28  1  0  0  0  0
 27 32  1  0  0  0  0
 28 29  1  0  0  0  0
 28 31  1  0  0  0  0
 28 33  1  0  0  0  0
 29 30  2  0  0  0  0
 29 37  1  0  0  0  0
 31 34  1  0  0  0  0
 31 35  1  0  0  0  0
 31 36  1  0  0  0  0
 37 38  1  0  0  0  0
 37 39  1  0  0  0  0
 38 40  1  0  0  0  0
 38 41  1  0  0  0  0
 38 42  1  0  0  0  0
M  END
$$$$

  -OEChem-05262215353D

 42 41  0     1  0  0  0  0  0999 V2000
   -5.6279   -1.2076    1.8867 C   0  0  0  0  0  0  0  0  0  0  0  0
   -6.1358   -0.2125    1.3942 O   0  0  0  0  0  0  0  0  0  0  0  0
   -6.4580   -2.4592    2.1042 C   0  0  0  0  0  0  0  0  0  0  0  0
   -6.4404   -2.7406    3.1598 H   0  0  0  0  0  0  0  0  0  0  0  0
   -7.4949   -2.2822    1.8046 H   0  0  0  0  0  0  0  0  0  0  0  0
   -6.0548   -3.2818    1.5086 H   0  0  0  0  0  0  0  0  0  0  0  0
   -4.2929   -1.2015    2.2316 N   0  0  0  0  0  0  0  0  0  0  0  0
   -3.3587   -0.1164    1.9051 C   0  0  2  0  0  0  0  0  0  0  0  0
   -1.9515   -0.6590    1.5770 C   0  0  0  0  0  0  0  0  0  0  0  0
   -1.6476   -1.8077    1.8790 O   0  0  0  0  0  0  0  0  0  0  0  0
   -3.3047    0.8470    3.0942 C   0  0  0  0  0  0  0  0  0  0  0  0
   -3.8804   -2.0895    2.5162 H   0  0  0  0  0  0  0  0  0  0  0  0
   -3.7133    0.4236    1.0207 H   0  0  0  0  0  0  0  0  0  0  0  0
   -2.9462    0.3302    3.9903 H   0  0  0  0  0  0  0  0  0  0  0  0
   -2.6330    1.6840    2.8819 H   0  0  0  0  0  0  0  0  0  0  0  0
   -4.3018    1.2496    3.2993 H   0  0  0  0  0  0  0  0  0  0  0  0
   -1.0238    0.1402    0.9334 N   0  0  0  0  0  0  0  0  0  0  0  0
    0.2975   -0.3241    0.4803 C   0  0  2  0  0  0  0  0  0  0  0  0
    1.3295    0.8251    0.5054 C   0  0  0  0  0  0  0  0  0  0  0  0
    1.8951    1.2149   -0.5081 O   0  0  0  0  0  0  0  0  0  0  0  0
    0.1359   -0.9500   -0.9123 C   0  0  0  0  0  0  0  0  0  0  0  0
   -1.3384    1.0587    0.6305 H   0  0  0  0  0  0  0  0  0  0  0  0
    0.6758   -1.0954    1.1600 H   0  0  0  0  0  0  0  0  0  0  0  0
   -0.2394   -0.2104   -1.6266 H   0  0  0  0  0  0  0  0  0  0  0  0
    1.0987   -1.3243   -1.2741 H   0  0  0  0  0  0  0  0  0  0  0  0
   -0.5665   -1.7885   -0.8750 H   0  0  0  0  0  0  0  0  0  0  0  0
    1.6032    1.4555    1.7031 N   0  0  0  0  0  0  0  0  0  0  0  0
    2.6255    2.4920    1.8941 C   0  0  2  0  0  0  0  0  0  0  0  0
    3.1281    2.5192    3.3531 C   0  0  0  0  0  0  0  0  0  0  0  0
    2.5036    1.9295    4.2285 O   0  0  0  0  0  0  0  0  0  0  0  0
    2.0308    3.8496    1.5049 C   0  0  0  0  0  0  0  0  0  0  0  0
    1.1968    1.0502    2.5471 H   0  0  0  0  0  0  0  0  0  0  0  0
    3.4874    2.2780    1.2531 H   0  0  0  0  0  0  0  0  0  0  0  0
    1.1655    4.0830    2.1333 H   0  0  0  0  0  0  0  0  0  0  0  0
    2.7741    4.6431    1.6254 H   0  0  0  0  0  0  0  0  0  0  0  0
    1.7085    3.8381    0.4589 H   0  0  0  0  0  0  0  0  0  0  0  0
    4.2919    3.1876    3.6855 N   0  0  0  0  0  0  0  0  0  0  0  0
    4.8415    3.2113    5.0359 C   0  0  0  0  0  0  0  0  0  0  0  0
    4.8044    3.6449    2.9369 H   0  0  0  0  0  0  0  0  0  0  0  0
    4.1301    3.6696    5.7312 H   0  0  0  0  0  0  0  0  0  0  0  0
    5.0634    2.1945    5.3772 H   0  0  0  0  0  0  0  0  0  0  0  0
    5.7682    3.7927    5.0574 H   0  0  0  0  0  0  0  0  0  0  0  0
  1  2  2  0  0  0  0
  1  3  1  0  0  0  0
  1  7  1  0  0  0  0
  3  4  1  0  0  0  0
  3  5  1  0  0  0  0
  3  6  1  0  0  0  0
  7  8  1  0  0  0  0
  7 12  1  0  0  0  0
  8  9  1  0  0  0  0
  8 11  1  0  0  0  0
  8 13  1  0  0  0  0
  9 10  2  0  0  0  0
  9 17  1  0  0  0  0
 11 14  1  0  0  0  0
 11 15  1  0  0  0  0
 11 16  1  0  0  0  0
 17 18  1  0  0  0  0
 17 22  1  0  0  0  0
 18 19  1  0  0  0  0
 18 21  1  0  0  0  0
 18 23  1  0  0  0  0
 19 20  2  0  0  0  0
 19 27  1  0  0  0  0
 21 24  1  0  0  0  0
 21 25  1  0  0  0  0
 21 26  1  0  0  0  0
 27 28  1  0  0  0  0
 27 32  1  0  0  0  0
 28 29  1  0  0  0  0
 28 31  1  0  0  0  0
 28 33  1  0  0  0  0
 29 30  2  0  0  0  0
 29 37  1  0  0  0  0
 31 34  1  0  0  0  0
 31 35  1  0  0  0  0
 31 36  1  0  0  0  0
 37 38  1  0  0  0  0
 37 39  1  0  0  0  0
 38 40  1  0  0  0  0
 38 41  1  0  0  0  0
 38 42  1  0  0  0  0
M  END
$$$$

  -OEChem-05262215353D

 42 41  0     1  0  0  0  0  0999 V2000
   -5.6174   -1.1397    1.8255 C   0  0  0  0  0  0  0  0  0  0  0  0
   -6.0861   -0.1278    1.3287 O   0  0  0  0  0  0  0  0  0  0  0  0
   -6.4773   -2.3791    1.9834 C   0  0  0  0  0  0  0  0  0  0  0  0
   -6.4996   -2.6864    3.0316 H   0  0  0  0  0  0  0  0  0  0  0  0
   -7.5001   -2.1738    1.6555 H   0  0  0  0  0  0  0  0  0  0  0  0
   -6.0704   -3.1939    1.3797 H   0  0  0  0  0  0  0  0  0  0  0  0
   -4.2999   -1.1644    2.2311 N   0  0  0  0  0  0  0  0  0  0  0  0
   -3.3316   -0.0937    1.9617 C   0  0  2  0  0  0  0  0  0  0  0  0
   -1.9384   -0.6625    1.6217 C   0  0  0  0  0  0  0  0  0  0  0  0
   -1.6486   -1.8113    1.9370 O   0  0  0  0  0  0  0  0  0  0  0  0
   -3.2578    0.8077    3.1972 C   0  0  0  0  0  0  0  0  0  0  0  0
   -3.9166   -2.0662    2.5127 H   0  0  0  0  0  0  0  0  0  0  0  0
   -3.6608    0.5001    1.1023 H   0  0  0  0  0  0  0  0  0  0  0  0
   -2.9186    0.2370    4.0679 H   0  0  0  0  0  0  0  0  0  0  0  0
   -2.5609    1.6345    3.0290 H   0  0  0  0  0  0  0  0  0  0  0  0
   -4.2445    1.2272    3.4187 H   0  0  0  0  0  0  0  0  0  0  0  0
   -1.0041    0.1168    0.9647 N   0  0  0  0  0  0  0  0  0  0  0  0
    0.3148   -0.3631    0.5265 C   0  0  2  0  0  0  0  0  0  0  0  0
    1.3462    0.7856    0.5334 C   0  0  0  0  0  0  0  0  0  0  0  0
    1.6819    1.3543   -0.4979 O   0  0  0  0  0  0  0  0  0  0  0  0
    0.1611   -1.0126   -0.8556 C   0  0  0  0  0  0  0  0  0  0  0  0
   -1.3078    1.0342    0.6469 H   0  0  0  0  0  0  0  0  0  0  0  0
    0.6872   -1.1239    1.2212 H   0  0  0  0  0  0  0  0  0  0  0  0
   -0.2347   -0.2936   -1.5799 H   0  0  0  0  0  0  0  0  0  0  0  0
    1.1307   -1.3699   -1.2161 H   0  0  0  0  0  0  0  0  0  0  0  0
   -0.5222   -1.8657   -0.8019 H   0  0  0  0  0  0  0  0  0  0  0  0
    1.8544    1.2359    1.7360 N   0  0  0  0  0  0  0  0  0  0  0  0
    2.8915    2.2659    1.8746 C   0  0  2  0  0  0  0  0  0  0  0  0
    3.7301    2.0541    3.1522 C   0  0  0  0  0  0  0  0  0  0  0  0
    3.3331    1.2948    4.0294 O   0  0  0  0  0  0  0  0  0  0  0  0
    2.2140    3.6397    1.9023 C   0  0  0  0  0  0  0  0  0  0  0  0
    1.6188    0.7051    2.5752 H   0  0  0  0  0  0  0  0  0  0  0  0
    3.5752    2.2156    1.0204 H   0  0  0  0  0  0  0  0  0  0  0  0
    1.5308    3.7112    2.7547 H   0  0  0  0  0  0  0  0  0  0  0  0
    2.9607    4.4350    1.9859 H   0  0  0  0  0  0  0  0  0  0  0  0
    1.6429    3.8004    0.9826 H   0  0  0  0  0  0  0  0  0  0  0  0
    4.9347    2.7126    3.3173 N   0  0  0  0  0  0  0  0  0  0  0  0
    5.7838    2.5458    4.4910 C   0  0  0  0  0  0  0  0  0  0  0  0
    5.2491    3.3166    2.5632 H   0  0  0  0  0  0  0  0  0  0  0  0
    5.2305    2.7940    5.4030 H   0  0  0  0  0  0  0  0  0  0  0  0
    6.1386    1.5122    4.5644 H   0  0  0  0  0  0  0  0  0  0  0  0
    6.6536    3.2066    4.4259 H   0  0  0  0  0  0  0  0  0  0  0  0
  1  2  2  0  0  0  0
  1  3  1  0  0  0  0
  1  7  1  0  0  0  0
  3  4  1  0  0  0  0
  3  5  1  0  0  0  0
  3  6  1  0  0  0  0
  7  8  1  0  0  0  0
  7 12  1  0  0  0  0
  8  9  1  0  0  0  0
  8 11  1  0  0  0  0
  8 13  1  0  0  0  0
  9 10  2  0  0  0  0
  9 17  1  0  0  0  0
 11 14  1  0  0  0  0
 11 15  1  0  0  0  0
 11 16  1  0  0  0  0
 17 18  1  0  0  0  0
 17 22  1  0  0  0  0
 18 19  1  0  0  0  0
 18 21  1  0  0  0  0
 18 23  1  0  0  0  0
 19 20  2  0  0  0  0
 19 27  1  0  0  0  0
 21 24  1  0  0  0  0
 21 25  1  0  0  0  0
 21 26  1  0  0  0  0
 27 28  1  0  0  0  0
 27 32  1  0  0  0  0
 28 29  1  0  0  0  0
 28 31  1  0  0  0  0
 28 33  1  0  0  0  0
 29 30  2  0  0  0  0
 29 37  1  0  0  0  0
 31 34  1  0  0  0  0
 31 35  1  0  0  0  0
 31 36  1  0  0  0  0
 37 38  1  0  0  0  0
 37 39  1  0  0  0  0
 38 40  1  0  0  0  0
 38 41  1  0  0  0  0
 38 42  1  0  0  0  0
M  END
$$$$

  -OEChem-05262215353D

 42 41  0     1  0  0  0  0  0999 V2000
   -5.6220   -1.1653    1.9170 C   0  0  0  0  0  0  0  0  0  0  0  0
   -6.1304   -0.1594    1.4477 O   0  0  0  0  0  0  0  0  0  0  0  0
   -6.4687   -2.3979    2.1752 C   0  0  0  0  0  0  0  0  0  0  0  0
   -6.4560   -2.6427    3.2401 H   0  0  0  0  0  0  0  0  0  0  0  0
   -7.5027   -2.2167    1.8677 H   0  0  0  0  0  0  0  0  0  0  0  0
   -6.0770   -3.2466    1.6092 H   0  0  0  0  0  0  0  0  0  0  0  0
   -4.2744   -1.1849    2.2075 N   0  0  0  0  0  0  0  0  0  0  0  0
   -3.3356   -0.1076    1.8682 C   0  0  2  0  0  0  0  0  0  0  0  0
   -1.9250   -0.6581    1.5694 C   0  0  0  0  0  0  0  0  0  0  0  0
   -1.6321   -1.8068    1.8834 O   0  0  0  0  0  0  0  0  0  0  0  0
   -3.2922    0.8814    3.0369 C   0  0  0  0  0  0  0  0  0  0  0  0
   -3.8674   -2.0771    2.4865 H   0  0  0  0  0  0  0  0  0  0  0  0
   -3.6806    0.4126    0.9681 H   0  0  0  0  0  0  0  0  0  0  0  0
   -2.9452    0.3822    3.9473 H   0  0  0  0  0  0  0  0  0  0  0  0
   -2.6152    1.7115    2.8143 H   0  0  0  0  0  0  0  0  0  0  0  0
   -4.2899    1.2918    3.2231 H   0  0  0  0  0  0  0  0  0  0  0  0
   -0.9830    0.1299    0.9342 N   0  0  0  0  0  0  0  0  0  0  0  0
    0.3386   -0.3445    0.4997 C   0  0  2  0  0  0  0  0  0  0  0  0
    1.3745    0.7986    0.5339 C   0  0  0  0  0  0  0  0  0  0  0  0
    1.4918    1.5683   -0.4117 O   0  0  0  0  0  0  0  0  0  0  0  0
    0.1993   -0.9569   -0.8999 C   0  0  0  0  0  0  0  0  0  0  0  0
   -1.2842    1.0478    0.6141 H   0  0  0  0  0  0  0  0  0  0  0  0
    0.7007   -1.1242    1.1786 H   0  0  0  0  0  0  0  0  0  0  0  0
   -0.1960   -0.2204   -1.6072 H   0  0  0  0  0  0  0  0  0  0  0  0
    1.1735   -1.2989   -1.2630 H   0  0  0  0  0  0  0  0  0  0  0  0
   -0.4802   -1.8147   -0.8737 H   0  0  0  0  0  0  0  0  0  0  0  0
    2.1117    1.0323    1.6786 N   0  0  0  0  0  0  0  0  0  0  0  0
    3.1711    2.0428    1.7971 C   0  0  2  0  0  0  0  0  0  0  0  0
    4.2604    1.6098    2.8013 C   0  0  0  0  0  0  0  0  0  0  0  0
    4.0588    0.6664    3.5581 O   0  0  0  0  0  0  0  0  0  0  0  0
    2.5336    3.3661    2.2317 C   0  0  0  0  0  0  0  0  0  0  0  0
    2.0504    0.3423    2.4280 H   0  0  0  0  0  0  0  0  0  0  0  0
    3.6586    2.1793    0.8260 H   0  0  0  0  0  0  0  0  0  0  0  0
    2.0437    3.2529    3.2042 H   0  0  0  0  0  0  0  0  0  0  0  0
    3.2919    4.1507    2.3115 H   0  0  0  0  0  0  0  0  0  0  0  0
    1.7855    3.6851    1.4990 H   0  0  0  0  0  0  0  0  0  0  0  0
    5.4757    2.2685    2.8474 N   0  0  0  0  0  0  0  0  0  0  0  0
    6.5578    1.8909    3.7493 C   0  0  0  0  0  0  0  0  0  0  0  0
    5.6241    3.0308    2.1924 H   0  0  0  0  0  0  0  0  0  0  0  0
    6.2347    1.9724    4.7926 H   0  0  0  0  0  0  0  0  0  0  0  0
    6.8739    0.8599    3.5581 H   0  0  0  0  0  0  0  0  0  0  0  0
    7.4200    2.5490    3.6033 H   0  0  0  0  0  0  0  0  0  0  0  0
  1  2  2  0  0  0  0
  1  3  1  0  0  0  0
  1  7  1  0  0  0  0
  3  4  1  0  0  0  0
  3  5  1  0  0  0  0
  3  6  1  0  0  0  0
  7  8  1  0  0  0  0
  7 12  1  0  0  0  0
  8  9  1  0  0  0  0
  8 11  1  0  0  0  0
  8 13  1  0  0  0  0
  9 10  2  0  0  0  0
  9 17  1  0  0  0  0
 11 14  1  0  0  0  0
 11 15  1  0  0  0  0
 11 16  1  0  0  0  0
 17 18  1  0  0  0  0
 17 22  1  0  0  0  0
 18 19  1  0  0  0  0
 18 21  1  0  0  0  0
 18 23  1  0  0  0  0
 19 20  2  0  0  0  0
 19 27  1  0  0  0  0
 21 24  1  0  0  0  0
 21 25  1  0  0  0  0
 21 26  1  0  0  0  0
 27 28  1  0  0  0  0
 27 32  1  0  0  0  0
 28 29  1  0  0  0  0
 28 31  1  0  0  0  0
 28 33  1  0  0  0  0
 29 30  2  0  0  0  0
 29 37  1  0  0  0  0
 31 34  1  0  0  0  0
 31 35  1  0  0  0  0
 31 36  1  0  0  0  0
 37 38  1  0  0  0  0
 37 39  1  0  0  0  0
 38 40  1  0  0  0  0
 38 41  1  0  0  0  0
 38 42  1  0  0  0  0
M  END
$$$$

  -OEChem-05262215353D

 42 41  0     1  0  0  0  0  0999 V2000
   -5.6083   -1.0636    1.8253 C   0  0  0  0  0  0  0  0  0  0  0  0
   -6.0477   -0.0239    1.3600 O   0  0  0  0  0  0  0  0  0  0  0  0
   -6.5014   -2.2858    1.9296 C   0  0  0  0  0  0  0  0  0  0  0  0
   -6.5718   -2.6081    2.9713 H   0  0  0  0  0  0  0  0  0  0  0  0
   -7.5053   -2.0517    1.5636 H   0  0  0  0  0  0  0  0  0  0  0  0
   -6.0905   -3.1012    1.3290 H   0  0  0  0  0  0  0  0  0  0  0  0
   -4.2945   -1.1353    2.2382 N   0  0  0  0  0  0  0  0  0  0  0  0
   -3.2968   -0.0839    2.0011 C   0  0  2  0  0  0  0  0  0  0  0  0
   -1.9112   -0.6799    1.6770 C   0  0  0  0  0  0  0  0  0  0  0  0
   -1.6446   -1.8332    1.9981 O   0  0  0  0  0  0  0  0  0  0  0  0
   -3.2250    0.8024    3.2468 C   0  0  0  0  0  0  0  0  0  0  0  0
   -3.9382   -2.0527    2.5047 H   0  0  0  0  0  0  0  0  0  0  0  0
   -3.5969    0.5275    1.1431 H   0  0  0  0  0  0  0  0  0  0  0  0
   -2.9126    0.2165    4.1174 H   0  0  0  0  0  0  0  0  0  0  0  0
   -2.5088    1.6159    3.0975 H   0  0  0  0  0  0  0  0  0  0  0  0
   -4.2063    1.2407    3.4546 H   0  0  0  0  0  0  0  0  0  0  0  0
   -0.9671    0.0719    1.0041 N   0  0  0  0  0  0  0  0  0  0  0  0
    0.3468   -0.4242    0.5747 C   0  0  2  0  0  0  0  0  0  0  0  0
    1.3815    0.7186    0.5582 C   0  0  0  0  0  0  0  0  0  0  0  0
    1.2813    1.6233   -0.2619 O   0  0  0  0  0  0  0  0  0  0  0  0
    0.2024   -1.0738   -0.8059 C   0  0  0  0  0  0  0  0  0  0  0  0
   -1.2420    1.0017    0.6932 H   0  0  0  0  0  0  0  0  0  0  0  0
    0.7072   -1.1826    1.2781 H   0  0  0  0  0  0  0  0  0  0  0  0
   -0.1673   -0.3485   -1.5379 H   0  0  0  0  0  0  0  0  0  0  0  0
    1.1696   -1.4528   -1.1501 H   0  0  0  0  0  0  0  0  0  0  0  0
   -0.5006   -1.9113   -0.7597 H   0  0  0  0  0  0  0  0  0  0  0  0
    2.3429    0.8158    1.5453 N   0  0  0  0  0  0  0  0  0  0  0  0
    3.3983    1.8369    1.5784 C   0  0  2  0  0  0  0  0  0  0  0  0
    4.6968    1.2905    2.2085 C   0  0  0  0  0  0  0  0  0  0  0  0
    4.6890    0.2158    2.7990 O   0  0  0  0  0  0  0  0  0  0  0  0
    2.8800    3.0432    2.3675 C   0  0  0  0  0  0  0  0  0  0  0  0
    2.4584    0.0187    2.1716 H   0  0  0  0  0  0  0  0  0  0  0  0
    3.6399    2.1509    0.5572 H   0  0  0  0  0  0  0  0  0  0  0  0
    2.6428    2.7539    3.3963 H   0  0  0  0  0  0  0  0  0  0  0  0
    3.6310    3.8384    2.3926 H   0  0  0  0  0  0  0  0  0  0  0  0
    1.9738    3.4412    1.8996 H   0  0  0  0  0  0  0  0  0  0  0  0
    5.8811    1.9961    2.1002 N   0  0  0  0  0  0  0  0  0  0  0  0
    7.1466    1.5254    2.6509 C   0  0  0  0  0  0  0  0  0  0  0  0
    5.8620    2.8743    1.5898 H   0  0  0  0  0  0  0  0  0  0  0  0
    7.0654    1.3842    3.7339 H   0  0  0  0  0  0  0  0  0  0  0  0
    7.4336    0.5733    2.1921 H   0  0  0  0  0  0  0  0  0  0  0  0
    7.9389    2.2548    2.4566 H   0  0  0  0  0  0  0  0  0  0  0  0
  1  2  2  0  0  0  0
  1  3  1  0  0  0  0
  1  7  1  0  0  0  0
  3  4  1  0  0  0  0
  3  5  1  0  0  0  0
  3  6  1  0  0  0  0
  7  8  1  0  0  0  0
  7 12  1  0  0  0  0
  8  9  1  0  0  0  0
  8 11  1  0  0  0  0
  8 13  1  0  0  0  0
  9 10  2  0  0  0  0
  9 17  1  0  0  0  0
 11 14  1  0  0  0  0
 11 15  1  0  0  0  0
 11 16  1  0  0  0  0
 17 18  1  0  0  0  0
 17 22  1  0  0  0  0
 18 19  1  0  0  0  0
 18 21  1  0  0  0  0
 18 23  1  0  0  0  0
 19 20  2  0  0  0  0
 19 27  1  0  0  0  0
 21 24  1  0  0  0  0
 21 25  1  0  0  0  0
 21 26  1  0  0  0  0
 27 28  1  0  0  0  0
 27 32  1  0  0  0  0
 28 29  1  0  0  0  0
 28 31  1  0  0  0  0
 28 33  1  0  0  0  0
 29 30  2  0  0  0  0
 29 37  1  0  0  0  0
 31 34  1  0  0  0  0
 31 35  1  0  0  0  0
 31 36  1  0  0  0  0
 37 38  1  0  0  0  0
 37 39  1  0  0  0  0
 38 40  1  0  0  0  0
 38 41  1  0  0  0  0
 38 42  1  0  0  0  0
M  END
$$$$

  -OEChem-05262215353D

 42 41  0     1  0  0  0  0  0999 V2000
   -5.6106   -1.1153    1.9512 C   0  0  0  0  0  0  0  0  0  0  0  0
   -6.1044   -0.0909    1.5073 O   0  0  0  0  0  0  0  0  0  0  0  0
   -6.4786   -2.3344    2.1974 C   0  0  0  0  0  0  0  0  0  0  0  0
   -6.4544   -2.6012    3.2566 H   0  0  0  0  0  0  0  0  0  0  0  0
   -7.5127   -2.1249    1.9100 H   0  0  0  0  0  0  0  0  0  0  0  0
   -6.1135   -3.1784    1.6073 H   0  0  0  0  0  0  0  0  0  0  0  0
   -4.2603   -1.1700    2.2242 N   0  0  0  0  0  0  0  0  0  0  0  0
   -3.3027   -0.1090    1.8874 C   0  0  2  0  0  0  0  0  0  0  0  0
   -1.9100   -0.6858    1.5576 C   0  0  0  0  0  0  0  0  0  0  0  0
   -1.6389   -1.8475    1.8439 O   0  0  0  0  0  0  0  0  0  0  0  0
   -3.2186    0.8607    3.0696 C   0  0  0  0  0  0  0  0  0  0  0  0
   -3.8689   -2.0772    2.4753 H   0  0  0  0  0  0  0  0  0  0  0  0
   -3.6487    0.4328    1.0006 H   0  0  0  0  0  0  0  0  0  0  0  0
   -2.8610    0.3426    3.9652 H   0  0  0  0  0  0  0  0  0  0  0  0
   -2.5330    1.6831    2.8443 H   0  0  0  0  0  0  0  0  0  0  0  0
   -4.2054    1.2841    3.2824 H   0  0  0  0  0  0  0  0  0  0  0  0
   -0.9616    0.0915    0.9206 N   0  0  0  0  0  0  0  0  0  0  0  0
    0.3628   -0.3824    0.4998 C   0  0  2  0  0  0  0  0  0  0  0  0
    1.3929    0.7634    0.5288 C   0  0  0  0  0  0  0  0  0  0  0  0
    1.1666    1.8010   -0.0832 O   0  0  0  0  0  0  0  0  0  0  0  0
    0.2507   -0.9871   -0.9031 C   0  0  0  0  0  0  0  0  0  0  0  0
   -1.2217    1.0427    0.6643 H   0  0  0  0  0  0  0  0  0  0  0  0
    0.7135   -1.1578    1.1891 H   0  0  0  0  0  0  0  0  0  0  0  0
   -0.1062   -0.2385   -1.6178 H   0  0  0  0  0  0  0  0  0  0  0  0
    1.2260   -1.3523   -1.2389 H   0  0  0  0  0  0  0  0  0  0  0  0
   -0.4504   -1.8278   -0.8992 H   0  0  0  0  0  0  0  0  0  0  0  0
    2.5157    0.6848    1.3295 N   0  0  0  0  0  0  0  0  0  0  0  0
    3.5930    1.6826    1.3485 C   0  0  2  0  0  0  0  0  0  0  0  0
    4.9662    1.0225    1.5958 C   0  0  0  0  0  0  0  0  0  0  0  0
    5.0293   -0.1460    1.9628 O   0  0  0  0  0  0  0  0  0  0  0  0
    3.2795    2.7120    2.4387 C   0  0  0  0  0  0  0  0  0  0  0  0
    2.7250   -0.2170    1.7587 H   0  0  0  0  0  0  0  0  0  0  0  0
    3.6459    2.1892    0.3788 H   0  0  0  0  0  0  0  0  0  0  0  0
    3.2284    2.2279    3.4193 H   0  0  0  0  0  0  0  0  0  0  0  0
    4.0521    3.4858    2.4710 H   0  0  0  0  0  0  0  0  0  0  0  0
    2.3179    3.1951    2.2383 H   0  0  0  0  0  0  0  0  0  0  0  0
    6.1356    1.7292    1.3828 N   0  0  0  0  0  0  0  0  0  0  0  0
    7.4627    1.1500    1.5545 C   0  0  0  0  0  0  0  0  0  0  0  0
    6.0550    2.6868    1.0534 H   0  0  0  0  0  0  0  0  0  0  0  0
    7.6013    0.8065    2.5851 H   0  0  0  0  0  0  0  0  0  0  0  0
    7.6000    0.2996    0.8782 H   0  0  0  0  0  0  0  0  0  0  0  0
    8.2327    1.8953    1.3327 H   0  0  0  0  0  0  0  0  0  0  0  0
  1  2  2  0  0  0  0
  1  3  1  0  0  0  0
  1  7  1  0  0  0  0
  3  4  1  0  0  0  0
  3  5  1  0  0  0  0
  3  6  1  0  0  0  0
  7  8  1  0  0  0  0
  7 12  1  0  0  0  0
  8  9  1  0  0  0  0
  8 11  1  0  0  0  0
  8 13  1  0  0  0  0
  9 10  2  0  0  0  0
  9 17  1  0  0  0  0
 11 14  1  0  0  0  0
 11 15  1  0  0  0  0
 11 16  1  0  0  0  0
 17 18  1  0  0  0  0
 17 22  1  0  0  0  0
 18 19  1  0  0  0  0
 18 21  1  0  0  0  0
 18 23  1  0  0  0  0
 19 20  2  0  0  0  0
 19 27  1  0  0  0  0
 21 24  1  0  0  0  0
 21 25  1  0  0  0  0
 21 26  1  0  0  0  0
 27 28  1  0  0  0  0
 27 32  1  0  0  0  0
 28 29  1  0  0  0  0
 28 31  1  0  0  0  0
 28 33  1  0  0  0  0
 29 30  2  0  0  0  0
 29 37  1  0  0  0  0
 31 34  1  0  0  0  0
 31 35  1  0  0  0  0
 31 36  1  0  0  0  0
 37 38  1  0  0  0  0
 37 39  1  0  0  0  0
 38 40  1  0  0  0  0
 38 41  1  0  0  0  0
 38 42  1  0  0  0  0
M  END
$$$$

  -OEChem-05262215353D

 42 41  0     1  0  0  0  0  0999 V2000
   -5.6107   -1.1089    1.9952 C   0  0  0  0  0  0  0  0  0  0  0  0
   -6.1065   -0.0764    1.5724 O   0  0  0  0  0  0  0  0  0  0  0  0
   -6.4856   -2.3188    2.2642 C   0  0  0  0  0  0  0  0  0  0  0  0
   -6.4445   -2.5805    3.3242 H   0  0  0  0  0  0  0  0  0  0  0  0
   -7.5229   -2.1016    1.9947 H   0  0  0  0  0  0  0  0  0  0  0  0
   -6.1391   -3.1693    1.6723 H   0  0  0  0  0  0  0  0  0  0  0  0
   -4.2533   -1.1804    2.2249 N   0  0  0  0  0  0  0  0  0  0  0  0
   -3.2952   -0.1257    1.8700 C   0  0  2  0  0  0  0  0  0  0  0  0
   -1.9162   -0.7118    1.5008 C   0  0  0  0  0  0  0  0  0  0  0  0
   -1.6585   -1.8870    1.7412 O   0  0  0  0  0  0  0  0  0  0  0  0
   -3.1735    0.8359    3.0559 C   0  0  0  0  0  0  0  0  0  0  0  0
   -3.8637   -2.0948    2.4515 H   0  0  0  0  0  0  0  0  0  0  0  0
   -3.6594    0.4242    0.9954 H   0  0  0  0  0  0  0  0  0  0  0  0
   -2.8018    0.3087    3.9403 H   0  0  0  0  0  0  0  0  0  0  0  0
   -2.4841    1.6522    2.8206 H   0  0  0  0  0  0  0  0  0  0  0  0
   -4.1503    1.2690    3.2936 H   0  0  0  0  0  0  0  0  0  0  0  0
   -0.9634    0.0741    0.8820 N   0  0  0  0  0  0  0  0  0  0  0  0
    0.3691   -0.3857    0.4725 C   0  0  2  0  0  0  0  0  0  0  0  0
    1.3921    0.7656    0.5228 C   0  0  0  0  0  0  0  0  0  0  0  0
    1.0707    1.8830    0.1332 O   0  0  0  0  0  0  0  0  0  0  0  0
    0.2826   -0.9689   -0.9405 C   0  0  0  0  0  0  0  0  0  0  0  0
   -1.1939    1.0503    0.7015 H   0  0  0  0  0  0  0  0  0  0  0  0
    0.7152   -1.1661    1.1587 H   0  0  0  0  0  0  0  0  0  0  0  0
   -0.0674   -0.2106   -1.6483 H   0  0  0  0  0  0  0  0  0  0  0  0
    1.2649   -1.3237   -1.2676 H   0  0  0  0  0  0  0  0  0  0  0  0
   -0.4141   -1.8130   -0.9602 H   0  0  0  0  0  0  0  0  0  0  0  0
    2.6416    0.5759    1.0796 N   0  0  0  0  0  0  0  0  0  0  0  0
    3.7247    1.5665    1.0395 C   0  0  2  0  0  0  0  0  0  0  0  0
    5.0997    0.8847    0.8781 C   0  0  0  0  0  0  0  0  0  0  0  0
    5.2073   -0.3261    1.0413 O   0  0  0  0  0  0  0  0  0  0  0  0
    3.6740    2.3901    2.3296 C   0  0  0  0  0  0  0  0  0  0  0  0
    2.9153   -0.3827    1.2976 H   0  0  0  0  0  0  0  0  0  0  0  0
    3.5885    2.2328    0.1808 H   0  0  0  0  0  0  0  0  0  0  0  0
    3.8173    1.7444    3.2019 H   0  0  0  0  0  0  0  0  0  0  0  0
    4.4564    3.1548    2.3292 H   0  0  0  0  0  0  0  0  0  0  0  0
    2.7042    2.8896    2.4214 H   0  0  0  0  0  0  0  0  0  0  0  0
    6.2150    1.6233    0.5285 N   0  0  0  0  0  0  0  0  0  0  0  0
    7.5345    1.0349    0.3322 C   0  0  0  0  0  0  0  0  0  0  0  0
    6.0932    2.6208    0.3795 H   0  0  0  0  0  0  0  0  0  0  0  0
    7.8941    0.5824    1.2623 H   0  0  0  0  0  0  0  0  0  0  0  0
    7.4996    0.2634   -0.4445 H   0  0  0  0  0  0  0  0  0  0  0  0
    8.2494    1.8030    0.0220 H   0  0  0  0  0  0  0  0  0  0  0  0
  1  2  2  0  0  0  0
  1  3  1  0  0  0  0
  1  7  1  0  0  0  0
  3  4  1  0  0  0  0
  3  5  1  0  0  0  0
  3  6  1  0  0  0  0
  7  8  1  0  0  0  0
  7 12  1  0  0  0  0
  8  9  1  0  0  0  0
  8 11  1  0  0  0  0
  8 13  1  0  0  0  0
  9 10  2  0  0  0  0
  9 17  1  0  0  0  0
 11 14  1  0  0  0  0
 11 15  1  0  0  0  0
 11 16  1  0  0  0  0
 17 18  1  0  0  0  0
 17 22  1  0  0  0  0
 18 19  1  0  0  0  0
 18 21  1  0  0  0  0
 18 23  1  0  0  0  0
 19 20  2  0  0  0  0
 19 27  1  0  0  0  0
 21 24  1  0  0  0  0
 21 25  1  0  0  0  0
 21 26  1  0  0  0  0
 27 28  1  0  0  0  0
 27 32  1  0  0  0  0
 28 29  1  0  0  0  0
 28 31  1  0  0  0  0
 28 33  1  0  0  0  0
 29 30  2  0  0  0  0
 29 37  1  0  0  0  0
 31 34  1  0  0  0  0
 31 35  1  0  0  0  0
 31 36  1  0  0  0  0
 37 38  1  0  0  0  0
 37 39  1  0  0  0  0
 38 40  1  0  0  0  0
 38 41  1  0  0  0  0
 38 42  1  0  0  0  0
M  END
$$$$

  -OEChem-05262215353D

 42 41  0     1  0  0  0  0  0999 V2000
   -5.6123   -1.1058    2.0052 C   0  0  0  0  0  0  0  0  0  0  0  0
   -6.1070   -0.0654    1.6010 O   0  0  0  0  0  0  0  0  0  0  0  0
   -6.4876   -2.3212    2.2462 C   0  0  0  0  0  0  0  0  0  0  0  0
   -6.3861   -2.6553    3.2816 H   0  0  0  0  0  0  0  0  0  0  0  0
   -7.5361   -2.0737    2.0577 H   0  0  0  0  0  0  0  0  0  0  0  0
   -6.1904   -3.1329    1.5775 H   0  0  0  0  0  0  0  0  0  0  0  0
   -4.2549   -1.1843    2.2319 N   0  0  0  0  0  0  0  0  0  0  0  0
   -3.2939   -0.1296    1.8850 C   0  0  2  0  0  0  0  0  0  0  0  0
   -1.9217   -0.7196    1.4984 C   0  0  0  0  0  0  0  0  0  0  0  0
   -1.6709   -1.9001    1.7204 O   0  0  0  0  0  0  0  0  0  0  0  0
   -3.1591    0.8160    3.0821 C   0  0  0  0  0  0  0  0  0  0  0  0
   -3.8678   -2.1041    2.4405 H   0  0  0  0  0  0  0  0  0  0  0  0
   -3.6601    0.4338    1.0200 H   0  0  0  0  0  0  0  0  0  0  0  0
   -2.7864    0.2743    3.9572 H   0  0  0  0  0  0  0  0  0  0  0  0
   -2.4652    1.6307    2.8538 H   0  0  0  0  0  0  0  0  0  0  0  0
   -4.1318    1.2527    3.3304 H   0  0  0  0  0  0  0  0  0  0  0  0
   -0.9708    0.0668    0.8779 N   0  0  0  0  0  0  0  0  0  0  0  0
    0.3694   -0.3869    0.4860 C   0  0  2  0  0  0  0  0  0  0  0  0
    1.3908    0.7673    0.5266 C   0  0  0  0  0  0  0  0  0  0  0  0
    1.0179    1.9237    0.3575 O   0  0  0  0  0  0  0  0  0  0  0  0
    0.2986   -0.9895   -0.9194 C   0  0  0  0  0  0  0  0  0  0  0  0
   -1.1808    1.0564    0.7497 H   0  0  0  0  0  0  0  0  0  0  0  0
    0.7150   -1.1537    1.1880 H   0  0  0  0  0  0  0  0  0  0  0  0
   -0.0505   -0.2429   -1.6399 H   0  0  0  0  0  0  0  0  0  0  0  0
    1.2855   -1.3427   -1.2336 H   0  0  0  0  0  0  0  0  0  0  0  0
   -0.3919   -1.8384   -0.9340 H   0  0  0  0  0  0  0  0  0  0  0  0
    2.7200    0.5156    0.8051 N   0  0  0  0  0  0  0  0  0  0  0  0
    3.7947    1.5074    0.6701 C   0  0  2  0  0  0  0  0  0  0  0  0
    5.0791    0.8649    0.1036 C   0  0  0  0  0  0  0  0  0  0  0  0
    5.1622   -0.3549    0.0051 O   0  0  0  0  0  0  0  0  0  0  0  0
    4.0532    2.1265    2.0463 C   0  0  0  0  0  0  0  0  0  0  0  0
    3.0128   -0.4618    0.8096 H   0  0  0  0  0  0  0  0  0  0  0  0
    3.4918    2.2950   -0.0280 H   0  0  0  0  0  0  0  0  0  0  0  0
    4.3737    1.3585    2.7573 H   0  0  0  0  0  0  0  0  0  0  0  0
    4.8324    2.8919    1.9845 H   0  0  0  0  0  0  0  0  0  0  0  0
    3.1396    2.5946    2.4267 H   0  0  0  0  0  0  0  0  0  0  0  0
    6.1358    1.6512   -0.3172 N   0  0  0  0  0  0  0  0  0  0  0  0
    7.3554    1.1052   -0.9018 C   0  0  0  0  0  0  0  0  0  0  0  0
    6.0309    2.6594   -0.2486 H   0  0  0  0  0  0  0  0  0  0  0  0
    7.8274    0.3968   -0.2126 H   0  0  0  0  0  0  0  0  0  0  0  0
    7.1322    0.5873   -1.8407 H   0  0  0  0  0  0  0  0  0  0  0  0
    8.0681    1.9088   -1.1110 H   0  0  0  0  0  0  0  0  0  0  0  0
  1  2  2  0  0  0  0
  1  3  1  0  0  0  0
  1  7  1  0  0  0  0
  3  4  1  0  0  0  0
  3  5  1  0  0  0  0
  3  6  1  0  0  0  0
  7  8  1  0  0  0  0
  7 12  1  0  0  0  0
  8  9  1  0  0  0  0
  8 11  1  0  0  0  0
  8 13  1  0  0  0  0
  9 10  2  0  0  0  0
  9 17  1  0  0  0  0
 11 14  1  0  0  0  0
 11 15  1  0  0  0  0
 11 16  1  0  0  0  0
 17 18  1  0  0  0  0
 17 22  1  0  0  0  0
 18 19  1  0  0  0  0
 18 21  1  0  0  0  0
 18 23  1  0  0  0  0
 19 20  2  0  0  0  0
 19 27  1  0  0  0  0
 21 24  1  0  0  0  0
 21 25  1  0  0  0  0
 21 26  1  0  0  0  0
 27 28  1  0  0  0  0
 27 32  1  0  0  0  0
 28 29  1  0  0  0  0
 28 31  1  0  0  0  0
 28 33  1  0  0  0  0
 29 30  2  0  0  0  0
 29 37  1  0  0  0  0
 31 34  1  0  0  0  0
 31 35  1  0  0  0  0
 31 36  1  0  0  0  0
 37 38  1  0  0  0  0
 37 39  1  0  0  0  0
 38 40  1  0  0  0  0
 38 41  1  0  0  0  0
 38 42  1  0  0  0  0
M  END
$$$$

  -OEChem-05262215353D

 42 41  0     1  0  0  0  0  0999 V2000
   -5.6145   -1.0928    2.0378 C   0  0  0  0  0  0  0  0  0  0  0  0
   -6.1102   -0.0370    1.6773 O   0  0  0  0  0  0  0  0  0  0  0  0
   -6.4940   -2.3063    2.2736 C   0  0  0  0  0  0  0  0  0  0  0  0
   -6.3733   -2.6600    3.3004 H   0  0  0  0  0  0  0  0  0  0  0  0
   -7.5444   -2.0484    2.1110 H   0  0  0  0  0  0  0  0  0  0  0  0
   -6.2168   -3.1077    1.5843 H   0  0  0  0  0  0  0  0  0  0  0  0
   -4.2523   -1.1903    2.2236 N   0  0  0  0  0  0  0  0  0  0  0  0
   -3.2896   -0.1384    1.8727 C   0  0  2  0  0  0  0  0  0  0  0  0
   -1.9335   -0.7369    1.4432 C   0  0  0  0  0  0  0  0  0  0  0  0
   -1.6974   -1.9273    1.6263 O   0  0  0  0  0  0  0  0  0  0  0  0
   -3.1157    0.7843    3.0829 C   0  0  0  0  0  0  0  0  0  0  0  0
   -3.8693   -2.1194    2.3960 H   0  0  0  0  0  0  0  0  0  0  0  0
   -3.6706    0.4441    1.0267 H   0  0  0  0  0  0  0  0  0  0  0  0
   -2.7280    0.2236    3.9394 H   0  0  0  0  0  0  0  0  0  0  0  0
   -2.4189    1.5954    2.8514 H   0  0  0  0  0  0  0  0  0  0  0  0
   -4.0770    1.2269    3.3626 H   0  0  0  0  0  0  0  0  0  0  0  0
   -0.9765    0.0543    0.8379 N   0  0  0  0  0  0  0  0  0  0  0  0
    0.3706   -0.3983    0.4670 C   0  0  2  0  0  0  0  0  0  0  0  0
    1.3933    0.7549    0.5233 C   0  0  0  0  0  0  0  0  0  0  0  0
    1.0096    1.9189    0.5813 O   0  0  0  0  0  0  0  0  0  0  0  0
    0.3145   -0.9930   -0.9439 C   0  0  0  0  0  0  0  0  0  0  0  0
   -1.1535    1.0575    0.7875 H   0  0  0  0  0  0  0  0  0  0  0  0
    0.7084   -1.1671    1.1704 H   0  0  0  0  0  0  0  0  0  0  0  0
   -0.0288   -0.2416   -1.6624 H   0  0  0  0  0  0  0  0  0  0  0  0
    1.3035   -1.3449   -1.2537 H   0  0  0  0  0  0  0  0  0  0  0  0
   -0.3761   -1.8419   -0.9704 H   0  0  0  0  0  0  0  0  0  0  0  0
    2.7475    0.4839    0.5142 N   0  0  0  0  0  0  0  0  0  0  0  0
    3.7915    1.4967    0.3135 C   0  0  2  0  0  0  0  0  0  0  0  0
    4.9119    0.9607   -0.6022 C   0  0  0  0  0  0  0  0  0  0  0  0
    4.9504   -0.2311   -0.8899 O   0  0  0  0  0  0  0  0  0  0  0  0
    4.3462    1.8947    1.6835 C   0  0  0  0  0  0  0  0  0  0  0  0
    3.0198   -0.4800    0.3191 H   0  0  0  0  0  0  0  0  0  0  0  0
    3.3694    2.3819   -0.1740 H   0  0  0  0  0  0  0  0  0  0  0  0
    4.7913    1.0285    2.1834 H   0  0  0  0  0  0  0  0  0  0  0  0
    5.1120    2.6690    1.5788 H   0  0  0  0  0  0  0  0  0  0  0  0
    3.5429    2.2879    2.3146 H   0  0  0  0  0  0  0  0  0  0  0  0
    5.8626    1.8153   -1.1280 N   0  0  0  0  0  0  0  0  0  0  0  0
    6.9170    1.3751   -2.0334 C   0  0  0  0  0  0  0  0  0  0  0  0
    5.7911    2.8017   -0.8958 H   0  0  0  0  0  0  0  0  0  0  0  0
    7.5421    0.6152   -1.5530 H   0  0  0  0  0  0  0  0  0  0  0  0
    6.4855    0.9504   -2.9459 H   0  0  0  0  0  0  0  0  0  0  0  0
    7.5541    2.2196   -2.3126 H   0  0  0  0  0  0  0  0  0  0  0  0
  1  2  2  0  0  0  0
  1  3  1  0  0  0  0
  1  7  1  0  0  0  0
  3  4  1  0  0  0  0
  3  5  1  0  0  0  0
  3  6  1  0  0  0  0
  7  8  1  0  0  0  0
  7 12  1  0  0  0  0
  8  9  1  0  0  0  0
  8 11  1  0  0  0  0
  8 13  1  0  0  0  0
  9 10  2  0  0  0  0
  9 17  1  0  0  0  0
 11 14  1  0  0  0  0
 11 15  1  0  0  0  0
 11 16  1  0  0  0  0
 17 18  1  0  0  0  0
 17 22  1  0  0  0  0
 18 19  1  0  0  0  0
 18 21  1  0  0  0  0
 18 23  1  0  0  0  0
 19 20  2  0  0  0  0
 19 27  1  0  0  0  0
 21 24  1  0  0  0  0
 21 25  1  0  0  0  0
 21 26  1  0  0  0  0
 27 28  1  0  0  0  0
 27 32  1  0  0  0  0
 28 29  1  0  0  0  0
 28 31  1  0  0  0  0
 28 33  1  0  0  0  0
 29 30  2  0  0  0  0
 29 37  1  0  0  0  0
 31 34  1  0  0  0  0
 31 35  1  0  0  0  0
 31 36  1  0  0  0  0
 37 38  1  0  0  0  0
 37 39  1  0  0  0  0
 38 40  1  0  0  0  0
 38 41  1  0  0  0  0
 38 42  1  0  0  0  0
M  END
$$$$

  -OEChem-05262215353D

 42 41  0     1  0  0  0  0  0999 V2000
   -5.5769   -0.9600    1.8757 C   0  0  0  0  0  0  0  0  0  0  0  0
   -5.9803    0.1186    1.4706 O   0  0  0  0  0  0  0  0  0  0  0  0
   -6.5247   -2.1414    1.9582 C   0  0  0  0  0  0  0  0  0  0  0  0
   -6.6172   -2.4736    2.9949 H   0  0  0  0  0  0  0  0  0  0  0  0
   -7.5140   -1.8571    1.5889 H   0  0  0  0  0  0  0  0  0  0  0  0
   -6.1461   -2.9661    1.3495 H   0  0  0  0  0  0  0  0  0  0  0  0
   -4.2571   -1.1149    2.2429 N   0  0  0  0  0  0  0  0  0  0  0  0
   -3.2100   -0.1162    1.9908 C   0  0  2  0  0  0  0  0  0  0  0  0
   -1.9141   -0.7765    1.4784 C   0  0  0  0  0  0  0  0  0  0  0  0
   -1.7287   -1.9789    1.6384 O   0  0  0  0  0  0  0  0  0  0  0  0
   -2.9514    0.6468    3.2921 C   0  0  0  0  0  0  0  0  0  0  0  0
   -3.9387   -2.0663    2.4230 H   0  0  0  0  0  0  0  0  0  0  0  0
   -3.5378    0.5906    1.2210 H   0  0  0  0  0  0  0  0  0  0  0  0
   -2.5959   -0.0342    4.0721 H   0  0  0  0  0  0  0  0  0  0  0  0
   -2.1967    1.4244    3.1374 H   0  0  0  0  0  0  0  0  0  0  0  0
   -3.8736    1.1242    3.6388 H   0  0  0  0  0  0  0  0  0  0  0  0
   -0.9618   -0.0208    0.8233 N   0  0  0  0  0  0  0  0  0  0  0  0
    0.3964   -0.4928    0.5222 C   0  0  2  0  0  0  0  0  0  0  0  0
    1.4521    0.5824    0.8568 C   0  0  0  0  0  0  0  0  0  0  0  0
    1.1010    1.6829    1.2712 O   0  0  0  0  0  0  0  0  0  0  0  0
    0.4425   -0.8729   -0.9610 C   0  0  0  0  0  0  0  0  0  0  0  0
   -1.0808    0.9909    0.8710 H   0  0  0  0  0  0  0  0  0  0  0  0
    0.6368   -1.3753    1.1250 H   0  0  0  0  0  0  0  0  0  0  0  0
    0.2541    0.0043   -1.5882 H   0  0  0  0  0  0  0  0  0  0  0  0
    1.4204   -1.2868   -1.2246 H   0  0  0  0  0  0  0  0  0  0  0  0
   -0.3191   -1.6282   -1.1799 H   0  0  0  0  0  0  0  0  0  0  0  0
    2.7944    0.3343    0.6460 N   0  0  0  0  0  0  0  0  0  0  0  0
    3.8361    1.3690    0.6527 C   0  0  2  0  0  0  0  0  0  0  0  0
    4.8049    1.1890   -0.5349 C   0  0  0  0  0  0  0  0  0  0  0  0
    4.7957    0.1461   -1.1808 O   0  0  0  0  0  0  0  0  0  0  0  0
    4.5809    1.2833    1.9867 C   0  0  0  0  0  0  0  0  0  0  0  0
    3.0258   -0.5255    0.1485 H   0  0  0  0  0  0  0  0  0  0  0  0
    3.3867    2.3630    0.5559 H   0  0  0  0  0  0  0  0  0  0  0  0
    5.0555    0.3032    2.0986 H   0  0  0  0  0  0  0  0  0  0  0  0
    5.3545    2.0546    2.0461 H   0  0  0  0  0  0  0  0  0  0  0  0
    3.8828    1.4293    2.8173 H   0  0  0  0  0  0  0  0  0  0  0  0
    5.6721    2.2034   -0.8957 N   0  0  0  0  0  0  0  0  0  0  0  0
    6.5710    2.1163   -2.0404 C   0  0  0  0  0  0  0  0  0  0  0  0
    5.6269    3.0717   -0.3700 H   0  0  0  0  0  0  0  0  0  0  0  0
    7.2066    1.2275   -1.9634 H   0  0  0  0  0  0  0  0  0  0  0  0
    5.9990    2.0592   -2.9725 H   0  0  0  0  0  0  0  0  0  0  0  0
    7.2168    2.9989   -2.0830 H   0  0  0  0  0  0  0  0  0  0  0  0
  1  2  2  0  0  0  0
  1  3  1  0  0  0  0
  1  7  1  0  0  0  0
  3  4  1  0  0  0  0
  3  5  1  0  0  0  0
  3  6  1  0  0  0  0
  7  8  1  0  0  0  0
  7 12  1  0  0  0  0
  8  9  1  0  0  0  0
  8 11  1  0  0  0  0
  8 13  1  0  0  0  0
  9 10  2  0  0  0  0
  9 17  1  0  0  0  0
 11 14  1  0  0  0  0
 11 15  1  0  0  0  0
 11 16  1  0  0  0  0
 17 18  1  0  0  0  0
 17 22  1  0  0  0  0
 18 19  1  0  0  0  0
 18 21  1  0  0  0  0
 18 23  1  0  0  0  0
 19 20  2  0  0  0  0
 19 27  1  0  0  0  0
 21 24  1  0  0  0  0
 21 25  1  0  0  0  0
 21 26  1  0  0  0  0
 27 28  1  0  0  0  0
 27 32  1  0  0  0  0
 28 29  1  0  0  0  0
 28 31  1  0  0  0  0
 28 33  1  0  0  0  0
 29 30  2  0  0  0  0
 29 37  1  0  0  0  0
 31 34  1  0  0  0  0
 31 35  1  0  0  0  0
 31 36  1  0  0  0  0
 37 38  1  0  0  0  0
 37 39  1  0  0  0  0
 38 40  1  0  0  0  0
 38 41  1  0  0  0  0
 38 42  1  0  0  0  0
M  END
$$$$

  -OEChem-05262215353D

 42 41  0     1  0  0  0  0  0999 V2000
   -5.6017   -0.9729    2.1335 C   0  0  0  0  0  0  0  0  0  0  0  0
   -6.0465    0.1395    1.8983 O   0  0  0  0  0  0  0  0  0  0  0  0
   -6.5466   -2.1358    2.3693 C   0  0  0  0  0  0  0  0  0  0  0  0
   -6.3369   -2.5968    3.3378 H   0  0  0  0  0  0  0  0  0  0  0  0
   -7.5829   -1.7861    2.3624 H   0  0  0  0  0  0  0  0  0  0  0  0
   -6.4208   -2.8833    1.5821 H   0  0  0  0  0  0  0  0  0  0  0  0
   -4.2397   -1.1796    2.1731 N   0  0  0  0  0  0  0  0  0  0  0  0
   -3.2360   -0.1700    1.8135 C   0  0  2  0  0  0  0  0  0  0  0  0
   -1.9551   -0.8204    1.2495 C   0  0  0  0  0  0  0  0  0  0  0  0
   -1.7887   -2.0335    1.3329 O   0  0  0  0  0  0  0  0  0  0  0  0
   -2.9148    0.6647    3.0576 C   0  0  0  0  0  0  0  0  0  0  0  0
   -3.9135   -2.1428    2.2455 H   0  0  0  0  0  0  0  0  0  0  0  0
   -3.6377    0.4864    1.0341 H   0  0  0  0  0  0  0  0  0  0  0  0
   -2.5045    0.0303    3.8495 H   0  0  0  0  0  0  0  0  0  0  0  0
   -2.1835    1.4437    2.8213 H   0  0  0  0  0  0  0  0  0  0  0  0
   -3.8220    1.1483    3.4335 H   0  0  0  0  0  0  0  0  0  0  0  0
   -0.9941   -0.0420    0.6337 N   0  0  0  0  0  0  0  0  0  0  0  0
    0.3707   -0.5104    0.3528 C   0  0  2  0  0  0  0  0  0  0  0  0
    1.4172    0.5596    0.7396 C   0  0  0  0  0  0  0  0  0  0  0  0
    1.0731    1.5489    1.3788 O   0  0  0  0  0  0  0  0  0  0  0  0
    0.4408   -0.8673   -1.1370 C   0  0  0  0  0  0  0  0  0  0  0  0
   -1.0935    0.9637    0.7691 H   0  0  0  0  0  0  0  0  0  0  0  0
    0.5993   -1.4043    0.9434 H   0  0  0  0  0  0  0  0  0  0  0  0
    0.2795    0.0231   -1.7532 H   0  0  0  0  0  0  0  0  0  0  0  0
    1.4151   -1.2961   -1.3899 H   0  0  0  0  0  0  0  0  0  0  0  0
   -0.3294   -1.6052   -1.3838 H   0  0  0  0  0  0  0  0  0  0  0  0
    2.7208    0.4706    0.2903 N   0  0  0  0  0  0  0  0  0  0  0  0
    3.6945    1.5686    0.3415 C   0  0  2  0  0  0  0  0  0  0  0  0
    4.5152    1.6391   -0.9635 C   0  0  0  0  0  0  0  0  0  0  0  0
    4.4970    0.6976   -1.7497 O   0  0  0  0  0  0  0  0  0  0  0  0
    4.6056    1.3442    1.5511 C   0  0  0  0  0  0  0  0  0  0  0  0
    2.9237   -0.2722   -0.3786 H   0  0  0  0  0  0  0  0  0  0  0  0
    3.1791    2.5283    0.4536 H   0  0  0  0  0  0  0  0  0  0  0  0
    5.1460    0.3971    1.4539 H   0  0  0  0  0  0  0  0  0  0  0  0
    5.3352    2.1547    1.6391 H   0  0  0  0  0  0  0  0  0  0  0  0
    4.0117    1.3139    2.4704 H   0  0  0  0  0  0  0  0  0  0  0  0
    5.2563    2.7652   -1.2696 N   0  0  0  0  0  0  0  0  0  0  0  0
    6.0269    2.9052   -2.4993 C   0  0  0  0  0  0  0  0  0  0  0  0
    5.2292    3.5408   -0.6140 H   0  0  0  0  0  0  0  0  0  0  0  0
    6.8049    2.1365   -2.5530 H   0  0  0  0  0  0  0  0  0  0  0  0
    5.3753    2.8087   -3.3742 H   0  0  0  0  0  0  0  0  0  0  0  0
    6.5079    3.8873   -2.5348 H   0  0  0  0  0  0  0  0  0  0  0  0
  1  2  2  0  0  0  0
  1  3  1  0  0  0  0
  1  7  1  0  0  0  0
  3  4  1  0  0  0  0
  3  5  1  0  0  0  0
  3  6  1  0  0  0  0
  7  8  1  0  0  0  0
  7 12  1  0  0  0  0
  8  9  1  0  0  0  0
  8 11  1  0  0  0  0
  8 13  1  0  0  0  0
  9 10  2  0  0  0  0
  9 17  1  0  0  0  0
 11 14  1  0  0  0  0
 11 15  1  0  0  0  0
 11 16  1  0  0  0  0
 17 18  1  0  0  0  0
 17 22  1  0  0  0  0
 18 19  1  0  0  0  0
 18 21  1  0  0  0  0
 18 23  1  0  0  0  0
 19 20  2  0  0  0  0
 19 27  1  0  0  0  0
 21 24  1  0  0  0  0
 21 25  1  0  0  0  0
 21 26  1  0  0  0  0
 27 28  1  0  0  0  0
 27 32  1  0  0  0  0
 28 29  1  0  0  0  0
 28 31  1  0  0  0  0
 28 33  1  0  0  0  0
 29 30  2  0  0  0  0
 29 37  1  0  0  0  0
 31 34  1  0  0  0  0
 31 35  1  0  0  0  0
 31 36  1  0  0  0  0
 37 38  1  0  0  0  0
 37 39  1  0  0  0  0
 38 40  1  0  0  0  0
 38 41  1  0  0  0  0
 38 42  1  0  0  0  0
M  END
$$$$

  -OEChem-05262215353D

 42 41  0     1  0  0  0  0  0999 V2000
   -5.6012   -0.9623    2.1153 C   0  0  0  0  0  0  0  0  0  0  0  0
   -6.0358    0.1501    1.8618 O   0  0  0  0  0  0  0  0  0  0  0  0
   -6.5566   -2.1176    2.3470 C   0  0  0  0  0  0  0  0  0  0  0  0
   -6.3409   -2.5926    3.3072 H   0  0  0  0  0  0  0  0  0  0  0  0
   -7.5894   -1.7576    2.3562 H   0  0  0  0  0  0  0  0  0  0  0  0
   -6.4472   -2.8564    1.5494 H   0  0  0  0  0  0  0  0  0  0  0  0
   -4.2411   -1.1764    2.1826 N   0  0  0  0  0  0  0  0  0  0  0  0
   -3.2250   -0.1766    1.8308 C   0  0  2  0  0  0  0  0  0  0  0  0
   -1.9568   -0.8345    1.2471 C   0  0  0  0  0  0  0  0  0  0  0  0
   -1.7927   -2.0477    1.3352 O   0  0  0  0  0  0  0  0  0  0  0  0
   -2.8813    0.6273    3.0888 C   0  0  0  0  0  0  0  0  0  0  0  0
   -3.9217   -2.1401    2.2751 H   0  0  0  0  0  0  0  0  0  0  0  0
   -3.6221    0.5007    1.0667 H   0  0  0  0  0  0  0  0  0  0  0  0
   -2.4684   -0.0301    3.8609 H   0  0  0  0  0  0  0  0  0  0  0  0
   -2.1441    1.4036    2.8614 H   0  0  0  0  0  0  0  0  0  0  0  0
   -3.7789    1.1118    3.4863 H   0  0  0  0  0  0  0  0  0  0  0  0
   -1.0022   -0.0593    0.6168 N   0  0  0  0  0  0  0  0  0  0  0  0
    0.3640   -0.5280    0.3418 C   0  0  2  0  0  0  0  0  0  0  0  0
    1.4053    0.5549    0.7111 C   0  0  0  0  0  0  0  0  0  0  0  0
    1.1139    1.4211    1.5289 O   0  0  0  0  0  0  0  0  0  0  0  0
    0.4270   -0.9261   -1.1382 C   0  0  0  0  0  0  0  0  0  0  0  0
   -1.1034    0.9453    0.7540 H   0  0  0  0  0  0  0  0  0  0  0  0
    0.5974   -1.4070    0.9526 H   0  0  0  0  0  0  0  0  0  0  0  0
    0.2664   -0.0530   -1.7788 H   0  0  0  0  0  0  0  0  0  0  0  0
    1.3980   -1.3675   -1.3813 H   0  0  0  0  0  0  0  0  0  0  0  0
   -0.3472   -1.6674   -1.3610 H   0  0  0  0  0  0  0  0  0  0  0  0
    2.6091    0.6531    0.0386 N   0  0  0  0  0  0  0  0  0  0  0  0
    3.4977    1.8217    0.0869 C   0  0  2  0  0  0  0  0  0  0  0  0
    4.0727    2.1357   -1.3103 C   0  0  0  0  0  0  0  0  0  0  0  0
    3.9638    1.3153   -2.2159 O   0  0  0  0  0  0  0  0  0  0  0  0
    4.6222    1.5317    1.0838 C   0  0  0  0  0  0  0  0  0  0  0  0
    2.7336    0.0357   -0.7636 H   0  0  0  0  0  0  0  0  0  0  0  0
    2.9434    2.7065    0.4176 H   0  0  0  0  0  0  0  0  0  0  0  0
    5.2071    0.6646    0.7603 H   0  0  0  0  0  0  0  0  0  0  0  0
    5.2923    2.3926    1.1684 H   0  0  0  0  0  0  0  0  0  0  0  0
    4.2043    1.3218    2.0735 H   0  0  0  0  0  0  0  0  0  0  0  0
    4.6916    3.3460   -1.5619 N   0  0  0  0  0  0  0  0  0  0  0  0
    5.2109    3.7199   -2.8719 C   0  0  0  0  0  0  0  0  0  0  0  0
    4.7433    4.0173   -0.8010 H   0  0  0  0  0  0  0  0  0  0  0  0
    6.0029    3.0299   -3.1819 H   0  0  0  0  0  0  0  0  0  0  0  0
    4.4117    3.6982   -3.6205 H   0  0  0  0  0  0  0  0  0  0  0  0
    5.6264    4.7318   -2.8400 H   0  0  0  0  0  0  0  0  0  0  0  0
  1  2  2  0  0  0  0
  1  3  1  0  0  0  0
  1  7  1  0  0  0  0
  3  4  1  0  0  0  0
  3  5  1  0  0  0  0
  3  6  1  0  0  0  0
  7  8  1  0  0  0  0
  7 12  1  0  0  0  0
  8  9  1  0  0  0  0
  8 11  1  0  0  0  0
  8 13  1  0  0  0  0
  9 10  2  0  0  0  0
  9 17  1  0  0  0  0
 11 14  1  0  0  0  0
 11 15  1  0  0  0  0
 11 16  1  0  0  0  0
 17 18  1  0  0  0  0
 17 22  1  0  0  0  0
 18 19  1  0  0  0  0
 18 21  1  0  0  0  0
 18 23  1  0  0  0  0
 19 20  2  0  0  0  0
 19 27  1  0  0  0  0
 21 24  1  0  0  0  0
 21 25  1  0  0  0  0
 21 26  1  0  0  0  0
 27 28  1  0  0  0  0
 27 32  1  0  0  0  0
 28 29  1  0  0  0  0
 28 31  1  0  0  0  0
 28 33  1  0  0  0  0
 29 30  2  0  0  0  0
 29 37  1  0  0  0  0
 31 34  1  0  0  0  0
 31 35  1  0  0  0  0
 31 36  1  0  0  0  0
 37 38  1  0  0  0  0
 37 39  1  0  0  0  0
 38 40  1  0  0  0  0
 38 41  1  0  0  0  0
 38 42  1  0  0  0  0
M  END
$$$$

  -OEChem-05262215353D

 42 41  0     1  0  0  0  0  0999 V2000
   -5.5960   -0.9657    2.1437 C   0  0  0  0  0  0  0  0  0  0  0  0
   -6.0269    0.1527    1.9111 O   0  0  0  0  0  0  0  0  0  0  0  0
   -6.5572   -2.1150    2.3797 C   0  0  0  0  0  0  0  0  0  0  0  0
   -6.3203   -2.6128    3.3230 H   0  0  0  0  0  0  0  0  0  0  0  0
   -7.5846   -1.7429    2.4271 H   0  0  0  0  0  0  0  0  0  0  0  0
   -6.4803   -2.8378    1.5639 H   0  0  0  0  0  0  0  0  0  0  0  0
   -4.2362   -1.1895    2.1793 N   0  0  0  0  0  0  0  0  0  0  0  0
   -3.2219   -0.1896    1.8236 C   0  0  2  0  0  0  0  0  0  0  0  0
   -1.9588   -0.8473    1.2297 C   0  0  0  0  0  0  0  0  0  0  0  0
   -1.7916   -2.0596    1.3199 O   0  0  0  0  0  0  0  0  0  0  0  0
   -2.8690    0.6143    3.0798 C   0  0  0  0  0  0  0  0  0  0  0  0
   -3.9198   -2.1558    2.2537 H   0  0  0  0  0  0  0  0  0  0  0  0
   -3.6241    0.4879    1.0627 H   0  0  0  0  0  0  0  0  0  0  0  0
   -2.4590   -0.0432    3.8531 H   0  0  0  0  0  0  0  0  0  0  0  0
   -2.1269    1.3850    2.8500 H   0  0  0  0  0  0  0  0  0  0  0  0
   -3.7622    1.1058    3.4783 H   0  0  0  0  0  0  0  0  0  0  0  0
   -1.0149   -0.0720    0.5836 N   0  0  0  0  0  0  0  0  0  0  0  0
    0.3550   -0.5347    0.3174 C   0  0  2  0  0  0  0  0  0  0  0  0
    1.3802    0.5689    0.6675 C   0  0  0  0  0  0  0  0  0  0  0  0
    1.1753    1.2909    1.6364 O   0  0  0  0  0  0  0  0  0  0  0  0
    0.4232   -0.9810   -1.1492 C   0  0  0  0  0  0  0  0  0  0  0  0
   -1.1272    0.9320    0.7102 H   0  0  0  0  0  0  0  0  0  0  0  0
    0.5987   -1.3934    0.9526 H   0  0  0  0  0  0  0  0  0  0  0  0
    0.2337   -0.1365   -1.8197 H   0  0  0  0  0  0  0  0  0  0  0  0
    1.4064   -1.4026   -1.3801 H   0  0  0  0  0  0  0  0  0  0  0  0
   -0.3298   -1.7522   -1.3419 H   0  0  0  0  0  0  0  0  0  0  0  0
    2.4313    0.8756   -0.1765 N   0  0  0  0  0  0  0  0  0  0  0  0
    3.2440    2.0958   -0.0872 C   0  0  2  0  0  0  0  0  0  0  0  0
    3.5676    2.6528   -1.4894 C   0  0  0  0  0  0  0  0  0  0  0  0
    3.3680    1.9637   -2.4844 O   0  0  0  0  0  0  0  0  0  0  0  0
    4.5269    1.7618    0.6778 C   0  0  0  0  0  0  0  0  0  0  0  0
    2.4530    0.3908   -1.0736 H   0  0  0  0  0  0  0  0  0  0  0  0
    2.6972    2.8762    0.4525 H   0  0  0  0  0  0  0  0  0  0  0  0
    5.0988    0.9918    0.1500 H   0  0  0  0  0  0  0  0  0  0  0  0
    5.1546    2.6516    0.7837 H   0  0  0  0  0  0  0  0  0  0  0  0
    4.2830    1.3910    1.6786 H   0  0  0  0  0  0  0  0  0  0  0  0
    4.0559    3.9377   -1.6389 N   0  0  0  0  0  0  0  0  0  0  0  0
    4.3383    4.5421   -2.9357 C   0  0  0  0  0  0  0  0  0  0  0  0
    4.1861    4.4933   -0.7982 H   0  0  0  0  0  0  0  0  0  0  0  0
    5.1179    3.9790   -3.4597 H   0  0  0  0  0  0  0  0  0  0  0  0
    3.4364    4.5572   -3.5571 H   0  0  0  0  0  0  0  0  0  0  0  0
    4.6842    5.5723   -2.8057 H   0  0  0  0  0  0  0  0  0  0  0  0
  1  2  2  0  0  0  0
  1  3  1  0  0  0  0
  1  7  1  0  0  0  0
  3  4  1  0  0  0  0
  3  5  1  0  0  0  0
  3  6  1  0  0  0  0
  7  8  1  0  0  0  0
  7 12  1  0  0  0  0
  8  9  1  0  0  0  0
  8 11  1  0  0  0  0
  8 13  1  0  0  0  0
  9 10  2  0  0  0  0
  9 17  1  0  0  0  0
 11 14  1  0  0  0  0
 11 15  1  0  0  0  0
 11 16  1  0  0  0  0
 17 18  1  0  0  0  0
 17 22  1  0  0  0  0
 18 19  1  0  0  0  0
 18 21  1  0  0  0  0
 18 23  1  0  0  0  0
 19 20  2  0  0  0  0
 19 27  1  0  0  0  0
 21 24  1  0  0  0  0
 21 25  1  0  0  0  0
 21 26  1  0  0  0  0
 27 28  1  0  0  0  0
 27 32  1  0  0  0  0
 28 29  1  0  0  0  0
 28 31  1  0  0  0  0
 28 33  1  0  0  0  0
 29 30  2  0  0  0  0
 29 37  1  0  0  0  0
 31 34  1  0  0  0  0
 31 35  1  0  0  0  0
 31 36  1  0  0  0  0
 37 38  1  0  0  0  0
 37 39  1  0  0  0  0
 38 40  1  0  0  0  0
 38 41  1  0  0  0  0
 38 42  1  0  0  0  0
M  END
$$$$

  -OEChem-05262215353D

 42 41  0     1  0  0  0  0  0999 V2000
   -5.5231   -0.9184    1.8076 C   0  0  0  0  0  0  0  0  0  0  0  0
   -5.8865    0.1222    1.2823 O   0  0  0  0  0  0  0  0  0  0  0  0
   -6.4838   -2.0876    1.9181 C   0  0  0  0  0  0  0  0  0  0  0  0
   -6.6478   -2.3367    2.9693 H   0  0  0  0  0  0  0  0  0  0  0  0
   -7.4443   -1.8312    1.4619 H   0  0  0  0  0  0  0  0  0  0  0  0
   -6.0721   -2.9601    1.4047 H   0  0  0  0  0  0  0  0  0  0  0  0
   -4.2398   -1.0437    2.2969 N   0  0  0  0  0  0  0  0  0  0  0  0
   -3.1599   -0.0829    2.0311 C   0  0  2  0  0  0  0  0  0  0  0  0
   -1.9149   -0.7769    1.4421 C   0  0  0  0  0  0  0  0  0  0  0  0
   -1.7538   -1.9842    1.5901 O   0  0  0  0  0  0  0  0  0  0  0  0
   -2.8113    0.6147    3.3480 C   0  0  0  0  0  0  0  0  0  0  0  0
   -3.9487   -1.9840    2.5600 H   0  0  0  0  0  0  0  0  0  0  0  0
   -3.4850    0.6701    1.3055 H   0  0  0  0  0  0  0  0  0  0  0  0
   -2.4734   -0.1145    4.0913 H   0  0  0  0  0  0  0  0  0  0  0  0
   -2.0140    1.3487    3.1954 H   0  0  0  0  0  0  0  0  0  0  0  0
   -3.6894    1.1350    3.7429 H   0  0  0  0  0  0  0  0  0  0  0  0
   -0.9763   -0.0377    0.7471 N   0  0  0  0  0  0  0  0  0  0  0  0
    0.3738   -0.5322    0.4407 C   0  0  2  0  0  0  0  0  0  0  0  0
    1.4354    0.5534    0.7298 C   0  0  0  0  0  0  0  0  0  0  0  0
    1.4251    1.1237    1.8133 O   0  0  0  0  0  0  0  0  0  0  0  0
    0.3735   -1.0121   -1.0170 C   0  0  0  0  0  0  0  0  0  0  0  0
   -1.0924    0.9715    0.7984 H   0  0  0  0  0  0  0  0  0  0  0  0
    0.6255   -1.3826    1.0842 H   0  0  0  0  0  0  0  0  0  0  0  0
    0.1352   -0.1881   -1.6975 H   0  0  0  0  0  0  0  0  0  0  0  0
    1.3508   -1.4236   -1.2878 H   0  0  0  0  0  0  0  0  0  0  0  0
   -0.3765   -1.7985   -1.1515 H   0  0  0  0  0  0  0  0  0  0  0  0
    2.2675    1.0346   -0.2644 N   0  0  0  0  0  0  0  0  0  0  0  0
    3.0341    2.2851   -0.1777 C   0  0  2  0  0  0  0  0  0  0  0  0
    2.8990    3.1109   -1.4741 C   0  0  0  0  0  0  0  0  0  0  0  0
    2.4587    2.5858   -2.4914 O   0  0  0  0  0  0  0  0  0  0  0  0
    4.4978    1.9278    0.0899 C   0  0  0  0  0  0  0  0  0  0  0  0
    2.0889    0.6892   -1.2071 H   0  0  0  0  0  0  0  0  0  0  0  0
    2.6618    2.9072    0.6430 H   0  0  0  0  0  0  0  0  0  0  0  0
    4.8997    1.3209   -0.7278 H   0  0  0  0  0  0  0  0  0  0  0  0
    5.1043    2.8338    0.1822 H   0  0  0  0  0  0  0  0  0  0  0  0
    4.5832    1.3591    1.0214 H   0  0  0  0  0  0  0  0  0  0  0  0
    3.2498    4.4482   -1.4960 N   0  0  0  0  0  0  0  0  0  0  0  0
    3.1014    5.2963   -2.6731 C   0  0  0  0  0  0  0  0  0  0  0  0
    3.5796    4.8633   -0.6293 H   0  0  0  0  0  0  0  0  0  0  0  0
    3.6914    4.9022   -3.5073 H   0  0  0  0  0  0  0  0  0  0  0  0
    2.0509    5.3495   -2.9785 H   0  0  0  0  0  0  0  0  0  0  0  0
    3.4485    6.3108   -2.4545 H   0  0  0  0  0  0  0  0  0  0  0  0
  1  2  2  0  0  0  0
  1  3  1  0  0  0  0
  1  7  1  0  0  0  0
  3  4  1  0  0  0  0
  3  5  1  0  0  0  0
  3  6  1  0  0  0  0
  7  8  1  0  0  0  0
  7 12  1  0  0  0  0
  8  9  1  0  0  0  0
  8 11  1  0  0  0  0
  8 13  1  0  0  0  0
  9 10  2  0  0  0  0
  9 17  1  0  0  0  0
 11 14  1  0  0  0  0
 11 15  1  0  0  0  0
 11 16  1  0  0  0  0
 17 18  1  0  0  0  0
 17 22  1  0  0  0  0
 18 19  1  0  0  0  0
 18 21  1  0  0  0  0
 18 23  1  0  0  0  0
 19 20  2  0  0  0  0
 19 27  1  0  0  0  0
 21 24  1  0  0  0  0
 21 25  1  0  0  0  0
 21 26  1  0  0  0  0
 27 28  1  0  0  0  0
 27 32  1  0  0  0  0
 28 29  1  0  0  0  0
 28 31  1  0  0  0  0
 28 33  1  0  0  0  0
 29 30  2  0  0  0  0
 29 37  1  0  0  0  0
 31 34  1  0  0  0  0
 31 35  1  0  0  0  0
 31 36  1  0  0  0  0
 37 38  1  0  0  0  0
 37 39  1  0  0  0  0
 38 40  1  0  0  0  0
 38 41  1  0  0  0  0
 38 42  1  0  0  0  0
M  END
$$$$

  -OEChem-05262215353D

 42 41  0     1  0  0  0  0  0999 V2000
   -5.6019   -0.9840    2.0183 C   0  0  0  0  0  0  0  0  0  0  0  0
   -6.0313    0.1162    1.7083 O   0  0  0  0  0  0  0  0  0  0  0  0
   -6.5595   -2.1401    2.2364 C   0  0  0  0  0  0  0  0  0  0  0  0
   -6.4452   -2.5335    3.2492 H   0  0  0  0  0  0  0  0  0  0  0  0
   -7.5917   -1.8045    2.1032 H   0  0  0  0  0  0  0  0  0  0  0  0
   -6.3528   -2.9369    1.5179 H   0  0  0  0  0  0  0  0  0  0  0  0
   -4.2449   -1.1798    2.1619 N   0  0  0  0  0  0  0  0  0  0  0  0
   -3.2242   -0.1740    1.8416 C   0  0  2  0  0  0  0  0  0  0  0  0
   -1.9249   -0.8230    1.3216 C   0  0  0  0  0  0  0  0  0  0  0  0
   -1.7299   -2.0240    1.4782 O   0  0  0  0  0  0  0  0  0  0  0  0
   -2.9430    0.6481    3.1032 C   0  0  0  0  0  0  0  0  0  0  0  0
   -3.9186   -2.1352    2.3036 H   0  0  0  0  0  0  0  0  0  0  0  0
   -3.5946    0.4893    1.0526 H   0  0  0  0  0  0  0  0  0  0  0  0
   -2.5674    0.0026    3.9038 H   0  0  0  0  0  0  0  0  0  0  0  0
   -2.1961    1.4219    2.9011 H   0  0  0  0  0  0  0  0  0  0  0  0
   -3.8594    1.1365    3.4499 H   0  0  0  0  0  0  0  0  0  0  0  0
   -0.9878   -0.0567    0.6532 N   0  0  0  0  0  0  0  0  0  0  0  0
    0.3879   -0.5082    0.3957 C   0  0  2  0  0  0  0  0  0  0  0  0
    1.4086    0.6075    0.7097 C   0  0  0  0  0  0  0  0  0  0  0  0
    1.5525    0.9851    1.8643 O   0  0  0  0  0  0  0  0  0  0  0  0
    0.4606   -1.0038   -1.0544 C   0  0  0  0  0  0  0  0  0  0  0  0
   -1.1526    0.9467    0.6659 H   0  0  0  0  0  0  0  0  0  0  0  0
    0.6435   -1.3441    1.0572 H   0  0  0  0  0  0  0  0  0  0  0  0
    0.1749   -0.2106   -1.7528 H   0  0  0  0  0  0  0  0  0  0  0  0
    1.4750   -1.3385   -1.2934 H   0  0  0  0  0  0  0  0  0  0  0  0
   -0.2209   -1.8491   -1.1959 H   0  0  0  0  0  0  0  0  0  0  0  0
    2.0315    1.3105   -0.3052 N   0  0  0  0  0  0  0  0  0  0  0  0
    2.7518    2.5784   -0.1273 C   0  0  2  0  0  0  0  0  0  0  0  0
    2.3616    3.5978   -1.2187 C   0  0  0  0  0  0  0  0  0  0  0  0
    1.7043    3.2345   -2.1887 O   0  0  0  0  0  0  0  0  0  0  0  0
    4.2518    2.2767   -0.1717 C   0  0  0  0  0  0  0  0  0  0  0  0
    1.7069    1.1140   -1.2516 H   0  0  0  0  0  0  0  0  0  0  0  0
    2.5040    3.0279    0.8400 H   0  0  0  0  0  0  0  0  0  0  0  0
    4.5293    1.8571   -1.1440 H   0  0  0  0  0  0  0  0  0  0  0  0
    4.8339    3.1881   -0.0062 H   0  0  0  0  0  0  0  0  0  0  0  0
    4.5138    1.5539    0.6076 H   0  0  0  0  0  0  0  0  0  0  0  0
    2.7332    4.9253   -1.1103 N   0  0  0  0  0  0  0  0  0  0  0  0
    2.3609    5.9420   -2.0871 C   0  0  0  0  0  0  0  0  0  0  0  0
    3.2526    5.2044   -0.2828 H   0  0  0  0  0  0  0  0  0  0  0  0
    2.7014    5.6570   -3.0882 H   0  0  0  0  0  0  0  0  0  0  0  0
    1.2738    6.0719   -2.1085 H   0  0  0  0  0  0  0  0  0  0  0  0
    2.8196    6.9014   -1.8288 H   0  0  0  0  0  0  0  0  0  0  0  0
  1  2  2  0  0  0  0
  1  3  1  0  0  0  0
  1  7  1  0  0  0  0
  3  4  1  0  0  0  0
  3  5  1  0  0  0  0
  3  6  1  0  0  0  0
  7  8  1  0  0  0  0
  7 12  1  0  0  0  0
  8  9  1  0  0  0  0
  8 11  1  0  0  0  0
  8 13  1  0  0  0  0
  9 10  2  0  0  0  0
  9 17  1  0  0  0  0
 11 14  1  0  0  0  0
 11 15  1  0  0  0  0
 11 16  1  0  0  0  0
 17 18  1  0  0  0  0
 17 22  1  0  0  0  0
 18 19  1  0  0  0  0
 18 21  1  0  0  0  0
 18 23  1  0  0  0  0
 19 20  2  0  0  0  0
 19 27  1  0  0  0  0
 21 24  1  0  0  0  0
 21 25  1  0  0  0  0
 21 26  1  0  0  0  0
 27 28  1  0  0  0  0
 27 32  1  0  0  0  0
 28 29  1  0  0  0  0
 28 31  1  0  0  0  0
 28 33  1  0  0  0  0
 29 30  2  0  0  0  0
 29 37  1  0  0  0  0
 31 34  1  0  0  0  0
 31 35  1  0  0  0  0
 31 36  1  0  0  0  0
 37 38  1  0  0  0  0
 37 39  1  0  0  0  0
 38 40  1  0  0  0  0
 38 41  1  0  0  0  0
 38 42  1  0  0  0  0
M  END
$$$$

  -OEChem-05262215353D

 42 41  0     1  0  0  0  0  0999 V2000
   -5.5859   -0.9411    1.9985 C   0  0  0  0  0  0  0  0  0  0  0  0
   -6.0667    0.0867    1.5478 O   0  0  0  0  0  0  0  0  0  0  0  0
   -6.4876   -2.0988    2.3848 C   0  0  0  0  0  0  0  0  0  0  0  0
   -6.3071   -2.3830    3.4243 H   0  0  0  0  0  0  0  0  0  0  0  0
   -7.5373   -1.8119    2.2761 H   0  0  0  0  0  0  0  0  0  0  0  0
   -6.2879   -2.9579    1.7395 H   0  0  0  0  0  0  0  0  0  0  0  0
   -4.2201   -1.0608    2.1411 N   0  0  0  0  0  0  0  0  0  0  0  0
   -3.2428   -0.0846    1.6427 C   0  0  2  0  0  0  0  0  0  0  0  0
   -1.9104   -0.7658    1.2621 C   0  0  0  0  0  0  0  0  0  0  0  0
   -1.7335   -1.9525    1.5185 O   0  0  0  0  0  0  0  0  0  0  0  0
   -3.0217    0.9762    2.7265 C   0  0  0  0  0  0  0  0  0  0  0  0
   -3.8554   -1.9782    2.3968 H   0  0  0  0  0  0  0  0  0  0  0  0
   -3.6319    0.3979    0.7396 H   0  0  0  0  0  0  0  0  0  0  0  0
   -2.6206    0.5166    3.6355 H   0  0  0  0  0  0  0  0  0  0  0  0
   -2.3185    1.7408    2.3830 H   0  0  0  0  0  0  0  0  0  0  0  0
   -3.9685    1.4675    2.9731 H   0  0  0  0  0  0  0  0  0  0  0  0
   -0.9227   -0.0565    0.6024 N   0  0  0  0  0  0  0  0  0  0  0  0
    0.4499   -0.5538    0.4183 C   0  0  2  0  0  0  0  0  0  0  0  0
    1.4914    0.5420    0.7272 C   0  0  0  0  0  0  0  0  0  0  0  0
    1.8151    0.7631    1.8855 O   0  0  0  0  0  0  0  0  0  0  0  0
    0.5673   -1.1047   -1.0083 C   0  0  0  0  0  0  0  0  0  0  0  0
   -1.0887    0.9398    0.4819 H   0  0  0  0  0  0  0  0  0  0  0  0
    0.6560   -1.3707    1.1197 H   0  0  0  0  0  0  0  0  0  0  0  0
    0.3306   -0.3336   -1.7481 H   0  0  0  0  0  0  0  0  0  0  0  0
    1.5815   -1.4725   -1.1933 H   0  0  0  0  0  0  0  0  0  0  0  0
   -0.1303   -1.9373   -1.1452 H   0  0  0  0  0  0  0  0  0  0  0  0
    1.9390    1.3878   -0.2712 N   0  0  0  0  0  0  0  0  0  0  0  0
    2.5808    2.6874   -0.0251 C   0  0  2  0  0  0  0  0  0  0  0  0
    1.7632    3.8361   -0.6524 C   0  0  0  0  0  0  0  0  0  0  0  0
    0.8682    3.5848   -1.4534 O   0  0  0  0  0  0  0  0  0  0  0  0
    3.9911    2.6342   -0.6164 C   0  0  0  0  0  0  0  0  0  0  0  0
    1.4532    1.3012   -1.1626 H   0  0  0  0  0  0  0  0  0  0  0  0
    2.6574    2.8894    1.0483 H   0  0  0  0  0  0  0  0  0  0  0  0
    3.9493    2.4679   -1.6976 H   0  0  0  0  0  0  0  0  0  0  0  0
    4.5220    3.5722   -0.4280 H   0  0  0  0  0  0  0  0  0  0  0  0
    4.5602    1.8185   -0.1593 H   0  0  0  0  0  0  0  0  0  0  0  0
    2.0246    5.1515   -0.3172 N   0  0  0  0  0  0  0  0  0  0  0  0
    1.2871    6.2800   -0.8723 C   0  0  0  0  0  0  0  0  0  0  0  0
    2.7525    5.3283    0.3694 H   0  0  0  0  0  0  0  0  0  0  0  0
    1.4021    6.3140   -1.9609 H   0  0  0  0  0  0  0  0  0  0  0  0
    0.2216    6.1976   -0.6329 H   0  0  0  0  0  0  0  0  0  0  0  0
    1.6629    7.2196   -0.4558 H   0  0  0  0  0  0  0  0  0  0  0  0
  1  2  2  0  0  0  0
  1  3  1  0  0  0  0
  1  7  1  0  0  0  0
  3  4  1  0  0  0  0
  3  5  1  0  0  0  0
  3  6  1  0  0  0  0
  7  8  1  0  0  0  0
  7 12  1  0  0  0  0
  8  9  1  0  0  0  0
  8 11  1  0  0  0  0
  8 13  1  0  0  0  0
  9 10  2  0  0  0  0
  9 17  1  0  0  0  0
 11 14  1  0  0  0  0
 11 15  1  0  0  0  0
 11 16  1  0  0  0  0
 17 18  1  0  0  0  0
 17 22  1  0  0  0  0
 18 19  1  0  0  0  0
 18 21  1  0  0  0  0
 18 23  1  0  0  0  0
 19 20  2  0  0  0  0
 19 27  1  0  0  0  0
 21 24  1  0  0  0  0
 21 25  1  0  0  0  0
 21 26  1  0  0  0  0
 27 28  1  0  0  0  0
 27 32  1  0  0  0  0
 28 29  1  0  0  0  0
 28 31  1  0  0  0  0
 28 33  1  0  0  0  0
 29 30  2  0  0  0  0
 29 37  1  0  0  0  0
 31 34  1  0  0  0  0
 31 35  1  0  0  0  0
 31 36  1  0  0  0  0
 37 38  1  0  0  0  0
 37 39  1  0  0  0  0
 38 40  1  0  0  0  0
 38 41  1  0  0  0  0
 38 42  1  0  0  0  0
M  END
$$$$

  -OEChem-05262215353D

 42 41  0     1  0  0  0  0  0999 V2000
   -5.3008   -0.2025    1.7060 C   0  0  0  0  0  0  0  0  0  0  0  0
   -5.6172    0.7970    1.0802 O   0  0  0  0  0  0  0  0  0  0  0  0
   -6.3689   -1.1744    2.1713 C   0  0  0  0  0  0  0  0  0  0  0  0
   -6.4004   -1.1985    3.2631 H   0  0  0  0  0  0  0  0  0  0  0  0
   -7.3484   -0.8643    1.7967 H   0  0  0  0  0  0  0  0  0  0  0  0
   -6.1514   -2.1780    1.7977 H   0  0  0  0  0  0  0  0  0  0  0  0
   -3.9751   -0.4545    1.9878 N   0  0  0  0  0  0  0  0  0  0  0  0
   -2.8494    0.3292    1.4623 C   0  0  2  0  0  0  0  0  0  0  0  0
   -1.5890   -0.5420    1.2750 C   0  0  0  0  0  0  0  0  0  0  0  0
   -1.5424   -1.6749    1.7449 O   0  0  0  0  0  0  0  0  0  0  0  0
   -2.5651    1.4819    2.4310 C   0  0  0  0  0  0  0  0  0  0  0  0
   -3.7466   -1.3561    2.4051 H   0  0  0  0  0  0  0  0  0  0  0  0
   -3.1097    0.7408    0.4811 H   0  0  0  0  0  0  0  0  0  0  0  0
   -2.2910    1.0942    3.4173 H   0  0  0  0  0  0  0  0  0  0  0  0
   -1.7436    2.1022    2.0602 H   0  0  0  0  0  0  0  0  0  0  0  0
   -3.4516    2.1149    2.5381 H   0  0  0  0  0  0  0  0  0  0  0  0
   -0.5094   -0.0513    0.5682 N   0  0  0  0  0  0  0  0  0  0  0  0
    0.8322   -0.6537    0.5938 C   0  0  2  0  0  0  0  0  0  0  0  0
    1.8790    0.4633    0.7544 C   0  0  0  0  0  0  0  0  0  0  0  0
    2.2211    0.8314    1.8703 O   0  0  0  0  0  0  0  0  0  0  0  0
    1.0301   -1.4804   -0.6806 C   0  0  0  0  0  0  0  0  0  0  0  0
   -0.5734    0.9370    0.3000 H   0  0  0  0  0  0  0  0  0  0  0  0
    0.9413   -1.3166    1.4602 H   0  0  0  0  0  0  0  0  0  0  0  0
    0.8686   -0.8703   -1.5742 H   0  0  0  0  0  0  0  0  0  0  0  0
    2.0432   -1.8929   -0.7130 H   0  0  0  0  0  0  0  0  0  0  0  0
    0.3181   -2.3117   -0.6986 H   0  0  0  0  0  0  0  0  0  0  0  0
    2.1680    1.2640   -0.3367 N   0  0  0  0  0  0  0  0  0  0  0  0
    2.2910    2.7156   -0.1445 C   0  0  2  0  0  0  0  0  0  0  0  0
    0.9136    3.3619    0.1447 C   0  0  0  0  0  0  0  0  0  0  0  0
   -0.1226    2.7715   -0.1580 O   0  0  0  0  0  0  0  0  0  0  0  0
    2.9105    3.3082   -1.4116 C   0  0  0  0  0  0  0  0  0  0  0  0
    1.6719    0.9806   -1.1773 H   0  0  0  0  0  0  0  0  0  0  0  0
    2.9578    2.9264    0.6989 H   0  0  0  0  0  0  0  0  0  0  0  0
    2.2644    3.1270   -2.2765 H   0  0  0  0  0  0  0  0  0  0  0  0
    3.0483    4.3882   -1.3013 H   0  0  0  0  0  0  0  0  0  0  0  0
    3.8876    2.8537   -1.6034 H   0  0  0  0  0  0  0  0  0  0  0  0
    0.8291    4.5995    0.7538 N   0  0  0  0  0  0  0  0  0  0  0  0
   -0.4367    5.2197    1.1294 C   0  0  0  0  0  0  0  0  0  0  0  0
    1.6945    5.0181    1.0830 H   0  0  0  0  0  0  0  0  0  0  0  0
   -1.0941    5.3115    0.2582 H   0  0  0  0  0  0  0  0  0  0  0  0
   -0.9449    4.6214    1.8928 H   0  0  0  0  0  0  0  0  0  0  0  0
   -0.2630    6.2218    1.5336 H   0  0  0  0  0  0  0  0  0  0  0  0
  1  2  2  0  0  0  0
  1  3  1  0  0  0  0
  1  7  1  0  0  0  0
  3  4  1  0  0  0  0
  3  5  1  0  0  0  0
  3  6  1  0  0  0  0
  7  8  1  0  0  0  0
  7 12  1  0  0  0  0
  8  9  1  0  0  0  0
  8 11  1  0  0  0  0
  8 13  1  0  0  0  0
  9 10  2  0  0  0  0
  9 17  1  0  0  0  0
 11 14  1  0  0  0  0
 11 15  1  0  0  0  0
 11 16  1  0  0  0  0
 17 18  1  0  0  0  0
 17 22  1  0  0  0  0
 18 19  1  0  0  0  0
 18 21  1  0  0  0  0
 18 23  1  0  0  0  0
 19 20  2  0  0  0  0
 19 27  1  0  0  0  0
 21 24  1  0  0  0  0
 21 25  1  0  0  0  0
 21 26  1  0  0  0  0
 27 28  1  0  0  0  0
 27 32  1  0  0  0  0
 28 29  1  0  0  0  0
 28 31  1  0  0  0  0
 28 33  1  0  0  0  0
 29 30  2  0  0  0  0
 29 37  1  0  0  0  0
 31 34  1  0  0  0  0
 31 35  1  0  0  0  0
 31 36  1  0  0  0  0
 37 38  1  0  0  0  0
 37 39  1  0  0  0  0
 38 40  1  0  0  0  0
 38 41  1  0  0  0  0
 38 42  1  0  0  0  0
M  END
$$$$

  -OEChem-05262215353D

 42 41  0     1  0  0  0  0  0999 V2000
   -5.3374   -0.2000    1.7580 C   0  0  0  0  0  0  0  0  0  0  0  0
   -5.6418    0.8656    1.2458 O   0  0  0  0  0  0  0  0  0  0  0  0
   -6.4153   -1.2054    2.1185 C   0  0  0  0  0  0  0  0  0  0  0  0
   -6.3855   -1.4156    3.1904 H   0  0  0  0  0  0  0  0  0  0  0  0
   -7.4021   -0.8079    1.8649 H   0  0  0  0  0  0  0  0  0  0  0  0
   -6.2577   -2.1357    1.5674 H   0  0  0  0  0  0  0  0  0  0  0  0
   -4.0153   -0.4968    2.0108 N   0  0  0  0  0  0  0  0  0  0  0  0
   -2.8779    0.3362    1.5996 C   0  0  2  0  0  0  0  0  0  0  0  0
   -1.6321   -0.5227    1.2950 C   0  0  0  0  0  0  0  0  0  0  0  0
   -1.5714   -1.6824    1.6922 O   0  0  0  0  0  0  0  0  0  0  0  0
   -2.5812    1.3307    2.7260 C   0  0  0  0  0  0  0  0  0  0  0  0
   -3.7974   -1.4388    2.3336 H   0  0  0  0  0  0  0  0  0  0  0  0
   -3.1284    0.8878    0.6868 H   0  0  0  0  0  0  0  0  0  0  0  0
   -2.3376    0.7991    3.6513 H   0  0  0  0  0  0  0  0  0  0  0  0
   -1.7359    1.9719    2.4613 H   0  0  0  0  0  0  0  0  0  0  0  0
   -3.4526    1.9677    2.9074 H   0  0  0  0  0  0  0  0  0  0  0  0
   -0.5850    0.0034    0.5630 N   0  0  0  0  0  0  0  0  0  0  0  0
    0.7639   -0.5903    0.5543 C   0  0  2  0  0  0  0  0  0  0  0  0
    1.8250    0.5139    0.7043 C   0  0  0  0  0  0  0  0  0  0  0  0
    2.3841    0.6936    1.7773 O   0  0  0  0  0  0  0  0  0  0  0  0
    0.9432   -1.3854   -0.7423 C   0  0  0  0  0  0  0  0  0  0  0  0
   -0.6528    1.0133    0.3956 H   0  0  0  0  0  0  0  0  0  0  0  0
    0.8913   -1.2714    1.4041 H   0  0  0  0  0  0  0  0  0  0  0  0
    0.7944   -0.7468   -1.6180 H   0  0  0  0  0  0  0  0  0  0  0  0
    1.9482   -1.8163   -0.7885 H   0  0  0  0  0  0  0  0  0  0  0  0
    0.2154   -2.2023   -0.7823 H   0  0  0  0  0  0  0  0  0  0  0  0
    1.8718    1.5061   -0.2586 N   0  0  0  0  0  0  0  0  0  0  0  0
    2.0175    2.9126    0.1379 C   0  0  2  0  0  0  0  0  0  0  0  0
    0.6636    3.4896    0.6127 C   0  0  0  0  0  0  0  0  0  0  0  0
   -0.3842    2.9219    0.3075 O   0  0  0  0  0  0  0  0  0  0  0  0
    2.5453    3.6887   -1.0701 C   0  0  0  0  0  0  0  0  0  0  0  0
    1.2293    1.3412   -1.0294 H   0  0  0  0  0  0  0  0  0  0  0  0
    2.7425    3.0078    0.9537 H   0  0  0  0  0  0  0  0  0  0  0  0
    1.8362    3.6331   -1.9025 H   0  0  0  0  0  0  0  0  0  0  0  0
    2.6970    4.7413   -0.8121 H   0  0  0  0  0  0  0  0  0  0  0  0
    3.5029    3.2722   -1.3987 H   0  0  0  0  0  0  0  0  0  0  0  0
    0.6137    4.6340    1.3853 N   0  0  0  0  0  0  0  0  0  0  0  0
   -0.6275    5.1871    1.9151 C   0  0  0  0  0  0  0  0  0  0  0  0
    1.4974    5.0284    1.6959 H   0  0  0  0  0  0  0  0  0  0  0  0
   -1.3368    5.3874    1.1049 H   0  0  0  0  0  0  0  0  0  0  0  0
   -1.0872    4.4885    2.6217 H   0  0  0  0  0  0  0  0  0  0  0  0
   -0.4296    6.1280    2.4375 H   0  0  0  0  0  0  0  0  0  0  0  0
  1  2  2  0  0  0  0
  1  3  1  0  0  0  0
  1  7  1  0  0  0  0
  3  4  1  0  0  0  0
  3  5  1  0  0  0  0
  3  6  1  0  0  0  0
  7  8  1  0  0  0  0
  7 12  1  0  0  0  0
  8  9  1  0  0  0  0
  8 11  1  0  0  0  0
  8 13  1  0  0  0  0
  9 10  2  0  0  0  0
  9 17  1  0  0  0  0
 11 14  1  0  0  0  0
 11 15  1  0  0  0  0
 11 16  1  0  0  0  0
 17 18  1  0  0  0  0
 17 22  1  0  0  0  0
 18 19  1  0  0  0  0
 18 21  1  0  0  0  0
 18 23  1  0  0  0  0
 19 20  2  0  0  0  0
 19 27  1  0  0  0  0
 21 24  1  0  0  0  0
 21 25  1  0  0  0  0
 21 26  1  0  0  0  0
 27 28  1  0  0  0  0
 27 32  1  0  0  0  0
 28 29  1  0  0  0  0
 28 31  1  0  0  0  0
 28 33  1  0  0  0  0
 29 30  2  0  0  0  0
 29 37  1  0  0  0  0
 31 34  1  0  0  0  0
 31 35  1  0  0  0  0
 31 36  1  0  0  0  0
 37 38  1  0  0  0  0
 37 39  1  0  0  0  0
 38 40  1  0  0  0  0
 38 41  1  0  0  0  0
 38 42  1  0  0  0  0
M  END
$$$$

  -OEChem-05262215353D

 42 41  0     1  0  0  0  0  0999 V2000
   -5.3236   -0.1941    1.8669 C   0  0  0  0  0  0  0  0  0  0  0  0
   -5.6032    0.9230    1.4619 O   0  0  0  0  0  0  0  0  0  0  0  0
   -6.4169   -1.2282    2.0591 C   0  0  0  0  0  0  0  0  0  0  0  0
   -6.4896   -1.5036    3.1141 H   0  0  0  0  0  0  0  0  0  0  0  0
   -7.3794   -0.8245    1.7327 H   0  0  0  0  0  0  0  0  0  0  0  0
   -6.1926   -2.1216    1.4712 H   0  0  0  0  0  0  0  0  0  0  0  0
   -4.0148   -0.5267    2.1422 N   0  0  0  0  0  0  0  0  0  0  0  0
   -2.8567    0.3283    1.8514 C   0  0  2  0  0  0  0  0  0  0  0  0
   -1.6429   -0.5118    1.4023 C   0  0  0  0  0  0  0  0  0  0  0  0
   -1.5556   -1.6875    1.7430 O   0  0  0  0  0  0  0  0  0  0  0  0
   -2.5226    1.1185    3.1189 C   0  0  0  0  0  0  0  0  0  0  0  0
   -3.8163   -1.4998    2.3709 H   0  0  0  0  0  0  0  0  0  0  0  0
   -3.0934    1.0275    1.0417 H   0  0  0  0  0  0  0  0  0  0  0  0
   -2.3104    0.4377    3.9494 H   0  0  0  0  0  0  0  0  0  0  0  0
   -1.6462    1.7519    2.9570 H   0  0  0  0  0  0  0  0  0  0  0  0
   -3.3655    1.7587    3.3973 H   0  0  0  0  0  0  0  0  0  0  0  0
   -0.6593    0.0430    0.6043 N   0  0  0  0  0  0  0  0  0  0  0  0
    0.6961   -0.5369    0.5185 C   0  0  2  0  0  0  0  0  0  0  0  0
    1.7745    0.5584    0.6041 C   0  0  0  0  0  0  0  0  0  0  0  0
    2.5720    0.5692    1.5308 O   0  0  0  0  0  0  0  0  0  0  0  0
    0.8078   -1.3155   -0.7946 C   0  0  0  0  0  0  0  0  0  0  0  0
   -0.7360    1.0620    0.5209 H   0  0  0  0  0  0  0  0  0  0  0  0
    0.8739   -1.2257    1.3528 H   0  0  0  0  0  0  0  0  0  0  0  0
    0.6236   -0.6618   -1.6527 H   0  0  0  0  0  0  0  0  0  0  0  0
    1.8071   -1.7510   -0.8934 H   0  0  0  0  0  0  0  0  0  0  0  0
    0.0740   -2.1279   -0.8128 H   0  0  0  0  0  0  0  0  0  0  0  0
    1.5953    1.7039   -0.1497 N   0  0  0  0  0  0  0  0  0  0  0  0
    1.7879    3.0357    0.4371 C   0  0  2  0  0  0  0  0  0  0  0  0
    0.4745    3.5289    1.0843 C   0  0  0  0  0  0  0  0  0  0  0  0
   -0.5877    2.9787    0.7979 O   0  0  0  0  0  0  0  0  0  0  0  0
    2.2362    3.9811   -0.6789 C   0  0  0  0  0  0  0  0  0  0  0  0
    0.8191    1.6334   -0.8031 H   0  0  0  0  0  0  0  0  0  0  0  0
    2.5668    3.0137    1.2068 H   0  0  0  0  0  0  0  0  0  0  0  0
    1.4725    4.0442   -1.4610 H   0  0  0  0  0  0  0  0  0  0  0  0
    2.4115    4.9859   -0.2826 H   0  0  0  0  0  0  0  0  0  0  0  0
    3.1667    3.6195   -1.1282 H   0  0  0  0  0  0  0  0  0  0  0  0
    0.4773    4.5703    1.9922 N   0  0  0  0  0  0  0  0  0  0  0  0
   -0.7242    5.0481    2.6670 C   0  0  0  0  0  0  0  0  0  0  0  0
    1.3773    4.9604    2.2578 H   0  0  0  0  0  0  0  0  0  0  0  0
   -1.4728    5.3715    1.9360 H   0  0  0  0  0  0  0  0  0  0  0  0
   -1.1572    4.2570    3.2879 H   0  0  0  0  0  0  0  0  0  0  0  0
   -0.4824    5.8991    3.3111 H   0  0  0  0  0  0  0  0  0  0  0  0
  1  2  2  0  0  0  0
  1  3  1  0  0  0  0
  1  7  1  0  0  0  0
  3  4  1  0  0  0  0
  3  5  1  0  0  0  0
  3  6  1  0  0  0  0
  7  8  1  0  0  0  0
  7 12  1  0  0  0  0
  8  9  1  0  0  0  0
  8 11  1  0  0  0  0
  8 13  1  0  0  0  0
  9 10  2  0  0  0  0
  9 17  1  0  0  0  0
 11 14  1  0  0  0  0
 11 15  1  0  0  0  0
 11 16  1  0  0  0  0
 17 18  1  0  0  0  0
 17 22  1  0  0  0  0
 18 19  1  0  0  0  0
 18 21  1  0  0  0  0
 18 23  1  0  0  0  0
 19 20  2  0  0  0  0
 19 27  1  0  0  0  0
 21 24  1  0  0  0  0
 21 25  1  0  0  0  0
 21 26  1  0  0  0  0
 27 28  1  0  0  0  0
 27 32  1  0  0  0  0
 28 29  1  0  0  0  0
 28 31  1  0  0  0  0
 28 33  1  0  0  0  0
 29 30  2  0  0  0  0
 29 37  1  0  0  0  0
 31 34  1  0  0  0  0
 31 35  1  0  0  0  0
 31 36  1  0  0  0  0
 37 38  1  0  0  0  0
 37 39  1  0  0  0  0
 38 40  1  0  0  0  0
 38 41  1  0  0  0  0
 38 42  1  0  0  0  0
M  END
$$$$

  -OEChem-05262215353D

 42 41  0     1  0  0  0  0  0999 V2000
   -5.2551   -0.1758    2.1162 C   0  0  0  0  0  0  0  0  0  0  0  0
   -5.4980    0.9993    1.8919 O   0  0  0  0  0  0  0  0  0  0  0  0
   -6.3887   -1.1786    2.2215 C   0  0  0  0  0  0  0  0  0  0  0  0
   -6.3333   -1.7065    3.1765 H   0  0  0  0  0  0  0  0  0  0  0  0
   -7.3523   -0.6655    2.1583 H   0  0  0  0  0  0  0  0  0  0  0  0
   -6.3211   -1.9043    1.4073 H   0  0  0  0  0  0  0  0  0  0  0  0
   -3.9520   -0.5997    2.2662 N   0  0  0  0  0  0  0  0  0  0  0  0
   -2.7692    0.2462    2.0610 C   0  0  2  0  0  0  0  0  0  0  0  0
   -1.6065   -0.5561    1.4413 C   0  0  0  0  0  0  0  0  0  0  0  0
   -1.4826   -1.7479    1.7042 O   0  0  0  0  0  0  0  0  0  0  0  0
   -2.3559    0.8189    3.4194 C   0  0  0  0  0  0  0  0  0  0  0  0
   -3.7896   -1.5999    2.3728 H   0  0  0  0  0  0  0  0  0  0  0  0
   -3.0061    1.0703    1.3789 H   0  0  0  0  0  0  0  0  0  0  0  0
   -2.1491    0.0115    4.1290 H   0  0  0  0  0  0  0  0  0  0  0  0
   -1.4553    1.4309    3.3210 H   0  0  0  0  0  0  0  0  0  0  0  0
   -3.1573    1.4448    3.8241 H   0  0  0  0  0  0  0  0  0  0  0  0
   -0.7030    0.0557    0.5908 N   0  0  0  0  0  0  0  0  0  0  0  0
    0.6611   -0.4834    0.3983 C   0  0  2  0  0  0  0  0  0  0  0  0
    1.7374    0.6203    0.4349 C   0  0  0  0  0  0  0  0  0  0  0  0
    2.7353    0.4806    1.1269 O   0  0  0  0  0  0  0  0  0  0  0  0
    0.6978   -1.2149   -0.9447 C   0  0  0  0  0  0  0  0  0  0  0  0
   -0.8045    1.0747    0.5888 H   0  0  0  0  0  0  0  0  0  0  0  0
    0.9079   -1.1946    1.1957 H   0  0  0  0  0  0  0  0  0  0  0  0
    0.4661   -0.5302   -1.7662 H   0  0  0  0  0  0  0  0  0  0  0  0
    1.6900   -1.6442   -1.1157 H   0  0  0  0  0  0  0  0  0  0  0  0
   -0.0353   -2.0278   -0.9504 H   0  0  0  0  0  0  0  0  0  0  0  0
    1.3930    1.8874    0.0025 N   0  0  0  0  0  0  0  0  0  0  0  0
    1.6238    3.0753    0.8333 C   0  0  2  0  0  0  0  0  0  0  0  0
    0.3138    3.4668    1.5525 C   0  0  0  0  0  0  0  0  0  0  0  0
   -0.7438    2.9431    1.2047 O   0  0  0  0  0  0  0  0  0  0  0  0
    2.1097    4.2036   -0.0783 C   0  0  0  0  0  0  0  0  0  0  0  0
    0.5201    1.9070   -0.5196 H   0  0  0  0  0  0  0  0  0  0  0  0
    2.3893    2.8830    1.5930 H   0  0  0  0  0  0  0  0  0  0  0  0
    1.3570    4.4356   -0.8388 H   0  0  0  0  0  0  0  0  0  0  0  0
    2.3077    5.1090    0.5033 H   0  0  0  0  0  0  0  0  0  0  0  0
    3.0353    3.9079   -0.5826 H   0  0  0  0  0  0  0  0  0  0  0  0
    0.3128    4.3731    2.5951 N   0  0  0  0  0  0  0  0  0  0  0  0
   -0.8921    4.7535    3.3242 C   0  0  0  0  0  0  0  0  0  0  0  0
    1.2073    4.7554    2.8901 H   0  0  0  0  0  0  0  0  0  0  0  0
   -1.6501    5.1451    2.6371 H   0  0  0  0  0  0  0  0  0  0  0  0
   -1.3096    3.8912    3.8540 H   0  0  0  0  0  0  0  0  0  0  0  0
   -0.6602    5.5307    4.0589 H   0  0  0  0  0  0  0  0  0  0  0  0
  1  2  2  0  0  0  0
  1  3  1  0  0  0  0
  1  7  1  0  0  0  0
  3  4  1  0  0  0  0
  3  5  1  0  0  0  0
  3  6  1  0  0  0  0
  7  8  1  0  0  0  0
  7 12  1  0  0  0  0
  8  9  1  0  0  0  0
  8 11  1  0  0  0  0
  8 13  1  0  0  0  0
  9 10  2  0  0  0  0
  9 17  1  0  0  0  0
 11 14  1  0  0  0  0
 11 15  1  0  0  0  0
 11 16  1  0  0  0  0
 17 18  1  0  0  0  0
 17 22  1  0  0  0  0
 18 19  1  0  0  0  0
 18 21  1  0  0  0  0
 18 23  1  0  0  0  0
 19 20  2  0  0  0  0
 19 27  1  0  0  0  0
 21 24  1  0  0  0  0
 21 25  1  0  0  0  0
 21 26  1  0  0  0  0
 27 28  1  0  0  0  0
 27 32  1  0  0  0  0
 28 29  1  0  0  0  0
 28 31  1  0  0  0  0
 28 33  1  0  0  0  0
 29 30  2  0  0  0  0
 29 37  1  0  0  0  0
 31 34  1  0  0  0  0
 31 35  1  0  0  0  0
 31 36  1  0  0  0  0
 37 38  1  0  0  0  0
 37 39  1  0  0  0  0
 38 40  1  0  0  0  0
 38 41  1  0  0  0  0
 38 42  1  0  0  0  0
M  END
$$$$

  -OEChem-05262215353D

 42 41  0     1  0  0  0  0  0999 V2000
   -5.6373   -1.4469    1.6983 C   0  0  0  0  0  0  0  0  0  0  0  0
   -6.1352   -0.5862    0.9897 O   0  0  0  0  0  0  0  0  0  0  0  0
   -6.4036   -2.7215    1.9978 C   0  0  0  0  0  0  0  0  0  0  0  0
   -6.6017   -2.7930    3.0701 H   0  0  0  0  0  0  0  0  0  0  0  0
   -7.3569   -2.7229    1.4619 H   0  0  0  0  0  0  0  0  0  0  0  0
   -5.8218   -3.5911    1.6822 H   0  0  0  0  0  0  0  0  0  0  0  0
   -4.3743   -1.2693    2.2226 N   0  0  0  0  0  0  0  0  0  0  0  0
   -3.4706   -0.1746    1.8457 C   0  0  2  0  0  0  0  0  0  0  0  0
   -2.0388   -0.6839    1.5819 C   0  0  0  0  0  0  0  0  0  0  0  0
   -1.6927   -1.7875    1.9862 O   0  0  0  0  0  0  0  0  0  0  0  0
   -3.4743    0.8587    2.9759 C   0  0  0  0  0  0  0  0  0  0  0  0
   -3.9434   -2.0803    2.6650 H   0  0  0  0  0  0  0  0  0  0  0  0
   -3.8193    0.3034    0.9243 H   0  0  0  0  0  0  0  0  0  0  0  0
   -3.1142    0.4097    3.9072 H   0  0  0  0  0  0  0  0  0  0  0  0
   -2.8286    1.7068    2.7269 H   0  0  0  0  0  0  0  0  0  0  0  0
   -4.4891    1.2354    3.1394 H   0  0  0  0  0  0  0  0  0  0  0  0
   -1.1384    0.1165    0.9024 N   0  0  0  0  0  0  0  0  0  0  0  0
    0.2193   -0.3043    0.5060 C   0  0  2  0  0  0  0  0  0  0  0  0
    1.2863    0.7674    0.8110 C   0  0  0  0  0  0  0  0  0  0  0  0
    2.4777    0.5097    0.7101 O   0  0  0  0  0  0  0  0  0  0  0  0
    0.1933   -0.6414   -0.9874 C   0  0  0  0  0  0  0  0  0  0  0  0
   -1.5251    0.9517    0.4713 H   0  0  0  0  0  0  0  0  0  0  0  0
    0.5184   -1.2002    1.0611 H   0  0  0  0  0  0  0  0  0  0  0  0
   -0.0770    0.2389   -1.5789 H   0  0  0  0  0  0  0  0  0  0  0  0
    1.1785   -0.9905   -1.3141 H   0  0  0  0  0  0  0  0  0  0  0  0
   -0.5351   -1.4346   -1.1841 H   0  0  0  0  0  0  0  0  0  0  0  0
    0.9003    2.0617    1.1005 N   0  0  0  0  0  0  0  0  0  0  0  0
    1.8068    3.1069    1.5855 C   0  0  2  0  0  0  0  0  0  0  0  0
    1.0929    3.9997    2.6228 C   0  0  0  0  0  0  0  0  0  0  0  0
   -0.1229    3.9107    2.7723 O   0  0  0  0  0  0  0  0  0  0  0  0
    2.2798    3.9304    0.3848 C   0  0  0  0  0  0  0  0  0  0  0  0
   -0.0765    2.1804    1.3624 H   0  0  0  0  0  0  0  0  0  0  0  0
    2.6734    2.6543    2.0796 H   0  0  0  0  0  0  0  0  0  0  0  0
    1.4274    4.3985   -0.1178 H   0  0  0  0  0  0  0  0  0  0  0  0
    2.9713    4.7157    0.7044 H   0  0  0  0  0  0  0  0  0  0  0  0
    2.7977    3.2863   -0.3333 H   0  0  0  0  0  0  0  0  0  0  0  0
    1.8120    4.8853    3.4036 N   0  0  0  0  0  0  0  0  0  0  0  0
    1.2034    5.7319    4.4227 C   0  0  0  0  0  0  0  0  0  0  0  0
    2.8194    4.9159    3.2754 H   0  0  0  0  0  0  0  0  0  0  0  0
    0.4791    6.4168    3.9693 H   0  0  0  0  0  0  0  0  0  0  0  0
    0.6899    5.1212    5.1730 H   0  0  0  0  0  0  0  0  0  0  0  0
    1.9710    6.3256    4.9286 H   0  0  0  0  0  0  0  0  0  0  0  0
  1  2  2  0  0  0  0
  1  3  1  0  0  0  0
  1  7  1  0  0  0  0
  3  4  1  0  0  0  0
  3  5  1  0  0  0  0
  3  6  1  0  0  0  0
  7  8  1  0  0  0  0
  7 12  1  0  0  0  0
  8  9  1  0  0  0  0
  8 11  1  0  0  0  0
  8 13  1  0  0  0  0
  9 10  2  0  0  0  0
  9 17  1  0  0  0  0
 11 14  1  0  0  0  0
 11 15  1  0  0  0  0
 11 16  1  0  0  0  0
 17 18  1  0  0  0  0
 17 22  1  0  0  0  0
 18 19  1  0  0  0  0
 18 21  1  0  0  0  0
 18 23  1  0  0  0  0
 19 20  2  0  0  0  0
 19 27  1  0  0  0  0
 21 24  1  0  0  0  0
 21 25  1  0  0  0  0
 21 26  1  0  0  0  0
 27 28  1  0  0  0  0
 27 32  1  0  0  0  0
 28 29  1  0  0  0  0
 28 31  1  0  0  0  0
 28 33  1  0  0  0  0
 29 30  2  0  0  0  0
 29 37  1  0  0  0  0
 31 34  1  0  0  0  0
 31 35  1  0  0  0  0
 31 36  1  0  0  0  0
 37 38  1  0  0  0  0
 37 39  1  0  0  0  0
 38 40  1  0  0  0  0
 38 41  1  0  0  0  0
 38 42  1  0  0  0  0
M  END
$$$$

  -OEChem-05262215353D

 42 41  0     1  0  0  0  0  0999 V2000
   -5.6639   -1.3861    1.6981 C   0  0  0  0  0  0  0  0  0  0  0  0
   -6.1605   -0.4617    1.0740 O   0  0  0  0  0  0  0  0  0  0  0  0
   -6.4543   -2.6604    1.9281 C   0  0  0  0  0  0  0  0  0  0  0  0
   -6.5725   -2.8367    3.0000 H   0  0  0  0  0  0  0  0  0  0  0  0
   -7.4453   -2.5774    1.4730 H   0  0  0  0  0  0  0  0  0  0  0  0
   -5.9319   -3.5100    1.4814 H   0  0  0  0  0  0  0  0  0  0  0  0
   -4.3799   -1.2799    2.1895 N   0  0  0  0  0  0  0  0  0  0  0  0
   -3.4604   -0.1801    1.8697 C   0  0  2  0  0  0  0  0  0  0  0  0
   -2.0397   -0.6976    1.5660 C   0  0  0  0  0  0  0  0  0  0  0  0
   -1.7078   -1.8260    1.9090 O   0  0  0  0  0  0  0  0  0  0  0  0
   -3.4374    0.7859    3.0580 C   0  0  0  0  0  0  0  0  0  0  0  0
   -3.9600   -2.1281    2.5682 H   0  0  0  0  0  0  0  0  0  0  0  0
   -3.8080    0.3553    0.9799 H   0  0  0  0  0  0  0  0  0  0  0  0
   -3.0791    0.2774    3.9590 H   0  0  0  0  0  0  0  0  0  0  0  0
   -2.7781    1.6354    2.8535 H   0  0  0  0  0  0  0  0  0  0  0  0
   -4.4440    1.1703    3.2515 H   0  0  0  0  0  0  0  0  0  0  0  0
   -1.1312    0.1189    0.9170 N   0  0  0  0  0  0  0  0  0  0  0  0
    0.2209   -0.3005    0.5009 C   0  0  2  0  0  0  0  0  0  0  0  0
    1.2990    0.7489    0.8470 C   0  0  0  0  0  0  0  0  0  0  0  0
    2.4647    0.5888    0.5123 O   0  0  0  0  0  0  0  0  0  0  0  0
    0.1781   -0.5806   -1.0045 C   0  0  0  0  0  0  0  0  0  0  0  0
   -1.4964    0.9923    0.5460 H   0  0  0  0  0  0  0  0  0  0  0  0
    0.5120   -1.2207    1.0193 H   0  0  0  0  0  0  0  0  0  0  0  0
   -0.0728    0.3286   -1.5595 H   0  0  0  0  0  0  0  0  0  0  0  0
    1.1512   -0.9424   -1.3521 H   0  0  0  0  0  0  0  0  0  0  0  0
   -0.5715   -1.3468   -1.2266 H   0  0  0  0  0  0  0  0  0  0  0  0
    0.9370    1.9225    1.4795 N   0  0  0  0  0  0  0  0  0  0  0  0
    1.8802    2.9204    1.9938 C   0  0  2  0  0  0  0  0  0  0  0  0
    1.2970    3.6316    3.2334 C   0  0  0  0  0  0  0  0  0  0  0  0
    0.1164    3.4730    3.5316 O   0  0  0  0  0  0  0  0  0  0  0  0
    2.1819    3.9288    0.8809 C   0  0  0  0  0  0  0  0  0  0  0  0
    0.0090    1.9328    1.9010 H   0  0  0  0  0  0  0  0  0  0  0  0
    2.8096    2.4286    2.3007 H   0  0  0  0  0  0  0  0  0  0  0  0
    1.2656    4.4396    0.5682 H   0  0  0  0  0  0  0  0  0  0  0  0
    2.8998    4.6790    1.2255 H   0  0  0  0  0  0  0  0  0  0  0  0
    2.6098    3.4178    0.0125 H   0  0  0  0  0  0  0  0  0  0  0  0
    2.0976    4.4330    4.0254 N   0  0  0  0  0  0  0  0  0  0  0  0
    1.6196    5.1067    5.2266 C   0  0  0  0  0  0  0  0  0  0  0  0
    3.0764    4.5219    3.7677 H   0  0  0  0  0  0  0  0  0  0  0  0
    0.7827    5.7711    4.9870 H   0  0  0  0  0  0  0  0  0  0  0  0
    1.2871    4.3745    5.9698 H   0  0  0  0  0  0  0  0  0  0  0  0
    2.4211    5.7074    5.6674 H   0  0  0  0  0  0  0  0  0  0  0  0
  1  2  2  0  0  0  0
  1  3  1  0  0  0  0
  1  7  1  0  0  0  0
  3  4  1  0  0  0  0
  3  5  1  0  0  0  0
  3  6  1  0  0  0  0
  7  8  1  0  0  0  0
  7 12  1  0  0  0  0
  8  9  1  0  0  0  0
  8 11  1  0  0  0  0
  8 13  1  0  0  0  0
  9 10  2  0  0  0  0
  9 17  1  0  0  0  0
 11 14  1  0  0  0  0
 11 15  1  0  0  0  0
 11 16  1  0  0  0  0
 17 18  1  0  0  0  0
 17 22  1  0  0  0  0
 18 19  1  0  0  0  0
 18 21  1  0  0  0  0
 18 23  1  0  0  0  0
 19 20  2  0  0  0  0
 19 27  1  0  0  0  0
 21 24  1  0  0  0  0
 21 25  1  0  0  0  0
 21 26  1  0  0  0  0
 27 28  1  0  0  0  0
 27 32  1  0  0  0  0
 28 29  1  0  0  0  0
 28 31  1  0  0  0  0
 28 33  1  0  0  0  0
 29 30  2  0  0  0  0
 29 37  1  0  0  0  0
 31 34  1  0  0  0  0
 31 35  1  0  0  0  0
 31 36  1  0  0  0  0
 37 38  1  0  0  0  0
 37 39  1  0  0  0  0
 38 40  1  0  0  0  0
 38 41  1  0  0  0  0
 38 42  1  0  0  0  0
M  END
$$$$

  -OEChem-05262215353D

 42 41  0     1  0  0  0  0  0999 V2000
   -5.6644   -1.2780    1.7308 C   0  0  0  0  0  0  0  0  0  0  0  0
   -6.1459   -0.2996    1.1817 O   0  0  0  0  0  0  0  0  0  0  0  0
   -6.4909   -2.5392    1.8997 C   0  0  0  0  0  0  0  0  0  0  0  0
   -6.5802   -2.7871    2.9602 H   0  0  0  0  0  0  0  0  0  0  0  0
   -7.4928   -2.3922    1.4865 H   0  0  0  0  0  0  0  0  0  0  0  0
   -6.0134   -3.3717    1.3771 H   0  0  0  0  0  0  0  0  0  0  0  0
   -4.3638   -1.2464    2.1878 N   0  0  0  0  0  0  0  0  0  0  0  0
   -3.4153   -0.1601    1.9090 C   0  0  2  0  0  0  0  0  0  0  0  0
   -2.0195   -0.7053    1.5434 C   0  0  0  0  0  0  0  0  0  0  0  0
   -1.7165   -1.8595    1.8217 O   0  0  0  0  0  0  0  0  0  0  0  0
   -3.3335    0.7342    3.1495 C   0  0  0  0  0  0  0  0  0  0  0  0
   -3.9637   -2.1306    2.4997 H   0  0  0  0  0  0  0  0  0  0  0  0
   -3.7647    0.4365    1.0596 H   0  0  0  0  0  0  0  0  0  0  0  0
   -2.9716    0.1633    4.0108 H   0  0  0  0  0  0  0  0  0  0  0  0
   -2.6513    1.5727    2.9778 H   0  0  0  0  0  0  0  0  0  0  0  0
   -4.3220    1.1385    3.3898 H   0  0  0  0  0  0  0  0  0  0  0  0
   -1.0970    0.1117    0.9148 N   0  0  0  0  0  0  0  0  0  0  0  0
    0.2484   -0.3164    0.4860 C   0  0  2  0  0  0  0  0  0  0  0  0
    1.3368    0.7141    0.8616 C   0  0  0  0  0  0  0  0  0  0  0  0
    2.4396    0.6997    0.3317 O   0  0  0  0  0  0  0  0  0  0  0  0
    0.1936   -0.5720   -1.0245 C   0  0  0  0  0  0  0  0  0  0  0  0
   -1.4229    1.0311    0.6268 H   0  0  0  0  0  0  0  0  0  0  0  0
    0.5285   -1.2500    0.9860 H   0  0  0  0  0  0  0  0  0  0  0  0
   -0.0381    0.3513   -1.5642 H   0  0  0  0  0  0  0  0  0  0  0  0
    1.1558   -0.9516   -1.3833 H   0  0  0  0  0  0  0  0  0  0  0  0
   -0.5749   -1.3165   -1.2548 H   0  0  0  0  0  0  0  0  0  0  0  0
    1.0492    1.7054    1.7800 N   0  0  0  0  0  0  0  0  0  0  0  0
    2.0138    2.6777    2.3049 C   0  0  2  0  0  0  0  0  0  0  0  0
    1.5949    3.1579    3.7109 C   0  0  0  0  0  0  0  0  0  0  0  0
    0.4664    2.9149    4.1284 O   0  0  0  0  0  0  0  0  0  0  0  0
    2.0935    3.8615    1.3352 C   0  0  0  0  0  0  0  0  0  0  0  0
    0.1884    1.5916    2.3148 H   0  0  0  0  0  0  0  0  0  0  0  0
    3.0002    2.2093    2.3905 H   0  0  0  0  0  0  0  0  0  0  0  0
    1.1161    4.3460    1.2434 H   0  0  0  0  0  0  0  0  0  0  0  0
    2.8176    4.6014    1.6889 H   0  0  0  0  0  0  0  0  0  0  0  0
    2.4079    3.5205    0.3436 H   0  0  0  0  0  0  0  0  0  0  0  0
    2.4799    3.8557    4.5118 N   0  0  0  0  0  0  0  0  0  0  0  0
    2.1464    4.3290    5.8501 C   0  0  0  0  0  0  0  0  0  0  0  0
    3.4140    4.0231    4.1489 H   0  0  0  0  0  0  0  0  0  0  0  0
    1.2872    5.0069    5.8143 H   0  0  0  0  0  0  0  0  0  0  0  0
    1.9034    3.4864    6.5060 H   0  0  0  0  0  0  0  0  0  0  0  0
    2.9938    4.8699    6.2820 H   0  0  0  0  0  0  0  0  0  0  0  0
  1  2  2  0  0  0  0
  1  3  1  0  0  0  0
  1  7  1  0  0  0  0
  3  4  1  0  0  0  0
  3  5  1  0  0  0  0
  3  6  1  0  0  0  0
  7  8  1  0  0  0  0
  7 12  1  0  0  0  0
  8  9  1  0  0  0  0
  8 11  1  0  0  0  0
  8 13  1  0  0  0  0
  9 10  2  0  0  0  0
  9 17  1  0  0  0  0
 11 14  1  0  0  0  0
 11 15  1  0  0  0  0
 11 16  1  0  0  0  0
 17 18  1  0  0  0  0
 17 22  1  0  0  0  0
 18 19  1  0  0  0  0
 18 21  1  0  0  0  0
 18 23  1  0  0  0  0
 19 20  2  0  0  0  0
 19 27  1  0  0  0  0
 21 24  1  0  0  0  0
 21 25  1  0  0  0  0
 21 26  1  0  0  0  0
 27 28  1  0  0  0  0
 27 32  1  0  0  0  0
 28 29  1  0  0  0  0
 28 31  1  0  0  0  0
 28 33  1  0  0  0  0
 29 30  2  0  0  0  0
 29 37  1  0  0  0  0
 31 34  1  0  0  0  0
 31 35  1  0  0  0  0
 31 36  1  0  0  0  0
 37 38  1  0  0  0  0
 37 39  1  0  0  0  0
 38 40  1  0  0  0  0
 38 41  1  0  0  0  0
 38 42  1  0  0  0  0
M  END
$$$$

  -OEChem-05262215353D

 42 41  0     1  0  0  0  0  0999 V2000
   -5.6517   -1.1918    1.7586 C   0  0  0  0  0  0  0  0  0  0  0  0
   -6.1176   -0.1804    1.2580 O   0  0  0  0  0  0  0  0  0  0  0  0
   -6.5070   -2.4374    1.8964 C   0  0  0  0  0  0  0  0  0  0  0  0
   -6.5704   -2.7315    2.9468 H   0  0  0  0  0  0  0  0  0  0  0  0
   -7.5168   -2.2459    1.5227 H   0  0  0  0  0  0  0  0  0  0  0  0
   -6.0681   -3.2569    1.3220 H   0  0  0  0  0  0  0  0  0  0  0  0
   -4.3423   -1.2111    2.1905 N   0  0  0  0  0  0  0  0  0  0  0  0
   -3.3723   -0.1358    1.9445 C   0  0  2  0  0  0  0  0  0  0  0  0
   -1.9916   -0.6973    1.5460 C   0  0  0  0  0  0  0  0  0  0  0  0
   -1.7043   -1.8611    1.8004 O   0  0  0  0  0  0  0  0  0  0  0  0
   -3.2610    0.7061    3.2189 C   0  0  0  0  0  0  0  0  0  0  0  0
   -3.9598   -2.1152    2.4653 H   0  0  0  0  0  0  0  0  0  0  0  0
   -3.7159    0.5003    1.1217 H   0  0  0  0  0  0  0  0  0  0  0  0
   -2.9031    0.0936    4.0530 H   0  0  0  0  0  0  0  0  0  0  0  0
   -2.5637    1.5368    3.0734 H   0  0  0  0  0  0  0  0  0  0  0  0
   -4.2388    1.1200    3.4851 H   0  0  0  0  0  0  0  0  0  0  0  0
   -1.0638    0.1135    0.9169 N   0  0  0  0  0  0  0  0  0  0  0  0
    0.2731   -0.3265    0.4769 C   0  0  2  0  0  0  0  0  0  0  0  0
    1.3676    0.6956    0.8571 C   0  0  0  0  0  0  0  0  0  0  0  0
    2.3707    0.8510    0.1733 O   0  0  0  0  0  0  0  0  0  0  0  0
    0.2054   -0.5833   -1.0334 C   0  0  0  0  0  0  0  0  0  0  0  0
   -1.3664    1.0527    0.6702 H   0  0  0  0  0  0  0  0  0  0  0  0
    0.5478   -1.2633    0.9734 H   0  0  0  0  0  0  0  0  0  0  0  0
   -0.0196    0.3420   -1.5729 H   0  0  0  0  0  0  0  0  0  0  0  0
    1.1615   -0.9734   -1.3967 H   0  0  0  0  0  0  0  0  0  0  0  0
   -0.5718   -1.3201   -1.2587 H   0  0  0  0  0  0  0  0  0  0  0  0
    1.2041    1.4728    1.9874 N   0  0  0  0  0  0  0  0  0  0  0  0
    2.1983    2.4114    2.5192 C   0  0  2  0  0  0  0  0  0  0  0  0
    1.9940    2.6343    4.0324 C   0  0  0  0  0  0  0  0  0  0  0  0
    0.9505    2.2758    4.5695 O   0  0  0  0  0  0  0  0  0  0  0  0
    2.0768    3.7403    1.7651 C   0  0  0  0  0  0  0  0  0  0  0  0
    0.4306    1.2274    2.6058 H   0  0  0  0  0  0  0  0  0  0  0  0
    3.2031    2.0004    2.3748 H   0  0  0  0  0  0  0  0  0  0  0  0
    1.0789    4.1679    1.9043 H   0  0  0  0  0  0  0  0  0  0  0  0
    2.8176    4.4584    2.1290 H   0  0  0  0  0  0  0  0  0  0  0  0
    2.2445    3.5892    0.6941 H   0  0  0  0  0  0  0  0  0  0  0  0
    2.9789    3.2355    4.7939 N   0  0  0  0  0  0  0  0  0  0  0  0
    2.8532    3.4670    6.2278 C   0  0  0  0  0  0  0  0  0  0  0  0
    3.8428    3.4960    4.3271 H   0  0  0  0  0  0  0  0  0  0  0  0
    1.9540    4.0534    6.4448 H   0  0  0  0  0  0  0  0  0  0  0  0
    2.7915    2.5152    6.7657 H   0  0  0  0  0  0  0  0  0  0  0  0
    3.7216    4.0197    6.5990 H   0  0  0  0  0  0  0  0  0  0  0  0
  1  2  2  0  0  0  0
  1  3  1  0  0  0  0
  1  7  1  0  0  0  0
  3  4  1  0  0  0  0
  3  5  1  0  0  0  0
  3  6  1  0  0  0  0
  7  8  1  0  0  0  0
  7 12  1  0  0  0  0
  8  9  1  0  0  0  0
  8 11  1  0  0  0  0
  8 13  1  0  0  0  0
  9 10  2  0  0  0  0
  9 17  1  0  0  0  0
 11 14  1  0  0  0  0
 11 15  1  0  0  0  0
 11 16  1  0  0  0  0
 17 18  1  0  0  0  0
 17 22  1  0  0  0  0
 18 19  1  0  0  0  0
 18 21  1  0  0  0  0
 18 23  1  0  0  0  0
 19 20  2  0  0  0  0
 19 27  1  0  0  0  0
 21 24  1  0  0  0  0
 21 25  1  0  0  0  0
 21 26  1  0  0  0  0
 27 28  1  0  0  0  0
 27 32  1  0  0  0  0
 28 29  1  0  0  0  0
 28 31  1  0  0  0  0
 28 33  1  0  0  0  0
 29 30  2  0  0  0  0
 29 37  1  0  0  0  0
 31 34  1  0  0  0  0
 31 35  1  0  0  0  0
 31 36  1  0  0  0  0
 37 38  1  0  0  0  0
 37 39  1  0  0  0  0
 38 40  1  0  0  0  0
 38 41  1  0  0  0  0
 38 42  1  0  0  0  0
M  END
$$$$

  -OEChem-05262215353D

 42 41  0     1  0  0  0  0  0999 V2000
   -5.6376   -1.1609    1.8250 C   0  0  0  0  0  0  0  0  0  0  0  0
   -6.1180   -0.1376    1.3636 O   0  0  0  0  0  0  0  0  0  0  0  0
   -6.4960   -2.4012    1.9862 C   0  0  0  0  0  0  0  0  0  0  0  0
   -6.5074   -2.7126    3.0335 H   0  0  0  0  0  0  0  0  0  0  0  0
   -7.5220   -2.1946    1.6689 H   0  0  0  0  0  0  0  0  0  0  0  0
   -6.0956   -3.2141    1.3755 H   0  0  0  0  0  0  0  0  0  0  0  0
   -4.3086   -1.1963    2.1905 N   0  0  0  0  0  0  0  0  0  0  0  0
   -3.3465   -0.1203    1.9196 C   0  0  2  0  0  0  0  0  0  0  0  0
   -1.9589   -0.6814    1.5461 C   0  0  0  0  0  0  0  0  0  0  0  0
   -1.6771   -1.8467    1.7998 O   0  0  0  0  0  0  0  0  0  0  0  0
   -3.2535    0.7681    3.1640 C   0  0  0  0  0  0  0  0  0  0  0  0
   -3.9191   -2.1048    2.4401 H   0  0  0  0  0  0  0  0  0  0  0  0
   -3.6911    0.4824    1.0727 H   0  0  0  0  0  0  0  0  0  0  0  0
   -2.9011    0.1889    4.0238 H   0  0  0  0  0  0  0  0  0  0  0  0
   -2.5598    1.5976    2.9955 H   0  0  0  0  0  0  0  0  0  0  0  0
   -4.2369    1.1851    3.4044 H   0  0  0  0  0  0  0  0  0  0  0  0
   -1.0260    0.1244    0.9189 N   0  0  0  0  0  0  0  0  0  0  0  0
    0.3011   -0.3272    0.4662 C   0  0  2  0  0  0  0  0  0  0  0  0
    1.4019    0.6845    0.8540 C   0  0  0  0  0  0  0  0  0  0  0  0
    2.2625    1.0423    0.0600 O   0  0  0  0  0  0  0  0  0  0  0  0
    0.2176   -0.5727   -1.0457 C   0  0  0  0  0  0  0  0  0  0  0  0
   -1.3193    1.0685    0.6799 H   0  0  0  0  0  0  0  0  0  0  0  0
    0.5712   -1.2714    0.9512 H   0  0  0  0  0  0  0  0  0  0  0  0
   -0.0231    0.3547   -1.5750 H   0  0  0  0  0  0  0  0  0  0  0  0
    1.1733   -0.9496   -1.4233 H   0  0  0  0  0  0  0  0  0  0  0  0
   -0.5555   -1.3147   -1.2678 H   0  0  0  0  0  0  0  0  0  0  0  0
    1.4087    1.2181    2.1281 N   0  0  0  0  0  0  0  0  0  0  0  0
    2.4341    2.1260    2.6559 C   0  0  2  0  0  0  0  0  0  0  0  0
    2.4916    2.0748    4.1969 C   0  0  0  0  0  0  0  0  0  0  0  0
    1.5745    1.5624    4.8299 O   0  0  0  0  0  0  0  0  0  0  0  0
    2.1249    3.5508    2.1826 C   0  0  0  0  0  0  0  0  0  0  0  0
    0.7464    0.8286    2.8000 H   0  0  0  0  0  0  0  0  0  0  0  0
    3.4162    1.8231    2.2778 H   0  0  0  0  0  0  0  0  0  0  0  0
    1.1456    3.8720    2.5515 H   0  0  0  0  0  0  0  0  0  0  0  0
    2.8827    4.2499    2.5486 H   0  0  0  0  0  0  0  0  0  0  0  0
    2.1175    3.5966    1.0891 H   0  0  0  0  0  0  0  0  0  0  0  0
    3.5742    2.6034    4.8753 N   0  0  0  0  0  0  0  0  0  0  0  0
    3.6955    2.5873    6.3279 C   0  0  0  0  0  0  0  0  0  0  0  0
    4.3254    3.0061    4.3226 H   0  0  0  0  0  0  0  0  0  0  0  0
    2.8626    3.1293    6.7881 H   0  0  0  0  0  0  0  0  0  0  0  0
    3.6962    1.5578    6.7011 H   0  0  0  0  0  0  0  0  0  0  0  0
    4.6300    3.0669    6.6347 H   0  0  0  0  0  0  0  0  0  0  0  0
  1  2  2  0  0  0  0
  1  3  1  0  0  0  0
  1  7  1  0  0  0  0
  3  4  1  0  0  0  0
  3  5  1  0  0  0  0
  3  6  1  0  0  0  0
  7  8  1  0  0  0  0
  7 12  1  0  0  0  0
  8  9  1  0  0  0  0
  8 11  1  0  0  0  0
  8 13  1  0  0  0  0
  9 10  2  0  0  0  0
  9 17  1  0  0  0  0
 11 14  1  0  0  0  0
 11 15  1  0  0  0  0
 11 16  1  0  0  0  0
 17 18  1  0  0  0  0
 17 22  1  0  0  0  0
 18 19  1  0  0  0  0
 18 21  1  0  0  0  0
 18 23  1  0  0  0  0
 19 20  2  0  0  0  0
 19 27  1  0  0  0  0
 21 24  1  0  0  0  0
 21 25  1  0  0  0  0
 21 26  1  0  0  0  0
 27 28  1  0  0  0  0
 27 32  1  0  0  0  0
 28 29  1  0  0  0  0
 28 31  1  0  0  0  0
 28 33  1  0  0  0  0
 29 30  2  0  0  0  0
 29 37  1  0  0  0  0
 31 34  1  0  0  0  0
 31 35  1  0  0  0  0
 31 36  1  0  0  0  0
 37 38  1  0  0  0  0
 37 39  1  0  0  0  0
 38 40  1  0  0  0  0
 38 41  1  0  0  0  0
 38 42  1  0  0  0  0
M  END
$$$$

  -OEChem-05262215353D

 42 41  0     1  0  0  0  0  0999 V2000
   -5.6270   -1.0769    1.7626 C   0  0  0  0  0  0  0  0  0  0  0  0
   -6.0601   -0.0327    1.3016 O   0  0  0  0  0  0  0  0  0  0  0  0
   -6.5263   -2.2940    1.8665 C   0  0  0  0  0  0  0  0  0  0  0  0
   -6.6074   -2.6102    2.9091 H   0  0  0  0  0  0  0  0  0  0  0  0
   -7.5257   -2.0566    1.4917 H   0  0  0  0  0  0  0  0  0  0  0  0
   -6.1137   -3.1147    1.2750 H   0  0  0  0  0  0  0  0  0  0  0  0
   -4.3154   -1.1562    2.1803 N   0  0  0  0  0  0  0  0  0  0  0  0
   -3.3155   -0.1008    1.9745 C   0  0  2  0  0  0  0  0  0  0  0  0
   -1.9373   -0.6881    1.6080 C   0  0  0  0  0  0  0  0  0  0  0  0
   -1.6666   -1.8486    1.8940 O   0  0  0  0  0  0  0  0  0  0  0  0
   -3.2232    0.7268    3.2594 C   0  0  0  0  0  0  0  0  0  0  0  0
   -3.9626   -2.0773    2.4374 H   0  0  0  0  0  0  0  0  0  0  0  0
   -3.6221    0.5500    1.1488 H   0  0  0  0  0  0  0  0  0  0  0  0
   -2.9149    0.0964    4.0999 H   0  0  0  0  0  0  0  0  0  0  0  0
   -2.4956    1.5361    3.1457 H   0  0  0  0  0  0  0  0  0  0  0  0
   -4.1968    1.1689    3.4945 H   0  0  0  0  0  0  0  0  0  0  0  0
   -0.9990    0.0901    0.9559 N   0  0  0  0  0  0  0  0  0  0  0  0
    0.3249   -0.3814    0.5200 C   0  0  2  0  0  0  0  0  0  0  0  0
    1.4215    0.6442    0.8798 C   0  0  0  0  0  0  0  0  0  0  0  0
    2.0869    1.2083    0.0204 O   0  0  0  0  0  0  0  0  0  0  0  0
    0.2449   -0.6792   -0.9824 C   0  0  0  0  0  0  0  0  0  0  0  0
   -1.2829    1.0299    0.6903 H   0  0  0  0  0  0  0  0  0  0  0  0
    0.5916   -1.3100    1.0359 H   0  0  0  0  0  0  0  0  0  0  0  0
   -0.0197    0.2236   -1.5420 H   0  0  0  0  0  0  0  0  0  0  0  0
    1.2093   -1.0446   -1.3492 H   0  0  0  0  0  0  0  0  0  0  0  0
   -0.5108   -1.4465   -1.1768 H   0  0  0  0  0  0  0  0  0  0  0  0
    1.6205    0.9831    2.2039 N   0  0  0  0  0  0  0  0  0  0  0  0
    2.6598    1.9012    2.6866 C   0  0  2  0  0  0  0  0  0  0  0  0
    3.0822    1.5731    4.1339 C   0  0  0  0  0  0  0  0  0  0  0  0
    2.3920    0.8297    4.8228 O   0  0  0  0  0  0  0  0  0  0  0  0
    2.1227    3.3337    2.5993 C   0  0  0  0  0  0  0  0  0  0  0  0
    1.1246    0.4335    2.9068 H   0  0  0  0  0  0  0  0  0  0  0  0
    3.5507    1.8087    2.0562 H   0  0  0  0  0  0  0  0  0  0  0  0
    1.2328    3.4472    3.2266 H   0  0  0  0  0  0  0  0  0  0  0  0
    2.8794    4.0495    2.9341 H   0  0  0  0  0  0  0  0  0  0  0  0
    1.8546    3.5766    1.5663 H   0  0  0  0  0  0  0  0  0  0  0  0
    4.2413    2.1086    4.6651 N   0  0  0  0  0  0  0  0  0  0  0  0
    4.7160    1.8107    6.0114 C   0  0  0  0  0  0  0  0  0  0  0  0
    4.8080    2.6981    4.0622 H   0  0  0  0  0  0  0  0  0  0  0  0
    3.9532    2.0692    6.7536 H   0  0  0  0  0  0  0  0  0  0  0  0
    4.9533    0.7458    6.1063 H   0  0  0  0  0  0  0  0  0  0  0  0
    5.6196    2.3875    6.2312 H   0  0  0  0  0  0  0  0  0  0  0  0
  1  2  2  0  0  0  0
  1  3  1  0  0  0  0
  1  7  1  0  0  0  0
  3  4  1  0  0  0  0
  3  5  1  0  0  0  0
  3  6  1  0  0  0  0
  7  8  1  0  0  0  0
  7 12  1  0  0  0  0
  8  9  1  0  0  0  0
  8 11  1  0  0  0  0
  8 13  1  0  0  0  0
  9 10  2  0  0  0  0
  9 17  1  0  0  0  0
 11 14  1  0  0  0  0
 11 15  1  0  0  0  0
 11 16  1  0  0  0  0
 17 18  1  0  0  0  0
 17 22  1  0  0  0  0
 18 19  1  0  0  0  0
 18 21  1  0  0  0  0
 18 23  1  0  0  0  0
 19 20  2  0  0  0  0
 19 27  1  0  0  0  0
 21 24  1  0  0  0  0
 21 25  1  0  0  0  0
 21 26  1  0  0  0  0
 27 28  1  0  0  0  0
 27 32  1  0  0  0  0
 28 29  1  0  0  0  0
 28 31  1  0  0  0  0
 28 33  1  0  0  0  0
 29 30  2  0  0  0  0
 29 37  1  0  0  0  0
 31 34  1  0  0  0  0
 31 35  1  0  0  0  0
 31 36  1  0  0  0  0
 37 38  1  0  0  0  0
 37 39  1  0  0  0  0
 38 40  1  0  0  0  0
 38 41  1  0  0  0  0
 38 42  1  0  0  0  0
M  END
$$$$

  -OEChem-05262215353D

 42 41  0     1  0  0  0  0  0999 V2000
   -5.6092   -1.1358    1.9245 C   0  0  0  0  0  0  0  0  0  0  0  0
   -6.1160   -0.1235    1.4671 O   0  0  0  0  0  0  0  0  0  0  0  0
   -6.4596   -2.3651    2.1841 C   0  0  0  0  0  0  0  0  0  0  0  0
   -6.3952   -2.6465    3.2381 H   0  0  0  0  0  0  0  0  0  0  0  0
   -7.5054   -2.1602    1.9372 H   0  0  0  0  0  0  0  0  0  0  0  0
   -6.1086   -3.1977    1.5693 H   0  0  0  0  0  0  0  0  0  0  0  0
   -4.2582   -1.1694    2.1971 N   0  0  0  0  0  0  0  0  0  0  0  0
   -3.3142   -0.1015    1.8450 C   0  0  2  0  0  0  0  0  0  0  0  0
   -1.9170   -0.6655    1.5139 C   0  0  0  0  0  0  0  0  0  0  0  0
   -1.6343   -1.8228    1.8034 O   0  0  0  0  0  0  0  0  0  0  0  0
   -3.2351    0.8804    3.0177 C   0  0  0  0  0  0  0  0  0  0  0  0
   -3.8561   -2.0679    2.4633 H   0  0  0  0  0  0  0  0  0  0  0  0
   -3.6712    0.4276    0.9548 H   0  0  0  0  0  0  0  0  0  0  0  0
   -2.8696    0.3744    3.9171 H   0  0  0  0  0  0  0  0  0  0  0  0
   -2.5581    1.7071    2.7828 H   0  0  0  0  0  0  0  0  0  0  0  0
   -4.2253    1.2963    3.2297 H   0  0  0  0  0  0  0  0  0  0  0  0
   -0.9751    0.1278    0.8855 N   0  0  0  0  0  0  0  0  0  0  0  0
    0.3566   -0.3306    0.4631 C   0  0  2  0  0  0  0  0  0  0  0  0
    1.4412    0.6960    0.8523 C   0  0  0  0  0  0  0  0  0  0  0  0
    1.9275    1.4607    0.0283 O   0  0  0  0  0  0  0  0  0  0  0  0
    0.3021   -0.6009   -1.0461 C   0  0  0  0  0  0  0  0  0  0  0  0
   -1.2604    1.0688    0.6252 H   0  0  0  0  0  0  0  0  0  0  0  0
    0.6211   -1.2673    0.9654 H   0  0  0  0  0  0  0  0  0  0  0  0
    0.0341    0.3083   -1.5940 H   0  0  0  0  0  0  0  0  0  0  0  0
    1.2761   -0.9475   -1.4053 H   0  0  0  0  0  0  0  0  0  0  0  0
   -0.4417   -1.3732   -1.2663 H   0  0  0  0  0  0  0  0  0  0  0  0
    1.8391    0.7947    2.1711 N   0  0  0  0  0  0  0  0  0  0  0  0
    2.9277    1.6535    2.6542 C   0  0  2  0  0  0  0  0  0  0  0  0
    3.5959    1.0663    3.9150 C   0  0  0  0  0  0  0  0  0  0  0  0
    3.0537    0.1565    4.5326 O   0  0  0  0  0  0  0  0  0  0  0  0
    2.3602    3.0462    2.9474 C   0  0  0  0  0  0  0  0  0  0  0  0
    1.4804    0.0949    2.8222 H   0  0  0  0  0  0  0  0  0  0  0  0
    3.7001    1.7334    1.8818 H   0  0  0  0  0  0  0  0  0  0  0  0
    1.5876    2.9898    3.7209 H   0  0  0  0  0  0  0  0  0  0  0  0
    3.1507    3.7191    3.2927 H   0  0  0  0  0  0  0  0  0  0  0  0
    1.9174    3.4736    2.0423 H   0  0  0  0  0  0  0  0  0  0  0  0
    4.8139    1.5518    4.3541 N   0  0  0  0  0  0  0  0  0  0  0  0
    5.5107    1.0255    5.5220 C   0  0  0  0  0  0  0  0  0  0  0  0
    5.2532    2.2873    3.8080 H   0  0  0  0  0  0  0  0  0  0  0  0
    4.8847    1.1165    6.4161 H   0  0  0  0  0  0  0  0  0  0  0  0
    5.7621   -0.0301    5.3743 H   0  0  0  0  0  0  0  0  0  0  0  0
    6.4377    1.5816    5.6928 H   0  0  0  0  0  0  0  0  0  0  0  0
  1  2  2  0  0  0  0
  1  3  1  0  0  0  0
  1  7  1  0  0  0  0
  3  4  1  0  0  0  0
  3  5  1  0  0  0  0
  3  6  1  0  0  0  0
  7  8  1  0  0  0  0
  7 12  1  0  0  0  0
  8  9  1  0  0  0  0
  8 11  1  0  0  0  0
  8 13  1  0  0  0  0
  9 10  2  0  0  0  0
  9 17  1  0  0  0  0
 11 14  1  0  0  0  0
 11 15  1  0  0  0  0
 11 16  1  0  0  0  0
 17 18  1  0  0  0  0
 17 22  1  0  0  0  0
 18 19  1  0  0  0  0
 18 21  1  0  0  0  0
 18 23  1  0  0  0  0
 19 20  2  0  0  0  0
 19 27  1  0  0  0  0
 21 24  1  0  0  0  0
 21 25  1  0  0  0  0
 21 26  1  0  0  0  0
 27 28  1  0  0  0  0
 27 32  1  0  0  0  0
 28 29  1  0  0  0  0
 28 31  1  0  0  0  0
 28 33  1  0  0  0  0
 29 30  2  0  0  0  0
 29 37  1  0  0  0  0
 31 34  1  0  0  0  0
 31 35  1  0  0  0  0
 31 36  1  0  0  0  0
 37 38  1  0  0  0  0
 37 39  1  0  0  0  0
 38 40  1  0  0  0  0
 38 41  1  0  0  0  0
 38 42  1  0  0  0  0
M  END
$$$$

  -OEChem-05262215353D

 42 41  0     1  0  0  0  0  0999 V2000
   -5.6032   -1.1100    1.9427 C   0  0  0  0  0  0  0  0  0  0  0  0
   -6.1029   -0.0903    1.4944 O   0  0  0  0  0  0  0  0  0  0  0  0
   -6.4664   -2.3290    2.2074 C   0  0  0  0  0  0  0  0  0  0  0  0
   -6.3917   -2.6175    3.2586 H   0  0  0  0  0  0  0  0  0  0  0  0
   -7.5123   -2.1086    1.9763 H   0  0  0  0  0  0  0  0  0  0  0  0
   -6.1359   -3.1626    1.5831 H   0  0  0  0  0  0  0  0  0  0  0  0
   -4.2496   -1.1601    2.1997 N   0  0  0  0  0  0  0  0  0  0  0  0
   -3.2973   -0.1011    1.8424 C   0  0  2  0  0  0  0  0  0  0  0  0
   -1.9089   -0.6796    1.4974 C   0  0  0  0  0  0  0  0  0  0  0  0
   -1.6386   -1.8420    1.7793 O   0  0  0  0  0  0  0  0  0  0  0  0
   -3.1975    0.8760    3.0182 C   0  0  0  0  0  0  0  0  0  0  0  0
   -3.8540   -2.0643    2.4559 H   0  0  0  0  0  0  0  0  0  0  0  0
   -3.6564    0.4342    0.9567 H   0  0  0  0  0  0  0  0  0  0  0  0
   -2.8348    0.3611    3.9137 H   0  0  0  0  0  0  0  0  0  0  0  0
   -2.5097    1.6937    2.7831 H   0  0  0  0  0  0  0  0  0  0  0  0
   -4.1803    1.3057    3.2373 H   0  0  0  0  0  0  0  0  0  0  0  0
   -0.9596    0.1050    0.8693 N   0  0  0  0  0  0  0  0  0  0  0  0
    0.3779   -0.3540    0.4697 C   0  0  2  0  0  0  0  0  0  0  0  0
    1.4519    0.6826    0.8582 C   0  0  0  0  0  0  0  0  0  0  0  0
    1.7221    1.6207    0.1182 O   0  0  0  0  0  0  0  0  0  0  0  0
    0.3537   -0.6338   -1.0373 C   0  0  0  0  0  0  0  0  0  0  0  0
   -1.2258    1.0568    0.6275 H   0  0  0  0  0  0  0  0  0  0  0  0
    0.6361   -1.2863    0.9832 H   0  0  0  0  0  0  0  0  0  0  0  0
    0.0827    0.2683   -1.5952 H   0  0  0  0  0  0  0  0  0  0  0  0
    1.3386   -0.9691   -1.3768 H   0  0  0  0  0  0  0  0  0  0  0  0
   -0.3762   -1.4170   -1.2647 H   0  0  0  0  0  0  0  0  0  0  0  0
    2.0634    0.6063    2.0938 N   0  0  0  0  0  0  0  0  0  0  0  0
    3.1674    1.4674    2.5351 C   0  0  2  0  0  0  0  0  0  0  0  0
    4.1101    0.7195    3.5015 C   0  0  0  0  0  0  0  0  0  0  0  0
    3.7593   -0.3440    4.0010 O   0  0  0  0  0  0  0  0  0  0  0  0
    2.5776    2.7095    3.2091 C   0  0  0  0  0  0  0  0  0  0  0  0
    1.8731   -0.2207    2.6611 H   0  0  0  0  0  0  0  0  0  0  0  0
    3.7622    1.7755    1.6687 H   0  0  0  0  0  0  0  0  0  0  0  0
    1.9773    2.4245    4.0792 H   0  0  0  0  0  0  0  0  0  0  0  0
    3.3748    3.3817    3.5400 H   0  0  0  0  0  0  0  0  0  0  0  0
    1.9382    3.2533    2.5065 H   0  0  0  0  0  0  0  0  0  0  0  0
    5.3631    1.2247    3.7963 N   0  0  0  0  0  0  0  0  0  0  0  0
    6.3226    0.5303    4.6471 C   0  0  0  0  0  0  0  0  0  0  0  0
    5.6438    2.0875    3.3391 H   0  0  0  0  0  0  0  0  0  0  0  0
    5.8858    0.3229    5.6298 H   0  0  0  0  0  0  0  0  0  0  0  0
    6.6236   -0.4175    4.1885 H   0  0  0  0  0  0  0  0  0  0  0  0
    7.2161    1.1451    4.7914 H   0  0  0  0  0  0  0  0  0  0  0  0
  1  2  2  0  0  0  0
  1  3  1  0  0  0  0
  1  7  1  0  0  0  0
  3  4  1  0  0  0  0
  3  5  1  0  0  0  0
  3  6  1  0  0  0  0
  7  8  1  0  0  0  0
  7 12  1  0  0  0  0
  8  9  1  0  0  0  0
  8 11  1  0  0  0  0
  8 13  1  0  0  0  0
  9 10  2  0  0  0  0
  9 17  1  0  0  0  0
 11 14  1  0  0  0  0
 11 15  1  0  0  0  0
 11 16  1  0  0  0  0
 17 18  1  0  0  0  0
 17 22  1  0  0  0  0
 18 19  1  0  0  0  0
 18 21  1  0  0  0  0
 18 23  1  0  0  0  0
 19 20  2  0  0  0  0
 19 27  1  0  0  0  0
 21 24  1  0  0  0  0
 21 25  1  0  0  0  0
 21 26  1  0  0  0  0
 27 28  1  0  0  0  0
 27 32  1  0  0  0  0
 28 29  1  0  0  0  0
 28 31  1  0  0  0  0
 28 33  1  0  0  0  0
 29 30  2  0  0  0  0
 29 37  1  0  0  0  0
 31 34  1  0  0  0  0
 31 35  1  0  0  0  0
 31 36  1  0  0  0  0
 37 38  1  0  0  0  0
 37 39  1  0  0  0  0
 38 40  1  0  0  0  0
 38 41  1  0  0  0  0
 38 42  1  0  0  0  0
M  END
$$$$

  -OEChem-05262215353D

 42 41  0     1  0  0  0  0  0999 V2000
   -5.6066   -1.0774    1.9679 C   0  0  0  0  0  0  0  0  0  0  0  0
   -6.0949   -0.0403    1.5478 O   0  0  0  0  0  0  0  0  0  0  0  0
   -6.4913   -2.2787    2.2435 C   0  0  0  0  0  0  0  0  0  0  0  0
   -6.4228   -2.5587    3.2975 H   0  0  0  0  0  0  0  0  0  0  0  0
   -7.5328   -2.0413    2.0091 H   0  0  0  0  0  0  0  0  0  0  0  0
   -6.1760   -3.1244    1.6277 H   0  0  0  0  0  0  0  0  0  0  0  0
   -4.2484   -1.1602    2.1900 N   0  0  0  0  0  0  0  0  0  0  0  0
   -3.2835   -0.1120    1.8335 C   0  0  2  0  0  0  0  0  0  0  0  0
   -1.9073   -0.7069    1.4680 C   0  0  0  0  0  0  0  0  0  0  0  0
   -1.6548   -1.8798    1.7222 O   0  0  0  0  0  0  0  0  0  0  0  0
   -3.1549    0.8516    3.0176 C   0  0  0  0  0  0  0  0  0  0  0  0
   -3.8654   -2.0771    2.4186 H   0  0  0  0  0  0  0  0  0  0  0  0
   -3.6442    0.4386    0.9578 H   0  0  0  0  0  0  0  0  0  0  0  0
   -2.7862    0.3232    3.9028 H   0  0  0  0  0  0  0  0  0  0  0  0
   -2.4599    1.6627    2.7809 H   0  0  0  0  0  0  0  0  0  0  0  0
   -4.1284    1.2926    3.2547 H   0  0  0  0  0  0  0  0  0  0  0  0
   -0.9506    0.0754    0.8493 N   0  0  0  0  0  0  0  0  0  0  0  0
    0.3877   -0.3837    0.4562 C   0  0  2  0  0  0  0  0  0  0  0  0
    1.4585    0.6504    0.8560 C   0  0  0  0  0  0  0  0  0  0  0  0
    1.5205    1.7300    0.2799 O   0  0  0  0  0  0  0  0  0  0  0  0
    0.3851   -0.6417   -1.0537 C   0  0  0  0  0  0  0  0  0  0  0  0
   -1.1895    1.0462    0.6579 H   0  0  0  0  0  0  0  0  0  0  0  0
    0.6365   -1.3221    0.9631 H   0  0  0  0  0  0  0  0  0  0  0  0
    0.1301    0.2709   -1.6021 H   0  0  0  0  0  0  0  0  0  0  0  0
    1.3723   -0.9804   -1.3831 H   0  0  0  0  0  0  0  0  0  0  0  0
   -0.3477   -1.4153   -1.3039 H   0  0  0  0  0  0  0  0  0  0  0  0
    2.2853    0.4173    1.9372 N   0  0  0  0  0  0  0  0  0  0  0  0
    3.4004    1.2862    2.3346 C   0  0  2  0  0  0  0  0  0  0  0  0
    4.5699    0.4681    2.9226 C   0  0  0  0  0  0  0  0  0  0  0  0
    4.4028   -0.7058    3.2350 O   0  0  0  0  0  0  0  0  0  0  0  0
    2.8806    2.3035    3.3552 C   0  0  0  0  0  0  0  0  0  0  0  0
    2.2622   -0.5141    2.3534 H   0  0  0  0  0  0  0  0  0  0  0  0
    3.7840    1.8198    1.4583 H   0  0  0  0  0  0  0  0  0  0  0  0
    2.4971    1.7928    4.2444 H   0  0  0  0  0  0  0  0  0  0  0  0
    3.6800    2.9847    3.6617 H   0  0  0  0  0  0  0  0  0  0  0  0
    2.0716    2.8978    2.9182 H   0  0  0  0  0  0  0  0  0  0  0  0
    5.8186    1.0402    3.0819 N   0  0  0  0  0  0  0  0  0  0  0  0
    6.9724    0.3128    3.5978 C   0  0  0  0  0  0  0  0  0  0  0  0
    5.9360    2.0054    2.7880 H   0  0  0  0  0  0  0  0  0  0  0  0
    6.7712   -0.0588    4.6081 H   0  0  0  0  0  0  0  0  0  0  0  0
    7.2101   -0.5382    2.9508 H   0  0  0  0  0  0  0  0  0  0  0  0
    7.8466    0.9696    3.6395 H   0  0  0  0  0  0  0  0  0  0  0  0
  1  2  2  0  0  0  0
  1  3  1  0  0  0  0
  1  7  1  0  0  0  0
  3  4  1  0  0  0  0
  3  5  1  0  0  0  0
  3  6  1  0  0  0  0
  7  8  1  0  0  0  0
  7 12  1  0  0  0  0
  8  9  1  0  0  0  0
  8 11  1  0  0  0  0
  8 13  1  0  0  0  0
  9 10  2  0  0  0  0
  9 17  1  0  0  0  0
 11 14  1  0  0  0  0
 11 15  1  0  0  0  0
 11 16  1  0  0  0  0
 17 18  1  0  0  0  0
 17 22  1  0  0  0  0
 18 19  1  0  0  0  0
 18 21  1  0  0  0  0
 18 23  1  0  0  0  0
 19 20  2  0  0  0  0
 19 27  1  0  0  0  0
 21 24  1  0  0  0  0
 21 25  1  0  0  0  0
 21 26  1  0  0  0  0
 27 28  1  0  0  0  0
 27 32  1  0  0  0  0
 28 29  1  0  0  0  0
 28 31  1  0  0  0  0
 28 33  1  0  0  0  0
 29 30  2  0  0  0  0
 29 37  1  0  0  0  0
 31 34  1  0  0  0  0
 31 35  1  0  0  0  0
 31 36  1  0  0  0  0
 37 38  1  0  0  0  0
 37 39  1  0  0  0  0
 38 40  1  0  0  0  0
 38 41  1  0  0  0  0
 38 42  1  0  0  0  0
M  END
$$$$

  -OEChem-05262215353D

 42 41  0     1  0  0  0  0  0999 V2000
   -5.6083   -0.9948    1.8548 C   0  0  0  0  0  0  0  0  0  0  0  0
   -6.0336    0.0645    1.4221 O   0  0  0  0  0  0  0  0  0  0  0  0
   -6.5225   -2.2018    1.9470 C   0  0  0  0  0  0  0  0  0  0  0  0
   -6.5926   -2.5384    2.9841 H   0  0  0  0  0  0  0  0  0  0  0  0
   -7.5241   -1.9451    1.5908 H   0  0  0  0  0  0  0  0  0  0  0  0
   -6.1284   -3.0149    1.3325 H   0  0  0  0  0  0  0  0  0  0  0  0
   -4.2890   -1.1063    2.2391 N   0  0  0  0  0  0  0  0  0  0  0  0
   -3.2672   -0.0815    1.9885 C   0  0  2  0  0  0  0  0  0  0  0  0
   -1.9139   -0.7176    1.6088 C   0  0  0  0  0  0  0  0  0  0  0  0
   -1.6877   -1.8923    1.8800 O   0  0  0  0  0  0  0  0  0  0  0  0
   -3.1279    0.7790    3.2469 C   0  0  0  0  0  0  0  0  0  0  0  0
   -3.9500   -2.0403    2.4678 H   0  0  0  0  0  0  0  0  0  0  0  0
   -3.5736    0.5545    1.1509 H   0  0  0  0  0  0  0  0  0  0  0  0
   -2.8029    0.1679    4.0950 H   0  0  0  0  0  0  0  0  0  0  0  0
   -2.3944    1.5756    3.0894 H   0  0  0  0  0  0  0  0  0  0  0  0
   -4.0892    1.2397    3.4966 H   0  0  0  0  0  0  0  0  0  0  0  0
   -0.9595    0.0206    0.9360 N   0  0  0  0  0  0  0  0  0  0  0  0
    0.3697   -0.4694    0.5489 C   0  0  2  0  0  0  0  0  0  0  0  0
    1.4549    0.5744    0.8759 C   0  0  0  0  0  0  0  0  0  0  0  0
    1.3482    1.7167    0.4440 O   0  0  0  0  0  0  0  0  0  0  0  0
    0.3506   -0.8013   -0.9449 C   0  0  0  0  0  0  0  0  0  0  0  0
   -1.1628    1.0030    0.7593 H   0  0  0  0  0  0  0  0  0  0  0  0
    0.6145   -1.3815    1.1037 H   0  0  0  0  0  0  0  0  0  0  0  0
    0.1170    0.0905   -1.5352 H   0  0  0  0  0  0  0  0  0  0  0  0
    1.3258   -1.1833   -1.2618 H   0  0  0  0  0  0  0  0  0  0  0  0
   -0.4052   -1.5654   -1.1526 H   0  0  0  0  0  0  0  0  0  0  0  0
    2.4890    0.2751    1.7412 N   0  0  0  0  0  0  0  0  0  0  0  0
    3.6181    1.1721    2.0209 C   0  0  2  0  0  0  0  0  0  0  0  0
    4.9352    0.3878    2.2001 C   0  0  0  0  0  0  0  0  0  0  0  0
    4.9131   -0.8335    2.3075 O   0  0  0  0  0  0  0  0  0  0  0  0
    3.2869    1.9802    3.2787 C   0  0  0  0  0  0  0  0  0  0  0  0
    2.6104   -0.7033    2.0038 H   0  0  0  0  0  0  0  0  0  0  0  0
    3.7643    1.8592    1.1807 H   0  0  0  0  0  0  0  0  0  0  0  0
    3.1450    1.3142    4.1358 H   0  0  0  0  0  0  0  0  0  0  0  0
    4.0946    2.6806    3.5107 H   0  0  0  0  0  0  0  0  0  0  0  0
    2.3668    2.5538    3.1267 H   0  0  0  0  0  0  0  0  0  0  0  0
    6.1505    1.0475    2.2136 N   0  0  0  0  0  0  0  0  0  0  0  0
    7.4317    0.3601    2.3227 C   0  0  0  0  0  0  0  0  0  0  0  0
    6.1412    2.0554    2.0869 H   0  0  0  0  0  0  0  0  0  0  0  0
    7.4636   -0.2514    3.2304 H   0  0  0  0  0  0  0  0  0  0  0  0
    7.5931   -0.2881    1.4550 H   0  0  0  0  0  0  0  0  0  0  0  0
    8.2486    1.0863    2.3693 H   0  0  0  0  0  0  0  0  0  0  0  0
  1  2  2  0  0  0  0
  1  3  1  0  0  0  0
  1  7  1  0  0  0  0
  3  4  1  0  0  0  0
  3  5  1  0  0  0  0
  3  6  1  0  0  0  0
  7  8  1  0  0  0  0
  7 12  1  0  0  0  0
  8  9  1  0  0  0  0
  8 11  1  0  0  0  0
  8 13  1  0  0  0  0
  9 10  2  0  0  0  0
  9 17  1  0  0  0  0
 11 14  1  0  0  0  0
 11 15  1  0  0  0  0
 11 16  1  0  0  0  0
 17 18  1  0  0  0  0
 17 22  1  0  0  0  0
 18 19  1  0  0  0  0
 18 21  1  0  0  0  0
 18 23  1  0  0  0  0
 19 20  2  0  0  0  0
 19 27  1  0  0  0  0
 21 24  1  0  0  0  0
 21 25  1  0  0  0  0
 21 26  1  0  0  0  0
 27 28  1  0  0  0  0
 27 32  1  0  0  0  0
 28 29  1  0  0  0  0
 28 31  1  0  0  0  0
 28 33  1  0  0  0  0
 29 30  2  0  0  0  0
 29 37  1  0  0  0  0
 31 34  1  0  0  0  0
 31 35  1  0  0  0  0
 31 36  1  0  0  0  0
 37 38  1  0  0  0  0
 37 39  1  0  0  0  0
 38 40  1  0  0  0  0
 38 41  1  0  0  0  0
 38 42  1  0  0  0  0
M  END
$$$$

  -OEChem-05262215353D

 42 41  0     1  0  0  0  0  0999 V2000
   -5.6100   -1.0314    2.0063 C   0  0  0  0  0  0  0  0  0  0  0  0
   -6.0810    0.0325    1.6363 O   0  0  0  0  0  0  0  0  0  0  0  0
   -6.5176   -2.2220    2.2521 C   0  0  0  0  0  0  0  0  0  0  0  0
   -6.4377   -2.5430    3.2935 H   0  0  0  0  0  0  0  0  0  0  0  0
   -7.5569   -1.9524    2.0450 H   0  0  0  0  0  0  0  0  0  0  0  0
   -6.2319   -3.0505    1.5996 H   0  0  0  0  0  0  0  0  0  0  0  0
   -4.2504   -1.1570    2.1959 N   0  0  0  0  0  0  0  0  0  0  0  0
   -3.2649   -0.1244    1.8516 C   0  0  2  0  0  0  0  0  0  0  0  0
   -1.9191   -0.7458    1.4222 C   0  0  0  0  0  0  0  0  0  0  0  0
   -1.6991   -1.9369    1.6174 O   0  0  0  0  0  0  0  0  0  0  0  0
   -3.0746    0.7873    3.0675 C   0  0  0  0  0  0  0  0  0  0  0  0
   -3.8870   -2.0917    2.3796 H   0  0  0  0  0  0  0  0  0  0  0  0
   -3.6321    0.4708    1.0084 H   0  0  0  0  0  0  0  0  0  0  0  0
   -2.6958    0.2140    3.9198 H   0  0  0  0  0  0  0  0  0  0  0  0
   -2.3633    1.5874    2.8412 H   0  0  0  0  0  0  0  0  0  0  0  0
   -4.0281    1.2447    3.3506 H   0  0  0  0  0  0  0  0  0  0  0  0
   -0.9567    0.0299    0.8051 N   0  0  0  0  0  0  0  0  0  0  0  0
    0.3905   -0.4299    0.4442 C   0  0  2  0  0  0  0  0  0  0  0  0
    1.4551    0.6118    0.8383 C   0  0  0  0  0  0  0  0  0  0  0  0
    1.2375    1.8045    0.6539 O   0  0  0  0  0  0  0  0  0  0  0  0
    0.4276   -0.7030   -1.0605 C   0  0  0  0  0  0  0  0  0  0  0  0
   -1.1384    1.0299    0.7292 H   0  0  0  0  0  0  0  0  0  0  0  0
    0.6278   -1.3577    0.9754 H   0  0  0  0  0  0  0  0  0  0  0  0
    0.1957    0.2072   -1.6227 H   0  0  0  0  0  0  0  0  0  0  0  0
    1.4204   -1.0534   -1.3593 H   0  0  0  0  0  0  0  0  0  0  0  0
   -0.3054   -1.4724   -1.3232 H   0  0  0  0  0  0  0  0  0  0  0  0
    2.6229    0.2244    1.4657 N   0  0  0  0  0  0  0  0  0  0  0  0
    3.7567    1.1196    1.7299 C   0  0  2  0  0  0  0  0  0  0  0  0
    5.1030    0.3916    1.5281 C   0  0  0  0  0  0  0  0  0  0  0  0
    5.1303   -0.8303    1.4262 O   0  0  0  0  0  0  0  0  0  0  0  0
    3.6299    1.6465    3.1621 C   0  0  0  0  0  0  0  0  0  0  0  0
    2.8209   -0.7758    1.5038 H   0  0  0  0  0  0  0  0  0  0  0  0
    3.7366    1.9642    1.0328 H   0  0  0  0  0  0  0  0  0  0  0  0
    3.6592    0.8193    3.8785 H   0  0  0  0  0  0  0  0  0  0  0  0
    4.4472    2.3365    3.3923 H   0  0  0  0  0  0  0  0  0  0  0  0
    2.6825    2.1809    3.2857 H   0  0  0  0  0  0  0  0  0  0  0  0
    6.2833    1.1059    1.4337 N   0  0  0  0  0  0  0  0  0  0  0  0
    7.5796    0.4808    1.1967 C   0  0  0  0  0  0  0  0  0  0  0  0
    6.2275    2.1189    1.4895 H   0  0  0  0  0  0  0  0  0  0  0  0
    7.8191   -0.2235    2.0005 H   0  0  0  0  0  0  0  0  0  0  0  0
    7.5771   -0.0599    0.2443 H   0  0  0  0  0  0  0  0  0  0  0  0
    8.3652    1.2416    1.1594 H   0  0  0  0  0  0  0  0  0  0  0  0
  1  2  2  0  0  0  0
  1  3  1  0  0  0  0
  1  7  1  0  0  0  0
  3  4  1  0  0  0  0
  3  5  1  0  0  0  0
  3  6  1  0  0  0  0
  7  8  1  0  0  0  0
  7 12  1  0  0  0  0
  8  9  1  0  0  0  0
  8 11  1  0  0  0  0
  8 13  1  0  0  0  0
  9 10  2  0  0  0  0
  9 17  1  0  0  0  0
 11 14  1  0  0  0  0
 11 15  1  0  0  0  0
 11 16  1  0  0  0  0
 17 18  1  0  0  0  0
 17 22  1  0  0  0  0
 18 19  1  0  0  0  0
 18 21  1  0  0  0  0
 18 23  1  0  0  0  0
 19 20  2  0  0  0  0
 19 27  1  0  0  0  0
 21 24  1  0  0  0  0
 21 25  1  0  0  0  0
 21 26  1  0  0  0  0
 27 28  1  0  0  0  0
 27 32  1  0  0  0  0
 28 29  1  0  0  0  0
 28 31  1  0  0  0  0
 28 33  1  0  0  0  0
 29 30  2  0  0  0  0
 29 37  1  0  0  0  0
 31 34  1  0  0  0  0
 31 35  1  0  0  0  0
 31 36  1  0  0  0  0
 37 38  1  0  0  0  0
 37 39  1  0  0  0  0
 38 40  1  0  0  0  0
 38 41  1  0  0  0  0
 38 42  1  0  0  0  0
M  END
$$$$

  -OEChem-05262215353D

 42 41  0     1  0  0  0  0  0999 V2000
   -5.6137   -1.0212    2.0360 C   0  0  0  0  0  0  0  0  0  0  0  0
   -6.0775    0.0573    1.7008 O   0  0  0  0  0  0  0  0  0  0  0  0
   -6.5327   -2.2052    2.2705 C   0  0  0  0  0  0  0  0  0  0  0  0
   -6.4358   -2.5544    3.3014 H   0  0  0  0  0  0  0  0  0  0  0  0
   -7.5725   -1.9169    2.0921 H   0  0  0  0  0  0  0  0  0  0  0  0
   -6.2715   -3.0196    1.5905 H   0  0  0  0  0  0  0  0  0  0  0  0
   -4.2518   -1.1695    2.1908 N   0  0  0  0  0  0  0  0  0  0  0  0
   -3.2617   -0.1410    1.8448 C   0  0  2  0  0  0  0  0  0  0  0  0
   -1.9260   -0.7660    1.3883 C   0  0  0  0  0  0  0  0  0  0  0  0
   -1.7185   -1.9645    1.5491 O   0  0  0  0  0  0  0  0  0  0  0  0
   -3.0495    0.7573    3.0675 C   0  0  0  0  0  0  0  0  0  0  0  0
   -3.8971   -2.1127    2.3460 H   0  0  0  0  0  0  0  0  0  0  0  0
   -3.6362    0.4654    1.0130 H   0  0  0  0  0  0  0  0  0  0  0  0
   -2.6604    0.1741    3.9081 H   0  0  0  0  0  0  0  0  0  0  0  0
   -2.3392    1.5576    2.8385 H   0  0  0  0  0  0  0  0  0  0  0  0
   -3.9967    1.2154    3.3702 H   0  0  0  0  0  0  0  0  0  0  0  0
   -0.9625    0.0135    0.7772 N   0  0  0  0  0  0  0  0  0  0  0  0
    0.3918   -0.4422    0.4371 C   0  0  2  0  0  0  0  0  0  0  0  0
    1.4513    0.6045    0.8337 C   0  0  0  0  0  0  0  0  0  0  0  0
    1.1551    1.7945    0.8636 O   0  0  0  0  0  0  0  0  0  0  0  0
    0.4471   -0.7229   -1.0656 C   0  0  0  0  0  0  0  0  0  0  0  0
   -1.1181    1.0210    0.7676 H   0  0  0  0  0  0  0  0  0  0  0  0
    0.6268   -1.3639    0.9799 H   0  0  0  0  0  0  0  0  0  0  0  0
    0.2341    0.1877   -1.6346 H   0  0  0  0  0  0  0  0  0  0  0  0
    1.4390   -1.0878   -1.3499 H   0  0  0  0  0  0  0  0  0  0  0  0
   -0.2919   -1.4842   -1.3349 H   0  0  0  0  0  0  0  0  0  0  0  0
    2.7266    0.2115    1.1892 N   0  0  0  0  0  0  0  0  0  0  0  0
    3.8534    1.1350    1.3747 C   0  0  2  0  0  0  0  0  0  0  0  0
    5.1570    0.5489    0.7921 C   0  0  0  0  0  0  0  0  0  0  0  0
    5.2134   -0.6381    0.4885 O   0  0  0  0  0  0  0  0  0  0  0  0
    4.0038    1.4149    2.8721 C   0  0  0  0  0  0  0  0  0  0  0  0
    2.9707   -0.7658    1.0269 H   0  0  0  0  0  0  0  0  0  0  0  0
    3.6579    2.0766    0.8504 H   0  0  0  0  0  0  0  0  0  0  0  0
    4.2100    0.4877    3.4166 H   0  0  0  0  0  0  0  0  0  0  0  0
    4.8248    2.1154    3.0521 H   0  0  0  0  0  0  0  0  0  0  0  0
    3.0826    1.8544    3.2678 H   0  0  0  0  0  0  0  0  0  0  0  0
    6.2627    1.3537    0.5875 N   0  0  0  0  0  0  0  0  0  0  0  0
    7.5133    0.8649    0.0179 C   0  0  0  0  0  0  0  0  0  0  0  0
    6.1819    2.3376    0.8276 H   0  0  0  0  0  0  0  0  0  0  0  0
    7.9503    0.0921    0.6593 H   0  0  0  0  0  0  0  0  0  0  0  0
    7.3423    0.4411   -0.9776 H   0  0  0  0  0  0  0  0  0  0  0  0
    8.2329    1.6842   -0.0753 H   0  0  0  0  0  0  0  0  0  0  0  0
  1  2  2  0  0  0  0
  1  3  1  0  0  0  0
  1  7  1  0  0  0  0
  3  4  1  0  0  0  0
  3  5  1  0  0  0  0
  3  6  1  0  0  0  0
  7  8  1  0  0  0  0
  7 12  1  0  0  0  0
  8  9  1  0  0  0  0
  8 11  1  0  0  0  0
  8 13  1  0  0  0  0
  9 10  2  0  0  0  0
  9 17  1  0  0  0  0
 11 14  1  0  0  0  0
 11 15  1  0  0  0  0
 11 16  1  0  0  0  0
 17 18  1  0  0  0  0
 17 22  1  0  0  0  0
 18 19  1  0  0  0  0
 18 21  1  0  0  0  0
 18 23  1  0  0  0  0
 19 20  2  0  0  0  0
 19 27  1  0  0  0  0
 21 24  1  0  0  0  0
 21 25  1  0  0  0  0
 21 26  1  0  0  0  0
 27 28  1  0  0  0  0
 27 32  1  0  0  0  0
 28 29  1  0  0  0  0
 28 31  1  0  0  0  0
 28 33  1  0  0  0  0
 29 30  2  0  0  0  0
 29 37  1  0  0  0  0
 31 34  1  0  0  0  0
 31 35  1  0  0  0  0
 31 36  1  0  0  0  0
 37 38  1  0  0  0  0
 37 39  1  0  0  0  0
 38 40  1  0  0  0  0
 38 41  1  0  0  0  0
 38 42  1  0  0  0  0
M  END
$$$$

  -OEChem-05262215353D

 42 41  0     1  0  0  0  0  0999 V2000
   -5.6182   -1.0182    2.0423 C   0  0  0  0  0  0  0  0  0  0  0  0
   -6.0788    0.0699    1.7351 O   0  0  0  0  0  0  0  0  0  0  0  0
   -6.5438   -2.1982    2.2720 C   0  0  0  0  0  0  0  0  0  0  0  0
   -6.4091   -2.5872    3.2841 H   0  0  0  0  0  0  0  0  0  0  0  0
   -7.5856   -1.8890    2.1500 H   0  0  0  0  0  0  0  0  0  0  0  0
   -6.3243   -2.9905    1.5523 H   0  0  0  0  0  0  0  0  0  0  0  0
   -4.2554   -1.1794    2.1752 N   0  0  0  0  0  0  0  0  0  0  0  0
   -3.2613   -0.1512    1.8401 C   0  0  2  0  0  0  0  0  0  0  0  0
   -1.9325   -0.7783    1.3670 C   0  0  0  0  0  0  0  0  0  0  0  0
   -1.7308   -1.9802    1.5117 O   0  0  0  0  0  0  0  0  0  0  0  0
   -3.0344    0.7277    3.0743 C   0  0  0  0  0  0  0  0  0  0  0  0
   -3.9050   -2.1276    2.3079 H   0  0  0  0  0  0  0  0  0  0  0  0
   -3.6373    0.4701    1.0201 H   0  0  0  0  0  0  0  0  0  0  0  0
   -2.6406    0.1304    3.9030 H   0  0  0  0  0  0  0  0  0  0  0  0
   -2.3226    1.5284    2.8514 H   0  0  0  0  0  0  0  0  0  0  0  0
   -3.9769    1.1855    3.3913 H   0  0  0  0  0  0  0  0  0  0  0  0
   -0.9704    0.0034    0.7567 N   0  0  0  0  0  0  0  0  0  0  0  0
    0.3914   -0.4502    0.4415 C   0  0  2  0  0  0  0  0  0  0  0  0
    1.4471    0.6040    0.8337 C   0  0  0  0  0  0  0  0  0  0  0  0
    1.1071    1.7589    1.0709 O   0  0  0  0  0  0  0  0  0  0  0  0
    0.4596   -0.7525   -1.0575 C   0  0  0  0  0  0  0  0  0  0  0  0
   -1.1132    1.0126    0.7882 H   0  0  0  0  0  0  0  0  0  0  0  0
    0.6253   -1.3624    1.0008 H   0  0  0  0  0  0  0  0  0  0  0  0
    0.2520    0.1503   -1.6409 H   0  0  0  0  0  0  0  0  0  0  0  0
    1.4527   -1.1232   -1.3299 H   0  0  0  0  0  0  0  0  0  0  0  0
   -0.2779   -1.5167   -1.3225 H   0  0  0  0  0  0  0  0  0  0  0  0
    2.7821    0.2572    0.9085 N   0  0  0  0  0  0  0  0  0  0  0  0
    3.8833    1.2241    1.0094 C   0  0  2  0  0  0  0  0  0  0  0  0
    5.0559    0.8293    0.0865 C   0  0  0  0  0  0  0  0  0  0  0  0
    5.0757   -0.2792   -0.4382 O   0  0  0  0  0  0  0  0  0  0  0  0
    4.3360    1.2843    2.4704 C   0  0  0  0  0  0  0  0  0  0  0  0
    3.0335   -0.6660    0.5547 H   0  0  0  0  0  0  0  0  0  0  0  0
    3.5447    2.2176    0.6968 H   0  0  0  0  0  0  0  0  0  0  0  0
    4.6993    0.3054    2.7997 H   0  0  0  0  0  0  0  0  0  0  0  0
    5.1410    2.0150    2.5941 H   0  0  0  0  0  0  0  0  0  0  0  0
    3.5002    1.5807    3.1122 H   0  0  0  0  0  0  0  0  0  0  0  0
    6.0815    1.7198   -0.1718 N   0  0  0  0  0  0  0  0  0  0  0  0
    7.2052    1.4114   -1.0483 C   0  0  0  0  0  0  0  0  0  0  0  0
    6.0319    2.6367    0.2629 H   0  0  0  0  0  0  0  0  0  0  0  0
    7.7760    0.5631   -0.6563 H   0  0  0  0  0  0  0  0  0  0  0  0
    6.8498    1.1617   -2.0536 H   0  0  0  0  0  0  0  0  0  0  0  0
    7.8753    2.2731   -1.1230 H   0  0  0  0  0  0  0  0  0  0  0  0
  1  2  2  0  0  0  0
  1  3  1  0  0  0  0
  1  7  1  0  0  0  0
  3  4  1  0  0  0  0
  3  5  1  0  0  0  0
  3  6  1  0  0  0  0
  7  8  1  0  0  0  0
  7 12  1  0  0  0  0
  8  9  1  0  0  0  0
  8 11  1  0  0  0  0
  8 13  1  0  0  0  0
  9 10  2  0  0  0  0
  9 17  1  0  0  0  0
 11 14  1  0  0  0  0
 11 15  1  0  0  0  0
 11 16  1  0  0  0  0
 17 18  1  0  0  0  0
 17 22  1  0  0  0  0
 18 19  1  0  0  0  0
 18 21  1  0  0  0  0
 18 23  1  0  0  0  0
 19 20  2  0  0  0  0
 19 27  1  0  0  0  0
 21 24  1  0  0  0  0
 21 25  1  0  0  0  0
 21 26  1  0  0  0  0
 27 28  1  0  0  0  0
 27 32  1  0  0  0  0
 28 29  1  0  0  0  0
 28 31  1  0  0  0  0
 28 33  1  0  0  0  0
 29 30  2  0  0  0  0
 29 37  1  0  0  0  0
 31 34  1  0  0  0  0
 31 35  1  0  0  0  0
 31 36  1  0  0  0  0
 37 38  1  0  0  0  0
 37 39  1  0  0  0  0
 38 40  1  0  0  0  0
 38 41  1  0  0  0  0
 38 42  1  0  0  0  0
M  END
$$$$

  -OEChem-05262215353D

 42 41  0     1  0  0  0  0  0999 V2000
   -5.5854   -0.9392    2.0815 C   0  0  0  0  0  0  0  0  0  0  0  0
   -6.0122    0.1763    1.8285 O   0  0  0  0  0  0  0  0  0  0  0  0
   -6.5484   -2.0935    2.2847 C   0  0  0  0  0  0  0  0  0  0  0  0
   -6.3846   -2.5493    3.2642 H   0  0  0  0  0  0  0  0  0  0  0  0
   -7.5805   -1.7360    2.2302 H   0  0  0  0  0  0  0  0  0  0  0  0
   -6.3941   -2.8479    1.5096 H   0  0  0  0  0  0  0  0  0  0  0  0
   -4.2272   -1.1571    2.1708 N   0  0  0  0  0  0  0  0  0  0  0  0
   -3.2038   -0.1611    1.8285 C   0  0  2  0  0  0  0  0  0  0  0  0
   -1.9355   -0.8251    1.2526 C   0  0  0  0  0  0  0  0  0  0  0  0
   -1.7827   -2.0399    1.3356 O   0  0  0  0  0  0  0  0  0  0  0  0
   -2.8631    0.6402    3.0891 C   0  0  0  0  0  0  0  0  0  0  0  0
   -3.9129   -2.1236    2.2501 H   0  0  0  0  0  0  0  0  0  0  0  0
   -3.5910    0.5190    1.0619 H   0  0  0  0  0  0  0  0  0  0  0  0
   -2.4687   -0.0208    3.8675 H   0  0  0  0  0  0  0  0  0  0  0  0
   -2.1119    1.4052    2.8689 H   0  0  0  0  0  0  0  0  0  0  0  0
   -3.7583    1.1383    3.4750 H   0  0  0  0  0  0  0  0  0  0  0  0
   -0.9694   -0.0511    0.6386 N   0  0  0  0  0  0  0  0  0  0  0  0
    0.3961   -0.5200    0.3607 C   0  0  2  0  0  0  0  0  0  0  0  0
    1.4475    0.3581    1.0729 C   0  0  0  0  0  0  0  0  0  0  0  0
    1.0977    1.3527    1.7012 O   0  0  0  0  0  0  0  0  0  0  0  0
    0.5933   -0.4890   -1.1580 C   0  0  0  0  0  0  0  0  0  0  0  0
   -1.0649    0.9528    0.7857 H   0  0  0  0  0  0  0  0  0  0  0  0
    0.5387   -1.5464    0.7154 H   0  0  0  0  0  0  0  0  0  0  0  0
    0.5006    0.5345   -1.5354 H   0  0  0  0  0  0  0  0  0  0  0  0
    1.5820   -0.8719   -1.4291 H   0  0  0  0  0  0  0  0  0  0  0  0
   -0.1617   -1.1114   -1.6487 H   0  0  0  0  0  0  0  0  0  0  0  0
    2.7942    0.0819    0.9391 N   0  0  0  0  0  0  0  0  0  0  0  0
    3.8696    1.0109    1.3081 C   0  0  2  0  0  0  0  0  0  0  0  0
    4.9844    1.0204    0.2412 C   0  0  0  0  0  0  0  0  0  0  0  0
    5.0117    0.1514   -0.6242 O   0  0  0  0  0  0  0  0  0  0  0  0
    4.4209    0.5854    2.6709 C   0  0  0  0  0  0  0  0  0  0  0  0
    3.0468   -0.6494    0.2744 H   0  0  0  0  0  0  0  0  0  0  0  0
    3.4808    2.0322    1.3800 H   0  0  0  0  0  0  0  0  0  0  0  0
    4.8376   -0.4256    2.6166 H   0  0  0  0  0  0  0  0  0  0  0  0
    5.2083    1.2708    2.9980 H   0  0  0  0  0  0  0  0  0  0  0  0
    3.6231    0.5941    3.4205 H   0  0  0  0  0  0  0  0  0  0  0  0
    5.9454    2.0141    0.2359 N   0  0  0  0  0  0  0  0  0  0  0  0
    6.9980    2.1006   -0.7687 C   0  0  0  0  0  0  0  0  0  0  0  0
    5.8801    2.7386    0.9451 H   0  0  0  0  0  0  0  0  0  0  0  0
    7.6076    1.1911   -0.7636 H   0  0  0  0  0  0  0  0  0  0  0  0
    6.5651    2.2296   -1.7663 H   0  0  0  0  0  0  0  0  0  0  0  0
    7.6507    2.9539   -0.5614 H   0  0  0  0  0  0  0  0  0  0  0  0
  1  2  2  0  0  0  0
  1  3  1  0  0  0  0
  1  7  1  0  0  0  0
  3  4  1  0  0  0  0
  3  5  1  0  0  0  0
  3  6  1  0  0  0  0
  7  8  1  0  0  0  0
  7 12  1  0  0  0  0
  8  9  1  0  0  0  0
  8 11  1  0  0  0  0
  8 13  1  0  0  0  0
  9 10  2  0  0  0  0
  9 17  1  0  0  0  0
 11 14  1  0  0  0  0
 11 15  1  0  0  0  0
 11 16  1  0  0  0  0
 17 18  1  0  0  0  0
 17 22  1  0  0  0  0
 18 19  1  0  0  0  0
 18 21  1  0  0  0  0
 18 23  1  0  0  0  0
 19 20  2  0  0  0  0
 19 27  1  0  0  0  0
 21 24  1  0  0  0  0
 21 25  1  0  0  0  0
 21 26  1  0  0  0  0
 27 28  1  0  0  0  0
 27 32  1  0  0  0  0
 28 29  1  0  0  0  0
 28 31  1  0  0  0  0
 28 33  1  0  0  0  0
 29 30  2  0  0  0  0
 29 37  1  0  0  0  0
 31 34  1  0  0  0  0
 31 35  1  0  0  0  0
 31 36  1  0  0  0  0
 37 38  1  0  0  0  0
 37 39  1  0  0  0  0
 38 40  1  0  0  0  0
 38 41  1  0  0  0  0
 38 42  1  0  0  0  0
M  END
$$$$

  -OEChem-05262215353D

 42 41  0     1  0  0  0  0  0999 V2000
   -5.5811   -0.9302    2.1107 C   0  0  0  0  0  0  0  0  0  0  0  0
   -5.9959    0.1994    1.9046 O   0  0  0  0  0  0  0  0  0  0  0  0
   -6.5587   -2.0722    2.3186 C   0  0  0  0  0  0  0  0  0  0  0  0
   -6.3584   -2.5652    3.2730 H   0  0  0  0  0  0  0  0  0  0  0  0
   -7.5849   -1.6936    2.3268 H   0  0  0  0  0  0  0  0  0  0  0  0
   -6.4585   -2.8017    1.5109 H   0  0  0  0  0  0  0  0  0  0  0  0
   -4.2243   -1.1727    2.1448 N   0  0  0  0  0  0  0  0  0  0  0  0
   -3.1946   -0.1784    1.8150 C   0  0  2  0  0  0  0  0  0  0  0  0
   -1.9392   -0.8393    1.2080 C   0  0  0  0  0  0  0  0  0  0  0  0
   -1.7923   -2.0562    1.2694 O   0  0  0  0  0  0  0  0  0  0  0  0
   -2.8293    0.5894    3.0897 C   0  0  0  0  0  0  0  0  0  0  0  0
   -3.9216   -2.1450    2.1955 H   0  0  0  0  0  0  0  0  0  0  0  0
   -3.5857    0.5234    1.0704 H   0  0  0  0  0  0  0  0  0  0  0  0
   -2.4228   -0.0919    3.8440 H   0  0  0  0  0  0  0  0  0  0  0  0
   -2.0798    1.3578    2.8758 H   0  0  0  0  0  0  0  0  0  0  0  0
   -3.7157    1.0800    3.5039 H   0  0  0  0  0  0  0  0  0  0  0  0
   -0.9781   -0.0605    0.5910 N   0  0  0  0  0  0  0  0  0  0  0  0
    0.3916   -0.5287    0.3278 C   0  0  2  0  0  0  0  0  0  0  0  0
    1.4374    0.3616    1.0380 C   0  0  0  0  0  0  0  0  0  0  0  0
    1.0741    1.2178    1.8382 O   0  0  0  0  0  0  0  0  0  0  0  0
    0.5872   -0.5282   -1.1928 C   0  0  0  0  0  0  0  0  0  0  0  0
   -1.0717    0.9399    0.7591 H   0  0  0  0  0  0  0  0  0  0  0  0
    0.5364   -1.5485    0.7003 H   0  0  0  0  0  0  0  0  0  0  0  0
    0.5182    0.4901   -1.5887 H   0  0  0  0  0  0  0  0  0  0  0  0
    1.5646   -0.9410   -1.4602 H   0  0  0  0  0  0  0  0  0  0  0  0
   -0.1837   -1.1409   -1.6711 H   0  0  0  0  0  0  0  0  0  0  0  0
    2.7725    0.2957    0.6873 N   0  0  0  0  0  0  0  0  0  0  0  0
    3.7761    1.3077    1.0416 C   0  0  2  0  0  0  0  0  0  0  0  0
    4.7166    1.5929   -0.1484 C   0  0  0  0  0  0  0  0  0  0  0  0
    4.7130    0.8495   -1.1244 O   0  0  0  0  0  0  0  0  0  0  0  0
    4.5643    0.8006    2.2522 C   0  0  0  0  0  0  0  0  0  0  0  0
    3.0052   -0.3001   -0.1071 H   0  0  0  0  0  0  0  0  0  0  0  0
    3.2865    2.2520    1.3018 H   0  0  0  0  0  0  0  0  0  0  0  0
    5.0806   -0.1339    2.0101 H   0  0  0  0  0  0  0  0  0  0  0  0
    5.3085    1.5396    2.5638 H   0  0  0  0  0  0  0  0  0  0  0  0
    3.8876    0.6175    3.0930 H   0  0  0  0  0  0  0  0  0  0  0  0
    5.5530    2.6935   -0.1368 N   0  0  0  0  0  0  0  0  0  0  0  0
    6.4444    3.0329   -1.2396 C   0  0  0  0  0  0  0  0  0  0  0  0
    5.5187    3.3038    0.6747 H   0  0  0  0  0  0  0  0  0  0  0  0
    7.1529    2.2185   -1.4243 H   0  0  0  0  0  0  0  0  0  0  0  0
    5.8712    3.2156   -2.1547 H   0  0  0  0  0  0  0  0  0  0  0  0
    7.0125    3.9374   -1.0020 H   0  0  0  0  0  0  0  0  0  0  0  0
  1  2  2  0  0  0  0
  1  3  1  0  0  0  0
  1  7  1  0  0  0  0
  3  4  1  0  0  0  0
  3  5  1  0  0  0  0
  3  6  1  0  0  0  0
  7  8  1  0  0  0  0
  7 12  1  0  0  0  0
  8  9  1  0  0  0  0
  8 11  1  0  0  0  0
  8 13  1  0  0  0  0
  9 10  2  0  0  0  0
  9 17  1  0  0  0  0
 11 14  1  0  0  0  0
 11 15  1  0  0  0  0
 11 16  1  0  0  0  0
 17 18  1  0  0  0  0
 17 22  1  0  0  0  0
 18 19  1  0  0  0  0
 18 21  1  0  0  0  0
 18 23  1  0  0  0  0
 19 20  2  0  0  0  0
 19 27  1  0  0  0  0
 21 24  1  0  0  0  0
 21 25  1  0  0  0  0
 21 26  1  0  0  0  0
 27 28  1  0  0  0  0
 27 32  1  0  0  0  0
 28 29  1  0  0  0  0
 28 31  1  0  0  0  0
 28 33  1  0  0  0  0
 29 30  2  0  0  0  0
 29 37  1  0  0  0  0
 31 34  1  0  0  0  0
 31 35  1  0  0  0  0
 31 36  1  0  0  0  0
 37 38  1  0  0  0  0
 37 39  1  0  0  0  0
 38 40  1  0  0  0  0
 38 41  1  0  0  0  0
 38 42  1  0  0  0  0
M  END
$$$$

  -OEChem-05262215353D

 42 41  0     1  0  0  0  0  0999 V2000
   -5.5683   -0.9267    2.1151 C   0  0  0  0  0  0  0  0  0  0  0  0
   -5.9842    0.2018    1.9044 O   0  0  0  0  0  0  0  0  0  0  0  0
   -6.5426   -2.0731    2.3114 C   0  0  0  0  0  0  0  0  0  0  0  0
   -6.3411   -2.5765    3.2603 H   0  0  0  0  0  0  0  0  0  0  0  0
   -7.5697   -1.6976    2.3235 H   0  0  0  0  0  0  0  0  0  0  0  0
   -6.4391   -2.7929    1.4957 H   0  0  0  0  0  0  0  0  0  0  0  0
   -4.2119   -1.1672    2.1614 N   0  0  0  0  0  0  0  0  0  0  0  0
   -3.1805   -0.1754    1.8321 C   0  0  2  0  0  0  0  0  0  0  0  0
   -1.9410   -0.8384    1.1958 C   0  0  0  0  0  0  0  0  0  0  0  0
   -1.7994   -2.0565    1.2476 O   0  0  0  0  0  0  0  0  0  0  0  0
   -2.7912    0.5652    3.1155 C   0  0  0  0  0  0  0  0  0  0  0  0
   -3.9093   -2.1396    2.2107 H   0  0  0  0  0  0  0  0  0  0  0  0
   -3.5760    0.5434    1.1063 H   0  0  0  0  0  0  0  0  0  0  0  0
   -2.3905   -0.1359    3.8547 H   0  0  0  0  0  0  0  0  0  0  0  0
   -2.0296    1.3235    2.9082 H   0  0  0  0  0  0  0  0  0  0  0  0
   -3.6658    1.0640    3.5452 H   0  0  0  0  0  0  0  0  0  0  0  0
   -0.9921   -0.0615    0.5582 N   0  0  0  0  0  0  0  0  0  0  0  0
    0.3788   -0.5293    0.3000 C   0  0  2  0  0  0  0  0  0  0  0  0
    1.4196    0.3840    0.9895 C   0  0  0  0  0  0  0  0  0  0  0  0
    1.0860    1.0729    1.9475 O   0  0  0  0  0  0  0  0  0  0  0  0
    0.5583   -0.5840   -1.2215 C   0  0  0  0  0  0  0  0  0  0  0  0
   -1.0901    0.9382    0.7234 H   0  0  0  0  0  0  0  0  0  0  0  0
    0.5328   -1.5361    0.7026 H   0  0  0  0  0  0  0  0  0  0  0  0
    0.4899    0.4194   -1.6538 H   0  0  0  0  0  0  0  0  0  0  0  0
    1.5293   -1.0145   -1.4838 H   0  0  0  0  0  0  0  0  0  0  0  0
   -0.2212   -1.2094   -1.6682 H   0  0  0  0  0  0  0  0  0  0  0  0
    2.6819    0.5586    0.4549 N   0  0  0  0  0  0  0  0  0  0  0  0
    3.6086    1.6307    0.8390 C   0  0  2  0  0  0  0  0  0  0  0  0
    4.3523    2.1853   -0.3938 C   0  0  0  0  0  0  0  0  0  0  0  0
    4.3055    1.5805   -1.4602 O   0  0  0  0  0  0  0  0  0  0  0  0
    4.5957    1.0695    1.8653 C   0  0  0  0  0  0  0  0  0  0  0  0
    2.8624    0.1179   -0.4470 H   0  0  0  0  0  0  0  0  0  0  0  0
    3.0579    2.4639    1.2880 H   0  0  0  0  0  0  0  0  0  0  0  0
    5.1625    0.2368    1.4367 H   0  0  0  0  0  0  0  0  0  0  0  0
    5.3005    1.8429    2.1848 H   0  0  0  0  0  0  0  0  0  0  0  0
    4.0576    0.7080    2.7473 H   0  0  0  0  0  0  0  0  0  0  0  0
    5.0526    3.3749   -0.3181 N   0  0  0  0  0  0  0  0  0  0  0  0
    5.7407    3.9694   -1.4578 C   0  0  0  0  0  0  0  0  0  0  0  0
    5.0491    3.8701    0.5692 H   0  0  0  0  0  0  0  0  0  0  0  0
    6.4983    3.2820   -1.8491 H   0  0  0  0  0  0  0  0  0  0  0  0
    5.0286    4.2008   -2.2572 H   0  0  0  0  0  0  0  0  0  0  0  0
    6.2382    4.8971   -1.1588 H   0  0  0  0  0  0  0  0  0  0  0  0
  1  2  2  0  0  0  0
  1  3  1  0  0  0  0
  1  7  1  0  0  0  0
  3  4  1  0  0  0  0
  3  5  1  0  0  0  0
  3  6  1  0  0  0  0
  7  8  1  0  0  0  0
  7 12  1  0  0  0  0
  8  9  1  0  0  0  0
  8 11  1  0  0  0  0
  8 13  1  0  0  0  0
  9 10  2  0  0  0  0
  9 17  1  0  0  0  0
 11 14  1  0  0  0  0
 11 15  1  0  0  0  0
 11 16  1  0  0  0  0
 17 18  1  0  0  0  0
 17 22  1  0  0  0  0
 18 19  1  0  0  0  0
 18 21  1  0  0  0  0
 18 23  1  0  0  0  0
 19 20  2  0  0  0  0
 19 27  1  0  0  0  0
 21 24  1  0  0  0  0
 21 25  1  0  0  0  0
 21 26  1  0  0  0  0
 27 28  1  0  0  0  0
 27 32  1  0  0  0  0
 28 29  1  0  0  0  0
 28 31  1  0  0  0  0
 28 33  1  0  0  0  0
 29 30  2  0  0  0  0
 29 37  1  0  0  0  0
 31 34  1  0  0  0  0
 31 35  1  0  0  0  0
 31 36  1  0  0  0  0
 37 38  1  0  0  0  0
 37 39  1  0  0  0  0
 38 40  1  0  0  0  0
 38 41  1  0  0  0  0
 38 42  1  0  0  0  0
M  END
$$$$

  -OEChem-05262215353D

 42 41  0     1  0  0  0  0  0999 V2000
   -5.4972   -0.8862    1.7916 C   0  0  0  0  0  0  0  0  0  0  0  0
   -5.8433    0.1374    1.2232 O   0  0  0  0  0  0  0  0  0  0  0  0
   -6.4617   -2.0519    1.9050 C   0  0  0  0  0  0  0  0  0  0  0  0
   -6.6284   -2.2966    2.9569 H   0  0  0  0  0  0  0  0  0  0  0  0
   -7.4209   -1.7950    1.4467 H   0  0  0  0  0  0  0  0  0  0  0  0
   -6.0505   -2.9264    1.3944 H   0  0  0  0  0  0  0  0  0  0  0  0
   -4.2291   -1.0001    2.3219 N   0  0  0  0  0  0  0  0  0  0  0  0
   -3.1333   -0.0629    2.0365 C   0  0  2  0  0  0  0  0  0  0  0  0
   -1.9308   -0.7779    1.3867 C   0  0  0  0  0  0  0  0  0  0  0  0
   -1.8066   -1.9939    1.4932 O   0  0  0  0  0  0  0  0  0  0  0  0
   -2.7148    0.5899    3.3559 C   0  0  0  0  0  0  0  0  0  0  0  0
   -3.9492   -1.9380    2.6041 H   0  0  0  0  0  0  0  0  0  0  0  0
   -3.4624    0.7193    1.3444 H   0  0  0  0  0  0  0  0  0  0  0  0
   -2.3736   -0.1683    4.0681 H   0  0  0  0  0  0  0  0  0  0  0  0
   -1.8997    1.3018    3.1920 H   0  0  0  0  0  0  0  0  0  0  0  0
   -3.5609    1.1273    3.7952 H   0  0  0  0  0  0  0  0  0  0  0  0
   -0.9826   -0.0438    0.6995 N   0  0  0  0  0  0  0  0  0  0  0  0
    0.3681   -0.5499    0.4106 C   0  0  2  0  0  0  0  0  0  0  0  0
    1.4464    0.3601    1.0452 C   0  0  0  0  0  0  0  0  0  0  0  0
    1.2382    0.8680    2.1408 O   0  0  0  0  0  0  0  0  0  0  0  0
    0.4931   -0.6672   -1.1138 C   0  0  0  0  0  0  0  0  0  0  0  0
   -1.0721    0.9642    0.7999 H   0  0  0  0  0  0  0  0  0  0  0  0
    0.5145   -1.5460    0.8421 H   0  0  0  0  0  0  0  0  0  0  0  0
    0.4066    0.3165   -1.5870 H   0  0  0  0  0  0  0  0  0  0  0  0
    1.4552   -1.1093   -1.3906 H   0  0  0  0  0  0  0  0  0  0  0  0
   -0.3016   -1.3110   -1.5052 H   0  0  0  0  0  0  0  0  0  0  0  0
    2.5706    0.7463    0.3389 N   0  0  0  0  0  0  0  0  0  0  0  0
    3.4524    1.8574    0.7217 C   0  0  2  0  0  0  0  0  0  0  0  0
    3.7768    2.7516   -0.4931 C   0  0  0  0  0  0  0  0  0  0  0  0
    3.5289    2.3575   -1.6281 O   0  0  0  0  0  0  0  0  0  0  0  0
    4.7301    1.2652    1.3205 C   0  0  0  0  0  0  0  0  0  0  0  0
    2.5982    0.4790   -0.6447 H   0  0  0  0  0  0  0  0  0  0  0  0
    2.9674    2.4922    1.4708 H   0  0  0  0  0  0  0  0  0  0  0  0
    5.2436    0.6373    0.5852 H   0  0  0  0  0  0  0  0  0  0  0  0
    5.4112    2.0612    1.6358 H   0  0  0  0  0  0  0  0  0  0  0  0
    4.4875    0.6521    2.1943 H   0  0  0  0  0  0  0  0  0  0  0  0
    4.3319    4.0052   -0.3156 N   0  0  0  0  0  0  0  0  0  0  0  0
    4.6393    4.9072   -1.4191 C   0  0  0  0  0  0  0  0  0  0  0  0
    4.5000    4.3163    0.6368 H   0  0  0  0  0  0  0  0  0  0  0  0
    5.3590    4.4449   -2.1030 H   0  0  0  0  0  0  0  0  0  0  0  0
    3.7300    5.1532   -1.9776 H   0  0  0  0  0  0  0  0  0  0  0  0
    5.0734    5.8369   -1.0387 H   0  0  0  0  0  0  0  0  0  0  0  0
  1  2  2  0  0  0  0
  1  3  1  0  0  0  0
  1  7  1  0  0  0  0
  3  4  1  0  0  0  0
  3  5  1  0  0  0  0
  3  6  1  0  0  0  0
  7  8  1  0  0  0  0
  7 12  1  0  0  0  0
  8  9  1  0  0  0  0
  8 11  1  0  0  0  0
  8 13  1  0  0  0  0
  9 10  2  0  0  0  0
  9 17  1  0  0  0  0
 11 14  1  0  0  0  0
 11 15  1  0  0  0  0
 11 16  1  0  0  0  0
 17 18  1  0  0  0  0
 17 22  1  0  0  0  0
 18 19  1  0  0  0  0
 18 21  1  0  0  0  0
 18 23  1  0  0  0  0
 19 20  2  0  0  0  0
 19 27  1  0  0  0  0
 21 24  1  0  0  0  0
 21 25  1  0  0  0  0
 21 26  1  0  0  0  0
 27 28  1  0  0  0  0
 27 32  1  0  0  0  0
 28 29  1  0  0  0  0
 28 31  1  0  0  0  0
 28 33  1  0  0  0  0
 29 30  2  0  0  0  0
 29 37  1  0  0  0  0
 31 34  1  0  0  0  0
 31 35  1  0  0  0  0
 31 36  1  0  0  0  0
 37 38  1  0  0  0  0
 37 39  1  0  0  0  0
 38 40  1  0  0  0  0
 38 41  1  0  0  0  0
 38 42  1  0  0  0  0
M  END
$$$$

  -OEChem-05262215353D

 42 41  0     1  0  0  0  0  0999 V2000
   -5.5649   -0.9316    2.1003 C   0  0  0  0  0  0  0  0  0  0  0  0
   -5.9763    0.1985    1.8893 O   0  0  0  0  0  0  0  0  0  0  0  0
   -6.5442   -2.0714    2.3070 C   0  0  0  0  0  0  0  0  0  0  0  0
   -6.3441   -2.5676    3.2599 H   0  0  0  0  0  0  0  0  0  0  0  0
   -7.5690   -1.6899    2.3171 H   0  0  0  0  0  0  0  0  0  0  0  0
   -6.4465   -2.7985    1.4971 H   0  0  0  0  0  0  0  0  0  0  0  0
   -4.2093   -1.1770    2.1414 N   0  0  0  0  0  0  0  0  0  0  0  0
   -3.1759   -0.1865    1.8162 C   0  0  2  0  0  0  0  0  0  0  0  0
   -1.9281   -0.8488    1.1969 C   0  0  0  0  0  0  0  0  0  0  0  0
   -1.7742   -2.0638    1.2709 O   0  0  0  0  0  0  0  0  0  0  0  0
   -2.7997    0.5627    3.0988 C   0  0  0  0  0  0  0  0  0  0  0  0
   -3.9073   -2.1486    2.2058 H   0  0  0  0  0  0  0  0  0  0  0  0
   -3.5657    0.5268    1.0821 H   0  0  0  0  0  0  0  0  0  0  0  0
   -2.4032   -0.1326    3.8456 H   0  0  0  0  0  0  0  0  0  0  0  0
   -2.0385    1.3221    2.8944 H   0  0  0  0  0  0  0  0  0  0  0  0
   -3.6791    1.0613    3.5188 H   0  0  0  0  0  0  0  0  0  0  0  0
   -0.9890   -0.0716    0.5448 N   0  0  0  0  0  0  0  0  0  0  0  0
    0.3885   -0.5244    0.2967 C   0  0  2  0  0  0  0  0  0  0  0  0
    1.4081    0.4216    0.9716 C   0  0  0  0  0  0  0  0  0  0  0  0
    1.2679    0.7158    2.1518 O   0  0  0  0  0  0  0  0  0  0  0  0
    0.5710   -0.6347   -1.2221 C   0  0  0  0  0  0  0  0  0  0  0  0
   -1.1244    0.9309    0.6466 H   0  0  0  0  0  0  0  0  0  0  0  0
    0.5592   -1.5154    0.7317 H   0  0  0  0  0  0  0  0  0  0  0  0
    0.4246    0.3376   -1.7036 H   0  0  0  0  0  0  0  0  0  0  0  0
    1.5733   -1.0024   -1.4634 H   0  0  0  0  0  0  0  0  0  0  0  0
   -0.1584   -1.3387   -1.6355 H   0  0  0  0  0  0  0  0  0  0  0  0
    2.3614    1.0978    0.2331 N   0  0  0  0  0  0  0  0  0  0  0  0
    3.1455    2.2388    0.7229 C   0  0  2  0  0  0  0  0  0  0  0  0
    3.3291    3.3014   -0.3808 C   0  0  0  0  0  0  0  0  0  0  0  0
    3.0311    3.0372   -1.5411 O   0  0  0  0  0  0  0  0  0  0  0  0
    4.4995    1.7139    1.2066 C   0  0  0  0  0  0  0  0  0  0  0  0
    2.3190    0.9875   -0.7799 H   0  0  0  0  0  0  0  0  0  0  0  0
    2.6279    2.7241    1.5572 H   0  0  0  0  0  0  0  0  0  0  0  0
    5.0421    1.2385    0.3832 H   0  0  0  0  0  0  0  0  0  0  0  0
    5.1102    2.5308    1.6019 H   0  0  0  0  0  0  0  0  0  0  0  0
    4.3556    0.9754    2.0019 H   0  0  0  0  0  0  0  0  0  0  0  0
    3.8074    4.5612   -0.0719 N   0  0  0  0  0  0  0  0  0  0  0  0
    3.9795    5.6166   -1.0628 C   0  0  0  0  0  0  0  0  0  0  0  0
    4.0283    4.7572    0.9002 H   0  0  0  0  0  0  0  0  0  0  0  0
    4.6671    5.2932   -1.8514 H   0  0  0  0  0  0  0  0  0  0  0  0
    3.0177    5.8756   -1.5177 H   0  0  0  0  0  0  0  0  0  0  0  0
    4.3921    6.5141   -0.5923 H   0  0  0  0  0  0  0  0  0  0  0  0
  1  2  2  0  0  0  0
  1  3  1  0  0  0  0
  1  7  1  0  0  0  0
  3  4  1  0  0  0  0
  3  5  1  0  0  0  0
  3  6  1  0  0  0  0
  7  8  1  0  0  0  0
  7 12  1  0  0  0  0
  8  9  1  0  0  0  0
  8 11  1  0  0  0  0
  8 13  1  0  0  0  0
  9 10  2  0  0  0  0
  9 17  1  0  0  0  0
 11 14  1  0  0  0  0
 11 15  1  0  0  0  0
 11 16  1  0  0  0  0
 17 18  1  0  0  0  0
 17 22  1  0  0  0  0
 18 19  1  0  0  0  0
 18 21  1  0  0  0  0
 18 23  1  0  0  0  0
 19 20  2  0  0  0  0
 19 27  1  0  0  0  0
 21 24  1  0  0  0  0
 21 25  1  0  0  0  0
 21 26  1  0  0  0  0
 27 28  1  0  0  0  0
 27 32  1  0  0  0  0
 28 29  1  0  0  0  0
 28 31  1  0  0  0  0
 28 33  1  0  0  0  0
 29 30  2  0  0  0  0
 29 37  1  0  0  0  0
 31 34  1  0  0  0  0
 31 35  1  0  0  0  0
 31 36  1  0  0  0  0
 37 38  1  0  0  0  0
 37 39  1  0  0  0  0
 38 40  1  0  0  0  0
 38 41  1  0  0  0  0
 38 42  1  0  0  0  0
M  END
$$$$

  -OEChem-05262215353D

 42 41  0     1  0  0  0  0  0999 V2000
   -5.5050   -0.9128    1.7922 C   0  0  0  0  0  0  0  0  0  0  0  0
   -5.8632    0.1140    1.2370 O   0  0  0  0  0  0  0  0  0  0  0  0
   -6.4620   -2.0846    1.9058 C   0  0  0  0  0  0  0  0  0  0  0  0
   -6.6377   -2.3239    2.9575 H   0  0  0  0  0  0  0  0  0  0  0  0
   -7.4181   -1.8368    1.4361 H   0  0  0  0  0  0  0  0  0  0  0  0
   -6.0399   -2.9596    1.4053 H   0  0  0  0  0  0  0  0  0  0  0  0
   -4.2282   -1.0224    2.3017 N   0  0  0  0  0  0  0  0  0  0  0  0
   -3.1478   -0.0645    2.0275 C   0  0  2  0  0  0  0  0  0  0  0  0
   -1.9051   -0.7622    1.4374 C   0  0  0  0  0  0  0  0  0  0  0  0
   -1.7476   -1.9685    1.5940 O   0  0  0  0  0  0  0  0  0  0  0  0
   -2.7924    0.6335    3.3420 C   0  0  0  0  0  0  0  0  0  0  0  0
   -3.9363   -1.9569    2.5840 H   0  0  0  0  0  0  0  0  0  0  0  0
   -3.4746    0.6882    1.3024 H   0  0  0  0  0  0  0  0  0  0  0  0
   -2.4502   -0.0964    4.0826 H   0  0  0  0  0  0  0  0  0  0  0  0
   -1.9958    1.3671    3.1849 H   0  0  0  0  0  0  0  0  0  0  0  0
   -3.6683    1.1535    3.7423 H   0  0  0  0  0  0  0  0  0  0  0  0
   -0.9716   -0.0278    0.7283 N   0  0  0  0  0  0  0  0  0  0  0  0
    0.3799   -0.5184    0.4156 C   0  0  2  0  0  0  0  0  0  0  0  0
    1.4634    0.4028    1.0203 C   0  0  0  0  0  0  0  0  0  0  0  0
    1.5752    0.4889    2.2354 O   0  0  0  0  0  0  0  0  0  0  0  0
    0.4781   -0.6515   -1.1093 C   0  0  0  0  0  0  0  0  0  0  0  0
   -1.1182    0.9779    0.7203 H   0  0  0  0  0  0  0  0  0  0  0  0
    0.5465   -1.5092    0.8531 H   0  0  0  0  0  0  0  0  0  0  0  0
    0.2947    0.3102   -1.5992 H   0  0  0  0  0  0  0  0  0  0  0  0
    1.4699   -1.0127   -1.3992 H   0  0  0  0  0  0  0  0  0  0  0  0
   -0.2667   -1.3685   -1.4697 H   0  0  0  0  0  0  0  0  0  0  0  0
    2.1886    1.2712    0.2248 N   0  0  0  0  0  0  0  0  0  0  0  0
    2.9719    2.4085    0.7269 C   0  0  2  0  0  0  0  0  0  0  0  0
    2.7001    3.6813   -0.1021 C   0  0  0  0  0  0  0  0  0  0  0  0
    2.1083    3.5997   -1.1736 O   0  0  0  0  0  0  0  0  0  0  0  0
    4.4530    2.0273    0.6703 C   0  0  0  0  0  0  0  0  0  0  0  0
    1.9141    1.3192   -0.7557 H   0  0  0  0  0  0  0  0  0  0  0  0
    2.6991    2.6335    1.7631 H   0  0  0  0  0  0  0  0  0  0  0  0
    4.7565    1.8192   -0.3608 H   0  0  0  0  0  0  0  0  0  0  0  0
    5.0743    2.8396    1.0595 H   0  0  0  0  0  0  0  0  0  0  0  0
    4.6352    1.1332    1.2752 H   0  0  0  0  0  0  0  0  0  0  0  0
    3.1025    4.9213    0.3585 N   0  0  0  0  0  0  0  0  0  0  0  0
    2.8499    6.1636   -0.3621 C   0  0  0  0  0  0  0  0  0  0  0  0
    3.5686    4.9616    1.2604 H   0  0  0  0  0  0  0  0  0  0  0  0
    3.3308    6.1408   -1.3458 H   0  0  0  0  0  0  0  0  0  0  0  0
    1.7739    6.3153   -0.4993 H   0  0  0  0  0  0  0  0  0  0  0  0
    3.2497    7.0149    0.1976 H   0  0  0  0  0  0  0  0  0  0  0  0
  1  2  2  0  0  0  0
  1  3  1  0  0  0  0
  1  7  1  0  0  0  0
  3  4  1  0  0  0  0
  3  5  1  0  0  0  0
  3  6  1  0  0  0  0
  7  8  1  0  0  0  0
  7 12  1  0  0  0  0
  8  9  1  0  0  0  0
  8 11  1  0  0  0  0
  8 13  1  0  0  0  0
  9 10  2  0  0  0  0
  9 17  1  0  0  0  0
 11 14  1  0  0  0  0
 11 15  1  0  0  0  0
 11 16  1  0  0  0  0
 17 18  1  0  0  0  0
 17 22  1  0  0  0  0
 18 19  1  0  0  0  0
 18 21  1  0  0  0  0
 18 23  1  0  0  0  0
 19 20  2  0  0  0  0
 19 27  1  0  0  0  0
 21 24  1  0  0  0  0
 21 25  1  0  0  0  0
 21 26  1  0  0  0  0
 27 28  1  0  0  0  0
 27 32  1  0  0  0  0
 28 29  1  0  0  0  0
 28 31  1  0  0  0  0
 28 33  1  0  0  0  0
 29 30  2  0  0  0  0
 29 37  1  0  0  0  0
 31 34  1  0  0  0  0
 31 35  1  0  0  0  0
 31 36  1  0  0  0  0
 37 38  1  0  0  0  0
 37 39  1  0  0  0  0
 38 40  1  0  0  0  0
 38 41  1  0  0  0  0
 38 42  1  0  0  0  0
M  END
$$$$

  -OEChem-05262215353D

 42 41  0     1  0  0  0  0  0999 V2000
   -5.5094   -0.9233    1.7865 C   0  0  0  0  0  0  0  0  0  0  0  0
   -5.8838    0.0999    1.2357 O   0  0  0  0  0  0  0  0  0  0  0  0
   -6.4525   -2.1045    1.9142 C   0  0  0  0  0  0  0  0  0  0  0  0
   -6.6002   -2.3517    2.9683 H   0  0  0  0  0  0  0  0  0  0  0  0
   -7.4217   -1.8630    1.4690 H   0  0  0  0  0  0  0  0  0  0  0  0
   -6.0349   -2.9726    1.3984 H   0  0  0  0  0  0  0  0  0  0  0  0
   -4.2267   -1.0195    2.2831 N   0  0  0  0  0  0  0  0  0  0  0  0
   -3.1590   -0.0492    2.0041 C   0  0  2  0  0  0  0  0  0  0  0  0
   -1.8932   -0.7428    1.4603 C   0  0  0  0  0  0  0  0  0  0  0  0
   -1.7225   -1.9416    1.6539 O   0  0  0  0  0  0  0  0  0  0  0  0
   -2.8431    0.6931    3.3045 C   0  0  0  0  0  0  0  0  0  0  0  0
   -3.9223   -1.9493    2.5688 H   0  0  0  0  0  0  0  0  0  0  0  0
   -3.4841    0.6754    1.2502 H   0  0  0  0  0  0  0  0  0  0  0  0
   -2.5007   -0.0084    4.0724 H   0  0  0  0  0  0  0  0  0  0  0  0
   -2.0592    1.4388    3.1409 H   0  0  0  0  0  0  0  0  0  0  0  0
   -3.7369    1.2061    3.6731 H   0  0  0  0  0  0  0  0  0  0  0  0
   -0.9586   -0.0161    0.7446 N   0  0  0  0  0  0  0  0  0  0  0  0
    0.3903   -0.5087    0.4220 C   0  0  2  0  0  0  0  0  0  0  0  0
    1.4808    0.4084    1.0166 C   0  0  0  0  0  0  0  0  0  0  0  0
    1.8121    0.2874    2.1873 O   0  0  0  0  0  0  0  0  0  0  0  0
    0.4863   -0.6372   -1.1027 C   0  0  0  0  0  0  0  0  0  0  0  0
   -1.1288    0.9841    0.6774 H   0  0  0  0  0  0  0  0  0  0  0  0
    0.5562   -1.5016    0.8556 H   0  0  0  0  0  0  0  0  0  0  0  0
    0.2842    0.3206   -1.5924 H   0  0  0  0  0  0  0  0  0  0  0  0
    1.4844   -0.9789   -1.3939 H   0  0  0  0  0  0  0  0  0  0  0  0
   -0.2454   -1.3679   -1.4620 H   0  0  0  0  0  0  0  0  0  0  0  0
    1.9763    1.4750    0.2891 N   0  0  0  0  0  0  0  0  0  0  0  0
    2.7121    2.6070    0.8692 C   0  0  2  0  0  0  0  0  0  0  0  0
    2.1426    3.9510    0.3678 C   0  0  0  0  0  0  0  0  0  0  0  0
    1.3194    3.9648   -0.5420 O   0  0  0  0  0  0  0  0  0  0  0  0
    4.1875    2.4594    0.4888 C   0  0  0  0  0  0  0  0  0  0  0  0
    1.5184    1.6575   -0.6028 H   0  0  0  0  0  0  0  0  0  0  0  0
    2.6236    2.6050    1.9607 H   0  0  0  0  0  0  0  0  0  0  0  0
    4.3085    2.4845   -0.5990 H   0  0  0  0  0  0  0  0  0  0  0  0
    4.7809    3.2693    0.9241 H   0  0  0  0  0  0  0  0  0  0  0  0
    4.5784    1.5072    0.8617 H   0  0  0  0  0  0  0  0  0  0  0  0
    2.5359    5.1439    0.9457 N   0  0  0  0  0  0  0  0  0  0  0  0
    2.0194    6.4430    0.5317 C   0  0  0  0  0  0  0  0  0  0  0  0
    3.2007    5.1002    1.7127 H   0  0  0  0  0  0  0  0  0  0  0  0
    2.2271    6.6186   -0.5291 H   0  0  0  0  0  0  0  0  0  0  0  0
    0.9373    6.4939    0.6921 H   0  0  0  0  0  0  0  0  0  0  0  0
    2.4928    7.2410    1.1118 H   0  0  0  0  0  0  0  0  0  0  0  0
  1  2  2  0  0  0  0
  1  3  1  0  0  0  0
  1  7  1  0  0  0  0
  3  4  1  0  0  0  0
  3  5  1  0  0  0  0
  3  6  1  0  0  0  0
  7  8  1  0  0  0  0
  7 12  1  0  0  0  0
  8  9  1  0  0  0  0
  8 11  1  0  0  0  0
  8 13  1  0  0  0  0
  9 10  2  0  0  0  0
  9 17  1  0  0  0  0
 11 14  1  0  0  0  0
 11 15  1  0  0  0  0
 11 16  1  0  0  0  0
 17 18  1  0  0  0  0
 17 22  1  0  0  0  0
 18 19  1  0  0  0  0
 18 21  1  0  0  0  0
 18 23  1  0  0  0  0
 19 20  2  0  0  0  0
 19 27  1  0  0  0  0
 21 24  1  0  0  0  0
 21 25  1  0  0  0  0
 21 26  1  0  0  0  0
 27 28  1  0  0  0  0
 27 32  1  0  0  0  0
 28 29  1  0  0  0  0
 28 31  1  0  0  0  0
 28 33  1  0  0  0  0
 29 30  2  0  0  0  0
 29 37  1  0  0  0  0
 31 34  1  0  0  0  0
 31 35  1  0  0  0  0
 31 36  1  0  0  0  0
 37 38  1  0  0  0  0
 37 39  1  0  0  0  0
 38 40  1  0  0  0  0
 38 41  1  0  0  0  0
 38 42  1  0  0  0  0
M  END
$$$$

  -OEChem-05262215353D

 42 41  0     1  0  0  0  0  0999 V2000
   -5.1845    0.0202    1.9318 C   0  0  0  0  0  0  0  0  0  0  0  0
   -5.4229    1.1449    1.5205 O   0  0  0  0  0  0  0  0  0  0  0  0
   -6.3242   -0.9287    2.2525 C   0  0  0  0  0  0  0  0  0  0  0  0
   -6.3074   -1.1859    3.3144 H   0  0  0  0  0  0  0  0  0  0  0  0
   -7.2836   -0.4590    2.0180 H   0  0  0  0  0  0  0  0  0  0  0  0
   -6.2264   -1.8427    1.6616 H   0  0  0  0  0  0  0  0  0  0  0  0
   -3.8816   -0.3957    2.1009 N   0  0  0  0  0  0  0  0  0  0  0  0
   -2.6995    0.3745    1.6947 C   0  0  2  0  0  0  0  0  0  0  0  0
   -1.5388   -0.5540    1.2788 C   0  0  0  0  0  0  0  0  0  0  0  0
   -1.5655   -1.7426    1.5837 O   0  0  0  0  0  0  0  0  0  0  0  0
   -2.2798    1.2635    2.8687 C   0  0  0  0  0  0  0  0  0  0  0  0
   -3.7263   -1.3746    2.3395 H   0  0  0  0  0  0  0  0  0  0  0  0
   -2.9419    1.0048    0.8321 H   0  0  0  0  0  0  0  0  0  0  0  0
   -2.0421    0.6537    3.7461 H   0  0  0  0  0  0  0  0  0  0  0  0
   -1.3969    1.8525    2.6069 H   0  0  0  0  0  0  0  0  0  0  0  0
   -3.0891    1.9524    3.1301 H   0  0  0  0  0  0  0  0  0  0  0  0
   -0.4770   -0.0574    0.5468 N   0  0  0  0  0  0  0  0  0  0  0  0
    0.8296   -0.7322    0.4676 C   0  0  2  0  0  0  0  0  0  0  0  0
    1.9211    0.2070    1.0124 C   0  0  0  0  0  0  0  0  0  0  0  0
    2.1837    0.2190    2.2073 O   0  0  0  0  0  0  0  0  0  0  0  0
    1.0743   -1.1503   -0.9859 C   0  0  0  0  0  0  0  0  0  0  0  0
   -0.4736    0.9634    0.4461 H   0  0  0  0  0  0  0  0  0  0  0  0
    0.8483   -1.6328    1.0920 H   0  0  0  0  0  0  0  0  0  0  0  0
    1.0000   -0.2922   -1.6607 H   0  0  0  0  0  0  0  0  0  0  0  0
    2.0677   -1.5974   -1.0917 H   0  0  0  0  0  0  0  0  0  0  0  0
    0.3282   -1.8917   -1.2895 H   0  0  0  0  0  0  0  0  0  0  0  0
    2.3299    1.2676    0.2231 N   0  0  0  0  0  0  0  0  0  0  0  0
    2.4967    2.5972    0.8246 C   0  0  2  0  0  0  0  0  0  0  0  0
    1.1244    3.2545    1.1093 C   0  0  0  0  0  0  0  0  0  0  0  0
    0.1109    2.8335    0.5529 O   0  0  0  0  0  0  0  0  0  0  0  0
    3.3163    3.4520   -0.1444 C   0  0  0  0  0  0  0  0  0  0  0  0
    1.8987    1.2641   -0.6970 H   0  0  0  0  0  0  0  0  0  0  0  0
    3.0472    2.5192    1.7687 H   0  0  0  0  0  0  0  0  0  0  0  0
    2.7883    3.5692   -1.0962 H   0  0  0  0  0  0  0  0  0  0  0  0
    3.4946    4.4455    0.2782 H   0  0  0  0  0  0  0  0  0  0  0  0
    4.2850    2.9807   -0.3382 H   0  0  0  0  0  0  0  0  0  0  0  0
    1.0206    4.3146    1.9900 N   0  0  0  0  0  0  0  0  0  0  0  0
   -0.2468    4.9430    2.3455 C   0  0  0  0  0  0  0  0  0  0  0  0
    1.8572    4.5798    2.5022 H   0  0  0  0  0  0  0  0  0  0  0  0
   -0.7993    5.2349    1.4459 H   0  0  0  0  0  0  0  0  0  0  0  0
   -0.8651    4.2554    2.9314 H   0  0  0  0  0  0  0  0  0  0  0  0
   -0.0675    5.8424    2.9425 H   0  0  0  0  0  0  0  0  0  0  0  0
  1  2  2  0  0  0  0
  1  3  1  0  0  0  0
  1  7  1  0  0  0  0
  3  4  1  0  0  0  0
  3  5  1  0  0  0  0
  3  6  1  0  0  0  0
  7  8  1  0  0  0  0
  7 12  1  0  0  0  0
  8  9  1  0  0  0  0
  8 11  1  0  0  0  0
  8 13  1  0  0  0  0
  9 10  2  0  0  0  0
  9 17  1  0  0  0  0
 11 14  1  0  0  0  0
 11 15  1  0  0  0  0
 11 16  1  0  0  0  0
 17 18  1  0  0  0  0
 17 22  1  0  0  0  0
 18 19  1  0  0  0  0
 18 21  1  0  0  0  0
 18 23  1  0  0  0  0
 19 20  2  0  0  0  0
 19 27  1  0  0  0  0
 21 24  1  0  0  0  0
 21 25  1  0  0  0  0
 21 26  1  0  0  0  0
 27 28  1  0  0  0  0
 27 32  1  0  0  0  0
 28 29  1  0  0  0  0
 28 31  1  0  0  0  0
 28 33  1  0  0  0  0
 29 30  2  0  0  0  0
 29 37  1  0  0  0  0
 31 34  1  0  0  0  0
 31 35  1  0  0  0  0
 31 36  1  0  0  0  0
 37 38  1  0  0  0  0
 37 39  1  0  0  0  0
 38 40  1  0  0  0  0
 38 41  1  0  0  0  0
 38 42  1  0  0  0  0
M  END
$$$$

  -OEChem-05262215353D

 42 41  0     1  0  0  0  0  0999 V2000
   -5.1375    0.1287    2.0498 C   0  0  0  0  0  0  0  0  0  0  0  0
   -5.2766    1.3260    1.8555 O   0  0  0  0  0  0  0  0  0  0  0  0
   -6.3569   -0.7652    2.1776 C   0  0  0  0  0  0  0  0  0  0  0  0
   -6.3834   -1.2208    3.1703 H   0  0  0  0  0  0  0  0  0  0  0  0
   -7.2699   -0.1807    2.0334 H   0  0  0  0  0  0  0  0  0  0  0  0
   -6.3217   -1.5542    1.4225 H   0  0  0  0  0  0  0  0  0  0  0  0
   -3.8755   -0.4172    2.1465 N   0  0  0  0  0  0  0  0  0  0  0  0
   -2.6266    0.3209    1.9203 C   0  0  2  0  0  0  0  0  0  0  0  0
   -1.5308   -0.5896    1.3302 C   0  0  0  0  0  0  0  0  0  0  0  0
   -1.5503   -1.7962    1.5516 O   0  0  0  0  0  0  0  0  0  0  0  0
   -2.1615    0.9017    3.2588 C   0  0  0  0  0  0  0  0  0  0  0  0
   -3.8018   -1.4301    2.2309 H   0  0  0  0  0  0  0  0  0  0  0  0
   -2.7958    1.1383    1.2107 H   0  0  0  0  0  0  0  0  0  0  0  0
   -2.0145    0.1030    3.9926 H   0  0  0  0  0  0  0  0  0  0  0  0
   -1.2154    1.4365    3.1370 H   0  0  0  0  0  0  0  0  0  0  0  0
   -2.9073    1.6019    3.6472 H   0  0  0  0  0  0  0  0  0  0  0  0
   -0.5173   -0.0462    0.5643 N   0  0  0  0  0  0  0  0  0  0  0  0
    0.8083   -0.6805    0.4501 C   0  0  2  0  0  0  0  0  0  0  0  0
    1.8909    0.2876    0.9618 C   0  0  0  0  0  0  0  0  0  0  0  0
    2.3757    0.1411    2.0748 O   0  0  0  0  0  0  0  0  0  0  0  0
    1.0357   -1.0782   -1.0104 C   0  0  0  0  0  0  0  0  0  0  0  0
   -0.5365    0.9788    0.5420 H   0  0  0  0  0  0  0  0  0  0  0  0
    0.8675   -1.5841    1.0682 H   0  0  0  0  0  0  0  0  0  0  0  0
    0.9658   -0.2087   -1.6708 H   0  0  0  0  0  0  0  0  0  0  0  0
    2.0245   -1.5320   -1.1301 H   0  0  0  0  0  0  0  0  0  0  0  0
    0.2805   -1.8083   -1.3186 H   0  0  0  0  0  0  0  0  0  0  0  0
    2.0212    1.5078    0.3221 N   0  0  0  0  0  0  0  0  0  0  0  0
    2.1442    2.7508    1.0959 C   0  0  2  0  0  0  0  0  0  0  0  0
    0.7497    3.2722    1.5147 C   0  0  0  0  0  0  0  0  0  0  0  0
   -0.2567    2.8355    0.9584 O   0  0  0  0  0  0  0  0  0  0  0  0
    2.8655    3.7768    0.2199 C   0  0  0  0  0  0  0  0  0  0  0  0
    1.4448    1.5808   -0.5124 H   0  0  0  0  0  0  0  0  0  0  0  0
    2.7400    2.5865    2.0004 H   0  0  0  0  0  0  0  0  0  0  0  0
    2.2878    3.9805   -0.6876 H   0  0  0  0  0  0  0  0  0  0  0  0
    3.0021    4.7165    0.7636 H   0  0  0  0  0  0  0  0  0  0  0  0
    3.8512    3.3995   -0.0704 H   0  0  0  0  0  0  0  0  0  0  0  0
    0.6135    4.2249    2.5065 N   0  0  0  0  0  0  0  0  0  0  0  0
   -0.6765    4.7448    2.9470 C   0  0  0  0  0  0  0  0  0  0  0  0
    1.4549    4.5263    2.9905 H   0  0  0  0  0  0  0  0  0  0  0  0
   -1.2328    5.1609    2.1002 H   0  0  0  0  0  0  0  0  0  0  0  0
   -1.2756    3.9513    3.4054 H   0  0  0  0  0  0  0  0  0  0  0  0
   -0.5319    5.5389    3.6860 H   0  0  0  0  0  0  0  0  0  0  0  0
  1  2  2  0  0  0  0
  1  3  1  0  0  0  0
  1  7  1  0  0  0  0
  3  4  1  0  0  0  0
  3  5  1  0  0  0  0
  3  6  1  0  0  0  0
  7  8  1  0  0  0  0
  7 12  1  0  0  0  0
  8  9  1  0  0  0  0
  8 11  1  0  0  0  0
  8 13  1  0  0  0  0
  9 10  2  0  0  0  0
  9 17  1  0  0  0  0
 11 14  1  0  0  0  0
 11 15  1  0  0  0  0
 11 16  1  0  0  0  0
 17 18  1  0  0  0  0
 17 22  1  0  0  0  0
 18 19  1  0  0  0  0
 18 21  1  0  0  0  0
 18 23  1  0  0  0  0
 19 20  2  0  0  0  0
 19 27  1  0  0  0  0
 21 24  1  0  0  0  0
 21 25  1  0  0  0  0
 21 26  1  0  0  0  0
 27 28  1  0  0  0  0
 27 32  1  0  0  0  0
 28 29  1  0  0  0  0
 28 31  1  0  0  0  0
 28 33  1  0  0  0  0
 29 30  2  0  0  0  0
 29 37  1  0  0  0  0
 31 34  1  0  0  0  0
 31 35  1  0  0  0  0
 31 36  1  0  0  0  0
 37 38  1  0  0  0  0
 37 39  1  0  0  0  0
 38 40  1  0  0  0  0
 38 41  1  0  0  0  0
 38 42  1  0  0  0  0
M  END
$$$$

  -OEChem-05262215353D

 42 41  0     1  0  0  0  0  0999 V2000
   -5.1426    0.0032    2.1760 C   0  0  0  0  0  0  0  0  0  0  0  0
   -5.2969    1.2082    2.0558 O   0  0  0  0  0  0  0  0  0  0  0  0
   -6.3489   -0.9156    2.2189 C   0  0  0  0  0  0  0  0  0  0  0  0
   -6.3927   -1.4281    3.1830 H   0  0  0  0  0  0  0  0  0  0  0  0
   -7.2675   -0.3375    2.0842 H   0  0  0  0  0  0  0  0  0  0  0  0
   -6.2802   -1.6590    1.4209 H   0  0  0  0  0  0  0  0  0  0  0  0
   -3.8748   -0.5293    2.2688 N   0  0  0  0  0  0  0  0  0  0  0  0
   -2.6330    0.2414    2.1302 C   0  0  2  0  0  0  0  0  0  0  0  0
   -1.5251   -0.5990    1.4636 C   0  0  0  0  0  0  0  0  0  0  0  0
   -1.4779   -1.8077    1.6667 O   0  0  0  0  0  0  0  0  0  0  0  0
   -2.1928    0.6850    3.5279 C   0  0  0  0  0  0  0  0  0  0  0  0
   -3.7872   -1.5442    2.2962 H   0  0  0  0  0  0  0  0  0  0  0  0
   -2.8037    1.1255    1.5058 H   0  0  0  0  0  0  0  0  0  0  0  0
   -2.0561   -0.1840    4.1795 H   0  0  0  0  0  0  0  0  0  0  0  0
   -1.2466    1.2306    3.4774 H   0  0  0  0  0  0  0  0  0  0  0  0
   -2.9487    1.3406    3.9715 H   0  0  0  0  0  0  0  0  0  0  0  0
   -0.5947   -0.0042    0.6307 N   0  0  0  0  0  0  0  0  0  0  0  0
    0.7438   -0.5930    0.4154 C   0  0  2  0  0  0  0  0  0  0  0  0
    1.8552    0.3823    0.8487 C   0  0  0  0  0  0  0  0  0  0  0  0
    2.6129    0.0930    1.7632 O   0  0  0  0  0  0  0  0  0  0  0  0
    0.8742   -0.9529   -1.0662 C   0  0  0  0  0  0  0  0  0  0  0  0
   -0.6515    1.0182    0.6511 H   0  0  0  0  0  0  0  0  0  0  0  0
    0.8723   -1.5071    1.0067 H   0  0  0  0  0  0  0  0  0  0  0  0
    0.7547   -0.0661   -1.6961 H   0  0  0  0  0  0  0  0  0  0  0  0
    1.8565   -1.3937   -1.2642 H   0  0  0  0  0  0  0  0  0  0  0  0
    0.1065   -1.6824   -1.3434 H   0  0  0  0  0  0  0  0  0  0  0  0
    1.7414    1.7037    0.4572 N   0  0  0  0  0  0  0  0  0  0  0  0
    1.9097    2.8078    1.4101 C   0  0  2  0  0  0  0  0  0  0  0  0
    0.5309    3.2487    1.9503 C   0  0  0  0  0  0  0  0  0  0  0  0
   -0.4918    2.8450    1.3981 O   0  0  0  0  0  0  0  0  0  0  0  0
    2.6042    3.9580    0.6783 C   0  0  0  0  0  0  0  0  0  0  0  0
    1.0072    1.8530   -0.2308 H   0  0  0  0  0  0  0  0  0  0  0  0
    2.5334    2.5054    2.2585 H   0  0  0  0  0  0  0  0  0  0  0  0
    1.9945    4.3025   -0.1633 H   0  0  0  0  0  0  0  0  0  0  0  0
    2.7694    4.8011    1.3561 H   0  0  0  0  0  0  0  0  0  0  0  0
    3.5749    3.6287    0.2942 H   0  0  0  0  0  0  0  0  0  0  0  0
    0.4263    4.0806    3.0485 N   0  0  0  0  0  0  0  0  0  0  0  0
   -0.8493    4.5296    3.5962 C   0  0  0  0  0  0  0  0  0  0  0  0
    1.2864    4.3659    3.5092 H   0  0  0  0  0  0  0  0  0  0  0  0
   -1.4479    5.0222    2.8223 H   0  0  0  0  0  0  0  0  0  0  0  0
   -1.4178    3.6831    3.9947 H   0  0  0  0  0  0  0  0  0  0  0  0
   -0.6816    5.2448    4.4073 H   0  0  0  0  0  0  0  0  0  0  0  0
  1  2  2  0  0  0  0
  1  3  1  0  0  0  0
  1  7  1  0  0  0  0
  3  4  1  0  0  0  0
  3  5  1  0  0  0  0
  3  6  1  0  0  0  0
  7  8  1  0  0  0  0
  7 12  1  0  0  0  0
  8  9  1  0  0  0  0
  8 11  1  0  0  0  0
  8 13  1  0  0  0  0
  9 10  2  0  0  0  0
  9 17  1  0  0  0  0
 11 14  1  0  0  0  0
 11 15  1  0  0  0  0
 11 16  1  0  0  0  0
 17 18  1  0  0  0  0
 17 22  1  0  0  0  0
 18 19  1  0  0  0  0
 18 21  1  0  0  0  0
 18 23  1  0  0  0  0
 19 20  2  0  0  0  0
 19 27  1  0  0  0  0
 21 24  1  0  0  0  0
 21 25  1  0  0  0  0
 21 26  1  0  0  0  0
 27 28  1  0  0  0  0
 27 32  1  0  0  0  0
 28 29  1  0  0  0  0
 28 31  1  0  0  0  0
 28 33  1  0  0  0  0
 29 30  2  0  0  0  0
 29 37  1  0  0  0  0
 31 34  1  0  0  0  0
 31 35  1  0  0  0  0
 31 36  1  0  0  0  0
 37 38  1  0  0  0  0
 37 39  1  0  0  0  0
 38 40  1  0  0  0  0
 38 41  1  0  0  0  0
 38 42  1  0  0  0  0
M  END
$$$$

  -OEChem-05262215353D

 42 41  0     1  0  0  0  0  0999 V2000
   -5.5569   -1.2842    1.6725 C   0  0  0  0  0  0  0  0  0  0  0  0
   -5.9987   -0.4928    0.8544 O   0  0  0  0  0  0  0  0  0  0  0  0
   -6.3452   -2.5316    2.0241 C   0  0  0  0  0  0  0  0  0  0  0  0
   -6.5854   -2.5328    3.0900 H   0  0  0  0  0  0  0  0  0  0  0  0
   -7.2770   -2.5626    1.4524 H   0  0  0  0  0  0  0  0  0  0  0  0
   -5.7583   -3.4227    1.7888 H   0  0  0  0  0  0  0  0  0  0  0  0
   -4.3357   -1.0590    2.2722 N   0  0  0  0  0  0  0  0  0  0  0  0
   -3.3872   -0.0217    1.8450 C   0  0  2  0  0  0  0  0  0  0  0  0
   -1.9861   -0.6092    1.5783 C   0  0  0  0  0  0  0  0  0  0  0  0
   -1.6789   -1.7007    2.0421 O   0  0  0  0  0  0  0  0  0  0  0  0
   -3.3226    1.0416    2.9445 C   0  0  0  0  0  0  0  0  0  0  0  0
   -3.9430   -1.8358    2.8022 H   0  0  0  0  0  0  0  0  0  0  0  0
   -3.7257    0.4488    0.9161 H   0  0  0  0  0  0  0  0  0  0  0  0
   -2.9712    0.6016    3.8833 H   0  0  0  0  0  0  0  0  0  0  0  0
   -2.6393    1.8491    2.6626 H   0  0  0  0  0  0  0  0  0  0  0  0
   -4.3150    1.4723    3.1108 H   0  0  0  0  0  0  0  0  0  0  0  0
   -1.0645    0.1134    0.8421 N   0  0  0  0  0  0  0  0  0  0  0  0
    0.2903   -0.3577    0.4954 C   0  0  2  0  0  0  0  0  0  0  0  0
    1.3943    0.5625    1.0536 C   0  0  0  0  0  0  0  0  0  0  0  0
    2.5122    0.1253    1.2878 O   0  0  0  0  0  0  0  0  0  0  0  0
    0.3851   -0.4494   -1.0287 C   0  0  0  0  0  0  0  0  0  0  0  0
   -1.4116    0.9601    0.4011 H   0  0  0  0  0  0  0  0  0  0  0  0
    0.4704   -1.3550    0.9125 H   0  0  0  0  0  0  0  0  0  0  0  0
    0.2359    0.5331   -1.4873 H   0  0  0  0  0  0  0  0  0  0  0  0
    1.3708   -0.8245   -1.3228 H   0  0  0  0  0  0  0  0  0  0  0  0
   -0.3743   -1.1369   -1.4145 H   0  0  0  0  0  0  0  0  0  0  0  0
    1.1455    1.9113    1.2200 N   0  0  0  0  0  0  0  0  0  0  0  0
    1.9796    2.7974    2.0385 C   0  0  2  0  0  0  0  0  0  0  0  0
    1.0935    3.6441    2.9773 C   0  0  0  0  0  0  0  0  0  0  0  0
   -0.1253    3.6548    2.8230 O   0  0  0  0  0  0  0  0  0  0  0  0
    2.8008    3.6867    1.1021 C   0  0  0  0  0  0  0  0  0  0  0  0
    0.1629    2.1729    1.1808 H   0  0  0  0  0  0  0  0  0  0  0  0
    2.6595    2.2122    2.6671 H   0  0  0  0  0  0  0  0  0  0  0  0
    2.1417    4.2952    0.4746 H   0  0  0  0  0  0  0  0  0  0  0  0
    3.4504    4.3541    1.6763 H   0  0  0  0  0  0  0  0  0  0  0  0
    3.4291    3.0695    0.4520 H   0  0  0  0  0  0  0  0  0  0  0  0
    1.6555    4.3784    4.0046 N   0  0  0  0  0  0  0  0  0  0  0  0
    0.8715    5.1618    4.9518 C   0  0  0  0  0  0  0  0  0  0  0  0
    2.6624    4.3218    4.1276 H   0  0  0  0  0  0  0  0  0  0  0  0
    0.2793    5.9189    4.4269 H   0  0  0  0  0  0  0  0  0  0  0  0
    0.1936    4.5137    5.5171 H   0  0  0  0  0  0  0  0  0  0  0  0
    1.5326    5.6712    5.6596 H   0  0  0  0  0  0  0  0  0  0  0  0
  1  2  2  0  0  0  0
  1  3  1  0  0  0  0
  1  7  1  0  0  0  0
  3  4  1  0  0  0  0
  3  5  1  0  0  0  0
  3  6  1  0  0  0  0
  7  8  1  0  0  0  0
  7 12  1  0  0  0  0
  8  9  1  0  0  0  0
  8 11  1  0  0  0  0
  8 13  1  0  0  0  0
  9 10  2  0  0  0  0
  9 17  1  0  0  0  0
 11 14  1  0  0  0  0
 11 15  1  0  0  0  0
 11 16  1  0  0  0  0
 17 18  1  0  0  0  0
 17 22  1  0  0  0  0
 18 19  1  0  0  0  0
 18 21  1  0  0  0  0
 18 23  1  0  0  0  0
 19 20  2  0  0  0  0
 19 27  1  0  0  0  0
 21 24  1  0  0  0  0
 21 25  1  0  0  0  0
 21 26  1  0  0  0  0
 27 28  1  0  0  0  0
 27 32  1  0  0  0  0
 28 29  1  0  0  0  0
 28 31  1  0  0  0  0
 28 33  1  0  0  0  0
 29 30  2  0  0  0  0
 29 37  1  0  0  0  0
 31 34  1  0  0  0  0
 31 35  1  0  0  0  0
 31 36  1  0  0  0  0
 37 38  1  0  0  0  0
 37 39  1  0  0  0  0
 38 40  1  0  0  0  0
 38 41  1  0  0  0  0
 38 42  1  0  0  0  0
M  END
$$$$

  -OEChem-05262215353D

 42 41  0     1  0  0  0  0  0999 V2000
   -5.6019   -1.2953    1.6195 C   0  0  0  0  0  0  0  0  0  0  0  0
   -6.0349   -0.4263    0.8792 O   0  0  0  0  0  0  0  0  0  0  0  0
   -6.4180   -2.5477    1.8788 C   0  0  0  0  0  0  0  0  0  0  0  0
   -6.5896   -2.6646    2.9517 H   0  0  0  0  0  0  0  0  0  0  0  0
   -7.3853   -2.4801    1.3730 H   0  0  0  0  0  0  0  0  0  0  0  0
   -5.8846   -3.4245    1.5033 H   0  0  0  0  0  0  0  0  0  0  0  0
   -4.3666   -1.1503    2.2155 N   0  0  0  0  0  0  0  0  0  0  0  0
   -3.4085   -0.0867    1.8848 C   0  0  2  0  0  0  0  0  0  0  0  0
   -2.0084   -0.6572    1.5805 C   0  0  0  0  0  0  0  0  0  0  0  0
   -1.6942   -1.7680    1.9905 O   0  0  0  0  0  0  0  0  0  0  0  0
   -3.3466    0.8802    3.0705 C   0  0  0  0  0  0  0  0  0  0  0  0
   -3.9861   -1.9736    2.6803 H   0  0  0  0  0  0  0  0  0  0  0  0
   -3.7376    0.4626    0.9966 H   0  0  0  0  0  0  0  0  0  0  0  0
   -3.0002    0.3623    3.9707 H   0  0  0  0  0  0  0  0  0  0  0  0
   -2.6601    1.7067    2.8610 H   0  0  0  0  0  0  0  0  0  0  0  0
   -4.3387    1.2981    3.2688 H   0  0  0  0  0  0  0  0  0  0  0  0
   -1.0904    0.1053    0.8812 N   0  0  0  0  0  0  0  0  0  0  0  0
    0.2696   -0.3373    0.5174 C   0  0  2  0  0  0  0  0  0  0  0  0
    1.3638    0.5672    1.1211 C   0  0  0  0  0  0  0  0  0  0  0  0
    2.5416    0.2398    1.0792 O   0  0  0  0  0  0  0  0  0  0  0  0
    0.3632   -0.3543   -1.0098 C   0  0  0  0  0  0  0  0  0  0  0  0
   -1.4388    0.9704    0.4772 H   0  0  0  0  0  0  0  0  0  0  0  0
    0.4598   -1.3510    0.8872 H   0  0  0  0  0  0  0  0  0  0  0  0
    0.2084    0.6493   -1.4177 H   0  0  0  0  0  0  0  0  0  0  0  0
    1.3504   -0.7085   -1.3243 H   0  0  0  0  0  0  0  0  0  0  0  0
   -0.3928   -1.0256   -1.4290 H   0  0  0  0  0  0  0  0  0  0  0  0
    1.0241    1.8041    1.6337 N   0  0  0  0  0  0  0  0  0  0  0  0
    1.9191    2.6362    2.4432 C   0  0  2  0  0  0  0  0  0  0  0  0
    1.1363    3.3030    3.5944 C   0  0  0  0  0  0  0  0  0  0  0  0
   -0.0915    3.2663    3.5999 O   0  0  0  0  0  0  0  0  0  0  0  0
    2.5562    3.6890    1.5331 C   0  0  0  0  0  0  0  0  0  0  0  0
    0.0302    1.9424    1.8081 H   0  0  0  0  0  0  0  0  0  0  0  0
    2.7056    2.0192    2.8907 H   0  0  0  0  0  0  0  0  0  0  0  0
    1.7865    4.3306    1.0923 H   0  0  0  0  0  0  0  0  0  0  0  0
    3.2517    4.3160    2.0991 H   0  0  0  0  0  0  0  0  0  0  0  0
    3.1105    3.2028    0.7237 H   0  0  0  0  0  0  0  0  0  0  0  0
    1.8018    3.9319    4.6299 N   0  0  0  0  0  0  0  0  0  0  0  0
    1.1187    4.5496    5.7603 C   0  0  0  0  0  0  0  0  0  0  0  0
    2.8177    3.9130    4.6187 H   0  0  0  0  0  0  0  0  0  0  0  0
    0.4161    5.3146    5.4128 H   0  0  0  0  0  0  0  0  0  0  0  0
    0.5657    3.7965    6.3315 H   0  0  0  0  0  0  0  0  0  0  0  0
    1.8439    5.0261    6.4272 H   0  0  0  0  0  0  0  0  0  0  0  0
  1  2  2  0  0  0  0
  1  3  1  0  0  0  0
  1  7  1  0  0  0  0
  3  4  1  0  0  0  0
  3  5  1  0  0  0  0
  3  6  1  0  0  0  0
  7  8  1  0  0  0  0
  7 12  1  0  0  0  0
  8  9  1  0  0  0  0
  8 11  1  0  0  0  0
  8 13  1  0  0  0  0
  9 10  2  0  0  0  0
  9 17  1  0  0  0  0
 11 14  1  0  0  0  0
 11 15  1  0  0  0  0
 11 16  1  0  0  0  0
 17 18  1  0  0  0  0
 17 22  1  0  0  0  0
 18 19  1  0  0  0  0
 18 21  1  0  0  0  0
 18 23  1  0  0  0  0
 19 20  2  0  0  0  0
 19 27  1  0  0  0  0
 21 24  1  0  0  0  0
 21 25  1  0  0  0  0
 21 26  1  0  0  0  0
 27 28  1  0  0  0  0
 27 32  1  0  0  0  0
 28 29  1  0  0  0  0
 28 31  1  0  0  0  0
 28 33  1  0  0  0  0
 29 30  2  0  0  0  0
 29 37  1  0  0  0  0
 31 34  1  0  0  0  0
 31 35  1  0  0  0  0
 31 36  1  0  0  0  0
 37 38  1  0  0  0  0
 37 39  1  0  0  0  0
 38 40  1  0  0  0  0
 38 41  1  0  0  0  0
 38 42  1  0  0  0  0
M  END
$$$$

  -OEChem-05262215353D

 42 41  0     1  0  0  0  0  0999 V2000
   -5.6439   -1.2784    1.6619 C   0  0  0  0  0  0  0  0  0  0  0  0
   -6.1093   -0.3549    1.0130 O   0  0  0  0  0  0  0  0  0  0  0  0
   -6.4655   -2.5320    1.8967 C   0  0  0  0  0  0  0  0  0  0  0  0
   -6.5977   -2.6958    2.9690 H   0  0  0  0  0  0  0  0  0  0  0  0
   -7.4502   -2.4304    1.4316 H   0  0  0  0  0  0  0  0  0  0  0  0
   -5.9586   -3.3973    1.4626 H   0  0  0  0  0  0  0  0  0  0  0  0
   -4.3677   -1.1920    2.1771 N   0  0  0  0  0  0  0  0  0  0  0  0
   -3.4166   -0.1197    1.8560 C   0  0  2  0  0  0  0  0  0  0  0  0
   -2.0192   -0.6799    1.5210 C   0  0  0  0  0  0  0  0  0  0  0  0
   -1.7120   -1.8157    1.8621 O   0  0  0  0  0  0  0  0  0  0  0  0
   -3.3384    0.8240    3.0600 C   0  0  0  0  0  0  0  0  0  0  0  0
   -3.9729   -2.0463    2.5683 H   0  0  0  0  0  0  0  0  0  0  0  0
   -3.7604    0.4430    0.9816 H   0  0  0  0  0  0  0  0  0  0  0  0
   -2.9786    0.2888    3.9449 H   0  0  0  0  0  0  0  0  0  0  0  0
   -2.6559    1.6552    2.8575 H   0  0  0  0  0  0  0  0  0  0  0  0
   -4.3276    1.2372    3.2808 H   0  0  0  0  0  0  0  0  0  0  0  0
   -1.0911    0.1184    0.8768 N   0  0  0  0  0  0  0  0  0  0  0  0
    0.2677   -0.3105    0.4918 C   0  0  2  0  0  0  0  0  0  0  0  0
    1.3658    0.5455    1.1586 C   0  0  0  0  0  0  0  0  0  0  0  0
    2.5484    0.3702    0.8988 O   0  0  0  0  0  0  0  0  0  0  0  0
    0.3589   -0.2366   -1.0349 C   0  0  0  0  0  0  0  0  0  0  0  0
   -1.4212    1.0214    0.5455 H   0  0  0  0  0  0  0  0  0  0  0  0
    0.4491   -1.3459    0.7998 H   0  0  0  0  0  0  0  0  0  0  0  0
    0.2269    0.7930   -1.3810 H   0  0  0  0  0  0  0  0  0  0  0  0
    1.3362   -0.5939   -1.3752 H   0  0  0  0  0  0  0  0  0  0  0  0
   -0.4134   -0.8633   -1.4914 H   0  0  0  0  0  0  0  0  0  0  0  0
    1.0083    1.5752    2.0067 N   0  0  0  0  0  0  0  0  0  0  0  0
    1.9457    2.3489    2.8254 C   0  0  2  0  0  0  0  0  0  0  0  0
    1.2708    2.8060    4.1365 C   0  0  0  0  0  0  0  0  0  0  0  0
    0.0547    2.6986    4.2689 O   0  0  0  0  0  0  0  0  0  0  0  0
    2.4235    3.5547    2.0109 C   0  0  0  0  0  0  0  0  0  0  0  0
    0.0409    1.5681    2.3273 H   0  0  0  0  0  0  0  0  0  0  0  0
    2.8058    1.7256    3.0924 H   0  0  0  0  0  0  0  0  0  0  0  0
    1.5768    4.1939    1.7412 H   0  0  0  0  0  0  0  0  0  0  0  0
    3.1402    4.1485    2.5857 H   0  0  0  0  0  0  0  0  0  0  0  0
    2.9140    3.2200    1.0913 H   0  0  0  0  0  0  0  0  0  0  0  0
    2.0239    3.3240    5.1736 N   0  0  0  0  0  0  0  0  0  0  0  0
    1.4508    3.7492    6.4451 C   0  0  0  0  0  0  0  0  0  0  0  0
    3.0310    3.3713    5.0471 H   0  0  0  0  0  0  0  0  0  0  0  0
    0.7132    4.5432    6.2870 H   0  0  0  0  0  0  0  0  0  0  0  0
    0.9610    2.9072    6.9456 H   0  0  0  0  0  0  0  0  0  0  0  0
    2.2354    4.1336    7.1040 H   0  0  0  0  0  0  0  0  0  0  0  0
  1  2  2  0  0  0  0
  1  3  1  0  0  0  0
  1  7  1  0  0  0  0
  3  4  1  0  0  0  0
  3  5  1  0  0  0  0
  3  6  1  0  0  0  0
  7  8  1  0  0  0  0
  7 12  1  0  0  0  0
  8  9  1  0  0  0  0
  8 11  1  0  0  0  0
  8 13  1  0  0  0  0
  9 10  2  0  0  0  0
  9 17  1  0  0  0  0
 11 14  1  0  0  0  0
 11 15  1  0  0  0  0
 11 16  1  0  0  0  0
 17 18  1  0  0  0  0
 17 22  1  0  0  0  0
 18 19  1  0  0  0  0
 18 21  1  0  0  0  0
 18 23  1  0  0  0  0
 19 20  2  0  0  0  0
 19 27  1  0  0  0  0
 21 24  1  0  0  0  0
 21 25  1  0  0  0  0
 21 26  1  0  0  0  0
 27 28  1  0  0  0  0
 27 32  1  0  0  0  0
 28 29  1  0  0  0  0
 28 31  1  0  0  0  0
 28 33  1  0  0  0  0
 29 30  2  0  0  0  0
 29 37  1  0  0  0  0
 31 34  1  0  0  0  0
 31 35  1  0  0  0  0
 31 36  1  0  0  0  0
 37 38  1  0  0  0  0
 37 39  1  0  0  0  0
 38 40  1  0  0  0  0
 38 41  1  0  0  0  0
 38 42  1  0  0  0  0
M  END
$$$$

  -OEChem-05262215353D

 42 41  0     1  0  0  0  0  0999 V2000
   -5.6433   -1.2016    1.7148 C   0  0  0  0  0  0  0  0  0  0  0  0
   -6.1118   -0.2264    1.1488 O   0  0  0  0  0  0  0  0  0  0  0  0
   -6.4823   -2.4522    1.8986 C   0  0  0  0  0  0  0  0  0  0  0  0
   -6.5779   -2.6846    2.9621 H   0  0  0  0  0  0  0  0  0  0  0  0
   -7.4811   -2.3021    1.4796 H   0  0  0  0  0  0  0  0  0  0  0  0
   -6.0101   -3.2957    1.3890 H   0  0  0  0  0  0  0  0  0  0  0  0
   -4.3449   -1.1785    2.1780 N   0  0  0  0  0  0  0  0  0  0  0  0
   -3.3805   -0.1097    1.8875 C   0  0  2  0  0  0  0  0  0  0  0  0
   -2.0003   -0.6810    1.5023 C   0  0  0  0  0  0  0  0  0  0  0  0
   -1.7118   -1.8376    1.7850 O   0  0  0  0  0  0  0  0  0  0  0  0
   -3.2665    0.7790    3.1298 C   0  0  0  0  0  0  0  0  0  0  0  0
   -3.9575   -2.0633    2.5037 H   0  0  0  0  0  0  0  0  0  0  0  0
   -3.7294    0.4958    1.0444 H   0  0  0  0  0  0  0  0  0  0  0  0
   -2.9013    0.2006    3.9849 H   0  0  0  0  0  0  0  0  0  0  0  0
   -2.5742    1.6074    2.9513 H   0  0  0  0  0  0  0  0  0  0  0  0
   -4.2456    1.1967    3.3853 H   0  0  0  0  0  0  0  0  0  0  0  0
   -1.0644    0.1239    0.8776 N   0  0  0  0  0  0  0  0  0  0  0  0
    0.2860   -0.3109    0.4717 C   0  0  2  0  0  0  0  0  0  0  0  0
    1.3926    0.5156    1.1636 C   0  0  0  0  0  0  0  0  0  0  0  0
    2.5418    0.5236    0.7430 O   0  0  0  0  0  0  0  0  0  0  0  0
    0.3633   -0.2022   -1.0549 C   0  0  0  0  0  0  0  0  0  0  0  0
   -1.3628    1.0626    0.6248 H   0  0  0  0  0  0  0  0  0  0  0  0
    0.4575   -1.3562    0.7502 H   0  0  0  0  0  0  0  0  0  0  0  0
    0.2467    0.8382   -1.3739 H   0  0  0  0  0  0  0  0  0  0  0  0
    1.3300   -0.5693   -1.4145 H   0  0  0  0  0  0  0  0  0  0  0  0
   -0.4248   -0.8033   -1.5188 H   0  0  0  0  0  0  0  0  0  0  0  0
    1.0733    1.2953    2.2579 N   0  0  0  0  0  0  0  0  0  0  0  0
    2.0361    2.0281    3.0854 C   0  0  2  0  0  0  0  0  0  0  0  0
    1.4899    2.2233    4.5157 C   0  0  0  0  0  0  0  0  0  0  0  0
    0.3019    2.0219    4.7507 O   0  0  0  0  0  0  0  0  0  0  0  0
    2.3181    3.3832    2.4284 C   0  0  0  0  0  0  0  0  0  0  0  0
    0.1499    1.1455    2.6637 H   0  0  0  0  0  0  0  0  0  0  0  0
    2.9679    1.4571    3.1577 H   0  0  0  0  0  0  0  0  0  0  0  0
    1.3971    3.9697    2.3513 H   0  0  0  0  0  0  0  0  0  0  0  0
    3.0454    3.9517    3.0155 H   0  0  0  0  0  0  0  0  0  0  0  0
    2.7253    3.2403    1.4224 H   0  0  0  0  0  0  0  0  0  0  0  0
    2.3289    2.6182    5.5412 N   0  0  0  0  0  0  0  0  0  0  0  0
    1.8819    2.7958    6.9176 C   0  0  0  0  0  0  0  0  0  0  0  0
    3.3123    2.7492    5.3216 H   0  0  0  0  0  0  0  0  0  0  0  0
    1.0687    3.5278    6.9663 H   0  0  0  0  0  0  0  0  0  0  0  0
    1.5260    1.8458    7.3299 H   0  0  0  0  0  0  0  0  0  0  0  0
    2.7068    3.1565    7.5399 H   0  0  0  0  0  0  0  0  0  0  0  0
  1  2  2  0  0  0  0
  1  3  1  0  0  0  0
  1  7  1  0  0  0  0
  3  4  1  0  0  0  0
  3  5  1  0  0  0  0
  3  6  1  0  0  0  0
  7  8  1  0  0  0  0
  7 12  1  0  0  0  0
  8  9  1  0  0  0  0
  8 11  1  0  0  0  0
  8 13  1  0  0  0  0
  9 10  2  0  0  0  0
  9 17  1  0  0  0  0
 11 14  1  0  0  0  0
 11 15  1  0  0  0  0
 11 16  1  0  0  0  0
 17 18  1  0  0  0  0
 17 22  1  0  0  0  0
 18 19  1  0  0  0  0
 18 21  1  0  0  0  0
 18 23  1  0  0  0  0
 19 20  2  0  0  0  0
 19 27  1  0  0  0  0
 21 24  1  0  0  0  0
 21 25  1  0  0  0  0
 21 26  1  0  0  0  0
 27 28  1  0  0  0  0
 27 32  1  0  0  0  0
 28 29  1  0  0  0  0
 28 31  1  0  0  0  0
 28 33  1  0  0  0  0
 29 30  2  0  0  0  0
 29 37  1  0  0  0  0
 31 34  1  0  0  0  0
 31 35  1  0  0  0  0
 31 36  1  0  0  0  0
 37 38  1  0  0  0  0
 37 39  1  0  0  0  0
 38 40  1  0  0  0  0
 38 41  1  0  0  0  0
 38 42  1  0  0  0  0
M  END
$$$$

  -OEChem-05262215353D

 42 41  0     1  0  0  0  0  0999 V2000
   -5.6244   -1.1334    1.7650 C   0  0  0  0  0  0  0  0  0  0  0  0
   -6.0818   -0.1163    1.2680 O   0  0  0  0  0  0  0  0  0  0  0  0
   -6.4913   -2.3711    1.8993 C   0  0  0  0  0  0  0  0  0  0  0  0
   -6.6033   -2.6353    2.9536 H   0  0  0  0  0  0  0  0  0  0  0  0
   -7.4817   -2.1855    1.4745 H   0  0  0  0  0  0  0  0  0  0  0  0
   -6.0322   -3.2083    1.3680 H   0  0  0  0  0  0  0  0  0  0  0  0
   -4.3140   -1.1670    2.1930 N   0  0  0  0  0  0  0  0  0  0  0  0
   -3.3319   -0.1059    1.9351 C   0  0  2  0  0  0  0  0  0  0  0  0
   -1.9698   -0.6869    1.5035 C   0  0  0  0  0  0  0  0  0  0  0  0
   -1.6960   -1.8573    1.7404 O   0  0  0  0  0  0  0  0  0  0  0  0
   -3.1793    0.7244    3.2130 C   0  0  0  0  0  0  0  0  0  0  0  0
   -3.9404   -2.0759    2.4638 H   0  0  0  0  0  0  0  0  0  0  0  0
   -3.6811    0.5433    1.1251 H   0  0  0  0  0  0  0  0  0  0  0  0
   -2.8128    0.1004    4.0350 H   0  0  0  0  0  0  0  0  0  0  0  0
   -2.4720    1.5451    3.0586 H   0  0  0  0  0  0  0  0  0  0  0  0
   -4.1446    1.1514    3.5031 H   0  0  0  0  0  0  0  0  0  0  0  0
   -1.0323    0.1218    0.8869 N   0  0  0  0  0  0  0  0  0  0  0  0
    0.3063   -0.3176    0.4527 C   0  0  2  0  0  0  0  0  0  0  0  0
    1.4228    0.4857    1.1566 C   0  0  0  0  0  0  0  0  0  0  0  0
    2.4929    0.7187    0.6098 O   0  0  0  0  0  0  0  0  0  0  0  0
    0.3576   -0.1822   -1.0737 C   0  0  0  0  0  0  0  0  0  0  0  0
   -1.3093    1.0805    0.6919 H   0  0  0  0  0  0  0  0  0  0  0  0
    0.4721   -1.3696    0.7075 H   0  0  0  0  0  0  0  0  0  0  0  0
    0.2435    0.8644   -1.3725 H   0  0  0  0  0  0  0  0  0  0  0  0
    1.3145   -0.5501   -1.4577 H   0  0  0  0  0  0  0  0  0  0  0  0
   -0.4440   -0.7685   -1.5336 H   0  0  0  0  0  0  0  0  0  0  0  0
    1.1994    0.9791    2.4273 N   0  0  0  0  0  0  0  0  0  0  0  0
    2.1838    1.6943    3.2466 C   0  0  2  0  0  0  0  0  0  0  0  0
    1.8257    1.6083    4.7450 C   0  0  0  0  0  0  0  0  0  0  0  0
    0.6962    1.2736    5.0880 O   0  0  0  0  0  0  0  0  0  0  0  0
    2.2334    3.1599    2.7996 C   0  0  0  0  0  0  0  0  0  0  0  0
    0.3498    0.6660    2.8977 H   0  0  0  0  0  0  0  0  0  0  0  0
    3.1700    1.2379    3.1112 H   0  0  0  0  0  0  0  0  0  0  0  0
    1.2546    3.6326    2.9300 H   0  0  0  0  0  0  0  0  0  0  0  0
    2.9701    3.7158    3.3874 H   0  0  0  0  0  0  0  0  0  0  0  0
    2.5154    3.2283    1.7442 H   0  0  0  0  0  0  0  0  0  0  0  0
    2.7690    1.9079    5.7104 N   0  0  0  0  0  0  0  0  0  0  0  0
    2.4997    1.8400    7.1419 C   0  0  0  0  0  0  0  0  0  0  0  0
    3.7010    2.1619    5.3957 H   0  0  0  0  0  0  0  0  0  0  0  0
    1.6864    2.5221    7.4118 H   0  0  0  0  0  0  0  0  0  0  0  0
    2.2164    0.8224    7.4314 H   0  0  0  0  0  0  0  0  0  0  0  0
    3.3915    2.1247    7.7090 H   0  0  0  0  0  0  0  0  0  0  0  0
  1  2  2  0  0  0  0
  1  3  1  0  0  0  0
  1  7  1  0  0  0  0
  3  4  1  0  0  0  0
  3  5  1  0  0  0  0
  3  6  1  0  0  0  0
  7  8  1  0  0  0  0
  7 12  1  0  0  0  0
  8  9  1  0  0  0  0
  8 11  1  0  0  0  0
  8 13  1  0  0  0  0
  9 10  2  0  0  0  0
  9 17  1  0  0  0  0
 11 14  1  0  0  0  0
 11 15  1  0  0  0  0
 11 16  1  0  0  0  0
 17 18  1  0  0  0  0
 17 22  1  0  0  0  0
 18 19  1  0  0  0  0
 18 21  1  0  0  0  0
 18 23  1  0  0  0  0
 19 20  2  0  0  0  0
 19 27  1  0  0  0  0
 21 24  1  0  0  0  0
 21 25  1  0  0  0  0
 21 26  1  0  0  0  0
 27 28  1  0  0  0  0
 27 32  1  0  0  0  0
 28 29  1  0  0  0  0
 28 31  1  0  0  0  0
 28 33  1  0  0  0  0
 29 30  2  0  0  0  0
 29 37  1  0  0  0  0
 31 34  1  0  0  0  0
 31 35  1  0  0  0  0
 31 36  1  0  0  0  0
 37 38  1  0  0  0  0
 37 39  1  0  0  0  0
 38 40  1  0  0  0  0
 38 41  1  0  0  0  0
 38 42  1  0  0  0  0
M  END
$$$$

  -OEChem-05262215353D

 42 41  0     1  0  0  0  0  0999 V2000
   -5.6166   -1.1003    1.8040 C   0  0  0  0  0  0  0  0  0  0  0  0
   -6.0759   -0.0662    1.3451 O   0  0  0  0  0  0  0  0  0  0  0  0
   -6.4983   -2.3264    1.9495 C   0  0  0  0  0  0  0  0  0  0  0  0
   -6.5744   -2.6082    3.0026 H   0  0  0  0  0  0  0  0  0  0  0  0
   -7.5013   -2.1172    1.5671 H   0  0  0  0  0  0  0  0  0  0  0  0
   -6.0741   -3.1610    1.3859 H   0  0  0  0  0  0  0  0  0  0  0  0
   -4.2912   -1.1608    2.1797 N   0  0  0  0  0  0  0  0  0  0  0  0
   -3.3092   -0.0988    1.9262 C   0  0  2  0  0  0  0  0  0  0  0  0
   -1.9376   -0.6779    1.5229 C   0  0  0  0  0  0  0  0  0  0  0  0
   -1.6640   -1.8459    1.7720 O   0  0  0  0  0  0  0  0  0  0  0  0
   -3.1840    0.7508    3.1947 C   0  0  0  0  0  0  0  0  0  0  0  0
   -3.9199   -2.0765    2.4309 H   0  0  0  0  0  0  0  0  0  0  0  0
   -3.6489    0.5358    1.1008 H   0  0  0  0  0  0  0  0  0  0  0  0
   -2.8343    0.1395    4.0334 H   0  0  0  0  0  0  0  0  0  0  0  0
   -2.4751    1.5706    3.0426 H   0  0  0  0  0  0  0  0  0  0  0  0
   -4.1559    1.1805    3.4583 H   0  0  0  0  0  0  0  0  0  0  0  0
   -0.9982    0.1232    0.8995 N   0  0  0  0  0  0  0  0  0  0  0  0
    0.3339   -0.3264    0.4594 C   0  0  2  0  0  0  0  0  0  0  0  0
    1.4534    0.4753    1.1595 C   0  0  0  0  0  0  0  0  0  0  0  0
    2.4059    0.9337    0.5412 O   0  0  0  0  0  0  0  0  0  0  0  0
    0.3762   -0.2042   -1.0690 C   0  0  0  0  0  0  0  0  0  0  0  0
   -1.2686    1.0836    0.7034 H   0  0  0  0  0  0  0  0  0  0  0  0
    0.4968   -1.3781    0.7176 H   0  0  0  0  0  0  0  0  0  0  0  0
    0.2522    0.8387   -1.3770 H   0  0  0  0  0  0  0  0  0  0  0  0
    1.3346   -0.5675   -1.4535 H   0  0  0  0  0  0  0  0  0  0  0  0
   -0.4227   -0.8011   -1.5198 H   0  0  0  0  0  0  0  0  0  0  0  0
    1.3691    0.7031    2.5192 N   0  0  0  0  0  0  0  0  0  0  0  0
    2.3839    1.3941    3.3233 C   0  0  2  0  0  0  0  0  0  0  0  0
    2.2918    0.9945    4.8105 C   0  0  0  0  0  0  0  0  0  0  0  0
    1.2758    0.4600    5.2419 O   0  0  0  0  0  0  0  0  0  0  0  0
    2.1901    2.9072    3.1711 C   0  0  0  0  0  0  0  0  0  0  0  0
    0.6242    0.2223    3.0254 H   0  0  0  0  0  0  0  0  0  0  0  0
    3.3813    1.1170    2.9656 H   0  0  0  0  0  0  0  0  0  0  0  0
    1.1961    3.2019    3.5224 H   0  0  0  0  0  0  0  0  0  0  0  0
    2.9409    3.4513    3.7520 H   0  0  0  0  0  0  0  0  0  0  0  0
    2.2900    3.2015    2.1216 H   0  0  0  0  0  0  0  0  0  0  0  0
    3.3471    1.2399    5.6696 N   0  0  0  0  0  0  0  0  0  0  0  0
    3.3261    0.8855    7.0836 C   0  0  0  0  0  0  0  0  0  0  0  0
    4.1824    1.6683    5.2810 H   0  0  0  0  0  0  0  0  0  0  0  0
    2.5067    1.4011    7.5957 H   0  0  0  0  0  0  0  0  0  0  0  0
    3.1936   -0.1947    7.2062 H   0  0  0  0  0  0  0  0  0  0  0  0
    4.2676    1.1743    7.5608 H   0  0  0  0  0  0  0  0  0  0  0  0
  1  2  2  0  0  0  0
  1  3  1  0  0  0  0
  1  7  1  0  0  0  0
  3  4  1  0  0  0  0
  3  5  1  0  0  0  0
  3  6  1  0  0  0  0
  7  8  1  0  0  0  0
  7 12  1  0  0  0  0
  8  9  1  0  0  0  0
  8 11  1  0  0  0  0
  8 13  1  0  0  0  0
  9 10  2  0  0  0  0
  9 17  1  0  0  0  0
 11 14  1  0  0  0  0
 11 15  1  0  0  0  0
 11 16  1  0  0  0  0
 17 18  1  0  0  0  0
 17 22  1  0  0  0  0
 18 19  1  0  0  0  0
 18 21  1  0  0  0  0
 18 23  1  0  0  0  0
 19 20  2  0  0  0  0
 19 27  1  0  0  0  0
 21 24  1  0  0  0  0
 21 25  1  0  0  0  0
 21 26  1  0  0  0  0
 27 28  1  0  0  0  0
 27 32  1  0  0  0  0
 28 29  1  0  0  0  0
 28 31  1  0  0  0  0
 28 33  1  0  0  0  0
 29 30  2  0  0  0  0
 29 37  1  0  0  0  0
 31 34  1  0  0  0  0
 31 35  1  0  0  0  0
 31 36  1  0  0  0  0
 37 38  1  0  0  0  0
 37 39  1  0  0  0  0
 38 40  1  0  0  0  0
 38 41  1  0  0  0  0
 38 42  1  0  0  0  0
M  END
$$$$

  -OEChem-05262215353D

 42 41  0     1  0  0  0  0  0999 V2000
   -5.6010   -1.0282    1.7449 C   0  0  0  0  0  0  0  0  0  0  0  0
   -6.0167    0.0034    1.2414 O   0  0  0  0  0  0  0  0  0  0  0  0
   -6.5087   -2.2383    1.8583 C   0  0  0  0  0  0  0  0  0  0  0  0
   -6.6105   -2.5314    2.9060 H   0  0  0  0  0  0  0  0  0  0  0  0
   -7.5001   -2.0050    1.4599 H   0  0  0  0  0  0  0  0  0  0  0  0
   -6.0891   -3.0736    1.2924 H   0  0  0  0  0  0  0  0  0  0  0  0
   -4.3015   -1.1029    2.1996 N   0  0  0  0  0  0  0  0  0  0  0  0
   -3.2851   -0.0675    1.9737 C   0  0  2  0  0  0  0  0  0  0  0  0
   -1.9283   -0.6828    1.5759 C   0  0  0  0  0  0  0  0  0  0  0  0
   -1.6708   -1.8458    1.8630 O   0  0  0  0  0  0  0  0  0  0  0  0
   -3.1461    0.7518    3.2597 C   0  0  0  0  0  0  0  0  0  0  0  0
   -3.9618   -2.0220    2.4804 H   0  0  0  0  0  0  0  0  0  0  0  0
   -3.5952    0.5946    1.1583 H   0  0  0  0  0  0  0  0  0  0  0  0
   -2.8274    0.1113    4.0888 H   0  0  0  0  0  0  0  0  0  0  0  0
   -2.4071    1.5487    3.1317 H   0  0  0  0  0  0  0  0  0  0  0  0
   -4.1055    1.2097    3.5214 H   0  0  0  0  0  0  0  0  0  0  0  0
   -0.9802    0.0845    0.9253 N   0  0  0  0  0  0  0  0  0  0  0  0
    0.3458   -0.3925    0.5016 C   0  0  2  0  0  0  0  0  0  0  0  0
    1.4633    0.4290    1.1797 C   0  0  0  0  0  0  0  0  0  0  0  0
    2.2472    1.1138    0.5340 O   0  0  0  0  0  0  0  0  0  0  0  0
    0.3943   -0.3241   -1.0296 C   0  0  0  0  0  0  0  0  0  0  0  0
   -1.2370    1.0423    0.7003 H   0  0  0  0  0  0  0  0  0  0  0  0
    0.5006   -1.4362    0.7955 H   0  0  0  0  0  0  0  0  0  0  0  0
    0.2548    0.7048   -1.3762 H   0  0  0  0  0  0  0  0  0  0  0  0
    1.3613   -0.6842   -1.3950 H   0  0  0  0  0  0  0  0  0  0  0  0
   -0.3927   -0.9495   -1.4620 H   0  0  0  0  0  0  0  0  0  0  0  0
    1.5453    0.4419    2.5583 N   0  0  0  0  0  0  0  0  0  0  0  0
    2.5734    1.1500    3.3309 C   0  0  2  0  0  0  0  0  0  0  0  0
    2.8476    0.4621    4.6841 C   0  0  0  0  0  0  0  0  0  0  0  0
    2.0450   -0.3455    5.1385 O   0  0  0  0  0  0  0  0  0  0  0  0
    2.1046    2.5918    3.5505 C   0  0  0  0  0  0  0  0  0  0  0  0
    0.9427   -0.2060    3.0682 H   0  0  0  0  0  0  0  0  0  0  0  0
    3.5141    1.1559    2.7701 H   0  0  0  0  0  0  0  0  0  0  0  0
    1.1630    2.6057    4.1088 H   0  0  0  0  0  0  0  0  0  0  0  0
    2.8525    3.1582    4.1135 H   0  0  0  0  0  0  0  0  0  0  0  0
    1.9477    3.0905    2.5888 H   0  0  0  0  0  0  0  0  0  0  0  0
    4.0012    0.7452    5.3921 N   0  0  0  0  0  0  0  0  0  0  0  0
    4.3462    0.0957    6.6508 C   0  0  0  0  0  0  0  0  0  0  0  0
    4.6635    1.3923    4.9739 H   0  0  0  0  0  0  0  0  0  0  0  0
    3.5643    0.2667    7.3983 H   0  0  0  0  0  0  0  0  0  0  0  0
    4.4641   -0.9832    6.5050 H   0  0  0  0  0  0  0  0  0  0  0  0
    5.2873    0.4972    7.0383 H   0  0  0  0  0  0  0  0  0  0  0  0
  1  2  2  0  0  0  0
  1  3  1  0  0  0  0
  1  7  1  0  0  0  0
  3  4  1  0  0  0  0
  3  5  1  0  0  0  0
  3  6  1  0  0  0  0
  7  8  1  0  0  0  0
  7 12  1  0  0  0  0
  8  9  1  0  0  0  0
  8 11  1  0  0  0  0
  8 13  1  0  0  0  0
  9 10  2  0  0  0  0
  9 17  1  0  0  0  0
 11 14  1  0  0  0  0
 11 15  1  0  0  0  0
 11 16  1  0  0  0  0
 17 18  1  0  0  0  0
 17 22  1  0  0  0  0
 18 19  1  0  0  0  0
 18 21  1  0  0  0  0
 18 23  1  0  0  0  0
 19 20  2  0  0  0  0
 19 27  1  0  0  0  0
 21 24  1  0  0  0  0
 21 25  1  0  0  0  0
 21 26  1  0  0  0  0
 27 28  1  0  0  0  0
 27 32  1  0  0  0  0
 28 29  1  0  0  0  0
 28 31  1  0  0  0  0
 28 33  1  0  0  0  0
 29 30  2  0  0  0  0
 29 37  1  0  0  0  0
 31 34  1  0  0  0  0
 31 35  1  0  0  0  0
 31 36  1  0  0  0  0
 37 38  1  0  0  0  0
 37 39  1  0  0  0  0
 38 40  1  0  0  0  0
 38 41  1  0  0  0  0
 38 42  1  0  0  0  0
M  END
$$$$

  -OEChem-05262215353D

 42 41  0     1  0  0  0  0  0999 V2000
   -5.6031   -1.0086    1.7786 C   0  0  0  0  0  0  0  0  0  0  0  0
   -6.0250    0.0331    1.3020 O   0  0  0  0  0  0  0  0  0  0  0  0
   -6.5108   -2.2199    1.8812 C   0  0  0  0  0  0  0  0  0  0  0  0
   -6.6072   -2.5278    2.9252 H   0  0  0  0  0  0  0  0  0  0  0  0
   -7.5041   -1.9805    1.4914 H   0  0  0  0  0  0  0  0  0  0  0  0
   -6.0953   -3.0475    1.3009 H   0  0  0  0  0  0  0  0  0  0  0  0
   -4.2948   -1.0938    2.2054 N   0  0  0  0  0  0  0  0  0  0  0  0
   -3.2794   -0.0590    1.9703 C   0  0  2  0  0  0  0  0  0  0  0  0
   -1.9193   -0.6788    1.5901 C   0  0  0  0  0  0  0  0  0  0  0  0
   -1.6698   -1.8429    1.8817 O   0  0  0  0  0  0  0  0  0  0  0  0
   -3.1518    0.7842    3.2417 C   0  0  0  0  0  0  0  0  0  0  0  0
   -3.9527   -2.0167    2.4710 H   0  0  0  0  0  0  0  0  0  0  0  0
   -3.5860    0.5868    1.1405 H   0  0  0  0  0  0  0  0  0  0  0  0
   -2.8353    0.1609    4.0843 H   0  0  0  0  0  0  0  0  0  0  0  0
   -2.4163    1.5825    3.1029 H   0  0  0  0  0  0  0  0  0  0  0  0
   -4.1151    1.2418    3.4890 H   0  0  0  0  0  0  0  0  0  0  0  0
   -0.9682    0.0765    0.9301 N   0  0  0  0  0  0  0  0  0  0  0  0
    0.3539   -0.4121    0.5112 C   0  0  2  0  0  0  0  0  0  0  0  0
    1.4733    0.4130    1.1802 C   0  0  0  0  0  0  0  0  0  0  0  0
    2.0632    1.2998    0.5749 O   0  0  0  0  0  0  0  0  0  0  0  0
    0.4049   -0.3588   -1.0206 C   0  0  0  0  0  0  0  0  0  0  0  0
   -1.2083    1.0414    0.7159 H   0  0  0  0  0  0  0  0  0  0  0  0
    0.5027   -1.4545    0.8130 H   0  0  0  0  0  0  0  0  0  0  0  0
    0.2562    0.6649   -1.3791 H   0  0  0  0  0  0  0  0  0  0  0  0
    1.3755   -0.7146   -1.3805 H   0  0  0  0  0  0  0  0  0  0  0  0
   -0.3762   -0.9954   -1.4476 H   0  0  0  0  0  0  0  0  0  0  0  0
    1.7626    0.2094    2.5153 N   0  0  0  0  0  0  0  0  0  0  0  0
    2.8319    0.8954    3.2517 C   0  0  2  0  0  0  0  0  0  0  0  0
    3.4211    0.0094    4.3688 C   0  0  0  0  0  0  0  0  0  0  0  0
    2.8293   -1.0001    4.7333 O   0  0  0  0  0  0  0  0  0  0  0  0
    2.2602    2.1901    3.8378 C   0  0  0  0  0  0  0  0  0  0  0  0
    1.3148   -0.5838    2.9769 H   0  0  0  0  0  0  0  0  0  0  0  0
    3.6504    1.1399    2.5666 H   0  0  0  0  0  0  0  0  0  0  0  0
    1.4414    1.9676    4.5295 H   0  0  0  0  0  0  0  0  0  0  0  0
    3.0345    2.7419    4.3792 H   0  0  0  0  0  0  0  0  0  0  0  0
    1.8769    2.8317    3.0378 H   0  0  0  0  0  0  0  0  0  0  0  0
    4.6267    0.3397    4.9601 N   0  0  0  0  0  0  0  0  0  0  0  0
    5.2611   -0.4728    5.9911 C   0  0  0  0  0  0  0  0  0  0  0  0
    5.1085    1.1662    4.6185 H   0  0  0  0  0  0  0  0  0  0  0  0
    4.6069   -0.5643    6.8646 H   0  0  0  0  0  0  0  0  0  0  0  0
    5.4798   -1.4752    5.6079 H   0  0  0  0  0  0  0  0  0  0  0  0
    6.2008   -0.0121    6.3110 H   0  0  0  0  0  0  0  0  0  0  0  0
  1  2  2  0  0  0  0
  1  3  1  0  0  0  0
  1  7  1  0  0  0  0
  3  4  1  0  0  0  0
  3  5  1  0  0  0  0
  3  6  1  0  0  0  0
  7  8  1  0  0  0  0
  7 12  1  0  0  0  0
  8  9  1  0  0  0  0
  8 11  1  0  0  0  0
  8 13  1  0  0  0  0
  9 10  2  0  0  0  0
  9 17  1  0  0  0  0
 11 14  1  0  0  0  0
 11 15  1  0  0  0  0
 11 16  1  0  0  0  0
 17 18  1  0  0  0  0
 17 22  1  0  0  0  0
 18 19  1  0  0  0  0
 18 21  1  0  0  0  0
 18 23  1  0  0  0  0
 19 20  2  0  0  0  0
 19 27  1  0  0  0  0
 21 24  1  0  0  0  0
 21 25  1  0  0  0  0
 21 26  1  0  0  0  0
 27 28  1  0  0  0  0
 27 32  1  0  0  0  0
 28 29  1  0  0  0  0
 28 31  1  0  0  0  0
 28 33  1  0  0  0  0
 29 30  2  0  0  0  0
 29 37  1  0  0  0  0
 31 34  1  0  0  0  0
 31 35  1  0  0  0  0
 31 36  1  0  0  0  0
 37 38  1  0  0  0  0
 37 39  1  0  0  0  0
 38 40  1  0  0  0  0
 38 41  1  0  0  0  0
 38 42  1  0  0  0  0
M  END
$$$$

  -OEChem-05262215353D

 42 41  0     1  0  0  0  0  0999 V2000
   -5.5983   -0.9811    1.7720 C   0  0  0  0  0  0  0  0  0  0  0  0
   -6.0044    0.0638    1.2888 O   0  0  0  0  0  0  0  0  0  0  0  0
   -6.5223   -2.1795    1.8776 C   0  0  0  0  0  0  0  0  0  0  0  0
   -6.6341   -2.4735    2.9241 H   0  0  0  0  0  0  0  0  0  0  0  0
   -7.5081   -1.9314    1.4741 H   0  0  0  0  0  0  0  0  0  0  0  0
   -6.1111   -3.0192    1.3118 H   0  0  0  0  0  0  0  0  0  0  0  0
   -4.2957   -1.0806    2.2129 N   0  0  0  0  0  0  0  0  0  0  0  0
   -3.2667   -0.0566    1.9903 C   0  0  2  0  0  0  0  0  0  0  0  0
   -1.9149   -0.6905    1.6031 C   0  0  0  0  0  0  0  0  0  0  0  0
   -1.6760   -1.8568    1.8959 O   0  0  0  0  0  0  0  0  0  0  0  0
   -3.1295    0.7690    3.2727 C   0  0  0  0  0  0  0  0  0  0  0  0
   -3.9659   -2.0087    2.4759 H   0  0  0  0  0  0  0  0  0  0  0  0
   -3.5637    0.6036    1.1684 H   0  0  0  0  0  0  0  0  0  0  0  0
   -2.8284    0.1298    4.1091 H   0  0  0  0  0  0  0  0  0  0  0  0
   -2.3787    1.5552    3.1471 H   0  0  0  0  0  0  0  0  0  0  0  0
   -4.0854    1.2414    3.5213 H   0  0  0  0  0  0  0  0  0  0  0  0
   -0.9631    0.0527    0.9310 N   0  0  0  0  0  0  0  0  0  0  0  0
    0.3586   -0.4422    0.5212 C   0  0  2  0  0  0  0  0  0  0  0  0
    1.4784    0.3923    1.1750 C   0  0  0  0  0  0  0  0  0  0  0  0
    1.8652    1.4367    0.6642 O   0  0  0  0  0  0  0  0  0  0  0  0
    0.4219   -0.4047   -1.0098 C   0  0  0  0  0  0  0  0  0  0  0  0
   -1.1893    1.0232    0.7261 H   0  0  0  0  0  0  0  0  0  0  0  0
    0.5040   -1.4812    0.8358 H   0  0  0  0  0  0  0  0  0  0  0  0
    0.2635    0.6130   -1.3808 H   0  0  0  0  0  0  0  0  0  0  0  0
    1.3998   -0.7519   -1.3576 H   0  0  0  0  0  0  0  0  0  0  0  0
   -0.3480   -1.0553   -1.4359 H   0  0  0  0  0  0  0  0  0  0  0  0
    1.9890    0.0172    2.4020 N   0  0  0  0  0  0  0  0  0  0  0  0
    3.0899    0.7016    3.0924 C   0  0  2  0  0  0  0  0  0  0  0  0
    3.9649   -0.2827    3.8956 C   0  0  0  0  0  0  0  0  0  0  0  0
    3.5642   -1.4176    4.1279 O   0  0  0  0  0  0  0  0  0  0  0  0
    2.4876    1.7645    4.0158 C   0  0  0  0  0  0  0  0  0  0  0  0
    1.6980   -0.8872    2.7755 H   0  0  0  0  0  0  0  0  0  0  0  0
    3.7417    1.1877    2.3587 H   0  0  0  0  0  0  0  0  0  0  0  0
    1.8374    1.2972    4.7623 H   0  0  0  0  0  0  0  0  0  0  0  0
    3.2766    2.3155    4.5360 H   0  0  0  0  0  0  0  0  0  0  0  0
    1.8951    2.4783    3.4347 H   0  0  0  0  0  0  0  0  0  0  0  0
    5.2119    0.1031    4.3518 N   0  0  0  0  0  0  0  0  0  0  0  0
    6.1019   -0.7826    5.0930 C   0  0  0  0  0  0  0  0  0  0  0  0
    5.5252    1.0435    4.1293 H   0  0  0  0  0  0  0  0  0  0  0  0
    5.6324   -1.1010    6.0297 H   0  0  0  0  0  0  0  0  0  0  0  0
    6.3408   -1.6714    4.4994 H   0  0  0  0  0  0  0  0  0  0  0  0
    7.0366   -0.2664    5.3321 H   0  0  0  0  0  0  0  0  0  0  0  0
  1  2  2  0  0  0  0
  1  3  1  0  0  0  0
  1  7  1  0  0  0  0
  3  4  1  0  0  0  0
  3  5  1  0  0  0  0
  3  6  1  0  0  0  0
  7  8  1  0  0  0  0
  7 12  1  0  0  0  0
  8  9  1  0  0  0  0
  8 11  1  0  0  0  0
  8 13  1  0  0  0  0
  9 10  2  0  0  0  0
  9 17  1  0  0  0  0
 11 14  1  0  0  0  0
 11 15  1  0  0  0  0
 11 16  1  0  0  0  0
 17 18  1  0  0  0  0
 17 22  1  0  0  0  0
 18 19  1  0  0  0  0
 18 21  1  0  0  0  0
 18 23  1  0  0  0  0
 19 20  2  0  0  0  0
 19 27  1  0  0  0  0
 21 24  1  0  0  0  0
 21 25  1  0  0  0  0
 21 26  1  0  0  0  0
 27 28  1  0  0  0  0
 27 32  1  0  0  0  0
 28 29  1  0  0  0  0
 28 31  1  0  0  0  0
 28 33  1  0  0  0  0
 29 30  2  0  0  0  0
 29 37  1  0  0  0  0
 31 34  1  0  0  0  0
 31 35  1  0  0  0  0
 31 36  1  0  0  0  0
 37 38  1  0  0  0  0
 37 39  1  0  0  0  0
 38 40  1  0  0  0  0
 38 41  1  0  0  0  0
 38 42  1  0  0  0  0
M  END
$$$$

  -OEChem-05262215353D

 42 41  0     1  0  0  0  0  0999 V2000
   -5.5998   -0.9652    1.7949 C   0  0  0  0  0  0  0  0  0  0  0  0
   -6.0027    0.0851    1.3205 O   0  0  0  0  0  0  0  0  0  0  0  0
   -6.5295   -2.1600    1.8964 C   0  0  0  0  0  0  0  0  0  0  0  0
   -6.6316   -2.4660    2.9404 H   0  0  0  0  0  0  0  0  0  0  0  0
   -7.5183   -1.9025    1.5064 H   0  0  0  0  0  0  0  0  0  0  0  0
   -6.1291   -2.9953    1.3164 H   0  0  0  0  0  0  0  0  0  0  0  0
   -4.2953   -1.0749    2.2277 N   0  0  0  0  0  0  0  0  0  0  0  0
   -3.2590   -0.0596    1.9980 C   0  0  2  0  0  0  0  0  0  0  0  0
   -1.9172   -0.7063    1.5969 C   0  0  0  0  0  0  0  0  0  0  0  0
   -1.6919   -1.8785    1.8776 O   0  0  0  0  0  0  0  0  0  0  0  0
   -3.1009    0.7612    3.2806 C   0  0  0  0  0  0  0  0  0  0  0  0
   -3.9696   -2.0073    2.4799 H   0  0  0  0  0  0  0  0  0  0  0  0
   -3.5572    0.6057    1.1806 H   0  0  0  0  0  0  0  0  0  0  0  0
   -2.7971    0.1174    4.1124 H   0  0  0  0  0  0  0  0  0  0  0  0
   -2.3442    1.5406    3.1485 H   0  0  0  0  0  0  0  0  0  0  0  0
   -4.0497    1.2417    3.5398 H   0  0  0  0  0  0  0  0  0  0  0  0
   -0.9632    0.0286    0.9188 N   0  0  0  0  0  0  0  0  0  0  0  0
    0.3622   -0.4678    0.5237 C   0  0  2  0  0  0  0  0  0  0  0  0
    1.4784    0.3779    1.1681 C   0  0  0  0  0  0  0  0  0  0  0  0
    1.6651    1.5328    0.8034 O   0  0  0  0  0  0  0  0  0  0  0  0
    0.4433   -0.4437   -1.0055 C   0  0  0  0  0  0  0  0  0  0  0  0
   -1.1631    1.0131    0.7550 H   0  0  0  0  0  0  0  0  0  0  0  0
    0.5045   -1.5030    0.8515 H   0  0  0  0  0  0  0  0  0  0  0  0
    0.2934    0.5717   -1.3860 H   0  0  0  0  0  0  0  0  0  0  0  0
    1.4233   -0.7983   -1.3390 H   0  0  0  0  0  0  0  0  0  0  0  0
   -0.3246   -1.0942   -1.4351 H   0  0  0  0  0  0  0  0  0  0  0  0
    2.2062   -0.1183    2.2318 N   0  0  0  0  0  0  0  0  0  0  0  0
    3.3399    0.5722    2.8606 C   0  0  2  0  0  0  0  0  0  0  0  0
    4.4361   -0.4189    3.3051 C   0  0  0  0  0  0  0  0  0  0  0  0
    4.2055   -1.6228    3.3304 O   0  0  0  0  0  0  0  0  0  0  0  0
    2.8095    1.3680    4.0564 C   0  0  0  0  0  0  0  0  0  0  0  0
    2.0840   -1.1046    2.4633 H   0  0  0  0  0  0  0  0  0  0  0  0
    3.7989    1.2618    2.1443 H   0  0  0  0  0  0  0  0  0  0  0  0
    2.3552    0.6959    4.7916 H   0  0  0  0  0  0  0  0  0  0  0  0
    3.6195    1.9206    4.5418 H   0  0  0  0  0  0  0  0  0  0  0  0
    2.0529    2.0868    3.7259 H   0  0  0  0  0  0  0  0  0  0  0  0
    5.6920    0.0373    3.6617 N   0  0  0  0  0  0  0  0  0  0  0  0
    6.7845   -0.8465    4.0511 C   0  0  0  0  0  0  0  0  0  0  0  0
    5.8622    1.0375    3.6098 H   0  0  0  0  0  0  0  0  0  0  0  0
    6.5111   -1.4280    4.9380 H   0  0  0  0  0  0  0  0  0  0  0  0
    7.0268   -1.5385    3.2377 H   0  0  0  0  0  0  0  0  0  0  0  0
    7.6797   -0.2618    4.2843 H   0  0  0  0  0  0  0  0  0  0  0  0
  1  2  2  0  0  0  0
  1  3  1  0  0  0  0
  1  7  1  0  0  0  0
  3  4  1  0  0  0  0
  3  5  1  0  0  0  0
  3  6  1  0  0  0  0
  7  8  1  0  0  0  0
  7 12  1  0  0  0  0
  8  9  1  0  0  0  0
  8 11  1  0  0  0  0
  8 13  1  0  0  0  0
  9 10  2  0  0  0  0
  9 17  1  0  0  0  0
 11 14  1  0  0  0  0
 11 15  1  0  0  0  0
 11 16  1  0  0  0  0
 17 18  1  0  0  0  0
 17 22  1  0  0  0  0
 18 19  1  0  0  0  0
 18 21  1  0  0  0  0
 18 23  1  0  0  0  0
 19 20  2  0  0  0  0
 19 27  1  0  0  0  0
 21 24  1  0  0  0  0
 21 25  1  0  0  0  0
 21 26  1  0  0  0  0
 27 28  1  0  0  0  0
 27 32  1  0  0  0  0
 28 29  1  0  0  0  0
 28 31  1  0  0  0  0
 28 33  1  0  0  0  0
 29 30  2  0  0  0  0
 29 37  1  0  0  0  0
 31 34  1  0  0  0  0
 31 35  1  0  0  0  0
 31 36  1  0  0  0  0
 37 38  1  0  0  0  0
 37 39  1  0  0  0  0
 38 40  1  0  0  0  0
 38 41  1  0  0  0  0
 38 42  1  0  0  0  0
M  END
$$$$

  -OEChem-05262215353D

 42 41  0     1  0  0  0  0  0999 V2000
   -5.5954   -0.9517    1.8544 C   0  0  0  0  0  0  0  0  0  0  0  0
   -6.0041    0.1160    1.4263 O   0  0  0  0  0  0  0  0  0  0  0  0
   -6.5298   -2.1437    1.9364 C   0  0  0  0  0  0  0  0  0  0  0  0
   -6.6396   -2.4606    2.9763 H   0  0  0  0  0  0  0  0  0  0  0  0
   -7.5148   -1.8781    1.5421 H   0  0  0  0  0  0  0  0  0  0  0  0
   -6.1281   -2.9731    1.3491 H   0  0  0  0  0  0  0  0  0  0  0  0
   -4.2795   -1.0850    2.2441 N   0  0  0  0  0  0  0  0  0  0  0  0
   -3.2413   -0.0777    1.9919 C   0  0  2  0  0  0  0  0  0  0  0  0
   -1.9149   -0.7356    1.5595 C   0  0  0  0  0  0  0  0  0  0  0  0
   -1.7075   -1.9197    1.8032 O   0  0  0  0  0  0  0  0  0  0  0  0
   -3.0492    0.7437    3.2688 C   0  0  0  0  0  0  0  0  0  0  0  0
   -3.9541   -2.0268    2.4601 H   0  0  0  0  0  0  0  0  0  0  0  0
   -3.5532    0.5885    1.1802 H   0  0  0  0  0  0  0  0  0  0  0  0
   -2.7242    0.1007    4.0930 H   0  0  0  0  0  0  0  0  0  0  0  0
   -2.2960    1.5223    3.1153 H   0  0  0  0  0  0  0  0  0  0  0  0
   -3.9904    1.2254    3.5524 H   0  0  0  0  0  0  0  0  0  0  0  0
   -0.9595    0.0014    0.8864 N   0  0  0  0  0  0  0  0  0  0  0  0
    0.3730   -0.4893    0.5107 C   0  0  2  0  0  0  0  0  0  0  0  0
    1.4748    0.3692    1.1605 C   0  0  0  0  0  0  0  0  0  0  0  0
    1.4903    1.5814    0.9779 O   0  0  0  0  0  0  0  0  0  0  0  0
    0.4813   -0.4626   -1.0157 C   0  0  0  0  0  0  0  0  0  0  0  0
   -1.1284    1.0009    0.7899 H   0  0  0  0  0  0  0  0  0  0  0  0
    0.5154   -1.5218    0.8458 H   0  0  0  0  0  0  0  0  0  0  0  0
    0.3522    0.5565   -1.3944 H   0  0  0  0  0  0  0  0  0  0  0  0
    1.4620   -0.8300   -1.3335 H   0  0  0  0  0  0  0  0  0  0  0  0
   -0.2887   -1.1006   -1.4604 H   0  0  0  0  0  0  0  0  0  0  0  0
    2.3965   -0.1987    2.0178 N   0  0  0  0  0  0  0  0  0  0  0  0
    3.5494    0.5115    2.5853 C   0  0  2  0  0  0  0  0  0  0  0  0
    4.7917   -0.3999    2.6689 C   0  0  0  0  0  0  0  0  0  0  0  0
    4.6784   -1.6110    2.5144 O   0  0  0  0  0  0  0  0  0  0  0  0
    3.1569    1.0261    3.9725 C   0  0  0  0  0  0  0  0  0  0  0  0
    2.4121   -1.2168    2.0808 H   0  0  0  0  0  0  0  0  0  0  0  0
    3.8146    1.3609    1.9469 H   0  0  0  0  0  0  0  0  0  0  0  0
    2.8920    0.1914    4.6296 H   0  0  0  0  0  0  0  0  0  0  0  0
    3.9846    1.5786    4.4267 H   0  0  0  0  0  0  0  0  0  0  0  0
    2.2952    1.6968    3.8957 H   0  0  0  0  0  0  0  0  0  0  0  0
    6.0444    0.1412    2.8927 N   0  0  0  0  0  0  0  0  0  0  0  0
    7.2652   -0.6555    2.9252 C   0  0  0  0  0  0  0  0  0  0  0  0
    6.1124    1.1509    2.9820 H   0  0  0  0  0  0  0  0  0  0  0  0
    7.1981   -1.4296    3.6969 H   0  0  0  0  0  0  0  0  0  0  0  0
    7.4343   -1.1373    1.9563 H   0  0  0  0  0  0  0  0  0  0  0  0
    8.1265   -0.0191    3.1500 H   0  0  0  0  0  0  0  0  0  0  0  0
  1  2  2  0  0  0  0
  1  3  1  0  0  0  0
  1  7  1  0  0  0  0
  3  4  1  0  0  0  0
  3  5  1  0  0  0  0
  3  6  1  0  0  0  0
  7  8  1  0  0  0  0
  7 12  1  0  0  0  0
  8  9  1  0  0  0  0
  8 11  1  0  0  0  0
  8 13  1  0  0  0  0
  9 10  2  0  0  0  0
  9 17  1  0  0  0  0
 11 14  1  0  0  0  0
 11 15  1  0  0  0  0
 11 16  1  0  0  0  0
 17 18  1  0  0  0  0
 17 22  1  0  0  0  0
 18 19  1  0  0  0  0
 18 21  1  0  0  0  0
 18 23  1  0  0  0  0
 19 20  2  0  0  0  0
 19 27  1  0  0  0  0
 21 24  1  0  0  0  0
 21 25  1  0  0  0  0
 21 26  1  0  0  0  0
 27 28  1  0  0  0  0
 27 32  1  0  0  0  0
 28 29  1  0  0  0  0
 28 31  1  0  0  0  0
 28 33  1  0  0  0  0
 29 30  2  0  0  0  0
 29 37  1  0  0  0  0
 31 34  1  0  0  0  0
 31 35  1  0  0  0  0
 31 36  1  0  0  0  0
 37 38  1  0  0  0  0
 37 39  1  0  0  0  0
 38 40  1  0  0  0  0
 38 41  1  0  0  0  0
 38 42  1  0  0  0  0
M  END
$$$$

  -OEChem-05262215353D

 42 41  0     1  0  0  0  0  0999 V2000
   -5.6037   -0.9753    2.0340 C   0  0  0  0  0  0  0  0  0  0  0  0
   -6.0506    0.1187    1.7272 O   0  0  0  0  0  0  0  0  0  0  0  0
   -6.5440   -2.1430    2.2647 C   0  0  0  0  0  0  0  0  0  0  0  0
   -6.4548   -2.4950    3.2955 H   0  0  0  0  0  0  0  0  0  0  0  0
   -7.5780   -1.8351    2.0848 H   0  0  0  0  0  0  0  0  0  0  0  0
   -6.2963   -2.9611    1.5836 H   0  0  0  0  0  0  0  0  0  0  0  0
   -4.2431   -1.1552    2.1656 N   0  0  0  0  0  0  0  0  0  0  0  0
   -3.2367   -0.1377    1.8366 C   0  0  2  0  0  0  0  0  0  0  0  0
   -1.9137   -0.7751    1.3611 C   0  0  0  0  0  0  0  0  0  0  0  0
   -1.7160   -1.9755    1.5184 O   0  0  0  0  0  0  0  0  0  0  0  0
   -3.0010    0.7276    3.0782 C   0  0  0  0  0  0  0  0  0  0  0  0
   -3.9053   -2.1072    2.3037 H   0  0  0  0  0  0  0  0  0  0  0  0
   -3.6062    0.4935    1.0210 H   0  0  0  0  0  0  0  0  0  0  0  0
   -2.6239    0.1159    3.9041 H   0  0  0  0  0  0  0  0  0  0  0  0
   -2.2726    1.5164    2.8666 H   0  0  0  0  0  0  0  0  0  0  0  0
   -3.9370    1.2001    3.3931 H   0  0  0  0  0  0  0  0  0  0  0  0
   -0.9484    0.0019    0.7490 N   0  0  0  0  0  0  0  0  0  0  0  0
    0.4048   -0.4561    0.4044 C   0  0  2  0  0  0  0  0  0  0  0  0
    1.4772    0.3894    1.1191 C   0  0  0  0  0  0  0  0  0  0  0  0
    1.3498    1.6076    1.1785 O   0  0  0  0  0  0  0  0  0  0  0  0
    0.5683   -0.3632   -1.1136 C   0  0  0  0  0  0  0  0  0  0  0  0
   -1.0973    1.0095    0.7632 H   0  0  0  0  0  0  0  0  0  0  0  0
    0.5487   -1.4991    0.7057 H   0  0  0  0  0  0  0  0  0  0  0  0
    0.4384    0.6699   -1.4522 H   0  0  0  0  0  0  0  0  0  0  0  0
    1.5648   -0.7045   -1.4110 H   0  0  0  0  0  0  0  0  0  0  0  0
   -0.1764   -0.9912   -1.6129 H   0  0  0  0  0  0  0  0  0  0  0  0
    2.5586   -0.2109    1.7337 N   0  0  0  0  0  0  0  0  0  0  0  0
    3.7104    0.5179    2.2809 C   0  0  2  0  0  0  0  0  0  0  0  0
    5.0314   -0.2340    2.0112 C   0  0  0  0  0  0  0  0  0  0  0  0
    5.0071   -1.3973    1.6237 O   0  0  0  0  0  0  0  0  0  0  0  0
    3.4858    0.7068    3.7837 C   0  0  0  0  0  0  0  0  0  0  0  0
    2.6928   -1.2087    1.5688 H   0  0  0  0  0  0  0  0  0  0  0  0
    3.7934    1.5000    1.8032 H   0  0  0  0  0  0  0  0  0  0  0  0
    3.4085   -0.2636    4.2846 H   0  0  0  0  0  0  0  0  0  0  0  0
    4.3141    1.2650    4.2301 H   0  0  0  0  0  0  0  0  0  0  0  0
    2.5601    1.2642    3.9597 H   0  0  0  0  0  0  0  0  0  0  0  0
    6.2500    0.3970    2.1818 N   0  0  0  0  0  0  0  0  0  0  0  0
    7.5294   -0.2529    1.9232 C   0  0  0  0  0  0  0  0  0  0  0  0
    6.2422    1.3654    2.4888 H   0  0  0  0  0  0  0  0  0  0  0  0
    7.6653   -1.1099    2.5911 H   0  0  0  0  0  0  0  0  0  0  0  0
    7.5794   -0.6029    0.8866 H   0  0  0  0  0  0  0  0  0  0  0  0
    8.3519    0.4491    2.0898 H   0  0  0  0  0  0  0  0  0  0  0  0
  1  2  2  0  0  0  0
  1  3  1  0  0  0  0
  1  7  1  0  0  0  0
  3  4  1  0  0  0  0
  3  5  1  0  0  0  0
  3  6  1  0  0  0  0
  7  8  1  0  0  0  0
  7 12  1  0  0  0  0
  8  9  1  0  0  0  0
  8 11  1  0  0  0  0
  8 13  1  0  0  0  0
  9 10  2  0  0  0  0
  9 17  1  0  0  0  0
 11 14  1  0  0  0  0
 11 15  1  0  0  0  0
 11 16  1  0  0  0  0
 17 18  1  0  0  0  0
 17 22  1  0  0  0  0
 18 19  1  0  0  0  0
 18 21  1  0  0  0  0
 18 23  1  0  0  0  0
 19 20  2  0  0  0  0
 19 27  1  0  0  0  0
 21 24  1  0  0  0  0
 21 25  1  0  0  0  0
 21 26  1  0  0  0  0
 27 28  1  0  0  0  0
 27 32  1  0  0  0  0
 28 29  1  0  0  0  0
 28 31  1  0  0  0  0
 28 33  1  0  0  0  0
 29 30  2  0  0  0  0
 29 37  1  0  0  0  0
 31 34  1  0  0  0  0
 31 35  1  0  0  0  0
 31 36  1  0  0  0  0
 37 38  1  0  0  0  0
 37 39  1  0  0  0  0
 38 40  1  0  0  0  0
 38 41  1  0  0  0  0
 38 42  1  0  0  0  0
M  END
$$$$

  -OEChem-05262215353D

 42 41  0     1  0  0  0  0  0999 V2000
   -5.5958   -0.9696    2.0814 C   0  0  0  0  0  0  0  0  0  0  0  0
   -6.0435    0.1324    1.8065 O   0  0  0  0  0  0  0  0  0  0  0  0
   -6.5374   -2.1336    2.3259 C   0  0  0  0  0  0  0  0  0  0  0  0
   -6.3689   -2.5462    3.3234 H   0  0  0  0  0  0  0  0  0  0  0  0
   -7.5763   -1.7997    2.2539 H   0  0  0  0  0  0  0  0  0  0  0  0
   -6.3658   -2.9150    1.5816 H   0  0  0  0  0  0  0  0  0  0  0  0
   -4.2332   -1.1617    2.1636 N   0  0  0  0  0  0  0  0  0  0  0  0
   -3.2298   -0.1492    1.8115 C   0  0  2  0  0  0  0  0  0  0  0  0
   -1.9272   -0.7957    1.2948 C   0  0  0  0  0  0  0  0  0  0  0  0
   -1.7454   -2.0026    1.4207 O   0  0  0  0  0  0  0  0  0  0  0  0
   -2.9501    0.7099    3.0493 C   0  0  0  0  0  0  0  0  0  0  0  0
   -3.8985   -2.1184    2.2745 H   0  0  0  0  0  0  0  0  0  0  0  0
   -3.6170    0.4884    1.0093 H   0  0  0  0  0  0  0  0  0  0  0  0
   -2.5634    0.0915    3.8656 H   0  0  0  0  0  0  0  0  0  0  0  0
   -2.2137    1.4865    2.8213 H   0  0  0  0  0  0  0  0  0  0  0  0
   -3.8695    1.1981    3.3880 H   0  0  0  0  0  0  0  0  0  0  0  0
   -0.9596   -0.0166    0.6898 N   0  0  0  0  0  0  0  0  0  0  0  0
    0.4005   -0.4750    0.3747 C   0  0  2  0  0  0  0  0  0  0  0  0
    1.4593    0.3815    1.0972 C   0  0  0  0  0  0  0  0  0  0  0  0
    1.2217    1.5565    1.3581 O   0  0  0  0  0  0  0  0  0  0  0  0
    0.5925   -0.3959   -1.1408 C   0  0  0  0  0  0  0  0  0  0  0  0
   -1.0864    0.9919    0.7610 H   0  0  0  0  0  0  0  0  0  0  0  0
    0.5429   -1.5129    0.6933 H   0  0  0  0  0  0  0  0  0  0  0  0
    0.4746    0.6351   -1.4900 H   0  0  0  0  0  0  0  0  0  0  0  0
    1.5922   -0.7451   -1.4177 H   0  0  0  0  0  0  0  0  0  0  0  0
   -0.1466   -1.0235   -1.6487 H   0  0  0  0  0  0  0  0  0  0  0  0
    2.6725   -0.1666    1.4649 N   0  0  0  0  0  0  0  0  0  0  0  0
    3.8209    0.6135    1.9450 C   0  0  2  0  0  0  0  0  0  0  0  0
    5.1437    0.0864    1.3481 C   0  0  0  0  0  0  0  0  0  0  0  0
    5.1624   -0.9846    0.7507 O   0  0  0  0  0  0  0  0  0  0  0  0
    3.8440    0.5406    3.4743 C   0  0  0  0  0  0  0  0  0  0  0  0
    2.8824   -1.0996    1.1096 H   0  0  0  0  0  0  0  0  0  0  0  0
    3.7197    1.6595    1.6366 H   0  0  0  0  0  0  0  0  0  0  0  0
    3.9641   -0.4955    3.8073 H   0  0  0  0  0  0  0  0  0  0  0  0
    4.6709    1.1341    3.8756 H   0  0  0  0  0  0  0  0  0  0  0  0
    2.9078    0.9324    3.8852 H   0  0  0  0  0  0  0  0  0  0  0  0
    6.3112    0.8188    1.4609 N   0  0  0  0  0  0  0  0  0  0  0  0
    7.5839    0.3857    0.8961 C   0  0  0  0  0  0  0  0  0  0  0  0
    6.2638    1.7124    1.9417 H   0  0  0  0  0  0  0  0  0  0  0  0
    7.8872   -0.5747    1.3258 H   0  0  0  0  0  0  0  0  0  0  0  0
    7.5031    0.2756   -0.1903 H   0  0  0  0  0  0  0  0  0  0  0  0
    8.3646    1.1214    1.1111 H   0  0  0  0  0  0  0  0  0  0  0  0
  1  2  2  0  0  0  0
  1  3  1  0  0  0  0
  1  7  1  0  0  0  0
  3  4  1  0  0  0  0
  3  5  1  0  0  0  0
  3  6  1  0  0  0  0
  7  8  1  0  0  0  0
  7 12  1  0  0  0  0
  8  9  1  0  0  0  0
  8 11  1  0  0  0  0
  8 13  1  0  0  0  0
  9 10  2  0  0  0  0
  9 17  1  0  0  0  0
 11 14  1  0  0  0  0
 11 15  1  0  0  0  0
 11 16  1  0  0  0  0
 17 18  1  0  0  0  0
 17 22  1  0  0  0  0
 18 19  1  0  0  0  0
 18 21  1  0  0  0  0
 18 23  1  0  0  0  0
 19 20  2  0  0  0  0
 19 27  1  0  0  0  0
 21 24  1  0  0  0  0
 21 25  1  0  0  0  0
 21 26  1  0  0  0  0
 27 28  1  0  0  0  0
 27 32  1  0  0  0  0
 28 29  1  0  0  0  0
 28 31  1  0  0  0  0
 28 33  1  0  0  0  0
 29 30  2  0  0  0  0
 29 37  1  0  0  0  0
 31 34  1  0  0  0  0
 31 35  1  0  0  0  0
 31 36  1  0  0  0  0
 37 38  1  0  0  0  0
 37 39  1  0  0  0  0
 38 40  1  0  0  0  0
 38 41  1  0  0  0  0
 38 42  1  0  0  0  0
M  END
$$$$

  -OEChem-05262215353D

 42 41  0     1  0  0  0  0  0999 V2000
   -5.5943   -0.9528    2.0438 C   0  0  0  0  0  0  0  0  0  0  0  0
   -6.0297    0.1490    1.7490 O   0  0  0  0  0  0  0  0  0  0  0  0
   -6.5460   -2.1157    2.2550 C   0  0  0  0  0  0  0  0  0  0  0  0
   -6.4200   -2.5227    3.2612 H   0  0  0  0  0  0  0  0  0  0  0  0
   -7.5810   -1.7828    2.1370 H   0  0  0  0  0  0  0  0  0  0  0  0
   -6.3432   -2.9015    1.5234 H   0  0  0  0  0  0  0  0  0  0  0  0
   -4.2359   -1.1475    2.1780 N   0  0  0  0  0  0  0  0  0  0  0  0
   -3.2158   -0.1449    1.8435 C   0  0  2  0  0  0  0  0  0  0  0  0
   -1.9318   -0.8035    1.2964 C   0  0  0  0  0  0  0  0  0  0  0  0
   -1.7672   -2.0149    1.4027 O   0  0  0  0  0  0  0  0  0  0  0  0
   -2.9062    0.6714    3.1026 C   0  0  0  0  0  0  0  0  0  0  0  0
   -3.9109   -2.1071    2.2921 H   0  0  0  0  0  0  0  0  0  0  0  0
   -3.5947    0.5248    1.0638 H   0  0  0  0  0  0  0  0  0  0  0  0
   -2.5226    0.0216    3.8957 H   0  0  0  0  0  0  0  0  0  0  0  0
   -2.1568    1.4402    2.8897 H   0  0  0  0  0  0  0  0  0  0  0  0
   -3.8126    1.1666    3.4653 H   0  0  0  0  0  0  0  0  0  0  0  0
   -0.9651   -0.0310    0.6815 N   0  0  0  0  0  0  0  0  0  0  0  0
    0.3974   -0.4982    0.3879 C   0  0  2  0  0  0  0  0  0  0  0  0
    1.4566    0.3705    1.0974 C   0  0  0  0  0  0  0  0  0  0  0  0
    1.1517    1.4744    1.5383 O   0  0  0  0  0  0  0  0  0  0  0  0
    0.5916   -0.4540   -1.1295 C   0  0  0  0  0  0  0  0  0  0  0  0
   -1.0708    0.9763    0.7940 H   0  0  0  0  0  0  0  0  0  0  0  0
    0.5380   -1.5281    0.7317 H   0  0  0  0  0  0  0  0  0  0  0  0
    0.4789    0.5695   -1.5017 H   0  0  0  0  0  0  0  0  0  0  0  0
    1.5888   -0.8152   -1.4002 H   0  0  0  0  0  0  0  0  0  0  0  0
   -0.1509   -1.0888   -1.6236 H   0  0  0  0  0  0  0  0  0  0  0  0
    2.7608   -0.0703    1.2090 N   0  0  0  0  0  0  0  0  0  0  0  0
    3.8881    0.7758    1.6217 C   0  0  2  0  0  0  0  0  0  0  0  0
    5.1335    0.5043    0.7516 C   0  0  0  0  0  0  0  0  0  0  0  0
    5.1720   -0.4855    0.0279 O   0  0  0  0  0  0  0  0  0  0  0  0
    4.1823    0.4970    3.0978 C   0  0  0  0  0  0  0  0  0  0  0  0
    3.0040   -0.9181    0.6965 H   0  0  0  0  0  0  0  0  0  0  0  0
    3.6316    1.8336    1.5004 H   0  0  0  0  0  0  0  0  0  0  0  0
    4.4562   -0.5531    3.2425 H   0  0  0  0  0  0  0  0  0  0  0  0
    5.0059    1.1241    3.4519 H   0  0  0  0  0  0  0  0  0  0  0  0
    3.2980    0.7138    3.7055 H   0  0  0  0  0  0  0  0  0  0  0  0
    6.2029    1.3807    0.7595 N   0  0  0  0  0  0  0  0  0  0  0  0
    7.3895    1.2010   -0.0687 C   0  0  0  0  0  0  0  0  0  0  0  0
    6.1316    2.2075    1.3456 H   0  0  0  0  0  0  0  0  0  0  0  0
    7.8806    0.2504    0.1653 H   0  0  0  0  0  0  0  0  0  0  0  0
    7.1202    1.2065   -1.1303 H   0  0  0  0  0  0  0  0  0  0  0  0
    8.1027    2.0112    0.1114 H   0  0  0  0  0  0  0  0  0  0  0  0
  1  2  2  0  0  0  0
  1  3  1  0  0  0  0
  1  7  1  0  0  0  0
  3  4  1  0  0  0  0
  3  5  1  0  0  0  0
  3  6  1  0  0  0  0
  7  8  1  0  0  0  0
  7 12  1  0  0  0  0
  8  9  1  0  0  0  0
  8 11  1  0  0  0  0
  8 13  1  0  0  0  0
  9 10  2  0  0  0  0
  9 17  1  0  0  0  0
 11 14  1  0  0  0  0
 11 15  1  0  0  0  0
 11 16  1  0  0  0  0
 17 18  1  0  0  0  0
 17 22  1  0  0  0  0
 18 19  1  0  0  0  0
 18 21  1  0  0  0  0
 18 23  1  0  0  0  0
 19 20  2  0  0  0  0
 19 27  1  0  0  0  0
 21 24  1  0  0  0  0
 21 25  1  0  0  0  0
 21 26  1  0  0  0  0
 27 28  1  0  0  0  0
 27 32  1  0  0  0  0
 28 29  1  0  0  0  0
 28 31  1  0  0  0  0
 28 33  1  0  0  0  0
 29 30  2  0  0  0  0
 29 37  1  0  0  0  0
 31 34  1  0  0  0  0
 31 35  1  0  0  0  0
 31 36  1  0  0  0  0
 37 38  1  0  0  0  0
 37 39  1  0  0  0  0
 38 40  1  0  0  0  0
 38 41  1  0  0  0  0
 38 42  1  0  0  0  0
M  END
$$$$

  -OEChem-05262215353D

 42 41  0     1  0  0  0  0  0999 V2000
   -5.5684   -0.9131    2.0850 C   0  0  0  0  0  0  0  0  0  0  0  0
   -5.9701    0.2229    1.8880 O   0  0  0  0  0  0  0  0  0  0  0  0
   -6.5582   -2.0456    2.2817 C   0  0  0  0  0  0  0  0  0  0  0  0
   -6.3898   -2.5244    3.2493 H   0  0  0  0  0  0  0  0  0  0  0  0
   -7.5811   -1.6599    2.2526 H   0  0  0  0  0  0  0  0  0  0  0  0
   -6.4385   -2.7884    1.4893 H   0  0  0  0  0  0  0  0  0  0  0  0
   -4.2150   -1.1710    2.1243 N   0  0  0  0  0  0  0  0  0  0  0  0
   -3.1729   -0.1816    1.8238 C   0  0  2  0  0  0  0  0  0  0  0  0
   -1.9202   -0.8390    1.2089 C   0  0  0  0  0  0  0  0  0  0  0  0
   -1.7698   -2.0555    1.2668 O   0  0  0  0  0  0  0  0  0  0  0  0
   -2.8102    0.5489    3.1205 C   0  0  0  0  0  0  0  0  0  0  0  0
   -3.9217   -2.1457    2.1782 H   0  0  0  0  0  0  0  0  0  0  0  0
   -3.5515    0.5424    1.0943 H   0  0  0  0  0  0  0  0  0  0  0  0
   -2.4358   -0.1599    3.8659 H   0  0  0  0  0  0  0  0  0  0  0  0
   -2.0366    1.3010    2.9375 H   0  0  0  0  0  0  0  0  0  0  0  0
   -3.6909    1.0538    3.5299 H   0  0  0  0  0  0  0  0  0  0  0  0
   -0.9653   -0.0530    0.5918 N   0  0  0  0  0  0  0  0  0  0  0  0
    0.4029   -0.5182    0.3183 C   0  0  2  0  0  0  0  0  0  0  0  0
    1.4264    0.1038    1.2942 C   0  0  0  0  0  0  0  0  0  0  0  0
    1.0734    0.9597    2.0996 O   0  0  0  0  0  0  0  0  0  0  0  0
    0.7305   -0.1382   -1.1285 C   0  0  0  0  0  0  0  0  0  0  0  0
   -1.0611    0.9441    0.7724 H   0  0  0  0  0  0  0  0  0  0  0  0
    0.4744   -1.6066    0.4163 H   0  0  0  0  0  0  0  0  0  0  0  0
    0.7196    0.9498   -1.2505 H   0  0  0  0  0  0  0  0  0  0  0  0
    1.7200   -0.5103   -1.4115 H   0  0  0  0  0  0  0  0  0  0  0  0
   -0.0072   -0.5733   -1.8103 H   0  0  0  0  0  0  0  0  0  0  0  0
    2.7668   -0.2155    1.1942 N   0  0  0  0  0  0  0  0  0  0  0  0
    3.8489    0.5372    1.8414 C   0  0  2  0  0  0  0  0  0  0  0  0
    5.0595    0.6926    0.8963 C   0  0  0  0  0  0  0  0  0  0  0  0
    5.1088    0.0501   -0.1477 O   0  0  0  0  0  0  0  0  0  0  0  0
    4.2453   -0.2007    3.1229 C   0  0  0  0  0  0  0  0  0  0  0  0
    3.0407   -0.7957    0.4014 H   0  0  0  0  0  0  0  0  0  0  0  0
    3.5066    1.5454    2.0978 H   0  0  0  0  0  0  0  0  0  0  0  0
    4.6189   -1.2028    2.8890 H   0  0  0  0  0  0  0  0  0  0  0  0
    5.0272    0.3478    3.6563 H   0  0  0  0  0  0  0  0  0  0  0  0
    3.3795   -0.2979    3.7857 H   0  0  0  0  0  0  0  0  0  0  0  0
    6.0871    1.5654    1.2036 N   0  0  0  0  0  0  0  0  0  0  0  0
    7.2500    1.7658    0.3467 C   0  0  0  0  0  0  0  0  0  0  0  0
    6.0128    2.0978    2.0657 H   0  0  0  0  0  0  0  0  0  0  0  0
    7.7964    0.8255    0.2163 H   0  0  0  0  0  0  0  0  0  0  0  0
    6.9424    2.1343   -0.6378 H   0  0  0  0  0  0  0  0  0  0  0  0
    7.9279    2.4999    0.7932 H   0  0  0  0  0  0  0  0  0  0  0  0
  1  2  2  0  0  0  0
  1  3  1  0  0  0  0
  1  7  1  0  0  0  0
  3  4  1  0  0  0  0
  3  5  1  0  0  0  0
  3  6  1  0  0  0  0
  7  8  1  0  0  0  0
  7 12  1  0  0  0  0
  8  9  1  0  0  0  0
  8 11  1  0  0  0  0
  8 13  1  0  0  0  0
  9 10  2  0  0  0  0
  9 17  1  0  0  0  0
 11 14  1  0  0  0  0
 11 15  1  0  0  0  0
 11 16  1  0  0  0  0
 17 18  1  0  0  0  0
 17 22  1  0  0  0  0
 18 19  1  0  0  0  0
 18 21  1  0  0  0  0
 18 23  1  0  0  0  0
 19 20  2  0  0  0  0
 19 27  1  0  0  0  0
 21 24  1  0  0  0  0
 21 25  1  0  0  0  0
 21 26  1  0  0  0  0
 27 28  1  0  0  0  0
 27 32  1  0  0  0  0
 28 29  1  0  0  0  0
 28 31  1  0  0  0  0
 28 33  1  0  0  0  0
 29 30  2  0  0  0  0
 29 37  1  0  0  0  0
 31 34  1  0  0  0  0
 31 35  1  0  0  0  0
 31 36  1  0  0  0  0
 37 38  1  0  0  0  0
 37 39  1  0  0  0  0
 38 40  1  0  0  0  0
 38 41  1  0  0  0  0
 38 42  1  0  0  0  0
M  END
$$$$

  -OEChem-05262215353D

 42 41  0     1  0  0  0  0  0999 V2000
   -5.5530   -0.9108    2.1039 C   0  0  0  0  0  0  0  0  0  0  0  0
   -5.9555    0.2297    1.9355 O   0  0  0  0  0  0  0  0  0  0  0  0
   -6.5411   -2.0514    2.2610 C   0  0  0  0  0  0  0  0  0  0  0  0
   -6.3840   -2.5525    3.2194 H   0  0  0  0  0  0  0  0  0  0  0  0
   -7.5657   -1.6706    2.2267 H   0  0  0  0  0  0  0  0  0  0  0  0
   -6.4069   -2.7748    1.4530 H   0  0  0  0  0  0  0  0  0  0  0  0
   -4.1996   -1.1698    2.1358 N   0  0  0  0  0  0  0  0  0  0  0  0
   -3.1565   -0.1796    1.8404 C   0  0  2  0  0  0  0  0  0  0  0  0
   -1.9185   -0.8345    1.1929 C   0  0  0  0  0  0  0  0  0  0  0  0
   -1.7786   -2.0534    1.2265 O   0  0  0  0  0  0  0  0  0  0  0  0
   -2.7690    0.5215    3.1460 C   0  0  0  0  0  0  0  0  0  0  0  0
   -3.9089   -2.1468    2.1559 H   0  0  0  0  0  0  0  0  0  0  0  0
   -3.5409    0.5624    1.1321 H   0  0  0  0  0  0  0  0  0  0  0  0
   -2.3872   -0.2041    3.8713 H   0  0  0  0  0  0  0  0  0  0  0  0
   -1.9935    1.2723    2.9656 H   0  0  0  0  0  0  0  0  0  0  0  0
   -3.6400    1.0228    3.5796 H   0  0  0  0  0  0  0  0  0  0  0  0
   -0.9712   -0.0472    0.5645 N   0  0  0  0  0  0  0  0  0  0  0  0
    0.3982   -0.5139    0.2953 C   0  0  2  0  0  0  0  0  0  0  0  0
    1.4225    0.1229    1.2641 C   0  0  0  0  0  0  0  0  0  0  0  0
    1.0399    0.8024    2.2112 O   0  0  0  0  0  0  0  0  0  0  0  0
    0.7098   -0.1642   -1.1647 C   0  0  0  0  0  0  0  0  0  0  0  0
   -1.0670    0.9482    0.7515 H   0  0  0  0  0  0  0  0  0  0  0  0
    0.4750   -1.6000    0.4127 H   0  0  0  0  0  0  0  0  0  0  0  0
    0.7135    0.9214   -1.3076 H   0  0  0  0  0  0  0  0  0  0  0  0
    1.6872   -0.5583   -1.4597 H   0  0  0  0  0  0  0  0  0  0  0  0
   -0.0459   -0.6001   -1.8260 H   0  0  0  0  0  0  0  0  0  0  0  0
    2.7761    0.0612    0.9931 N   0  0  0  0  0  0  0  0  0  0  0  0
    3.7972    0.8867    1.6503 C   0  0  2  0  0  0  0  0  0  0  0  0
    4.8768    1.3366    0.6431 C   0  0  0  0  0  0  0  0  0  0  0  0
    4.9288    0.8218   -0.4694 O   0  0  0  0  0  0  0  0  0  0  0  0
    4.4162    0.0691    2.7865 C   0  0  0  0  0  0  0  0  0  0  0  0
    3.0481   -0.3610    0.1055 H   0  0  0  0  0  0  0  0  0  0  0  0
    3.3414    1.7924    2.0645 H   0  0  0  0  0  0  0  0  0  0  0  0
    4.8951   -0.8331    2.3922 H   0  0  0  0  0  0  0  0  0  0  0  0
    5.1674    0.6592    3.3198 H   0  0  0  0  0  0  0  0  0  0  0  0
    3.6424   -0.2304    3.5008 H   0  0  0  0  0  0  0  0  0  0  0  0
    5.7740    2.3370    0.9692 N   0  0  0  0  0  0  0  0  0  0  0  0
    6.7890    2.8306    0.0456 C   0  0  0  0  0  0  0  0  0  0  0  0
    5.6873    2.7702    1.8843 H   0  0  0  0  0  0  0  0  0  0  0  0
    7.4676    2.0220   -0.2465 H   0  0  0  0  0  0  0  0  0  0  0  0
    6.3204    3.2403   -0.8557 H   0  0  0  0  0  0  0  0  0  0  0  0
    7.3789    3.6219    0.5182 H   0  0  0  0  0  0  0  0  0  0  0  0
  1  2  2  0  0  0  0
  1  3  1  0  0  0  0
  1  7  1  0  0  0  0
  3  4  1  0  0  0  0
  3  5  1  0  0  0  0
  3  6  1  0  0  0  0
  7  8  1  0  0  0  0
  7 12  1  0  0  0  0
  8  9  1  0  0  0  0
  8 11  1  0  0  0  0
  8 13  1  0  0  0  0
  9 10  2  0  0  0  0
  9 17  1  0  0  0  0
 11 14  1  0  0  0  0
 11 15  1  0  0  0  0
 11 16  1  0  0  0  0
 17 18  1  0  0  0  0
 17 22  1  0  0  0  0
 18 19  1  0  0  0  0
 18 21  1  0  0  0  0
 18 23  1  0  0  0  0
 19 20  2  0  0  0  0
 19 27  1  0  0  0  0
 21 24  1  0  0  0  0
 21 25  1  0  0  0  0
 21 26  1  0  0  0  0
 27 28  1  0  0  0  0
 27 32  1  0  0  0  0
 28 29  1  0  0  0  0
 28 31  1  0  0  0  0
 28 33  1  0  0  0  0
 29 30  2  0  0  0  0
 29 37  1  0  0  0  0
 31 34  1  0  0  0  0
 31 35  1  0  0  0  0
 31 36  1  0  0  0  0
 37 38  1  0  0  0  0
 37 39  1  0  0  0  0
 38 40  1  0  0  0  0
 38 41  1  0  0  0  0
 38 42  1  0  0  0  0
M  END
$$$$

  -OEChem-05262215353D

 42 41  0     1  0  0  0  0  0999 V2000
   -5.4964   -0.8757    1.8119 C   0  0  0  0  0  0  0  0  0  0  0  0
   -5.8455    0.1707    1.2884 O   0  0  0  0  0  0  0  0  0  0  0  0
   -6.4725   -2.0322    1.9162 C   0  0  0  0  0  0  0  0  0  0  0  0
   -6.6422   -2.2836    2.9661 H   0  0  0  0  0  0  0  0  0  0  0  0
   -7.4284   -1.7614    1.4589 H   0  0  0  0  0  0  0  0  0  0  0  0
   -6.0703   -2.9070    1.3994 H   0  0  0  0  0  0  0  0  0  0  0  0
   -4.2160   -1.0215    2.3027 N   0  0  0  0  0  0  0  0  0  0  0  0
   -3.1194   -0.0807    2.0341 C   0  0  2  0  0  0  0  0  0  0  0  0
   -1.9208   -0.7830    1.3632 C   0  0  0  0  0  0  0  0  0  0  0  0
   -1.7958   -2.0007    1.4514 O   0  0  0  0  0  0  0  0  0  0  0  0
   -2.6956    0.5386    3.3680 C   0  0  0  0  0  0  0  0  0  0  0  0
   -3.9386   -1.9697    2.5510 H   0  0  0  0  0  0  0  0  0  0  0  0
   -3.4497    0.7179    1.3616 H   0  0  0  0  0  0  0  0  0  0  0  0
   -2.3391   -0.2363    4.0543 H   0  0  0  0  0  0  0  0  0  0  0  0
   -1.8901    1.2640    3.2164 H   0  0  0  0  0  0  0  0  0  0  0  0
   -3.5426    1.0536    3.8321 H   0  0  0  0  0  0  0  0  0  0  0  0
   -0.9786   -0.0365    0.6792 N   0  0  0  0  0  0  0  0  0  0  0  0
    0.3743   -0.5387    0.3908 C   0  0  2  0  0  0  0  0  0  0  0  0
    1.4343    0.1169    1.3087 C   0  0  0  0  0  0  0  0  0  0  0  0
    1.1022    0.6013    2.3850 O   0  0  0  0  0  0  0  0  0  0  0  0
    0.6399   -0.2735   -1.0968 C   0  0  0  0  0  0  0  0  0  0  0  0
   -1.0665    0.9684    0.8053 H   0  0  0  0  0  0  0  0  0  0  0  0
    0.4369   -1.6191    0.5575 H   0  0  0  0  0  0  0  0  0  0  0  0
    0.6782    0.8025   -1.2965 H   0  0  0  0  0  0  0  0  0  0  0  0
    1.5878   -0.7228   -1.4086 H   0  0  0  0  0  0  0  0  0  0  0  0
   -0.1577   -0.7119   -1.7053 H   0  0  0  0  0  0  0  0  0  0  0  0
    2.7335    0.2987    0.8733 N   0  0  0  0  0  0  0  0  0  0  0  0
    3.7213    1.1664    1.5273 C   0  0  2  0  0  0  0  0  0  0  0  0
    4.5000    1.9986    0.4870 C   0  0  0  0  0  0  0  0  0  0  0  0
    4.4443    1.7004   -0.7018 O   0  0  0  0  0  0  0  0  0  0  0  0
    4.6677    0.2769    2.3371 C   0  0  0  0  0  0  0  0  0  0  0  0
    2.9223    0.0677   -0.1015 H   0  0  0  0  0  0  0  0  0  0  0  0
    3.2241    1.8713    2.2020 H   0  0  0  0  0  0  0  0  0  0  0  0
    5.1903   -0.4251    1.6794 H   0  0  0  0  0  0  0  0  0  0  0  0
    5.4115    0.8833    2.8621 H   0  0  0  0  0  0  0  0  0  0  0  0
    4.1033   -0.2959    3.0799 H   0  0  0  0  0  0  0  0  0  0  0  0
    5.2434    3.0970    0.8771 N   0  0  0  0  0  0  0  0  0  0  0  0
    5.9564    3.9538   -0.0631 C   0  0  0  0  0  0  0  0  0  0  0  0
    5.2410    3.3422    1.8631 H   0  0  0  0  0  0  0  0  0  0  0  0
    6.6769    3.3695   -0.6453 H   0  0  0  0  0  0  0  0  0  0  0  0
    5.2536    4.4334   -0.7525 H   0  0  0  0  0  0  0  0  0  0  0  0
    6.5010    4.7357    0.4751 H   0  0  0  0  0  0  0  0  0  0  0  0
  1  2  2  0  0  0  0
  1  3  1  0  0  0  0
  1  7  1  0  0  0  0
  3  4  1  0  0  0  0
  3  5  1  0  0  0  0
  3  6  1  0  0  0  0
  7  8  1  0  0  0  0
  7 12  1  0  0  0  0
  8  9  1  0  0  0  0
  8 11  1  0  0  0  0
  8 13  1  0  0  0  0
  9 10  2  0  0  0  0
  9 17  1  0  0  0  0
 11 14  1  0  0  0  0
 11 15  1  0  0  0  0
 11 16  1  0  0  0  0
 17 18  1  0  0  0  0
 17 22  1  0  0  0  0
 18 19  1  0  0  0  0
 18 21  1  0  0  0  0
 18 23  1  0  0  0  0
 19 20  2  0  0  0  0
 19 27  1  0  0  0  0
 21 24  1  0  0  0  0
 21 25  1  0  0  0  0
 21 26  1  0  0  0  0
 27 28  1  0  0  0  0
 27 32  1  0  0  0  0
 28 29  1  0  0  0  0
 28 31  1  0  0  0  0
 28 33  1  0  0  0  0
 29 30  2  0  0  0  0
 29 37  1  0  0  0  0
 31 34  1  0  0  0  0
 31 35  1  0  0  0  0
 31 36  1  0  0  0  0
 37 38  1  0  0  0  0
 37 39  1  0  0  0  0
 38 40  1  0  0  0  0
 38 41  1  0  0  0  0
 38 42  1  0  0  0  0
M  END
$$$$

  -OEChem-05262215353D

 42 41  0     1  0  0  0  0  0999 V2000
   -5.4866   -0.8763    1.8087 C   0  0  0  0  0  0  0  0  0  0  0  0
   -5.8327    0.1627    1.2685 O   0  0  0  0  0  0  0  0  0  0  0  0
   -6.4625   -2.0328    1.9196 C   0  0  0  0  0  0  0  0  0  0  0  0
   -6.6420   -2.2697    2.9710 H   0  0  0  0  0  0  0  0  0  0  0  0
   -7.4145   -1.7699    1.4498 H   0  0  0  0  0  0  0  0  0  0  0  0
   -6.0545   -2.9145    1.4193 H   0  0  0  0  0  0  0  0  0  0  0  0
   -4.2098   -1.0134    2.3120 N   0  0  0  0  0  0  0  0  0  0  0  0
   -3.1127   -0.0749    2.0368 C   0  0  2  0  0  0  0  0  0  0  0  0
   -1.9170   -0.7778    1.3617 C   0  0  0  0  0  0  0  0  0  0  0  0
   -1.7922   -1.9953    1.4497 O   0  0  0  0  0  0  0  0  0  0  0  0
   -2.6796    0.5457    3.3667 C   0  0  0  0  0  0  0  0  0  0  0  0
   -3.9322   -1.9582    2.5729 H   0  0  0  0  0  0  0  0  0  0  0  0
   -3.4463    0.7231    1.3656 H   0  0  0  0  0  0  0  0  0  0  0  0
   -2.3213   -0.2287    4.0528 H   0  0  0  0  0  0  0  0  0  0  0  0
   -1.8722    1.2677    3.2089 H   0  0  0  0  0  0  0  0  0  0  0  0
   -3.5226    1.0645    3.8335 H   0  0  0  0  0  0  0  0  0  0  0  0
   -0.9802   -0.0323    0.6683 N   0  0  0  0  0  0  0  0  0  0  0  0
    0.3737   -0.5305    0.3755 C   0  0  2  0  0  0  0  0  0  0  0  0
    1.4361    0.1357    1.2840 C   0  0  0  0  0  0  0  0  0  0  0  0
    1.1679    0.3923    2.4516 O   0  0  0  0  0  0  0  0  0  0  0  0
    0.6247   -0.2889   -1.1184 C   0  0  0  0  0  0  0  0  0  0  0  0
   -1.0832    0.9739    0.7659 H   0  0  0  0  0  0  0  0  0  0  0  0
    0.4423   -1.6087    0.5560 H   0  0  0  0  0  0  0  0  0  0  0  0
    0.6353    0.7829   -1.3425 H   0  0  0  0  0  0  0  0  0  0  0  0
    1.5817   -0.7227   -1.4241 H   0  0  0  0  0  0  0  0  0  0  0  0
   -0.1654   -0.7597   -1.7121 H   0  0  0  0  0  0  0  0  0  0  0  0
    2.6302    0.6028    0.7655 N   0  0  0  0  0  0  0  0  0  0  0  0
    3.5513    1.5071    1.4660 C   0  0  2  0  0  0  0  0  0  0  0  0
    4.0704    2.6105    0.5209 C   0  0  0  0  0  0  0  0  0  0  0  0
    3.9138    2.5034   -0.6912 O   0  0  0  0  0  0  0  0  0  0  0  0
    4.7080    0.6706    2.0180 C   0  0  0  0  0  0  0  0  0  0  0  0
    2.7356    0.5585   -0.2475 H   0  0  0  0  0  0  0  0  0  0  0  0
    3.0405    2.0052    2.2967 H   0  0  0  0  0  0  0  0  0  0  0  0
    5.2486    0.1782    1.2032 H   0  0  0  0  0  0  0  0  0  0  0  0
    5.4099    1.3020    2.5710 H   0  0  0  0  0  0  0  0  0  0  0  0
    4.3259   -0.0980    2.6975 H   0  0  0  0  0  0  0  0  0  0  0  0
    4.6918    3.7361    1.0289 N   0  0  0  0  0  0  0  0  0  0  0  0
    5.1505    4.8406    0.1950 C   0  0  0  0  0  0  0  0  0  0  0  0
    4.7734    3.8143    2.0386 H   0  0  0  0  0  0  0  0  0  0  0  0
    5.8785    4.4874   -0.5431 H   0  0  0  0  0  0  0  0  0  0  0  0
    4.3070    5.2980   -0.3330 H   0  0  0  0  0  0  0  0  0  0  0  0
    5.6289    5.6074    0.8120 H   0  0  0  0  0  0  0  0  0  0  0  0
  1  2  2  0  0  0  0
  1  3  1  0  0  0  0
  1  7  1  0  0  0  0
  3  4  1  0  0  0  0
  3  5  1  0  0  0  0
  3  6  1  0  0  0  0
  7  8  1  0  0  0  0
  7 12  1  0  0  0  0
  8  9  1  0  0  0  0
  8 11  1  0  0  0  0
  8 13  1  0  0  0  0
  9 10  2  0  0  0  0
  9 17  1  0  0  0  0
 11 14  1  0  0  0  0
 11 15  1  0  0  0  0
 11 16  1  0  0  0  0
 17 18  1  0  0  0  0
 17 22  1  0  0  0  0
 18 19  1  0  0  0  0
 18 21  1  0  0  0  0
 18 23  1  0  0  0  0
 19 20  2  0  0  0  0
 19 27  1  0  0  0  0
 21 24  1  0  0  0  0
 21 25  1  0  0  0  0
 21 26  1  0  0  0  0
 27 28  1  0  0  0  0
 27 32  1  0  0  0  0
 28 29  1  0  0  0  0
 28 31  1  0  0  0  0
 28 33  1  0  0  0  0
 29 30  2  0  0  0  0
 29 37  1  0  0  0  0
 31 34  1  0  0  0  0
 31 35  1  0  0  0  0
 31 36  1  0  0  0  0
 37 38  1  0  0  0  0
 37 39  1  0  0  0  0
 38 40  1  0  0  0  0
 38 41  1  0  0  0  0
 38 42  1  0  0  0  0
M  END
$$$$

  -OEChem-05262215353D

 42 41  0     1  0  0  0  0  0999 V2000
   -5.4771   -0.8824    1.8006 C   0  0  0  0  0  0  0  0  0  0  0  0
   -5.8257    0.1472    1.2442 O   0  0  0  0  0  0  0  0  0  0  0  0
   -6.4460   -2.0440    1.9179 C   0  0  0  0  0  0  0  0  0  0  0  0
   -6.6182   -2.2809    2.9706 H   0  0  0  0  0  0  0  0  0  0  0  0
   -7.4022   -1.7862    1.4538 H   0  0  0  0  0  0  0  0  0  0  0  0
   -6.0365   -2.9239    1.4154 H   0  0  0  0  0  0  0  0  0  0  0  0
   -4.2037   -1.0035    2.3161 N   0  0  0  0  0  0  0  0  0  0  0  0
   -3.1111   -0.0617    2.0344 C   0  0  2  0  0  0  0  0  0  0  0  0
   -1.9097   -0.7655    1.3702 C   0  0  0  0  0  0  0  0  0  0  0  0
   -1.7812   -1.9815    1.4693 O   0  0  0  0  0  0  0  0  0  0  0  0
   -2.6876    0.5749    3.3598 C   0  0  0  0  0  0  0  0  0  0  0  0
   -3.9217   -1.9426    2.5925 H   0  0  0  0  0  0  0  0  0  0  0  0
   -3.4462    0.7280    1.3542 H   0  0  0  0  0  0  0  0  0  0  0  0
   -2.3246   -0.1904    4.0536 H   0  0  0  0  0  0  0  0  0  0  0  0
   -1.8865    1.3028    3.1980 H   0  0  0  0  0  0  0  0  0  0  0  0
   -3.5366    1.0901    3.8200 H   0  0  0  0  0  0  0  0  0  0  0  0
   -0.9750   -0.0230    0.6702 N   0  0  0  0  0  0  0  0  0  0  0  0
    0.3764   -0.5213    0.3679 C   0  0  2  0  0  0  0  0  0  0  0  0
    1.4398    0.1481    1.2715 C   0  0  0  0  0  0  0  0  0  0  0  0
    1.2805    0.1694    2.4851 O   0  0  0  0  0  0  0  0  0  0  0  0
    0.6181   -0.2903   -1.1296 C   0  0  0  0  0  0  0  0  0  0  0  0
   -1.0919    0.9843    0.7333 H   0  0  0  0  0  0  0  0  0  0  0  0
    0.4473   -1.5988    0.5536 H   0  0  0  0  0  0  0  0  0  0  0  0
    0.5852    0.7773   -1.3700 H   0  0  0  0  0  0  0  0  0  0  0  0
    1.5926   -0.6899   -1.4272 H   0  0  0  0  0  0  0  0  0  0  0  0
   -0.1529   -0.7998   -1.7169 H   0  0  0  0  0  0  0  0  0  0  0  0
    2.4776    0.8866    0.7320 N   0  0  0  0  0  0  0  0  0  0  0  0
    3.3307    1.8114    1.4903 C   0  0  2  0  0  0  0  0  0  0  0  0
    3.5486    3.1282    0.7157 C   0  0  0  0  0  0  0  0  0  0  0  0
    3.2326    3.2025   -0.4674 O   0  0  0  0  0  0  0  0  0  0  0  0
    4.6632    1.1095    1.7640 C   0  0  0  0  0  0  0  0  0  0  0  0
    2.4559    1.0286   -0.2772 H   0  0  0  0  0  0  0  0  0  0  0  0
    2.8597    2.0713    2.4440 H   0  0  0  0  0  0  0  0  0  0  0  0
    5.1650    0.8600    0.8236 H   0  0  0  0  0  0  0  0  0  0  0  0
    5.3244    1.7527    2.3524 H   0  0  0  0  0  0  0  0  0  0  0  0
    4.4936    0.1847    2.3249 H   0  0  0  0  0  0  0  0  0  0  0  0
    4.0755    4.2387    1.3486 N   0  0  0  0  0  0  0  0  0  0  0  0
    4.2583    5.5247    0.6863 C   0  0  0  0  0  0  0  0  0  0  0  0
    4.2985    4.1573    2.3366 H   0  0  0  0  0  0  0  0  0  0  0  0
    4.9094    5.4173   -0.1877 H   0  0  0  0  0  0  0  0  0  0  0  0
    3.2938    5.9278    0.3599 H   0  0  0  0  0  0  0  0  0  0  0  0
    4.7187    6.2423    1.3722 H   0  0  0  0  0  0  0  0  0  0  0  0
  1  2  2  0  0  0  0
  1  3  1  0  0  0  0
  1  7  1  0  0  0  0
  3  4  1  0  0  0  0
  3  5  1  0  0  0  0
  3  6  1  0  0  0  0
  7  8  1  0  0  0  0
  7 12  1  0  0  0  0
  8  9  1  0  0  0  0
  8 11  1  0  0  0  0
  8 13  1  0  0  0  0
  9 10  2  0  0  0  0
  9 17  1  0  0  0  0
 11 14  1  0  0  0  0
 11 15  1  0  0  0  0
 11 16  1  0  0  0  0
 17 18  1  0  0  0  0
 17 22  1  0  0  0  0
 18 19  1  0  0  0  0
 18 21  1  0  0  0  0
 18 23  1  0  0  0  0
 19 20  2  0  0  0  0
 19 27  1  0  0  0  0
 21 24  1  0  0  0  0
 21 25  1  0  0  0  0
 21 26  1  0  0  0  0
 27 28  1  0  0  0  0
 27 32  1  0  0  0  0
 28 29  1  0  0  0  0
 28 31  1  0  0  0  0
 28 33  1  0  0  0  0
 29 30  2  0  0  0  0
 29 37  1  0  0  0  0
 31 34  1  0  0  0  0
 31 35  1  0  0  0  0
 31 36  1  0  0  0  0
 37 38  1  0  0  0  0
 37 39  1  0  0  0  0
 38 40  1  0  0  0  0
 38 41  1  0  0  0  0
 38 42  1  0  0  0  0
M  END
$$$$

  -OEChem-05262215353D

 42 41  0     1  0  0  0  0  0999 V2000
   -5.4784   -0.8951    1.7903 C   0  0  0  0  0  0  0  0  0  0  0  0
   -5.8354    0.1262    1.2241 O   0  0  0  0  0  0  0  0  0  0  0  0
   -6.4347   -2.0662    1.9138 C   0  0  0  0  0  0  0  0  0  0  0  0
   -6.5948   -2.3081    2.9673 H   0  0  0  0  0  0  0  0  0  0  0  0
   -7.3974   -1.8160    1.4594 H   0  0  0  0  0  0  0  0  0  0  0  0
   -6.0215   -2.9407    1.4050 H   0  0  0  0  0  0  0  0  0  0  0  0
   -4.2052   -0.9991    2.3099 N   0  0  0  0  0  0  0  0  0  0  0  0
   -3.1216   -0.0476    2.0265 C   0  0  2  0  0  0  0  0  0  0  0  0
   -1.8982   -0.7495    1.4010 C   0  0  0  0  0  0  0  0  0  0  0  0
   -1.7554   -1.9606    1.5318 O   0  0  0  0  0  0  0  0  0  0  0  0
   -2.7315    0.6253    3.3443 C   0  0  0  0  0  0  0  0  0  0  0  0
   -3.9142   -1.9330    2.5956 H   0  0  0  0  0  0  0  0  0  0  0  0
   -3.4555    0.7209    1.3215 H   0  0  0  0  0  0  0  0  0  0  0  0
   -2.3835   -0.1205    4.0666 H   0  0  0  0  0  0  0  0  0  0  0  0
   -1.9290    1.3513    3.1817 H   0  0  0  0  0  0  0  0  0  0  0  0
   -3.5924    1.1499    3.7706 H   0  0  0  0  0  0  0  0  0  0  0  0
   -0.9648   -0.0121    0.6938 N   0  0  0  0  0  0  0  0  0  0  0  0
    0.3839   -0.5081    0.3757 C   0  0  2  0  0  0  0  0  0  0  0  0
    1.4553    0.1597    1.2689 C   0  0  0  0  0  0  0  0  0  0  0  0
    1.4695   -0.0582    2.4725 O   0  0  0  0  0  0  0  0  0  0  0  0
    0.6120   -0.2742   -1.1231 C   0  0  0  0  0  0  0  0  0  0  0  0
   -1.1049    0.9944    0.7021 H   0  0  0  0  0  0  0  0  0  0  0  0
    0.4582   -1.5859    0.5598 H   0  0  0  0  0  0  0  0  0  0  0  0
    0.5231    0.7880   -1.3722 H   0  0  0  0  0  0  0  0  0  0  0  0
    1.6058   -0.6246   -1.4189 H   0  0  0  0  0  0  0  0  0  0  0  0
   -0.1326   -0.8269   -1.7049 H   0  0  0  0  0  0  0  0  0  0  0  0
    2.2932    1.1387    0.7659 N   0  0  0  0  0  0  0  0  0  0  0  0
    3.0908    2.0591    1.5878 C   0  0  2  0  0  0  0  0  0  0  0  0
    2.9851    3.5058    1.0611 C   0  0  0  0  0  0  0  0  0  0  0  0
    2.4736    3.7235   -0.0328 O   0  0  0  0  0  0  0  0  0  0  0  0
    4.5428    1.5747    1.5695 C   0  0  0  0  0  0  0  0  0  0  0  0
    2.1096    1.4434   -0.1893 H   0  0  0  0  0  0  0  0  0  0  0  0
    2.7272    2.0633    2.6209 H   0  0  0  0  0  0  0  0  0  0  0  0
    4.9359    1.5796    0.5478 H   0  0  0  0  0  0  0  0  0  0  0  0
    5.1728    2.2203    2.1887 H   0  0  0  0  0  0  0  0  0  0  0  0
    4.6045    0.5546    1.9621 H   0  0  0  0  0  0  0  0  0  0  0  0
    3.4445    4.5668    1.8194 N   0  0  0  0  0  0  0  0  0  0  0  0
    3.3447    5.9576    1.3932 C   0  0  0  0  0  0  0  0  0  0  0  0
    3.8370    4.3587    2.7332 H   0  0  0  0  0  0  0  0  0  0  0  0
    3.8548    6.1031    0.4350 H   0  0  0  0  0  0  0  0  0  0  0  0
    2.2951    6.2498    1.2820 H   0  0  0  0  0  0  0  0  0  0  0  0
    3.8103    6.6148    2.1340 H   0  0  0  0  0  0  0  0  0  0  0  0
  1  2  2  0  0  0  0
  1  3  1  0  0  0  0
  1  7  1  0  0  0  0
  3  4  1  0  0  0  0
  3  5  1  0  0  0  0
  3  6  1  0  0  0  0
  7  8  1  0  0  0  0
  7 12  1  0  0  0  0
  8  9  1  0  0  0  0
  8 11  1  0  0  0  0
  8 13  1  0  0  0  0
  9 10  2  0  0  0  0
  9 17  1  0  0  0  0
 11 14  1  0  0  0  0
 11 15  1  0  0  0  0
 11 16  1  0  0  0  0
 17 18  1  0  0  0  0
 17 22  1  0  0  0  0
 18 19  1  0  0  0  0
 18 21  1  0  0  0  0
 18 23  1  0  0  0  0
 19 20  2  0  0  0  0
 19 27  1  0  0  0  0
 21 24  1  0  0  0  0
 21 25  1  0  0  0  0
 21 26  1  0  0  0  0
 27 28  1  0  0  0  0
 27 32  1  0  0  0  0
 28 29  1  0  0  0  0
 28 31  1  0  0  0  0
 28 33  1  0  0  0  0
 29 30  2  0  0  0  0
 29 37  1  0  0  0  0
 31 34  1  0  0  0  0
 31 35  1  0  0  0  0
 31 36  1  0  0  0  0
 37 38  1  0  0  0  0
 37 39  1  0  0  0  0
 38 40  1  0  0  0  0
 38 41  1  0  0  0  0
 38 42  1  0  0  0  0
M  END
$$$$

  -OEChem-05262215353D

 42 41  0     1  0  0  0  0  0999 V2000
   -5.4883   -0.9066    1.7902 C   0  0  0  0  0  0  0  0  0  0  0  0
   -5.8607    0.1137    1.2323 O   0  0  0  0  0  0  0  0  0  0  0  0
   -6.4289   -2.0912    1.9109 C   0  0  0  0  0  0  0  0  0  0  0  0
   -6.5861   -2.3383    2.9637 H   0  0  0  0  0  0  0  0  0  0  0  0
   -7.3950   -1.8534    1.4571 H   0  0  0  0  0  0  0  0  0  0  0  0
   -6.0037   -2.9582    1.3992 H   0  0  0  0  0  0  0  0  0  0  0  0
   -4.2090   -0.9984    2.2973 N   0  0  0  0  0  0  0  0  0  0  0  0
   -3.1387   -0.0317    2.0134 C   0  0  2  0  0  0  0  0  0  0  0  0
   -1.8855   -0.7268    1.4412 C   0  0  0  0  0  0  0  0  0  0  0  0
   -1.7252   -1.9300    1.6129 O   0  0  0  0  0  0  0  0  0  0  0  0
   -2.7985    0.6909    3.3189 C   0  0  0  0  0  0  0  0  0  0  0  0
   -3.9046   -1.9289    2.5807 H   0  0  0  0  0  0  0  0  0  0  0  0
   -3.4709    0.7055    1.2750 H   0  0  0  0  0  0  0  0  0  0  0  0
   -2.4483   -0.0231    4.0716 H   0  0  0  0  0  0  0  0  0  0  0  0
   -2.0129    1.4345    3.1537 H   0  0  0  0  0  0  0  0  0  0  0  0
   -3.6834    1.2035    3.7090 H   0  0  0  0  0  0  0  0  0  0  0  0
   -0.9527    0.0034    0.7252 N   0  0  0  0  0  0  0  0  0  0  0  0
    0.3938   -0.4922    0.3954 C   0  0  2  0  0  0  0  0  0  0  0  0
    1.4759    0.1737    1.2745 C   0  0  0  0  0  0  0  0  0  0  0  0
    1.7128   -0.2541    2.3950 O   0  0  0  0  0  0  0  0  0  0  0  0
    0.6177   -0.2582   -1.1031 C   0  0  0  0  0  0  0  0  0  0  0  0
   -1.1158    1.0055    0.6786 H   0  0  0  0  0  0  0  0  0  0  0  0
    0.4670   -1.5705    0.5776 H   0  0  0  0  0  0  0  0  0  0  0  0
    0.5092    0.8005   -1.3577 H   0  0  0  0  0  0  0  0  0  0  0  0
    1.6193   -0.5894   -1.3946 H   0  0  0  0  0  0  0  0  0  0  0  0
   -0.1147   -0.8280   -1.6837 H   0  0  0  0  0  0  0  0  0  0  0  0
    2.0889    1.3441    0.8656 N   0  0  0  0  0  0  0  0  0  0  0  0
    2.8483    2.2394    1.7487 C   0  0  2  0  0  0  0  0  0  0  0  0
    2.4252    3.7087    1.5364 C   0  0  0  0  0  0  0  0  0  0  0  0
    1.6925    4.0045    0.5972 O   0  0  0  0  0  0  0  0  0  0  0  0
    4.3382    2.0460    1.4536 C   0  0  0  0  0  0  0  0  0  0  0  0
    1.7173    1.7722    0.0189 H   0  0  0  0  0  0  0  0  0  0  0  0
    2.6577    1.9955    2.7991 H   0  0  0  0  0  0  0  0  0  0  0  0
    4.5607    2.3054    0.4136 H   0  0  0  0  0  0  0  0  0  0  0  0
    4.9464    2.6777    2.1082 H   0  0  0  0  0  0  0  0  0  0  0  0
    4.6226    1.0020    1.6213 H   0  0  0  0  0  0  0  0  0  0  0  0
    2.8467    4.6977    2.4055 N   0  0  0  0  0  0  0  0  0  0  0  0
    2.4655    6.0988    2.2701 C   0  0  0  0  0  0  0  0  0  0  0  0
    3.4298    4.4193    3.1898 H   0  0  0  0  0  0  0  0  0  0  0  0
    2.7843    6.4914    1.2987 H   0  0  0  0  0  0  0  0  0  0  0  0
    1.3795    6.2111    2.3558 H   0  0  0  0  0  0  0  0  0  0  0  0
    2.9382    6.6967    3.0552 H   0  0  0  0  0  0  0  0  0  0  0  0
  1  2  2  0  0  0  0
  1  3  1  0  0  0  0
  1  7  1  0  0  0  0
  3  4  1  0  0  0  0
  3  5  1  0  0  0  0
  3  6  1  0  0  0  0
  7  8  1  0  0  0  0
  7 12  1  0  0  0  0
  8  9  1  0  0  0  0
  8 11  1  0  0  0  0
  8 13  1  0  0  0  0
  9 10  2  0  0  0  0
  9 17  1  0  0  0  0
 11 14  1  0  0  0  0
 11 15  1  0  0  0  0
 11 16  1  0  0  0  0
 17 18  1  0  0  0  0
 17 22  1  0  0  0  0
 18 19  1  0  0  0  0
 18 21  1  0  0  0  0
 18 23  1  0  0  0  0
 19 20  2  0  0  0  0
 19 27  1  0  0  0  0
 21 24  1  0  0  0  0
 21 25  1  0  0  0  0
 21 26  1  0  0  0  0
 27 28  1  0  0  0  0
 27 32  1  0  0  0  0
 28 29  1  0  0  0  0
 28 31  1  0  0  0  0
 28 33  1  0  0  0  0
 29 30  2  0  0  0  0
 29 37  1  0  0  0  0
 31 34  1  0  0  0  0
 31 35  1  0  0  0  0
 31 36  1  0  0  0  0
 37 38  1  0  0  0  0
 37 39  1  0  0  0  0
 38 40  1  0  0  0  0
 38 41  1  0  0  0  0
 38 42  1  0  0  0  0
M  END
$$$$

  -OEChem-05262215353D

 42 41  0     1  0  0  0  0  0999 V2000
   -4.9723    0.2566    2.2861 C   0  0  0  0  0  0  0  0  0  0  0  0
   -5.0388    1.4738    2.2185 O   0  0  0  0  0  0  0  0  0  0  0  0
   -6.2377   -0.5667    2.4340 C   0  0  0  0  0  0  0  0  0  0  0  0
   -6.1903   -1.1612    3.3494 H   0  0  0  0  0  0  0  0  0  0  0  0
   -7.1113    0.0890    2.4847 H   0  0  0  0  0  0  0  0  0  0  0  0
   -6.3489   -1.2363    1.5778 H   0  0  0  0  0  0  0  0  0  0  0  0
   -3.7493   -0.3757    2.2272 N   0  0  0  0  0  0  0  0  0  0  0  0
   -2.4648    0.3004    2.0097 C   0  0  2  0  0  0  0  0  0  0  0  0
   -1.4488   -0.6298    1.3168 C   0  0  0  0  0  0  0  0  0  0  0  0
   -1.5408   -1.8455    1.4552 O   0  0  0  0  0  0  0  0  0  0  0  0
   -1.9196    0.7468    3.3691 C   0  0  0  0  0  0  0  0  0  0  0  0
   -3.7383   -1.3948    2.2278 H   0  0  0  0  0  0  0  0  0  0  0  0
   -2.6063    1.1774    1.3687 H   0  0  0  0  0  0  0  0  0  0  0  0
   -1.8076   -0.1130    4.0373 H   0  0  0  0  0  0  0  0  0  0  0  0
   -0.9415    1.2212    3.2523 H   0  0  0  0  0  0  0  0  0  0  0  0
   -2.6013    1.4657    3.8342 H   0  0  0  0  0  0  0  0  0  0  0  0
   -0.4331   -0.0973    0.5455 N   0  0  0  0  0  0  0  0  0  0  0  0
    0.8534   -0.7897    0.3643 C   0  0  2  0  0  0  0  0  0  0  0  0
    1.9291   -0.0841    1.2127 C   0  0  0  0  0  0  0  0  0  0  0  0
    2.0855   -0.3898    2.3867 O   0  0  0  0  0  0  0  0  0  0  0  0
    1.1860   -0.8082   -1.1308 C   0  0  0  0  0  0  0  0  0  0  0  0
   -0.3880    0.9261    0.5876 H   0  0  0  0  0  0  0  0  0  0  0  0
    0.8009   -1.8274    0.7125 H   0  0  0  0  0  0  0  0  0  0  0  0
    1.1889    0.2037   -1.5467 H   0  0  0  0  0  0  0  0  0  0  0  0
    2.1688   -1.2608   -1.2963 H   0  0  0  0  0  0  0  0  0  0  0  0
    0.4382   -1.3987   -1.6697 H   0  0  0  0  0  0  0  0  0  0  0  0
    2.4219    1.1294    0.7652 N   0  0  0  0  0  0  0  0  0  0  0  0
    2.5406    2.2599    1.6962 C   0  0  2  0  0  0  0  0  0  0  0  0
    1.1646    2.9266    1.9359 C   0  0  0  0  0  0  0  0  0  0  0  0
    0.2238    2.6883    1.1796 O   0  0  0  0  0  0  0  0  0  0  0  0
    3.5304    3.2603    1.0961 C   0  0  0  0  0  0  0  0  0  0  0  0
    2.0807    1.3758   -0.1598 H   0  0  0  0  0  0  0  0  0  0  0  0
    2.9342    1.9213    2.6609 H   0  0  0  0  0  0  0  0  0  0  0  0
    3.1622    3.6380    0.1368 H   0  0  0  0  0  0  0  0  0  0  0  0
    3.6740    4.1091    1.7716 H   0  0  0  0  0  0  0  0  0  0  0  0
    4.5008    2.7805    0.9338 H   0  0  0  0  0  0  0  0  0  0  0  0
    0.9741    3.7890    2.9987 N   0  0  0  0  0  0  0  0  0  0  0  0
   -0.3042    4.4248    3.2994 C   0  0  0  0  0  0  0  0  0  0  0  0
    1.7451    3.9089    3.6497 H   0  0  0  0  0  0  0  0  0  0  0  0
   -0.6874    4.9560    2.4216 H   0  0  0  0  0  0  0  0  0  0  0  0
   -1.0427    3.6786    3.6084 H   0  0  0  0  0  0  0  0  0  0  0  0
   -0.1836    5.1485    4.1112 H   0  0  0  0  0  0  0  0  0  0  0  0
  1  2  2  0  0  0  0
  1  3  1  0  0  0  0
  1  7  1  0  0  0  0
  3  4  1  0  0  0  0
  3  5  1  0  0  0  0
  3  6  1  0  0  0  0
  7  8  1  0  0  0  0
  7 12  1  0  0  0  0
  8  9  1  0  0  0  0
  8 11  1  0  0  0  0
  8 13  1  0  0  0  0
  9 10  2  0  0  0  0
  9 17  1  0  0  0  0
 11 14  1  0  0  0  0
 11 15  1  0  0  0  0
 11 16  1  0  0  0  0
 17 18  1  0  0  0  0
 17 22  1  0  0  0  0
 18 19  1  0  0  0  0
 18 21  1  0  0  0  0
 18 23  1  0  0  0  0
 19 20  2  0  0  0  0
 19 27  1  0  0  0  0
 21 24  1  0  0  0  0
 21 25  1  0  0  0  0
 21 26  1  0  0  0  0
 27 28  1  0  0  0  0
 27 32  1  0  0  0  0
 28 29  1  0  0  0  0
 28 31  1  0  0  0  0
 28 33  1  0  0  0  0
 29 30  2  0  0  0  0
 29 37  1  0  0  0  0
 31 34  1  0  0  0  0
 31 35  1  0  0  0  0
 31 36  1  0  0  0  0
 37 38  1  0  0  0  0
 37 39  1  0  0  0  0
 38 40  1  0  0  0  0
 38 41  1  0  0  0  0
 38 42  1  0  0  0  0
M  END
$$$$

  -OEChem-05262215353D

 42 41  0     1  0  0  0  0  0999 V2000
   -5.3224   -0.4871    2.1755 C   0  0  0  0  0  0  0  0  0  0  0  0
   -5.7862    0.4715    1.5781 O   0  0  0  0  0  0  0  0  0  0  0  0
   -6.2441   -1.5572    2.7290 C   0  0  0  0  0  0  0  0  0  0  0  0
   -6.1970   -1.5598    3.8205 H   0  0  0  0  0  0  0  0  0  0  0  0
   -7.2750   -1.3628    2.4206 H   0  0  0  0  0  0  0  0  0  0  0  0
   -5.9441   -2.5394    2.3557 H   0  0  0  0  0  0  0  0  0  0  0  0
   -3.9597   -0.6053    2.3459 N   0  0  0  0  0  0  0  0  0  0  0  0
   -2.9642    0.2656    1.7068 C   0  0  2  0  0  0  0  0  0  0  0  0
   -1.6675   -0.5100    1.3798 C   0  0  0  0  0  0  0  0  0  0  0  0
   -1.5434   -1.6664    1.7683 O   0  0  0  0  0  0  0  0  0  0  0  0
   -2.6845    1.4414    2.6463 C   0  0  0  0  0  0  0  0  0  0  0  0
   -3.6136   -1.4918    2.7128 H   0  0  0  0  0  0  0  0  0  0  0  0
   -3.3628    0.6484    0.7609 H   0  0  0  0  0  0  0  0  0  0  0  0
   -2.2062    1.0926    3.5670 H   0  0  0  0  0  0  0  0  0  0  0  0
   -2.0281    2.1682    2.1627 H   0  0  0  0  0  0  0  0  0  0  0  0
   -3.6181    1.9495    2.9078 H   0  0  0  0  0  0  0  0  0  0  0  0
   -0.6744    0.0621    0.6012 N   0  0  0  0  0  0  0  0  0  0  0  0
    0.6439   -0.5641    0.3726 C   0  0  2  0  0  0  0  0  0  0  0  0
    1.7599    0.1240    1.1827 C   0  0  0  0  0  0  0  0  0  0  0  0
    2.2969   -0.4484    2.1200 O   0  0  0  0  0  0  0  0  0  0  0  0
    0.9357   -0.5116   -1.1297 C   0  0  0  0  0  0  0  0  0  0  0  0
   -0.7721    1.0617    0.4362 H   0  0  0  0  0  0  0  0  0  0  0  0
    0.6337   -1.6176    0.6749 H   0  0  0  0  0  0  0  0  0  0  0  0
    0.9394    0.5203   -1.4940 H   0  0  0  0  0  0  0  0  0  0  0  0
    1.9115   -0.9602   -1.3417 H   0  0  0  0  0  0  0  0  0  0  0  0
    0.1728   -1.0714   -1.6798 H   0  0  0  0  0  0  0  0  0  0  0  0
    2.0167    1.4658    0.9685 N   0  0  0  0  0  0  0  0  0  0  0  0
    2.4564    2.3577    2.0478 C   0  0  2  0  0  0  0  0  0  0  0  0
    1.2439    3.1280    2.6097 C   0  0  0  0  0  0  0  0  0  0  0  0
    0.2691    3.3257    1.8885 O   0  0  0  0  0  0  0  0  0  0  0  0
    3.4992    3.3199    1.4764 C   0  0  0  0  0  0  0  0  0  0  0  0
    1.4078    1.9002    0.2800 H   0  0  0  0  0  0  0  0  0  0  0  0
    2.9175    1.7929    2.8648 H   0  0  0  0  0  0  0  0  0  0  0  0
    3.0688    3.9177    0.6666 H   0  0  0  0  0  0  0  0  0  0  0  0
    3.8598    3.9984    2.2556 H   0  0  0  0  0  0  0  0  0  0  0  0
    4.3533    2.7603    1.0815 H   0  0  0  0  0  0  0  0  0  0  0  0
    1.2307    3.5818    3.9149 N   0  0  0  0  0  0  0  0  0  0  0  0
    0.0792    4.2430    4.5174 C   0  0  0  0  0  0  0  0  0  0  0  0
    2.0151    3.3257    4.5085 H   0  0  0  0  0  0  0  0  0  0  0  0
   -0.1609    5.1637    3.9755 H   0  0  0  0  0  0  0  0  0  0  0  0
   -0.7958    3.5846    4.4983 H   0  0  0  0  0  0  0  0  0  0  0  0
    0.2941    4.5026    5.5585 H   0  0  0  0  0  0  0  0  0  0  0  0
  1  2  2  0  0  0  0
  1  3  1  0  0  0  0
  1  7  1  0  0  0  0
  3  4  1  0  0  0  0
  3  5  1  0  0  0  0
  3  6  1  0  0  0  0
  7  8  1  0  0  0  0
  7 12  1  0  0  0  0
  8  9  1  0  0  0  0
  8 11  1  0  0  0  0
  8 13  1  0  0  0  0
  9 10  2  0  0  0  0
  9 17  1  0  0  0  0
 11 14  1  0  0  0  0
 11 15  1  0  0  0  0
 11 16  1  0  0  0  0
 17 18  1  0  0  0  0
 17 22  1  0  0  0  0
 18 19  1  0  0  0  0
 18 21  1  0  0  0  0
 18 23  1  0  0  0  0
 19 20  2  0  0  0  0
 19 27  1  0  0  0  0
 21 24  1  0  0  0  0
 21 25  1  0  0  0  0
 21 26  1  0  0  0  0
 27 28  1  0  0  0  0
 27 32  1  0  0  0  0
 28 29  1  0  0  0  0
 28 31  1  0  0  0  0
 28 33  1  0  0  0  0
 29 30  2  0  0  0  0
 29 37  1  0  0  0  0
 31 34  1  0  0  0  0
 31 35  1  0  0  0  0
 31 36  1  0  0  0  0
 37 38  1  0  0  0  0
 37 39  1  0  0  0  0
 38 40  1  0  0  0  0
 38 41  1  0  0  0  0
 38 42  1  0  0  0  0
M  END
$$$$

  -OEChem-05262215353D

 42 41  0     1  0  0  0  0  0999 V2000
   -5.4721   -1.0663    1.7424 C   0  0  0  0  0  0  0  0  0  0  0  0
   -5.8895   -0.2698    0.9162 O   0  0  0  0  0  0  0  0  0  0  0  0
   -6.3052   -2.2784    2.1145 C   0  0  0  0  0  0  0  0  0  0  0  0
   -6.5977   -2.2201    3.1655 H   0  0  0  0  0  0  0  0  0  0  0  0
   -7.2079   -2.3189    1.4986 H   0  0  0  0  0  0  0  0  0  0  0  0
   -5.7290   -3.1929    1.9537 H   0  0  0  0  0  0  0  0  0  0  0  0
   -4.2405   -0.8784    2.3340 N   0  0  0  0  0  0  0  0  0  0  0  0
   -3.2501    0.1070    1.8775 C   0  0  2  0  0  0  0  0  0  0  0  0
   -1.8935   -0.5586    1.5662 C   0  0  0  0  0  0  0  0  0  0  0  0
   -1.6333   -1.6635    2.0270 O   0  0  0  0  0  0  0  0  0  0  0  0
   -3.0912    1.1616    2.9754 C   0  0  0  0  0  0  0  0  0  0  0  0
   -3.8739   -1.6665    2.8662 H   0  0  0  0  0  0  0  0  0  0  0  0
   -3.5911    0.5996    0.9611 H   0  0  0  0  0  0  0  0  0  0  0  0
   -2.7257    0.7017    3.8991 H   0  0  0  0  0  0  0  0  0  0  0  0
   -2.3801    1.9346    2.6677 H   0  0  0  0  0  0  0  0  0  0  0  0
   -4.0536    1.6408    3.1806 H   0  0  0  0  0  0  0  0  0  0  0  0
   -0.9575    0.1037    0.7926 N   0  0  0  0  0  0  0  0  0  0  0  0
    0.3773   -0.4264    0.4586 C   0  0  2  0  0  0  0  0  0  0  0  0
    1.4915    0.2633    1.2701 C   0  0  0  0  0  0  0  0  0  0  0  0
    2.4055   -0.3855    1.7590 O   0  0  0  0  0  0  0  0  0  0  0  0
    0.6037   -0.2393   -1.0429 C   0  0  0  0  0  0  0  0  0  0  0  0
   -1.2395    1.0025    0.4127 H   0  0  0  0  0  0  0  0  0  0  0  0
    0.4306   -1.4988    0.6796 H   0  0  0  0  0  0  0  0  0  0  0  0
    0.5807    0.8213   -1.3121 H   0  0  0  0  0  0  0  0  0  0  0  0
    1.5769   -0.6501   -1.3306 H   0  0  0  0  0  0  0  0  0  0  0  0
   -0.1723   -0.7619   -1.6108 H   0  0  0  0  0  0  0  0  0  0  0  0
    1.4823    1.6382    1.4096 N   0  0  0  0  0  0  0  0  0  0  0  0
    2.2011    2.3423    2.4777 C   0  0  2  0  0  0  0  0  0  0  0  0
    1.2231    3.2101    3.2980 C   0  0  0  0  0  0  0  0  0  0  0  0
    0.0890    3.4208    2.8751 O   0  0  0  0  0  0  0  0  0  0  0  0
    3.2919    3.2004    1.8340 C   0  0  0  0  0  0  0  0  0  0  0  0
    0.6193    2.0881    1.1135 H   0  0  0  0  0  0  0  0  0  0  0  0
    2.6675    1.6306    3.1673 H   0  0  0  0  0  0  0  0  0  0  0  0
    2.8506    3.9379    1.1558 H   0  0  0  0  0  0  0  0  0  0  0  0
    3.8663    3.7300    2.6000 H   0  0  0  0  0  0  0  0  0  0  0  0
    3.9794    2.5680    1.2631 H   0  0  0  0  0  0  0  0  0  0  0  0
    1.6073    3.7475    4.5120 N   0  0  0  0  0  0  0  0  0  0  0  0
    0.7241    4.5527    5.3468 C   0  0  0  0  0  0  0  0  0  0  0  0
    2.5355    3.5179    4.8559 H   0  0  0  0  0  0  0  0  0  0  0  0
    0.3591    5.4233    4.7912 H   0  0  0  0  0  0  0  0  0  0  0  0
   -0.1352    3.9602    5.6782 H   0  0  0  0  0  0  0  0  0  0  0  0
    1.2609    4.9095    6.2313 H   0  0  0  0  0  0  0  0  0  0  0  0
  1  2  2  0  0  0  0
  1  3  1  0  0  0  0
  1  7  1  0  0  0  0
  3  4  1  0  0  0  0
  3  5  1  0  0  0  0
  3  6  1  0  0  0  0
  7  8  1  0  0  0  0
  7 12  1  0  0  0  0
  8  9  1  0  0  0  0
  8 11  1  0  0  0  0
  8 13  1  0  0  0  0
  9 10  2  0  0  0  0
  9 17  1  0  0  0  0
 11 14  1  0  0  0  0
 11 15  1  0  0  0  0
 11 16  1  0  0  0  0
 17 18  1  0  0  0  0
 17 22  1  0  0  0  0
 18 19  1  0  0  0  0
 18 21  1  0  0  0  0
 18 23  1  0  0  0  0
 19 20  2  0  0  0  0
 19 27  1  0  0  0  0
 21 24  1  0  0  0  0
 21 25  1  0  0  0  0
 21 26  1  0  0  0  0
 27 28  1  0  0  0  0
 27 32  1  0  0  0  0
 28 29  1  0  0  0  0
 28 31  1  0  0  0  0
 28 33  1  0  0  0  0
 29 30  2  0  0  0  0
 29 37  1  0  0  0  0
 31 34  1  0  0  0  0
 31 35  1  0  0  0  0
 31 36  1  0  0  0  0
 37 38  1  0  0  0  0
 37 39  1  0  0  0  0
 38 40  1  0  0  0  0
 38 41  1  0  0  0  0
 38 42  1  0  0  0  0
M  END
$$$$

  -OEChem-05262215353D

 42 41  0     1  0  0  0  0  0999 V2000
   -5.5529   -1.2113    1.6136 C   0  0  0  0  0  0  0  0  0  0  0  0
   -5.9678   -0.3782    0.8234 O   0  0  0  0  0  0  0  0  0  0  0  0
   -6.3684   -2.4582    1.8999 C   0  0  0  0  0  0  0  0  0  0  0  0
   -6.6158   -2.5059    2.9631 H   0  0  0  0  0  0  0  0  0  0  0  0
   -7.2966   -2.4431    1.3220 H   0  0  0  0  0  0  0  0  0  0  0  0
   -5.7974   -3.3486    1.6258 H   0  0  0  0  0  0  0  0  0  0  0  0
   -4.3376   -1.0335    2.2407 N   0  0  0  0  0  0  0  0  0  0  0  0
   -3.3646    0.0057    1.8771 C   0  0  2  0  0  0  0  0  0  0  0  0
   -1.9753   -0.5977    1.5835 C   0  0  0  0  0  0  0  0  0  0  0  0
   -1.6753   -1.6955    2.0367 O   0  0  0  0  0  0  0  0  0  0  0  0
   -3.2813    0.9991    3.0393 C   0  0  0  0  0  0  0  0  0  0  0  0
   -3.9690   -1.8367    2.7478 H   0  0  0  0  0  0  0  0  0  0  0  0
   -3.6892    0.5385    0.9773 H   0  0  0  0  0  0  0  0  0  0  0  0
   -2.9378    0.4969    3.9496 H   0  0  0  0  0  0  0  0  0  0  0  0
   -2.5829    1.8091    2.8063 H   0  0  0  0  0  0  0  0  0  0  0  0
   -4.2654    1.4374    3.2332 H   0  0  0  0  0  0  0  0  0  0  0  0
   -1.0441    0.1213    0.8555 N   0  0  0  0  0  0  0  0  0  0  0  0
    0.3070   -0.3648    0.5166 C   0  0  2  0  0  0  0  0  0  0  0  0
    1.3994    0.3045    1.3730 C   0  0  0  0  0  0  0  0  0  0  0  0
    2.4760   -0.2461    1.5573 O   0  0  0  0  0  0  0  0  0  0  0  0
    0.5528   -0.0980   -0.9700 C   0  0  0  0  0  0  0  0  0  0  0  0
   -1.3692    0.9867    0.4335 H   0  0  0  0  0  0  0  0  0  0  0  0
    0.3807   -1.4450    0.6860 H   0  0  0  0  0  0  0  0  0  0  0  0
    0.5051    0.9740   -1.1859 H   0  0  0  0  0  0  0  0  0  0  0  0
    1.5423   -0.4665   -1.2605 H   0  0  0  0  0  0  0  0  0  0  0  0
   -0.1981   -0.6135   -1.5767 H   0  0  0  0  0  0  0  0  0  0  0  0
    1.2070    1.5904    1.8383 N   0  0  0  0  0  0  0  0  0  0  0  0
    2.0341    2.2144    2.8753 C   0  0  2  0  0  0  0  0  0  0  0  0
    1.1448    2.9304    3.9143 C   0  0  0  0  0  0  0  0  0  0  0  0
   -0.0499    3.1010    3.6846 O   0  0  0  0  0  0  0  0  0  0  0  0
    2.9901    3.1973    2.1958 C   0  0  0  0  0  0  0  0  0  0  0  0
    0.2446    1.9209    1.7992 H   0  0  0  0  0  0  0  0  0  0  0  0
    2.6154    1.4538    3.4079 H   0  0  0  0  0  0  0  0  0  0  0  0
    2.4290    3.9790    1.6738 H   0  0  0  0  0  0  0  0  0  0  0  0
    3.6447    3.6700    2.9339 H   0  0  0  0  0  0  0  0  0  0  0  0
    3.6155    2.6711    1.4673 H   0  0  0  0  0  0  0  0  0  0  0  0
    1.6762    3.3705    5.1120 N   0  0  0  0  0  0  0  0  0  0  0  0
    0.8852    4.0277    6.1454 C   0  0  0  0  0  0  0  0  0  0  0  0
    2.6594    3.1838    5.2882 H   0  0  0  0  0  0  0  0  0  0  0  0
    0.4395    4.9503    5.7584 H   0  0  0  0  0  0  0  0  0  0  0  0
    0.0836    3.3674    6.4931 H   0  0  0  0  0  0  0  0  0  0  0  0
    1.5178    4.2830    7.0008 H   0  0  0  0  0  0  0  0  0  0  0  0
  1  2  2  0  0  0  0
  1  3  1  0  0  0  0
  1  7  1  0  0  0  0
  3  4  1  0  0  0  0
  3  5  1  0  0  0  0
  3  6  1  0  0  0  0
  7  8  1  0  0  0  0
  7 12  1  0  0  0  0
  8  9  1  0  0  0  0
  8 11  1  0  0  0  0
  8 13  1  0  0  0  0
  9 10  2  0  0  0  0
  9 17  1  0  0  0  0
 11 14  1  0  0  0  0
 11 15  1  0  0  0  0
 11 16  1  0  0  0  0
 17 18  1  0  0  0  0
 17 22  1  0  0  0  0
 18 19  1  0  0  0  0
 18 21  1  0  0  0  0
 18 23  1  0  0  0  0
 19 20  2  0  0  0  0
 19 27  1  0  0  0  0
 21 24  1  0  0  0  0
 21 25  1  0  0  0  0
 21 26  1  0  0  0  0
 27 28  1  0  0  0  0
 27 32  1  0  0  0  0
 28 29  1  0  0  0  0
 28 31  1  0  0  0  0
 28 33  1  0  0  0  0
 29 30  2  0  0  0  0
 29 37  1  0  0  0  0
 31 34  1  0  0  0  0
 31 35  1  0  0  0  0
 31 36  1  0  0  0  0
 37 38  1  0  0  0  0
 37 39  1  0  0  0  0
 38 40  1  0  0  0  0
 38 41  1  0  0  0  0
 38 42  1  0  0  0  0
M  END
$$$$

  -OEChem-05262215353D

 42 41  0     1  0  0  0  0  0999 V2000
   -5.5982   -1.2258    1.6071 C   0  0  0  0  0  0  0  0  0  0  0  0
   -6.0263   -0.3476    0.8748 O   0  0  0  0  0  0  0  0  0  0  0  0
   -6.4328   -2.4640    1.8761 C   0  0  0  0  0  0  0  0  0  0  0  0
   -6.5844   -2.5852    2.9514 H   0  0  0  0  0  0  0  0  0  0  0  0
   -7.4088   -2.3731    1.3911 H   0  0  0  0  0  0  0  0  0  0  0  0
   -5.9251   -3.3490    1.4847 H   0  0  0  0  0  0  0  0  0  0  0  0
   -4.3539   -1.1012    2.1881 N   0  0  0  0  0  0  0  0  0  0  0  0
   -3.3850   -0.0486    1.8540 C   0  0  2  0  0  0  0  0  0  0  0  0
   -1.9936   -0.6344    1.5393 C   0  0  0  0  0  0  0  0  0  0  0  0
   -1.6908   -1.7514    1.9410 O   0  0  0  0  0  0  0  0  0  0  0  0
   -3.3022    0.9110    3.0444 C   0  0  0  0  0  0  0  0  0  0  0  0
   -3.9812   -1.9298    2.6494 H   0  0  0  0  0  0  0  0  0  0  0  0
   -3.7139    0.5071    0.9698 H   0  0  0  0  0  0  0  0  0  0  0  0
   -2.9537    0.3846    3.9388 H   0  0  0  0  0  0  0  0  0  0  0  0
   -2.6083    1.7308    2.8345 H   0  0  0  0  0  0  0  0  0  0  0  0
   -4.2876    1.3390    3.2533 H   0  0  0  0  0  0  0  0  0  0  0  0
   -1.0597    0.1236    0.8557 N   0  0  0  0  0  0  0  0  0  0  0  0
    0.2997   -0.3358    0.5123 C   0  0  2  0  0  0  0  0  0  0  0  0
    1.3815    0.3010    1.4089 C   0  0  0  0  0  0  0  0  0  0  0  0
    2.5369   -0.1002    1.3788 O   0  0  0  0  0  0  0  0  0  0  0  0
    0.5507    0.0064   -0.9584 C   0  0  0  0  0  0  0  0  0  0  0  0
   -1.3770    1.0162    0.4868 H   0  0  0  0  0  0  0  0  0  0  0  0
    0.3805   -1.4222    0.6312 H   0  0  0  0  0  0  0  0  0  0  0  0
    0.5043    1.0885   -1.1166 H   0  0  0  0  0  0  0  0  0  0  0  0
    1.5409   -0.3465   -1.2652 H   0  0  0  0  0  0  0  0  0  0  0  0
   -0.1984   -0.4760   -1.5941 H   0  0  0  0  0  0  0  0  0  0  0  0
    1.0691    1.4057    2.1766 N   0  0  0  0  0  0  0  0  0  0  0  0
    1.9344    1.9599    3.2218 C   0  0  2  0  0  0  0  0  0  0  0  0
    1.0911    2.4346    4.4243 C   0  0  0  0  0  0  0  0  0  0  0  0
   -0.1294    2.5241    4.3187 O   0  0  0  0  0  0  0  0  0  0  0  0
    2.7351    3.1189    2.6225 C   0  0  0  0  0  0  0  0  0  0  0  0
    0.0731    1.5861    2.2925 H   0  0  0  0  0  0  0  0  0  0  0  0
    2.6250    1.1909    3.5843 H   0  0  0  0  0  0  0  0  0  0  0  0
    2.0624    3.9041    2.2630 H   0  0  0  0  0  0  0  0  0  0  0  0
    3.4067    3.5502    3.3707 H   0  0  0  0  0  0  0  0  0  0  0  0
    3.3388    2.7646    1.7808 H   0  0  0  0  0  0  0  0  0  0  0  0
    1.6934    2.7457    5.6292 N   0  0  0  0  0  0  0  0  0  0  0  0
    0.9475    3.1590    6.8118 C   0  0  0  0  0  0  0  0  0  0  0  0
    2.7004    2.6269    5.6975 H   0  0  0  0  0  0  0  0  0  0  0  0
    0.3631    4.0608    6.6006 H   0  0  0  0  0  0  0  0  0  0  0  0
    0.2657    2.3638    7.1316 H   0  0  0  0  0  0  0  0  0  0  0  0
    1.6339    3.3783    7.6354 H   0  0  0  0  0  0  0  0  0  0  0  0
  1  2  2  0  0  0  0
  1  3  1  0  0  0  0
  1  7  1  0  0  0  0
  3  4  1  0  0  0  0
  3  5  1  0  0  0  0
  3  6  1  0  0  0  0
  7  8  1  0  0  0  0
  7 12  1  0  0  0  0
  8  9  1  0  0  0  0
  8 11  1  0  0  0  0
  8 13  1  0  0  0  0
  9 10  2  0  0  0  0
  9 17  1  0  0  0  0
 11 14  1  0  0  0  0
 11 15  1  0  0  0  0
 11 16  1  0  0  0  0
 17 18  1  0  0  0  0
 17 22  1  0  0  0  0
 18 19  1  0  0  0  0
 18 21  1  0  0  0  0
 18 23  1  0  0  0  0
 19 20  2  0  0  0  0
 19 27  1  0  0  0  0
 21 24  1  0  0  0  0
 21 25  1  0  0  0  0
 21 26  1  0  0  0  0
 27 28  1  0  0  0  0
 27 32  1  0  0  0  0
 28 29  1  0  0  0  0
 28 31  1  0  0  0  0
 28 33  1  0  0  0  0
 29 30  2  0  0  0  0
 29 37  1  0  0  0  0
 31 34  1  0  0  0  0
 31 35  1  0  0  0  0
 31 36  1  0  0  0  0
 37 38  1  0  0  0  0
 37 39  1  0  0  0  0
 38 40  1  0  0  0  0
 38 41  1  0  0  0  0
 38 42  1  0  0  0  0
M  END
$$$$

  -OEChem-05262215353D

 42 41  0     1  0  0  0  0  0999 V2000
   -5.6191   -1.1931    1.6707 C   0  0  0  0  0  0  0  0  0  0  0  0
   -6.0779   -0.2705    1.0156 O   0  0  0  0  0  0  0  0  0  0  0  0
   -6.4559   -2.4321    1.9283 C   0  0  0  0  0  0  0  0  0  0  0  0
   -6.5626   -2.5923    3.0038 H   0  0  0  0  0  0  0  0  0  0  0  0
   -7.4506   -2.3144    1.4894 H   0  0  0  0  0  0  0  0  0  0  0  0
   -5.9757   -3.3066    1.4828 H   0  0  0  0  0  0  0  0  0  0  0  0
   -4.3369   -1.1183    2.1730 N   0  0  0  0  0  0  0  0  0  0  0  0
   -3.3740   -0.0612    1.8354 C   0  0  2  0  0  0  0  0  0  0  0  0
   -1.9890   -0.6438    1.4849 C   0  0  0  0  0  0  0  0  0  0  0  0
   -1.6944   -1.7822    1.8277 O   0  0  0  0  0  0  0  0  0  0  0  0
   -3.2697    0.8863    3.0349 C   0  0  0  0  0  0  0  0  0  0  0  0
   -3.9509   -1.9726    2.5728 H   0  0  0  0  0  0  0  0  0  0  0  0
   -3.7201    0.5031    0.9633 H   0  0  0  0  0  0  0  0  0  0  0  0
   -2.8988    0.3529    3.9166 H   0  0  0  0  0  0  0  0  0  0  0  0
   -2.5857    1.7125    2.8179 H   0  0  0  0  0  0  0  0  0  0  0  0
   -4.2524    1.3072    3.2704 H   0  0  0  0  0  0  0  0  0  0  0  0
   -1.0469    0.1379    0.8400 N   0  0  0  0  0  0  0  0  0  0  0  0
    0.3137   -0.3106    0.4860 C   0  0  2  0  0  0  0  0  0  0  0  0
    1.3907    0.2865    1.4176 C   0  0  0  0  0  0  0  0  0  0  0  0
    2.5802    0.0706    1.2285 O   0  0  0  0  0  0  0  0  0  0  0  0
    0.5638    0.0853   -0.9723 C   0  0  0  0  0  0  0  0  0  0  0  0
   -1.3434    1.0631    0.5407 H   0  0  0  0  0  0  0  0  0  0  0  0
    0.3927   -1.4005    0.5631 H   0  0  0  0  0  0  0  0  0  0  0  0
    0.5349    1.1731   -1.0880 H   0  0  0  0  0  0  0  0  0  0  0  0
    1.5459   -0.2714   -1.2999 H   0  0  0  0  0  0  0  0  0  0  0  0
   -0.1961   -0.3586   -1.6228 H   0  0  0  0  0  0  0  0  0  0  0  0
    1.0145    1.1356    2.4396 N   0  0  0  0  0  0  0  0  0  0  0  0
    1.9035    1.6122    3.5027 C   0  0  2  0  0  0  0  0  0  0  0  0
    1.1166    1.8113    4.8159 C   0  0  0  0  0  0  0  0  0  0  0  0
   -0.1114    1.8074    4.8011 O   0  0  0  0  0  0  0  0  0  0  0  0
    2.5472    2.9258    3.0488 C   0  0  0  0  0  0  0  0  0  0  0  0
    0.0182    1.1511    2.6545 H   0  0  0  0  0  0  0  0  0  0  0  0
    2.6864    0.8699    3.6923 H   0  0  0  0  0  0  0  0  0  0  0  0
    1.7790    3.6825    2.8602 H   0  0  0  0  0  0  0  0  0  0  0  0
    3.2303    3.3049    3.8147 H   0  0  0  0  0  0  0  0  0  0  0  0
    3.1164    2.7697    2.1267 H   0  0  0  0  0  0  0  0  0  0  0  0
    1.7808    1.9796    6.0167 N   0  0  0  0  0  0  0  0  0  0  0  0
    1.0957    2.1291    7.2949 C   0  0  0  0  0  0  0  0  0  0  0  0
    2.7958    1.9361    6.0037 H   0  0  0  0  0  0  0  0  0  0  0  0
    0.4165    2.9878    7.2682 H   0  0  0  0  0  0  0  0  0  0  0  0
    0.5168    1.2288    7.5267 H   0  0  0  0  0  0  0  0  0  0  0  0
    1.8221    2.2900    8.0972 H   0  0  0  0  0  0  0  0  0  0  0  0
  1  2  2  0  0  0  0
  1  3  1  0  0  0  0
  1  7  1  0  0  0  0
  3  4  1  0  0  0  0
  3  5  1  0  0  0  0
  3  6  1  0  0  0  0
  7  8  1  0  0  0  0
  7 12  1  0  0  0  0
  8  9  1  0  0  0  0
  8 11  1  0  0  0  0
  8 13  1  0  0  0  0
  9 10  2  0  0  0  0
  9 17  1  0  0  0  0
 11 14  1  0  0  0  0
 11 15  1  0  0  0  0
 11 16  1  0  0  0  0
 17 18  1  0  0  0  0
 17 22  1  0  0  0  0
 18 19  1  0  0  0  0
 18 21  1  0  0  0  0
 18 23  1  0  0  0  0
 19 20  2  0  0  0  0
 19 27  1  0  0  0  0
 21 24  1  0  0  0  0
 21 25  1  0  0  0  0
 21 26  1  0  0  0  0
 27 28  1  0  0  0  0
 27 32  1  0  0  0  0
 28 29  1  0  0  0  0
 28 31  1  0  0  0  0
 28 33  1  0  0  0  0
 29 30  2  0  0  0  0
 29 37  1  0  0  0  0
 31 34  1  0  0  0  0
 31 35  1  0  0  0  0
 31 36  1  0  0  0  0
 37 38  1  0  0  0  0
 37 39  1  0  0  0  0
 38 40  1  0  0  0  0
 38 41  1  0  0  0  0
 38 42  1  0  0  0  0
M  END
$$$$

  -OEChem-05262215353D

 42 41  0     1  0  0  0  0  0999 V2000
   -5.6131   -1.1485    1.7042 C   0  0  0  0  0  0  0  0  0  0  0  0
   -6.0686   -0.1791    1.1182 O   0  0  0  0  0  0  0  0  0  0  0  0
   -6.4617   -2.3921    1.8897 C   0  0  0  0  0  0  0  0  0  0  0  0
   -6.5989   -2.5939    2.9547 H   0  0  0  0  0  0  0  0  0  0  0  0
   -7.4431   -2.2515    1.4281 H   0  0  0  0  0  0  0  0  0  0  0  0
   -5.9726   -3.2507    1.4229 H   0  0  0  0  0  0  0  0  0  0  0  0
   -4.3219   -1.1254    2.1874 N   0  0  0  0  0  0  0  0  0  0  0  0
   -3.3462   -0.0688    1.8896 C   0  0  2  0  0  0  0  0  0  0  0  0
   -1.9859   -0.6558    1.4615 C   0  0  0  0  0  0  0  0  0  0  0  0
   -1.7017   -1.8165    1.7309 O   0  0  0  0  0  0  0  0  0  0  0  0
   -3.1837    0.7938    3.1450 C   0  0  0  0  0  0  0  0  0  0  0  0
   -3.9440   -2.0090    2.5264 H   0  0  0  0  0  0  0  0  0  0  0  0
   -3.7041    0.5592    1.0671 H   0  0  0  0  0  0  0  0  0  0  0  0
   -2.7970    0.1949    3.9765 H   0  0  0  0  0  0  0  0  0  0  0  0
   -2.4887    1.6189    2.9611 H   0  0  0  0  0  0  0  0  0  0  0  0
   -4.1494    1.2165    3.4402 H   0  0  0  0  0  0  0  0  0  0  0  0
   -1.0424    0.1490    0.8487 N   0  0  0  0  0  0  0  0  0  0  0  0
    0.3103   -0.2927    0.4607 C   0  0  2  0  0  0  0  0  0  0  0  0
    1.3954    0.2515    1.4169 C   0  0  0  0  0  0  0  0  0  0  0  0
    2.5784    0.2549    1.1029 O   0  0  0  0  0  0  0  0  0  0  0  0
    0.5418    0.1672   -0.9830 C   0  0  0  0  0  0  0  0  0  0  0  0
   -1.3153    1.1067    0.6439 H   0  0  0  0  0  0  0  0  0  0  0  0
    0.3822   -1.3854    0.4848 H   0  0  0  0  0  0  0  0  0  0  0  0
    0.5357    1.2598   -1.0469 H   0  0  0  0  0  0  0  0  0  0  0  0
    1.5086   -0.1953   -1.3470 H   0  0  0  0  0  0  0  0  0  0  0  0
   -0.2405   -0.2281   -1.6385 H   0  0  0  0  0  0  0  0  0  0  0  0
    1.0232    0.7794    2.6377 N   0  0  0  0  0  0  0  0  0  0  0  0
    1.9445    1.2153    3.6911 C   0  0  2  0  0  0  0  0  0  0  0  0
    1.2645    1.1502    5.0751 C   0  0  0  0  0  0  0  0  0  0  0  0
    0.0430    1.0577    5.1564 O   0  0  0  0  0  0  0  0  0  0  0  0
    2.4020    2.6465    3.3913 C   0  0  0  0  0  0  0  0  0  0  0  0
    0.0553    0.6241    2.9182 H   0  0  0  0  0  0  0  0  0  0  0  0
    2.8146    0.5504    3.7127 H   0  0  0  0  0  0  0  0  0  0  0  0
    1.5437    3.3257    3.3721 H   0  0  0  0  0  0  0  0  0  0  0  0
    3.1042    2.9933    4.1551 H   0  0  0  0  0  0  0  0  0  0  0  0
    2.9029    2.6905    2.4193 H   0  0  0  0  0  0  0  0  0  0  0  0
    2.0223    1.1933    6.2307 N   0  0  0  0  0  0  0  0  0  0  0  0
    1.4494    1.1185    7.5694 C   0  0  0  0  0  0  0  0  0  0  0  0
    3.0320    1.2450    6.1292 H   0  0  0  0  0  0  0  0  0  0  0  0
    0.7524    1.9467    7.7356 H   0  0  0  0  0  0  0  0  0  0  0  0
    0.9132    0.1734    7.7060 H   0  0  0  0  0  0  0  0  0  0  0  0
    2.2409    1.1780    8.3226 H   0  0  0  0  0  0  0  0  0  0  0  0
  1  2  2  0  0  0  0
  1  3  1  0  0  0  0
  1  7  1  0  0  0  0
  3  4  1  0  0  0  0
  3  5  1  0  0  0  0
  3  6  1  0  0  0  0
  7  8  1  0  0  0  0
  7 12  1  0  0  0  0
  8  9  1  0  0  0  0
  8 11  1  0  0  0  0
  8 13  1  0  0  0  0
  9 10  2  0  0  0  0
  9 17  1  0  0  0  0
 11 14  1  0  0  0  0
 11 15  1  0  0  0  0
 11 16  1  0  0  0  0
 17 18  1  0  0  0  0
 17 22  1  0  0  0  0
 18 19  1  0  0  0  0
 18 21  1  0  0  0  0
 18 23  1  0  0  0  0
 19 20  2  0  0  0  0
 19 27  1  0  0  0  0
 21 24  1  0  0  0  0
 21 25  1  0  0  0  0
 21 26  1  0  0  0  0
 27 28  1  0  0  0  0
 27 32  1  0  0  0  0
 28 29  1  0  0  0  0
 28 31  1  0  0  0  0
 28 33  1  0  0  0  0
 29 30  2  0  0  0  0
 29 37  1  0  0  0  0
 31 34  1  0  0  0  0
 31 35  1  0  0  0  0
 31 36  1  0  0  0  0
 37 38  1  0  0  0  0
 37 39  1  0  0  0  0
 38 40  1  0  0  0  0
 38 41  1  0  0  0  0
 38 42  1  0  0  0  0
M  END
$$$$

  -OEChem-05262215353D

 42 41  0     1  0  0  0  0  0999 V2000
   -5.5743   -1.0987    1.7159 C   0  0  0  0  0  0  0  0  0  0  0  0
   -6.0006   -0.1110    1.1383 O   0  0  0  0  0  0  0  0  0  0  0  0
   -6.4446   -2.3341    1.8502 C   0  0  0  0  0  0  0  0  0  0  0  0
   -6.6059   -2.5636    2.9064 H   0  0  0  0  0  0  0  0  0  0  0  0
   -7.4145   -2.1660    1.3736 H   0  0  0  0  0  0  0  0  0  0  0  0
   -5.9587   -3.1865    1.3690 H   0  0  0  0  0  0  0  0  0  0  0  0
   -4.2979   -1.1031    2.2377 N   0  0  0  0  0  0  0  0  0  0  0  0
   -3.2986   -0.0559    1.9863 C   0  0  2  0  0  0  0  0  0  0  0  0
   -1.9640   -0.6512    1.4942 C   0  0  0  0  0  0  0  0  0  0  0  0
   -1.6871   -1.8214    1.7273 O   0  0  0  0  0  0  0  0  0  0  0  0
   -3.0892    0.7175    3.2912 C   0  0  0  0  0  0  0  0  0  0  0  0
   -3.9410   -2.0018    2.5596 H   0  0  0  0  0  0  0  0  0  0  0  0
   -3.6531    0.6353    1.2144 H   0  0  0  0  0  0  0  0  0  0  0  0
   -2.7110    0.0539    4.0763 H   0  0  0  0  0  0  0  0  0  0  0  0
   -2.3696    1.5290    3.1475 H   0  0  0  0  0  0  0  0  0  0  0  0
   -4.0357    1.1517    3.6281 H   0  0  0  0  0  0  0  0  0  0  0  0
   -1.0244    0.1546    0.8774 N   0  0  0  0  0  0  0  0  0  0  0  0
    0.3111   -0.2966    0.4454 C   0  0  2  0  0  0  0  0  0  0  0  0
    1.4164    0.2165    1.3962 C   0  0  0  0  0  0  0  0  0  0  0  0
    2.5456    0.4701    0.9969 O   0  0  0  0  0  0  0  0  0  0  0  0
    0.5132    0.1831   -0.9973 C   0  0  0  0  0  0  0  0  0  0  0  0
   -1.2762    1.1284    0.7292 H   0  0  0  0  0  0  0  0  0  0  0  0
    0.3703   -1.3902    0.4477 H   0  0  0  0  0  0  0  0  0  0  0  0
    0.5168    1.2767   -1.0440 H   0  0  0  0  0  0  0  0  0  0  0  0
    1.4677   -0.1827   -1.3898 H   0  0  0  0  0  0  0  0  0  0  0  0
   -0.2881   -0.1942   -1.6400 H   0  0  0  0  0  0  0  0  0  0  0  0
    1.1141    0.4226    2.7279 N   0  0  0  0  0  0  0  0  0  0  0  0
    2.0622    0.8441    3.7638 C   0  0  2  0  0  0  0  0  0  0  0  0
    1.5409    0.4724    5.1681 C   0  0  0  0  0  0  0  0  0  0  0  0
    0.3537    0.2087    5.3320 O   0  0  0  0  0  0  0  0  0  0  0  0
    2.2693    2.3600    3.6643 C   0  0  0  0  0  0  0  0  0  0  0  0
    0.2074    0.0799    3.0474 H   0  0  0  0  0  0  0  0  0  0  0  0
    3.0187    0.3330    3.6114 H   0  0  0  0  0  0  0  0  0  0  0  0
    1.3195    2.8848    3.8086 H   0  0  0  0  0  0  0  0  0  0  0  0
    2.9760    2.7024    4.4260 H   0  0  0  0  0  0  0  0  0  0  0  0
    2.6691    2.6284    2.6814 H   0  0  0  0  0  0  0  0  0  0  0  0
    2.3990    0.4383    6.2520 N   0  0  0  0  0  0  0  0  0  0  0  0
    1.9713    0.0804    7.5994 C   0  0  0  0  0  0  0  0  0  0  0  0
    3.3815    0.6339    6.0825 H   0  0  0  0  0  0  0  0  0  0  0  0
    1.1730    0.7489    7.9390 H   0  0  0  0  0  0  0  0  0  0  0  0
    1.6014   -0.9501    7.6232 H   0  0  0  0  0  0  0  0  0  0  0  0
    2.8098    0.1634    8.2978 H   0  0  0  0  0  0  0  0  0  0  0  0
  1  2  2  0  0  0  0
  1  3  1  0  0  0  0
  1  7  1  0  0  0  0
  3  4  1  0  0  0  0
  3  5  1  0  0  0  0
  3  6  1  0  0  0  0
  7  8  1  0  0  0  0
  7 12  1  0  0  0  0
  8  9  1  0  0  0  0
  8 11  1  0  0  0  0
  8 13  1  0  0  0  0
  9 10  2  0  0  0  0
  9 17  1  0  0  0  0
 11 14  1  0  0  0  0
 11 15  1  0  0  0  0
 11 16  1  0  0  0  0
 17 18  1  0  0  0  0
 17 22  1  0  0  0  0
 18 19  1  0  0  0  0
 18 21  1  0  0  0  0
 18 23  1  0  0  0  0
 19 20  2  0  0  0  0
 19 27  1  0  0  0  0
 21 24  1  0  0  0  0
 21 25  1  0  0  0  0
 21 26  1  0  0  0  0
 27 28  1  0  0  0  0
 27 32  1  0  0  0  0
 28 29  1  0  0  0  0
 28 31  1  0  0  0  0
 28 33  1  0  0  0  0
 29 30  2  0  0  0  0
 29 37  1  0  0  0  0
 31 34  1  0  0  0  0
 31 35  1  0  0  0  0
 31 36  1  0  0  0  0
 37 38  1  0  0  0  0
 37 39  1  0  0  0  0
 38 40  1  0  0  0  0
 38 41  1  0  0  0  0
 38 42  1  0  0  0  0
M  END
$$$$

  -OEChem-05262215353D

 42 41  0     1  0  0  0  0  0999 V2000
   -5.5778   -1.0855    1.7607 C   0  0  0  0  0  0  0  0  0  0  0  0
   -6.0260   -0.0807    1.2314 O   0  0  0  0  0  0  0  0  0  0  0  0
   -6.4471   -2.3206    1.9055 C   0  0  0  0  0  0  0  0  0  0  0  0
   -6.5852   -2.5586    2.9631 H   0  0  0  0  0  0  0  0  0  0  0  0
   -7.4270   -2.1469    1.4518 H   0  0  0  0  0  0  0  0  0  0  0  0
   -5.9741   -3.1702    1.4068 H   0  0  0  0  0  0  0  0  0  0  0  0
   -4.2762   -1.1069    2.2152 N   0  0  0  0  0  0  0  0  0  0  0  0
   -3.2914   -0.0485    1.9572 C   0  0  2  0  0  0  0  0  0  0  0  0
   -1.9318   -0.6319    1.5231 C   0  0  0  0  0  0  0  0  0  0  0  0
   -1.6440   -1.7923    1.7903 O   0  0  0  0  0  0  0  0  0  0  0  0
   -3.1347    0.7730    3.2393 C   0  0  0  0  0  0  0  0  0  0  0  0
   -3.9080   -2.0078    2.5180 H   0  0  0  0  0  0  0  0  0  0  0  0
   -3.6394    0.6055    1.1508 H   0  0  0  0  0  0  0  0  0  0  0  0
   -2.7678    0.1427    4.0562 H   0  0  0  0  0  0  0  0  0  0  0  0
   -2.4261    1.5926    3.0876 H   0  0  0  0  0  0  0  0  0  0  0  0
   -4.0983    1.2000    3.5344 H   0  0  0  0  0  0  0  0  0  0  0  0
   -0.9901    0.1668    0.9018 N   0  0  0  0  0  0  0  0  0  0  0  0
    0.3339   -0.2990    0.4565 C   0  0  2  0  0  0  0  0  0  0  0  0
    1.4476    0.1992    1.4040 C   0  0  0  0  0  0  0  0  0  0  0  0
    2.4829    0.6987    0.9811 O   0  0  0  0  0  0  0  0  0  0  0  0
    0.5216    0.1773   -0.9889 C   0  0  0  0  0  0  0  0  0  0  0  0
   -1.2485    1.1328    0.7188 H   0  0  0  0  0  0  0  0  0  0  0  0
    0.3814   -1.3932    0.4556 H   0  0  0  0  0  0  0  0  0  0  0  0
    0.5190    1.2708   -1.0385 H   0  0  0  0  0  0  0  0  0  0  0  0
    1.4746   -0.1850   -1.3875 H   0  0  0  0  0  0  0  0  0  0  0  0
   -0.2836   -0.2056   -1.6232 H   0  0  0  0  0  0  0  0  0  0  0  0
    1.2570    0.1069    2.7691 N   0  0  0  0  0  0  0  0  0  0  0  0
    2.2376    0.5014    3.7872 C   0  0  2  0  0  0  0  0  0  0  0  0
    1.9694   -0.1975    5.1365 C   0  0  0  0  0  0  0  0  0  0  0  0
    0.8679   -0.6816    5.3725 O   0  0  0  0  0  0  0  0  0  0  0  0
    2.1809    2.0227    3.9670 C   0  0  0  0  0  0  0  0  0  0  0  0
    0.4335   -0.4078    3.0872 H   0  0  0  0  0  0  0  0  0  0  0  0
    3.2396    0.2110    3.4543 H   0  0  0  0  0  0  0  0  0  0  0  0
    1.1850    2.3306    4.3012 H   0  0  0  0  0  0  0  0  0  0  0  0
    2.9145    2.3489    4.7100 H   0  0  0  0  0  0  0  0  0  0  0  0
    2.4028    2.5287    3.0225 H   0  0  0  0  0  0  0  0  0  0  0  0
    2.9617   -0.2694    6.0971 N   0  0  0  0  0  0  0  0  0  0  0  0
    2.7731   -0.9022    7.3970 C   0  0  0  0  0  0  0  0  0  0  0  0
    3.8686    0.1278    5.8692 H   0  0  0  0  0  0  0  0  0  0  0  0
    1.9443   -0.4308    7.9358 H   0  0  0  0  0  0  0  0  0  0  0  0
    2.5545   -1.9685    7.2765 H   0  0  0  0  0  0  0  0  0  0  0  0
    3.6791   -0.8008    8.0024 H   0  0  0  0  0  0  0  0  0  0  0  0
  1  2  2  0  0  0  0
  1  3  1  0  0  0  0
  1  7  1  0  0  0  0
  3  4  1  0  0  0  0
  3  5  1  0  0  0  0
  3  6  1  0  0  0  0
  7  8  1  0  0  0  0
  7 12  1  0  0  0  0
  8  9  1  0  0  0  0
  8 11  1  0  0  0  0
  8 13  1  0  0  0  0
  9 10  2  0  0  0  0
  9 17  1  0  0  0  0
 11 14  1  0  0  0  0
 11 15  1  0  0  0  0
 11 16  1  0  0  0  0
 17 18  1  0  0  0  0
 17 22  1  0  0  0  0
 18 19  1  0  0  0  0
 18 21  1  0  0  0  0
 18 23  1  0  0  0  0
 19 20  2  0  0  0  0
 19 27  1  0  0  0  0
 21 24  1  0  0  0  0
 21 25  1  0  0  0  0
 21 26  1  0  0  0  0
 27 28  1  0  0  0  0
 27 32  1  0  0  0  0
 28 29  1  0  0  0  0
 28 31  1  0  0  0  0
 28 33  1  0  0  0  0
 29 30  2  0  0  0  0
 29 37  1  0  0  0  0
 31 34  1  0  0  0  0
 31 35  1  0  0  0  0
 31 36  1  0  0  0  0
 37 38  1  0  0  0  0
 37 39  1  0  0  0  0
 38 40  1  0  0  0  0
 38 41  1  0  0  0  0
 38 42  1  0  0  0  0
M  END
$$$$

  -OEChem-05262215353D

 42 41  0     1  0  0  0  0  0999 V2000
   -5.5642   -1.0067    1.7244 C   0  0  0  0  0  0  0  0  0  0  0  0
   -5.9732   -0.0015    1.1650 O   0  0  0  0  0  0  0  0  0  0  0  0
   -6.4603   -2.2236    1.8537 C   0  0  0  0  0  0  0  0  0  0  0  0
   -6.5661   -2.4993    2.9057 H   0  0  0  0  0  0  0  0  0  0  0  0
   -7.4511   -2.0074    1.4447 H   0  0  0  0  0  0  0  0  0  0  0  0
   -6.0283   -3.0644    1.3057 H   0  0  0  0  0  0  0  0  0  0  0  0
   -4.2815   -1.0480    2.2287 N   0  0  0  0  0  0  0  0  0  0  0  0
   -3.2633   -0.0172    1.9880 C   0  0  2  0  0  0  0  0  0  0  0  0
   -1.9158   -0.6401    1.5705 C   0  0  0  0  0  0  0  0  0  0  0  0
   -1.6483   -1.7959    1.8776 O   0  0  0  0  0  0  0  0  0  0  0  0
   -3.1004    0.7965    3.2749 C   0  0  0  0  0  0  0  0  0  0  0  0
   -3.9435   -1.9547    2.5487 H   0  0  0  0  0  0  0  0  0  0  0  0
   -3.5800    0.6501    1.1794 H   0  0  0  0  0  0  0  0  0  0  0  0
   -2.7711    0.1522    4.0970 H   0  0  0  0  0  0  0  0  0  0  0  0
   -2.3601    1.5907    3.1374 H   0  0  0  0  0  0  0  0  0  0  0  0
   -4.0535    1.2573    3.5534 H   0  0  0  0  0  0  0  0  0  0  0  0
   -0.9637    0.1186    0.9163 N   0  0  0  0  0  0  0  0  0  0  0  0
    0.3510   -0.3837    0.4871 C   0  0  2  0  0  0  0  0  0  0  0  0
    1.4631    0.1421    1.4200 C   0  0  0  0  0  0  0  0  0  0  0  0
    2.3571    0.8753    1.0149 O   0  0  0  0  0  0  0  0  0  0  0  0
    0.5496    0.0297   -0.9766 C   0  0  0  0  0  0  0  0  0  0  0  0
   -1.2017    1.0845    0.7071 H   0  0  0  0  0  0  0  0  0  0  0  0
    0.3850   -1.4775    0.5289 H   0  0  0  0  0  0  0  0  0  0  0  0
    0.5372    1.1197   -1.0768 H   0  0  0  0  0  0  0  0  0  0  0  0
    1.5108   -0.3404   -1.3476 H   0  0  0  0  0  0  0  0  0  0  0  0
   -0.2451   -0.3893   -1.6014 H   0  0  0  0  0  0  0  0  0  0  0  0
    1.4108   -0.1716    2.7642 N   0  0  0  0  0  0  0  0  0  0  0  0
    2.3906    0.2635    3.7675 C   0  0  2  0  0  0  0  0  0  0  0  0
    2.5019   -0.7344    4.9390 C   0  0  0  0  0  0  0  0  0  0  0  0
    1.6017   -1.5374    5.1546 O   0  0  0  0  0  0  0  0  0  0  0  0
    1.9698    1.6440    4.2820 C   0  0  0  0  0  0  0  0  0  0  0  0
    0.7019   -0.8471    3.0584 H   0  0  0  0  0  0  0  0  0  0  0  0
    3.3805    0.3358    3.3045 H   0  0  0  0  0  0  0  0  0  0  0  0
    0.9772    1.5933    4.7412 H   0  0  0  0  0  0  0  0  0  0  0  0
    2.6813    2.0102    5.0282 H   0  0  0  0  0  0  0  0  0  0  0  0
    1.9365    2.3627    3.4569 H   0  0  0  0  0  0  0  0  0  0  0  0
    3.6182   -0.7327    5.7556 N   0  0  0  0  0  0  0  0  0  0  0  0
    3.8153   -1.6853    6.8417 C   0  0  0  0  0  0  0  0  0  0  0  0
    4.3648   -0.0817    5.5303 H   0  0  0  0  0  0  0  0  0  0  0  0
    2.9980   -1.6158    7.5673 H   0  0  0  0  0  0  0  0  0  0  0  0
    3.8537   -2.7078    6.4513 H   0  0  0  0  0  0  0  0  0  0  0  0
    4.7558   -1.4779    7.3609 H   0  0  0  0  0  0  0  0  0  0  0  0
  1  2  2  0  0  0  0
  1  3  1  0  0  0  0
  1  7  1  0  0  0  0
  3  4  1  0  0  0  0
  3  5  1  0  0  0  0
  3  6  1  0  0  0  0
  7  8  1  0  0  0  0
  7 12  1  0  0  0  0
  8  9  1  0  0  0  0
  8 11  1  0  0  0  0
  8 13  1  0  0  0  0
  9 10  2  0  0  0  0
  9 17  1  0  0  0  0
 11 14  1  0  0  0  0
 11 15  1  0  0  0  0
 11 16  1  0  0  0  0
 17 18  1  0  0  0  0
 17 22  1  0  0  0  0
 18 19  1  0  0  0  0
 18 21  1  0  0  0  0
 18 23  1  0  0  0  0
 19 20  2  0  0  0  0
 19 27  1  0  0  0  0
 21 24  1  0  0  0  0
 21 25  1  0  0  0  0
 21 26  1  0  0  0  0
 27 28  1  0  0  0  0
 27 32  1  0  0  0  0
 28 29  1  0  0  0  0
 28 31  1  0  0  0  0
 28 33  1  0  0  0  0
 29 30  2  0  0  0  0
 29 37  1  0  0  0  0
 31 34  1  0  0  0  0
 31 35  1  0  0  0  0
 31 36  1  0  0  0  0
 37 38  1  0  0  0  0
 37 39  1  0  0  0  0
 38 40  1  0  0  0  0
 38 41  1  0  0  0  0
 38 42  1  0  0  0  0
M  END
$$$$

  -OEChem-05262215353D

 42 41  0     1  0  0  0  0  0999 V2000
   -5.5621   -0.9770    1.7411 C   0  0  0  0  0  0  0  0  0  0  0  0
   -5.9633    0.0446    1.2063 O   0  0  0  0  0  0  0  0  0  0  0  0
   -6.4762   -2.1818    1.8630 C   0  0  0  0  0  0  0  0  0  0  0  0
   -6.6014   -2.4507    2.9148 H   0  0  0  0  0  0  0  0  0  0  0  0
   -7.4582   -1.9562    1.4377 H   0  0  0  0  0  0  0  0  0  0  0  0
   -6.0465   -3.0306    1.3256 H   0  0  0  0  0  0  0  0  0  0  0  0
   -4.2730   -1.0457    2.2263 N   0  0  0  0  0  0  0  0  0  0  0  0
   -3.2458   -0.0208    1.9965 C   0  0  2  0  0  0  0  0  0  0  0  0
   -1.8999   -0.6507    1.5840 C   0  0  0  0  0  0  0  0  0  0  0  0
   -1.6398   -1.8078    1.8938 O   0  0  0  0  0  0  0  0  0  0  0  0
   -3.0865    0.7869    3.2871 C   0  0  0  0  0  0  0  0  0  0  0  0
   -3.9432   -1.9615    2.5288 H   0  0  0  0  0  0  0  0  0  0  0  0
   -3.5527    0.6515    1.1881 H   0  0  0  0  0  0  0  0  0  0  0  0
   -2.7723    0.1363    4.1099 H   0  0  0  0  0  0  0  0  0  0  0  0
   -2.3363    1.5730    3.1588 H   0  0  0  0  0  0  0  0  0  0  0  0
   -4.0371    1.2574    3.5580 H   0  0  0  0  0  0  0  0  0  0  0  0
   -0.9506    0.0967    0.9130 N   0  0  0  0  0  0  0  0  0  0  0  0
    0.3630   -0.4123    0.4936 C   0  0  2  0  0  0  0  0  0  0  0  0
    1.4714    0.1362    1.4151 C   0  0  0  0  0  0  0  0  0  0  0  0
    2.1953    1.0630    1.0709 O   0  0  0  0  0  0  0  0  0  0  0  0
    0.5636   -0.0248   -0.9764 C   0  0  0  0  0  0  0  0  0  0  0  0
   -1.1745    1.0685    0.7151 H   0  0  0  0  0  0  0  0  0  0  0  0
    0.4003   -1.5051    0.5541 H   0  0  0  0  0  0  0  0  0  0  0  0
    0.5288    1.0623   -1.1005 H   0  0  0  0  0  0  0  0  0  0  0  0
    1.5350   -0.3822   -1.3321 H   0  0  0  0  0  0  0  0  0  0  0  0
   -0.2184   -0.4725   -1.5971 H   0  0  0  0  0  0  0  0  0  0  0  0
    1.6072   -0.3881    2.6853 N   0  0  0  0  0  0  0  0  0  0  0  0
    2.6236    0.0279    3.6596 C   0  0  2  0  0  0  0  0  0  0  0  0
    3.0664   -1.1364    4.5698 C   0  0  0  0  0  0  0  0  0  0  0  0
    2.3602   -2.1304    4.6906 O   0  0  0  0  0  0  0  0  0  0  0  0
    2.0398    1.1711    4.4954 C   0  0  0  0  0  0  0  0  0  0  0  0
    1.0195   -1.1883    2.9284 H   0  0  0  0  0  0  0  0  0  0  0  0
    3.5146    0.3841    3.1319 H   0  0  0  0  0  0  0  0  0  0  0  0
    1.1452    0.8352    5.0298 H   0  0  0  0  0  0  0  0  0  0  0  0
    2.7717    1.5246    5.2278 H   0  0  0  0  0  0  0  0  0  0  0  0
    1.7650    2.0114    3.8497 H   0  0  0  0  0  0  0  0  0  0  0  0
    4.2650   -1.0703    5.2568 N   0  0  0  0  0  0  0  0  0  0  0  0
    4.7595   -2.1468    6.1069 C   0  0  0  0  0  0  0  0  0  0  0  0
    4.8433   -0.2469    5.1175 H   0  0  0  0  0  0  0  0  0  0  0  0
    4.0622   -2.3361    6.9298 H   0  0  0  0  0  0  0  0  0  0  0  0
    4.8795   -3.0684    5.5277 H   0  0  0  0  0  0  0  0  0  0  0  0
    5.7310   -1.8781    6.5326 H   0  0  0  0  0  0  0  0  0  0  0  0
  1  2  2  0  0  0  0
  1  3  1  0  0  0  0
  1  7  1  0  0  0  0
  3  4  1  0  0  0  0
  3  5  1  0  0  0  0
  3  6  1  0  0  0  0
  7  8  1  0  0  0  0
  7 12  1  0  0  0  0
  8  9  1  0  0  0  0
  8 11  1  0  0  0  0
  8 13  1  0  0  0  0
  9 10  2  0  0  0  0
  9 17  1  0  0  0  0
 11 14  1  0  0  0  0
 11 15  1  0  0  0  0
 11 16  1  0  0  0  0
 17 18  1  0  0  0  0
 17 22  1  0  0  0  0
 18 19  1  0  0  0  0
 18 21  1  0  0  0  0
 18 23  1  0  0  0  0
 19 20  2  0  0  0  0
 19 27  1  0  0  0  0
 21 24  1  0  0  0  0
 21 25  1  0  0  0  0
 21 26  1  0  0  0  0
 27 28  1  0  0  0  0
 27 32  1  0  0  0  0
 28 29  1  0  0  0  0
 28 31  1  0  0  0  0
 28 33  1  0  0  0  0
 29 30  2  0  0  0  0
 29 37  1  0  0  0  0
 31 34  1  0  0  0  0
 31 35  1  0  0  0  0
 31 36  1  0  0  0  0
 37 38  1  0  0  0  0
 37 39  1  0  0  0  0
 38 40  1  0  0  0  0
 38 41  1  0  0  0  0
 38 42  1  0  0  0  0
M  END
$$$$

  -OEChem-05262215353D

 42 41  0     1  0  0  0  0  0999 V2000
   -5.5769   -1.0429    1.9419 C   0  0  0  0  0  0  0  0  0  0  0  0
   -6.0577    0.0076    1.5468 O   0  0  0  0  0  0  0  0  0  0  0  0
   -6.4719   -2.2390    2.2056 C   0  0  0  0  0  0  0  0  0  0  0  0
   -6.4397   -2.5004    3.2660 H   0  0  0  0  0  0  0  0  0  0  0  0
   -7.5045   -2.0060    1.9311 H   0  0  0  0  0  0  0  0  0  0  0  0
   -6.1358   -3.0951    1.6157 H   0  0  0  0  0  0  0  0  0  0  0  0
   -4.2180   -1.1435    2.1525 N   0  0  0  0  0  0  0  0  0  0  0  0
   -3.2467   -0.0906    1.8295 C   0  0  2  0  0  0  0  0  0  0  0  0
   -1.8760   -0.6790    1.4343 C   0  0  0  0  0  0  0  0  0  0  0  0
   -1.6113   -1.8503    1.6823 O   0  0  0  0  0  0  0  0  0  0  0  0
   -3.1064    0.8243    3.0503 C   0  0  0  0  0  0  0  0  0  0  0  0
   -3.8422   -2.0656    2.3718 H   0  0  0  0  0  0  0  0  0  0  0  0
   -3.6083    0.4959    0.9778 H   0  0  0  0  0  0  0  0  0  0  0  0
   -2.7398    0.2579    3.9125 H   0  0  0  0  0  0  0  0  0  0  0  0
   -2.4052    1.6384    2.8436 H   0  0  0  0  0  0  0  0  0  0  0  0
   -4.0757    1.2633    3.3087 H   0  0  0  0  0  0  0  0  0  0  0  0
   -0.9235    0.1146    0.8229 N   0  0  0  0  0  0  0  0  0  0  0  0
    0.4219   -0.3400    0.4454 C   0  0  2  0  0  0  0  0  0  0  0  0
    1.4834    0.2127    1.4190 C   0  0  0  0  0  0  0  0  0  0  0  0
    2.0048    1.3061    1.2336 O   0  0  0  0  0  0  0  0  0  0  0  0
    0.6755    0.1019   -1.0006 C   0  0  0  0  0  0  0  0  0  0  0  0
   -1.1437    1.1004    0.7062 H   0  0  0  0  0  0  0  0  0  0  0  0
    0.4887   -1.4331    0.4717 H   0  0  0  0  0  0  0  0  0  0  0  0
    0.6059    1.1906   -1.0929 H   0  0  0  0  0  0  0  0  0  0  0  0
    1.6749   -0.2087   -1.3212 H   0  0  0  0  0  0  0  0  0  0  0  0
   -0.0601   -0.3528   -1.6710 H   0  0  0  0  0  0  0  0  0  0  0  0
    1.8223   -0.5105    2.5453 N   0  0  0  0  0  0  0  0  0  0  0  0
    2.8958   -0.1485    3.4798 C   0  0  2  0  0  0  0  0  0  0  0  0
    3.5750   -1.3965    4.0828 C   0  0  0  0  0  0  0  0  0  0  0  0
    3.0531   -2.5000    3.9708 O   0  0  0  0  0  0  0  0  0  0  0  0
    2.2976    0.7294    4.5832 C   0  0  0  0  0  0  0  0  0  0  0  0
    1.4090   -1.4389    2.6483 H   0  0  0  0  0  0  0  0  0  0  0  0
    3.6699    0.4168    2.9499 H   0  0  0  0  0  0  0  0  0  0  0  0
    1.5241    0.1814    5.1307 H   0  0  0  0  0  0  0  0  0  0  0  0
    3.0724    1.0401    5.2902 H   0  0  0  0  0  0  0  0  0  0  0  0
    1.8473    1.6279    4.1495 H   0  0  0  0  0  0  0  0  0  0  0  0
    4.7858   -1.2865    4.7421 N   0  0  0  0  0  0  0  0  0  0  0  0
    5.4988   -2.4298    5.2993 C   0  0  0  0  0  0  0  0  0  0  0  0
    5.2141   -0.3667    4.7915 H   0  0  0  0  0  0  0  0  0  0  0  0
    4.8693   -2.9603    6.0218 H   0  0  0  0  0  0  0  0  0  0  0  0
    5.7856   -3.1259    4.5039 H   0  0  0  0  0  0  0  0  0  0  0  0
    6.4062   -2.0972    5.8126 H   0  0  0  0  0  0  0  0  0  0  0  0
  1  2  2  0  0  0  0
  1  3  1  0  0  0  0
  1  7  1  0  0  0  0
  3  4  1  0  0  0  0
  3  5  1  0  0  0  0
  3  6  1  0  0  0  0
  7  8  1  0  0  0  0
  7 12  1  0  0  0  0
  8  9  1  0  0  0  0
  8 11  1  0  0  0  0
  8 13  1  0  0  0  0
  9 10  2  0  0  0  0
  9 17  1  0  0  0  0
 11 14  1  0  0  0  0
 11 15  1  0  0  0  0
 11 16  1  0  0  0  0
 17 18  1  0  0  0  0
 17 22  1  0  0  0  0
 18 19  1  0  0  0  0
 18 21  1  0  0  0  0
 18 23  1  0  0  0  0
 19 20  2  0  0  0  0
 19 27  1  0  0  0  0
 21 24  1  0  0  0  0
 21 25  1  0  0  0  0
 21 26  1  0  0  0  0
 27 28  1  0  0  0  0
 27 32  1  0  0  0  0
 28 29  1  0  0  0  0
 28 31  1  0  0  0  0
 28 33  1  0  0  0  0
 29 30  2  0  0  0  0
 29 37  1  0  0  0  0
 31 34  1  0  0  0  0
 31 35  1  0  0  0  0
 31 36  1  0  0  0  0
 37 38  1  0  0  0  0
 37 39  1  0  0  0  0
 38 40  1  0  0  0  0
 38 41  1  0  0  0  0
 38 42  1  0  0  0  0
M  END
$$$$

  -OEChem-05262215353D

 42 41  0     1  0  0  0  0  0999 V2000
   -5.5771   -0.9408    1.7992 C   0  0  0  0  0  0  0  0  0  0  0  0
   -5.9746    0.1084    1.3180 O   0  0  0  0  0  0  0  0  0  0  0  0
   -6.5083   -2.1350    1.8918 C   0  0  0  0  0  0  0  0  0  0  0  0
   -6.6355   -2.4282    2.9367 H   0  0  0  0  0  0  0  0  0  0  0  0
   -7.4875   -1.8829    1.4747 H   0  0  0  0  0  0  0  0  0  0  0  0
   -6.0933   -2.9765    1.3312 H   0  0  0  0  0  0  0  0  0  0  0  0
   -4.2778   -1.0504    2.2484 N   0  0  0  0  0  0  0  0  0  0  0  0
   -3.2344   -0.0449    2.0075 C   0  0  2  0  0  0  0  0  0  0  0  0
   -1.9159   -0.7016    1.5511 C   0  0  0  0  0  0  0  0  0  0  0  0
   -1.6959   -1.8812    1.8049 O   0  0  0  0  0  0  0  0  0  0  0  0
   -3.0218    0.7429    3.3023 C   0  0  0  0  0  0  0  0  0  0  0  0
   -3.9563   -1.9846    2.4996 H   0  0  0  0  0  0  0  0  0  0  0  0
   -3.5467    0.6448    1.2160 H   0  0  0  0  0  0  0  0  0  0  0  0
   -2.6931    0.0767    4.1065 H   0  0  0  0  0  0  0  0  0  0  0  0
   -2.2628    1.5182    3.1603 H   0  0  0  0  0  0  0  0  0  0  0  0
   -3.9554    1.2255    3.6084 H   0  0  0  0  0  0  0  0  0  0  0  0
   -0.9643    0.0388    0.8763 N   0  0  0  0  0  0  0  0  0  0  0  0
    0.3611   -0.4628    0.4905 C   0  0  2  0  0  0  0  0  0  0  0  0
    1.4557    0.1183    1.4078 C   0  0  0  0  0  0  0  0  0  0  0  0
    1.7673    1.3009    1.3272 O   0  0  0  0  0  0  0  0  0  0  0  0
    0.5967   -0.0950   -0.9779 C   0  0  0  0  0  0  0  0  0  0  0  0
   -1.1367    1.0368    0.7805 H   0  0  0  0  0  0  0  0  0  0  0  0
    0.4029   -1.5542    0.5693 H   0  0  0  0  0  0  0  0  0  0  0  0
    0.5550    0.9899   -1.1189 H   0  0  0  0  0  0  0  0  0  0  0  0
    1.5795   -0.4493   -1.3040 H   0  0  0  0  0  0  0  0  0  0  0  0
   -0.1663   -0.5582   -1.6113 H   0  0  0  0  0  0  0  0  0  0  0  0
    2.0379   -0.6672    2.3832 N   0  0  0  0  0  0  0  0  0  0  0  0
    3.1520   -0.2437    3.2413 C   0  0  2  0  0  0  0  0  0  0  0  0
    4.1366   -1.4008    3.5138 C   0  0  0  0  0  0  0  0  0  0  0  0
    3.8168   -2.5565    3.2586 O   0  0  0  0  0  0  0  0  0  0  0  0
    2.5676    0.2926    4.5513 C   0  0  0  0  0  0  0  0  0  0  0  0
    1.8048   -1.6607    2.3869 H   0  0  0  0  0  0  0  0  0  0  0  0
    3.7190    0.5527    2.7478 H   0  0  0  0  0  0  0  0  0  0  0  0
    2.0004   -0.4896    5.0662 H   0  0  0  0  0  0  0  0  0  0  0  0
    3.3652    0.6396    5.2151 H   0  0  0  0  0  0  0  0  0  0  0  0
    1.8968    1.1339    4.3489 H   0  0  0  0  0  0  0  0  0  0  0  0
    5.3954   -1.1444    4.0258 N   0  0  0  0  0  0  0  0  0  0  0  0
    6.3916   -2.1841    4.2546 C   0  0  0  0  0  0  0  0  0  0  0  0
    5.6443   -0.1754    4.2022 H   0  0  0  0  0  0  0  0  0  0  0  0
    6.0252   -2.9127    4.9853 H   0  0  0  0  0  0  0  0  0  0  0  0
    6.6203   -2.7069    3.3199 H   0  0  0  0  0  0  0  0  0  0  0  0
    7.3166   -1.7444    4.6394 H   0  0  0  0  0  0  0  0  0  0  0  0
  1  2  2  0  0  0  0
  1  3  1  0  0  0  0
  1  7  1  0  0  0  0
  3  4  1  0  0  0  0
  3  5  1  0  0  0  0
  3  6  1  0  0  0  0
  7  8  1  0  0  0  0
  7 12  1  0  0  0  0
  8  9  1  0  0  0  0
  8 11  1  0  0  0  0
  8 13  1  0  0  0  0
  9 10  2  0  0  0  0
  9 17  1  0  0  0  0
 11 14  1  0  0  0  0
 11 15  1  0  0  0  0
 11 16  1  0  0  0  0
 17 18  1  0  0  0  0
 17 22  1  0  0  0  0
 18 19  1  0  0  0  0
 18 21  1  0  0  0  0
 18 23  1  0  0  0  0
 19 20  2  0  0  0  0
 19 27  1  0  0  0  0
 21 24  1  0  0  0  0
 21 25  1  0  0  0  0
 21 26  1  0  0  0  0
 27 28  1  0  0  0  0
 27 32  1  0  0  0  0
 28 29  1  0  0  0  0
 28 31  1  0  0  0  0
 28 33  1  0  0  0  0
 29 30  2  0  0  0  0
 29 37  1  0  0  0  0
 31 34  1  0  0  0  0
 31 35  1  0  0  0  0
 31 36  1  0  0  0  0
 37 38  1  0  0  0  0
 37 39  1  0  0  0  0
 38 40  1  0  0  0  0
 38 41  1  0  0  0  0
 38 42  1  0  0  0  0
M  END
$$$$

  -OEChem-05262215353D

 42 41  0     1  0  0  0  0  0999 V2000
   -5.5686   -0.9798    2.0515 C   0  0  0  0  0  0  0  0  0  0  0  0
   -6.0277    0.1128    1.7581 O   0  0  0  0  0  0  0  0  0  0  0  0
   -6.4958   -2.1578    2.2830 C   0  0  0  0  0  0  0  0  0  0  0  0
   -6.3612   -2.5442    3.2963 H   0  0  0  0  0  0  0  0  0  0  0  0
   -7.5375   -1.8481    2.1591 H   0  0  0  0  0  0  0  0  0  0  0  0
   -6.2764   -2.9518    1.5648 H   0  0  0  0  0  0  0  0  0  0  0  0
   -4.2053   -1.1479    2.1682 N   0  0  0  0  0  0  0  0  0  0  0  0
   -3.2115   -0.1210    1.8314 C   0  0  2  0  0  0  0  0  0  0  0  0
   -1.8962   -0.7453    1.3210 C   0  0  0  0  0  0  0  0  0  0  0  0
   -1.6885   -1.9463    1.4589 O   0  0  0  0  0  0  0  0  0  0  0  0
   -2.9511    0.7295    3.0787 C   0  0  0  0  0  0  0  0  0  0  0  0
   -3.8586   -2.0982    2.2954 H   0  0  0  0  0  0  0  0  0  0  0  0
   -3.5999    0.5193    1.0320 H   0  0  0  0  0  0  0  0  0  0  0  0
   -2.5625    0.1073    3.8913 H   0  0  0  0  0  0  0  0  0  0  0  0
   -2.2222    1.5168    2.8633 H   0  0  0  0  0  0  0  0  0  0  0  0
   -3.8787    1.2034    3.4154 H   0  0  0  0  0  0  0  0  0  0  0  0
   -0.9376    0.0493    0.7210 N   0  0  0  0  0  0  0  0  0  0  0  0
    0.4138   -0.4051    0.3682 C   0  0  2  0  0  0  0  0  0  0  0  0
    1.4599    0.1536    1.3531 C   0  0  0  0  0  0  0  0  0  0  0  0
    1.5610    1.3646    1.5153 O   0  0  0  0  0  0  0  0  0  0  0  0
    0.7074    0.0495   -1.0636 C   0  0  0  0  0  0  0  0  0  0  0  0
   -1.0890    1.0548    0.7632 H   0  0  0  0  0  0  0  0  0  0  0  0
    0.4751   -1.4981    0.3940 H   0  0  0  0  0  0  0  0  0  0  0  0
    0.6665    1.1411   -1.1393 H   0  0  0  0  0  0  0  0  0  0  0  0
    1.7040   -0.2826   -1.3710 H   0  0  0  0  0  0  0  0  0  0  0  0
   -0.0280   -0.3760   -1.7535 H   0  0  0  0  0  0  0  0  0  0  0  0
    2.2478   -0.6977    2.1024 N   0  0  0  0  0  0  0  0  0  0  0  0
    3.3605   -0.2652    2.9575 C   0  0  2  0  0  0  0  0  0  0  0  0
    4.5288   -1.2732    2.9189 C   0  0  0  0  0  0  0  0  0  0  0  0
    4.3749   -2.3755    2.4041 O   0  0  0  0  0  0  0  0  0  0  0  0
    2.8309   -0.0967    4.3844 C   0  0  0  0  0  0  0  0  0  0  0  0
    2.1982   -1.6936    1.8865 H   0  0  0  0  0  0  0  0  0  0  0  0
    3.7495    0.6954    2.6036 H   0  0  0  0  0  0  0  0  0  0  0  0
    2.4494   -1.0492    4.7663 H   0  0  0  0  0  0  0  0  0  0  0  0
    3.6242    0.2543    5.0512 H   0  0  0  0  0  0  0  0  0  0  0  0
    2.0181    0.6365    4.4008 H   0  0  0  0  0  0  0  0  0  0  0  0
    5.7634   -0.9390    3.4443 N   0  0  0  0  0  0  0  0  0  0  0  0
    6.9133   -1.8348    3.4148 C   0  0  0  0  0  0  0  0  0  0  0  0
    5.8692   -0.0135    3.8494 H   0  0  0  0  0  0  0  0  0  0  0  0
    6.6922   -2.7593    3.9585 H   0  0  0  0  0  0  0  0  0  0  0  0
    7.1763   -2.0874    2.3821 H   0  0  0  0  0  0  0  0  0  0  0  0
    7.7785   -1.3569    3.8842 H   0  0  0  0  0  0  0  0  0  0  0  0
  1  2  2  0  0  0  0
  1  3  1  0  0  0  0
  1  7  1  0  0  0  0
  3  4  1  0  0  0  0
  3  5  1  0  0  0  0
  3  6  1  0  0  0  0
  7  8  1  0  0  0  0
  7 12  1  0  0  0  0
  8  9  1  0  0  0  0
  8 11  1  0  0  0  0
  8 13  1  0  0  0  0
  9 10  2  0  0  0  0
  9 17  1  0  0  0  0
 11 14  1  0  0  0  0
 11 15  1  0  0  0  0
 11 16  1  0  0  0  0
 17 18  1  0  0  0  0
 17 22  1  0  0  0  0
 18 19  1  0  0  0  0
 18 21  1  0  0  0  0
 18 23  1  0  0  0  0
 19 20  2  0  0  0  0
 19 27  1  0  0  0  0
 21 24  1  0  0  0  0
 21 25  1  0  0  0  0
 21 26  1  0  0  0  0
 27 28  1  0  0  0  0
 27 32  1  0  0  0  0
 28 29  1  0  0  0  0
 28 31  1  0  0  0  0
 28 33  1  0  0  0  0
 29 30  2  0  0  0  0
 29 37  1  0  0  0  0
 31 34  1  0  0  0  0
 31 35  1  0  0  0  0
 31 36  1  0  0  0  0
 37 38  1  0  0  0  0
 37 39  1  0  0  0  0
 38 40  1  0  0  0  0
 38 41  1  0  0  0  0
 38 42  1  0  0  0  0
M  END
$$$$

  -OEChem-05262215353D

 42 41  0     1  0  0  0  0  0999 V2000
   -5.5710   -0.9189    1.8205 C   0  0  0  0  0  0  0  0  0  0  0  0
   -5.9507    0.1360    1.3374 O   0  0  0  0  0  0  0  0  0  0  0  0
   -6.5220   -2.0978    1.9089 C   0  0  0  0  0  0  0  0  0  0  0  0
   -6.6569   -2.3905    2.9530 H   0  0  0  0  0  0  0  0  0  0  0  0
   -7.4957   -1.8293    1.4888 H   0  0  0  0  0  0  0  0  0  0  0  0
   -6.1190   -2.9455    1.3490 H   0  0  0  0  0  0  0  0  0  0  0  0
   -4.2753   -1.0519    2.2739 N   0  0  0  0  0  0  0  0  0  0  0  0
   -3.2086   -0.0738    2.0195 C   0  0  2  0  0  0  0  0  0  0  0  0
   -1.9314   -0.7563    1.4888 C   0  0  0  0  0  0  0  0  0  0  0  0
   -1.7508   -1.9550    1.6770 O   0  0  0  0  0  0  0  0  0  0  0  0
   -2.9187    0.6658    3.3277 C   0  0  0  0  0  0  0  0  0  0  0  0
   -3.9729   -1.9951    2.5137 H   0  0  0  0  0  0  0  0  0  0  0  0
   -3.5266    0.6513    1.2628 H   0  0  0  0  0  0  0  0  0  0  0  0
   -2.5787   -0.0344    4.0975 H   0  0  0  0  0  0  0  0  0  0  0  0
   -2.1416    1.4217    3.1775 H   0  0  0  0  0  0  0  0  0  0  0  0
   -3.8237    1.1666    3.6862 H   0  0  0  0  0  0  0  0  0  0  0  0
   -0.9767   -0.0162    0.8178 N   0  0  0  0  0  0  0  0  0  0  0  0
    0.3626   -0.5129    0.4744 C   0  0  2  0  0  0  0  0  0  0  0  0
    1.4356    0.0977    1.3975 C   0  0  0  0  0  0  0  0  0  0  0  0
    1.3988    1.2941    1.6647 O   0  0  0  0  0  0  0  0  0  0  0  0
    0.6400   -0.1565   -0.9875 C   0  0  0  0  0  0  0  0  0  0  0  0
   -1.0929    0.9948    0.8436 H   0  0  0  0  0  0  0  0  0  0  0  0
    0.4096   -1.6024    0.5751 H   0  0  0  0  0  0  0  0  0  0  0  0
    0.6134    0.9285   -1.1312 H   0  0  0  0  0  0  0  0  0  0  0  0
    1.6266   -0.5228   -1.2883 H   0  0  0  0  0  0  0  0  0  0  0  0
   -0.1124   -0.6138   -1.6377 H   0  0  0  0  0  0  0  0  0  0  0  0
    2.4237   -0.6926    1.9512 N   0  0  0  0  0  0  0  0  0  0  0  0
    3.5927   -0.1746    2.6739 C   0  0  2  0  0  0  0  0  0  0  0  0
    4.8746   -0.9490    2.3006 C   0  0  0  0  0  0  0  0  0  0  0  0
    4.7966   -2.0097    1.6899 O   0  0  0  0  0  0  0  0  0  0  0  0
    3.3111   -0.2802    4.1748 C   0  0  0  0  0  0  0  0  0  0  0  0
    2.4865   -1.6558    1.6213 H   0  0  0  0  0  0  0  0  0  0  0  0
    3.7607    0.8758    2.4130 H   0  0  0  0  0  0  0  0  0  0  0  0
    3.1501   -1.3246    4.4614 H   0  0  0  0  0  0  0  0  0  0  0  0
    4.1516    0.1149    4.7532 H   0  0  0  0  0  0  0  0  0  0  0  0
    2.4152    0.2943    4.4317 H   0  0  0  0  0  0  0  0  0  0  0  0
    6.1207   -0.4486    2.6310 N   0  0  0  0  0  0  0  0  0  0  0  0
    7.3698   -1.1095    2.2697 C   0  0  0  0  0  0  0  0  0  0  0  0
    6.1575    0.4444    3.1143 H   0  0  0  0  0  0  0  0  0  0  0  0
    7.4108   -2.1160    2.6997 H   0  0  0  0  0  0  0  0  0  0  0  0
    7.4611   -1.1881    1.1809 H   0  0  0  0  0  0  0  0  0  0  0  0
    8.2233   -0.5383    2.6481 H   0  0  0  0  0  0  0  0  0  0  0  0
  1  2  2  0  0  0  0
  1  3  1  0  0  0  0
  1  7  1  0  0  0  0
  3  4  1  0  0  0  0
  3  5  1  0  0  0  0
  3  6  1  0  0  0  0
  7  8  1  0  0  0  0
  7 12  1  0  0  0  0
  8  9  1  0  0  0  0
  8 11  1  0  0  0  0
  8 13  1  0  0  0  0
  9 10  2  0  0  0  0
  9 17  1  0  0  0  0
 11 14  1  0  0  0  0
 11 15  1  0  0  0  0
 11 16  1  0  0  0  0
 17 18  1  0  0  0  0
 17 22  1  0  0  0  0
 18 19  1  0  0  0  0
 18 21  1  0  0  0  0
 18 23  1  0  0  0  0
 19 20  2  0  0  0  0
 19 27  1  0  0  0  0
 21 24  1  0  0  0  0
 21 25  1  0  0  0  0
 21 26  1  0  0  0  0
 27 28  1  0  0  0  0
 27 32  1  0  0  0  0
 28 29  1  0  0  0  0
 28 31  1  0  0  0  0
 28 33  1  0  0  0  0
 29 30  2  0  0  0  0
 29 37  1  0  0  0  0
 31 34  1  0  0  0  0
 31 35  1  0  0  0  0
 31 36  1  0  0  0  0
 37 38  1  0  0  0  0
 37 39  1  0  0  0  0
 38 40  1  0  0  0  0
 38 41  1  0  0  0  0
 38 42  1  0  0  0  0
M  END
$$$$

  -OEChem-05262215353D

 42 41  0     1  0  0  0  0  0999 V2000
   -5.5620   -0.9118    1.8292 C   0  0  0  0  0  0  0  0  0  0  0  0
   -5.9390    0.1485    1.3557 O   0  0  0  0  0  0  0  0  0  0  0  0
   -6.5187   -2.0862    1.9174 C   0  0  0  0  0  0  0  0  0  0  0  0
   -6.6603   -2.3742    2.9618 H   0  0  0  0  0  0  0  0  0  0  0  0
   -7.4893   -1.8169    1.4912 H   0  0  0  0  0  0  0  0  0  0  0  0
   -6.1158   -2.9375    1.3635 H   0  0  0  0  0  0  0  0  0  0  0  0
   -4.2646   -1.0556    2.2740 N   0  0  0  0  0  0  0  0  0  0  0  0
   -3.1922   -0.0845    2.0168 C   0  0  2  0  0  0  0  0  0  0  0  0
   -1.9296   -0.7719    1.4571 C   0  0  0  0  0  0  0  0  0  0  0  0
   -1.7631   -1.9771    1.6174 O   0  0  0  0  0  0  0  0  0  0  0  0
   -2.8734    0.6335    3.3305 C   0  0  0  0  0  0  0  0  0  0  0  0
   -3.9660   -2.0034    2.4995 H   0  0  0  0  0  0  0  0  0  0  0  0
   -3.5154    0.6544    1.2759 H   0  0  0  0  0  0  0  0  0  0  0  0
   -2.5247   -0.0805    4.0835 H   0  0  0  0  0  0  0  0  0  0  0  0
   -2.0937    1.3865    3.1782 H   0  0  0  0  0  0  0  0  0  0  0  0
   -3.7681    1.1351    3.7126 H   0  0  0  0  0  0  0  0  0  0  0  0
   -0.9755   -0.0288    0.7880 N   0  0  0  0  0  0  0  0  0  0  0  0
    0.3707   -0.5232    0.4666 C   0  0  2  0  0  0  0  0  0  0  0  0
    1.4361    0.0998    1.3906 C   0  0  0  0  0  0  0  0  0  0  0  0
    1.2749    1.2314    1.8365 O   0  0  0  0  0  0  0  0  0  0  0  0
    0.6623   -0.1809   -0.9952 C   0  0  0  0  0  0  0  0  0  0  0  0
   -1.0738    0.9818    0.8638 H   0  0  0  0  0  0  0  0  0  0  0  0
    0.4215   -1.6109    0.5825 H   0  0  0  0  0  0  0  0  0  0  0  0
    0.6282    0.9023   -1.1507 H   0  0  0  0  0  0  0  0  0  0  0  0
    1.6549   -0.5426   -1.2814 H   0  0  0  0  0  0  0  0  0  0  0  0
   -0.0792   -0.6517   -1.6483 H   0  0  0  0  0  0  0  0  0  0  0  0
    2.5820   -0.6021    1.7089 N   0  0  0  0  0  0  0  0  0  0  0  0
    3.7495   -0.0210    2.3830 C   0  0  2  0  0  0  0  0  0  0  0  0
    5.0647   -0.5128    1.7431 C   0  0  0  0  0  0  0  0  0  0  0  0
    5.0539   -1.4671    0.9727 O   0  0  0  0  0  0  0  0  0  0  0  0
    3.6843   -0.4038    3.8635 C   0  0  0  0  0  0  0  0  0  0  0  0
    2.7428   -1.4749    1.2062 H   0  0  0  0  0  0  0  0  0  0  0  0
    3.7334    1.0703    2.2937 H   0  0  0  0  0  0  0  0  0  0  0  0
    3.7044   -1.4923    3.9795 H   0  0  0  0  0  0  0  0  0  0  0  0
    4.5324    0.0212    4.4085 H   0  0  0  0  0  0  0  0  0  0  0  0
    2.7606   -0.0223    4.3104 H   0  0  0  0  0  0  0  0  0  0  0  0
    6.2589    0.1311    2.0084 N   0  0  0  0  0  0  0  0  0  0  0  0
    7.5247   -0.2471    1.3916 C   0  0  0  0  0  0  0  0  0  0  0  0
    6.2319    0.9414    2.6204 H   0  0  0  0  0  0  0  0  0  0  0  0
    7.7640   -1.2922    1.6152 H   0  0  0  0  0  0  0  0  0  0  0  0
    7.4736   -0.1223    0.3047 H   0  0  0  0  0  0  0  0  0  0  0  0
    8.3347    0.3810    1.7745 H   0  0  0  0  0  0  0  0  0  0  0  0
  1  2  2  0  0  0  0
  1  3  1  0  0  0  0
  1  7  1  0  0  0  0
  3  4  1  0  0  0  0
  3  5  1  0  0  0  0
  3  6  1  0  0  0  0
  7  8  1  0  0  0  0
  7 12  1  0  0  0  0
  8  9  1  0  0  0  0
  8 11  1  0  0  0  0
  8 13  1  0  0  0  0
  9 10  2  0  0  0  0
  9 17  1  0  0  0  0
 11 14  1  0  0  0  0
 11 15  1  0  0  0  0
 11 16  1  0  0  0  0
 17 18  1  0  0  0  0
 17 22  1  0  0  0  0
 18 19  1  0  0  0  0
 18 21  1  0  0  0  0
 18 23  1  0  0  0  0
 19 20  2  0  0  0  0
 19 27  1  0  0  0  0
 21 24  1  0  0  0  0
 21 25  1  0  0  0  0
 21 26  1  0  0  0  0
 27 28  1  0  0  0  0
 27 32  1  0  0  0  0
 28 29  1  0  0  0  0
 28 31  1  0  0  0  0
 28 33  1  0  0  0  0
 29 30  2  0  0  0  0
 29 37  1  0  0  0  0
 31 34  1  0  0  0  0
 31 35  1  0  0  0  0
 31 36  1  0  0  0  0
 37 38  1  0  0  0  0
 37 39  1  0  0  0  0
 38 40  1  0  0  0  0
 38 41  1  0  0  0  0
 38 42  1  0  0  0  0
M  END
$$$$

  -OEChem-05262215353D

 42 41  0     1  0  0  0  0  0999 V2000
   -5.5787   -0.9236    2.0538 C   0  0  0  0  0  0  0  0  0  0  0  0
   -5.9934    0.1993    1.8136 O   0  0  0  0  0  0  0  0  0  0  0  0
   -6.5539   -2.0693    2.2483 C   0  0  0  0  0  0  0  0  0  0  0  0
   -6.4274   -2.5014    3.2439 H   0  0  0  0  0  0  0  0  0  0  0  0
   -7.5821   -1.7105    2.1479 H   0  0  0  0  0  0  0  0  0  0  0  0
   -6.3758   -2.8426    1.4971 H   0  0  0  0  0  0  0  0  0  0  0  0
   -4.2229   -1.1561    2.1441 N   0  0  0  0  0  0  0  0  0  0  0  0
   -3.1869   -0.1595    1.8446 C   0  0  2  0  0  0  0  0  0  0  0  0
   -1.9161   -0.8140    1.2635 C   0  0  0  0  0  0  0  0  0  0  0  0
   -1.7523   -2.0269    1.3519 O   0  0  0  0  0  0  0  0  0  0  0  0
   -2.8590    0.5975    3.1351 C   0  0  0  0  0  0  0  0  0  0  0  0
   -3.9166   -2.1247    2.2285 H   0  0  0  0  0  0  0  0  0  0  0  0
   -3.5590    0.5482    1.0959 H   0  0  0  0  0  0  0  0  0  0  0  0
   -2.4920   -0.0926    3.9015 H   0  0  0  0  0  0  0  0  0  0  0  0
   -2.0910    1.3555    2.9533 H   0  0  0  0  0  0  0  0  0  0  0  0
   -3.7540    1.0990    3.5169 H   0  0  0  0  0  0  0  0  0  0  0  0
   -0.9596   -0.0329    0.6424 N   0  0  0  0  0  0  0  0  0  0  0  0
    0.4029   -0.5009    0.3484 C   0  0  2  0  0  0  0  0  0  0  0  0
    1.4378    0.1082    1.3175 C   0  0  0  0  0  0  0  0  0  0  0  0
    1.1606    1.1120    1.9666 O   0  0  0  0  0  0  0  0  0  0  0  0
    0.7256   -0.1095   -1.0954 C   0  0  0  0  0  0  0  0  0  0  0  0
   -1.0605    0.9693    0.7905 H   0  0  0  0  0  0  0  0  0  0  0  0
    0.4680   -1.5905    0.4348 H   0  0  0  0  0  0  0  0  0  0  0  0
    0.6981    0.9786   -1.2134 H   0  0  0  0  0  0  0  0  0  0  0  0
    1.7222   -0.4647   -1.3763 H   0  0  0  0  0  0  0  0  0  0  0  0
   -0.0043   -0.5537   -1.7795 H   0  0  0  0  0  0  0  0  0  0  0  0
    2.7057   -0.4312    1.4109 N   0  0  0  0  0  0  0  0  0  0  0  0
    3.8354    0.2182    2.0875 C   0  0  2  0  0  0  0  0  0  0  0  0
    5.1417    0.0473    1.2840 C   0  0  0  0  0  0  0  0  0  0  0  0
    5.1902   -0.7490    0.3521 O   0  0  0  0  0  0  0  0  0  0  0  0
    3.9686   -0.3909    3.4853 C   0  0  0  0  0  0  0  0  0  0  0  0
    2.9439   -1.1664    0.7454 H   0  0  0  0  0  0  0  0  0  0  0  0
    3.6520    1.2937    2.1802 H   0  0  0  0  0  0  0  0  0  0  0  0
    4.1742   -1.4639    3.4174 H   0  0  0  0  0  0  0  0  0  0  0  0
    4.7836    0.0867    4.0371 H   0  0  0  0  0  0  0  0  0  0  0  0
    3.0406   -0.2490    4.0485 H   0  0  0  0  0  0  0  0  0  0  0  0
    6.2588    0.8024    1.5895 N   0  0  0  0  0  0  0  0  0  0  0  0
    7.5093    0.7168    0.8449 C   0  0  0  0  0  0  0  0  0  0  0  0
    6.1808    1.4769    2.3453 H   0  0  0  0  0  0  0  0  0  0  0  0
    7.9006   -0.3059    0.8679 H   0  0  0  0  0  0  0  0  0  0  0  0
    7.3546    1.0117   -0.1983 H   0  0  0  0  0  0  0  0  0  0  0  0
    8.2581    1.3823    1.2853 H   0  0  0  0  0  0  0  0  0  0  0  0
  1  2  2  0  0  0  0
  1  3  1  0  0  0  0
  1  7  1  0  0  0  0
  3  4  1  0  0  0  0
  3  5  1  0  0  0  0
  3  6  1  0  0  0  0
  7  8  1  0  0  0  0
  7 12  1  0  0  0  0
  8  9  1  0  0  0  0
  8 11  1  0  0  0  0
  8 13  1  0  0  0  0
  9 10  2  0  0  0  0
  9 17  1  0  0  0  0
 11 14  1  0  0  0  0
 11 15  1  0  0  0  0
 11 16  1  0  0  0  0
 17 18  1  0  0  0  0
 17 22  1  0  0  0  0
 18 19  1  0  0  0  0
 18 21  1  0  0  0  0
 18 23  1  0  0  0  0
 19 20  2  0  0  0  0
 19 27  1  0  0  0  0
 21 24  1  0  0  0  0
 21 25  1  0  0  0  0
 21 26  1  0  0  0  0
 27 28  1  0  0  0  0
 27 32  1  0  0  0  0
 28 29  1  0  0  0  0
 28 31  1  0  0  0  0
 28 33  1  0  0  0  0
 29 30  2  0  0  0  0
 29 37  1  0  0  0  0
 31 34  1  0  0  0  0
 31 35  1  0  0  0  0
 31 36  1  0  0  0  0
 37 38  1  0  0  0  0
 37 39  1  0  0  0  0
 38 40  1  0  0  0  0
 38 41  1  0  0  0  0
 38 42  1  0  0  0  0
M  END
$$$$

  -OEChem-05262215353D

 42 41  0     1  0  0  0  0  0999 V2000
   -5.5032   -0.8870    1.8059 C   0  0  0  0  0  0  0  0  0  0  0  0
   -5.8605    0.1584    1.2862 O   0  0  0  0  0  0  0  0  0  0  0  0
   -6.4691   -2.0528    1.9016 C   0  0  0  0  0  0  0  0  0  0  0  0
   -6.6148   -2.3318    2.9480 H   0  0  0  0  0  0  0  0  0  0  0  0
   -7.4366   -1.7777    1.4722 H   0  0  0  0  0  0  0  0  0  0  0  0
   -6.0718   -2.9112    1.3544 H   0  0  0  0  0  0  0  0  0  0  0  0
   -4.2220   -1.0259    2.2969 N   0  0  0  0  0  0  0  0  0  0  0  0
   -3.1317   -0.0768    2.0304 C   0  0  2  0  0  0  0  0  0  0  0  0
   -1.9358   -0.7650    1.3408 C   0  0  0  0  0  0  0  0  0  0  0  0
   -1.8042   -1.9836    1.4094 O   0  0  0  0  0  0  0  0  0  0  0  0
   -2.6960    0.5288    3.3668 C   0  0  0  0  0  0  0  0  0  0  0  0
   -3.9382   -1.9743    2.5373 H   0  0  0  0  0  0  0  0  0  0  0  0
   -3.4716    0.7287    1.3710 H   0  0  0  0  0  0  0  0  0  0  0  0
   -2.3305   -0.2526    4.0409 H   0  0  0  0  0  0  0  0  0  0  0  0
   -1.8932    1.2573    3.2152 H   0  0  0  0  0  0  0  0  0  0  0  0
   -3.5390    1.0373    3.8448 H   0  0  0  0  0  0  0  0  0  0  0  0
   -0.9850   -0.0050    0.6843 N   0  0  0  0  0  0  0  0  0  0  0  0
    0.3624   -0.5207    0.3992 C   0  0  2  0  0  0  0  0  0  0  0  0
    1.3600   -0.2168    1.5406 C   0  0  0  0  0  0  0  0  0  0  0  0
    1.0306    0.4941    2.4851 O   0  0  0  0  0  0  0  0  0  0  0  0
    0.8232    0.1210   -0.9135 C   0  0  0  0  0  0  0  0  0  0  0  0
   -1.0548    0.9951    0.8543 H   0  0  0  0  0  0  0  0  0  0  0  0
    0.3372   -1.6069    0.2597 H   0  0  0  0  0  0  0  0  0  0  0  0
    0.8960    1.2079   -0.8053 H   0  0  0  0  0  0  0  0  0  0  0  0
    1.8037   -0.2644   -1.2099 H   0  0  0  0  0  0  0  0  0  0  0  0
    0.1112   -0.1034   -1.7138 H   0  0  0  0  0  0  0  0  0  0  0  0
    2.6736   -0.6322    1.4391 N   0  0  0  0  0  0  0  0  0  0  0  0
    3.7716   -0.1356    2.2781 C   0  0  2  0  0  0  0  0  0  0  0  0
    5.0249    0.1634    1.4295 C   0  0  0  0  0  0  0  0  0  0  0  0
    5.0921   -0.2365    0.2716 O   0  0  0  0  0  0  0  0  0  0  0  0
    4.0712   -1.1911    3.3453 C   0  0  0  0  0  0  0  0  0  0  0  0
    2.9477   -1.0660    0.5581 H   0  0  0  0  0  0  0  0  0  0  0  0
    3.4829    0.7997    2.7691 H   0  0  0  0  0  0  0  0  0  0  0  0
    4.3748   -2.1334    2.8779 H   0  0  0  0  0  0  0  0  0  0  0  0
    4.8756   -0.8542    4.0059 H   0  0  0  0  0  0  0  0  0  0  0  0
    3.1797   -1.3748    3.9535 H   0  0  0  0  0  0  0  0  0  0  0  0
    6.0675    0.9051    1.9527 N   0  0  0  0  0  0  0  0  0  0  0  0
    7.2472    1.2784    1.1815 C   0  0  0  0  0  0  0  0  0  0  0  0
    5.9659    1.2581    2.9001 H   0  0  0  0  0  0  0  0  0  0  0  0
    7.7465    0.3869    0.7876 H   0  0  0  0  0  0  0  0  0  0  0  0
    6.9670    1.9241    0.3426 H   0  0  0  0  0  0  0  0  0  0  0  0
    7.9575    1.8199    1.8134 H   0  0  0  0  0  0  0  0  0  0  0  0
  1  2  2  0  0  0  0
  1  3  1  0  0  0  0
  1  7  1  0  0  0  0
  3  4  1  0  0  0  0
  3  5  1  0  0  0  0
  3  6  1  0  0  0  0
  7  8  1  0  0  0  0
  7 12  1  0  0  0  0
  8  9  1  0  0  0  0
  8 11  1  0  0  0  0
  8 13  1  0  0  0  0
  9 10  2  0  0  0  0
  9 17  1  0  0  0  0
 11 14  1  0  0  0  0
 11 15  1  0  0  0  0
 11 16  1  0  0  0  0
 17 18  1  0  0  0  0
 17 22  1  0  0  0  0
 18 19  1  0  0  0  0
 18 21  1  0  0  0  0
 18 23  1  0  0  0  0
 19 20  2  0  0  0  0
 19 27  1  0  0  0  0
 21 24  1  0  0  0  0
 21 25  1  0  0  0  0
 21 26  1  0  0  0  0
 27 28  1  0  0  0  0
 27 32  1  0  0  0  0
 28 29  1  0  0  0  0
 28 31  1  0  0  0  0
 28 33  1  0  0  0  0
 29 30  2  0  0  0  0
 29 37  1  0  0  0  0
 31 34  1  0  0  0  0
 31 35  1  0  0  0  0
 31 36  1  0  0  0  0
 37 38  1  0  0  0  0
 37 39  1  0  0  0  0
 38 40  1  0  0  0  0
 38 41  1  0  0  0  0
 38 42  1  0  0  0  0
M  END
$$$$

  -OEChem-05262215353D

 42 41  0     1  0  0  0  0  0999 V2000
   -5.5088   -0.8665    1.8768 C   0  0  0  0  0  0  0  0  0  0  0  0
   -5.8742    0.2249    1.4691 O   0  0  0  0  0  0  0  0  0  0  0  0
   -6.4930   -2.0191    1.9395 C   0  0  0  0  0  0  0  0  0  0  0  0
   -6.6431   -2.3245    2.9777 H   0  0  0  0  0  0  0  0  0  0  0  0
   -7.4553   -1.7160    1.5174 H   0  0  0  0  0  0  0  0  0  0  0  0
   -6.1106   -2.8686    1.3682 H   0  0  0  0  0  0  0  0  0  0  0  0
   -4.2022   -1.0652    2.2694 N   0  0  0  0  0  0  0  0  0  0  0  0
   -3.1127   -0.1114    2.0211 C   0  0  2  0  0  0  0  0  0  0  0  0
   -1.9131   -0.7921    1.3315 C   0  0  0  0  0  0  0  0  0  0  0  0
   -1.7781   -2.0106    1.3939 O   0  0  0  0  0  0  0  0  0  0  0  0
   -2.6857    0.4835    3.3648 C   0  0  0  0  0  0  0  0  0  0  0  0
   -3.9214   -2.0312    2.4317 H   0  0  0  0  0  0  0  0  0  0  0  0
   -3.4514    0.6969    1.3648 H   0  0  0  0  0  0  0  0  0  0  0  0
   -2.3279   -0.3040    4.0359 H   0  0  0  0  0  0  0  0  0  0  0  0
   -1.8794    1.2104    3.2252 H   0  0  0  0  0  0  0  0  0  0  0  0
   -3.5313    0.9908    3.8396 H   0  0  0  0  0  0  0  0  0  0  0  0
   -0.9833   -0.0282    0.6498 N   0  0  0  0  0  0  0  0  0  0  0  0
    0.3711   -0.5257    0.3625 C   0  0  2  0  0  0  0  0  0  0  0  0
    1.3775   -0.1798    1.4875 C   0  0  0  0  0  0  0  0  0  0  0  0
    0.9902    0.3088    2.5440 O   0  0  0  0  0  0  0  0  0  0  0  0
    0.7899    0.0779   -0.9832 C   0  0  0  0  0  0  0  0  0  0  0  0
   -1.0719    0.9727    0.8022 H   0  0  0  0  0  0  0  0  0  0  0  0
    0.3649   -1.6160    0.2570 H   0  0  0  0  0  0  0  0  0  0  0  0
    0.8757    1.1665   -0.9071 H   0  0  0  0  0  0  0  0  0  0  0  0
    1.7534   -0.3261   -1.3082 H   0  0  0  0  0  0  0  0  0  0  0  0
    0.0462   -0.1606   -1.7503 H   0  0  0  0  0  0  0  0  0  0  0  0
    2.7378   -0.2872    1.2666 N   0  0  0  0  0  0  0  0  0  0  0  0
    3.7745    0.2739    2.1425 C   0  0  2  0  0  0  0  0  0  0  0  0
    4.9089    0.9208    1.3204 C   0  0  0  0  0  0  0  0  0  0  0  0
    4.9877    0.7141    0.1137 O   0  0  0  0  0  0  0  0  0  0  0  0
    4.3141   -0.8565    3.0224 C   0  0  0  0  0  0  0  0  0  0  0  0
    3.0319   -0.5208    0.3189 H   0  0  0  0  0  0  0  0  0  0  0  0
    3.3506    1.0557    2.7816 H   0  0  0  0  0  0  0  0  0  0  0  0
    4.7586   -1.6438    2.4049 H   0  0  0  0  0  0  0  0  0  0  0  0
    5.0771   -0.4790    3.7096 H   0  0  0  0  0  0  0  0  0  0  0  0
    3.5031   -1.2936    3.6139 H   0  0  0  0  0  0  0  0  0  0  0  0
    5.8332    1.7491    1.9295 N   0  0  0  0  0  0  0  0  0  0  0  0
    6.9097    2.4154    1.2065 C   0  0  0  0  0  0  0  0  0  0  0  0
    5.7247    1.9259    2.9241 H   0  0  0  0  0  0  0  0  0  0  0  0
    7.5367    1.6813    0.6893 H   0  0  0  0  0  0  0  0  0  0  0  0
    6.5003    3.1123    0.4676 H   0  0  0  0  0  0  0  0  0  0  0  0
    7.5407    2.9785    1.9010 H   0  0  0  0  0  0  0  0  0  0  0  0
  1  2  2  0  0  0  0
  1  3  1  0  0  0  0
  1  7  1  0  0  0  0
  3  4  1  0  0  0  0
  3  5  1  0  0  0  0
  3  6  1  0  0  0  0
  7  8  1  0  0  0  0
  7 12  1  0  0  0  0
  8  9  1  0  0  0  0
  8 11  1  0  0  0  0
  8 13  1  0  0  0  0
  9 10  2  0  0  0  0
  9 17  1  0  0  0  0
 11 14  1  0  0  0  0
 11 15  1  0  0  0  0
 11 16  1  0  0  0  0
 17 18  1  0  0  0  0
 17 22  1  0  0  0  0
 18 19  1  0  0  0  0
 18 21  1  0  0  0  0
 18 23  1  0  0  0  0
 19 20  2  0  0  0  0
 19 27  1  0  0  0  0
 21 24  1  0  0  0  0
 21 25  1  0  0  0  0
 21 26  1  0  0  0  0
 27 28  1  0  0  0  0
 27 32  1  0  0  0  0
 28 29  1  0  0  0  0
 28 31  1  0  0  0  0
 28 33  1  0  0  0  0
 29 30  2  0  0  0  0
 29 37  1  0  0  0  0
 31 34  1  0  0  0  0
 31 35  1  0  0  0  0
 31 36  1  0  0  0  0
 37 38  1  0  0  0  0
 37 39  1  0  0  0  0
 38 40  1  0  0  0  0
 38 41  1  0  0  0  0
 38 42  1  0  0  0  0
M  END
$$$$

  -OEChem-05262215353D

 42 41  0     1  0  0  0  0  0999 V2000
   -5.4618   -0.8704    1.8057 C   0  0  0  0  0  0  0  0  0  0  0  0
   -5.8083    0.1650    1.2588 O   0  0  0  0  0  0  0  0  0  0  0  0
   -6.4304   -2.0336    1.9092 C   0  0  0  0  0  0  0  0  0  0  0  0
   -6.5883   -2.2949    2.9583 H   0  0  0  0  0  0  0  0  0  0  0  0
   -7.3923   -1.7645    1.4641 H   0  0  0  0  0  0  0  0  0  0  0  0
   -6.0284   -2.9021    1.3816 H   0  0  0  0  0  0  0  0  0  0  0  0
   -4.1899   -1.0003    2.3225 N   0  0  0  0  0  0  0  0  0  0  0  0
   -3.0920   -0.0620    2.0500 C   0  0  2  0  0  0  0  0  0  0  0  0
   -1.9221   -0.7560    1.3222 C   0  0  0  0  0  0  0  0  0  0  0  0
   -1.8103   -1.9777    1.3651 O   0  0  0  0  0  0  0  0  0  0  0  0
   -2.6183    0.5083    3.3890 C   0  0  0  0  0  0  0  0  0  0  0  0
   -3.9100   -1.9465    2.5753 H   0  0  0  0  0  0  0  0  0  0  0  0
   -3.4336    0.7625    1.4157 H   0  0  0  0  0  0  0  0  0  0  0  0
   -2.2561   -0.2936    4.0405 H   0  0  0  0  0  0  0  0  0  0  0  0
   -1.8032    1.2225    3.2364 H   0  0  0  0  0  0  0  0  0  0  0  0
   -3.4410    1.0244    3.8931 H   0  0  0  0  0  0  0  0  0  0  0  0
   -0.9838   -0.0001    0.6419 N   0  0  0  0  0  0  0  0  0  0  0  0
    0.3628   -0.5161    0.3495 C   0  0  2  0  0  0  0  0  0  0  0  0
    1.3734   -0.1878    1.4778 C   0  0  0  0  0  0  0  0  0  0  0  0
    0.9805    0.0630    2.6119 O   0  0  0  0  0  0  0  0  0  0  0  0
    0.7781    0.0782   -1.0028 C   0  0  0  0  0  0  0  0  0  0  0  0
   -1.0645    1.0017    0.7888 H   0  0  0  0  0  0  0  0  0  0  0  0
    0.3426   -1.6062    0.2434 H   0  0  0  0  0  0  0  0  0  0  0  0
    0.8977    1.1641   -0.9274 H   0  0  0  0  0  0  0  0  0  0  0  0
    1.7226   -0.3561   -1.3445 H   0  0  0  0  0  0  0  0  0  0  0  0
    0.0154   -0.1365   -1.7584 H   0  0  0  0  0  0  0  0  0  0  0  0
    2.7146   -0.0088    1.1935 N   0  0  0  0  0  0  0  0  0  0  0  0
    3.6876    0.6098    2.1029 C   0  0  2  0  0  0  0  0  0  0  0  0
    4.6091    1.5880    1.3452 C   0  0  0  0  0  0  0  0  0  0  0  0
    4.6286    1.5868    0.1185 O   0  0  0  0  0  0  0  0  0  0  0  0
    4.4997   -0.5074    2.7628 C   0  0  0  0  0  0  0  0  0  0  0  0
    2.9775   -0.0275    0.2090 H   0  0  0  0  0  0  0  0  0  0  0  0
    3.1726    1.1857    2.8788 H   0  0  0  0  0  0  0  0  0  0  0  0
    5.0414   -1.0849    2.0066 H   0  0  0  0  0  0  0  0  0  0  0  0
    5.2242   -0.0917    3.4697 H   0  0  0  0  0  0  0  0  0  0  0  0
    3.8350   -1.1847    3.3088 H   0  0  0  0  0  0  0  0  0  0  0  0
    5.3981    2.4887    2.0361 N   0  0  0  0  0  0  0  0  0  0  0  0
    6.2447    3.4772    1.3792 C   0  0  0  0  0  0  0  0  0  0  0  0
    5.3323    2.4922    3.0500 H   0  0  0  0  0  0  0  0  0  0  0  0
    6.9624    2.9861    0.7136 H   0  0  0  0  0  0  0  0  0  0  0  0
    5.6360    4.1709    0.7898 H   0  0  0  0  0  0  0  0  0  0  0  0
    6.8028    4.0528    2.1238 H   0  0  0  0  0  0  0  0  0  0  0  0
  1  2  2  0  0  0  0
  1  3  1  0  0  0  0
  1  7  1  0  0  0  0
  3  4  1  0  0  0  0
  3  5  1  0  0  0  0
  3  6  1  0  0  0  0
  7  8  1  0  0  0  0
  7 12  1  0  0  0  0
  8  9  1  0  0  0  0
  8 11  1  0  0  0  0
  8 13  1  0  0  0  0
  9 10  2  0  0  0  0
  9 17  1  0  0  0  0
 11 14  1  0  0  0  0
 11 15  1  0  0  0  0
 11 16  1  0  0  0  0
 17 18  1  0  0  0  0
 17 22  1  0  0  0  0
 18 19  1  0  0  0  0
 18 21  1  0  0  0  0
 18 23  1  0  0  0  0
 19 20  2  0  0  0  0
 19 27  1  0  0  0  0
 21 24  1  0  0  0  0
 21 25  1  0  0  0  0
 21 26  1  0  0  0  0
 27 28  1  0  0  0  0
 27 32  1  0  0  0  0
 28 29  1  0  0  0  0
 28 31  1  0  0  0  0
 28 33  1  0  0  0  0
 29 30  2  0  0  0  0
 29 37  1  0  0  0  0
 31 34  1  0  0  0  0
 31 35  1  0  0  0  0
 31 36  1  0  0  0  0
 37 38  1  0  0  0  0
 37 39  1  0  0  0  0
 38 40  1  0  0  0  0
 38 41  1  0  0  0  0
 38 42  1  0  0  0  0
M  END
$$$$

  -OEChem-05262215353D

 42 41  0     1  0  0  0  0  0999 V2000
   -5.4535   -0.8714    1.8005 C   0  0  0  0  0  0  0  0  0  0  0  0
   -5.7991    0.1600    1.2455 O   0  0  0  0  0  0  0  0  0  0  0  0
   -6.4209   -2.0353    1.9084 C   0  0  0  0  0  0  0  0  0  0  0  0
   -6.5925   -2.2803    2.9594 H   0  0  0  0  0  0  0  0  0  0  0  0
   -7.3774   -1.7756    1.4460 H   0  0  0  0  0  0  0  0  0  0  0  0
   -6.0097   -2.9110    1.3999 H   0  0  0  0  0  0  0  0  0  0  0  0
   -4.1848   -0.9949    2.3264 N   0  0  0  0  0  0  0  0  0  0  0  0
   -3.0877   -0.0552    2.0553 C   0  0  2  0  0  0  0  0  0  0  0  0
   -1.9112   -0.7492    1.3384 C   0  0  0  0  0  0  0  0  0  0  0  0
   -1.7966   -1.9699    1.3897 O   0  0  0  0  0  0  0  0  0  0  0  0
   -2.6259    0.5231    3.3952 C   0  0  0  0  0  0  0  0  0  0  0  0
   -3.9041   -1.9391    2.5862 H   0  0  0  0  0  0  0  0  0  0  0  0
   -3.4275    0.7648    1.4143 H   0  0  0  0  0  0  0  0  0  0  0  0
   -2.2769   -0.2760    4.0575 H   0  0  0  0  0  0  0  0  0  0  0  0
   -1.8045    1.2309    3.2468 H   0  0  0  0  0  0  0  0  0  0  0  0
   -3.4516    1.0480    3.8854 H   0  0  0  0  0  0  0  0  0  0  0  0
   -0.9814    0.0035    0.6421 N   0  0  0  0  0  0  0  0  0  0  0  0
    0.3666   -0.5060    0.3440 C   0  0  2  0  0  0  0  0  0  0  0  0
    1.3842   -0.1574    1.4606 C   0  0  0  0  0  0  0  0  0  0  0  0
    1.0372   -0.1571    2.6355 O   0  0  0  0  0  0  0  0  0  0  0  0
    0.7610    0.0589   -1.0269 C   0  0  0  0  0  0  0  0  0  0  0  0
   -1.0802    1.0084    0.7494 H   0  0  0  0  0  0  0  0  0  0  0  0
    0.3537   -1.5979    0.2590 H   0  0  0  0  0  0  0  0  0  0  0  0
    0.8517    1.1494   -0.9856 H   0  0  0  0  0  0  0  0  0  0  0  0
    1.7153   -0.3624   -1.3583 H   0  0  0  0  0  0  0  0  0  0  0  0
    0.0012   -0.1982   -1.7721 H   0  0  0  0  0  0  0  0  0  0  0  0
    2.6425    0.3278    1.1525 N   0  0  0  0  0  0  0  0  0  0  0  0
    3.5520    0.9689    2.1116 C   0  0  2  0  0  0  0  0  0  0  0  0
    4.2210    2.2158    1.4969 C   0  0  0  0  0  0  0  0  0  0  0  0
    4.1598    2.4110    0.2872 O   0  0  0  0  0  0  0  0  0  0  0  0
    4.6015   -0.0629    2.5328 C   0  0  0  0  0  0  0  0  0  0  0  0
    2.8323    0.5114    0.1680 H   0  0  0  0  0  0  0  0  0  0  0  0
    3.0003    1.3022    2.9968 H   0  0  0  0  0  0  0  0  0  0  0  0
    5.1809   -0.3965    1.6658 H   0  0  0  0  0  0  0  0  0  0  0  0
    5.2893    0.3651    3.2682 H   0  0  0  0  0  0  0  0  0  0  0  0
    4.1145   -0.9342    2.9827 H   0  0  0  0  0  0  0  0  0  0  0  0
    4.8737    3.1313    2.3014 N   0  0  0  0  0  0  0  0  0  0  0  0
    5.4929    4.3473    1.7883 C   0  0  0  0  0  0  0  0  0  0  0  0
    4.8809    2.9591    3.3028 H   0  0  0  0  0  0  0  0  0  0  0  0
    6.2691    4.1020    1.0558 H   0  0  0  0  0  0  0  0  0  0  0  0
    4.7433    4.9851    1.3081 H   0  0  0  0  0  0  0  0  0  0  0  0
    5.9546    4.9110    2.6046 H   0  0  0  0  0  0  0  0  0  0  0  0
  1  2  2  0  0  0  0
  1  3  1  0  0  0  0
  1  7  1  0  0  0  0
  3  4  1  0  0  0  0
  3  5  1  0  0  0  0
  3  6  1  0  0  0  0
  7  8  1  0  0  0  0
  7 12  1  0  0  0  0
  8  9  1  0  0  0  0
  8 11  1  0  0  0  0
  8 13  1  0  0  0  0
  9 10  2  0  0  0  0
  9 17  1  0  0  0  0
 11 14  1  0  0  0  0
 11 15  1  0  0  0  0
 11 16  1  0  0  0  0
 17 18  1  0  0  0  0
 17 22  1  0  0  0  0
 18 19  1  0  0  0  0
 18 21  1  0  0  0  0
 18 23  1  0  0  0  0
 19 20  2  0  0  0  0
 19 27  1  0  0  0  0
 21 24  1  0  0  0  0
 21 25  1  0  0  0  0
 21 26  1  0  0  0  0
 27 28  1  0  0  0  0
 27 32  1  0  0  0  0
 28 29  1  0  0  0  0
 28 31  1  0  0  0  0
 28 33  1  0  0  0  0
 29 30  2  0  0  0  0
 29 37  1  0  0  0  0
 31 34  1  0  0  0  0
 31 35  1  0  0  0  0
 31 36  1  0  0  0  0
 37 38  1  0  0  0  0
 37 39  1  0  0  0  0
 38 40  1  0  0  0  0
 38 41  1  0  0  0  0
 38 42  1  0  0  0  0
M  END
$$$$

  -OEChem-05262215353D

 42 41  0     1  0  0  0  0  0999 V2000
   -5.4461   -0.8742    1.8023 C   0  0  0  0  0  0  0  0  0  0  0  0
   -5.7964    0.1514    1.2394 O   0  0  0  0  0  0  0  0  0  0  0  0
   -6.4069   -2.0431    1.9138 C   0  0  0  0  0  0  0  0  0  0  0  0
   -6.5643   -2.2983    2.9645 H   0  0  0  0  0  0  0  0  0  0  0  0
   -7.3704   -1.7839    1.4662 H   0  0  0  0  0  0  0  0  0  0  0  0
   -5.9984   -2.9124    1.3925 H   0  0  0  0  0  0  0  0  0  0  0  0
   -4.1774   -0.9862    2.3308 N   0  0  0  0  0  0  0  0  0  0  0  0
   -3.0847   -0.0441    2.0498 C   0  0  2  0  0  0  0  0  0  0  0  0
   -1.9056   -0.7415    1.3397 C   0  0  0  0  0  0  0  0  0  0  0  0
   -1.7923   -1.9618    1.3959 O   0  0  0  0  0  0  0  0  0  0  0  0
   -2.6236    0.5515    3.3822 C   0  0  0  0  0  0  0  0  0  0  0  0
   -3.8912   -1.9276    2.5953 H   0  0  0  0  0  0  0  0  0  0  0  0
   -3.4283    0.7677    1.4003 H   0  0  0  0  0  0  0  0  0  0  0  0
   -2.2680   -0.2383    4.0519 H   0  0  0  0  0  0  0  0  0  0  0  0
   -1.8074    1.2631    3.2237 H   0  0  0  0  0  0  0  0  0  0  0  0
   -3.4516    1.0764    3.8688 H   0  0  0  0  0  0  0  0  0  0  0  0
   -0.9767    0.0081    0.6385 N   0  0  0  0  0  0  0  0  0  0  0  0
    0.3726   -0.4962    0.3384 C   0  0  2  0  0  0  0  0  0  0  0  0
    1.3846   -0.1349    1.4543 C   0  0  0  0  0  0  0  0  0  0  0  0
    1.1305   -0.3906    2.6239 O   0  0  0  0  0  0  0  0  0  0  0  0
    0.7632    0.0525   -1.0401 C   0  0  0  0  0  0  0  0  0  0  0  0
   -1.0878    1.0144    0.7195 H   0  0  0  0  0  0  0  0  0  0  0  0
    0.3652   -1.5896    0.2659 H   0  0  0  0  0  0  0  0  0  0  0  0
    0.8038    1.1466   -1.0281 H   0  0  0  0  0  0  0  0  0  0  0  0
    1.7410   -0.3340   -1.3441 H   0  0  0  0  0  0  0  0  0  0  0  0
    0.0274   -0.2581   -1.7889 H   0  0  0  0  0  0  0  0  0  0  0  0
    2.5021    0.6336    1.1822 N   0  0  0  0  0  0  0  0  0  0  0  0
    3.3402    1.2828    2.1989 C   0  0  2  0  0  0  0  0  0  0  0  0
    3.7126    2.7200    1.7795 C   0  0  0  0  0  0  0  0  0  0  0  0
    3.5018    3.0982    0.6315 O   0  0  0  0  0  0  0  0  0  0  0  0
    4.5950    0.4278    2.3923 C   0  0  0  0  0  0  0  0  0  0  0  0
    2.5761    1.0103    0.2380 H   0  0  0  0  0  0  0  0  0  0  0  0
    2.8027    1.3527    3.1505 H   0  0  0  0  0  0  0  0  0  0  0  0
    5.1599    0.3595    1.4569 H   0  0  0  0  0  0  0  0  0  0  0  0
    5.2429    0.8612    3.1602 H   0  0  0  0  0  0  0  0  0  0  0  0
    4.3169   -0.5833    2.7068 H   0  0  0  0  0  0  0  0  0  0  0  0
    4.2705    3.5961    2.6918 N   0  0  0  0  0  0  0  0  0  0  0  0
    4.6238    4.9726    2.3665 C   0  0  0  0  0  0  0  0  0  0  0  0
    4.4092    3.2628    3.6416 H   0  0  0  0  0  0  0  0  0  0  0  0
    5.3472    4.9994    1.5447 H   0  0  0  0  0  0  0  0  0  0  0  0
    3.7334    5.5369    2.0702 H   0  0  0  0  0  0  0  0  0  0  0  0
    5.0713    5.4641    3.2356 H   0  0  0  0  0  0  0  0  0  0  0  0
  1  2  2  0  0  0  0
  1  3  1  0  0  0  0
  1  7  1  0  0  0  0
  3  4  1  0  0  0  0
  3  5  1  0  0  0  0
  3  6  1  0  0  0  0
  7  8  1  0  0  0  0
  7 12  1  0  0  0  0
  8  9  1  0  0  0  0
  8 11  1  0  0  0  0
  8 13  1  0  0  0  0
  9 10  2  0  0  0  0
  9 17  1  0  0  0  0
 11 14  1  0  0  0  0
 11 15  1  0  0  0  0
 11 16  1  0  0  0  0
 17 18  1  0  0  0  0
 17 22  1  0  0  0  0
 18 19  1  0  0  0  0
 18 21  1  0  0  0  0
 18 23  1  0  0  0  0
 19 20  2  0  0  0  0
 19 27  1  0  0  0  0
 21 24  1  0  0  0  0
 21 25  1  0  0  0  0
 21 26  1  0  0  0  0
 27 28  1  0  0  0  0
 27 32  1  0  0  0  0
 28 29  1  0  0  0  0
 28 31  1  0  0  0  0
 28 33  1  0  0  0  0
 29 30  2  0  0  0  0
 29 37  1  0  0  0  0
 31 34  1  0  0  0  0
 31 35  1  0  0  0  0
 31 36  1  0  0  0  0
 37 38  1  0  0  0  0
 37 39  1  0  0  0  0
 38 40  1  0  0  0  0
 38 41  1  0  0  0  0
 38 42  1  0  0  0  0
M  END
$$$$

  -OEChem-05262215353D

 42 41  0     1  0  0  0  0  0999 V2000
   -5.4690   -0.8236    2.0834 C   0  0  0  0  0  0  0  0  0  0  0  0
   -5.8478    0.3259    1.9210 O   0  0  0  0  0  0  0  0  0  0  0  0
   -6.4794   -1.9405    2.2640 C   0  0  0  0  0  0  0  0  0  0  0  0
   -6.3212   -2.4334    3.2263 H   0  0  0  0  0  0  0  0  0  0  0  0
   -7.4959   -1.5380    2.2372 H   0  0  0  0  0  0  0  0  0  0  0  0
   -6.3700   -2.6757    1.4631 H   0  0  0  0  0  0  0  0  0  0  0  0
   -4.1213   -1.1110    2.1004 N   0  0  0  0  0  0  0  0  0  0  0  0
   -3.0593   -0.1380    1.8181 C   0  0  2  0  0  0  0  0  0  0  0  0
   -1.8459   -0.7987    1.1317 C   0  0  0  0  0  0  0  0  0  0  0  0
   -1.7283   -2.0193    1.1383 O   0  0  0  0  0  0  0  0  0  0  0  0
   -2.6329    0.5024    3.1423 C   0  0  0  0  0  0  0  0  0  0  0  0
   -3.8473   -2.0929    2.1256 H   0  0  0  0  0  0  0  0  0  0  0  0
   -3.4367    0.6376    1.1432 H   0  0  0  0  0  0  0  0  0  0  0  0
   -2.2488   -0.2601    3.8281 H   0  0  0  0  0  0  0  0  0  0  0  0
   -1.8478    1.2463    2.9767 H   0  0  0  0  0  0  0  0  0  0  0  0
   -3.4860    0.9996    3.6150 H   0  0  0  0  0  0  0  0  0  0  0  0
   -0.9031   -0.0158    0.4873 N   0  0  0  0  0  0  0  0  0  0  0  0
    0.4684   -0.4868    0.2363 C   0  0  2  0  0  0  0  0  0  0  0  0
    1.4164   -0.1259    1.4051 C   0  0  0  0  0  0  0  0  0  0  0  0
    1.2571   -0.6278    2.5089 O   0  0  0  0  0  0  0  0  0  0  0  0
    0.9153    0.0956   -1.1104 C   0  0  0  0  0  0  0  0  0  0  0  0
   -1.0372    0.9862    0.5880 H   0  0  0  0  0  0  0  0  0  0  0  0
    0.4884   -1.5787    0.1444 H   0  0  0  0  0  0  0  0  0  0  0  0
    0.8918    1.1899   -1.0931 H   0  0  0  0  0  0  0  0  0  0  0  0
    1.9323   -0.2317   -1.3487 H   0  0  0  0  0  0  0  0  0  0  0  0
    0.2492   -0.2508   -1.9070 H   0  0  0  0  0  0  0  0  0  0  0  0
    2.3333    0.9018    1.2799 N   0  0  0  0  0  0  0  0  0  0  0  0
    3.0273    1.5452    2.4031 C   0  0  2  0  0  0  0  0  0  0  0  0
    3.1402    3.0684    2.1823 C   0  0  0  0  0  0  0  0  0  0  0  0
    2.8219    3.5557    1.1019 O   0  0  0  0  0  0  0  0  0  0  0  0
    4.4106    0.9037    2.5418 C   0  0  0  0  0  0  0  0  0  0  0  0
    2.3052    1.4344    0.4112 H   0  0  0  0  0  0  0  0  0  0  0  0
    2.4665    1.3938    3.3316 H   0  0  0  0  0  0  0  0  0  0  0  0
    4.9979    1.0571    1.6307 H   0  0  0  0  0  0  0  0  0  0  0  0
    4.9547    1.3386    3.3854 H   0  0  0  0  0  0  0  0  0  0  0  0
    4.3104   -0.1726    2.7152 H   0  0  0  0  0  0  0  0  0  0  0  0
    3.5696    3.8990    3.2007 N   0  0  0  0  0  0  0  0  0  0  0  0
    3.6625    5.3479    3.0658 C   0  0  0  0  0  0  0  0  0  0  0  0
    3.8024    3.4709    4.0923 H   0  0  0  0  0  0  0  0  0  0  0  0
    4.3332    5.6140    2.2420 H   0  0  0  0  0  0  0  0  0  0  0  0
    2.6752    5.7791    2.8691 H   0  0  0  0  0  0  0  0  0  0  0  0
    4.0555    5.7897    3.9867 H   0  0  0  0  0  0  0  0  0  0  0  0
  1  2  2  0  0  0  0
  1  3  1  0  0  0  0
  1  7  1  0  0  0  0
  3  4  1  0  0  0  0
  3  5  1  0  0  0  0
  3  6  1  0  0  0  0
  7  8  1  0  0  0  0
  7 12  1  0  0  0  0
  8  9  1  0  0  0  0
  8 11  1  0  0  0  0
  8 13  1  0  0  0  0
  9 10  2  0  0  0  0
  9 17  1  0  0  0  0
 11 14  1  0  0  0  0
 11 15  1  0  0  0  0
 11 16  1  0  0  0  0
 17 18  1  0  0  0  0
 17 22  1  0  0  0  0
 18 19  1  0  0  0  0
 18 21  1  0  0  0  0
 18 23  1  0  0  0  0
 19 20  2  0  0  0  0
 19 27  1  0  0  0  0
 21 24  1  0  0  0  0
 21 25  1  0  0  0  0
 21 26  1  0  0  0  0
 27 28  1  0  0  0  0
 27 32  1  0  0  0  0
 28 29  1  0  0  0  0
 28 31  1  0  0  0  0
 28 33  1  0  0  0  0
 29 30  2  0  0  0  0
 29 37  1  0  0  0  0
 31 34  1  0  0  0  0
 31 35  1  0  0  0  0
 31 36  1  0  0  0  0
 37 38  1  0  0  0  0
 37 39  1  0  0  0  0
 38 40  1  0  0  0  0
 38 41  1  0  0  0  0
 38 42  1  0  0  0  0
M  END
$$$$

  -OEChem-05262215353D

 42 41  0     1  0  0  0  0  0999 V2000
   -5.4706   -0.8949    1.8104 C   0  0  0  0  0  0  0  0  0  0  0  0
   -5.8529    0.1372    1.2814 O   0  0  0  0  0  0  0  0  0  0  0  0
   -6.4081   -2.0825    1.9201 C   0  0  0  0  0  0  0  0  0  0  0  0
   -6.5604   -2.3425    2.9705 H   0  0  0  0  0  0  0  0  0  0  0  0
   -7.3760   -1.8407    1.4725 H   0  0  0  0  0  0  0  0  0  0  0  0
   -5.9833   -2.9427    1.3968 H   0  0  0  0  0  0  0  0  0  0  0  0
   -4.1847   -0.9954    2.2980 N   0  0  0  0  0  0  0  0  0  0  0  0
   -3.1196   -0.0237    2.0150 C   0  0  2  0  0  0  0  0  0  0  0  0
   -1.8749   -0.7127    1.4182 C   0  0  0  0  0  0  0  0  0  0  0  0
   -1.7192   -1.9199    1.5614 O   0  0  0  0  0  0  0  0  0  0  0  0
   -2.7632    0.6819    3.3255 C   0  0  0  0  0  0  0  0  0  0  0  0
   -3.8738   -1.9328    2.5507 H   0  0  0  0  0  0  0  0  0  0  0  0
   -3.4616    0.7225    1.2902 H   0  0  0  0  0  0  0  0  0  0  0  0
   -2.3919   -0.0403    4.0601 H   0  0  0  0  0  0  0  0  0  0  0  0
   -1.9883    1.4363    3.1582 H   0  0  0  0  0  0  0  0  0  0  0  0
   -3.6469    1.1783    3.7392 H   0  0  0  0  0  0  0  0  0  0  0  0
   -0.9478    0.0255    0.7034 N   0  0  0  0  0  0  0  0  0  0  0  0
    0.3996   -0.4693    0.3793 C   0  0  2  0  0  0  0  0  0  0  0  0
    1.4288   -0.1043    1.4735 C   0  0  0  0  0  0  0  0  0  0  0  0
    1.5744   -0.8132    2.4585 O   0  0  0  0  0  0  0  0  0  0  0  0
    0.7767    0.0824   -1.0004 C   0  0  0  0  0  0  0  0  0  0  0  0
   -1.1046    1.0291    0.6811 H   0  0  0  0  0  0  0  0  0  0  0  0
    0.3941   -1.5629    0.3061 H   0  0  0  0  0  0  0  0  0  0  0  0
    0.7549    1.1766   -1.0069 H   0  0  0  0  0  0  0  0  0  0  0  0
    1.7811   -0.2506   -1.2811 H   0  0  0  0  0  0  0  0  0  0  0  0
    0.0704   -0.2807   -1.7539 H   0  0  0  0  0  0  0  0  0  0  0  0
    2.1332    1.0837    1.4019 N   0  0  0  0  0  0  0  0  0  0  0  0
    2.8780    1.6765    2.5201 C   0  0  2  0  0  0  0  0  0  0  0  0
    2.5904    3.1886    2.6353 C   0  0  0  0  0  0  0  0  0  0  0  0
    1.9644    3.7625    1.7491 O   0  0  0  0  0  0  0  0  0  0  0  0
    4.3681    1.4165    2.2872 C   0  0  0  0  0  0  0  0  0  0  0  0
    1.8529    1.7299    0.6660 H   0  0  0  0  0  0  0  0  0  0  0  0
    2.5764    1.2160    3.4671 H   0  0  0  0  0  0  0  0  0  0  0  0
    4.6983    1.8870    1.3556 H   0  0  0  0  0  0  0  0  0  0  0  0
    4.9631    1.8196    3.1120 H   0  0  0  0  0  0  0  0  0  0  0  0
    4.5560    0.3401    2.2205 H   0  0  0  0  0  0  0  0  0  0  0  0
    3.0142    3.9042    3.7396 N   0  0  0  0  0  0  0  0  0  0  0  0
    2.7540    5.3276    3.9200 C   0  0  0  0  0  0  0  0  0  0  0  0
    3.5083    3.3971    4.4686 H   0  0  0  0  0  0  0  0  0  0  0  0
    3.1907    5.9049    3.0980 H   0  0  0  0  0  0  0  0  0  0  0  0
    1.6763    5.5194    3.9513 H   0  0  0  0  0  0  0  0  0  0  0  0
    3.1943    5.6767    4.8591 H   0  0  0  0  0  0  0  0  0  0  0  0
  1  2  2  0  0  0  0
  1  3  1  0  0  0  0
  1  7  1  0  0  0  0
  3  4  1  0  0  0  0
  3  5  1  0  0  0  0
  3  6  1  0  0  0  0
  7  8  1  0  0  0  0
  7 12  1  0  0  0  0
  8  9  1  0  0  0  0
  8 11  1  0  0  0  0
  8 13  1  0  0  0  0
  9 10  2  0  0  0  0
  9 17  1  0  0  0  0
 11 14  1  0  0  0  0
 11 15  1  0  0  0  0
 11 16  1  0  0  0  0
 17 18  1  0  0  0  0
 17 22  1  0  0  0  0
 18 19  1  0  0  0  0
 18 21  1  0  0  0  0
 18 23  1  0  0  0  0
 19 20  2  0  0  0  0
 19 27  1  0  0  0  0
 21 24  1  0  0  0  0
 21 25  1  0  0  0  0
 21 26  1  0  0  0  0
 27 28  1  0  0  0  0
 27 32  1  0  0  0  0
 28 29  1  0  0  0  0
 28 31  1  0  0  0  0
 28 33  1  0  0  0  0
 29 30  2  0  0  0  0
 29 37  1  0  0  0  0
 31 34  1  0  0  0  0
 31 35  1  0  0  0  0
 31 36  1  0  0  0  0
 37 38  1  0  0  0  0
 37 39  1  0  0  0  0
 38 40  1  0  0  0  0
 38 41  1  0  0  0  0
 38 42  1  0  0  0  0
M  END
$$$$

  -OEChem-05262215353D

 42 41  0     1  0  0  0  0  0999 V2000
   -5.1142   -0.2694    2.4956 C   0  0  0  0  0  0  0  0  0  0  0  0
   -5.5558    0.7850    2.0662 O   0  0  0  0  0  0  0  0  0  0  0  0
   -6.0509   -1.2922    3.1110 C   0  0  0  0  0  0  0  0  0  0  0  0
   -5.6906   -1.5820    4.1011 H   0  0  0  0  0  0  0  0  0  0  0  0
   -7.0548   -0.8706    3.2119 H   0  0  0  0  0  0  0  0  0  0  0  0
   -6.1023   -2.1800    2.4760 H   0  0  0  0  0  0  0  0  0  0  0  0
   -3.7648   -0.5387    2.4172 N   0  0  0  0  0  0  0  0  0  0  0  0
   -2.7893    0.2959    1.7038 C   0  0  2  0  0  0  0  0  0  0  0  0
   -1.5843   -0.5412    1.2181 C   0  0  0  0  0  0  0  0  0  0  0  0
   -1.5480   -1.7429    1.4586 O   0  0  0  0  0  0  0  0  0  0  0  0
   -2.3339    1.4211    2.6372 C   0  0  0  0  0  0  0  0  0  0  0  0
   -3.4632   -1.4843    2.6528 H   0  0  0  0  0  0  0  0  0  0  0  0
   -3.2629    0.7331    0.8183 H   0  0  0  0  0  0  0  0  0  0  0  0
   -1.7652    1.0145    3.4794 H   0  0  0  0  0  0  0  0  0  0  0  0
   -1.7045    2.1319    2.0966 H   0  0  0  0  0  0  0  0  0  0  0  0
   -3.1974    1.9667    3.0300 H   0  0  0  0  0  0  0  0  0  0  0  0
   -0.5725    0.0385    0.4702 N   0  0  0  0  0  0  0  0  0  0  0  0
    0.7172   -0.6319    0.2230 C   0  0  2  0  0  0  0  0  0  0  0  0
    1.7517   -0.2913    1.3162 C   0  0  0  0  0  0  0  0  0  0  0  0
    1.8989   -1.0201    2.2864 O   0  0  0  0  0  0  0  0  0  0  0  0
    1.1979   -0.2321   -1.1756 C   0  0  0  0  0  0  0  0  0  0  0  0
   -0.5898    1.0559    0.4433 H   0  0  0  0  0  0  0  0  0  0  0  0
    0.5912   -1.7208    0.2307 H   0  0  0  0  0  0  0  0  0  0  0  0
    1.2973    0.8541   -1.2629 H   0  0  0  0  0  0  0  0  0  0  0  0
    2.1681   -0.6921   -1.3884 H   0  0  0  0  0  0  0  0  0  0  0  0
    0.4821   -0.5750   -1.9293 H   0  0  0  0  0  0  0  0  0  0  0  0
    2.3512    0.9556    1.3138 N   0  0  0  0  0  0  0  0  0  0  0  0
    2.7111    1.6368    2.5635 C   0  0  2  0  0  0  0  0  0  0  0  0
    1.5404    2.5238    3.0356 C   0  0  0  0  0  0  0  0  0  0  0  0
    0.7517    2.9754    2.2091 O   0  0  0  0  0  0  0  0  0  0  0  0
    3.9614    2.4793    2.3056 C   0  0  0  0  0  0  0  0  0  0  0  0
    2.0204    1.5687    0.5736 H   0  0  0  0  0  0  0  0  0  0  0  0
    2.9405    0.9132    3.3528 H   0  0  0  0  0  0  0  0  0  0  0  0
    3.7668    3.2321    1.5349 H   0  0  0  0  0  0  0  0  0  0  0  0
    4.2715    2.9917    3.2215 H   0  0  0  0  0  0  0  0  0  0  0  0
    4.7851    1.8411    1.9708 H   0  0  0  0  0  0  0  0  0  0  0  0
    1.3607    2.8083    4.3758 N   0  0  0  0  0  0  0  0  0  0  0  0
    0.2331    3.5800    4.8845 C   0  0  0  0  0  0  0  0  0  0  0  0
    1.9781    2.3478    5.0389 H   0  0  0  0  0  0  0  0  0  0  0  0
    0.2171    4.5781    4.4342 H   0  0  0  0  0  0  0  0  0  0  0  0
   -0.7114    3.0754    4.6574 H   0  0  0  0  0  0  0  0  0  0  0  0
    0.3111    3.6932    5.9700 H   0  0  0  0  0  0  0  0  0  0  0  0
  1  2  2  0  0  0  0
  1  3  1  0  0  0  0
  1  7  1  0  0  0  0
  3  4  1  0  0  0  0
  3  5  1  0  0  0  0
  3  6  1  0  0  0  0
  7  8  1  0  0  0  0
  7 12  1  0  0  0  0
  8  9  1  0  0  0  0
  8 11  1  0  0  0  0
  8 13  1  0  0  0  0
  9 10  2  0  0  0  0
  9 17  1  0  0  0  0
 11 14  1  0  0  0  0
 11 15  1  0  0  0  0
 11 16  1  0  0  0  0
 17 18  1  0  0  0  0
 17 22  1  0  0  0  0
 18 19  1  0  0  0  0
 18 21  1  0  0  0  0
 18 23  1  0  0  0  0
 19 20  2  0  0  0  0
 19 27  1  0  0  0  0
 21 24  1  0  0  0  0
 21 25  1  0  0  0  0
 21 26  1  0  0  0  0
 27 28  1  0  0  0  0
 27 32  1  0  0  0  0
 28 29  1  0  0  0  0
 28 31  1  0  0  0  0
 28 33  1  0  0  0  0
 29 30  2  0  0  0  0
 29 37  1  0  0  0  0
 31 34  1  0  0  0  0
 31 35  1  0  0  0  0
 31 36  1  0  0  0  0
 37 38  1  0  0  0  0
 37 39  1  0  0  0  0
 38 40  1  0  0  0  0
 38 41  1  0  0  0  0
 38 42  1  0  0  0  0
M  END
$$$$

  -OEChem-05262215353D

 42 41  0     1  0  0  0  0  0999 V2000
   -5.2927   -0.5456    2.2596 C   0  0  0  0  0  0  0  0  0  0  0  0
   -5.7772    0.3607    1.6000 O   0  0  0  0  0  0  0  0  0  0  0  0
   -6.1905   -1.6008    2.8782 C   0  0  0  0  0  0  0  0  0  0  0  0
   -6.0756   -1.5973    3.9649 H   0  0  0  0  0  0  0  0  0  0  0  0
   -7.2367   -1.3969    2.6328 H   0  0  0  0  0  0  0  0  0  0  0  0
   -5.9247   -2.5888    2.4940 H   0  0  0  0  0  0  0  0  0  0  0  0
   -3.9274   -0.6215    2.4344 N   0  0  0  0  0  0  0  0  0  0  0  0
   -2.9555    0.2306    1.7369 C   0  0  2  0  0  0  0  0  0  0  0  0
   -1.6381   -0.5259    1.4586 C   0  0  0  0  0  0  0  0  0  0  0  0
   -1.4636   -1.6440    1.9287 O   0  0  0  0  0  0  0  0  0  0  0  0
   -2.7022    1.4776    2.5887 C   0  0  0  0  0  0  0  0  0  0  0  0
   -3.5597   -1.4702    2.8644 H   0  0  0  0  0  0  0  0  0  0  0  0
   -3.3641    0.5368    0.7679 H   0  0  0  0  0  0  0  0  0  0  0  0
   -2.2373    1.2053    3.5415 H   0  0  0  0  0  0  0  0  0  0  0  0
   -2.0409    2.1723    2.0637 H   0  0  0  0  0  0  0  0  0  0  0  0
   -3.6445    1.9949    2.7948 H   0  0  0  0  0  0  0  0  0  0  0  0
   -0.6664    0.0342    0.6475 N   0  0  0  0  0  0  0  0  0  0  0  0
    0.6548   -0.5740    0.4086 C   0  0  2  0  0  0  0  0  0  0  0  0
    1.7014   -0.1031    1.4384 C   0  0  0  0  0  0  0  0  0  0  0  0
    2.2317   -0.8956    2.2036 O   0  0  0  0  0  0  0  0  0  0  0  0
    1.0853   -0.2328   -1.0205 C   0  0  0  0  0  0  0  0  0  0  0  0
   -0.8295    0.9915    0.3495 H   0  0  0  0  0  0  0  0  0  0  0  0
    0.5872   -1.6654    0.4882 H   0  0  0  0  0  0  0  0  0  0  0  0
    1.1587    0.8499   -1.1610 H   0  0  0  0  0  0  0  0  0  0  0  0
    2.0613   -0.6788   -1.2375 H   0  0  0  0  0  0  0  0  0  0  0  0
    0.3588   -0.6286   -1.7371 H   0  0  0  0  0  0  0  0  0  0  0  0
    1.9992    1.2438    1.5383 N   0  0  0  0  0  0  0  0  0  0  0  0
    2.4902    1.8404    2.7861 C   0  0  2  0  0  0  0  0  0  0  0  0
    1.3192    2.4795    3.5598 C   0  0  0  0  0  0  0  0  0  0  0  0
    0.3720    2.9545    2.9392 O   0  0  0  0  0  0  0  0  0  0  0  0
    3.5439    2.8899    2.4299 C   0  0  0  0  0  0  0  0  0  0  0  0
    1.3921    1.8451    0.9883 H   0  0  0  0  0  0  0  0  0  0  0  0
    2.9572    1.0855    3.4272 H   0  0  0  0  0  0  0  0  0  0  0  0
    3.1104    3.6718    1.7981 H   0  0  0  0  0  0  0  0  0  0  0  0
    3.9402    3.3557    3.3372 H   0  0  0  0  0  0  0  0  0  0  0  0
    4.3734    2.4234    1.8895 H   0  0  0  0  0  0  0  0  0  0  0  0
    1.3174    2.5163    4.9409 N   0  0  0  0  0  0  0  0  0  0  0  0
    0.1918    3.0178    5.7195 C   0  0  0  0  0  0  0  0  0  0  0  0
    2.0649    2.0234    5.4218 H   0  0  0  0  0  0  0  0  0  0  0  0
   -0.0020    4.0688    5.4806 H   0  0  0  0  0  0  0  0  0  0  0  0
   -0.7108    2.4355    5.5069 H   0  0  0  0  0  0  0  0  0  0  0  0
    0.4084    2.9415    6.7893 H   0  0  0  0  0  0  0  0  0  0  0  0
  1  2  2  0  0  0  0
  1  3  1  0  0  0  0
  1  7  1  0  0  0  0
  3  4  1  0  0  0  0
  3  5  1  0  0  0  0
  3  6  1  0  0  0  0
  7  8  1  0  0  0  0
  7 12  1  0  0  0  0
  8  9  1  0  0  0  0
  8 11  1  0  0  0  0
  8 13  1  0  0  0  0
  9 10  2  0  0  0  0
  9 17  1  0  0  0  0
 11 14  1  0  0  0  0
 11 15  1  0  0  0  0
 11 16  1  0  0  0  0
 17 18  1  0  0  0  0
 17 22  1  0  0  0  0
 18 19  1  0  0  0  0
 18 21  1  0  0  0  0
 18 23  1  0  0  0  0
 19 20  2  0  0  0  0
 19 27  1  0  0  0  0
 21 24  1  0  0  0  0
 21 25  1  0  0  0  0
 21 26  1  0  0  0  0
 27 28  1  0  0  0  0
 27 32  1  0  0  0  0
 28 29  1  0  0  0  0
 28 31  1  0  0  0  0
 28 33  1  0  0  0  0
 29 30  2  0  0  0  0
 29 37  1  0  0  0  0
 31 34  1  0  0  0  0
 31 35  1  0  0  0  0
 31 36  1  0  0  0  0
 37 38  1  0  0  0  0
 37 39  1  0  0  0  0
 38 40  1  0  0  0  0
 38 41  1  0  0  0  0
 38 42  1  0  0  0  0
M  END
$$$$

  -OEChem-05262215353D

 42 41  0     1  0  0  0  0  0999 V2000
   -5.4809   -1.0626    1.6782 C   0  0  0  0  0  0  0  0  0  0  0  0
   -5.8779   -0.2185    0.8901 O   0  0  0  0  0  0  0  0  0  0  0  0
   -6.3183   -2.2973    1.9538 C   0  0  0  0  0  0  0  0  0  0  0  0
   -6.5760   -2.3436    3.0146 H   0  0  0  0  0  0  0  0  0  0  0  0
   -7.2410   -2.2669    1.3677 H   0  0  0  0  0  0  0  0  0  0  0  0
   -5.7580   -3.1955    1.6824 H   0  0  0  0  0  0  0  0  0  0  0  0
   -4.2633   -0.9127    2.3083 N   0  0  0  0  0  0  0  0  0  0  0  0
   -3.2621    0.0964    1.9354 C   0  0  2  0  0  0  0  0  0  0  0  0
   -1.9051   -0.5559    1.5994 C   0  0  0  0  0  0  0  0  0  0  0  0
   -1.6335   -1.6679    2.0357 O   0  0  0  0  0  0  0  0  0  0  0  0
   -3.1128    1.0707    3.1067 C   0  0  0  0  0  0  0  0  0  0  0  0
   -3.9094   -1.7329    2.7988 H   0  0  0  0  0  0  0  0  0  0  0  0
   -3.5875    0.6538    1.0508 H   0  0  0  0  0  0  0  0  0  0  0  0
   -2.7661    0.5452    4.0024 H   0  0  0  0  0  0  0  0  0  0  0  0
   -2.3904    1.8563    2.8649 H   0  0  0  0  0  0  0  0  0  0  0  0
   -4.0743    1.5437    3.3293 H   0  0  0  0  0  0  0  0  0  0  0  0
   -0.9726    0.1227    0.8359 N   0  0  0  0  0  0  0  0  0  0  0  0
    0.3569   -0.4103    0.4908 C   0  0  2  0  0  0  0  0  0  0  0  0
    1.4207   -0.0339    1.5400 C   0  0  0  0  0  0  0  0  0  0  0  0
    2.2868   -0.8301    1.8743 O   0  0  0  0  0  0  0  0  0  0  0  0
    0.7466    0.1208   -0.8901 C   0  0  0  0  0  0  0  0  0  0  0  0
   -1.2544    1.0244    0.4623 H   0  0  0  0  0  0  0  0  0  0  0  0
    0.3195   -1.5047    0.4377 H   0  0  0  0  0  0  0  0  0  0  0  0
    0.8043    1.2137   -0.8858 H   0  0  0  0  0  0  0  0  0  0  0  0
    1.7238   -0.2765   -1.1833 H   0  0  0  0  0  0  0  0  0  0  0  0
    0.0096   -0.1891   -1.6375 H   0  0  0  0  0  0  0  0  0  0  0  0
    1.4658    1.2609    2.0183 N   0  0  0  0  0  0  0  0  0  0  0  0
    2.1907    1.6497    3.2321 C   0  0  2  0  0  0  0  0  0  0  0  0
    1.2647    2.4494    4.1732 C   0  0  0  0  0  0  0  0  0  0  0  0
    0.1794    2.8554    3.7650 O   0  0  0  0  0  0  0  0  0  0  0  0
    3.4073    2.4789    2.8152 C   0  0  0  0  0  0  0  0  0  0  0  0
    0.6340    1.8145    1.8229 H   0  0  0  0  0  0  0  0  0  0  0  0
    2.5303    0.7635    3.7791 H   0  0  0  0  0  0  0  0  0  0  0  0
    3.0917    3.3825    2.2841 H   0  0  0  0  0  0  0  0  0  0  0  0
    3.9905    2.7746    3.6924 H   0  0  0  0  0  0  0  0  0  0  0  0
    4.0529    1.8925    2.1532 H   0  0  0  0  0  0  0  0  0  0  0  0
    1.6377    2.7065    5.4790 N   0  0  0  0  0  0  0  0  0  0  0  0
    0.7936    3.4282    6.4233 C   0  0  0  0  0  0  0  0  0  0  0  0
    2.5209    2.3211    5.8017 H   0  0  0  0  0  0  0  0  0  0  0  0
    0.5477    4.4224    6.0351 H   0  0  0  0  0  0  0  0  0  0  0  0
   -0.1370    2.8793    6.6018 H   0  0  0  0  0  0  0  0  0  0  0  0
    1.3129    3.5505    7.3787 H   0  0  0  0  0  0  0  0  0  0  0  0
  1  2  2  0  0  0  0
  1  3  1  0  0  0  0
  1  7  1  0  0  0  0
  3  4  1  0  0  0  0
  3  5  1  0  0  0  0
  3  6  1  0  0  0  0
  7  8  1  0  0  0  0
  7 12  1  0  0  0  0
  8  9  1  0  0  0  0
  8 11  1  0  0  0  0
  8 13  1  0  0  0  0
  9 10  2  0  0  0  0
  9 17  1  0  0  0  0
 11 14  1  0  0  0  0
 11 15  1  0  0  0  0
 11 16  1  0  0  0  0
 17 18  1  0  0  0  0
 17 22  1  0  0  0  0
 18 19  1  0  0  0  0
 18 21  1  0  0  0  0
 18 23  1  0  0  0  0
 19 20  2  0  0  0  0
 19 27  1  0  0  0  0
 21 24  1  0  0  0  0
 21 25  1  0  0  0  0
 21 26  1  0  0  0  0
 27 28  1  0  0  0  0
 27 32  1  0  0  0  0
 28 29  1  0  0  0  0
 28 31  1  0  0  0  0
 28 33  1  0  0  0  0
 29 30  2  0  0  0  0
 29 37  1  0  0  0  0
 31 34  1  0  0  0  0
 31 35  1  0  0  0  0
 31 36  1  0  0  0  0
 37 38  1  0  0  0  0
 37 39  1  0  0  0  0
 38 40  1  0  0  0  0
 38 41  1  0  0  0  0
 38 42  1  0  0  0  0
M  END
$$$$

  -OEChem-05262215353D

 42 41  0     1  0  0  0  0  0999 V2000
   -5.5351   -1.1398    1.6215 C   0  0  0  0  0  0  0  0  0  0  0  0
   -5.9420   -0.2838    0.8518 O   0  0  0  0  0  0  0  0  0  0  0  0
   -6.3799   -2.3677    1.9046 C   0  0  0  0  0  0  0  0  0  0  0  0
   -6.5577   -2.4582    2.9789 H   0  0  0  0  0  0  0  0  0  0  0  0
   -7.3439   -2.2878    1.3941 H   0  0  0  0  0  0  0  0  0  0  0  0
   -5.8660   -3.2647    1.5504 H   0  0  0  0  0  0  0  0  0  0  0  0
   -4.3058   -1.0008    2.2312 N   0  0  0  0  0  0  0  0  0  0  0  0
   -3.3219    0.0328    1.8816 C   0  0  2  0  0  0  0  0  0  0  0  0
   -1.9415   -0.5795    1.5697 C   0  0  0  0  0  0  0  0  0  0  0  0
   -1.6437   -1.6849    2.0054 O   0  0  0  0  0  0  0  0  0  0  0  0
   -3.2198    1.0049    3.0601 C   0  0  0  0  0  0  0  0  0  0  0  0
   -3.9474   -1.8177    2.7237 H   0  0  0  0  0  0  0  0  0  0  0  0
   -3.6444    0.5847    0.9926 H   0  0  0  0  0  0  0  0  0  0  0  0
   -2.8695    0.4857    3.9583 H   0  0  0  0  0  0  0  0  0  0  0  0
   -2.5186    1.8139    2.8339 H   0  0  0  0  0  0  0  0  0  0  0  0
   -4.1984    1.4468    3.2718 H   0  0  0  0  0  0  0  0  0  0  0  0
   -1.0080    0.1378    0.8436 N   0  0  0  0  0  0  0  0  0  0  0  0
    0.3363   -0.3643    0.5086 C   0  0  2  0  0  0  0  0  0  0  0  0
    1.3801   -0.0058    1.5849 C   0  0  0  0  0  0  0  0  0  0  0  0
    2.4045   -0.6631    1.7085 O   0  0  0  0  0  0  0  0  0  0  0  0
    0.7395    0.2201   -0.8468 C   0  0  0  0  0  0  0  0  0  0  0  0
   -1.3134    1.0219    0.4464 H   0  0  0  0  0  0  0  0  0  0  0  0
    0.3180   -1.4569    0.4203 H   0  0  0  0  0  0  0  0  0  0  0  0
    0.7822    1.3128   -0.8006 H   0  0  0  0  0  0  0  0  0  0  0  0
    1.7269   -0.1528   -1.1385 H   0  0  0  0  0  0  0  0  0  0  0  0
    0.0190   -0.0719   -1.6171 H   0  0  0  0  0  0  0  0  0  0  0  0
    1.2204    1.1482    2.3266 N   0  0  0  0  0  0  0  0  0  0  0  0
    1.9797    1.4467    3.5446 C   0  0  2  0  0  0  0  0  0  0  0  0
    1.0449    1.9980    4.6427 C   0  0  0  0  0  0  0  0  0  0  0  0
   -0.1028    2.3332    4.3611 O   0  0  0  0  0  0  0  0  0  0  0  0
    3.0736    2.4576    3.1930 C   0  0  0  0  0  0  0  0  0  0  0  0
    0.2883    1.5569    2.2858 H   0  0  0  0  0  0  0  0  0  0  0  0
    2.4427    0.5338    3.9349 H   0  0  0  0  0  0  0  0  0  0  0  0
    2.6317    3.3857    2.8167 H   0  0  0  0  0  0  0  0  0  0  0  0
    3.6798    2.6907    4.0733 H   0  0  0  0  0  0  0  0  0  0  0  0
    3.7311    2.0462    2.4205 H   0  0  0  0  0  0  0  0  0  0  0  0
    1.4823    2.1067    5.9496 N   0  0  0  0  0  0  0  0  0  0  0  0
    0.6388    2.5810    7.0402 C   0  0  0  0  0  0  0  0  0  0  0  0
    2.4217    1.7814    6.1595 H   0  0  0  0  0  0  0  0  0  0  0  0
    0.2817    3.5960    6.8358 H   0  0  0  0  0  0  0  0  0  0  0  0
   -0.2265    1.9225    7.1695 H   0  0  0  0  0  0  0  0  0  0  0  0
    1.2045    2.5968    7.9768 H   0  0  0  0  0  0  0  0  0  0  0  0
  1  2  2  0  0  0  0
  1  3  1  0  0  0  0
  1  7  1  0  0  0  0
  3  4  1  0  0  0  0
  3  5  1  0  0  0  0
  3  6  1  0  0  0  0
  7  8  1  0  0  0  0
  7 12  1  0  0  0  0
  8  9  1  0  0  0  0
  8 11  1  0  0  0  0
  8 13  1  0  0  0  0
  9 10  2  0  0  0  0
  9 17  1  0  0  0  0
 11 14  1  0  0  0  0
 11 15  1  0  0  0  0
 11 16  1  0  0  0  0
 17 18  1  0  0  0  0
 17 22  1  0  0  0  0
 18 19  1  0  0  0  0
 18 21  1  0  0  0  0
 18 23  1  0  0  0  0
 19 20  2  0  0  0  0
 19 27  1  0  0  0  0
 21 24  1  0  0  0  0
 21 25  1  0  0  0  0
 21 26  1  0  0  0  0
 27 28  1  0  0  0  0
 27 32  1  0  0  0  0
 28 29  1  0  0  0  0
 28 31  1  0  0  0  0
 28 33  1  0  0  0  0
 29 30  2  0  0  0  0
 29 37  1  0  0  0  0
 31 34  1  0  0  0  0
 31 35  1  0  0  0  0
 31 36  1  0  0  0  0
 37 38  1  0  0  0  0
 37 39  1  0  0  0  0
 38 40  1  0  0  0  0
 38 41  1  0  0  0  0
 38 42  1  0  0  0  0
M  END
$$$$

  -OEChem-05262215353D

 42 41  0     1  0  0  0  0  0999 V2000
   -5.5803   -1.1250    1.6425 C   0  0  0  0  0  0  0  0  0  0  0  0
   -6.0143   -0.2132    0.9561 O   0  0  0  0  0  0  0  0  0  0  0  0
   -6.4232   -2.3641    1.8801 C   0  0  0  0  0  0  0  0  0  0  0  0
   -6.5461   -2.5321    2.9528 H   0  0  0  0  0  0  0  0  0  0  0  0
   -7.4112   -2.2406    1.4276 H   0  0  0  0  0  0  0  0  0  0  0  0
   -5.9382   -3.2362    1.4347 H   0  0  0  0  0  0  0  0  0  0  0  0
   -4.3179   -1.0414    2.1911 N   0  0  0  0  0  0  0  0  0  0  0  0
   -3.3390    0.0030    1.8614 C   0  0  2  0  0  0  0  0  0  0  0  0
   -1.9569   -0.6000    1.5396 C   0  0  0  0  0  0  0  0  0  0  0  0
   -1.6608   -1.7177    1.9443 O   0  0  0  0  0  0  0  0  0  0  0  0
   -3.2410    0.9562    3.0556 C   0  0  0  0  0  0  0  0  0  0  0  0
   -3.9489   -1.8879    2.6224 H   0  0  0  0  0  0  0  0  0  0  0  0
   -3.6636    0.5665    0.9805 H   0  0  0  0  0  0  0  0  0  0  0  0
   -2.9021    0.4207    3.9487 H   0  0  0  0  0  0  0  0  0  0  0  0
   -2.5329    1.7641    2.8484 H   0  0  0  0  0  0  0  0  0  0  0  0
   -4.2189    1.4009    3.2652 H   0  0  0  0  0  0  0  0  0  0  0  0
   -1.0158    0.1377    0.8443 N   0  0  0  0  0  0  0  0  0  0  0  0
    0.3381   -0.3505    0.5234 C   0  0  2  0  0  0  0  0  0  0  0  0
    1.3687   -0.0112    1.6208 C   0  0  0  0  0  0  0  0  0  0  0  0
    2.4931   -0.4934    1.5961 O   0  0  0  0  0  0  0  0  0  0  0  0
    0.7541    0.2643   -0.8149 C   0  0  0  0  0  0  0  0  0  0  0  0
   -1.3067    1.0441    0.4878 H   0  0  0  0  0  0  0  0  0  0  0  0
    0.3275   -1.4408    0.4120 H   0  0  0  0  0  0  0  0  0  0  0  0
    0.7991    1.3554   -0.7416 H   0  0  0  0  0  0  0  0  0  0  0  0
    1.7428   -0.1040   -1.1081 H   0  0  0  0  0  0  0  0  0  0  0  0
    0.0397   -0.0079   -1.5980 H   0  0  0  0  0  0  0  0  0  0  0  0
    1.0561    0.9296    2.5820 N   0  0  0  0  0  0  0  0  0  0  0  0
    1.8424    1.1673    3.7954 C   0  0  2  0  0  0  0  0  0  0  0  0
    0.9110    1.4254    4.9989 C   0  0  0  0  0  0  0  0  0  0  0  0
   -0.2727    1.6944    4.8119 O   0  0  0  0  0  0  0  0  0  0  0  0
    2.7619    2.3659    3.5470 C   0  0  0  0  0  0  0  0  0  0  0  0
    0.0690    1.1738    2.6436 H   0  0  0  0  0  0  0  0  0  0  0  0
    2.4498    0.2859    4.0282 H   0  0  0  0  0  0  0  0  0  0  0  0
    2.1732    3.2599    3.3175 H   0  0  0  0  0  0  0  0  0  0  0  0
    3.3759    2.5693    4.4293 H   0  0  0  0  0  0  0  0  0  0  0  0
    3.4281    2.1614    2.7027 H   0  0  0  0  0  0  0  0  0  0  0  0
    1.3918    1.3392    6.2922 N   0  0  0  0  0  0  0  0  0  0  0  0
    0.5485    1.5049    7.4702 C   0  0  0  0  0  0  0  0  0  0  0  0
    2.3611    1.0602    6.4161 H   0  0  0  0  0  0  0  0  0  0  0  0
    0.0624    2.4863    7.4606 H   0  0  0  0  0  0  0  0  0  0  0  0
   -0.2244    0.7297    7.5002 H   0  0  0  0  0  0  0  0  0  0  0  0
    1.1508    1.4286    8.3805 H   0  0  0  0  0  0  0  0  0  0  0  0
  1  2  2  0  0  0  0
  1  3  1  0  0  0  0
  1  7  1  0  0  0  0
  3  4  1  0  0  0  0
  3  5  1  0  0  0  0
  3  6  1  0  0  0  0
  7  8  1  0  0  0  0
  7 12  1  0  0  0  0
  8  9  1  0  0  0  0
  8 11  1  0  0  0  0
  8 13  1  0  0  0  0
  9 10  2  0  0  0  0
  9 17  1  0  0  0  0
 11 14  1  0  0  0  0
 11 15  1  0  0  0  0
 11 16  1  0  0  0  0
 17 18  1  0  0  0  0
 17 22  1  0  0  0  0
 18 19  1  0  0  0  0
 18 21  1  0  0  0  0
 18 23  1  0  0  0  0
 19 20  2  0  0  0  0
 19 27  1  0  0  0  0
 21 24  1  0  0  0  0
 21 25  1  0  0  0  0
 21 26  1  0  0  0  0
 27 28  1  0  0  0  0
 27 32  1  0  0  0  0
 28 29  1  0  0  0  0
 28 31  1  0  0  0  0
 28 33  1  0  0  0  0
 29 30  2  0  0  0  0
 29 37  1  0  0  0  0
 31 34  1  0  0  0  0
 31 35  1  0  0  0  0
 31 36  1  0  0  0  0
 37 38  1  0  0  0  0
 37 39  1  0  0  0  0
 38 40  1  0  0  0  0
 38 41  1  0  0  0  0
 38 42  1  0  0  0  0
M  END
$$$$

  -OEChem-05262215353D

 42 41  0     1  0  0  0  0  0999 V2000
   -5.6043   -1.1465    1.6401 C   0  0  0  0  0  0  0  0  0  0  0  0
   -6.0525   -0.2099    0.9977 O   0  0  0  0  0  0  0  0  0  0  0  0
   -6.4580   -2.3759    1.8884 C   0  0  0  0  0  0  0  0  0  0  0  0
   -6.6027   -2.5190    2.9620 H   0  0  0  0  0  0  0  0  0  0  0  0
   -7.4363   -2.2573    1.4143 H   0  0  0  0  0  0  0  0  0  0  0  0
   -5.9694   -3.2603    1.4725 H   0  0  0  0  0  0  0  0  0  0  0  0
   -4.3209   -1.0934    2.1412 N   0  0  0  0  0  0  0  0  0  0  0  0
   -3.3527   -0.0312    1.8382 C   0  0  2  0  0  0  0  0  0  0  0  0
   -1.9693   -0.6079    1.4745 C   0  0  0  0  0  0  0  0  0  0  0  0
   -1.6648   -1.7454    1.8114 O   0  0  0  0  0  0  0  0  0  0  0  0
   -3.2477    0.8715    3.0710 C   0  0  0  0  0  0  0  0  0  0  0  0
   -3.9463   -1.9513    2.5440 H   0  0  0  0  0  0  0  0  0  0  0  0
   -3.6943    0.5637    0.9846 H   0  0  0  0  0  0  0  0  0  0  0  0
   -2.8908    0.3013    3.9354 H   0  0  0  0  0  0  0  0  0  0  0  0
   -2.5514    1.6958    2.8897 H   0  0  0  0  0  0  0  0  0  0  0  0
   -4.2275    1.2947    3.3145 H   0  0  0  0  0  0  0  0  0  0  0  0
   -1.0247    0.1775    0.8381 N   0  0  0  0  0  0  0  0  0  0  0  0
    0.3339   -0.2835    0.4953 C   0  0  2  0  0  0  0  0  0  0  0  0
    1.3591   -0.0173    1.6204 C   0  0  0  0  0  0  0  0  0  0  0  0
    2.5435   -0.2866    1.4692 O   0  0  0  0  0  0  0  0  0  0  0  0
    0.7449    0.4195   -0.8019 C   0  0  0  0  0  0  0  0  0  0  0  0
   -1.3067    1.1141    0.5614 H   0  0  0  0  0  0  0  0  0  0  0  0
    0.3292   -1.3638    0.3117 H   0  0  0  0  0  0  0  0  0  0  0  0
    0.8026    1.5022   -0.6524 H   0  0  0  0  0  0  0  0  0  0  0  0
    1.7264    0.0630   -1.1317 H   0  0  0  0  0  0  0  0  0  0  0  0
    0.0202    0.2108   -1.5951 H   0  0  0  0  0  0  0  0  0  0  0  0
    0.9508    0.5939    2.7893 N   0  0  0  0  0  0  0  0  0  0  0  0
    1.7701    0.7316    3.9961 C   0  0  2  0  0  0  0  0  0  0  0  0
    0.8802    0.7309    5.2572 C   0  0  0  0  0  0  0  0  0  0  0  0
   -0.3308    0.9069    5.1558 O   0  0  0  0  0  0  0  0  0  0  0  0
    2.5722    2.0329    3.9011 C   0  0  0  0  0  0  0  0  0  0  0  0
   -0.0575    0.6534    2.9255 H   0  0  0  0  0  0  0  0  0  0  0  0
    2.4594   -0.1159    4.0732 H   0  0  0  0  0  0  0  0  0  0  0  0
    1.8985    2.8924    3.8259 H   0  0  0  0  0  0  0  0  0  0  0  0
    3.2044    2.1608    4.7848 H   0  0  0  0  0  0  0  0  0  0  0  0
    3.2169    2.0171    3.0166 H   0  0  0  0  0  0  0  0  0  0  0  0
    1.4334    0.5246    6.5073 N   0  0  0  0  0  0  0  0  0  0  0  0
    0.6457    0.4791    7.7333 C   0  0  0  0  0  0  0  0  0  0  0  0
    2.4320    0.3434    6.5562 H   0  0  0  0  0  0  0  0  0  0  0  0
    0.1052    1.4208    7.8771 H   0  0  0  0  0  0  0  0  0  0  0  0
   -0.0791   -0.3409    7.6928 H   0  0  0  0  0  0  0  0  0  0  0  0
    1.2987    0.3213    8.5971 H   0  0  0  0  0  0  0  0  0  0  0  0
  1  2  2  0  0  0  0
  1  3  1  0  0  0  0
  1  7  1  0  0  0  0
  3  4  1  0  0  0  0
  3  5  1  0  0  0  0
  3  6  1  0  0  0  0
  7  8  1  0  0  0  0
  7 12  1  0  0  0  0
  8  9  1  0  0  0  0
  8 11  1  0  0  0  0
  8 13  1  0  0  0  0
  9 10  2  0  0  0  0
  9 17  1  0  0  0  0
 11 14  1  0  0  0  0
 11 15  1  0  0  0  0
 11 16  1  0  0  0  0
 17 18  1  0  0  0  0
 17 22  1  0  0  0  0
 18 19  1  0  0  0  0
 18 21  1  0  0  0  0
 18 23  1  0  0  0  0
 19 20  2  0  0  0  0
 19 27  1  0  0  0  0
 21 24  1  0  0  0  0
 21 25  1  0  0  0  0
 21 26  1  0  0  0  0
 27 28  1  0  0  0  0
 27 32  1  0  0  0  0
 28 29  1  0  0  0  0
 28 31  1  0  0  0  0
 28 33  1  0  0  0  0
 29 30  2  0  0  0  0
 29 37  1  0  0  0  0
 31 34  1  0  0  0  0
 31 35  1  0  0  0  0
 31 36  1  0  0  0  0
 37 38  1  0  0  0  0
 37 39  1  0  0  0  0
 38 40  1  0  0  0  0
 38 41  1  0  0  0  0
 38 42  1  0  0  0  0
M  END
$$$$

  -OEChem-05262215353D

 42 41  0     1  0  0  0  0  0999 V2000
   -5.6001   -1.1105    1.6432 C   0  0  0  0  0  0  0  0  0  0  0  0
   -6.0384   -0.1511    1.0282 O   0  0  0  0  0  0  0  0  0  0  0  0
   -6.4506   -2.3547    1.8153 C   0  0  0  0  0  0  0  0  0  0  0  0
   -6.6174   -2.5490    2.8775 H   0  0  0  0  0  0  0  0  0  0  0  0
   -7.4186   -2.2202    1.3243 H   0  0  0  0  0  0  0  0  0  0  0  0
   -5.9465   -3.2158    1.3699 H   0  0  0  0  0  0  0  0  0  0  0  0
   -4.3271   -1.0756    2.1720 N   0  0  0  0  0  0  0  0  0  0  0  0
   -3.3440   -0.0203    1.8944 C   0  0  2  0  0  0  0  0  0  0  0  0
   -1.9869   -0.6097    1.4608 C   0  0  0  0  0  0  0  0  0  0  0  0
   -1.6997   -1.7692    1.7318 O   0  0  0  0  0  0  0  0  0  0  0  0
   -3.1796    0.8142    3.1675 C   0  0  0  0  0  0  0  0  0  0  0  0
   -3.9593   -1.9535    2.5364 H   0  0  0  0  0  0  0  0  0  0  0  0
   -3.6949    0.6272    1.0840 H   0  0  0  0  0  0  0  0  0  0  0  0
   -2.8093    0.1920    3.9894 H   0  0  0  0  0  0  0  0  0  0  0  0
   -2.4706    1.6312    3.0048 H   0  0  0  0  0  0  0  0  0  0  0  0
   -4.1411    1.2461    3.4627 H   0  0  0  0  0  0  0  0  0  0  0  0
   -1.0313    0.1901    0.8613 N   0  0  0  0  0  0  0  0  0  0  0  0
    0.3173   -0.2739    0.4862 C   0  0  2  0  0  0  0  0  0  0  0  0
    1.3495   -0.0818    1.6221 C   0  0  0  0  0  0  0  0  0  0  0  0
    2.5528   -0.0973    1.3957 O   0  0  0  0  0  0  0  0  0  0  0  0
    0.7224    0.4829   -0.7838 C   0  0  0  0  0  0  0  0  0  0  0  0
   -1.2797    1.1598    0.6847 H   0  0  0  0  0  0  0  0  0  0  0  0
    0.2934   -1.3437    0.2510 H   0  0  0  0  0  0  0  0  0  0  0  0
    0.8093    1.5552   -0.5821 H   0  0  0  0  0  0  0  0  0  0  0  0
    1.6886    0.1210   -1.1504 H   0  0  0  0  0  0  0  0  0  0  0  0
   -0.0211    0.3311   -1.5724 H   0  0  0  0  0  0  0  0  0  0  0  0
    0.9131    0.1748    2.9070 N   0  0  0  0  0  0  0  0  0  0  0  0
    1.7722    0.2978    4.0882 C   0  0  2  0  0  0  0  0  0  0  0  0
    0.9812   -0.0099    5.3774 C   0  0  0  0  0  0  0  0  0  0  0  0
   -0.2458    0.0202    5.3687 O   0  0  0  0  0  0  0  0  0  0  0  0
    2.3371    1.7213    4.1434 C   0  0  0  0  0  0  0  0  0  0  0  0
   -0.0797    0.0188    3.0815 H   0  0  0  0  0  0  0  0  0  0  0  0
    2.5958   -0.4208    4.0173 H   0  0  0  0  0  0  0  0  0  0  0  0
    1.5242    2.4512    4.2131 H   0  0  0  0  0  0  0  0  0  0  0  0
    2.9901    1.8421    5.0128 H   0  0  0  0  0  0  0  0  0  0  0  0
    2.9212    1.9357    3.2430 H   0  0  0  0  0  0  0  0  0  0  0  0
    1.6444   -0.3129    6.5524 N   0  0  0  0  0  0  0  0  0  0  0  0
    0.9593   -0.6200    7.8024 C   0  0  0  0  0  0  0  0  0  0  0  0
    2.6592   -0.3522    6.5240 H   0  0  0  0  0  0  0  0  0  0  0  0
    0.3427    0.2274    8.1201 H   0  0  0  0  0  0  0  0  0  0  0  0
    0.3163   -1.4981    7.6819 H   0  0  0  0  0  0  0  0  0  0  0  0
    1.6876   -0.8311    8.5915 H   0  0  0  0  0  0  0  0  0  0  0  0
  1  2  2  0  0  0  0
  1  3  1  0  0  0  0
  1  7  1  0  0  0  0
  3  4  1  0  0  0  0
  3  5  1  0  0  0  0
  3  6  1  0  0  0  0
  7  8  1  0  0  0  0
  7 12  1  0  0  0  0
  8  9  1  0  0  0  0
  8 11  1  0  0  0  0
  8 13  1  0  0  0  0
  9 10  2  0  0  0  0
  9 17  1  0  0  0  0
 11 14  1  0  0  0  0
 11 15  1  0  0  0  0
 11 16  1  0  0  0  0
 17 18  1  0  0  0  0
 17 22  1  0  0  0  0
 18 19  1  0  0  0  0
 18 21  1  0  0  0  0
 18 23  1  0  0  0  0
 19 20  2  0  0  0  0
 19 27  1  0  0  0  0
 21 24  1  0  0  0  0
 21 25  1  0  0  0  0
 21 26  1  0  0  0  0
 27 28  1  0  0  0  0
 27 32  1  0  0  0  0
 28 29  1  0  0  0  0
 28 31  1  0  0  0  0
 28 33  1  0  0  0  0
 29 30  2  0  0  0  0
 29 37  1  0  0  0  0
 31 34  1  0  0  0  0
 31 35  1  0  0  0  0
 31 36  1  0  0  0  0
 37 38  1  0  0  0  0
 37 39  1  0  0  0  0
 38 40  1  0  0  0  0
 38 41  1  0  0  0  0
 38 42  1  0  0  0  0
M  END
$$$$

  -OEChem-05262215353D

 42 41  0     1  0  0  0  0  0999 V2000
   -5.5112   -1.1096    1.6135 C   0  0  0  0  0  0  0  0  0  0  0  0
   -5.8807   -0.1983    0.8895 O   0  0  0  0  0  0  0  0  0  0  0  0
   -6.3750   -2.3465    1.7750 C   0  0  0  0  0  0  0  0  0  0  0  0
   -6.6203   -2.4957    2.8294 H   0  0  0  0  0  0  0  0  0  0  0  0
   -7.3048   -2.2342    1.2103 H   0  0  0  0  0  0  0  0  0  0  0  0
   -5.8415   -3.2250    1.4038 H   0  0  0  0  0  0  0  0  0  0  0  0
   -4.3065   -1.0265    2.2800 N   0  0  0  0  0  0  0  0  0  0  0  0
   -3.2949    0.0104    2.0324 C   0  0  2  0  0  0  0  0  0  0  0  0
   -1.9741   -0.5919    1.5137 C   0  0  0  0  0  0  0  0  0  0  0  0
   -1.6773   -1.7520    1.7723 O   0  0  0  0  0  0  0  0  0  0  0  0
   -3.0564    0.7491    3.3522 C   0  0  0  0  0  0  0  0  0  0  0  0
   -3.9780   -1.8828    2.7234 H   0  0  0  0  0  0  0  0  0  0  0  0
   -3.6483    0.7280    1.2848 H   0  0  0  0  0  0  0  0  0  0  0  0
   -2.6723    0.0622    4.1141 H   0  0  0  0  0  0  0  0  0  0  0  0
   -2.3302    1.5563    3.2166 H   0  0  0  0  0  0  0  0  0  0  0  0
   -3.9927    1.1841    3.7156 H   0  0  0  0  0  0  0  0  0  0  0  0
   -1.0288    0.2076    0.8988 N   0  0  0  0  0  0  0  0  0  0  0  0
    0.2960   -0.2687    0.4638 C   0  0  2  0  0  0  0  0  0  0  0  0
    1.3561   -0.1132    1.5800 C   0  0  0  0  0  0  0  0  0  0  0  0
    2.5313    0.1189    1.3249 O   0  0  0  0  0  0  0  0  0  0  0  0
    0.6634    0.5077   -0.8068 C   0  0  0  0  0  0  0  0  0  0  0  0
   -1.2691    1.1836    0.7483 H   0  0  0  0  0  0  0  0  0  0  0  0
    0.2496   -1.3328    0.2073 H   0  0  0  0  0  0  0  0  0  0  0  0
    0.7651    1.5758   -0.5897 H   0  0  0  0  0  0  0  0  0  0  0  0
    1.6132    0.1453   -1.2132 H   0  0  0  0  0  0  0  0  0  0  0  0
   -0.1083    0.3755   -1.5715 H   0  0  0  0  0  0  0  0  0  0  0  0
    0.9582   -0.1934    2.9003 N   0  0  0  0  0  0  0  0  0  0  0  0
    1.8399   -0.0988    4.0678 C   0  0  2  0  0  0  0  0  0  0  0  0
    1.1673   -0.7003    5.3199 C   0  0  0  0  0  0  0  0  0  0  0  0
   -0.0528   -0.8204    5.3683 O   0  0  0  0  0  0  0  0  0  0  0  0
    2.1839    1.3738    4.3192 C   0  0  0  0  0  0  0  0  0  0  0  0
    0.0117   -0.5429    3.0636 H   0  0  0  0  0  0  0  0  0  0  0  0
    2.7587   -0.6618    3.8732 H   0  0  0  0  0  0  0  0  0  0  0  0
    1.2724    1.9515    4.5039 H   0  0  0  0  0  0  0  0  0  0  0  0
    2.8414    1.4710    5.1883 H   0  0  0  0  0  0  0  0  0  0  0  0
    2.6974    1.8012    3.4525 H   0  0  0  0  0  0  0  0  0  0  0  0
    1.9298   -1.0980    6.4028 N   0  0  0  0  0  0  0  0  0  0  0  0
    1.3594   -1.6889    7.6077 C   0  0  0  0  0  0  0  0  0  0  0  0
    2.9390   -1.0074    6.3277 H   0  0  0  0  0  0  0  0  0  0  0  0
    0.6450   -0.9998    8.0708 H   0  0  0  0  0  0  0  0  0  0  0  0
    0.8418   -2.6240    7.3686 H   0  0  0  0  0  0  0  0  0  0  0  0
    2.1491   -1.9067    8.3334 H   0  0  0  0  0  0  0  0  0  0  0  0
  1  2  2  0  0  0  0
  1  3  1  0  0  0  0
  1  7  1  0  0  0  0
  3  4  1  0  0  0  0
  3  5  1  0  0  0  0
  3  6  1  0  0  0  0
  7  8  1  0  0  0  0
  7 12  1  0  0  0  0
  8  9  1  0  0  0  0
  8 11  1  0  0  0  0
  8 13  1  0  0  0  0
  9 10  2  0  0  0  0
  9 17  1  0  0  0  0
 11 14  1  0  0  0  0
 11 15  1  0  0  0  0
 11 16  1  0  0  0  0
 17 18  1  0  0  0  0
 17 22  1  0  0  0  0
 18 19  1  0  0  0  0
 18 21  1  0  0  0  0
 18 23  1  0  0  0  0
 19 20  2  0  0  0  0
 19 27  1  0  0  0  0
 21 24  1  0  0  0  0
 21 25  1  0  0  0  0
 21 26  1  0  0  0  0
 27 28  1  0  0  0  0
 27 32  1  0  0  0  0
 28 29  1  0  0  0  0
 28 31  1  0  0  0  0
 28 33  1  0  0  0  0
 29 30  2  0  0  0  0
 29 37  1  0  0  0  0
 31 34  1  0  0  0  0
 31 35  1  0  0  0  0
 31 36  1  0  0  0  0
 37 38  1  0  0  0  0
 37 39  1  0  0  0  0
 38 40  1  0  0  0  0
 38 41  1  0  0  0  0
 38 42  1  0  0  0  0
M  END
$$$$

  -OEChem-05262215353D

 42 41  0     1  0  0  0  0  0999 V2000
   -5.5071   -1.0863    1.6756 C   0  0  0  0  0  0  0  0  0  0  0  0
   -5.9062   -0.1514    0.9991 O   0  0  0  0  0  0  0  0  0  0  0  0
   -6.3732   -2.3196    1.8520 C   0  0  0  0  0  0  0  0  0  0  0  0
   -6.5630   -2.4932    2.9141 H   0  0  0  0  0  0  0  0  0  0  0  0
   -7.3307   -2.1849    1.3407 H   0  0  0  0  0  0  0  0  0  0  0  0
   -5.8688   -3.1931    1.4316 H   0  0  0  0  0  0  0  0  0  0  0  0
   -4.2677   -1.0309    2.2783 N   0  0  0  0  0  0  0  0  0  0  0  0
   -3.2675    0.0143    2.0197 C   0  0  2  0  0  0  0  0  0  0  0  0
   -1.9293   -0.5834    1.5414 C   0  0  0  0  0  0  0  0  0  0  0  0
   -1.6318   -1.7396    1.8181 O   0  0  0  0  0  0  0  0  0  0  0  0
   -3.0661    0.7973    3.3200 C   0  0  0  0  0  0  0  0  0  0  0  0
   -3.9225   -1.8995    2.6844 H   0  0  0  0  0  0  0  0  0  0  0  0
   -3.6174    0.7015    1.2425 H   0  0  0  0  0  0  0  0  0  0  0  0
   -2.6973    0.1376    4.1130 H   0  0  0  0  0  0  0  0  0  0  0  0
   -2.3414    1.6043    3.1746 H   0  0  0  0  0  0  0  0  0  0  0  0
   -4.0136    1.2386    3.6457 H   0  0  0  0  0  0  0  0  0  0  0  0
   -0.9826    0.2057    0.9158 N   0  0  0  0  0  0  0  0  0  0  0  0
    0.3298   -0.2887    0.4674 C   0  0  2  0  0  0  0  0  0  0  0  0
    1.3937   -0.1414    1.5796 C   0  0  0  0  0  0  0  0  0  0  0  0
    2.4991    0.3394    1.3603 O   0  0  0  0  0  0  0  0  0  0  0  0
    0.6962    0.4726   -0.8129 C   0  0  0  0  0  0  0  0  0  0  0  0
   -1.2233    1.1773    0.7404 H   0  0  0  0  0  0  0  0  0  0  0  0
    0.2681   -1.3532    0.2165 H   0  0  0  0  0  0  0  0  0  0  0  0
    0.8086    1.5419   -0.6070 H   0  0  0  0  0  0  0  0  0  0  0  0
    1.6412    0.0980   -1.2197 H   0  0  0  0  0  0  0  0  0  0  0  0
   -0.0805    0.3398   -1.5723 H   0  0  0  0  0  0  0  0  0  0  0  0
    1.0698   -0.5186    2.8683 N   0  0  0  0  0  0  0  0  0  0  0  0
    1.9636   -0.4241    4.0280 C   0  0  2  0  0  0  0  0  0  0  0  0
    1.5311   -1.3730    5.1650 C   0  0  0  0  0  0  0  0  0  0  0  0
    0.3696   -1.7564    5.2452 O   0  0  0  0  0  0  0  0  0  0  0  0
    1.9674    1.0238    4.5321 C   0  0  0  0  0  0  0  0  0  0  0  0
    0.1857   -1.0219    2.9898 H   0  0  0  0  0  0  0  0  0  0  0  0
    2.9772   -0.7070    3.7254 H   0  0  0  0  0  0  0  0  0  0  0  0
    0.9573    1.3280    4.8249 H   0  0  0  0  0  0  0  0  0  0  0  0
    2.6279    1.1259    5.3982 H   0  0  0  0  0  0  0  0  0  0  0  0
    2.3217    1.7018    3.7494 H   0  0  0  0  0  0  0  0  0  0  0  0
    2.4458   -1.7829    6.1179 N   0  0  0  0  0  0  0  0  0  0  0  0
    2.1108   -2.6915    7.2079 C   0  0  0  0  0  0  0  0  0  0  0  0
    3.4075   -1.4731    6.0117 H   0  0  0  0  0  0  0  0  0  0  0  0
    1.2888   -2.2855    7.8073 H   0  0  0  0  0  0  0  0  0  0  0  0
    1.8105   -3.6678    6.8130 H   0  0  0  0  0  0  0  0  0  0  0  0
    2.9758   -2.8340    7.8629 H   0  0  0  0  0  0  0  0  0  0  0  0
  1  2  2  0  0  0  0
  1  3  1  0  0  0  0
  1  7  1  0  0  0  0
  3  4  1  0  0  0  0
  3  5  1  0  0  0  0
  3  6  1  0  0  0  0
  7  8  1  0  0  0  0
  7 12  1  0  0  0  0
  8  9  1  0  0  0  0
  8 11  1  0  0  0  0
  8 13  1  0  0  0  0
  9 10  2  0  0  0  0
  9 17  1  0  0  0  0
 11 14  1  0  0  0  0
 11 15  1  0  0  0  0
 11 16  1  0  0  0  0
 17 18  1  0  0  0  0
 17 22  1  0  0  0  0
 18 19  1  0  0  0  0
 18 21  1  0  0  0  0
 18 23  1  0  0  0  0
 19 20  2  0  0  0  0
 19 27  1  0  0  0  0
 21 24  1  0  0  0  0
 21 25  1  0  0  0  0
 21 26  1  0  0  0  0
 27 28  1  0  0  0  0
 27 32  1  0  0  0  0
 28 29  1  0  0  0  0
 28 31  1  0  0  0  0
 28 33  1  0  0  0  0
 29 30  2  0  0  0  0
 29 37  1  0  0  0  0
 31 34  1  0  0  0  0
 31 35  1  0  0  0  0
 31 36  1  0  0  0  0
 37 38  1  0  0  0  0
 37 39  1  0  0  0  0
 38 40  1  0  0  0  0
 38 41  1  0  0  0  0
 38 42  1  0  0  0  0
M  END
$$$$

  -OEChem-05262215353D

 42 41  0     1  0  0  0  0  0999 V2000
   -5.5300   -1.0683    1.7734 C   0  0  0  0  0  0  0  0  0  0  0  0
   -5.9836   -0.0899    1.2008 O   0  0  0  0  0  0  0  0  0  0  0  0
   -6.3950   -2.2976    1.9789 C   0  0  0  0  0  0  0  0  0  0  0  0
   -6.5271   -2.4865    3.0471 H   0  0  0  0  0  0  0  0  0  0  0  0
   -7.3777   -2.1475    1.5228 H   0  0  0  0  0  0  0  0  0  0  0  0
   -5.9226   -3.1681    1.5177 H   0  0  0  0  0  0  0  0  0  0  0  0
   -4.2299   -1.0603    2.2335 N   0  0  0  0  0  0  0  0  0  0  0  0
   -3.2554    0.0011    1.9466 C   0  0  2  0  0  0  0  0  0  0  0  0
   -1.8848   -0.5805    1.5461 C   0  0  0  0  0  0  0  0  0  0  0  0
   -1.5840   -1.7294    1.8505 O   0  0  0  0  0  0  0  0  0  0  0  0
   -3.1237    0.8709    3.1992 C   0  0  0  0  0  0  0  0  0  0  0  0
   -3.8554   -1.9451    2.5746 H   0  0  0  0  0  0  0  0  0  0  0  0
   -3.6024    0.6212    1.1133 H   0  0  0  0  0  0  0  0  0  0  0  0
   -2.7609    0.2747    4.0429 H   0  0  0  0  0  0  0  0  0  0  0  0
   -2.4220    1.6924    3.0262 H   0  0  0  0  0  0  0  0  0  0  0  0
   -4.0961    1.2972    3.4661 H   0  0  0  0  0  0  0  0  0  0  0  0
   -0.9384    0.2023    0.9126 N   0  0  0  0  0  0  0  0  0  0  0  0
    0.3737   -0.2986    0.4766 C   0  0  2  0  0  0  0  0  0  0  0  0
    1.4303   -0.1336    1.5920 C   0  0  0  0  0  0  0  0  0  0  0  0
    2.4290    0.5605    1.4409 O   0  0  0  0  0  0  0  0  0  0  0  0
    0.7428    0.4427   -0.8144 C   0  0  0  0  0  0  0  0  0  0  0  0
   -1.1822    1.1688    0.7142 H   0  0  0  0  0  0  0  0  0  0  0  0
    0.3144   -1.3667    0.2391 H   0  0  0  0  0  0  0  0  0  0  0  0
    0.8359    1.5177   -0.6299 H   0  0  0  0  0  0  0  0  0  0  0  0
    1.6982    0.0748   -1.2019 H   0  0  0  0  0  0  0  0  0  0  0  0
   -0.0233    0.2826   -1.5791 H   0  0  0  0  0  0  0  0  0  0  0  0
    1.2289   -0.7662    2.8032 N   0  0  0  0  0  0  0  0  0  0  0  0
    2.1514   -0.7108    3.9444 C   0  0  2  0  0  0  0  0  0  0  0  0
    2.0330   -1.9489    4.8575 C   0  0  0  0  0  0  0  0  0  0  0  0
    1.0315   -2.6537    4.8276 O   0  0  0  0  0  0  0  0  0  0  0  0
    1.8588    0.5639    4.7433 C   0  0  0  0  0  0  0  0  0  0  0  0
    0.4155   -1.3864    2.8727 H   0  0  0  0  0  0  0  0  0  0  0  0
    3.1818   -0.6773    3.5751 H   0  0  0  0  0  0  0  0  0  0  0  0
    0.8306    0.5514    5.1190 H   0  0  0  0  0  0  0  0  0  0  0  0
    2.5406    0.6490    5.5948 H   0  0  0  0  0  0  0  0  0  0  0  0
    1.9881    1.4476    4.1106 H   0  0  0  0  0  0  0  0  0  0  0  0
    3.0568   -2.2686    5.7309 N   0  0  0  0  0  0  0  0  0  0  0  0
    3.0291   -3.4366    6.6034 C   0  0  0  0  0  0  0  0  0  0  0  0
    3.8865   -1.6827    5.7173 H   0  0  0  0  0  0  0  0  0  0  0  0
    2.1532   -3.4063    7.2601 H   0  0  0  0  0  0  0  0  0  0  0  0
    2.9926   -4.3564    6.0102 H   0  0  0  0  0  0  0  0  0  0  0  0
    3.9268   -3.4631    7.2285 H   0  0  0  0  0  0  0  0  0  0  0  0
  1  2  2  0  0  0  0
  1  3  1  0  0  0  0
  1  7  1  0  0  0  0
  3  4  1  0  0  0  0
  3  5  1  0  0  0  0
  3  6  1  0  0  0  0
  7  8  1  0  0  0  0
  7 12  1  0  0  0  0
  8  9  1  0  0  0  0
  8 11  1  0  0  0  0
  8 13  1  0  0  0  0
  9 10  2  0  0  0  0
  9 17  1  0  0  0  0
 11 14  1  0  0  0  0
 11 15  1  0  0  0  0
 11 16  1  0  0  0  0
 17 18  1  0  0  0  0
 17 22  1  0  0  0  0
 18 19  1  0  0  0  0
 18 21  1  0  0  0  0
 18 23  1  0  0  0  0
 19 20  2  0  0  0  0
 19 27  1  0  0  0  0
 21 24  1  0  0  0  0
 21 25  1  0  0  0  0
 21 26  1  0  0  0  0
 27 28  1  0  0  0  0
 27 32  1  0  0  0  0
 28 29  1  0  0  0  0
 28 31  1  0  0  0  0
 28 33  1  0  0  0  0
 29 30  2  0  0  0  0
 29 37  1  0  0  0  0
 31 34  1  0  0  0  0
 31 35  1  0  0  0  0
 31 36  1  0  0  0  0
 37 38  1  0  0  0  0
 37 39  1  0  0  0  0
 38 40  1  0  0  0  0
 38 41  1  0  0  0  0
 38 42  1  0  0  0  0
M  END
$$$$

  -OEChem-05262215353D

 42 41  0     1  0  0  0  0  0999 V2000
   -5.4942   -1.1115    1.9889 C   0  0  0  0  0  0  0  0  0  0  0  0
   -6.0293   -0.1033    1.5556 O   0  0  0  0  0  0  0  0  0  0  0  0
   -6.3200   -2.3512    2.2762 C   0  0  0  0  0  0  0  0  0  0  0  0
   -6.2191   -2.6318    3.3273 H   0  0  0  0  0  0  0  0  0  0  0  0
   -7.3751   -2.1592    2.0626 H   0  0  0  0  0  0  0  0  0  0  0  0
   -5.9790   -3.1799    1.6510 H   0  0  0  0  0  0  0  0  0  0  0  0
   -4.1332   -1.1298    2.2074 N   0  0  0  0  0  0  0  0  0  0  0  0
   -3.2168   -0.0486    1.8241 C   0  0  2  0  0  0  0  0  0  0  0  0
   -1.8278   -0.5968    1.4369 C   0  0  0  0  0  0  0  0  0  0  0  0
   -1.5192   -1.7533    1.7060 O   0  0  0  0  0  0  0  0  0  0  0  0
   -3.1021    0.9272    2.9994 C   0  0  0  0  0  0  0  0  0  0  0  0
   -3.7103   -2.0250    2.4517 H   0  0  0  0  0  0  0  0  0  0  0  0
   -3.6138    0.4816    0.9518 H   0  0  0  0  0  0  0  0  0  0  0  0
   -2.6949    0.4199    3.8800 H   0  0  0  0  0  0  0  0  0  0  0  0
   -2.4449    1.7636    2.7435 H   0  0  0  0  0  0  0  0  0  0  0  0
   -4.0877    1.3302    3.2539 H   0  0  0  0  0  0  0  0  0  0  0  0
   -0.8843    0.2163    0.8379 N   0  0  0  0  0  0  0  0  0  0  0  0
    0.4498   -0.2522    0.4397 C   0  0  2  0  0  0  0  0  0  0  0  0
    1.4593   -0.0683    1.5930 C   0  0  0  0  0  0  0  0  0  0  0  0
    2.2980    0.8253    1.5827 O   0  0  0  0  0  0  0  0  0  0  0  0
    0.8487    0.5088   -0.8306 C   0  0  0  0  0  0  0  0  0  0  0  0
   -1.1242    1.1930    0.6908 H   0  0  0  0  0  0  0  0  0  0  0  0
    0.4243   -1.3183    0.1892 H   0  0  0  0  0  0  0  0  0  0  0  0
    0.8879    1.5865   -0.6415 H   0  0  0  0  0  0  0  0  0  0  0  0
    1.8360    0.1823   -1.1724 H   0  0  0  0  0  0  0  0  0  0  0  0
    0.1265    0.3198   -1.6307 H   0  0  0  0  0  0  0  0  0  0  0  0
    1.4100   -0.9364    2.6656 N   0  0  0  0  0  0  0  0  0  0  0  0
    2.3379   -0.9237    3.8033 C   0  0  2  0  0  0  0  0  0  0  0  0
    2.5237   -2.3249    4.4230 C   0  0  0  0  0  0  0  0  0  0  0  0
    1.7126   -3.2165    4.2042 O   0  0  0  0  0  0  0  0  0  0  0  0
    1.8022    0.0549    4.8532 C   0  0  0  0  0  0  0  0  0  0  0  0
    0.6987   -1.6728    2.6371 H   0  0  0  0  0  0  0  0  0  0  0  0
    3.3227   -0.5854    3.4644 H   0  0  0  0  0  0  0  0  0  0  0  0
    0.8198   -0.2698    5.2108 H   0  0  0  0  0  0  0  0  0  0  0  0
    2.4831    0.1126    5.7077 H   0  0  0  0  0  0  0  0  0  0  0  0
    1.7037    1.0570    4.4241 H   0  0  0  0  0  0  0  0  0  0  0  0
    3.6068   -2.5860    5.2429 N   0  0  0  0  0  0  0  0  0  0  0  0
    3.8492   -3.8850    5.8591 C   0  0  0  0  0  0  0  0  0  0  0  0
    4.2758   -1.8367    5.3926 H   0  0  0  0  0  0  0  0  0  0  0  0
    3.0067   -4.1696    6.4984 H   0  0  0  0  0  0  0  0  0  0  0  0
    3.9844   -4.6540    5.0912 H   0  0  0  0  0  0  0  0  0  0  0  0
    4.7528   -3.8489    6.4754 H   0  0  0  0  0  0  0  0  0  0  0  0
  1  2  2  0  0  0  0
  1  3  1  0  0  0  0
  1  7  1  0  0  0  0
  3  4  1  0  0  0  0
  3  5  1  0  0  0  0
  3  6  1  0  0  0  0
  7  8  1  0  0  0  0
  7 12  1  0  0  0  0
  8  9  1  0  0  0  0
  8 11  1  0  0  0  0
  8 13  1  0  0  0  0
  9 10  2  0  0  0  0
  9 17  1  0  0  0  0
 11 14  1  0  0  0  0
 11 15  1  0  0  0  0
 11 16  1  0  0  0  0
 17 18  1  0  0  0  0
 17 22  1  0  0  0  0
 18 19  1  0  0  0  0
 18 21  1  0  0  0  0
 18 23  1  0  0  0  0
 19 20  2  0  0  0  0
 19 27  1  0  0  0  0
 21 24  1  0  0  0  0
 21 25  1  0  0  0  0
 21 26  1  0  0  0  0
 27 28  1  0  0  0  0
 27 32  1  0  0  0  0
 28 29  1  0  0  0  0
 28 31  1  0  0  0  0
 28 33  1  0  0  0  0
 29 30  2  0  0  0  0
 29 37  1  0  0  0  0
 31 34  1  0  0  0  0
 31 35  1  0  0  0  0
 31 36  1  0  0  0  0
 37 38  1  0  0  0  0
 37 39  1  0  0  0  0
 38 40  1  0  0  0  0
 38 41  1  0  0  0  0
 38 42  1  0  0  0  0
M  END
$$$$

  -OEChem-05262215353D

 42 41  0     1  0  0  0  0  0999 V2000
   -5.5286   -0.9539    1.7782 C   0  0  0  0  0  0  0  0  0  0  0  0
   -5.9331    0.0710    1.2524 O   0  0  0  0  0  0  0  0  0  0  0  0
   -6.4388   -2.1627    1.8857 C   0  0  0  0  0  0  0  0  0  0  0  0
   -6.5316   -2.4682    2.9306 H   0  0  0  0  0  0  0  0  0  0  0  0
   -7.4334   -1.9223    1.4996 H   0  0  0  0  0  0  0  0  0  0  0  0
   -6.0266   -2.9920    1.3054 H   0  0  0  0  0  0  0  0  0  0  0  0
   -4.2397   -1.0234    2.2638 N   0  0  0  0  0  0  0  0  0  0  0  0
   -3.2108   -0.0028    2.0243 C   0  0  2  0  0  0  0  0  0  0  0  0
   -1.8873   -0.6400    1.5564 C   0  0  0  0  0  0  0  0  0  0  0  0
   -1.6321   -1.8081    1.8316 O   0  0  0  0  0  0  0  0  0  0  0  0
   -3.0029    0.7739    3.3263 C   0  0  0  0  0  0  0  0  0  0  0  0
   -3.9076   -1.9437    2.5496 H   0  0  0  0  0  0  0  0  0  0  0  0
   -3.5345    0.6913    1.2414 H   0  0  0  0  0  0  0  0  0  0  0  0
   -2.6649    0.1030    4.1228 H   0  0  0  0  0  0  0  0  0  0  0  0
   -2.2528    1.5590    3.1906 H   0  0  0  0  0  0  0  0  0  0  0  0
   -3.9414    1.2426    3.6392 H   0  0  0  0  0  0  0  0  0  0  0  0
   -0.9470    0.1075    0.8733 N   0  0  0  0  0  0  0  0  0  0  0  0
    0.3638   -0.4161    0.4704 C   0  0  2  0  0  0  0  0  0  0  0  0
    1.4110   -0.1717    1.5763 C   0  0  0  0  0  0  0  0  0  0  0  0
    2.0583    0.8680    1.6200 O   0  0  0  0  0  0  0  0  0  0  0  0
    0.7466    0.2506   -0.8560 C   0  0  0  0  0  0  0  0  0  0  0  0
   -1.1297    1.1005    0.7543 H   0  0  0  0  0  0  0  0  0  0  0  0
    0.3094   -1.4958    0.2919 H   0  0  0  0  0  0  0  0  0  0  0  0
    0.8005    1.3384   -0.7438 H   0  0  0  0  0  0  0  0  0  0  0  0
    1.7235   -0.1108   -1.1919 H   0  0  0  0  0  0  0  0  0  0  0  0
    0.0064    0.0156   -1.6271 H   0  0  0  0  0  0  0  0  0  0  0  0
    1.5976   -1.1266    2.5555 N   0  0  0  0  0  0  0  0  0  0  0  0
    2.5978   -1.0486    3.6270 C   0  0  2  0  0  0  0  0  0  0  0  0
    3.1964   -2.4296    3.9675 C   0  0  0  0  0  0  0  0  0  0  0  0
    2.6267   -3.4582    3.6218 O   0  0  0  0  0  0  0  0  0  0  0  0
    1.9258   -0.4328    4.8570 C   0  0  0  0  0  0  0  0  0  0  0  0
    1.0399   -1.9803    2.4892 H   0  0  0  0  0  0  0  0  0  0  0  0
    3.4273   -0.4072    3.3115 H   0  0  0  0  0  0  0  0  0  0  0  0
    1.0924   -1.0592    5.1910 H   0  0  0  0  0  0  0  0  0  0  0  0
    2.6417   -0.3367    5.6786 H   0  0  0  0  0  0  0  0  0  0  0  0
    1.5397    0.5630    4.6177 H   0  0  0  0  0  0  0  0  0  0  0  0
    4.3885   -2.5190    4.6633 N   0  0  0  0  0  0  0  0  0  0  0  0
    5.0390   -3.7855    4.9777 C   0  0  0  0  0  0  0  0  0  0  0  0
    4.8573   -1.6514    4.9067 H   0  0  0  0  0  0  0  0  0  0  0  0
    4.3782   -4.4185    5.5795 H   0  0  0  0  0  0  0  0  0  0  0  0
    5.2985   -4.3203    4.0579 H   0  0  0  0  0  0  0  0  0  0  0  0
    5.9572   -3.6086    5.5462 H   0  0  0  0  0  0  0  0  0  0  0  0
  1  2  2  0  0  0  0
  1  3  1  0  0  0  0
  1  7  1  0  0  0  0
  3  4  1  0  0  0  0
  3  5  1  0  0  0  0
  3  6  1  0  0  0  0
  7  8  1  0  0  0  0
  7 12  1  0  0  0  0
  8  9  1  0  0  0  0
  8 11  1  0  0  0  0
  8 13  1  0  0  0  0
  9 10  2  0  0  0  0
  9 17  1  0  0  0  0
 11 14  1  0  0  0  0
 11 15  1  0  0  0  0
 11 16  1  0  0  0  0
 17 18  1  0  0  0  0
 17 22  1  0  0  0  0
 18 19  1  0  0  0  0
 18 21  1  0  0  0  0
 18 23  1  0  0  0  0
 19 20  2  0  0  0  0
 19 27  1  0  0  0  0
 21 24  1  0  0  0  0
 21 25  1  0  0  0  0
 21 26  1  0  0  0  0
 27 28  1  0  0  0  0
 27 32  1  0  0  0  0
 28 29  1  0  0  0  0
 28 31  1  0  0  0  0
 28 33  1  0  0  0  0
 29 30  2  0  0  0  0
 29 37  1  0  0  0  0
 31 34  1  0  0  0  0
 31 35  1  0  0  0  0
 31 36  1  0  0  0  0
 37 38  1  0  0  0  0
 37 39  1  0  0  0  0
 38 40  1  0  0  0  0
 38 41  1  0  0  0  0
 38 42  1  0  0  0  0
M  END
$$$$

  -OEChem-05262215353D

 42 41  0     1  0  0  0  0  0999 V2000
   -5.5191   -1.0103    2.0487 C   0  0  0  0  0  0  0  0  0  0  0  0
   -5.9976    0.0780    1.7711 O   0  0  0  0  0  0  0  0  0  0  0  0
   -6.4260   -2.2052    2.2765 C   0  0  0  0  0  0  0  0  0  0  0  0
   -6.2760   -2.6008    3.2840 H   0  0  0  0  0  0  0  0  0  0  0  0
   -7.4732   -1.9092    2.1669 H   0  0  0  0  0  0  0  0  0  0  0  0
   -6.2030   -2.9885    1.5479 H   0  0  0  0  0  0  0  0  0  0  0  0
   -4.1523   -1.1560    2.1555 N   0  0  0  0  0  0  0  0  0  0  0  0
   -3.1773   -0.1037    1.8422 C   0  0  2  0  0  0  0  0  0  0  0  0
   -1.8558   -0.6943    1.3079 C   0  0  0  0  0  0  0  0  0  0  0  0
   -1.6171   -1.8914    1.4327 O   0  0  0  0  0  0  0  0  0  0  0  0
   -2.9250    0.7144    3.1128 C   0  0  0  0  0  0  0  0  0  0  0  0
   -3.7879   -2.1013    2.2695 H   0  0  0  0  0  0  0  0  0  0  0  0
   -3.5802    0.5526    1.0631 H   0  0  0  0  0  0  0  0  0  0  0  0
   -2.5178    0.0763    3.9035 H   0  0  0  0  0  0  0  0  0  0  0  0
   -2.2142    1.5227    2.9172 H   0  0  0  0  0  0  0  0  0  0  0  0
   -3.8599    1.1581    3.4697 H   0  0  0  0  0  0  0  0  0  0  0  0
   -0.9104    0.1251    0.7202 N   0  0  0  0  0  0  0  0  0  0  0  0
    0.4394   -0.3280    0.3631 C   0  0  2  0  0  0  0  0  0  0  0  0
    1.4178   -0.1104    1.5351 C   0  0  0  0  0  0  0  0  0  0  0  0
    1.7951    1.0186    1.8282 O   0  0  0  0  0  0  0  0  0  0  0  0
    0.8808    0.4333   -0.8909 C   0  0  0  0  0  0  0  0  0  0  0  0
   -1.0710    1.1275    0.7805 H   0  0  0  0  0  0  0  0  0  0  0  0
    0.4340   -1.3954    0.1168 H   0  0  0  0  0  0  0  0  0  0  0  0
    0.8843    1.5127   -0.7085 H   0  0  0  0  0  0  0  0  0  0  0  0
    1.8909    0.1289   -1.1827 H   0  0  0  0  0  0  0  0  0  0  0  0
    0.2014    0.2219   -1.7223 H   0  0  0  0  0  0  0  0  0  0  0  0
    1.8413   -1.1824    2.2947 N   0  0  0  0  0  0  0  0  0  0  0  0
    2.8415   -1.1069    3.3665 C   0  0  2  0  0  0  0  0  0  0  0  0
    3.6958   -2.3899    3.4442 C   0  0  0  0  0  0  0  0  0  0  0  0
    3.3410   -3.4064    2.8578 O   0  0  0  0  0  0  0  0  0  0  0  0
    2.1102   -0.8640    4.6900 C   0  0  0  0  0  0  0  0  0  0  0  0
    1.5290   -2.1127    2.0132 H   0  0  0  0  0  0  0  0  0  0  0  0
    3.5244   -0.2727    3.1742 H   0  0  0  0  0  0  0  0  0  0  0  0
    1.4262   -1.6910    4.9062 H   0  0  0  0  0  0  0  0  0  0  0  0
    2.8250   -0.7776    5.5137 H   0  0  0  0  0  0  0  0  0  0  0  0
    1.5307    0.0632    4.6385 H   0  0  0  0  0  0  0  0  0  0  0  0
    4.8755   -2.4034    4.1657 N   0  0  0  0  0  0  0  0  0  0  0  0
    5.7364   -3.5756    4.2690 C   0  0  0  0  0  0  0  0  0  0  0  0
    5.1555   -1.5434    4.6282 H   0  0  0  0  0  0  0  0  0  0  0  0
    5.2043   -4.3998    4.7557 H   0  0  0  0  0  0  0  0  0  0  0  0
    6.0600   -3.9034    3.2754 H   0  0  0  0  0  0  0  0  0  0  0  0
    6.6260   -3.3411    4.8613 H   0  0  0  0  0  0  0  0  0  0  0  0
  1  2  2  0  0  0  0
  1  3  1  0  0  0  0
  1  7  1  0  0  0  0
  3  4  1  0  0  0  0
  3  5  1  0  0  0  0
  3  6  1  0  0  0  0
  7  8  1  0  0  0  0
  7 12  1  0  0  0  0
  8  9  1  0  0  0  0
  8 11  1  0  0  0  0
  8 13  1  0  0  0  0
  9 10  2  0  0  0  0
  9 17  1  0  0  0  0
 11 14  1  0  0  0  0
 11 15  1  0  0  0  0
 11 16  1  0  0  0  0
 17 18  1  0  0  0  0
 17 22  1  0  0  0  0
 18 19  1  0  0  0  0
 18 21  1  0  0  0  0
 18 23  1  0  0  0  0
 19 20  2  0  0  0  0
 19 27  1  0  0  0  0
 21 24  1  0  0  0  0
 21 25  1  0  0  0  0
 21 26  1  0  0  0  0
 27 28  1  0  0  0  0
 27 32  1  0  0  0  0
 28 29  1  0  0  0  0
 28 31  1  0  0  0  0
 28 33  1  0  0  0  0
 29 30  2  0  0  0  0
 29 37  1  0  0  0  0
 31 34  1  0  0  0  0
 31 35  1  0  0  0  0
 31 36  1  0  0  0  0
 37 38  1  0  0  0  0
 37 39  1  0  0  0  0
 38 40  1  0  0  0  0
 38 41  1  0  0  0  0
 38 42  1  0  0  0  0
M  END
$$$$

  -OEChem-05262215353D

 42 41  0     1  0  0  0  0  0999 V2000
   -5.5434   -0.9632    2.0647 C   0  0  0  0  0  0  0  0  0  0  0  0
   -5.9886    0.1515    1.8413 O   0  0  0  0  0  0  0  0  0  0  0  0
   -6.4875   -2.1367    2.2457 C   0  0  0  0  0  0  0  0  0  0  0  0
   -6.3824   -2.5483    3.2524 H   0  0  0  0  0  0  0  0  0  0  0  0
   -7.5222   -1.8123    2.1036 H   0  0  0  0  0  0  0  0  0  0  0  0
   -6.2598   -2.9163    1.5148 H   0  0  0  0  0  0  0  0  0  0  0  0
   -4.1810   -1.1587    2.1464 N   0  0  0  0  0  0  0  0  0  0  0  0
   -3.1764   -0.1268    1.8598 C   0  0  2  0  0  0  0  0  0  0  0  0
   -1.8786   -0.7356    1.2890 C   0  0  0  0  0  0  0  0  0  0  0  0
   -1.6660   -1.9403    1.3815 O   0  0  0  0  0  0  0  0  0  0  0  0
   -2.8853    0.6376    3.1550 C   0  0  0  0  0  0  0  0  0  0  0  0
   -3.8458   -2.1183    2.2249 H   0  0  0  0  0  0  0  0  0  0  0  0
   -3.5665    0.5694    1.1093 H   0  0  0  0  0  0  0  0  0  0  0  0
   -2.4966   -0.0414    3.9207 H   0  0  0  0  0  0  0  0  0  0  0  0
   -2.1462    1.4254    2.9805 H   0  0  0  0  0  0  0  0  0  0  0  0
   -3.8010    1.1027    3.5337 H   0  0  0  0  0  0  0  0  0  0  0  0
   -0.9341    0.0767    0.6904 N   0  0  0  0  0  0  0  0  0  0  0  0
    0.4182   -0.3778    0.3427 C   0  0  2  0  0  0  0  0  0  0  0  0
    1.4014   -0.1420    1.5069 C   0  0  0  0  0  0  0  0  0  0  0  0
    1.5660    0.9899    1.9485 O   0  0  0  0  0  0  0  0  0  0  0  0
    0.8626    0.3721   -0.9160 C   0  0  0  0  0  0  0  0  0  0  0  0
   -1.0679    1.0784    0.8061 H   0  0  0  0  0  0  0  0  0  0  0  0
    0.4130   -1.4483    0.1106 H   0  0  0  0  0  0  0  0  0  0  0  0
    0.8876    1.4516   -0.7343 H   0  0  0  0  0  0  0  0  0  0  0  0
    1.8637    0.0481   -1.2176 H   0  0  0  0  0  0  0  0  0  0  0  0
    0.1710    0.1726   -1.7406 H   0  0  0  0  0  0  0  0  0  0  0  0
    2.0738   -1.1992    2.0871 N   0  0  0  0  0  0  0  0  0  0  0  0
    3.1234   -1.0646    3.1050 C   0  0  2  0  0  0  0  0  0  0  0  0
    4.2261   -2.1294    2.9284 C   0  0  0  0  0  0  0  0  0  0  0  0
    4.0496   -3.0826    2.1775 O   0  0  0  0  0  0  0  0  0  0  0  0
    2.4695   -1.1849    4.4843 C   0  0  0  0  0  0  0  0  0  0  0  0
    1.9642   -2.1186    1.6588 H   0  0  0  0  0  0  0  0  0  0  0  0
    3.6031   -0.0842    3.0167 H   0  0  0  0  0  0  0  0  0  0  0  0
    2.0002   -2.1672    4.5997 H   0  0  0  0  0  0  0  0  0  0  0  0
    3.2138   -1.0584    5.2760 H   0  0  0  0  0  0  0  0  0  0  0  0
    1.7010   -0.4152    4.6074 H   0  0  0  0  0  0  0  0  0  0  0  0
    5.4277   -2.0134    3.6028 N   0  0  0  0  0  0  0  0  0  0  0  0
    6.5132   -2.9773    3.4703 C   0  0  0  0  0  0  0  0  0  0  0  0
    5.5551   -1.2059    4.2060 H   0  0  0  0  0  0  0  0  0  0  0  0
    6.1868   -3.9692    3.7998 H   0  0  0  0  0  0  0  0  0  0  0  0
    6.8420   -3.0434    2.4278 H   0  0  0  0  0  0  0  0  0  0  0  0
    7.3671   -2.6733    4.0830 H   0  0  0  0  0  0  0  0  0  0  0  0
  1  2  2  0  0  0  0
  1  3  1  0  0  0  0
  1  7  1  0  0  0  0
  3  4  1  0  0  0  0
  3  5  1  0  0  0  0
  3  6  1  0  0  0  0
  7  8  1  0  0  0  0
  7 12  1  0  0  0  0
  8  9  1  0  0  0  0
  8 11  1  0  0  0  0
  8 13  1  0  0  0  0
  9 10  2  0  0  0  0
  9 17  1  0  0  0  0
 11 14  1  0  0  0  0
 11 15  1  0  0  0  0
 11 16  1  0  0  0  0
 17 18  1  0  0  0  0
 17 22  1  0  0  0  0
 18 19  1  0  0  0  0
 18 21  1  0  0  0  0
 18 23  1  0  0  0  0
 19 20  2  0  0  0  0
 19 27  1  0  0  0  0
 21 24  1  0  0  0  0
 21 25  1  0  0  0  0
 21 26  1  0  0  0  0
 27 28  1  0  0  0  0
 27 32  1  0  0  0  0
 28 29  1  0  0  0  0
 28 31  1  0  0  0  0
 28 33  1  0  0  0  0
 29 30  2  0  0  0  0
 29 37  1  0  0  0  0
 31 34  1  0  0  0  0
 31 35  1  0  0  0  0
 31 36  1  0  0  0  0
 37 38  1  0  0  0  0
 37 39  1  0  0  0  0
 38 40  1  0  0  0  0
 38 41  1  0  0  0  0
 38 42  1  0  0  0  0
M  END
$$$$

  -OEChem-05262215353D

 42 41  0     1  0  0  0  0  0999 V2000
   -5.5294   -0.9573    2.0993 C   0  0  0  0  0  0  0  0  0  0  0  0
   -5.9688    0.1628    1.8916 O   0  0  0  0  0  0  0  0  0  0  0  0
   -6.4804   -2.1225    2.3005 C   0  0  0  0  0  0  0  0  0  0  0  0
   -6.3198   -2.5685    3.2851 H   0  0  0  0  0  0  0  0  0  0  0  0
   -7.5168   -1.7789    2.2343 H   0  0  0  0  0  0  0  0  0  0  0  0
   -6.3111   -2.8810    1.5322 H   0  0  0  0  0  0  0  0  0  0  0  0
   -4.1677   -1.1672    2.1508 N   0  0  0  0  0  0  0  0  0  0  0  0
   -3.1578   -0.1440    1.8508 C   0  0  2  0  0  0  0  0  0  0  0  0
   -1.8901   -0.7579    1.2213 C   0  0  0  0  0  0  0  0  0  0  0  0
   -1.6965   -1.9684    1.2754 O   0  0  0  0  0  0  0  0  0  0  0  0
   -2.8091    0.5850    3.1524 C   0  0  0  0  0  0  0  0  0  0  0  0
   -3.8419   -2.1312    2.2108 H   0  0  0  0  0  0  0  0  0  0  0  0
   -3.5627    0.5756    1.1310 H   0  0  0  0  0  0  0  0  0  0  0  0
   -2.4024   -0.1172    3.8874 H   0  0  0  0  0  0  0  0  0  0  0  0
   -2.0653    1.3668    2.9703 H   0  0  0  0  0  0  0  0  0  0  0  0
   -3.7037    1.0533    3.5750 H   0  0  0  0  0  0  0  0  0  0  0  0
   -0.9486    0.0584    0.6231 N   0  0  0  0  0  0  0  0  0  0  0  0
    0.4072   -0.3976    0.2906 C   0  0  2  0  0  0  0  0  0  0  0  0
    1.3809   -0.1503    1.4605 C   0  0  0  0  0  0  0  0  0  0  0  0
    1.3588    0.9218    2.0561 O   0  0  0  0  0  0  0  0  0  0  0  0
    0.8665    0.3501   -0.9631 C   0  0  0  0  0  0  0  0  0  0  0  0
   -1.0617    1.0550    0.7935 H   0  0  0  0  0  0  0  0  0  0  0  0
    0.4049   -1.4694    0.0652 H   0  0  0  0  0  0  0  0  0  0  0  0
    0.8961    1.4291   -0.7790 H   0  0  0  0  0  0  0  0  0  0  0  0
    1.8680    0.0204   -1.2570 H   0  0  0  0  0  0  0  0  0  0  0  0
    0.1805    0.1559   -1.7936 H   0  0  0  0  0  0  0  0  0  0  0  0
    2.2733   -1.1274    1.8539 N   0  0  0  0  0  0  0  0  0  0  0  0
    3.3431   -0.9308    2.8397 C   0  0  2  0  0  0  0  0  0  0  0  0
    4.6121   -1.7227    2.4605 C   0  0  0  0  0  0  0  0  0  0  0  0
    4.5699   -2.5678    1.5726 O   0  0  0  0  0  0  0  0  0  0  0  0
    2.8194   -1.3665    4.2110 C   0  0  0  0  0  0  0  0  0  0  0  0
    2.3298   -1.9690    1.2806 H   0  0  0  0  0  0  0  0  0  0  0  0
    3.6220    0.1275    2.8801 H   0  0  0  0  0  0  0  0  0  0  0  0
    2.5476   -2.4269    4.1975 H   0  0  0  0  0  0  0  0  0  0  0  0
    3.5805   -1.2108    4.9814 H   0  0  0  0  0  0  0  0  0  0  0  0
    1.9331   -0.7830    4.4798 H   0  0  0  0  0  0  0  0  0  0  0  0
    5.8117   -1.4735    3.1013 N   0  0  0  0  0  0  0  0  0  0  0  0
    7.0525   -2.1646    2.7723 C   0  0  0  0  0  0  0  0  0  0  0  0
    5.8238   -0.7519    3.8162 H   0  0  0  0  0  0  0  0  0  0  0  0
    6.9476   -3.2417    2.9405 H   0  0  0  0  0  0  0  0  0  0  0  0
    7.3182   -1.9961    1.7233 H   0  0  0  0  0  0  0  0  0  0  0  0
    7.8700   -1.7951    3.3991 H   0  0  0  0  0  0  0  0  0  0  0  0
  1  2  2  0  0  0  0
  1  3  1  0  0  0  0
  1  7  1  0  0  0  0
  3  4  1  0  0  0  0
  3  5  1  0  0  0  0
  3  6  1  0  0  0  0
  7  8  1  0  0  0  0
  7 12  1  0  0  0  0
  8  9  1  0  0  0  0
  8 11  1  0  0  0  0
  8 13  1  0  0  0  0
  9 10  2  0  0  0  0
  9 17  1  0  0  0  0
 11 14  1  0  0  0  0
 11 15  1  0  0  0  0
 11 16  1  0  0  0  0
 17 18  1  0  0  0  0
 17 22  1  0  0  0  0
 18 19  1  0  0  0  0
 18 21  1  0  0  0  0
 18 23  1  0  0  0  0
 19 20  2  0  0  0  0
 19 27  1  0  0  0  0
 21 24  1  0  0  0  0
 21 25  1  0  0  0  0
 21 26  1  0  0  0  0
 27 28  1  0  0  0  0
 27 32  1  0  0  0  0
 28 29  1  0  0  0  0
 28 31  1  0  0  0  0
 28 33  1  0  0  0  0
 29 30  2  0  0  0  0
 29 37  1  0  0  0  0
 31 34  1  0  0  0  0
 31 35  1  0  0  0  0
 31 36  1  0  0  0  0
 37 38  1  0  0  0  0
 37 39  1  0  0  0  0
 38 40  1  0  0  0  0
 38 41  1  0  0  0  0
 38 42  1  0  0  0  0
M  END
$$$$

  -OEChem-05262215353D

 42 41  0     1  0  0  0  0  0999 V2000
   -5.5369   -0.9010    1.8220 C   0  0  0  0  0  0  0  0  0  0  0  0
   -5.9089    0.1556    1.3363 O   0  0  0  0  0  0  0  0  0  0  0  0
   -6.4939   -2.0754    1.9059 C   0  0  0  0  0  0  0  0  0  0  0  0
   -6.6449   -2.3585    2.9502 H   0  0  0  0  0  0  0  0  0  0  0  0
   -7.4606   -1.8080    1.4698 H   0  0  0  0  0  0  0  0  0  0  0  0
   -6.0859   -2.9293    1.3596 H   0  0  0  0  0  0  0  0  0  0  0  0
   -4.2456   -1.0416    2.2858 N   0  0  0  0  0  0  0  0  0  0  0  0
   -3.1684   -0.0745    2.0321 C   0  0  2  0  0  0  0  0  0  0  0  0
   -1.9297   -0.7554    1.4142 C   0  0  0  0  0  0  0  0  0  0  0  0
   -1.7638   -1.9647    1.5407 O   0  0  0  0  0  0  0  0  0  0  0  0
   -2.8042    0.5898    3.3619 C   0  0  0  0  0  0  0  0  0  0  0  0
   -3.9513   -1.9893    2.5165 H   0  0  0  0  0  0  0  0  0  0  0  0
   -3.5014    0.6962    1.3290 H   0  0  0  0  0  0  0  0  0  0  0  0
   -2.4472   -0.1567    4.0786 H   0  0  0  0  0  0  0  0  0  0  0  0
   -2.0162    1.3355    3.2168 H   0  0  0  0  0  0  0  0  0  0  0  0
   -3.6805    1.0904    3.7854 H   0  0  0  0  0  0  0  0  0  0  0  0
   -0.9848   -0.0008    0.7448 N   0  0  0  0  0  0  0  0  0  0  0  0
    0.3566   -0.5074    0.4246 C   0  0  2  0  0  0  0  0  0  0  0  0
    1.3672   -0.2052    1.5500 C   0  0  0  0  0  0  0  0  0  0  0  0
    1.2515    0.8138    2.2235 O   0  0  0  0  0  0  0  0  0  0  0  0
    0.8042    0.1435   -0.8853 C   0  0  0  0  0  0  0  0  0  0  0  0
   -1.0692    1.0056    0.8660 H   0  0  0  0  0  0  0  0  0  0  0  0
    0.3280   -1.5924    0.2760 H   0  0  0  0  0  0  0  0  0  0  0  0
    0.8531    1.2319   -0.7768 H   0  0  0  0  0  0  0  0  0  0  0  0
    1.7948   -0.2216   -1.1744 H   0  0  0  0  0  0  0  0  0  0  0  0
    0.0993   -0.0970   -1.6873 H   0  0  0  0  0  0  0  0  0  0  0  0
    2.4346   -1.0523    1.7740 N   0  0  0  0  0  0  0  0  0  0  0  0
    3.5736   -0.7426    2.6467 C   0  0  2  0  0  0  0  0  0  0  0  0
    4.9056   -1.1892    2.0082 C   0  0  0  0  0  0  0  0  0  0  0  0
    4.9023   -1.9482    1.0446 O   0  0  0  0  0  0  0  0  0  0  0  0
    3.3490   -1.4424    3.9894 C   0  0  0  0  0  0  0  0  0  0  0  0
    2.5710   -1.8115    1.1070 H   0  0  0  0  0  0  0  0  0  0  0  0
    3.6395    0.3380    2.8121 H   0  0  0  0  0  0  0  0  0  0  0  0
    3.2861   -2.5267    3.8509 H   0  0  0  0  0  0  0  0  0  0  0  0
    4.1706   -1.2256    4.6785 H   0  0  0  0  0  0  0  0  0  0  0  0
    2.4158   -1.0945    4.4441 H   0  0  0  0  0  0  0  0  0  0  0  0
    6.1102   -0.7175    2.4959 N   0  0  0  0  0  0  0  0  0  0  0  0
    7.3987   -1.0488    1.8996 C   0  0  0  0  0  0  0  0  0  0  0  0
    6.0799   -0.0611    3.2706 H   0  0  0  0  0  0  0  0  0  0  0  0
    7.5569   -2.1323    1.9049 H   0  0  0  0  0  0  0  0  0  0  0  0
    7.4455   -0.6911    0.8657 H   0  0  0  0  0  0  0  0  0  0  0  0
    8.2094   -0.5794    2.4649 H   0  0  0  0  0  0  0  0  0  0  0  0
  1  2  2  0  0  0  0
  1  3  1  0  0  0  0
  1  7  1  0  0  0  0
  3  4  1  0  0  0  0
  3  5  1  0  0  0  0
  3  6  1  0  0  0  0
  7  8  1  0  0  0  0
  7 12  1  0  0  0  0
  8  9  1  0  0  0  0
  8 11  1  0  0  0  0
  8 13  1  0  0  0  0
  9 10  2  0  0  0  0
  9 17  1  0  0  0  0
 11 14  1  0  0  0  0
 11 15  1  0  0  0  0
 11 16  1  0  0  0  0
 17 18  1  0  0  0  0
 17 22  1  0  0  0  0
 18 19  1  0  0  0  0
 18 21  1  0  0  0  0
 18 23  1  0  0  0  0
 19 20  2  0  0  0  0
 19 27  1  0  0  0  0
 21 24  1  0  0  0  0
 21 25  1  0  0  0  0
 21 26  1  0  0  0  0
 27 28  1  0  0  0  0
 27 32  1  0  0  0  0
 28 29  1  0  0  0  0
 28 31  1  0  0  0  0
 28 33  1  0  0  0  0
 29 30  2  0  0  0  0
 29 37  1  0  0  0  0
 31 34  1  0  0  0  0
 31 35  1  0  0  0  0
 31 36  1  0  0  0  0
 37 38  1  0  0  0  0
 37 39  1  0  0  0  0
 38 40  1  0  0  0  0
 38 41  1  0  0  0  0
 38 42  1  0  0  0  0
M  END
$$$$

  -OEChem-05262215353D

 42 41  0     1  0  0  0  0  0999 V2000
   -5.5195   -0.8971    1.8083 C   0  0  0  0  0  0  0  0  0  0  0  0
   -5.8815    0.1496    1.2944 O   0  0  0  0  0  0  0  0  0  0  0  0
   -6.4822   -2.0658    1.9029 C   0  0  0  0  0  0  0  0  0  0  0  0
   -6.6267   -2.3475    2.9488 H   0  0  0  0  0  0  0  0  0  0  0  0
   -7.4502   -1.7912    1.4746 H   0  0  0  0  0  0  0  0  0  0  0  0
   -6.0842   -2.9227    1.3537 H   0  0  0  0  0  0  0  0  0  0  0  0
   -4.2356   -1.0328    2.2932 N   0  0  0  0  0  0  0  0  0  0  0  0
   -3.1513   -0.0762    2.0289 C   0  0  2  0  0  0  0  0  0  0  0  0
   -1.9388   -0.7630    1.3674 C   0  0  0  0  0  0  0  0  0  0  0  0
   -1.7918   -1.9778    1.4636 O   0  0  0  0  0  0  0  0  0  0  0  0
   -2.7420    0.5555    3.3620 C   0  0  0  0  0  0  0  0  0  0  0  0
   -3.9459   -1.9803    2.5304 H   0  0  0  0  0  0  0  0  0  0  0  0
   -3.4901    0.7145    1.3512 H   0  0  0  0  0  0  0  0  0  0  0  0
   -2.3788   -0.2110    4.0544 H   0  0  0  0  0  0  0  0  0  0  0  0
   -1.9447    1.2901    3.2101 H   0  0  0  0  0  0  0  0  0  0  0  0
   -3.5976    1.0626    3.8191 H   0  0  0  0  0  0  0  0  0  0  0  0
   -0.9879   -0.0054    0.7093 N   0  0  0  0  0  0  0  0  0  0  0  0
    0.3582   -0.5177    0.4158 C   0  0  2  0  0  0  0  0  0  0  0  0
    1.3549   -0.2138    1.5549 C   0  0  0  0  0  0  0  0  0  0  0  0
    1.1148    0.6715    2.3701 O   0  0  0  0  0  0  0  0  0  0  0  0
    0.8266    0.1280   -0.8906 C   0  0  0  0  0  0  0  0  0  0  0  0
   -1.0616    0.9971    0.8644 H   0  0  0  0  0  0  0  0  0  0  0  0
    0.3316   -1.6032    0.2721 H   0  0  0  0  0  0  0  0  0  0  0  0
    0.8783    1.2163   -0.7843 H   0  0  0  0  0  0  0  0  0  0  0  0
    1.8196   -0.2410   -1.1666 H   0  0  0  0  0  0  0  0  0  0  0  0
    0.1322   -0.1115   -1.7021 H   0  0  0  0  0  0  0  0  0  0  0  0
    2.5674   -0.8734    1.6065 N   0  0  0  0  0  0  0  0  0  0  0  0
    3.7006   -0.4632    2.4452 C   0  0  2  0  0  0  0  0  0  0  0  0
    5.0272   -0.5345    1.6600 C   0  0  0  0  0  0  0  0  0  0  0  0
    5.0708   -1.1115    0.5784 O   0  0  0  0  0  0  0  0  0  0  0  0
    3.7393   -1.3764    3.6731 C   0  0  0  0  0  0  0  0  0  0  0  0
    2.7910   -1.4828    0.8201 H   0  0  0  0  0  0  0  0  0  0  0  0
    3.5744    0.5739    2.7733 H   0  0  0  0  0  0  0  0  0  0  0  0
    3.8741   -2.4197    3.3706 H   0  0  0  0  0  0  0  0  0  0  0  0
    4.5628   -1.0963    4.3367 H   0  0  0  0  0  0  0  0  0  0  0  0
    2.8022   -1.2943    4.2332 H   0  0  0  0  0  0  0  0  0  0  0  0
    6.1687    0.0717    2.1508 N   0  0  0  0  0  0  0  0  0  0  0  0
    7.4359    0.0899    1.4300 C   0  0  0  0  0  0  0  0  0  0  0  0
    6.0945    0.5749    3.0303 H   0  0  0  0  0  0  0  0  0  0  0  0
    7.7752   -0.9310    1.2246 H   0  0  0  0  0  0  0  0  0  0  0  0
    7.3281    0.6231    0.4795 H   0  0  0  0  0  0  0  0  0  0  0  0
    8.2030    0.5948    2.0250 H   0  0  0  0  0  0  0  0  0  0  0  0
  1  2  2  0  0  0  0
  1  3  1  0  0  0  0
  1  7  1  0  0  0  0
  3  4  1  0  0  0  0
  3  5  1  0  0  0  0
  3  6  1  0  0  0  0
  7  8  1  0  0  0  0
  7 12  1  0  0  0  0
  8  9  1  0  0  0  0
  8 11  1  0  0  0  0
  8 13  1  0  0  0  0
  9 10  2  0  0  0  0
  9 17  1  0  0  0  0
 11 14  1  0  0  0  0
 11 15  1  0  0  0  0
 11 16  1  0  0  0  0
 17 18  1  0  0  0  0
 17 22  1  0  0  0  0
 18 19  1  0  0  0  0
 18 21  1  0  0  0  0
 18 23  1  0  0  0  0
 19 20  2  0  0  0  0
 19 27  1  0  0  0  0
 21 24  1  0  0  0  0
 21 25  1  0  0  0  0
 21 26  1  0  0  0  0
 27 28  1  0  0  0  0
 27 32  1  0  0  0  0
 28 29  1  0  0  0  0
 28 31  1  0  0  0  0
 28 33  1  0  0  0  0
 29 30  2  0  0  0  0
 29 37  1  0  0  0  0
 31 34  1  0  0  0  0
 31 35  1  0  0  0  0
 31 36  1  0  0  0  0
 37 38  1  0  0  0  0
 37 39  1  0  0  0  0
 38 40  1  0  0  0  0
 38 41  1  0  0  0  0
 38 42  1  0  0  0  0
M  END
$$$$

  -OEChem-05262215353D

 42 41  0     1  0  0  0  0  0999 V2000
   -5.4808   -0.8819    1.8157 C   0  0  0  0  0  0  0  0  0  0  0  0
   -5.8409    0.1751    1.3218 O   0  0  0  0  0  0  0  0  0  0  0  0
   -6.4464   -2.0495    1.8892 C   0  0  0  0  0  0  0  0  0  0  0  0
   -6.6045   -2.3379    2.9311 H   0  0  0  0  0  0  0  0  0  0  0  0
   -7.4086   -1.7710    1.4506 H   0  0  0  0  0  0  0  0  0  0  0  0
   -6.0428   -2.9030    1.3389 H   0  0  0  0  0  0  0  0  0  0  0  0
   -4.1972   -1.0297    2.2977 N   0  0  0  0  0  0  0  0  0  0  0  0
   -3.1094   -0.0751    2.0412 C   0  0  2  0  0  0  0  0  0  0  0  0
   -1.9316   -0.7426    1.3026 C   0  0  0  0  0  0  0  0  0  0  0  0
   -1.8083   -1.9642    1.3128 O   0  0  0  0  0  0  0  0  0  0  0  0
   -2.6423    0.4806    3.3886 C   0  0  0  0  0  0  0  0  0  0  0  0
   -3.9093   -1.9834    2.5103 H   0  0  0  0  0  0  0  0  0  0  0  0
   -3.4597    0.7548    1.4189 H   0  0  0  0  0  0  0  0  0  0  0  0
   -2.2588   -0.3250    4.0234 H   0  0  0  0  0  0  0  0  0  0  0  0
   -1.8441    1.2158    3.2457 H   0  0  0  0  0  0  0  0  0  0  0  0
   -3.4741    0.9686    3.9060 H   0  0  0  0  0  0  0  0  0  0  0  0
   -0.9889    0.0331    0.6524 N   0  0  0  0  0  0  0  0  0  0  0  0
    0.3538   -0.4931    0.3678 C   0  0  2  0  0  0  0  0  0  0  0  0
    1.2584   -0.5498    1.6227 C   0  0  0  0  0  0  0  0  0  0  0  0
    0.9009   -0.0356    2.6781 O   0  0  0  0  0  0  0  0  0  0  0  0
    0.9719    0.4070   -0.7072 C   0  0  0  0  0  0  0  0  0  0  0  0
   -1.0526    1.0268    0.8534 H   0  0  0  0  0  0  0  0  0  0  0  0
    0.2761   -1.5090   -0.0348 H   0  0  0  0  0  0  0  0  0  0  0  0
    1.1012    1.4256   -0.3267 H   0  0  0  0  0  0  0  0  0  0  0  0
    1.9504    0.0256   -1.0159 H   0  0  0  0  0  0  0  0  0  0  0  0
    0.3246    0.4428   -1.5894 H   0  0  0  0  0  0  0  0  0  0  0  0
    2.5517   -1.0246    1.5165 N   0  0  0  0  0  0  0  0  0  0  0  0
    3.6015   -0.8227    2.5230 C   0  0  2  0  0  0  0  0  0  0  0  0
    4.9434   -0.4521    1.8575 C   0  0  0  0  0  0  0  0  0  0  0  0
    5.0888   -0.5937    0.6475 O   0  0  0  0  0  0  0  0  0  0  0  0
    3.7321   -2.1110    3.3392 C   0  0  0  0  0  0  0  0  0  0  0  0
    2.8717   -1.2758    0.5818 H   0  0  0  0  0  0  0  0  0  0  0  0
    3.3336    0.0015    3.1924 H   0  0  0  0  0  0  0  0  0  0  0  0
    4.0132   -2.9478    2.6917 H   0  0  0  0  0  0  0  0  0  0  0  0
    4.4944   -1.9996    4.1159 H   0  0  0  0  0  0  0  0  0  0  0  0
    2.7790   -2.3491    3.8225 H   0  0  0  0  0  0  0  0  0  0  0  0
    5.9808    0.0679    2.6090 N   0  0  0  0  0  0  0  0  0  0  0  0
    7.2506    0.4925    2.0315 C   0  0  0  0  0  0  0  0  0  0  0  0
    5.8189    0.2087    3.6021 H   0  0  0  0  0  0  0  0  0  0  0  0
    7.7388   -0.3438    1.5198 H   0  0  0  0  0  0  0  0  0  0  0  0
    7.0914    1.3017    1.3107 H   0  0  0  0  0  0  0  0  0  0  0  0
    7.9215    0.8550    2.8163 H   0  0  0  0  0  0  0  0  0  0  0  0
  1  2  2  0  0  0  0
  1  3  1  0  0  0  0
  1  7  1  0  0  0  0
  3  4  1  0  0  0  0
  3  5  1  0  0  0  0
  3  6  1  0  0  0  0
  7  8  1  0  0  0  0
  7 12  1  0  0  0  0
  8  9  1  0  0  0  0
  8 11  1  0  0  0  0
  8 13  1  0  0  0  0
  9 10  2  0  0  0  0
  9 17  1  0  0  0  0
 11 14  1  0  0  0  0
 11 15  1  0  0  0  0
 11 16  1  0  0  0  0
 17 18  1  0  0  0  0
 17 22  1  0  0  0  0
 18 19  1  0  0  0  0
 18 21  1  0  0  0  0
 18 23  1  0  0  0  0
 19 20  2  0  0  0  0
 19 27  1  0  0  0  0
 21 24  1  0  0  0  0
 21 25  1  0  0  0  0
 21 26  1  0  0  0  0
 27 28  1  0  0  0  0
 27 32  1  0  0  0  0
 28 29  1  0  0  0  0
 28 31  1  0  0  0  0
 28 33  1  0  0  0  0
 29 30  2  0  0  0  0
 29 37  1  0  0  0  0
 31 34  1  0  0  0  0
 31 35  1  0  0  0  0
 31 36  1  0  0  0  0
 37 38  1  0  0  0  0
 37 39  1  0  0  0  0
 38 40  1  0  0  0  0
 38 41  1  0  0  0  0
 38 42  1  0  0  0  0
M  END
$$$$

  -OEChem-05262215353D

 42 41  0     1  0  0  0  0  0999 V2000
   -5.4950   -0.8520    1.9205 C   0  0  0  0  0  0  0  0  0  0  0  0
   -5.8591    0.2703    1.6060 O   0  0  0  0  0  0  0  0  0  0  0  0
   -6.4951   -1.9926    1.9492 C   0  0  0  0  0  0  0  0  0  0  0  0
   -6.5950   -2.3743    2.9682 H   0  0  0  0  0  0  0  0  0  0  0  0
   -7.4734   -1.6460    1.6042 H   0  0  0  0  0  0  0  0  0  0  0  0
   -6.1580   -2.8011    1.2957 H   0  0  0  0  0  0  0  0  0  0  0  0
   -4.1756   -1.0953    2.2378 N   0  0  0  0  0  0  0  0  0  0  0  0
   -3.0828   -0.1390    2.0157 C   0  0  2  0  0  0  0  0  0  0  0  0
   -1.9045   -0.7931    1.2656 C   0  0  0  0  0  0  0  0  0  0  0  0
   -1.7786   -2.0144    1.2583 O   0  0  0  0  0  0  0  0  0  0  0  0
   -2.6219    0.3800    3.3795 C   0  0  0  0  0  0  0  0  0  0  0  0
   -3.9025   -2.0728    2.3292 H   0  0  0  0  0  0  0  0  0  0  0  0
   -3.4290    0.7051    1.4102 H   0  0  0  0  0  0  0  0  0  0  0  0
   -2.2596   -0.4456    4.0007 H   0  0  0  0  0  0  0  0  0  0  0  0
   -1.8100    1.1042    3.2613 H   0  0  0  0  0  0  0  0  0  0  0  0
   -3.4515    0.8709    3.8977 H   0  0  0  0  0  0  0  0  0  0  0  0
   -0.9877   -0.0082    0.5884 N   0  0  0  0  0  0  0  0  0  0  0  0
    0.3717   -0.4998    0.3163 C   0  0  2  0  0  0  0  0  0  0  0  0
    1.2867   -0.4887    1.5685 C   0  0  0  0  0  0  0  0  0  0  0  0
    0.8387   -0.2067    2.6750 O   0  0  0  0  0  0  0  0  0  0  0  0
    0.9403    0.3677   -0.8131 C   0  0  0  0  0  0  0  0  0  0  0  0
   -1.0796    0.9870    0.7684 H   0  0  0  0  0  0  0  0  0  0  0  0
    0.3247   -1.5341   -0.0416 H   0  0  0  0  0  0  0  0  0  0  0  0
    1.0609    1.4035   -0.4796 H   0  0  0  0  0  0  0  0  0  0  0  0
    1.9144   -0.0086   -1.1405 H   0  0  0  0  0  0  0  0  0  0  0  0
    0.2651    0.3545   -1.6749 H   0  0  0  0  0  0  0  0  0  0  0  0
    2.6559   -0.6219    1.4307 N   0  0  0  0  0  0  0  0  0  0  0  0
    3.6361   -0.3522    2.4905 C   0  0  2  0  0  0  0  0  0  0  0  0
    4.8954    0.3387    1.9266 C   0  0  0  0  0  0  0  0  0  0  0  0
    5.0688    0.4053    0.7138 O   0  0  0  0  0  0  0  0  0  0  0  0
    3.9949   -1.6849    3.1528 C   0  0  0  0  0  0  0  0  0  0  0  0
    3.0226   -0.6659    0.4807 H   0  0  0  0  0  0  0  0  0  0  0  0
    3.2069    0.3196    3.2414 H   0  0  0  0  0  0  0  0  0  0  0  0
    4.4444   -2.3659    2.4229 H   0  0  0  0  0  0  0  0  0  0  0  0
    4.7055   -1.5302    3.9700 H   0  0  0  0  0  0  0  0  0  0  0  0
    3.0959   -2.1569    3.5622 H   0  0  0  0  0  0  0  0  0  0  0  0
    5.8285    0.9016    2.7778 N   0  0  0  0  0  0  0  0  0  0  0  0
    7.0190    1.6011    2.3104 C   0  0  0  0  0  0  0  0  0  0  0  0
    5.6413    0.8611    3.7756 H   0  0  0  0  0  0  0  0  0  0  0  0
    7.6115    0.9543    1.6545 H   0  0  0  0  0  0  0  0  0  0  0  0
    6.7393    2.5037    1.7570 H   0  0  0  0  0  0  0  0  0  0  0  0
    7.6439    1.8949    3.1594 H   0  0  0  0  0  0  0  0  0  0  0  0
  1  2  2  0  0  0  0
  1  3  1  0  0  0  0
  1  7  1  0  0  0  0
  3  4  1  0  0  0  0
  3  5  1  0  0  0  0
  3  6  1  0  0  0  0
  7  8  1  0  0  0  0
  7 12  1  0  0  0  0
  8  9  1  0  0  0  0
  8 11  1  0  0  0  0
  8 13  1  0  0  0  0
  9 10  2  0  0  0  0
  9 17  1  0  0  0  0
 11 14  1  0  0  0  0
 11 15  1  0  0  0  0
 11 16  1  0  0  0  0
 17 18  1  0  0  0  0
 17 22  1  0  0  0  0
 18 19  1  0  0  0  0
 18 21  1  0  0  0  0
 18 23  1  0  0  0  0
 19 20  2  0  0  0  0
 19 27  1  0  0  0  0
 21 24  1  0  0  0  0
 21 25  1  0  0  0  0
 21 26  1  0  0  0  0
 27 28  1  0  0  0  0
 27 32  1  0  0  0  0
 28 29  1  0  0  0  0
 28 31  1  0  0  0  0
 28 33  1  0  0  0  0
 29 30  2  0  0  0  0
 29 37  1  0  0  0  0
 31 34  1  0  0  0  0
 31 35  1  0  0  0  0
 31 36  1  0  0  0  0
 37 38  1  0  0  0  0
 37 39  1  0  0  0  0
 38 40  1  0  0  0  0
 38 41  1  0  0  0  0
 38 42  1  0  0  0  0
M  END
$$$$

  -OEChem-05262215353D

 42 41  0     1  0  0  0  0  0999 V2000
   -5.4501   -0.8551    1.8561 C   0  0  0  0  0  0  0  0  0  0  0  0
   -5.8084    0.2200    1.4012 O   0  0  0  0  0  0  0  0  0  0  0  0
   -6.4285   -2.0126    1.9231 C   0  0  0  0  0  0  0  0  0  0  0  0
   -6.5636   -2.3267    2.9607 H   0  0  0  0  0  0  0  0  0  0  0  0
   -7.3982   -1.7124    1.5163 H   0  0  0  0  0  0  0  0  0  0  0  0
   -6.0484   -2.8555    1.3408 H   0  0  0  0  0  0  0  0  0  0  0  0
   -4.1577   -1.0334    2.3024 N   0  0  0  0  0  0  0  0  0  0  0  0
   -3.0620   -0.0879    2.0468 C   0  0  2  0  0  0  0  0  0  0  0  0
   -1.9132   -0.7501    1.2583 C   0  0  0  0  0  0  0  0  0  0  0  0
   -1.8183   -1.9735    1.2179 O   0  0  0  0  0  0  0  0  0  0  0  0
   -2.5547    0.4165    3.3994 C   0  0  0  0  0  0  0  0  0  0  0  0
   -3.8786   -1.9963    2.4833 H   0  0  0  0  0  0  0  0  0  0  0  0
   -3.4157    0.7660    1.4599 H   0  0  0  0  0  0  0  0  0  0  0  0
   -2.1460   -0.4116    3.9881 H   0  0  0  0  0  0  0  0  0  0  0  0
   -1.7661    1.1622    3.2601 H   0  0  0  0  0  0  0  0  0  0  0  0
   -3.3720    0.8771    3.9629 H   0  0  0  0  0  0  0  0  0  0  0  0
   -0.9829    0.0287    0.5907 N   0  0  0  0  0  0  0  0  0  0  0  0
    0.3688   -0.4826    0.3123 C   0  0  2  0  0  0  0  0  0  0  0  0
    1.2860   -0.5028    1.5655 C   0  0  0  0  0  0  0  0  0  0  0  0
    0.8126   -0.4722    2.6961 O   0  0  0  0  0  0  0  0  0  0  0  0
    0.9434    0.3777   -0.8215 C   0  0  0  0  0  0  0  0  0  0  0  0
   -1.0635    1.0242    0.7733 H   0  0  0  0  0  0  0  0  0  0  0  0
    0.3030   -1.5138   -0.0522 H   0  0  0  0  0  0  0  0  0  0  0  0
    1.1084    1.4056   -0.4820 H   0  0  0  0  0  0  0  0  0  0  0  0
    1.8948   -0.0314   -1.1751 H   0  0  0  0  0  0  0  0  0  0  0  0
    0.2502    0.3976   -1.6687 H   0  0  0  0  0  0  0  0  0  0  0  0
    2.6539   -0.3462    1.4341 N   0  0  0  0  0  0  0  0  0  0  0  0
    3.5724   -0.0263    2.5348 C   0  0  2  0  0  0  0  0  0  0  0  0
    4.6386    0.9954    2.0875 C   0  0  0  0  0  0  0  0  0  0  0  0
    4.7752    1.2589    0.8968 O   0  0  0  0  0  0  0  0  0  0  0  0
    4.2239   -1.3291    3.0057 C   0  0  0  0  0  0  0  0  0  0  0  0
    3.0068   -0.1695    0.4943 H   0  0  0  0  0  0  0  0  0  0  0  0
    3.0252    0.4236    3.3700 H   0  0  0  0  0  0  0  0  0  0  0  0
    4.7861   -1.7941    2.1893 H   0  0  0  0  0  0  0  0  0  0  0  0
    4.9089   -1.1388    3.8373 H   0  0  0  0  0  0  0  0  0  0  0  0
    3.4562   -2.0321    3.3451 H   0  0  0  0  0  0  0  0  0  0  0  0
    5.4264    1.6418    3.0219 N   0  0  0  0  0  0  0  0  0  0  0  0
    6.4090    2.6606    2.6724 C   0  0  0  0  0  0  0  0  0  0  0  0
    5.2628    1.4313    4.0024 H   0  0  0  0  0  0  0  0  0  0  0  0
    7.1242    2.2703    1.9406 H   0  0  0  0  0  0  0  0  0  0  0  0
    5.9137    3.5397    2.2468 H   0  0  0  0  0  0  0  0  0  0  0  0
    6.9638    2.9721    3.5626 H   0  0  0  0  0  0  0  0  0  0  0  0
  1  2  2  0  0  0  0
  1  3  1  0  0  0  0
  1  7  1  0  0  0  0
  3  4  1  0  0  0  0
  3  5  1  0  0  0  0
  3  6  1  0  0  0  0
  7  8  1  0  0  0  0
  7 12  1  0  0  0  0
  8  9  1  0  0  0  0
  8 11  1  0  0  0  0
  8 13  1  0  0  0  0
  9 10  2  0  0  0  0
  9 17  1  0  0  0  0
 11 14  1  0  0  0  0
 11 15  1  0  0  0  0
 11 16  1  0  0  0  0
 17 18  1  0  0  0  0
 17 22  1  0  0  0  0
 18 19  1  0  0  0  0
 18 21  1  0  0  0  0
 18 23  1  0  0  0  0
 19 20  2  0  0  0  0
 19 27  1  0  0  0  0
 21 24  1  0  0  0  0
 21 25  1  0  0  0  0
 21 26  1  0  0  0  0
 27 28  1  0  0  0  0
 27 32  1  0  0  0  0
 28 29  1  0  0  0  0
 28 31  1  0  0  0  0
 28 33  1  0  0  0  0
 29 30  2  0  0  0  0
 29 37  1  0  0  0  0
 31 34  1  0  0  0  0
 31 35  1  0  0  0  0
 31 36  1  0  0  0  0
 37 38  1  0  0  0  0
 37 39  1  0  0  0  0
 38 40  1  0  0  0  0
 38 41  1  0  0  0  0
 38 42  1  0  0  0  0
M  END
$$$$

  -OEChem-05262215353D

 42 41  0     1  0  0  0  0  0999 V2000
   -5.4315   -0.8556    1.8494 C   0  0  0  0  0  0  0  0  0  0  0  0
   -5.7893    0.2070    1.3653 O   0  0  0  0  0  0  0  0  0  0  0  0
   -6.4040   -2.0171    1.9296 C   0  0  0  0  0  0  0  0  0  0  0  0
   -6.5415   -2.3160    2.9714 H   0  0  0  0  0  0  0  0  0  0  0  0
   -7.3734   -1.7274    1.5146 H   0  0  0  0  0  0  0  0  0  0  0  0
   -6.0176   -2.8670    1.3617 H   0  0  0  0  0  0  0  0  0  0  0  0
   -4.1456   -1.0151    2.3206 N   0  0  0  0  0  0  0  0  0  0  0  0
   -3.0511   -0.0723    2.0515 C   0  0  2  0  0  0  0  0  0  0  0  0
   -1.9098   -0.7406    1.2575 C   0  0  0  0  0  0  0  0  0  0  0  0
   -1.8266   -1.9642    1.2102 O   0  0  0  0  0  0  0  0  0  0  0  0
   -2.5325    0.4371    3.3981 C   0  0  0  0  0  0  0  0  0  0  0  0
   -3.8633   -1.9736    2.5199 H   0  0  0  0  0  0  0  0  0  0  0  0
   -3.4075    0.7794    1.4631 H   0  0  0  0  0  0  0  0  0  0  0  0
   -2.1459   -0.3936    3.9977 H   0  0  0  0  0  0  0  0  0  0  0  0
   -1.7252    1.1608    3.2510 H   0  0  0  0  0  0  0  0  0  0  0  0
   -3.3393    0.9248    3.9538 H   0  0  0  0  0  0  0  0  0  0  0  0
   -0.9817    0.0342    0.5819 N   0  0  0  0  0  0  0  0  0  0  0  0
    0.3729   -0.4710    0.3071 C   0  0  2  0  0  0  0  0  0  0  0  0
    1.2915   -0.4724    1.5601 C   0  0  0  0  0  0  0  0  0  0  0  0
    0.8406   -0.7074    2.6745 O   0  0  0  0  0  0  0  0  0  0  0  0
    0.9368    0.3658   -0.8492 C   0  0  0  0  0  0  0  0  0  0  0  0
   -1.0721    1.0327    0.7422 H   0  0  0  0  0  0  0  0  0  0  0  0
    0.3114   -1.5091   -0.0380 H   0  0  0  0  0  0  0  0  0  0  0  0
    1.0794    1.4070   -0.5417 H   0  0  0  0  0  0  0  0  0  0  0  0
    1.8979   -0.0373   -1.1831 H   0  0  0  0  0  0  0  0  0  0  0  0
    0.2482    0.3450   -1.7000 H   0  0  0  0  0  0  0  0  0  0  0  0
    2.5923   -0.0083    1.4787 N   0  0  0  0  0  0  0  0  0  0  0  0
    3.4412    0.3245    2.6303 C   0  0  2  0  0  0  0  0  0  0  0  0
    4.2634    1.6026    2.3624 C   0  0  0  0  0  0  0  0  0  0  0  0
    4.3127    2.0733    1.2303 O   0  0  0  0  0  0  0  0  0  0  0  0
    4.3572   -0.8713    2.9043 C   0  0  0  0  0  0  0  0  0  0  0  0
    2.8824    0.3844    0.5838 H   0  0  0  0  0  0  0  0  0  0  0  0
    2.8251    0.5158    3.5153 H   0  0  0  0  0  0  0  0  0  0  0  0
    4.9987   -1.0694    2.0395 H   0  0  0  0  0  0  0  0  0  0  0  0
    4.9929   -0.6789    3.7737 H   0  0  0  0  0  0  0  0  0  0  0  0
    3.7585   -1.7654    3.1066 H   0  0  0  0  0  0  0  0  0  0  0  0
    4.9264    2.2424    3.3934 N   0  0  0  0  0  0  0  0  0  0  0  0
    5.6762    3.4805    3.2164 C   0  0  0  0  0  0  0  0  0  0  0  0
    4.8385    1.8488    4.3259 H   0  0  0  0  0  0  0  0  0  0  0  0
    6.4543    3.3532    2.4563 H   0  0  0  0  0  0  0  0  0  0  0  0
    5.0089    4.2911    2.9051 H   0  0  0  0  0  0  0  0  0  0  0  0
    6.1572    3.7701    4.1556 H   0  0  0  0  0  0  0  0  0  0  0  0
  1  2  2  0  0  0  0
  1  3  1  0  0  0  0
  1  7  1  0  0  0  0
  3  4  1  0  0  0  0
  3  5  1  0  0  0  0
  3  6  1  0  0  0  0
  7  8  1  0  0  0  0
  7 12  1  0  0  0  0
  8  9  1  0  0  0  0
  8 11  1  0  0  0  0
  8 13  1  0  0  0  0
  9 10  2  0  0  0  0
  9 17  1  0  0  0  0
 11 14  1  0  0  0  0
 11 15  1  0  0  0  0
 11 16  1  0  0  0  0
 17 18  1  0  0  0  0
 17 22  1  0  0  0  0
 18 19  1  0  0  0  0
 18 21  1  0  0  0  0
 18 23  1  0  0  0  0
 19 20  2  0  0  0  0
 19 27  1  0  0  0  0
 21 24  1  0  0  0  0
 21 25  1  0  0  0  0
 21 26  1  0  0  0  0
 27 28  1  0  0  0  0
 27 32  1  0  0  0  0
 28 29  1  0  0  0  0
 28 31  1  0  0  0  0
 28 33  1  0  0  0  0
 29 30  2  0  0  0  0
 29 37  1  0  0  0  0
 31 34  1  0  0  0  0
 31 35  1  0  0  0  0
 31 36  1  0  0  0  0
 37 38  1  0  0  0  0
 37 39  1  0  0  0  0
 38 40  1  0  0  0  0
 38 41  1  0  0  0  0
 38 42  1  0  0  0  0
M  END
$$$$

  -OEChem-05262215353D

 42 41  0     1  0  0  0  0  0999 V2000
   -5.4483   -0.8239    2.0680 C   0  0  0  0  0  0  0  0  0  0  0  0
   -5.8005    0.3418    1.9744 O   0  0  0  0  0  0  0  0  0  0  0  0
   -6.4861   -1.9294    2.1202 C   0  0  0  0  0  0  0  0  0  0  0  0
   -6.4564   -2.4225    3.0950 H   0  0  0  0  0  0  0  0  0  0  0  0
   -7.4864   -1.5155    1.9636 H   0  0  0  0  0  0  0  0  0  0  0  0
   -6.2851   -2.6676    1.3397 H   0  0  0  0  0  0  0  0  0  0  0  0
   -4.1079   -1.1405    2.1197 N   0  0  0  0  0  0  0  0  0  0  0  0
   -3.0188   -0.1778    1.9137 C   0  0  2  0  0  0  0  0  0  0  0  0
   -1.8495   -0.8013    1.1249 C   0  0  0  0  0  0  0  0  0  0  0  0
   -1.7593   -2.0199    1.0179 O   0  0  0  0  0  0  0  0  0  0  0  0
   -2.5361    0.2980    3.2863 C   0  0  0  0  0  0  0  0  0  0  0  0
   -3.8573   -2.1275    2.0683 H   0  0  0  0  0  0  0  0  0  0  0  0
   -3.3820    0.6807    1.3392 H   0  0  0  0  0  0  0  0  0  0  0  0
   -2.1494   -0.5454    3.8681 H   0  0  0  0  0  0  0  0  0  0  0  0
   -1.7378    1.0383    3.1791 H   0  0  0  0  0  0  0  0  0  0  0  0
   -3.3617    0.7561    3.8399 H   0  0  0  0  0  0  0  0  0  0  0  0
   -0.9259    0.0100    0.4879 N   0  0  0  0  0  0  0  0  0  0  0  0
    0.4500   -0.4494    0.2409 C   0  0  2  0  0  0  0  0  0  0  0  0
    1.3283   -0.4419    1.5210 C   0  0  0  0  0  0  0  0  0  0  0  0
    0.9331   -0.9521    2.5607 O   0  0  0  0  0  0  0  0  0  0  0  0
    1.0148    0.4217   -0.8890 C   0  0  0  0  0  0  0  0  0  0  0  0
   -1.0482    1.0024    0.6640 H   0  0  0  0  0  0  0  0  0  0  0  0
    0.4336   -1.4847   -0.1182 H   0  0  0  0  0  0  0  0  0  0  0  0
    1.0682    1.4716   -0.5827 H   0  0  0  0  0  0  0  0  0  0  0  0
    2.0177    0.0845   -1.1696 H   0  0  0  0  0  0  0  0  0  0  0  0
    0.3731    0.3519   -1.7733 H   0  0  0  0  0  0  0  0  0  0  0  0
    2.4769    0.3263    1.5808 N   0  0  0  0  0  0  0  0  0  0  0  0
    3.1908    0.6779    2.8146 C   0  0  2  0  0  0  0  0  0  0  0  0
    3.7817    2.1005    2.7206 C   0  0  0  0  0  0  0  0  0  0  0  0
    3.7730    2.6981    1.6486 O   0  0  0  0  0  0  0  0  0  0  0  0
    4.2905   -0.3620    3.0475 C   0  0  0  0  0  0  0  0  0  0  0  0
    2.6900    0.8991    0.7648 H   0  0  0  0  0  0  0  0  0  0  0  0
    2.5003    0.6683    3.6648 H   0  0  0  0  0  0  0  0  0  0  0  0
    5.0051   -0.3574    2.2183 H   0  0  0  0  0  0  0  0  0  0  0  0
    4.8305   -0.1511    3.9752 H   0  0  0  0  0  0  0  0  0  0  0  0
    3.8527   -1.3624    3.1246 H   0  0  0  0  0  0  0  0  0  0  0  0
    4.2989    2.7248    3.8403 N   0  0  0  0  0  0  0  0  0  0  0  0
    4.8667    4.0678    3.8178 C   0  0  0  0  0  0  0  0  0  0  0  0
    4.2866    2.2094    4.7158 H   0  0  0  0  0  0  0  0  0  0  0  0
    5.7471    4.0997    3.1673 H   0  0  0  0  0  0  0  0  0  0  0  0
    4.1305    4.7905    3.4499 H   0  0  0  0  0  0  0  0  0  0  0  0
    5.1695    4.3680    4.8256 H   0  0  0  0  0  0  0  0  0  0  0  0
  1  2  2  0  0  0  0
  1  3  1  0  0  0  0
  1  7  1  0  0  0  0
  3  4  1  0  0  0  0
  3  5  1  0  0  0  0
  3  6  1  0  0  0  0
  7  8  1  0  0  0  0
  7 12  1  0  0  0  0
  8  9  1  0  0  0  0
  8 11  1  0  0  0  0
  8 13  1  0  0  0  0
  9 10  2  0  0  0  0
  9 17  1  0  0  0  0
 11 14  1  0  0  0  0
 11 15  1  0  0  0  0
 11 16  1  0  0  0  0
 17 18  1  0  0  0  0
 17 22  1  0  0  0  0
 18 19  1  0  0  0  0
 18 21  1  0  0  0  0
 18 23  1  0  0  0  0
 19 20  2  0  0  0  0
 19 27  1  0  0  0  0
 21 24  1  0  0  0  0
 21 25  1  0  0  0  0
 21 26  1  0  0  0  0
 27 28  1  0  0  0  0
 27 32  1  0  0  0  0
 28 29  1  0  0  0  0
 28 31  1  0  0  0  0
 28 33  1  0  0  0  0
 29 30  2  0  0  0  0
 29 37  1  0  0  0  0
 31 34  1  0  0  0  0
 31 35  1  0  0  0  0
 31 36  1  0  0  0  0
 37 38  1  0  0  0  0
 37 39  1  0  0  0  0
 38 40  1  0  0  0  0
 38 41  1  0  0  0  0
 38 42  1  0  0  0  0
M  END
$$$$

  -OEChem-05262215353D

 42 41  0     1  0  0  0  0  0999 V2000
   -5.4369   -0.8352    2.1184 C   0  0  0  0  0  0  0  0  0  0  0  0
   -5.8172    0.3213    2.0200 O   0  0  0  0  0  0  0  0  0  0  0  0
   -6.4463   -1.9605    2.2490 C   0  0  0  0  0  0  0  0  0  0  0  0
   -6.2819   -2.5014    3.1840 H   0  0  0  0  0  0  0  0  0  0  0  0
   -7.4630   -1.5576    2.2490 H   0  0  0  0  0  0  0  0  0  0  0  0
   -6.3426   -2.6544    1.4112 H   0  0  0  0  0  0  0  0  0  0  0  0
   -4.0889   -1.1222    2.1030 N   0  0  0  0  0  0  0  0  0  0  0  0
   -3.0331   -0.1386    1.8329 C   0  0  2  0  0  0  0  0  0  0  0  0
   -1.8342   -0.7774    1.1016 C   0  0  0  0  0  0  0  0  0  0  0  0
   -1.7371   -1.9973    1.0312 O   0  0  0  0  0  0  0  0  0  0  0  0
   -2.5807    0.4633    3.1669 C   0  0  0  0  0  0  0  0  0  0  0  0
   -3.8170   -2.1045    2.0628 H   0  0  0  0  0  0  0  0  0  0  0  0
   -3.4245    0.6570    1.1901 H   0  0  0  0  0  0  0  0  0  0  0  0
   -2.1704   -0.3163    3.8175 H   0  0  0  0  0  0  0  0  0  0  0  0
   -1.8093    1.2223    3.0058 H   0  0  0  0  0  0  0  0  0  0  0  0
   -3.4273    0.9340    3.6771 H   0  0  0  0  0  0  0  0  0  0  0  0
   -0.8968    0.0206    0.4681 N   0  0  0  0  0  0  0  0  0  0  0  0
    0.4810   -0.4405    0.2354 C   0  0  2  0  0  0  0  0  0  0  0  0
    1.3436   -0.4233    1.5236 C   0  0  0  0  0  0  0  0  0  0  0  0
    1.1075   -1.1815    2.4530 O   0  0  0  0  0  0  0  0  0  0  0  0
    1.0650    0.4166   -0.8944 C   0  0  0  0  0  0  0  0  0  0  0  0
   -1.0302    1.0183    0.6021 H   0  0  0  0  0  0  0  0  0  0  0  0
    0.4659   -1.4794   -0.1135 H   0  0  0  0  0  0  0  0  0  0  0  0
    1.0705    1.4765   -0.6206 H   0  0  0  0  0  0  0  0  0  0  0  0
    2.0901    0.1050   -1.1187 H   0  0  0  0  0  0  0  0  0  0  0  0
    0.4654    0.2980   -1.8023 H   0  0  0  0  0  0  0  0  0  0  0  0
    2.2989    0.5587    1.7154 N   0  0  0  0  0  0  0  0  0  0  0  0
    2.9545    0.8539    2.9961 C   0  0  2  0  0  0  0  0  0  0  0  0
    3.1937    2.3698    3.1588 C   0  0  0  0  0  0  0  0  0  0  0  0
    3.0061    3.1252    2.2099 O   0  0  0  0  0  0  0  0  0  0  0  0
    4.2764    0.0825    3.0496 C   0  0  0  0  0  0  0  0  0  0  0  0
    2.3572    1.2882    1.0061 H   0  0  0  0  0  0  0  0  0  0  0  0
    2.3164    0.5349    3.8273 H   0  0  0  0  0  0  0  0  0  0  0  0
    4.9383    0.3995    2.2373 H   0  0  0  0  0  0  0  0  0  0  0  0
    4.7860    0.2554    4.0021 H   0  0  0  0  0  0  0  0  0  0  0  0
    4.0904   -0.9916    2.9493 H   0  0  0  0  0  0  0  0  0  0  0  0
    3.5933    2.8929    4.3745 N   0  0  0  0  0  0  0  0  0  0  0  0
    3.8153    4.3162    4.6006 C   0  0  0  0  0  0  0  0  0  0  0  0
    3.7207    2.2453    5.1471 H   0  0  0  0  0  0  0  0  0  0  0  0
    4.6006    4.6920    3.9360 H   0  0  0  0  0  0  0  0  0  0  0  0
    2.8959    4.8820    4.4154 H   0  0  0  0  0  0  0  0  0  0  0  0
    4.1260    4.4910    5.6353 H   0  0  0  0  0  0  0  0  0  0  0  0
  1  2  2  0  0  0  0
  1  3  1  0  0  0  0
  1  7  1  0  0  0  0
  3  4  1  0  0  0  0
  3  5  1  0  0  0  0
  3  6  1  0  0  0  0
  7  8  1  0  0  0  0
  7 12  1  0  0  0  0
  8  9  1  0  0  0  0
  8 11  1  0  0  0  0
  8 13  1  0  0  0  0
  9 10  2  0  0  0  0
  9 17  1  0  0  0  0
 11 14  1  0  0  0  0
 11 15  1  0  0  0  0
 11 16  1  0  0  0  0
 17 18  1  0  0  0  0
 17 22  1  0  0  0  0
 18 19  1  0  0  0  0
 18 21  1  0  0  0  0
 18 23  1  0  0  0  0
 19 20  2  0  0  0  0
 19 27  1  0  0  0  0
 21 24  1  0  0  0  0
 21 25  1  0  0  0  0
 21 26  1  0  0  0  0
 27 28  1  0  0  0  0
 27 32  1  0  0  0  0
 28 29  1  0  0  0  0
 28 31  1  0  0  0  0
 28 33  1  0  0  0  0
 29 30  2  0  0  0  0
 29 37  1  0  0  0  0
 31 34  1  0  0  0  0
 31 35  1  0  0  0  0
 31 36  1  0  0  0  0
 37 38  1  0  0  0  0
 37 39  1  0  0  0  0
 38 40  1  0  0  0  0
 38 41  1  0  0  0  0
 38 42  1  0  0  0  0
M  END
$$$$

  -OEChem-05262215353D

 42 41  0     1  0  0  0  0  0999 V2000
   -5.4585   -0.8382    2.0585 C   0  0  0  0  0  0  0  0  0  0  0  0
   -5.8732    0.2823    1.8058 O   0  0  0  0  0  0  0  0  0  0  0  0
   -6.4326   -1.9831    2.2607 C   0  0  0  0  0  0  0  0  0  0  0  0
   -6.3306   -2.3850    3.2716 H   0  0  0  0  0  0  0  0  0  0  0  0
   -7.4595   -1.6338    2.1222 H   0  0  0  0  0  0  0  0  0  0  0  0
   -6.2304   -2.7768    1.5376 H   0  0  0  0  0  0  0  0  0  0  0  0
   -4.1029   -1.0682    2.1517 N   0  0  0  0  0  0  0  0  0  0  0  0
   -3.0689   -0.0797    1.8230 C   0  0  2  0  0  0  0  0  0  0  0  0
   -1.8152   -0.7488    1.2221 C   0  0  0  0  0  0  0  0  0  0  0  0
   -1.6727   -1.9630    1.2962 O   0  0  0  0  0  0  0  0  0  0  0  0
   -2.7082    0.6811    3.1022 C   0  0  0  0  0  0  0  0  0  0  0  0
   -3.7956   -2.0373    2.2349 H   0  0  0  0  0  0  0  0  0  0  0  0
   -3.4529    0.6251    1.0778 H   0  0  0  0  0  0  0  0  0  0  0  0
   -2.3181   -0.0081    3.8583 H   0  0  0  0  0  0  0  0  0  0  0  0
   -1.9485    1.4414    2.8985 H   0  0  0  0  0  0  0  0  0  0  0  0
   -3.5938    1.1799    3.5084 H   0  0  0  0  0  0  0  0  0  0  0  0
   -0.8718    0.0153    0.5579 N   0  0  0  0  0  0  0  0  0  0  0  0
    0.4972   -0.4551    0.2954 C   0  0  2  0  0  0  0  0  0  0  0  0
    1.3900   -0.4274    1.5593 C   0  0  0  0  0  0  0  0  0  0  0  0
    1.4498   -1.3838    2.3175 O   0  0  0  0  0  0  0  0  0  0  0  0
    1.0673    0.3876   -0.8512 C   0  0  0  0  0  0  0  0  0  0  0  0
   -1.0289    1.0185    0.5806 H   0  0  0  0  0  0  0  0  0  0  0  0
    0.4651   -1.4977   -0.0423 H   0  0  0  0  0  0  0  0  0  0  0  0
    1.0690    1.4518   -0.5959 H   0  0  0  0  0  0  0  0  0  0  0  0
    2.0935    0.0788   -1.0746 H   0  0  0  0  0  0  0  0  0  0  0  0
    0.4628    0.2501   -1.7534 H   0  0  0  0  0  0  0  0  0  0  0  0
    2.1238    0.7039    1.8664 N   0  0  0  0  0  0  0  0  0  0  0  0
    2.7776    0.9428    3.1591 C   0  0  2  0  0  0  0  0  0  0  0  0
    2.5564    2.3957    3.6298 C   0  0  0  0  0  0  0  0  0  0  0  0
    2.0559    3.2176    2.8678 O   0  0  0  0  0  0  0  0  0  0  0  0
    4.2690    0.6362    3.0013 C   0  0  0  0  0  0  0  0  0  0  0  0
    1.9309    1.5339    1.3083 H   0  0  0  0  0  0  0  0  0  0  0  0
    2.3558    0.2855    3.9270 H   0  0  0  0  0  0  0  0  0  0  0  0
    4.7179    1.2915    2.2480 H   0  0  0  0  0  0  0  0  0  0  0  0
    4.7952    0.7822    3.9494 H   0  0  0  0  0  0  0  0  0  0  0  0
    4.4075   -0.4035    2.6870 H   0  0  0  0  0  0  0  0  0  0  0  0
    2.9029    2.7797    4.9118 N   0  0  0  0  0  0  0  0  0  0  0  0
    2.7142    4.1322    5.4218 C   0  0  0  0  0  0  0  0  0  0  0  0
    3.2985    2.0724    5.5247 H   0  0  0  0  0  0  0  0  0  0  0  0
    3.2895    4.8503    4.8281 H   0  0  0  0  0  0  0  0  0  0  0  0
    1.6561    4.4112    5.3838 H   0  0  0  0  0  0  0  0  0  0  0  0
    3.0514    4.1949    6.4609 H   0  0  0  0  0  0  0  0  0  0  0  0
  1  2  2  0  0  0  0
  1  3  1  0  0  0  0
  1  7  1  0  0  0  0
  3  4  1  0  0  0  0
  3  5  1  0  0  0  0
  3  6  1  0  0  0  0
  7  8  1  0  0  0  0
  7 12  1  0  0  0  0
  8  9  1  0  0  0  0
  8 11  1  0  0  0  0
  8 13  1  0  0  0  0
  9 10  2  0  0  0  0
  9 17  1  0  0  0  0
 11 14  1  0  0  0  0
 11 15  1  0  0  0  0
 11 16  1  0  0  0  0
 17 18  1  0  0  0  0
 17 22  1  0  0  0  0
 18 19  1  0  0  0  0
 18 21  1  0  0  0  0
 18 23  1  0  0  0  0
 19 20  2  0  0  0  0
 19 27  1  0  0  0  0
 21 24  1  0  0  0  0
 21 25  1  0  0  0  0
 21 26  1  0  0  0  0
 27 28  1  0  0  0  0
 27 32  1  0  0  0  0
 28 29  1  0  0  0  0
 28 31  1  0  0  0  0
 28 33  1  0  0  0  0
 29 30  2  0  0  0  0
 29 37  1  0  0  0  0
 31 34  1  0  0  0  0
 31 35  1  0  0  0  0
 31 36  1  0  0  0  0
 37 38  1  0  0  0  0
 37 39  1  0  0  0  0
 38 40  1  0  0  0  0
 38 41  1  0  0  0  0
 38 42  1  0  0  0  0
M  END
$$$$

  -OEChem-05262215353D

 42 41  0     1  0  0  0  0  0999 V2000
   -5.1200   -0.4136    2.5403 C   0  0  0  0  0  0  0  0  0  0  0  0
   -5.5911    0.5994    2.0474 O   0  0  0  0  0  0  0  0  0  0  0  0
   -6.0337   -1.4592    3.1518 C   0  0  0  0  0  0  0  0  0  0  0  0
   -5.8178   -1.5646    4.2177 H   0  0  0  0  0  0  0  0  0  0  0  0
   -7.0798   -1.1638    3.0315 H   0  0  0  0  0  0  0  0  0  0  0  0
   -5.8806   -2.4227    2.6594 H   0  0  0  0  0  0  0  0  0  0  0  0
   -3.7566   -0.6146    2.5406 N   0  0  0  0  0  0  0  0  0  0  0  0
   -2.7934    0.2341    1.8277 C   0  0  2  0  0  0  0  0  0  0  0  0
   -1.5765   -0.5842    1.3428 C   0  0  0  0  0  0  0  0  0  0  0  0
   -1.4806   -1.7689    1.6395 O   0  0  0  0  0  0  0  0  0  0  0  0
   -2.3552    1.3630    2.7657 C   0  0  0  0  0  0  0  0  0  0  0  0
   -3.4226   -1.5359    2.8237 H   0  0  0  0  0  0  0  0  0  0  0  0
   -3.2689    0.6673    0.9413 H   0  0  0  0  0  0  0  0  0  0  0  0
   -1.8293    0.9562    3.6351 H   0  0  0  0  0  0  0  0  0  0  0  0
   -1.6881    2.0577    2.2473 H   0  0  0  0  0  0  0  0  0  0  0  0
   -3.2260    1.9258    3.1164 H   0  0  0  0  0  0  0  0  0  0  0  0
   -0.6123   -0.0026    0.5375 N   0  0  0  0  0  0  0  0  0  0  0  0
    0.6915   -0.6314    0.2648 C   0  0  2  0  0  0  0  0  0  0  0  0
    1.6500   -0.5291    1.4722 C   0  0  0  0  0  0  0  0  0  0  0  0
    1.8389   -1.4818    2.2144 O   0  0  0  0  0  0  0  0  0  0  0  0
    1.2790    0.0127   -0.9953 C   0  0  0  0  0  0  0  0  0  0  0  0
   -0.6969    1.0020    0.4112 H   0  0  0  0  0  0  0  0  0  0  0  0
    0.5457   -1.6985    0.0597 H   0  0  0  0  0  0  0  0  0  0  0  0
    1.4065    1.0915   -0.8637 H   0  0  0  0  0  0  0  0  0  0  0  0
    2.2538   -0.4288   -1.2260 H   0  0  0  0  0  0  0  0  0  0  0  0
    0.6144   -0.1561   -1.8485 H   0  0  0  0  0  0  0  0  0  0  0  0
    2.2558    0.6808    1.7613 N   0  0  0  0  0  0  0  0  0  0  0  0
    2.6829    1.0245    3.1233 C   0  0  2  0  0  0  0  0  0  0  0  0
    1.5653    1.7983    3.8533 C   0  0  0  0  0  0  0  0  0  0  0  0
    0.8018    2.5128    3.2095 O   0  0  0  0  0  0  0  0  0  0  0  0
    3.9538    1.8695    3.0233 C   0  0  0  0  0  0  0  0  0  0  0  0
    1.9067    1.4610    1.2116 H   0  0  0  0  0  0  0  0  0  0  0  0
    2.9147    0.1236    3.7013 H   0  0  0  0  0  0  0  0  0  0  0  0
    3.7611    2.7904    2.4633 H   0  0  0  0  0  0  0  0  0  0  0  0
    4.3127    2.1377    4.0217 H   0  0  0  0  0  0  0  0  0  0  0  0
    4.7416    1.3074    2.5117 H   0  0  0  0  0  0  0  0  0  0  0  0
    1.4112    1.6944    5.2226 N   0  0  0  0  0  0  0  0  0  0  0  0
    0.3271    2.3377    5.9553 C   0  0  0  0  0  0  0  0  0  0  0  0
    1.9930    1.0156    5.7061 H   0  0  0  0  0  0  0  0  0  0  0  0
    0.3284    3.4179    5.7747 H   0  0  0  0  0  0  0  0  0  0  0  0
   -0.6405    1.9296    5.6452 H   0  0  0  0  0  0  0  0  0  0  0  0
    0.4458    2.1698    7.0302 H   0  0  0  0  0  0  0  0  0  0  0  0
  1  2  2  0  0  0  0
  1  3  1  0  0  0  0
  1  7  1  0  0  0  0
  3  4  1  0  0  0  0
  3  5  1  0  0  0  0
  3  6  1  0  0  0  0
  7  8  1  0  0  0  0
  7 12  1  0  0  0  0
  8  9  1  0  0  0  0
  8 11  1  0  0  0  0
  8 13  1  0  0  0  0
  9 10  2  0  0  0  0
  9 17  1  0  0  0  0
 11 14  1  0  0  0  0
 11 15  1  0  0  0  0
 11 16  1  0  0  0  0
 17 18  1  0  0  0  0
 17 22  1  0  0  0  0
 18 19  1  0  0  0  0
 18 21  1  0  0  0  0
 18 23  1  0  0  0  0
 19 20  2  0  0  0  0
 19 27  1  0  0  0  0
 21 24  1  0  0  0  0
 21 25  1  0  0  0  0
 21 26  1  0  0  0  0
 27 28  1  0  0  0  0
 27 32  1  0  0  0  0
 28 29  1  0  0  0  0
 28 31  1  0  0  0  0
 28 33  1  0  0  0  0
 29 30  2  0  0  0  0
 29 37  1  0  0  0  0
 31 34  1  0  0  0  0
 31 35  1  0  0  0  0
 31 36  1  0  0  0  0
 37 38  1  0  0  0  0
 37 39  1  0  0  0  0
 38 40  1  0  0  0  0
 38 41  1  0  0  0  0
 38 42  1  0  0  0  0
M  END
$$$$

  -OEChem-05262215353D

 42 41  0     1  0  0  0  0  0999 V2000
   -5.2915   -0.6254    2.2333 C   0  0  0  0  0  0  0  0  0  0  0  0
   -5.7558    0.2675    1.5418 O   0  0  0  0  0  0  0  0  0  0  0  0
   -6.1992   -1.7043    2.7929 C   0  0  0  0  0  0  0  0  0  0  0  0
   -6.2029   -1.6577    3.8845 H   0  0  0  0  0  0  0  0  0  0  0  0
   -7.2211   -1.5634    2.4298 H   0  0  0  0  0  0  0  0  0  0  0  0
   -5.8468   -2.6896    2.4784 H   0  0  0  0  0  0  0  0  0  0  0  0
   -3.9403   -0.6612    2.5031 N   0  0  0  0  0  0  0  0  0  0  0  0
   -2.9475    0.2209    1.8770 C   0  0  2  0  0  0  0  0  0  0  0  0
   -1.6342   -0.5319    1.5773 C   0  0  0  0  0  0  0  0  0  0  0  0
   -1.4240   -1.6274    2.0834 O   0  0  0  0  0  0  0  0  0  0  0  0
   -2.6926    1.4004    2.8191 C   0  0  0  0  0  0  0  0  0  0  0  0
   -3.5790   -1.4993    2.9579 H   0  0  0  0  0  0  0  0  0  0  0  0
   -3.3323    0.5981    0.9235 H   0  0  0  0  0  0  0  0  0  0  0  0
   -2.2696    1.0509    3.7665 H   0  0  0  0  0  0  0  0  0  0  0  0
   -1.9924    2.1095    2.3681 H   0  0  0  0  0  0  0  0  0  0  0  0
   -3.6283    1.9278    3.0284 H   0  0  0  0  0  0  0  0  0  0  0  0
   -0.6925    0.0136    0.7229 N   0  0  0  0  0  0  0  0  0  0  0  0
    0.6205   -0.5958    0.4531 C   0  0  2  0  0  0  0  0  0  0  0  0
    1.6016   -0.4063    1.6287 C   0  0  0  0  0  0  0  0  0  0  0  0
    2.1321   -1.3671    2.1683 O   0  0  0  0  0  0  0  0  0  0  0  0
    1.1771   -0.0007   -0.8428 C   0  0  0  0  0  0  0  0  0  0  0  0
   -0.9024    0.9283    0.3345 H   0  0  0  0  0  0  0  0  0  0  0  0
    0.4944   -1.6751    0.3053 H   0  0  0  0  0  0  0  0  0  0  0  0
    1.3081    1.0820   -0.7527 H   0  0  0  0  0  0  0  0  0  0  0  0
    2.1475   -0.4504   -1.0762 H   0  0  0  0  0  0  0  0  0  0  0  0
    0.4954   -0.2023   -1.6750 H   0  0  0  0  0  0  0  0  0  0  0  0
    1.9364    0.8726    2.0341 N   0  0  0  0  0  0  0  0  0  0  0  0
    2.4443    1.1494    3.3831 C   0  0  2  0  0  0  0  0  0  0  0  0
    1.2968    1.6390    4.2900 C   0  0  0  0  0  0  0  0  0  0  0  0
    0.3910    2.3144    3.8095 O   0  0  0  0  0  0  0  0  0  0  0  0
    3.5389    2.2120    3.2710 C   0  0  0  0  0  0  0  0  0  0  0  0
    1.3345    1.5959    1.6493 H   0  0  0  0  0  0  0  0  0  0  0  0
    2.8799    0.2508    3.8326 H   0  0  0  0  0  0  0  0  0  0  0  0
    3.1372    3.1348    2.8400 H   0  0  0  0  0  0  0  0  0  0  0  0
    3.9502    2.4405    4.2589 H   0  0  0  0  0  0  0  0  0  0  0  0
    4.3513    1.8518    2.6319 H   0  0  0  0  0  0  0  0  0  0  0  0
    1.2745    1.3252    5.6356 N   0  0  0  0  0  0  0  0  0  0  0  0
    0.1647    1.6752    6.5141 C   0  0  0  0  0  0  0  0  0  0  0  0
    1.9760    0.6707    5.9712 H   0  0  0  0  0  0  0  0  0  0  0  0
    0.0024    2.7583    6.5157 H   0  0  0  0  0  0  0  0  0  0  0  0
   -0.7556    1.1814    6.1844 H   0  0  0  0  0  0  0  0  0  0  0  0
    0.3796    1.3589    7.5394 H   0  0  0  0  0  0  0  0  0  0  0  0
  1  2  2  0  0  0  0
  1  3  1  0  0  0  0
  1  7  1  0  0  0  0
  3  4  1  0  0  0  0
  3  5  1  0  0  0  0
  3  6  1  0  0  0  0
  7  8  1  0  0  0  0
  7 12  1  0  0  0  0
  8  9  1  0  0  0  0
  8 11  1  0  0  0  0
  8 13  1  0  0  0  0
  9 10  2  0  0  0  0
  9 17  1  0  0  0  0
 11 14  1  0  0  0  0
 11 15  1  0  0  0  0
 11 16  1  0  0  0  0
 17 18  1  0  0  0  0
 17 22  1  0  0  0  0
 18 19  1  0  0  0  0
 18 21  1  0  0  0  0
 18 23  1  0  0  0  0
 19 20  2  0  0  0  0
 19 27  1  0  0  0  0
 21 24  1  0  0  0  0
 21 25  1  0  0  0  0
 21 26  1  0  0  0  0
 27 28  1  0  0  0  0
 27 32  1  0  0  0  0
 28 29  1  0  0  0  0
 28 31  1  0  0  0  0
 28 33  1  0  0  0  0
 29 30  2  0  0  0  0
 29 37  1  0  0  0  0
 31 34  1  0  0  0  0
 31 35  1  0  0  0  0
 31 36  1  0  0  0  0
 37 38  1  0  0  0  0
 37 39  1  0  0  0  0
 38 40  1  0  0  0  0
 38 41  1  0  0  0  0
 38 42  1  0  0  0  0
M  END
$$$$

  -OEChem-05262215353D

 42 41  0     1  0  0  0  0  0999 V2000
   -5.4685   -1.0120    1.6841 C   0  0  0  0  0  0  0  0  0  0  0  0
   -5.8534   -0.1264    0.9366 O   0  0  0  0  0  0  0  0  0  0  0  0
   -6.3343   -2.2365    1.9143 C   0  0  0  0  0  0  0  0  0  0  0  0
   -6.5367   -2.3561    2.9815 H   0  0  0  0  0  0  0  0  0  0  0  0
   -7.2857   -2.1306    1.3851 H   0  0  0  0  0  0  0  0  0  0  0  0
   -5.8228   -3.1288    1.5448 H   0  0  0  0  0  0  0  0  0  0  0  0
   -4.2422   -0.9152    2.3082 N   0  0  0  0  0  0  0  0  0  0  0  0
   -3.2260    0.0932    1.9760 C   0  0  2  0  0  0  0  0  0  0  0  0
   -1.8796   -0.5607    1.6053 C   0  0  0  0  0  0  0  0  0  0  0  0
   -1.6053   -1.6813    2.0162 O   0  0  0  0  0  0  0  0  0  0  0  0
   -3.0557    1.0119    3.1884 C   0  0  0  0  0  0  0  0  0  0  0  0
   -3.9058   -1.7559    2.7754 H   0  0  0  0  0  0  0  0  0  0  0  0
   -3.5468    0.6941    1.1188 H   0  0  0  0  0  0  0  0  0  0  0  0
   -2.6892    0.4470    4.0520 H   0  0  0  0  0  0  0  0  0  0  0  0
   -2.3394    1.8094    2.9685 H   0  0  0  0  0  0  0  0  0  0  0  0
   -4.0134    1.4714    3.4523 H   0  0  0  0  0  0  0  0  0  0  0  0
   -0.9531    0.1256    0.8411 N   0  0  0  0  0  0  0  0  0  0  0  0
    0.3732   -0.4076    0.4882 C   0  0  2  0  0  0  0  0  0  0  0  0
    1.3535   -0.3703    1.6779 C   0  0  0  0  0  0  0  0  0  0  0  0
    2.1634   -1.2698    1.8558 O   0  0  0  0  0  0  0  0  0  0  0  0
    0.9202    0.3929   -0.6951 C   0  0  0  0  0  0  0  0  0  0  0  0
   -1.2276    1.0384    0.4892 H   0  0  0  0  0  0  0  0  0  0  0  0
    0.2731   -1.4546    0.1791 H   0  0  0  0  0  0  0  0  0  0  0  0
    1.0373    1.4485   -0.4309 H   0  0  0  0  0  0  0  0  0  0  0  0
    1.8970   -0.0006   -0.9943 H   0  0  0  0  0  0  0  0  0  0  0  0
    0.2419    0.3178   -1.5505 H   0  0  0  0  0  0  0  0  0  0  0  0
    1.4213    0.7686    2.4560 N   0  0  0  0  0  0  0  0  0  0  0  0
    2.0620    0.8085    3.7744 C   0  0  2  0  0  0  0  0  0  0  0  0
    1.1242    1.4678    4.8088 C   0  0  0  0  0  0  0  0  0  0  0  0
    0.1165    2.0616    4.4331 O   0  0  0  0  0  0  0  0  0  0  0  0
    3.3727    1.5874    3.6439 C   0  0  0  0  0  0  0  0  0  0  0  0
    0.6352    1.4061    2.3425 H   0  0  0  0  0  0  0  0  0  0  0  0
    2.2788   -0.2065    4.1257 H   0  0  0  0  0  0  0  0  0  0  0  0
    3.1779    2.6124    3.3127 H   0  0  0  0  0  0  0  0  0  0  0  0
    3.8963    1.6235    4.6038 H   0  0  0  0  0  0  0  0  0  0  0  0
    4.0271    1.1027    2.9122 H   0  0  0  0  0  0  0  0  0  0  0  0
    1.4029    1.3946    6.1609 N   0  0  0  0  0  0  0  0  0  0  0  0
    0.5460    1.9757    7.1875 C   0  0  0  0  0  0  0  0  0  0  0  0
    2.2233    0.8664    6.4446 H   0  0  0  0  0  0  0  0  0  0  0  0
    0.4271    3.0522    7.0250 H   0  0  0  0  0  0  0  0  0  0  0  0
   -0.4428    1.5056    7.1716 H   0  0  0  0  0  0  0  0  0  0  0  0
    0.9856    1.8242    8.1781 H   0  0  0  0  0  0  0  0  0  0  0  0
  1  2  2  0  0  0  0
  1  3  1  0  0  0  0
  1  7  1  0  0  0  0
  3  4  1  0  0  0  0
  3  5  1  0  0  0  0
  3  6  1  0  0  0  0
  7  8  1  0  0  0  0
  7 12  1  0  0  0  0
  8  9  1  0  0  0  0
  8 11  1  0  0  0  0
  8 13  1  0  0  0  0
  9 10  2  0  0  0  0
  9 17  1  0  0  0  0
 11 14  1  0  0  0  0
 11 15  1  0  0  0  0
 11 16  1  0  0  0  0
 17 18  1  0  0  0  0
 17 22  1  0  0  0  0
 18 19  1  0  0  0  0
 18 21  1  0  0  0  0
 18 23  1  0  0  0  0
 19 20  2  0  0  0  0
 19 27  1  0  0  0  0
 21 24  1  0  0  0  0
 21 25  1  0  0  0  0
 21 26  1  0  0  0  0
 27 28  1  0  0  0  0
 27 32  1  0  0  0  0
 28 29  1  0  0  0  0
 28 31  1  0  0  0  0
 28 33  1  0  0  0  0
 29 30  2  0  0  0  0
 29 37  1  0  0  0  0
 31 34  1  0  0  0  0
 31 35  1  0  0  0  0
 31 36  1  0  0  0  0
 37 38  1  0  0  0  0
 37 39  1  0  0  0  0
 38 40  1  0  0  0  0
 38 41  1  0  0  0  0
 38 42  1  0  0  0  0
M  END
$$$$

  -OEChem-05262215353D

 42 41  0     1  0  0  0  0  0999 V2000
   -5.5283   -1.0501    1.6568 C   0  0  0  0  0  0  0  0  0  0  0  0
   -5.9405   -0.1301    0.9679 O   0  0  0  0  0  0  0  0  0  0  0  0
   -6.3852   -2.2847    1.8655 C   0  0  0  0  0  0  0  0  0  0  0  0
   -6.5274   -2.4647    2.9337 H   0  0  0  0  0  0  0  0  0  0  0  0
   -7.3648   -2.1477    1.3990 H   0  0  0  0  0  0  0  0  0  0  0  0
   -5.8996   -3.1553    1.4174 H   0  0  0  0  0  0  0  0  0  0  0  0
   -4.2763   -0.9824    2.2310 N   0  0  0  0  0  0  0  0  0  0  0  0
   -3.2808    0.0551    1.9289 C   0  0  2  0  0  0  0  0  0  0  0  0
   -1.9071   -0.5615    1.5959 C   0  0  0  0  0  0  0  0  0  0  0  0
   -1.6122   -1.6728    2.0183 O   0  0  0  0  0  0  0  0  0  0  0  0
   -3.1701    0.9742    3.1478 C   0  0  0  0  0  0  0  0  0  0  0  0
   -3.9237   -1.8367    2.6604 H   0  0  0  0  0  0  0  0  0  0  0  0
   -3.5954    0.6464    1.0628 H   0  0  0  0  0  0  0  0  0  0  0  0
   -2.8322    0.4108    4.0238 H   0  0  0  0  0  0  0  0  0  0  0  0
   -2.4551    1.7808    2.9594 H   0  0  0  0  0  0  0  0  0  0  0  0
   -4.1428    1.4215    3.3750 H   0  0  0  0  0  0  0  0  0  0  0  0
   -0.9761    0.1434    0.8532 N   0  0  0  0  0  0  0  0  0  0  0  0
    0.3624   -0.3769    0.5220 C   0  0  2  0  0  0  0  0  0  0  0  0
    1.3305   -0.3453    1.7226 C   0  0  0  0  0  0  0  0  0  0  0  0
    2.2979   -1.0936    1.7667 O   0  0  0  0  0  0  0  0  0  0  0  0
    0.9242    0.4440   -0.6406 C   0  0  0  0  0  0  0  0  0  0  0  0
   -1.2625    1.0434    0.4779 H   0  0  0  0  0  0  0  0  0  0  0  0
    0.2764   -1.4210    0.1997 H   0  0  0  0  0  0  0  0  0  0  0  0
    1.0391    1.4939   -0.3529 H   0  0  0  0  0  0  0  0  0  0  0  0
    1.9048    0.0563   -0.9358 H   0  0  0  0  0  0  0  0  0  0  0  0
    0.2569    0.3859   -1.5060 H   0  0  0  0  0  0  0  0  0  0  0  0
    1.1793    0.6291    2.6895 N   0  0  0  0  0  0  0  0  0  0  0  0
    1.8390    0.5882    3.9973 C   0  0  2  0  0  0  0  0  0  0  0  0
    0.8452    0.9690    5.1146 C   0  0  0  0  0  0  0  0  0  0  0  0
   -0.2142    1.5221    4.8314 O   0  0  0  0  0  0  0  0  0  0  0  0
    3.0270    1.5520    3.9677 C   0  0  0  0  0  0  0  0  0  0  0  0
    0.2872    1.1203    2.6674 H   0  0  0  0  0  0  0  0  0  0  0  0
    2.1992   -0.4246    4.2072 H   0  0  0  0  0  0  0  0  0  0  0  0
    2.6863    2.5734    3.7707 H   0  0  0  0  0  0  0  0  0  0  0  0
    3.5562    1.5386    4.9249 H   0  0  0  0  0  0  0  0  0  0  0  0
    3.7295    1.2606    3.1802 H   0  0  0  0  0  0  0  0  0  0  0  0
    1.1310    0.6863    6.4371 N   0  0  0  0  0  0  0  0  0  0  0  0
    0.2138    0.9768    7.5325 C   0  0  0  0  0  0  0  0  0  0  0  0
    1.9922    0.1846    6.6351 H   0  0  0  0  0  0  0  0  0  0  0  0
   -0.0081    2.0485    7.5726 H   0  0  0  0  0  0  0  0  0  0  0  0
   -0.7247    0.4274    7.4025 H   0  0  0  0  0  0  0  0  0  0  0  0
    0.6587    0.6812    8.4875 H   0  0  0  0  0  0  0  0  0  0  0  0
  1  2  2  0  0  0  0
  1  3  1  0  0  0  0
  1  7  1  0  0  0  0
  3  4  1  0  0  0  0
  3  5  1  0  0  0  0
  3  6  1  0  0  0  0
  7  8  1  0  0  0  0
  7 12  1  0  0  0  0
  8  9  1  0  0  0  0
  8 11  1  0  0  0  0
  8 13  1  0  0  0  0
  9 10  2  0  0  0  0
  9 17  1  0  0  0  0
 11 14  1  0  0  0  0
 11 15  1  0  0  0  0
 11 16  1  0  0  0  0
 17 18  1  0  0  0  0
 17 22  1  0  0  0  0
 18 19  1  0  0  0  0
 18 21  1  0  0  0  0
 18 23  1  0  0  0  0
 19 20  2  0  0  0  0
 19 27  1  0  0  0  0
 21 24  1  0  0  0  0
 21 25  1  0  0  0  0
 21 26  1  0  0  0  0
 27 28  1  0  0  0  0
 27 32  1  0  0  0  0
 28 29  1  0  0  0  0
 28 31  1  0  0  0  0
 28 33  1  0  0  0  0
 29 30  2  0  0  0  0
 29 37  1  0  0  0  0
 31 34  1  0  0  0  0
 31 35  1  0  0  0  0
 31 36  1  0  0  0  0
 37 38  1  0  0  0  0
 37 39  1  0  0  0  0
 38 40  1  0  0  0  0
 38 41  1  0  0  0  0
 38 42  1  0  0  0  0
M  END
$$$$

  -OEChem-05262215353D

 42 41  0     1  0  0  0  0  0999 V2000
   -5.5764   -1.0942    1.5996 C   0  0  0  0  0  0  0  0  0  0  0  0
   -5.9977   -0.1778    0.9113 O   0  0  0  0  0  0  0  0  0  0  0  0
   -6.4337   -2.3239    1.8349 C   0  0  0  0  0  0  0  0  0  0  0  0
   -6.5825   -2.4759    2.9068 H   0  0  0  0  0  0  0  0  0  0  0  0
   -7.4103   -2.1999    1.3586 H   0  0  0  0  0  0  0  0  0  0  0  0
   -5.9451   -3.2056    1.4128 H   0  0  0  0  0  0  0  0  0  0  0  0
   -4.3178   -1.0210    2.1582 N   0  0  0  0  0  0  0  0  0  0  0  0
   -3.3354    0.0295    1.8592 C   0  0  2  0  0  0  0  0  0  0  0  0
   -1.9491   -0.5666    1.5401 C   0  0  0  0  0  0  0  0  0  0  0  0
   -1.6535   -1.6900    1.9288 O   0  0  0  0  0  0  0  0  0  0  0  0
   -3.2544    0.9542    3.0762 C   0  0  0  0  0  0  0  0  0  0  0  0
   -3.9581   -1.8691    2.5943 H   0  0  0  0  0  0  0  0  0  0  0  0
   -3.6508    0.6122    0.9872 H   0  0  0  0  0  0  0  0  0  0  0  0
   -2.9482    0.3926    3.9650 H   0  0  0  0  0  0  0  0  0  0  0  0
   -2.5291    1.7557    2.9065 H   0  0  0  0  0  0  0  0  0  0  0  0
   -4.2314    1.4076    3.2711 H   0  0  0  0  0  0  0  0  0  0  0  0
   -1.0016    0.1722    0.8533 N   0  0  0  0  0  0  0  0  0  0  0  0
    0.3495   -0.3271    0.5385 C   0  0  2  0  0  0  0  0  0  0  0  0
    1.2989   -0.3457    1.7569 C   0  0  0  0  0  0  0  0  0  0  0  0
    2.3899   -0.8966    1.6885 O   0  0  0  0  0  0  0  0  0  0  0  0
    0.9254    0.5509   -0.5751 C   0  0  0  0  0  0  0  0  0  0  0  0
   -1.2787    1.0887    0.5124 H   0  0  0  0  0  0  0  0  0  0  0  0
    0.2782   -1.3562    0.1682 H   0  0  0  0  0  0  0  0  0  0  0  0
    1.0381    1.5843   -0.2323 H   0  0  0  0  0  0  0  0  0  0  0  0
    1.9091    0.1776   -0.8786 H   0  0  0  0  0  0  0  0  0  0  0  0
    0.2683    0.5389   -1.4502 H   0  0  0  0  0  0  0  0  0  0  0  0
    0.9656    0.3552    2.8990 N   0  0  0  0  0  0  0  0  0  0  0  0
    1.6631    0.2294    4.1811 C   0  0  2  0  0  0  0  0  0  0  0  0
    0.6644    0.3290    5.3531 C   0  0  0  0  0  0  0  0  0  0  0  0
   -0.4535    0.8030    5.1700 O   0  0  0  0  0  0  0  0  0  0  0  0
    2.7172    1.3357    4.2710 C   0  0  0  0  0  0  0  0  0  0  0  0
   -0.0021    0.6689    2.9508 H   0  0  0  0  0  0  0  0  0  0  0  0
    2.1532   -0.7482    4.2437 H   0  0  0  0  0  0  0  0  0  0  0  0
    2.2428    2.3204    4.2112 H   0  0  0  0  0  0  0  0  0  0  0  0
    3.2658    1.2688    5.2151 H   0  0  0  0  0  0  0  0  0  0  0  0
    3.4335    1.2426    3.4485 H   0  0  0  0  0  0  0  0  0  0  0  0
    1.0138   -0.1196    6.6131 N   0  0  0  0  0  0  0  0  0  0  0  0
    0.0973   -0.1105    7.7467 C   0  0  0  0  0  0  0  0  0  0  0  0
    1.9248   -0.5567    6.7197 H   0  0  0  0  0  0  0  0  0  0  0  0
   -0.2642    0.9050    7.9398 H   0  0  0  0  0  0  0  0  0  0  0  0
   -0.7625   -0.7589    7.5488 H   0  0  0  0  0  0  0  0  0  0  0  0
    0.6039   -0.4723    8.6464 H   0  0  0  0  0  0  0  0  0  0  0  0
  1  2  2  0  0  0  0
  1  3  1  0  0  0  0
  1  7  1  0  0  0  0
  3  4  1  0  0  0  0
  3  5  1  0  0  0  0
  3  6  1  0  0  0  0
  7  8  1  0  0  0  0
  7 12  1  0  0  0  0
  8  9  1  0  0  0  0
  8 11  1  0  0  0  0
  8 13  1  0  0  0  0
  9 10  2  0  0  0  0
  9 17  1  0  0  0  0
 11 14  1  0  0  0  0
 11 15  1  0  0  0  0
 11 16  1  0  0  0  0
 17 18  1  0  0  0  0
 17 22  1  0  0  0  0
 18 19  1  0  0  0  0
 18 21  1  0  0  0  0
 18 23  1  0  0  0  0
 19 20  2  0  0  0  0
 19 27  1  0  0  0  0
 21 24  1  0  0  0  0
 21 25  1  0  0  0  0
 21 26  1  0  0  0  0
 27 28  1  0  0  0  0
 27 32  1  0  0  0  0
 28 29  1  0  0  0  0
 28 31  1  0  0  0  0
 28 33  1  0  0  0  0
 29 30  2  0  0  0  0
 29 37  1  0  0  0  0
 31 34  1  0  0  0  0
 31 35  1  0  0  0  0
 31 36  1  0  0  0  0
 37 38  1  0  0  0  0
 37 39  1  0  0  0  0
 38 40  1  0  0  0  0
 38 41  1  0  0  0  0
 38 42  1  0  0  0  0
M  END
$$$$

  -OEChem-05262215353D

 42 41  0     1  0  0  0  0  0999 V2000
   -5.6184   -1.0819    1.5662 C   0  0  0  0  0  0  0  0  0  0  0  0
   -6.0403   -0.1491    0.9007 O   0  0  0  0  0  0  0  0  0  0  0  0
   -6.4866   -2.3042    1.7974 C   0  0  0  0  0  0  0  0  0  0  0  0
   -6.6141   -2.4731    2.8696 H   0  0  0  0  0  0  0  0  0  0  0  0
   -7.4711   -2.1587    1.3438 H   0  0  0  0  0  0  0  0  0  0  0  0
   -6.0184   -3.1843    1.3497 H   0  0  0  0  0  0  0  0  0  0  0  0
   -4.3515   -1.0323    2.1078 N   0  0  0  0  0  0  0  0  0  0  0  0
   -3.3638    0.0144    1.8156 C   0  0  2  0  0  0  0  0  0  0  0  0
   -1.9837   -0.5828    1.4726 C   0  0  0  0  0  0  0  0  0  0  0  0
   -1.6978   -1.7254    1.8081 O   0  0  0  0  0  0  0  0  0  0  0  0
   -3.2655    0.9205    3.0457 C   0  0  0  0  0  0  0  0  0  0  0  0
   -3.9974   -1.8894    2.5305 H   0  0  0  0  0  0  0  0  0  0  0  0
   -3.6836    0.6119    0.9554 H   0  0  0  0  0  0  0  0  0  0  0  0
   -2.9583    0.3438    3.9246 H   0  0  0  0  0  0  0  0  0  0  0  0
   -2.5351    1.7183    2.8817 H   0  0  0  0  0  0  0  0  0  0  0  0
   -4.2371    1.3795    3.2535 H   0  0  0  0  0  0  0  0  0  0  0  0
   -1.0149    0.1864    0.8534 N   0  0  0  0  0  0  0  0  0  0  0  0
    0.3448   -0.2941    0.5439 C   0  0  2  0  0  0  0  0  0  0  0  0
    1.2747   -0.3862    1.7778 C   0  0  0  0  0  0  0  0  0  0  0  0
    2.4550   -0.6853    1.6471 O   0  0  0  0  0  0  0  0  0  0  0  0
    0.9303    0.6455   -0.5154 C   0  0  0  0  0  0  0  0  0  0  0  0
   -1.2666    1.1374    0.5982 H   0  0  0  0  0  0  0  0  0  0  0  0
    0.2816   -1.3010    0.1163 H   0  0  0  0  0  0  0  0  0  0  0  0
    1.0527    1.6546   -0.1096 H   0  0  0  0  0  0  0  0  0  0  0  0
    1.9102    0.2841   -0.8442 H   0  0  0  0  0  0  0  0  0  0  0  0
    0.2732    0.6940   -1.3890 H   0  0  0  0  0  0  0  0  0  0  0  0
    0.8084   -0.0344    3.0293 N   0  0  0  0  0  0  0  0  0  0  0  0
    1.5530   -0.2025    4.2801 C   0  0  2  0  0  0  0  0  0  0  0  0
    0.5893   -0.4324    5.4630 C   0  0  0  0  0  0  0  0  0  0  0  0
   -0.5961   -0.1303    5.3609 O   0  0  0  0  0  0  0  0  0  0  0  0
    2.4028    1.0497    4.5170 C   0  0  0  0  0  0  0  0  0  0  0  0
   -0.2052    0.0260    3.1182 H   0  0  0  0  0  0  0  0  0  0  0  0
    2.2060   -1.0788    4.2059 H   0  0  0  0  0  0  0  0  0  0  0  0
    1.7642    1.9359    4.5913 H   0  0  0  0  0  0  0  0  0  0  0  0
    2.9782    0.9549    5.4427 H   0  0  0  0  0  0  0  0  0  0  0  0
    3.1041    1.1941    3.6891 H   0  0  0  0  0  0  0  0  0  0  0  0
    1.0504   -0.9778    6.6467 N   0  0  0  0  0  0  0  0  0  0  0  0
    0.1865   -1.2565    7.7873 C   0  0  0  0  0  0  0  0  0  0  0  0
    2.0273   -1.2542    6.6884 H   0  0  0  0  0  0  0  0  0  0  0  0
   -0.3083   -0.3403    8.1266 H   0  0  0  0  0  0  0  0  0  0  0  0
   -0.5794   -1.9910    7.5169 H   0  0  0  0  0  0  0  0  0  0  0  0
    0.7742   -1.6589    8.6180 H   0  0  0  0  0  0  0  0  0  0  0  0
  1  2  2  0  0  0  0
  1  3  1  0  0  0  0
  1  7  1  0  0  0  0
  3  4  1  0  0  0  0
  3  5  1  0  0  0  0
  3  6  1  0  0  0  0
  7  8  1  0  0  0  0
  7 12  1  0  0  0  0
  8  9  1  0  0  0  0
  8 11  1  0  0  0  0
  8 13  1  0  0  0  0
  9 10  2  0  0  0  0
  9 17  1  0  0  0  0
 11 14  1  0  0  0  0
 11 15  1  0  0  0  0
 11 16  1  0  0  0  0
 17 18  1  0  0  0  0
 17 22  1  0  0  0  0
 18 19  1  0  0  0  0
 18 21  1  0  0  0  0
 18 23  1  0  0  0  0
 19 20  2  0  0  0  0
 19 27  1  0  0  0  0
 21 24  1  0  0  0  0
 21 25  1  0  0  0  0
 21 26  1  0  0  0  0
 27 28  1  0  0  0  0
 27 32  1  0  0  0  0
 28 29  1  0  0  0  0
 28 31  1  0  0  0  0
 28 33  1  0  0  0  0
 29 30  2  0  0  0  0
 29 37  1  0  0  0  0
 31 34  1  0  0  0  0
 31 35  1  0  0  0  0
 31 36  1  0  0  0  0
 37 38  1  0  0  0  0
 37 39  1  0  0  0  0
 38 40  1  0  0  0  0
 38 41  1  0  0  0  0
 38 42  1  0  0  0  0
M  END
$$$$

  -OEChem-05262215353D

 42 41  0     1  0  0  0  0  0999 V2000
   -5.6101   -1.0387    1.6090 C   0  0  0  0  0  0  0  0  0  0  0  0
   -6.0306   -0.0830    0.9758 O   0  0  0  0  0  0  0  0  0  0  0  0
   -6.4857   -2.2614    1.8105 C   0  0  0  0  0  0  0  0  0  0  0  0
   -6.6510   -2.4300    2.8774 H   0  0  0  0  0  0  0  0  0  0  0  0
   -7.4538   -2.1173    1.3225 H   0  0  0  0  0  0  0  0  0  0  0  0
   -6.0018   -3.1418    1.3807 H   0  0  0  0  0  0  0  0  0  0  0  0
   -4.3361   -1.0170    2.1361 N   0  0  0  0  0  0  0  0  0  0  0  0
   -3.3369    0.0221    1.8532 C   0  0  2  0  0  0  0  0  0  0  0  0
   -1.9851   -0.5878    1.4311 C   0  0  0  0  0  0  0  0  0  0  0  0
   -1.7118   -1.7488    1.7096 O   0  0  0  0  0  0  0  0  0  0  0  0
   -3.1685    0.8640    3.1212 C   0  0  0  0  0  0  0  0  0  0  0  0
   -3.9867   -1.8905    2.5284 H   0  0  0  0  0  0  0  0  0  0  0  0
   -3.6744    0.6670    1.0352 H   0  0  0  0  0  0  0  0  0  0  0  0
   -2.8224    0.2412    3.9532 H   0  0  0  0  0  0  0  0  0  0  0  0
   -2.4399    1.6643    2.9605 H   0  0  0  0  0  0  0  0  0  0  0  0
   -4.1242    1.3183    3.4012 H   0  0  0  0  0  0  0  0  0  0  0  0
   -1.0051    0.1934    0.8466 N   0  0  0  0  0  0  0  0  0  0  0  0
    0.3524   -0.2868    0.5271 C   0  0  2  0  0  0  0  0  0  0  0  0
    1.2721   -0.4317    1.7666 C   0  0  0  0  0  0  0  0  0  0  0  0
    2.4904   -0.4621    1.6444 O   0  0  0  0  0  0  0  0  0  0  0  0
    0.9442    0.6734   -0.5113 C   0  0  0  0  0  0  0  0  0  0  0  0
   -1.2261    1.1718    0.6828 H   0  0  0  0  0  0  0  0  0  0  0  0
    0.2806   -1.2797    0.0701 H   0  0  0  0  0  0  0  0  0  0  0  0
    1.0850    1.6692   -0.0793 H   0  0  0  0  0  0  0  0  0  0  0  0
    1.9161    0.3061   -0.8567 H   0  0  0  0  0  0  0  0  0  0  0  0
    0.2820    0.7547   -1.3787 H   0  0  0  0  0  0  0  0  0  0  0  0
    0.7323   -0.4272    3.0382 N   0  0  0  0  0  0  0  0  0  0  0  0
    1.4931   -0.6116    4.2776 C   0  0  2  0  0  0  0  0  0  0  0  0
    0.6012   -1.1830    5.3997 C   0  0  0  0  0  0  0  0  0  0  0  0
   -0.6185   -1.0604    5.3453 O   0  0  0  0  0  0  0  0  0  0  0  0
    2.0761    0.7395    4.7040 C   0  0  0  0  0  0  0  0  0  0  0  0
   -0.2681   -0.6278    3.0874 H   0  0  0  0  0  0  0  0  0  0  0  0
    2.3079   -1.3222    4.1033 H   0  0  0  0  0  0  0  0  0  0  0  0
    1.2737    1.4640    4.8764 H   0  0  0  0  0  0  0  0  0  0  0  0
    2.6551    0.6342    5.6263 H   0  0  0  0  0  0  0  0  0  0  0  0
    2.7379    1.1315    3.9254 H   0  0  0  0  0  0  0  0  0  0  0  0
    1.1703   -1.8302    6.4809 N   0  0  0  0  0  0  0  0  0  0  0  0
    0.3903   -2.4210    7.5612 C   0  0  0  0  0  0  0  0  0  0  0  0
    2.1802   -1.9400    6.4851 H   0  0  0  0  0  0  0  0  0  0  0  0
   -0.2127   -1.6557    8.0609 H   0  0  0  0  0  0  0  0  0  0  0  0
   -0.2768   -3.1971    7.1717 H   0  0  0  0  0  0  0  0  0  0  0  0
    1.0538   -2.8766    8.3026 H   0  0  0  0  0  0  0  0  0  0  0  0
  1  2  2  0  0  0  0
  1  3  1  0  0  0  0
  1  7  1  0  0  0  0
  3  4  1  0  0  0  0
  3  5  1  0  0  0  0
  3  6  1  0  0  0  0
  7  8  1  0  0  0  0
  7 12  1  0  0  0  0
  8  9  1  0  0  0  0
  8 11  1  0  0  0  0
  8 13  1  0  0  0  0
  9 10  2  0  0  0  0
  9 17  1  0  0  0  0
 11 14  1  0  0  0  0
 11 15  1  0  0  0  0
 11 16  1  0  0  0  0
 17 18  1  0  0  0  0
 17 22  1  0  0  0  0
 18 19  1  0  0  0  0
 18 21  1  0  0  0  0
 18 23  1  0  0  0  0
 19 20  2  0  0  0  0
 19 27  1  0  0  0  0
 21 24  1  0  0  0  0
 21 25  1  0  0  0  0
 21 26  1  0  0  0  0
 27 28  1  0  0  0  0
 27 32  1  0  0  0  0
 28 29  1  0  0  0  0
 28 31  1  0  0  0  0
 28 33  1  0  0  0  0
 29 30  2  0  0  0  0
 29 37  1  0  0  0  0
 31 34  1  0  0  0  0
 31 35  1  0  0  0  0
 31 36  1  0  0  0  0
 37 38  1  0  0  0  0
 37 39  1  0  0  0  0
 38 40  1  0  0  0  0
 38 41  1  0  0  0  0
 38 42  1  0  0  0  0
M  END
$$$$

  -OEChem-05262215353D

 42 41  0     1  0  0  0  0  0999 V2000
   -5.5040   -1.0685    1.5964 C   0  0  0  0  0  0  0  0  0  0  0  0
   -5.8576   -0.1541    0.8685 O   0  0  0  0  0  0  0  0  0  0  0  0
   -6.3789   -2.2985    1.7486 C   0  0  0  0  0  0  0  0  0  0  0  0
   -6.6968   -2.4032    2.7889 H   0  0  0  0  0  0  0  0  0  0  0  0
   -7.2662   -2.2112    1.1152 H   0  0  0  0  0  0  0  0  0  0  0  0
   -5.8222   -3.1913    1.4533 H   0  0  0  0  0  0  0  0  0  0  0  0
   -4.3074   -0.9958    2.2778 N   0  0  0  0  0  0  0  0  0  0  0  0
   -3.2813    0.0272    2.0342 C   0  0  2  0  0  0  0  0  0  0  0  0
   -1.9919   -0.5836    1.4498 C   0  0  0  0  0  0  0  0  0  0  0  0
   -1.7323   -1.7686    1.6236 O   0  0  0  0  0  0  0  0  0  0  0  0
   -2.9841    0.7051    3.3741 C   0  0  0  0  0  0  0  0  0  0  0  0
   -3.9893   -1.8595    2.7144 H   0  0  0  0  0  0  0  0  0  0  0  0
   -3.6426    0.7821    1.3284 H   0  0  0  0  0  0  0  0  0  0  0  0
   -2.6019   -0.0236    4.0972 H   0  0  0  0  0  0  0  0  0  0  0  0
   -2.2370    1.4946    3.2498 H   0  0  0  0  0  0  0  0  0  0  0  0
   -3.8958    1.1537    3.7807 H   0  0  0  0  0  0  0  0  0  0  0  0
   -1.0269    0.2176    0.8669 N   0  0  0  0  0  0  0  0  0  0  0  0
    0.3153   -0.2572    0.4824 C   0  0  2  0  0  0  0  0  0  0  0  0
    1.2652   -0.4569    1.6928 C   0  0  0  0  0  0  0  0  0  0  0  0
    2.4690   -0.2510    1.5977 O   0  0  0  0  0  0  0  0  0  0  0  0
    0.8712    0.7420   -0.5396 C   0  0  0  0  0  0  0  0  0  0  0  0
   -1.2212    1.2136    0.8145 H   0  0  0  0  0  0  0  0  0  0  0  0
    0.2235   -1.2302   -0.0124 H   0  0  0  0  0  0  0  0  0  0  0  0
    1.0295    1.7200   -0.0742 H   0  0  0  0  0  0  0  0  0  0  0  0
    1.8285    0.3883   -0.9364 H   0  0  0  0  0  0  0  0  0  0  0  0
    0.1766    0.8580   -1.3771 H   0  0  0  0  0  0  0  0  0  0  0  0
    0.7478   -0.8071    2.9248 N   0  0  0  0  0  0  0  0  0  0  0  0
    1.5232   -1.0260    4.1501 C   0  0  2  0  0  0  0  0  0  0  0  0
    0.7168   -1.8411    5.1828 C   0  0  0  0  0  0  0  0  0  0  0  0
   -0.5096   -1.8373    5.1547 O   0  0  0  0  0  0  0  0  0  0  0  0
    1.9079    0.3303    4.7525 C   0  0  0  0  0  0  0  0  0  0  0  0
   -0.2158   -1.1544    2.9178 H   0  0  0  0  0  0  0  0  0  0  0  0
    2.4304   -1.5888    3.9077 H   0  0  0  0  0  0  0  0  0  0  0  0
    1.0105    0.9141    4.9805 H   0  0  0  0  0  0  0  0  0  0  0  0
    2.4772    0.1916    5.6763 H   0  0  0  0  0  0  0  0  0  0  0  0
    2.5257    0.9007    4.0523 H   0  0  0  0  0  0  0  0  0  0  0  0
    1.3677   -2.5650    6.1647 N   0  0  0  0  0  0  0  0  0  0  0  0
    0.6684   -3.3576    7.1687 C   0  0  0  0  0  0  0  0  0  0  0  0
    2.3836   -2.5689    6.1521 H   0  0  0  0  0  0  0  0  0  0  0  0
    0.0173   -2.7194    7.7754 H   0  0  0  0  0  0  0  0  0  0  0  0
    0.0571   -4.1296    6.6895 H   0  0  0  0  0  0  0  0  0  0  0  0
    1.3869   -3.8477    7.8326 H   0  0  0  0  0  0  0  0  0  0  0  0
  1  2  2  0  0  0  0
  1  3  1  0  0  0  0
  1  7  1  0  0  0  0
  3  4  1  0  0  0  0
  3  5  1  0  0  0  0
  3  6  1  0  0  0  0
  7  8  1  0  0  0  0
  7 12  1  0  0  0  0
  8  9  1  0  0  0  0
  8 11  1  0  0  0  0
  8 13  1  0  0  0  0
  9 10  2  0  0  0  0
  9 17  1  0  0  0  0
 11 14  1  0  0  0  0
 11 15  1  0  0  0  0
 11 16  1  0  0  0  0
 17 18  1  0  0  0  0
 17 22  1  0  0  0  0
 18 19  1  0  0  0  0
 18 21  1  0  0  0  0
 18 23  1  0  0  0  0
 19 20  2  0  0  0  0
 19 27  1  0  0  0  0
 21 24  1  0  0  0  0
 21 25  1  0  0  0  0
 21 26  1  0  0  0  0
 27 28  1  0  0  0  0
 27 32  1  0  0  0  0
 28 29  1  0  0  0  0
 28 31  1  0  0  0  0
 28 33  1  0  0  0  0
 29 30  2  0  0  0  0
 29 37  1  0  0  0  0
 31 34  1  0  0  0  0
 31 35  1  0  0  0  0
 31 36  1  0  0  0  0
 37 38  1  0  0  0  0
 37 39  1  0  0  0  0
 38 40  1  0  0  0  0
 38 41  1  0  0  0  0
 38 42  1  0  0  0  0
M  END
$$$$

  -OEChem-05262215353D

 42 41  0     1  0  0  0  0  0999 V2000
   -5.5281   -1.0310    1.7224 C   0  0  0  0  0  0  0  0  0  0  0  0
   -5.9446   -0.0333    1.1548 O   0  0  0  0  0  0  0  0  0  0  0  0
   -6.4108   -2.2588    1.8453 C   0  0  0  0  0  0  0  0  0  0  0  0
   -6.5800   -2.4924    2.8993 H   0  0  0  0  0  0  0  0  0  0  0  0
   -7.3767   -2.0788    1.3652 H   0  0  0  0  0  0  0  0  0  0  0  0
   -5.9309   -3.1135    1.3618 H   0  0  0  0  0  0  0  0  0  0  0  0
   -4.2535   -1.0518    2.2486 N   0  0  0  0  0  0  0  0  0  0  0  0
   -3.2410   -0.0147    2.0062 C   0  0  2  0  0  0  0  0  0  0  0  0
   -1.9402   -0.6125    1.4332 C   0  0  0  0  0  0  0  0  0  0  0  0
   -1.6938   -1.8059    1.5666 O   0  0  0  0  0  0  0  0  0  0  0  0
   -2.9634    0.6832    3.3403 C   0  0  0  0  0  0  0  0  0  0  0  0
   -3.9072   -1.9591    2.5587 H   0  0  0  0  0  0  0  0  0  0  0  0
   -3.6078    0.7236    1.2855 H   0  0  0  0  0  0  0  0  0  0  0  0
   -2.5783   -0.0322    4.0750 H   0  0  0  0  0  0  0  0  0  0  0  0
   -2.2254    1.4807    3.2121 H   0  0  0  0  0  0  0  0  0  0  0  0
   -3.8847    1.1250    3.7332 H   0  0  0  0  0  0  0  0  0  0  0  0
   -0.9796    0.1969    0.8550 N   0  0  0  0  0  0  0  0  0  0  0  0
    0.3638   -0.2711    0.4708 C   0  0  2  0  0  0  0  0  0  0  0  0
    1.3055   -0.4688    1.6871 C   0  0  0  0  0  0  0  0  0  0  0  0
    2.4476   -0.0249    1.6875 O   0  0  0  0  0  0  0  0  0  0  0  0
    0.9144    0.7284   -0.5541 C   0  0  0  0  0  0  0  0  0  0  0  0
   -1.1647    1.1960    0.8418 H   0  0  0  0  0  0  0  0  0  0  0  0
    0.2797   -1.2442   -0.0253 H   0  0  0  0  0  0  0  0  0  0  0  0
    1.0557    1.7124   -0.0960 H   0  0  0  0  0  0  0  0  0  0  0  0
    1.8801    0.3849   -0.9386 H   0  0  0  0  0  0  0  0  0  0  0  0
    0.2250    0.8290   -1.3979 H   0  0  0  0  0  0  0  0  0  0  0  0
    0.8471   -1.1129    2.8202 N   0  0  0  0  0  0  0  0  0  0  0  0
    1.6264   -1.3407    4.0430 C   0  0  2  0  0  0  0  0  0  0  0  0
    1.0374   -2.4799    4.9006 C   0  0  0  0  0  0  0  0  0  0  0  0
   -0.1511   -2.7686    4.8214 O   0  0  0  0  0  0  0  0  0  0  0  0
    1.6582   -0.0451    4.8620 C   0  0  0  0  0  0  0  0  0  0  0  0
   -0.0664   -1.5745    2.7445 H   0  0  0  0  0  0  0  0  0  0  0  0
    2.6481   -1.6235    3.7689 H   0  0  0  0  0  0  0  0  0  0  0  0
    0.6420    0.2591    5.1324 H   0  0  0  0  0  0  0  0  0  0  0  0
    2.2357   -0.1864    5.7806 H   0  0  0  0  0  0  0  0  0  0  0  0
    2.1220    0.7618    4.2864 H   0  0  0  0  0  0  0  0  0  0  0  0
    1.8426   -3.1688    5.7893 N   0  0  0  0  0  0  0  0  0  0  0  0
    1.3634   -4.2718    6.6132 C   0  0  0  0  0  0  0  0  0  0  0  0
    2.8278   -2.9230    5.8192 H   0  0  0  0  0  0  0  0  0  0  0  0
    0.5465   -3.9392    7.2624 H   0  0  0  0  0  0  0  0  0  0  0  0
    1.0017   -5.0910    5.9826 H   0  0  0  0  0  0  0  0  0  0  0  0
    2.1727   -4.6522    7.2440 H   0  0  0  0  0  0  0  0  0  0  0  0
  1  2  2  0  0  0  0
  1  3  1  0  0  0  0
  1  7  1  0  0  0  0
  3  4  1  0  0  0  0
  3  5  1  0  0  0  0
  3  6  1  0  0  0  0
  7  8  1  0  0  0  0
  7 12  1  0  0  0  0
  8  9  1  0  0  0  0
  8 11  1  0  0  0  0
  8 13  1  0  0  0  0
  9 10  2  0  0  0  0
  9 17  1  0  0  0  0
 11 14  1  0  0  0  0
 11 15  1  0  0  0  0
 11 16  1  0  0  0  0
 17 18  1  0  0  0  0
 17 22  1  0  0  0  0
 18 19  1  0  0  0  0
 18 21  1  0  0  0  0
 18 23  1  0  0  0  0
 19 20  2  0  0  0  0
 19 27  1  0  0  0  0
 21 24  1  0  0  0  0
 21 25  1  0  0  0  0
 21 26  1  0  0  0  0
 27 28  1  0  0  0  0
 27 32  1  0  0  0  0
 28 29  1  0  0  0  0
 28 31  1  0  0  0  0
 28 33  1  0  0  0  0
 29 30  2  0  0  0  0
 29 37  1  0  0  0  0
 31 34  1  0  0  0  0
 31 35  1  0  0  0  0
 31 36  1  0  0  0  0
 37 38  1  0  0  0  0
 37 39  1  0  0  0  0
 38 40  1  0  0  0  0
 38 41  1  0  0  0  0
 38 42  1  0  0  0  0
M  END
$$$$

  -OEChem-05262215353D

 42 41  0     1  0  0  0  0  0999 V2000
   -5.5624   -0.9786    1.8626 C   0  0  0  0  0  0  0  0  0  0  0  0
   -6.0122    0.0943    1.4914 O   0  0  0  0  0  0  0  0  0  0  0  0
   -6.4753   -2.1823    1.9943 C   0  0  0  0  0  0  0  0  0  0  0  0
   -6.4984   -2.5201    3.0332 H   0  0  0  0  0  0  0  0  0  0  0  0
   -7.4911   -1.9205    1.6854 H   0  0  0  0  0  0  0  0  0  0  0  0
   -6.1131   -2.9961    1.3615 H   0  0  0  0  0  0  0  0  0  0  0  0
   -4.2207   -1.1016    2.1551 N   0  0  0  0  0  0  0  0  0  0  0  0
   -3.2222   -0.0530    1.9124 C   0  0  2  0  0  0  0  0  0  0  0  0
   -1.8848   -0.6417    1.4207 C   0  0  0  0  0  0  0  0  0  0  0  0
   -1.6374   -1.8336    1.5690 O   0  0  0  0  0  0  0  0  0  0  0  0
   -3.0195    0.7209    3.2180 C   0  0  0  0  0  0  0  0  0  0  0  0
   -3.8670   -2.0405    2.3376 H   0  0  0  0  0  0  0  0  0  0  0  0
   -3.5808    0.6322    1.1366 H   0  0  0  0  0  0  0  0  0  0  0  0
   -2.6477    0.0550    4.0036 H   0  0  0  0  0  0  0  0  0  0  0  0
   -2.2983    1.5316    3.0782 H   0  0  0  0  0  0  0  0  0  0  0  0
   -3.9676    1.1563    3.5500 H   0  0  0  0  0  0  0  0  0  0  0  0
   -0.9256    0.1692    0.8431 N   0  0  0  0  0  0  0  0  0  0  0  0
    0.4206   -0.2928    0.4701 C   0  0  2  0  0  0  0  0  0  0  0  0
    1.3497   -0.4748    1.6965 C   0  0  0  0  0  0  0  0  0  0  0  0
    2.3792    0.1788    1.8191 O   0  0  0  0  0  0  0  0  0  0  0  0
    0.9729    0.7025   -0.5579 C   0  0  0  0  0  0  0  0  0  0  0  0
   -1.1180    1.1668    0.8154 H   0  0  0  0  0  0  0  0  0  0  0  0
    0.3464   -1.2698   -0.0206 H   0  0  0  0  0  0  0  0  0  0  0  0
    1.0836    1.6967   -0.1129 H   0  0  0  0  0  0  0  0  0  0  0  0
    1.9538    0.3725   -0.9148 H   0  0  0  0  0  0  0  0  0  0  0  0
    0.3000    0.7757   -1.4179 H   0  0  0  0  0  0  0  0  0  0  0  0
    1.0083   -1.3652    2.6958 N   0  0  0  0  0  0  0  0  0  0  0  0
    1.7989   -1.6168    3.9073 C   0  0  2  0  0  0  0  0  0  0  0  0
    1.5545   -3.0230    4.4943 C   0  0  0  0  0  0  0  0  0  0  0  0
    0.5356   -3.6465    4.2228 O   0  0  0  0  0  0  0  0  0  0  0  0
    1.4470   -0.5451    4.9440 C   0  0  0  0  0  0  0  0  0  0  0  0
    0.1537   -1.9163    2.5537 H   0  0  0  0  0  0  0  0  0  0  0  0
    2.8641   -1.5479    3.6636 H   0  0  0  0  0  0  0  0  0  0  0  0
    0.3833   -0.5961    5.1977 H   0  0  0  0  0  0  0  0  0  0  0  0
    2.0315   -0.6877    5.8578 H   0  0  0  0  0  0  0  0  0  0  0  0
    1.6643    0.4524    4.5493 H   0  0  0  0  0  0  0  0  0  0  0  0
    2.4804   -3.5873    5.3535 N   0  0  0  0  0  0  0  0  0  0  0  0
    2.3272   -4.9150    5.9367 C   0  0  0  0  0  0  0  0  0  0  0  0
    3.3294   -3.0620    5.5409 H   0  0  0  0  0  0  0  0  0  0  0  0
    1.3913   -4.9807    6.5017 H   0  0  0  0  0  0  0  0  0  0  0  0
    2.3193   -5.6788    5.1519 H   0  0  0  0  0  0  0  0  0  0  0  0
    3.1561   -5.1277    6.6189 H   0  0  0  0  0  0  0  0  0  0  0  0
  1  2  2  0  0  0  0
  1  3  1  0  0  0  0
  1  7  1  0  0  0  0
  3  4  1  0  0  0  0
  3  5  1  0  0  0  0
  3  6  1  0  0  0  0
  7  8  1  0  0  0  0
  7 12  1  0  0  0  0
  8  9  1  0  0  0  0
  8 11  1  0  0  0  0
  8 13  1  0  0  0  0
  9 10  2  0  0  0  0
  9 17  1  0  0  0  0
 11 14  1  0  0  0  0
 11 15  1  0  0  0  0
 11 16  1  0  0  0  0
 17 18  1  0  0  0  0
 17 22  1  0  0  0  0
 18 19  1  0  0  0  0
 18 21  1  0  0  0  0
 18 23  1  0  0  0  0
 19 20  2  0  0  0  0
 19 27  1  0  0  0  0
 21 24  1  0  0  0  0
 21 25  1  0  0  0  0
 21 26  1  0  0  0  0
 27 28  1  0  0  0  0
 27 32  1  0  0  0  0
 28 29  1  0  0  0  0
 28 31  1  0  0  0  0
 28 33  1  0  0  0  0
 29 30  2  0  0  0  0
 29 37  1  0  0  0  0
 31 34  1  0  0  0  0
 31 35  1  0  0  0  0
 31 36  1  0  0  0  0
 37 38  1  0  0  0  0
 37 39  1  0  0  0  0
 38 40  1  0  0  0  0
 38 41  1  0  0  0  0
 38 42  1  0  0  0  0
M  END
$$$$

  -OEChem-05262215353D

 42 41  0     1  0  0  0  0  0999 V2000
   -5.5401   -0.9636    1.9216 C   0  0  0  0  0  0  0  0  0  0  0  0
   -5.9873    0.1283    1.6078 O   0  0  0  0  0  0  0  0  0  0  0  0
   -6.4680   -2.1561    2.0550 C   0  0  0  0  0  0  0  0  0  0  0  0
   -6.4800   -2.5037    3.0907 H   0  0  0  0  0  0  0  0  0  0  0  0
   -7.4845   -1.8766    1.7643 H   0  0  0  0  0  0  0  0  0  0  0  0
   -6.1284   -2.9689    1.4084 H   0  0  0  0  0  0  0  0  0  0  0  0
   -4.1892   -1.1146    2.1529 N   0  0  0  0  0  0  0  0  0  0  0  0
   -3.1874   -0.0661    1.9223 C   0  0  2  0  0  0  0  0  0  0  0  0
   -1.8519   -0.6539    1.4233 C   0  0  0  0  0  0  0  0  0  0  0  0
   -1.6005   -1.8447    1.5791 O   0  0  0  0  0  0  0  0  0  0  0  0
   -2.9800    0.6944    3.2349 C   0  0  0  0  0  0  0  0  0  0  0  0
   -3.8409   -2.0619    2.2977 H   0  0  0  0  0  0  0  0  0  0  0  0
   -3.5457    0.6278    1.1541 H   0  0  0  0  0  0  0  0  0  0  0  0
   -2.6125    0.0184    4.0139 H   0  0  0  0  0  0  0  0  0  0  0  0
   -2.2534    1.5017    3.1021 H   0  0  0  0  0  0  0  0  0  0  0  0
   -3.9251    1.1329    3.5710 H   0  0  0  0  0  0  0  0  0  0  0  0
   -0.9047    0.1543    0.8219 N   0  0  0  0  0  0  0  0  0  0  0  0
    0.4357   -0.3153    0.4434 C   0  0  2  0  0  0  0  0  0  0  0  0
    1.3626   -0.4722    1.6719 C   0  0  0  0  0  0  0  0  0  0  0  0
    2.2435    0.3444    1.9165 O   0  0  0  0  0  0  0  0  0  0  0  0
    0.9924    0.6615   -0.5998 C   0  0  0  0  0  0  0  0  0  0  0  0
   -1.0896    1.1536    0.8039 H   0  0  0  0  0  0  0  0  0  0  0  0
    0.3589   -1.2988   -0.0330 H   0  0  0  0  0  0  0  0  0  0  0  0
    1.0898    1.6664   -0.1763 H   0  0  0  0  0  0  0  0  0  0  0  0
    1.9802    0.3313   -0.9370 H   0  0  0  0  0  0  0  0  0  0  0  0
    0.3296    0.7102   -1.4692 H   0  0  0  0  0  0  0  0  0  0  0  0
    1.1896   -1.5454    2.5226 N   0  0  0  0  0  0  0  0  0  0  0  0
    1.9967   -1.8106    3.7203 C   0  0  2  0  0  0  0  0  0  0  0  0
    2.1192   -3.3163    4.0364 C   0  0  0  0  0  0  0  0  0  0  0  0
    1.3277   -4.1230    3.5638 O   0  0  0  0  0  0  0  0  0  0  0  0
    1.3574   -1.0697    4.8980 C   0  0  0  0  0  0  0  0  0  0  0  0
    0.4080   -2.1767    2.3176 H   0  0  0  0  0  0  0  0  0  0  0  0
    3.0121   -1.4315    3.5651 H   0  0  0  0  0  0  0  0  0  0  0  0
    0.3381   -1.4314    5.0676 H   0  0  0  0  0  0  0  0  0  0  0  0
    1.9397   -1.2246    5.8112 H   0  0  0  0  0  0  0  0  0  0  0  0
    1.3175    0.0047    4.6933 H   0  0  0  0  0  0  0  0  0  0  0  0
    3.1258   -3.7713    4.8692 N   0  0  0  0  0  0  0  0  0  0  0  0
    3.3246   -5.1802    5.1887 C   0  0  0  0  0  0  0  0  0  0  0  0
    3.7862   -3.0870    5.2259 H   0  0  0  0  0  0  0  0  0  0  0  0
    2.4289   -5.5974    5.6610 H   0  0  0  0  0  0  0  0  0  0  0  0
    3.5416   -5.7513    4.2798 H   0  0  0  0  0  0  0  0  0  0  0  0
    4.1646   -5.2973    5.8802 H   0  0  0  0  0  0  0  0  0  0  0  0
  1  2  2  0  0  0  0
  1  3  1  0  0  0  0
  1  7  1  0  0  0  0
  3  4  1  0  0  0  0
  3  5  1  0  0  0  0
  3  6  1  0  0  0  0
  7  8  1  0  0  0  0
  7 12  1  0  0  0  0
  8  9  1  0  0  0  0
  8 11  1  0  0  0  0
  8 13  1  0  0  0  0
  9 10  2  0  0  0  0
  9 17  1  0  0  0  0
 11 14  1  0  0  0  0
 11 15  1  0  0  0  0
 11 16  1  0  0  0  0
 17 18  1  0  0  0  0
 17 22  1  0  0  0  0
 18 19  1  0  0  0  0
 18 21  1  0  0  0  0
 18 23  1  0  0  0  0
 19 20  2  0  0  0  0
 19 27  1  0  0  0  0
 21 24  1  0  0  0  0
 21 25  1  0  0  0  0
 21 26  1  0  0  0  0
 27 28  1  0  0  0  0
 27 32  1  0  0  0  0
 28 29  1  0  0  0  0
 28 31  1  0  0  0  0
 28 33  1  0  0  0  0
 29 30  2  0  0  0  0
 29 37  1  0  0  0  0
 31 34  1  0  0  0  0
 31 35  1  0  0  0  0
 31 36  1  0  0  0  0
 37 38  1  0  0  0  0
 37 39  1  0  0  0  0
 38 40  1  0  0  0  0
 38 41  1  0  0  0  0
 38 42  1  0  0  0  0
M  END
$$$$

  -OEChem-05262215353D

 42 41  0     1  0  0  0  0  0999 V2000
   -5.4458   -1.0567    2.0944 C   0  0  0  0  0  0  0  0  0  0  0  0
   -5.9337    0.0465    1.9060 O   0  0  0  0  0  0  0  0  0  0  0  0
   -6.3444   -2.2660    2.2738 C   0  0  0  0  0  0  0  0  0  0  0  0
   -6.1448   -2.7397    3.2381 H   0  0  0  0  0  0  0  0  0  0  0  0
   -7.3947   -1.9626    2.2413 H   0  0  0  0  0  0  0  0  0  0  0  0
   -6.1619   -2.9894    1.4755 H   0  0  0  0  0  0  0  0  0  0  0  0
   -4.0758   -1.2044    2.1414 N   0  0  0  0  0  0  0  0  0  0  0  0
   -3.1155   -0.1264    1.8734 C   0  0  2  0  0  0  0  0  0  0  0  0
   -1.7951   -0.6701    1.2914 C   0  0  0  0  0  0  0  0  0  0  0  0
   -1.5309   -1.8669    1.3602 O   0  0  0  0  0  0  0  0  0  0  0  0
   -2.8518    0.6225    3.1837 C   0  0  0  0  0  0  0  0  0  0  0  0
   -3.7046   -2.1526    2.1930 H   0  0  0  0  0  0  0  0  0  0  0  0
   -3.5362    0.5670    1.1370 H   0  0  0  0  0  0  0  0  0  0  0  0
   -2.4287   -0.0545    3.9329 H   0  0  0  0  0  0  0  0  0  0  0  0
   -2.1505    1.4469    3.0236 H   0  0  0  0  0  0  0  0  0  0  0  0
   -3.7853    1.0375    3.5767 H   0  0  0  0  0  0  0  0  0  0  0  0
   -0.8681    0.1867    0.7268 N   0  0  0  0  0  0  0  0  0  0  0  0
    0.4857   -0.2480    0.3611 C   0  0  2  0  0  0  0  0  0  0  0  0
    1.3758   -0.4110    1.6126 C   0  0  0  0  0  0  0  0  0  0  0  0
    2.0337    0.5259    2.0506 O   0  0  0  0  0  0  0  0  0  0  0  0
    1.0557    0.7702   -0.6332 C   0  0  0  0  0  0  0  0  0  0  0  0
   -1.0415    1.1835    0.8248 H   0  0  0  0  0  0  0  0  0  0  0  0
    0.4422   -1.2180   -0.1465 H   0  0  0  0  0  0  0  0  0  0  0  0
    1.0996    1.7686   -0.1855 H   0  0  0  0  0  0  0  0  0  0  0  0
    2.0683    0.4804   -0.9317 H   0  0  0  0  0  0  0  0  0  0  0  0
    0.4303    0.8161   -1.5301 H   0  0  0  0  0  0  0  0  0  0  0  0
    1.4234   -1.6298    2.2580 N   0  0  0  0  0  0  0  0  0  0  0  0
    2.2020   -1.9087    3.4701 C   0  0  2  0  0  0  0  0  0  0  0  0
    2.6006   -3.3956    3.5833 C   0  0  0  0  0  0  0  0  0  0  0  0
    1.9937   -4.2557    2.9560 O   0  0  0  0  0  0  0  0  0  0  0  0
    1.3672   -1.4855    4.6830 C   0  0  0  0  0  0  0  0  0  0  0  0
    0.7792   -2.3536    1.9297 H   0  0  0  0  0  0  0  0  0  0  0  0
    3.1285   -1.3253    3.4477 H   0  0  0  0  0  0  0  0  0  0  0  0
    0.4300   -2.0505    4.7170 H   0  0  0  0  0  0  0  0  0  0  0  0
    1.9181   -1.6668    5.6106 H   0  0  0  0  0  0  0  0  0  0  0  0
    1.1292   -0.4187    4.6269 H   0  0  0  0  0  0  0  0  0  0  0  0
    3.6523   -3.7726    4.3989 N   0  0  0  0  0  0  0  0  0  0  0  0
    4.1133   -5.1501    4.5253 C   0  0  0  0  0  0  0  0  0  0  0  0
    4.1619   -3.0365    4.8787 H   0  0  0  0  0  0  0  0  0  0  0  0
    3.2913   -5.8032    4.8367 H   0  0  0  0  0  0  0  0  0  0  0  0
    4.5063   -5.5111    3.5692 H   0  0  0  0  0  0  0  0  0  0  0  0
    4.9082   -5.2159    5.2745 H   0  0  0  0  0  0  0  0  0  0  0  0
  1  2  2  0  0  0  0
  1  3  1  0  0  0  0
  1  7  1  0  0  0  0
  3  4  1  0  0  0  0
  3  5  1  0  0  0  0
  3  6  1  0  0  0  0
  7  8  1  0  0  0  0
  7 12  1  0  0  0  0
  8  9  1  0  0  0  0
  8 11  1  0  0  0  0
  8 13  1  0  0  0  0
  9 10  2  0  0  0  0
  9 17  1  0  0  0  0
 11 14  1  0  0  0  0
 11 15  1  0  0  0  0
 11 16  1  0  0  0  0
 17 18  1  0  0  0  0
 17 22  1  0  0  0  0
 18 19  1  0  0  0  0
 18 21  1  0  0  0  0
 18 23  1  0  0  0  0
 19 20  2  0  0  0  0
 19 27  1  0  0  0  0
 21 24  1  0  0  0  0
 21 25  1  0  0  0  0
 21 26  1  0  0  0  0
 27 28  1  0  0  0  0
 27 32  1  0  0  0  0
 28 29  1  0  0  0  0
 28 31  1  0  0  0  0
 28 33  1  0  0  0  0
 29 30  2  0  0  0  0
 29 37  1  0  0  0  0
 31 34  1  0  0  0  0
 31 35  1  0  0  0  0
 31 36  1  0  0  0  0
 37 38  1  0  0  0  0
 37 39  1  0  0  0  0
 38 40  1  0  0  0  0
 38 41  1  0  0  0  0
 38 42  1  0  0  0  0
M  END
$$$$

  -OEChem-05262215353D

 42 41  0     1  0  0  0  0  0999 V2000
   -5.4929   -0.9887    2.0632 C   0  0  0  0  0  0  0  0  0  0  0  0
   -5.9463    0.1297    1.8785 O   0  0  0  0  0  0  0  0  0  0  0  0
   -6.4277   -2.1774    2.1908 C   0  0  0  0  0  0  0  0  0  0  0  0
   -6.3386   -2.6168    3.1874 H   0  0  0  0  0  0  0  0  0  0  0  0
   -7.4634   -1.8613    2.0365 H   0  0  0  0  0  0  0  0  0  0  0  0
   -6.1760   -2.9333    1.4430 H   0  0  0  0  0  0  0  0  0  0  0  0
   -4.1292   -1.1743    2.1509 N   0  0  0  0  0  0  0  0  0  0  0  0
   -3.1305   -0.1230    1.9172 C   0  0  2  0  0  0  0  0  0  0  0  0
   -1.8369   -0.6931    1.2995 C   0  0  0  0  0  0  0  0  0  0  0  0
   -1.5998   -1.8961    1.3557 O   0  0  0  0  0  0  0  0  0  0  0  0
   -2.8271    0.5588    3.2548 C   0  0  0  0  0  0  0  0  0  0  0  0
   -3.7874   -2.1340    2.1886 H   0  0  0  0  0  0  0  0  0  0  0  0
   -3.5292    0.6173    1.2150 H   0  0  0  0  0  0  0  0  0  0  0  0
   -2.4298   -0.1663    3.9722 H   0  0  0  0  0  0  0  0  0  0  0  0
   -2.0903    1.3570    3.1231 H   0  0  0  0  0  0  0  0  0  0  0  0
   -3.7395    0.9975    3.6710 H   0  0  0  0  0  0  0  0  0  0  0  0
   -0.9135    0.1456    0.7033 N   0  0  0  0  0  0  0  0  0  0  0  0
    0.4356   -0.3035    0.3379 C   0  0  2  0  0  0  0  0  0  0  0  0
    1.3405   -0.4359    1.5815 C   0  0  0  0  0  0  0  0  0  0  0  0
    1.7705    0.5645    2.1448 O   0  0  0  0  0  0  0  0  0  0  0  0
    1.0101    0.6895   -0.6768 C   0  0  0  0  0  0  0  0  0  0  0  0
   -1.0589    1.1437    0.8314 H   0  0  0  0  0  0  0  0  0  0  0  0
    0.3823   -1.2835   -0.1487 H   0  0  0  0  0  0  0  0  0  0  0  0
    1.0623    1.6954   -0.2479 H   0  0  0  0  0  0  0  0  0  0  0  0
    2.0195    0.3865   -0.9721 H   0  0  0  0  0  0  0  0  0  0  0  0
    0.3823    0.7230   -1.5724 H   0  0  0  0  0  0  0  0  0  0  0  0
    1.6516   -1.6819    2.0874 N   0  0  0  0  0  0  0  0  0  0  0  0
    2.5257   -1.9265    3.2406 C   0  0  2  0  0  0  0  0  0  0  0  0
    3.2856   -3.2648    3.1222 C   0  0  0  0  0  0  0  0  0  0  0  0
    2.9373   -4.1096    2.3052 O   0  0  0  0  0  0  0  0  0  0  0  0
    1.6625   -1.9075    4.5055 C   0  0  0  0  0  0  0  0  0  0  0  0
    1.2486   -2.4953    1.6206 H   0  0  0  0  0  0  0  0  0  0  0  0
    3.2775   -1.1328    3.3039 H   0  0  0  0  0  0  0  0  0  0  0  0
    0.9044   -2.6961    4.4615 H   0  0  0  0  0  0  0  0  0  0  0  0
    2.2794   -2.0651    5.3952 H   0  0  0  0  0  0  0  0  0  0  0  0
    1.1560   -0.9422    4.6041 H   0  0  0  0  0  0  0  0  0  0  0  0
    4.3768   -3.5197    3.9333 N   0  0  0  0  0  0  0  0  0  0  0  0
    5.1599   -4.7477    3.8613 C   0  0  0  0  0  0  0  0  0  0  0  0
    4.6593   -2.7925    4.5839 H   0  0  0  0  0  0  0  0  0  0  0  0
    4.5241   -5.6197    4.0475 H   0  0  0  0  0  0  0  0  0  0  0  0
    5.6203   -4.8524    2.8731 H   0  0  0  0  0  0  0  0  0  0  0  0
    5.9551   -4.7338    4.6131 H   0  0  0  0  0  0  0  0  0  0  0  0
  1  2  2  0  0  0  0
  1  3  1  0  0  0  0
  1  7  1  0  0  0  0
  3  4  1  0  0  0  0
  3  5  1  0  0  0  0
  3  6  1  0  0  0  0
  7  8  1  0  0  0  0
  7 12  1  0  0  0  0
  8  9  1  0  0  0  0
  8 11  1  0  0  0  0
  8 13  1  0  0  0  0
  9 10  2  0  0  0  0
  9 17  1  0  0  0  0
 11 14  1  0  0  0  0
 11 15  1  0  0  0  0
 11 16  1  0  0  0  0
 17 18  1  0  0  0  0
 17 22  1  0  0  0  0
 18 19  1  0  0  0  0
 18 21  1  0  0  0  0
 18 23  1  0  0  0  0
 19 20  2  0  0  0  0
 19 27  1  0  0  0  0
 21 24  1  0  0  0  0
 21 25  1  0  0  0  0
 21 26  1  0  0  0  0
 27 28  1  0  0  0  0
 27 32  1  0  0  0  0
 28 29  1  0  0  0  0
 28 31  1  0  0  0  0
 28 33  1  0  0  0  0
 29 30  2  0  0  0  0
 29 37  1  0  0  0  0
 31 34  1  0  0  0  0
 31 35  1  0  0  0  0
 31 36  1  0  0  0  0
 37 38  1  0  0  0  0
 37 39  1  0  0  0  0
 38 40  1  0  0  0  0
 38 41  1  0  0  0  0
 38 42  1  0  0  0  0
M  END
$$$$

  -OEChem-05262215353D

 42 41  0     1  0  0  0  0  0999 V2000
   -5.4740   -0.9882    2.1303 C   0  0  0  0  0  0  0  0  0  0  0  0
   -5.9161    0.1432    2.0076 O   0  0  0  0  0  0  0  0  0  0  0  0
   -6.4223   -2.1630    2.2778 C   0  0  0  0  0  0  0  0  0  0  0  0
   -6.2576   -2.6562    3.2387 H   0  0  0  0  0  0  0  0  0  0  0  0
   -7.4590   -1.8179    2.2322 H   0  0  0  0  0  0  0  0  0  0  0  0
   -6.2552   -2.8825    1.4726 H   0  0  0  0  0  0  0  0  0  0  0  0
   -4.1116   -1.2001    2.1346 N   0  0  0  0  0  0  0  0  0  0  0  0
   -3.1082   -0.1565    1.8891 C   0  0  2  0  0  0  0  0  0  0  0  0
   -1.8511   -0.7227    1.1976 C   0  0  0  0  0  0  0  0  0  0  0  0
   -1.6339   -1.9306    1.1965 O   0  0  0  0  0  0  0  0  0  0  0  0
   -2.7341    0.4790    3.2322 C   0  0  0  0  0  0  0  0  0  0  0  0
   -3.7839   -2.1653    2.1267 H   0  0  0  0  0  0  0  0  0  0  0  0
   -3.5270    0.6109    1.2290 H   0  0  0  0  0  0  0  0  0  0  0  0
   -2.3154   -0.2732    3.9085 H   0  0  0  0  0  0  0  0  0  0  0  0
   -1.9915    1.2703    3.0914 H   0  0  0  0  0  0  0  0  0  0  0  0
   -3.6194    0.9176    3.7036 H   0  0  0  0  0  0  0  0  0  0  0  0
   -0.9343    0.1300    0.6118 N   0  0  0  0  0  0  0  0  0  0  0  0
    0.4239   -0.3074    0.2679 C   0  0  2  0  0  0  0  0  0  0  0  0
    1.3090   -0.4253    1.5268 C   0  0  0  0  0  0  0  0  0  0  0  0
    1.4881    0.5548    2.2418 O   0  0  0  0  0  0  0  0  0  0  0  0
    1.0144    0.6939   -0.7285 C   0  0  0  0  0  0  0  0  0  0  0  0
   -1.0603    1.1173    0.8189 H   0  0  0  0  0  0  0  0  0  0  0  0
    0.3848   -1.2876   -0.2196 H   0  0  0  0  0  0  0  0  0  0  0  0
    1.0682    1.6940   -0.2863 H   0  0  0  0  0  0  0  0  0  0  0  0
    2.0249    0.3890   -1.0176 H   0  0  0  0  0  0  0  0  0  0  0  0
    0.3960    0.7435   -1.6299 H   0  0  0  0  0  0  0  0  0  0  0  0
    1.8838   -1.6309    1.8761 N   0  0  0  0  0  0  0  0  0  0  0  0
    2.7940   -1.8308    3.0104 C   0  0  2  0  0  0  0  0  0  0  0  0
    3.8328   -2.9365    2.7255 C   0  0  0  0  0  0  0  0  0  0  0  0
    3.6911   -3.6886    1.7676 O   0  0  0  0  0  0  0  0  0  0  0  0
    1.9547   -2.1824    4.2424 C   0  0  0  0  0  0  0  0  0  0  0  0
    1.7332   -2.4257    1.2551 H   0  0  0  0  0  0  0  0  0  0  0  0
    3.3486   -0.9066    3.2040 H   0  0  0  0  0  0  0  0  0  0  0  0
    1.3976   -3.1096    4.0740 H   0  0  0  0  0  0  0  0  0  0  0  0
    2.5951   -2.3140    5.1194 H   0  0  0  0  0  0  0  0  0  0  0  0
    1.2399   -1.3811    4.4552 H   0  0  0  0  0  0  0  0  0  0  0  0
    4.9413   -3.0808    3.5399 N   0  0  0  0  0  0  0  0  0  0  0  0
    5.9692   -4.0917    3.3221 C   0  0  0  0  0  0  0  0  0  0  0  0
    5.0419   -2.4351    4.3176 H   0  0  0  0  0  0  0  0  0  0  0  0
    5.5369   -5.0961    3.3811 H   0  0  0  0  0  0  0  0  0  0  0  0
    6.4305   -3.9635    2.3371 H   0  0  0  0  0  0  0  0  0  0  0  0
    6.7512   -4.0070    4.0829 H   0  0  0  0  0  0  0  0  0  0  0  0
  1  2  2  0  0  0  0
  1  3  1  0  0  0  0
  1  7  1  0  0  0  0
  3  4  1  0  0  0  0
  3  5  1  0  0  0  0
  3  6  1  0  0  0  0
  7  8  1  0  0  0  0
  7 12  1  0  0  0  0
  8  9  1  0  0  0  0
  8 11  1  0  0  0  0
  8 13  1  0  0  0  0
  9 10  2  0  0  0  0
  9 17  1  0  0  0  0
 11 14  1  0  0  0  0
 11 15  1  0  0  0  0
 11 16  1  0  0  0  0
 17 18  1  0  0  0  0
 17 22  1  0  0  0  0
 18 19  1  0  0  0  0
 18 21  1  0  0  0  0
 18 23  1  0  0  0  0
 19 20  2  0  0  0  0
 19 27  1  0  0  0  0
 21 24  1  0  0  0  0
 21 25  1  0  0  0  0
 21 26  1  0  0  0  0
 27 28  1  0  0  0  0
 27 32  1  0  0  0  0
 28 29  1  0  0  0  0
 28 31  1  0  0  0  0
 28 33  1  0  0  0  0
 29 30  2  0  0  0  0
 29 37  1  0  0  0  0
 31 34  1  0  0  0  0
 31 35  1  0  0  0  0
 31 36  1  0  0  0  0
 37 38  1  0  0  0  0
 37 39  1  0  0  0  0
 38 40  1  0  0  0  0
 38 41  1  0  0  0  0
 38 42  1  0  0  0  0
M  END
$$$$

  -OEChem-05262215353D

 42 41  0     1  0  0  0  0  0999 V2000
   -5.4842   -0.9613    2.1436 C   0  0  0  0  0  0  0  0  0  0  0  0
   -5.9055    0.1809    2.0500 O   0  0  0  0  0  0  0  0  0  0  0  0
   -6.4542   -2.1202    2.2792 C   0  0  0  0  0  0  0  0  0  0  0  0
   -6.3001   -2.6246    3.2362 H   0  0  0  0  0  0  0  0  0  0  0  0
   -7.4844   -1.7557    2.2350 H   0  0  0  0  0  0  0  0  0  0  0  0
   -6.2989   -2.8362    1.4684 H   0  0  0  0  0  0  0  0  0  0  0  0
   -4.1264   -1.2000    2.1276 N   0  0  0  0  0  0  0  0  0  0  0  0
   -3.1051   -0.1717    1.8914 C   0  0  2  0  0  0  0  0  0  0  0  0
   -1.8683   -0.7483    1.1736 C   0  0  0  0  0  0  0  0  0  0  0  0
   -1.6666   -1.9590    1.1611 O   0  0  0  0  0  0  0  0  0  0  0  0
   -2.7003    0.4260    3.2423 C   0  0  0  0  0  0  0  0  0  0  0  0
   -3.8174   -2.1710    2.0993 H   0  0  0  0  0  0  0  0  0  0  0  0
   -3.5158    0.6183    1.2532 H   0  0  0  0  0  0  0  0  0  0  0  0
   -2.2941   -0.3509    3.8982 H   0  0  0  0  0  0  0  0  0  0  0  0
   -1.9382    1.2001    3.1091 H   0  0  0  0  0  0  0  0  0  0  0  0
   -3.5689    0.8776    3.7318 H   0  0  0  0  0  0  0  0  0  0  0  0
   -0.9588    0.0983    0.5678 N   0  0  0  0  0  0  0  0  0  0  0  0
    0.4007   -0.3444    0.2345 C   0  0  2  0  0  0  0  0  0  0  0  0
    1.2923   -0.4325    1.4907 C   0  0  0  0  0  0  0  0  0  0  0  0
    1.2816    0.4799    2.3107 O   0  0  0  0  0  0  0  0  0  0  0  0
    0.9897    0.6352   -0.7818 C   0  0  0  0  0  0  0  0  0  0  0  0
   -1.0702    1.0825    0.7979 H   0  0  0  0  0  0  0  0  0  0  0  0
    0.3612   -1.3358   -0.2299 H   0  0  0  0  0  0  0  0  0  0  0  0
    1.0582    1.6407   -0.3540 H   0  0  0  0  0  0  0  0  0  0  0  0
    1.9933    0.3152   -1.0790 H   0  0  0  0  0  0  0  0  0  0  0  0
    0.3606    0.6771   -1.6764 H   0  0  0  0  0  0  0  0  0  0  0  0
    2.1121   -1.5233    1.7012 N   0  0  0  0  0  0  0  0  0  0  0  0
    3.0735   -1.6460    2.8037 C   0  0  2  0  0  0  0  0  0  0  0  0
    4.3208   -2.4547    2.3884 C   0  0  0  0  0  0  0  0  0  0  0  0
    4.3259   -3.0873    1.3378 O   0  0  0  0  0  0  0  0  0  0  0  0
    2.3637   -2.3147    3.9845 C   0  0  0  0  0  0  0  0  0  0  0  0
    2.1565   -2.2315    0.9690 H   0  0  0  0  0  0  0  0  0  0  0  0
    3.4179   -0.6512    3.1057 H   0  0  0  0  0  0  0  0  0  0  0  0
    2.0279   -3.3197    3.7087 H   0  0  0  0  0  0  0  0  0  0  0  0
    3.0363   -2.3944    4.8436 H   0  0  0  0  0  0  0  0  0  0  0  0
    1.4908   -1.7260    4.2841 H   0  0  0  0  0  0  0  0  0  0  0  0
    5.4479   -2.4617    3.1898 N   0  0  0  0  0  0  0  0  0  0  0  0
    6.6652   -3.1904    2.8551 C   0  0  0  0  0  0  0  0  0  0  0  0
    5.4205   -1.9144    4.0451 H   0  0  0  0  0  0  0  0  0  0  0  0
    6.4549   -4.2595    2.7460 H   0  0  0  0  0  0  0  0  0  0  0  0
    7.0894   -2.8167    1.9174 H   0  0  0  0  0  0  0  0  0  0  0  0
    7.4107   -3.0649    3.6460 H   0  0  0  0  0  0  0  0  0  0  0  0
  1  2  2  0  0  0  0
  1  3  1  0  0  0  0
  1  7  1  0  0  0  0
  3  4  1  0  0  0  0
  3  5  1  0  0  0  0
  3  6  1  0  0  0  0
  7  8  1  0  0  0  0
  7 12  1  0  0  0  0
  8  9  1  0  0  0  0
  8 11  1  0  0  0  0
  8 13  1  0  0  0  0
  9 10  2  0  0  0  0
  9 17  1  0  0  0  0
 11 14  1  0  0  0  0
 11 15  1  0  0  0  0
 11 16  1  0  0  0  0
 17 18  1  0  0  0  0
 17 22  1  0  0  0  0
 18 19  1  0  0  0  0
 18 21  1  0  0  0  0
 18 23  1  0  0  0  0
 19 20  2  0  0  0  0
 19 27  1  0  0  0  0
 21 24  1  0  0  0  0
 21 25  1  0  0  0  0
 21 26  1  0  0  0  0
 27 28  1  0  0  0  0
 27 32  1  0  0  0  0
 28 29  1  0  0  0  0
 28 31  1  0  0  0  0
 28 33  1  0  0  0  0
 29 30  2  0  0  0  0
 29 37  1  0  0  0  0
 31 34  1  0  0  0  0
 31 35  1  0  0  0  0
 31 36  1  0  0  0  0
 37 38  1  0  0  0  0
 37 39  1  0  0  0  0
 38 40  1  0  0  0  0
 38 41  1  0  0  0  0
 38 42  1  0  0  0  0
M  END
$$$$

  -OEChem-05262215353D

 42 41  0     1  0  0  0  0  0999 V2000
   -5.5112   -0.8944    1.8517 C   0  0  0  0  0  0  0  0  0  0  0  0
   -5.8860    0.1785    1.4058 O   0  0  0  0  0  0  0  0  0  0  0  0
   -6.4738   -2.0650    1.9164 C   0  0  0  0  0  0  0  0  0  0  0  0
   -6.6098   -2.3778    2.9541 H   0  0  0  0  0  0  0  0  0  0  0  0
   -7.4456   -1.7781    1.5051 H   0  0  0  0  0  0  0  0  0  0  0  0
   -6.0797   -2.9044    1.3381 H   0  0  0  0  0  0  0  0  0  0  0  0
   -4.2126   -1.0559    2.2870 N   0  0  0  0  0  0  0  0  0  0  0  0
   -3.1363   -0.0844    2.0467 C   0  0  2  0  0  0  0  0  0  0  0  0
   -1.9215   -0.7432    1.3628 C   0  0  0  0  0  0  0  0  0  0  0  0
   -1.7549   -1.9575    1.4331 O   0  0  0  0  0  0  0  0  0  0  0  0
   -2.7280    0.5159    3.3942 C   0  0  0  0  0  0  0  0  0  0  0  0
   -3.9176   -2.0123    2.4774 H   0  0  0  0  0  0  0  0  0  0  0  0
   -3.4828    0.7203    1.3899 H   0  0  0  0  0  0  0  0  0  0  0  0
   -2.3663   -0.2667    4.0693 H   0  0  0  0  0  0  0  0  0  0  0  0
   -1.9305    1.2538    3.2607 H   0  0  0  0  0  0  0  0  0  0  0  0
   -3.5843    1.0128    3.8609 H   0  0  0  0  0  0  0  0  0  0  0  0
   -0.9960    0.0332    0.6907 N   0  0  0  0  0  0  0  0  0  0  0  0
    0.3436   -0.4769    0.3710 C   0  0  2  0  0  0  0  0  0  0  0  0
    1.2625   -0.5179    1.6103 C   0  0  0  0  0  0  0  0  0  0  0  0
    1.1559    0.3351    2.4859 O   0  0  0  0  0  0  0  0  0  0  0  0
    0.9485    0.4170   -0.7130 C   0  0  0  0  0  0  0  0  0  0  0  0
   -1.0752    1.0332    0.8556 H   0  0  0  0  0  0  0  0  0  0  0  0
    0.2634   -1.4946   -0.0267 H   0  0  0  0  0  0  0  0  0  0  0  0
    1.0673    1.4413   -0.3450 H   0  0  0  0  0  0  0  0  0  0  0  0
    1.9313    0.0392   -1.0120 H   0  0  0  0  0  0  0  0  0  0  0  0
    0.3016    0.4342   -1.5957 H   0  0  0  0  0  0  0  0  0  0  0  0
    2.2597   -1.4682    1.7040 N   0  0  0  0  0  0  0  0  0  0  0  0
    3.3275   -1.4625    2.7107 C   0  0  2  0  0  0  0  0  0  0  0  0
    4.6831   -1.8654    2.0927 C   0  0  0  0  0  0  0  0  0  0  0  0
    4.7242   -2.3781    0.9791 O   0  0  0  0  0  0  0  0  0  0  0  0
    2.9262   -2.4281    3.8287 C   0  0  0  0  0  0  0  0  0  0  0  0
    2.4003   -2.0754    0.8974 H   0  0  0  0  0  0  0  0  0  0  0  0
    3.4470   -0.4573    3.1284 H   0  0  0  0  0  0  0  0  0  0  0  0
    2.8178   -3.4442    3.4360 H   0  0  0  0  0  0  0  0  0  0  0  0
    3.6818   -2.4381    4.6198 H   0  0  0  0  0  0  0  0  0  0  0  0
    1.9712   -2.1212    4.2674 H   0  0  0  0  0  0  0  0  0  0  0  0
    5.8631   -1.6346    2.7755 N   0  0  0  0  0  0  0  0  0  0  0  0
    7.1777   -1.9498    2.2292 C   0  0  0  0  0  0  0  0  0  0  0  0
    5.8024   -1.1743    3.6790 H   0  0  0  0  0  0  0  0  0  0  0  0
    7.2428   -3.0133    1.9756 H   0  0  0  0  0  0  0  0  0  0  0  0
    7.3689   -1.3598    1.3266 H   0  0  0  0  0  0  0  0  0  0  0  0
    7.9570   -1.7220    2.9627 H   0  0  0  0  0  0  0  0  0  0  0  0
  1  2  2  0  0  0  0
  1  3  1  0  0  0  0
  1  7  1  0  0  0  0
  3  4  1  0  0  0  0
  3  5  1  0  0  0  0
  3  6  1  0  0  0  0
  7  8  1  0  0  0  0
  7 12  1  0  0  0  0
  8  9  1  0  0  0  0
  8 11  1  0  0  0  0
  8 13  1  0  0  0  0
  9 10  2  0  0  0  0
  9 17  1  0  0  0  0
 11 14  1  0  0  0  0
 11 15  1  0  0  0  0
 11 16  1  0  0  0  0
 17 18  1  0  0  0  0
 17 22  1  0  0  0  0
 18 19  1  0  0  0  0
 18 21  1  0  0  0  0
 18 23  1  0  0  0  0
 19 20  2  0  0  0  0
 19 27  1  0  0  0  0
 21 24  1  0  0  0  0
 21 25  1  0  0  0  0
 21 26  1  0  0  0  0
 27 28  1  0  0  0  0
 27 32  1  0  0  0  0
 28 29  1  0  0  0  0
 28 31  1  0  0  0  0
 28 33  1  0  0  0  0
 29 30  2  0  0  0  0
 29 37  1  0  0  0  0
 31 34  1  0  0  0  0
 31 35  1  0  0  0  0
 31 36  1  0  0  0  0
 37 38  1  0  0  0  0
 37 39  1  0  0  0  0
 38 40  1  0  0  0  0
 38 41  1  0  0  0  0
 38 42  1  0  0  0  0
M  END
$$$$

  -OEChem-05262215353D

 42 41  0     1  0  0  0  0  0999 V2000
   -5.4947   -0.8890    1.8145 C   0  0  0  0  0  0  0  0  0  0  0  0
   -5.8578    0.1652    1.3169 O   0  0  0  0  0  0  0  0  0  0  0  0
   -6.4574   -2.0588    1.8946 C   0  0  0  0  0  0  0  0  0  0  0  0
   -6.5992   -2.3545    2.9370 H   0  0  0  0  0  0  0  0  0  0  0  0
   -7.4267   -1.7792    1.4720 H   0  0  0  0  0  0  0  0  0  0  0  0
   -6.0599   -2.9081    1.3334 H   0  0  0  0  0  0  0  0  0  0  0  0
   -4.2106   -1.0323    2.2965 N   0  0  0  0  0  0  0  0  0  0  0  0
   -3.1253   -0.0743    2.0422 C   0  0  2  0  0  0  0  0  0  0  0  0
   -1.9370   -0.7425    1.3211 C   0  0  0  0  0  0  0  0  0  0  0  0
   -1.7974   -1.9617    1.3592 O   0  0  0  0  0  0  0  0  0  0  0  0
   -2.6742    0.4963    3.3885 C   0  0  0  0  0  0  0  0  0  0  0  0
   -3.9219   -1.9838    2.5172 H   0  0  0  0  0  0  0  0  0  0  0  0
   -3.4745    0.7477    1.4088 H   0  0  0  0  0  0  0  0  0  0  0  0
   -2.2960   -0.3015    4.0358 H   0  0  0  0  0  0  0  0  0  0  0  0
   -1.8761    1.2315    3.2460 H   0  0  0  0  0  0  0  0  0  0  0  0
   -3.5126    0.9879    3.8916 H   0  0  0  0  0  0  0  0  0  0  0  0
   -0.9954    0.0303    0.6665 N   0  0  0  0  0  0  0  0  0  0  0  0
    0.3464   -0.4931    0.3758 C   0  0  2  0  0  0  0  0  0  0  0  0
    1.2486   -0.5444    1.6294 C   0  0  0  0  0  0  0  0  0  0  0  0
    1.0023    0.1606    2.6033 O   0  0  0  0  0  0  0  0  0  0  0  0
    0.9737    0.4030   -0.6946 C   0  0  0  0  0  0  0  0  0  0  0  0
   -1.0613    1.0267    0.8548 H   0  0  0  0  0  0  0  0  0  0  0  0
    0.2673   -1.5096   -0.0253 H   0  0  0  0  0  0  0  0  0  0  0  0
    1.0799    1.4272   -0.3229 H   0  0  0  0  0  0  0  0  0  0  0  0
    1.9648    0.0312   -0.9735 H   0  0  0  0  0  0  0  0  0  0  0  0
    0.3466    0.4191   -1.5915 H   0  0  0  0  0  0  0  0  0  0  0  0
    2.4137   -1.2861    1.6083 N   0  0  0  0  0  0  0  0  0  0  0  0
    3.4913   -1.1718    2.5987 C   0  0  2  0  0  0  0  0  0  0  0  0
    4.8762   -1.1849    1.9178 C   0  0  0  0  0  0  0  0  0  0  0  0
    4.9797   -1.5103    0.7395 O   0  0  0  0  0  0  0  0  0  0  0  0
    3.3540   -2.3309    3.5891 C   0  0  0  0  0  0  0  0  0  0  0  0
    2.6645   -1.7213    0.7211 H   0  0  0  0  0  0  0  0  0  0  0  0
    3.4072   -0.2247    3.1417 H   0  0  0  0  0  0  0  0  0  0  0  0
    3.4456   -3.2912    3.0712 H   0  0  0  0  0  0  0  0  0  0  0  0
    4.1294   -2.2739    4.3588 H   0  0  0  0  0  0  0  0  0  0  0  0
    2.3765   -2.2920    4.0806 H   0  0  0  0  0  0  0  0  0  0  0  0
    6.0063   -0.8007    2.6159 N   0  0  0  0  0  0  0  0  0  0  0  0
    7.3324   -0.7286    2.0135 C   0  0  0  0  0  0  0  0  0  0  0  0
    5.8852   -0.4974    3.5779 H   0  0  0  0  0  0  0  0  0  0  0  0
    7.6214   -1.7022    1.6036 H   0  0  0  0  0  0  0  0  0  0  0  0
    7.3474    0.0117    1.2063 H   0  0  0  0  0  0  0  0  0  0  0  0
    8.0737   -0.4372    2.7639 H   0  0  0  0  0  0  0  0  0  0  0  0
  1  2  2  0  0  0  0
  1  3  1  0  0  0  0
  1  7  1  0  0  0  0
  3  4  1  0  0  0  0
  3  5  1  0  0  0  0
  3  6  1  0  0  0  0
  7  8  1  0  0  0  0
  7 12  1  0  0  0  0
  8  9  1  0  0  0  0
  8 11  1  0  0  0  0
  8 13  1  0  0  0  0
  9 10  2  0  0  0  0
  9 17  1  0  0  0  0
 11 14  1  0  0  0  0
 11 15  1  0  0  0  0
 11 16  1  0  0  0  0
 17 18  1  0  0  0  0
 17 22  1  0  0  0  0
 18 19  1  0  0  0  0
 18 21  1  0  0  0  0
 18 23  1  0  0  0  0
 19 20  2  0  0  0  0
 19 27  1  0  0  0  0
 21 24  1  0  0  0  0
 21 25  1  0  0  0  0
 21 26  1  0  0  0  0
 27 28  1  0  0  0  0
 27 32  1  0  0  0  0
 28 29  1  0  0  0  0
 28 31  1  0  0  0  0
 28 33  1  0  0  0  0
 29 30  2  0  0  0  0
 29 37  1  0  0  0  0
 31 34  1  0  0  0  0
 31 35  1  0  0  0  0
 31 36  1  0  0  0  0
 37 38  1  0  0  0  0
 37 39  1  0  0  0  0
 38 40  1  0  0  0  0
 38 41  1  0  0  0  0
 38 42  1  0  0  0  0
M  END
$$$$

  -OEChem-05262215353D

 42 41  0     1  0  0  0  0  0999 V2000
   -5.5289   -0.8665    1.9861 C   0  0  0  0  0  0  0  0  0  0  0  0
   -5.8927    0.2924    1.8604 O   0  0  0  0  0  0  0  0  0  0  0  0
   -6.5540   -1.9847    2.0106 C   0  0  0  0  0  0  0  0  0  0  0  0
   -6.5141   -2.5053    2.9704 H   0  0  0  0  0  0  0  0  0  0  0  0
   -7.5598   -1.5778    1.8716 H   0  0  0  0  0  0  0  0  0  0  0  0
   -6.3487   -2.6971    1.2078 H   0  0  0  0  0  0  0  0  0  0  0  0
   -4.1878   -1.1654    2.0994 N   0  0  0  0  0  0  0  0  0  0  0  0
   -3.1025   -0.1906    1.9301 C   0  0  2  0  0  0  0  0  0  0  0  0
   -1.9066   -0.7952    1.1665 C   0  0  0  0  0  0  0  0  0  0  0  0
   -1.7824   -2.0130    1.0694 O   0  0  0  0  0  0  0  0  0  0  0  0
   -2.6630    0.2806    3.3186 C   0  0  0  0  0  0  0  0  0  0  0  0
   -3.9243   -2.1496    2.0695 H   0  0  0  0  0  0  0  0  0  0  0  0
   -3.4573    0.6697    1.3529 H   0  0  0  0  0  0  0  0  0  0  0  0
   -2.2890   -0.5634    3.9075 H   0  0  0  0  0  0  0  0  0  0  0  0
   -1.8654    1.0255    3.2384 H   0  0  0  0  0  0  0  0  0  0  0  0
   -3.5065    0.7322    3.8498 H   0  0  0  0  0  0  0  0  0  0  0  0
   -0.9795    0.0272    0.5496 N   0  0  0  0  0  0  0  0  0  0  0  0
    0.3918   -0.4454    0.3047 C   0  0  2  0  0  0  0  0  0  0  0  0
    1.1705   -0.8333    1.5885 C   0  0  0  0  0  0  0  0  0  0  0  0
    0.7424   -0.5412    2.7009 O   0  0  0  0  0  0  0  0  0  0  0  0
    1.1221    0.6647   -0.4579 C   0  0  0  0  0  0  0  0  0  0  0  0
   -1.0794    1.0105    0.7825 H   0  0  0  0  0  0  0  0  0  0  0  0
    0.3480   -1.3368   -0.3309 H   0  0  0  0  0  0  0  0  0  0  0  0
    1.2215    1.5580    0.1669 H   0  0  0  0  0  0  0  0  0  0  0  0
    2.1230    0.3364   -0.7549 H   0  0  0  0  0  0  0  0  0  0  0  0
    0.5676    0.9304   -1.3634 H   0  0  0  0  0  0  0  0  0  0  0  0
    2.4692   -1.2950    1.4858 N   0  0  0  0  0  0  0  0  0  0  0  0
    3.4145   -1.4007    2.6037 C   0  0  2  0  0  0  0  0  0  0  0  0
    4.8555   -1.0978    2.1427 C   0  0  0  0  0  0  0  0  0  0  0  0
    5.1131   -1.0116    0.9461 O   0  0  0  0  0  0  0  0  0  0  0  0
    3.3112   -2.8134    3.1853 C   0  0  0  0  0  0  0  0  0  0  0  0
    2.8702   -1.3532    0.5504 H   0  0  0  0  0  0  0  0  0  0  0  0
    3.1610   -0.6710    3.3800 H   0  0  0  0  0  0  0  0  0  0  0  0
    3.5765   -3.5590    2.4288 H   0  0  0  0  0  0  0  0  0  0  0  0
    3.9834   -2.9291    4.0406 H   0  0  0  0  0  0  0  0  0  0  0  0
    2.2880   -3.0083    3.5225 H   0  0  0  0  0  0  0  0  0  0  0  0
    5.8622   -0.8976    3.0688 N   0  0  0  0  0  0  0  0  0  0  0  0
    7.2384   -0.5894    2.6997 C   0  0  0  0  0  0  0  0  0  0  0  0
    5.6165   -0.9589    4.0527 H   0  0  0  0  0  0  0  0  0  0  0  0
    7.6608   -1.3947    2.0895 H   0  0  0  0  0  0  0  0  0  0  0  0
    7.2827    0.3448    2.1299 H   0  0  0  0  0  0  0  0  0  0  0  0
    7.8547   -0.4762    3.5967 H   0  0  0  0  0  0  0  0  0  0  0  0
  1  2  2  0  0  0  0
  1  3  1  0  0  0  0
  1  7  1  0  0  0  0
  3  4  1  0  0  0  0
  3  5  1  0  0  0  0
  3  6  1  0  0  0  0
  7  8  1  0  0  0  0
  7 12  1  0  0  0  0
  8  9  1  0  0  0  0
  8 11  1  0  0  0  0
  8 13  1  0  0  0  0
  9 10  2  0  0  0  0
  9 17  1  0  0  0  0
 11 14  1  0  0  0  0
 11 15  1  0  0  0  0
 11 16  1  0  0  0  0
 17 18  1  0  0  0  0
 17 22  1  0  0  0  0
 18 19  1  0  0  0  0
 18 21  1  0  0  0  0
 18 23  1  0  0  0  0
 19 20  2  0  0  0  0
 19 27  1  0  0  0  0
 21 24  1  0  0  0  0
 21 25  1  0  0  0  0
 21 26  1  0  0  0  0
 27 28  1  0  0  0  0
 27 32  1  0  0  0  0
 28 29  1  0  0  0  0
 28 31  1  0  0  0  0
 28 33  1  0  0  0  0
 29 30  2  0  0  0  0
 29 37  1  0  0  0  0
 31 34  1  0  0  0  0
 31 35  1  0  0  0  0
 31 36  1  0  0  0  0
 37 38  1  0  0  0  0
 37 39  1  0  0  0  0
 38 40  1  0  0  0  0
 38 41  1  0  0  0  0
 38 42  1  0  0  0  0
M  END
$$$$

  -OEChem-05262215353D

 42 41  0     1  0  0  0  0  0999 V2000
   -5.5190   -0.8590    2.0061 C   0  0  0  0  0  0  0  0  0  0  0  0
   -5.8732    0.3075    1.9342 O   0  0  0  0  0  0  0  0  0  0  0  0
   -6.5543   -1.9676    2.0219 C   0  0  0  0  0  0  0  0  0  0  0  0
   -6.4688   -2.5453    2.9454 H   0  0  0  0  0  0  0  0  0  0  0  0
   -7.5608   -1.5443    1.9628 H   0  0  0  0  0  0  0  0  0  0  0  0
   -6.4006   -2.6327    1.1688 H   0  0  0  0  0  0  0  0  0  0  0  0
   -4.1785   -1.1744    2.0639 N   0  0  0  0  0  0  0  0  0  0  0  0
   -3.0890   -0.2035    1.9053 C   0  0  2  0  0  0  0  0  0  0  0  0
   -1.9009   -0.8019    1.1251 C   0  0  0  0  0  0  0  0  0  0  0  0
   -1.8017   -2.0169    0.9783 O   0  0  0  0  0  0  0  0  0  0  0  0
   -2.6384    0.2418    3.2990 C   0  0  0  0  0  0  0  0  0  0  0  0
   -3.9244   -2.1589    1.9922 H   0  0  0  0  0  0  0  0  0  0  0  0
   -3.4429    0.6674    1.3438 H   0  0  0  0  0  0  0  0  0  0  0  0
   -2.2620   -0.6135    3.8701 H   0  0  0  0  0  0  0  0  0  0  0  0
   -1.8393    0.9855    3.2254 H   0  0  0  0  0  0  0  0  0  0  0  0
   -3.4764    0.6864    3.8451 H   0  0  0  0  0  0  0  0  0  0  0  0
   -0.9647    0.0254    0.5286 N   0  0  0  0  0  0  0  0  0  0  0  0
    0.4110   -0.4454    0.2991 C   0  0  2  0  0  0  0  0  0  0  0  0
    1.1856   -0.8474    1.5855 C   0  0  0  0  0  0  0  0  0  0  0  0
    0.6623   -0.7839    2.6930 O   0  0  0  0  0  0  0  0  0  0  0  0
    1.1352    0.6714   -0.4630 C   0  0  0  0  0  0  0  0  0  0  0  0
   -1.0666    1.0050    0.7753 H   0  0  0  0  0  0  0  0  0  0  0  0
    0.3741   -1.3335   -0.3414 H   0  0  0  0  0  0  0  0  0  0  0  0
    1.2511    1.5558    0.1717 H   0  0  0  0  0  0  0  0  0  0  0  0
    2.1277    0.3425   -0.7855 H   0  0  0  0  0  0  0  0  0  0  0  0
    0.5666    0.9527   -1.3551 H   0  0  0  0  0  0  0  0  0  0  0  0
    2.5584   -1.0067    1.5343 N   0  0  0  0  0  0  0  0  0  0  0  0
    3.4501   -1.0175    2.7011 C   0  0  2  0  0  0  0  0  0  0  0  0
    4.8096   -0.3682    2.3651 C   0  0  0  0  0  0  0  0  0  0  0  0
    5.0792   -0.0746    1.2045 O   0  0  0  0  0  0  0  0  0  0  0  0
    3.6322   -2.4693    3.1523 C   0  0  0  0  0  0  0  0  0  0  0  0
    3.0073   -0.8556    0.6317 H   0  0  0  0  0  0  0  0  0  0  0  0
    3.0074   -0.4382    3.5182 H   0  0  0  0  0  0  0  0  0  0  0  0
    4.0897   -3.0631    2.3544 H   0  0  0  0  0  0  0  0  0  0  0  0
    4.2726   -2.5208    4.0377 H   0  0  0  0  0  0  0  0  0  0  0  0
    2.6623   -2.9110    3.4031 H   0  0  0  0  0  0  0  0  0  0  0  0
    5.7247   -0.0896    3.3637 N   0  0  0  0  0  0  0  0  0  0  0  0
    7.0205    0.5299    3.1113 C   0  0  0  0  0  0  0  0  0  0  0  0
    5.4711   -0.3317    4.3173 H   0  0  0  0  0  0  0  0  0  0  0  0
    7.6241   -0.1009    2.4501 H   0  0  0  0  0  0  0  0  0  0  0  0
    6.8919    1.5109    2.6416 H   0  0  0  0  0  0  0  0  0  0  0  0
    7.5651    0.6659    4.0507 H   0  0  0  0  0  0  0  0  0  0  0  0
  1  2  2  0  0  0  0
  1  3  1  0  0  0  0
  1  7  1  0  0  0  0
  3  4  1  0  0  0  0
  3  5  1  0  0  0  0
  3  6  1  0  0  0  0
  7  8  1  0  0  0  0
  7 12  1  0  0  0  0
  8  9  1  0  0  0  0
  8 11  1  0  0  0  0
  8 13  1  0  0  0  0
  9 10  2  0  0  0  0
  9 17  1  0  0  0  0
 11 14  1  0  0  0  0
 11 15  1  0  0  0  0
 11 16  1  0  0  0  0
 17 18  1  0  0  0  0
 17 22  1  0  0  0  0
 18 19  1  0  0  0  0
 18 21  1  0  0  0  0
 18 23  1  0  0  0  0
 19 20  2  0  0  0  0
 19 27  1  0  0  0  0
 21 24  1  0  0  0  0
 21 25  1  0  0  0  0
 21 26  1  0  0  0  0
 27 28  1  0  0  0  0
 27 32  1  0  0  0  0
 28 29  1  0  0  0  0
 28 31  1  0  0  0  0
 28 33  1  0  0  0  0
 29 30  2  0  0  0  0
 29 37  1  0  0  0  0
 31 34  1  0  0  0  0
 31 35  1  0  0  0  0
 31 36  1  0  0  0  0
 37 38  1  0  0  0  0
 37 39  1  0  0  0  0
 38 40  1  0  0  0  0
 38 41  1  0  0  0  0
 38 42  1  0  0  0  0
M  END
$$$$

  -OEChem-05262215353D

 42 41  0     1  0  0  0  0  0999 V2000
   -5.5071   -0.8410    2.0179 C   0  0  0  0  0  0  0  0  0  0  0  0
   -5.8451    0.3317    1.9708 O   0  0  0  0  0  0  0  0  0  0  0  0
   -6.5584   -1.9348    2.0111 C   0  0  0  0  0  0  0  0  0  0  0  0
   -6.5221   -2.4913    2.9507 H   0  0  0  0  0  0  0  0  0  0  0  0
   -7.5554   -1.4997    1.8971 H   0  0  0  0  0  0  0  0  0  0  0  0
   -6.3771   -2.6219    1.1808 H   0  0  0  0  0  0  0  0  0  0  0  0
   -4.1706   -1.1752    2.0698 N   0  0  0  0  0  0  0  0  0  0  0  0
   -3.0691   -0.2154    1.9216 C   0  0  2  0  0  0  0  0  0  0  0  0
   -1.8884   -0.8170    1.1322 C   0  0  0  0  0  0  0  0  0  0  0  0
   -1.8091   -2.0299    0.9607 O   0  0  0  0  0  0  0  0  0  0  0  0
   -2.6122    0.2081    3.3198 C   0  0  0  0  0  0  0  0  0  0  0  0
   -3.9292   -2.1617    1.9812 H   0  0  0  0  0  0  0  0  0  0  0  0
   -3.4140    0.6662    1.3712 H   0  0  0  0  0  0  0  0  0  0  0  0
   -2.2590   -0.6604    3.8855 H   0  0  0  0  0  0  0  0  0  0  0  0
   -1.7952    0.9328    3.2555 H   0  0  0  0  0  0  0  0  0  0  0  0
   -3.4416    0.6680    3.8660 H   0  0  0  0  0  0  0  0  0  0  0  0
   -0.9572    0.0075    0.5229 N   0  0  0  0  0  0  0  0  0  0  0  0
    0.4258   -0.4475    0.2986 C   0  0  2  0  0  0  0  0  0  0  0  0
    1.2206   -0.8219    1.5846 C   0  0  0  0  0  0  0  0  0  0  0  0
    0.6590   -1.0246    2.6548 O   0  0  0  0  0  0  0  0  0  0  0  0
    1.1198    0.6555   -0.5131 C   0  0  0  0  0  0  0  0  0  0  0  0
   -1.0710    0.9899    0.7512 H   0  0  0  0  0  0  0  0  0  0  0  0
    0.3950   -1.3518   -0.3190 H   0  0  0  0  0  0  0  0  0  0  0  0
    1.2460    1.5586    0.0931 H   0  0  0  0  0  0  0  0  0  0  0  0
    2.1045    0.3243   -0.8575 H   0  0  0  0  0  0  0  0  0  0  0  0
    0.5234    0.9080   -1.3960 H   0  0  0  0  0  0  0  0  0  0  0  0
    2.5948   -0.6621    1.6160 N   0  0  0  0  0  0  0  0  0  0  0  0
    3.4199   -0.6573    2.8309 C   0  0  2  0  0  0  0  0  0  0  0  0
    4.6257    0.2944    2.6782 C   0  0  0  0  0  0  0  0  0  0  0  0
    4.8914    0.7770    1.5816 O   0  0  0  0  0  0  0  0  0  0  0  0
    3.8849   -2.0907    3.1039 C   0  0  0  0  0  0  0  0  0  0  0  0
    3.0376   -0.2941    0.7748 H   0  0  0  0  0  0  0  0  0  0  0  0
    2.8309   -0.3011    3.6826 H   0  0  0  0  0  0  0  0  0  0  0  0
    4.4934   -2.4614    2.2727 H   0  0  0  0  0  0  0  0  0  0  0  0
    4.4813   -2.1336    4.0200 H   0  0  0  0  0  0  0  0  0  0  0  0
    3.0206   -2.7519    3.2250 H   0  0  0  0  0  0  0  0  0  0  0  0
    5.3991    0.6330    3.7733 N   0  0  0  0  0  0  0  0  0  0  0  0
    6.5412    1.5368    3.7005 C   0  0  0  0  0  0  0  0  0  0  0  0
    5.1472    0.2293    4.6711 H   0  0  0  0  0  0  0  0  0  0  0  0
    7.3232    1.1159    3.0596 H   0  0  0  0  0  0  0  0  0  0  0  0
    6.2379    2.5080    3.2950 H   0  0  0  0  0  0  0  0  0  0  0  0
    6.9611    1.6966    4.6984 H   0  0  0  0  0  0  0  0  0  0  0  0
  1  2  2  0  0  0  0
  1  3  1  0  0  0  0
  1  7  1  0  0  0  0
  3  4  1  0  0  0  0
  3  5  1  0  0  0  0
  3  6  1  0  0  0  0
  7  8  1  0  0  0  0
  7 12  1  0  0  0  0
  8  9  1  0  0  0  0
  8 11  1  0  0  0  0
  8 13  1  0  0  0  0
  9 10  2  0  0  0  0
  9 17  1  0  0  0  0
 11 14  1  0  0  0  0
 11 15  1  0  0  0  0
 11 16  1  0  0  0  0
 17 18  1  0  0  0  0
 17 22  1  0  0  0  0
 18 19  1  0  0  0  0
 18 21  1  0  0  0  0
 18 23  1  0  0  0  0
 19 20  2  0  0  0  0
 19 27  1  0  0  0  0
 21 24  1  0  0  0  0
 21 25  1  0  0  0  0
 21 26  1  0  0  0  0
 27 28  1  0  0  0  0
 27 32  1  0  0  0  0
 28 29  1  0  0  0  0
 28 31  1  0  0  0  0
 28 33  1  0  0  0  0
 29 30  2  0  0  0  0
 29 37  1  0  0  0  0
 31 34  1  0  0  0  0
 31 35  1  0  0  0  0
 31 36  1  0  0  0  0
 37 38  1  0  0  0  0
 37 39  1  0  0  0  0
 38 40  1  0  0  0  0
 38 41  1  0  0  0  0
 38 42  1  0  0  0  0
M  END
$$$$

  -OEChem-05262215353D

 42 41  0     1  0  0  0  0  0999 V2000
   -5.4630   -0.8312    2.0451 C   0  0  0  0  0  0  0  0  0  0  0  0
   -5.8073    0.3386    1.9759 O   0  0  0  0  0  0  0  0  0  0  0  0
   -6.5085   -1.9306    2.0540 C   0  0  0  0  0  0  0  0  0  0  0  0
   -6.4523   -2.4900    2.9909 H   0  0  0  0  0  0  0  0  0  0  0  0
   -7.5091   -1.4998    1.9599 H   0  0  0  0  0  0  0  0  0  0  0  0
   -6.3400   -2.6144    1.2184 H   0  0  0  0  0  0  0  0  0  0  0  0
   -4.1254   -1.1577    2.1102 N   0  0  0  0  0  0  0  0  0  0  0  0
   -3.0287   -0.1993    1.9233 C   0  0  2  0  0  0  0  0  0  0  0  0
   -1.8826   -0.8036    1.0866 C   0  0  0  0  0  0  0  0  0  0  0  0
   -1.8349   -2.0125    0.8817 O   0  0  0  0  0  0  0  0  0  0  0  0
   -2.5148    0.2123    3.3049 C   0  0  0  0  0  0  0  0  0  0  0  0
   -3.8824   -2.1443    2.0242 H   0  0  0  0  0  0  0  0  0  0  0  0
   -3.3896    0.6875    1.3918 H   0  0  0  0  0  0  0  0  0  0  0  0
   -2.1253   -0.6595    3.8413 H   0  0  0  0  0  0  0  0  0  0  0  0
   -1.7112    0.9488    3.2133 H   0  0  0  0  0  0  0  0  0  0  0  0
   -3.3248    0.6534    3.8944 H   0  0  0  0  0  0  0  0  0  0  0  0
   -0.9462    0.0161    0.4794 N   0  0  0  0  0  0  0  0  0  0  0  0
    0.4399   -0.4374    0.2707 C   0  0  2  0  0  0  0  0  0  0  0  0
    1.2238   -0.7992    1.5682 C   0  0  0  0  0  0  0  0  0  0  0  0
    0.6725   -1.2838    2.5479 O   0  0  0  0  0  0  0  0  0  0  0  0
    1.1361    0.6489   -0.5620 C   0  0  0  0  0  0  0  0  0  0  0  0
   -1.0625    1.0002    0.6997 H   0  0  0  0  0  0  0  0  0  0  0  0
    0.4136   -1.3520   -0.3319 H   0  0  0  0  0  0  0  0  0  0  0  0
    1.2511    1.5692    0.0201 H   0  0  0  0  0  0  0  0  0  0  0  0
    2.1255    0.3115   -0.8865 H   0  0  0  0  0  0  0  0  0  0  0  0
    0.5478    0.8746   -1.4574 H   0  0  0  0  0  0  0  0  0  0  0  0
    2.5244   -0.3576    1.7369 N   0  0  0  0  0  0  0  0  0  0  0  0
    3.2582   -0.3457    3.0088 C   0  0  2  0  0  0  0  0  0  0  0  0
    4.2288    0.8526    3.0719 C   0  0  0  0  0  0  0  0  0  0  0  0
    4.4266    1.5354    2.0714 O   0  0  0  0  0  0  0  0  0  0  0  0
    4.0145   -1.6708    3.1427 C   0  0  0  0  0  0  0  0  0  0  0  0
    2.9164    0.2181    0.9927 H   0  0  0  0  0  0  0  0  0  0  0  0
    2.5586   -0.2428    3.8453 H   0  0  0  0  0  0  0  0  0  0  0  0
    4.7309   -1.7874    2.3232 H   0  0  0  0  0  0  0  0  0  0  0  0
    4.5588   -1.7102    4.0908 H   0  0  0  0  0  0  0  0  0  0  0  0
    3.3129   -2.5109    3.1142 H   0  0  0  0  0  0  0  0  0  0  0  0
    4.8629    1.1841    4.2547 N   0  0  0  0  0  0  0  0  0  0  0  0
    5.7749    2.3139    4.3844 C   0  0  0  0  0  0  0  0  0  0  0  0
    4.6699    0.6105    5.0707 H   0  0  0  0  0  0  0  0  0  0  0  0
    6.6377    2.1875    3.7221 H   0  0  0  0  0  0  0  0  0  0  0  0
    5.2664    3.2489    4.1266 H   0  0  0  0  0  0  0  0  0  0  0  0
    6.1375    2.3913    5.4139 H   0  0  0  0  0  0  0  0  0  0  0  0
  1  2  2  0  0  0  0
  1  3  1  0  0  0  0
  1  7  1  0  0  0  0
  3  4  1  0  0  0  0
  3  5  1  0  0  0  0
  3  6  1  0  0  0  0
  7  8  1  0  0  0  0
  7 12  1  0  0  0  0
  8  9  1  0  0  0  0
  8 11  1  0  0  0  0
  8 13  1  0  0  0  0
  9 10  2  0  0  0  0
  9 17  1  0  0  0  0
 11 14  1  0  0  0  0
 11 15  1  0  0  0  0
 11 16  1  0  0  0  0
 17 18  1  0  0  0  0
 17 22  1  0  0  0  0
 18 19  1  0  0  0  0
 18 21  1  0  0  0  0
 18 23  1  0  0  0  0
 19 20  2  0  0  0  0
 19 27  1  0  0  0  0
 21 24  1  0  0  0  0
 21 25  1  0  0  0  0
 21 26  1  0  0  0  0
 27 28  1  0  0  0  0
 27 32  1  0  0  0  0
 28 29  1  0  0  0  0
 28 31  1  0  0  0  0
 28 33  1  0  0  0  0
 29 30  2  0  0  0  0
 29 37  1  0  0  0  0
 31 34  1  0  0  0  0
 31 35  1  0  0  0  0
 31 36  1  0  0  0  0
 37 38  1  0  0  0  0
 37 39  1  0  0  0  0
 38 40  1  0  0  0  0
 38 41  1  0  0  0  0
 38 42  1  0  0  0  0
M  END
$$$$

  -OEChem-05262215353D

 42 41  0     1  0  0  0  0  0999 V2000
   -5.4267   -0.8196    2.1111 C   0  0  0  0  0  0  0  0  0  0  0  0
   -5.7625    0.3547    2.1127 O   0  0  0  0  0  0  0  0  0  0  0  0
   -6.4792   -1.9119    2.1298 C   0  0  0  0  0  0  0  0  0  0  0  0
   -6.3852   -2.5033    3.0437 H   0  0  0  0  0  0  0  0  0  0  0  0
   -7.4796   -1.4717    2.0953 H   0  0  0  0  0  0  0  0  0  0  0  0
   -6.3527   -2.5673    1.2645 H   0  0  0  0  0  0  0  0  0  0  0  0
   -4.0907   -1.1567    2.0844 N   0  0  0  0  0  0  0  0  0  0  0  0
   -2.9972   -0.1971    1.8906 C   0  0  2  0  0  0  0  0  0  0  0  0
   -1.8554   -0.8031    1.0499 C   0  0  0  0  0  0  0  0  0  0  0  0
   -1.8207   -2.0092    0.8317 O   0  0  0  0  0  0  0  0  0  0  0  0
   -2.4752    0.2226    3.2674 C   0  0  0  0  0  0  0  0  0  0  0  0
   -3.8579   -2.1406    1.9496 H   0  0  0  0  0  0  0  0  0  0  0  0
   -3.3656    0.6853    1.3571 H   0  0  0  0  0  0  0  0  0  0  0  0
   -2.0810   -0.6456    3.8063 H   0  0  0  0  0  0  0  0  0  0  0  0
   -1.6742    0.9611    3.1673 H   0  0  0  0  0  0  0  0  0  0  0  0
   -3.2824    0.6651    3.8597 H   0  0  0  0  0  0  0  0  0  0  0  0
   -0.9191    0.0163    0.4432 N   0  0  0  0  0  0  0  0  0  0  0  0
    0.4716   -0.4267    0.2477 C   0  0  2  0  0  0  0  0  0  0  0  0
    1.2375   -0.7676    1.5591 C   0  0  0  0  0  0  0  0  0  0  0  0
    0.7731   -1.5156    2.4076 O   0  0  0  0  0  0  0  0  0  0  0  0
    1.1685    0.6519   -0.5935 C   0  0  0  0  0  0  0  0  0  0  0  0
   -1.0428    1.0009    0.6565 H   0  0  0  0  0  0  0  0  0  0  0  0
    0.4594   -1.3503   -0.3419 H   0  0  0  0  0  0  0  0  0  0  0  0
    1.2211    1.5996   -0.0477 H   0  0  0  0  0  0  0  0  0  0  0  0
    2.1846    0.3383   -0.8540 H   0  0  0  0  0  0  0  0  0  0  0  0
    0.6165    0.8190   -1.5242 H   0  0  0  0  0  0  0  0  0  0  0  0
    2.3894   -0.0770    1.8915 N   0  0  0  0  0  0  0  0  0  0  0  0
    3.0307   -0.0896    3.2122 C   0  0  2  0  0  0  0  0  0  0  0  0
    3.7061    1.2666    3.5068 C   0  0  0  0  0  0  0  0  0  0  0  0
    3.7880    2.1148    2.6236 O   0  0  0  0  0  0  0  0  0  0  0  0
    4.0526   -1.2297    3.2432 C   0  0  0  0  0  0  0  0  0  0  0  0
    2.6752    0.6749    1.2654 H   0  0  0  0  0  0  0  0  0  0  0  0
    2.2802   -0.2573    3.9921 H   0  0  0  0  0  0  0  0  0  0  0  0
    4.8234   -1.0744    2.4816 H   0  0  0  0  0  0  0  0  0  0  0  0
    4.5361   -1.2886    4.2229 H   0  0  0  0  0  0  0  0  0  0  0  0
    3.5567   -2.1858    3.0474 H   0  0  0  0  0  0  0  0  0  0  0  0
    4.2030    1.5491    4.7656 N   0  0  0  0  0  0  0  0  0  0  0  0
    4.8450    2.8129    5.1068 C   0  0  0  0  0  0  0  0  0  0  0  0
    4.1153    0.8316    5.4797 H   0  0  0  0  0  0  0  0  0  0  0  0
    5.7376    2.9672    4.4914 H   0  0  0  0  0  0  0  0  0  0  0  0
    4.1566    3.6490    4.9449 H   0  0  0  0  0  0  0  0  0  0  0  0
    5.1462    2.8127    6.1588 H   0  0  0  0  0  0  0  0  0  0  0  0
  1  2  2  0  0  0  0
  1  3  1  0  0  0  0
  1  7  1  0  0  0  0
  3  4  1  0  0  0  0
  3  5  1  0  0  0  0
  3  6  1  0  0  0  0
  7  8  1  0  0  0  0
  7 12  1  0  0  0  0
  8  9  1  0  0  0  0
  8 11  1  0  0  0  0
  8 13  1  0  0  0  0
  9 10  2  0  0  0  0
  9 17  1  0  0  0  0
 11 14  1  0  0  0  0
 11 15  1  0  0  0  0
 11 16  1  0  0  0  0
 17 18  1  0  0  0  0
 17 22  1  0  0  0  0
 18 19  1  0  0  0  0
 18 21  1  0  0  0  0
 18 23  1  0  0  0  0
 19 20  2  0  0  0  0
 19 27  1  0  0  0  0
 21 24  1  0  0  0  0
 21 25  1  0  0  0  0
 21 26  1  0  0  0  0
 27 28  1  0  0  0  0
 27 32  1  0  0  0  0
 28 29  1  0  0  0  0
 28 31  1  0  0  0  0
 28 33  1  0  0  0  0
 29 30  2  0  0  0  0
 29 37  1  0  0  0  0
 31 34  1  0  0  0  0
 31 35  1  0  0  0  0
 31 36  1  0  0  0  0
 37 38  1  0  0  0  0
 37 39  1  0  0  0  0
 38 40  1  0  0  0  0
 38 41  1  0  0  0  0
 38 42  1  0  0  0  0
M  END
$$$$

  -OEChem-05262215353D

 42 41  0     1  0  0  0  0  0999 V2000
   -5.4578   -0.8377    2.0794 C   0  0  0  0  0  0  0  0  0  0  0  0
   -5.8279    0.3224    1.9838 O   0  0  0  0  0  0  0  0  0  0  0  0
   -6.4777   -1.9559    2.1854 C   0  0  0  0  0  0  0  0  0  0  0  0
   -6.3446   -2.4937    3.1274 H   0  0  0  0  0  0  0  0  0  0  0  0
   -7.4909   -1.5454    2.1535 H   0  0  0  0  0  0  0  0  0  0  0  0
   -6.3540   -2.6545    1.3541 H   0  0  0  0  0  0  0  0  0  0  0  0
   -4.1116   -1.1335    2.0861 N   0  0  0  0  0  0  0  0  0  0  0  0
   -3.0464   -0.1545    1.8378 C   0  0  2  0  0  0  0  0  0  0  0  0
   -1.8399   -0.7967    1.1223 C   0  0  0  0  0  0  0  0  0  0  0  0
   -1.7614   -2.0148    1.0245 O   0  0  0  0  0  0  0  0  0  0  0  0
   -2.6139    0.4382    3.1823 C   0  0  0  0  0  0  0  0  0  0  0  0
   -3.8457   -2.1171    2.0331 H   0  0  0  0  0  0  0  0  0  0  0  0
   -3.4232    0.6459    1.1921 H   0  0  0  0  0  0  0  0  0  0  0  0
   -2.2198   -0.3471    3.8358 H   0  0  0  0  0  0  0  0  0  0  0  0
   -1.8367    1.1946    3.0389 H   0  0  0  0  0  0  0  0  0  0  0  0
   -3.4670    0.9107    3.6800 H   0  0  0  0  0  0  0  0  0  0  0  0
   -0.8960   -0.0012    0.4961 N   0  0  0  0  0  0  0  0  0  0  0  0
    0.4968   -0.4356    0.2947 C   0  0  2  0  0  0  0  0  0  0  0  0
    1.2714   -0.7470    1.6050 C   0  0  0  0  0  0  0  0  0  0  0  0
    1.0451   -1.7466    2.2697 O   0  0  0  0  0  0  0  0  0  0  0  0
    1.1852    0.6318   -0.5657 C   0  0  0  0  0  0  0  0  0  0  0  0
   -1.0469    0.9961    0.6127 H   0  0  0  0  0  0  0  0  0  0  0  0
    0.4873   -1.3703   -0.2780 H   0  0  0  0  0  0  0  0  0  0  0  0
    1.1919    1.6016   -0.0581 H   0  0  0  0  0  0  0  0  0  0  0  0
    2.2183    0.3398   -0.7806 H   0  0  0  0  0  0  0  0  0  0  0  0
    0.6575    0.7439   -1.5182 H   0  0  0  0  0  0  0  0  0  0  0  0
    2.2205    0.1400    2.0812 N   0  0  0  0  0  0  0  0  0  0  0  0
    2.8590    0.0587    3.4009 C   0  0  2  0  0  0  0  0  0  0  0  0
    3.1323    1.4664    3.9714 C   0  0  0  0  0  0  0  0  0  0  0  0
    2.9799    2.4563    3.2619 O   0  0  0  0  0  0  0  0  0  0  0  0
    4.1598   -0.7378    3.2604 C   0  0  0  0  0  0  0  0  0  0  0  0
    2.2986    1.0352    1.6008 H   0  0  0  0  0  0  0  0  0  0  0  0
    2.1966   -0.4554    4.1055 H   0  0  0  0  0  0  0  0  0  0  0  0
    4.8445   -0.2368    2.5685 H   0  0  0  0  0  0  0  0  0  0  0  0
    4.6561   -0.8397    4.2300 H   0  0  0  0  0  0  0  0  0  0  0  0
    3.9480   -1.7409    2.8761 H   0  0  0  0  0  0  0  0  0  0  0  0
    3.5287    1.6285    5.2859 N   0  0  0  0  0  0  0  0  0  0  0  0
    3.7956    2.9293    5.8881 C   0  0  0  0  0  0  0  0  0  0  0  0
    3.6353    0.7918    5.8525 H   0  0  0  0  0  0  0  0  0  0  0  0
    4.6318    3.4222    5.3808 H   0  0  0  0  0  0  0  0  0  0  0  0
    2.9125    3.5733    5.8186 H   0  0  0  0  0  0  0  0  0  0  0  0
    4.0535    2.8114    6.9451 H   0  0  0  0  0  0  0  0  0  0  0  0
  1  2  2  0  0  0  0
  1  3  1  0  0  0  0
  1  7  1  0  0  0  0
  3  4  1  0  0  0  0
  3  5  1  0  0  0  0
  3  6  1  0  0  0  0
  7  8  1  0  0  0  0
  7 12  1  0  0  0  0
  8  9  1  0  0  0  0
  8 11  1  0  0  0  0
  8 13  1  0  0  0  0
  9 10  2  0  0  0  0
  9 17  1  0  0  0  0
 11 14  1  0  0  0  0
 11 15  1  0  0  0  0
 11 16  1  0  0  0  0
 17 18  1  0  0  0  0
 17 22  1  0  0  0  0
 18 19  1  0  0  0  0
 18 21  1  0  0  0  0
 18 23  1  0  0  0  0
 19 20  2  0  0  0  0
 19 27  1  0  0  0  0
 21 24  1  0  0  0  0
 21 25  1  0  0  0  0
 21 26  1  0  0  0  0
 27 28  1  0  0  0  0
 27 32  1  0  0  0  0
 28 29  1  0  0  0  0
 28 31  1  0  0  0  0
 28 33  1  0  0  0  0
 29 30  2  0  0  0  0
 29 37  1  0  0  0  0
 31 34  1  0  0  0  0
 31 35  1  0  0  0  0
 31 36  1  0  0  0  0
 37 38  1  0  0  0  0
 37 39  1  0  0  0  0
 38 40  1  0  0  0  0
 38 41  1  0  0  0  0
 38 42  1  0  0  0  0
M  END
$$$$

  -OEChem-05262215353D

 42 41  0     1  0  0  0  0  0999 V2000
   -5.5037   -0.8799    1.8152 C   0  0  0  0  0  0  0  0  0  0  0  0
   -5.8902    0.1800    1.3477 O   0  0  0  0  0  0  0  0  0  0  0  0
   -6.4553   -2.0577    1.9150 C   0  0  0  0  0  0  0  0  0  0  0  0
   -6.5784   -2.3509    2.9604 H   0  0  0  0  0  0  0  0  0  0  0  0
   -7.4335   -1.7877    1.5070 H   0  0  0  0  0  0  0  0  0  0  0  0
   -6.0603   -2.9061    1.3507 H   0  0  0  0  0  0  0  0  0  0  0  0
   -4.1999   -1.0166    2.2425 N   0  0  0  0  0  0  0  0  0  0  0  0
   -3.1370   -0.0397    1.9705 C   0  0  2  0  0  0  0  0  0  0  0  0
   -1.8697   -0.7281    1.4236 C   0  0  0  0  0  0  0  0  0  0  0  0
   -1.7115   -1.9300    1.5874 O   0  0  0  0  0  0  0  0  0  0  0  0
   -2.8240    0.6990    3.2743 C   0  0  0  0  0  0  0  0  0  0  0  0
   -3.8900   -1.9642    2.4571 H   0  0  0  0  0  0  0  0  0  0  0  0
   -3.4673    0.6841    1.2179 H   0  0  0  0  0  0  0  0  0  0  0  0
   -2.4711   -0.0030    4.0368 H   0  0  0  0  0  0  0  0  0  0  0  0
   -2.0495    1.4549    3.1130 H   0  0  0  0  0  0  0  0  0  0  0  0
   -3.7223    1.1992    3.6496 H   0  0  0  0  0  0  0  0  0  0  0  0
   -0.9317    0.0012    0.7147 N   0  0  0  0  0  0  0  0  0  0  0  0
    0.4356   -0.4674    0.4324 C   0  0  2  0  0  0  0  0  0  0  0  0
    1.2817   -0.7556    1.6983 C   0  0  0  0  0  0  0  0  0  0  0  0
    1.3929   -1.8860    2.1489 O   0  0  0  0  0  0  0  0  0  0  0  0
    1.1000    0.5613   -0.4901 C   0  0  0  0  0  0  0  0  0  0  0  0
   -1.1170    0.9965    0.6348 H   0  0  0  0  0  0  0  0  0  0  0  0
    0.3692   -1.4158   -0.1132 H   0  0  0  0  0  0  0  0  0  0  0  0
    1.1427    1.5467   -0.0158 H   0  0  0  0  0  0  0  0  0  0  0  0
    2.1195    0.2468   -0.7353 H   0  0  0  0  0  0  0  0  0  0  0  0
    0.5348    0.6500   -1.4232 H   0  0  0  0  0  0  0  0  0  0  0  0
    2.0452    0.2489    2.2645 N   0  0  0  0  0  0  0  0  0  0  0  0
    2.7298    0.1350    3.5581 C   0  0  2  0  0  0  0  0  0  0  0  0
    2.5731    1.4323    4.3790 C   0  0  0  0  0  0  0  0  0  0  0  0
    2.0976    2.4359    3.8558 O   0  0  0  0  0  0  0  0  0  0  0  0
    4.2054   -0.1761    3.2946 C   0  0  0  0  0  0  0  0  0  0  0  0
    1.8459    1.1976    1.9521 H   0  0  0  0  0  0  0  0  0  0  0  0
    2.2909   -0.6769    4.1482 H   0  0  0  0  0  0  0  0  0  0  0  0
    4.6723    0.6330    2.7242 H   0  0  0  0  0  0  0  0  0  0  0  0
    4.7476   -0.2978    4.2369 H   0  0  0  0  0  0  0  0  0  0  0  0
    4.2977   -1.1048    2.7223 H   0  0  0  0  0  0  0  0  0  0  0  0
    2.9431    1.4718    5.7106 N   0  0  0  0  0  0  0  0  0  0  0  0
    2.7872    2.6533    6.5505 C   0  0  0  0  0  0  0  0  0  0  0  0
    3.3046    0.6171    6.1248 H   0  0  0  0  0  0  0  0  0  0  0  0
    3.3342    3.5017    6.1253 H   0  0  0  0  0  0  0  0  0  0  0  0
    1.7295    2.9237    6.6380 H   0  0  0  0  0  0  0  0  0  0  0  0
    3.1790    2.4592    7.5537 H   0  0  0  0  0  0  0  0  0  0  0  0
  1  2  2  0  0  0  0
  1  3  1  0  0  0  0
  1  7  1  0  0  0  0
  3  4  1  0  0  0  0
  3  5  1  0  0  0  0
  3  6  1  0  0  0  0
  7  8  1  0  0  0  0
  7 12  1  0  0  0  0
  8  9  1  0  0  0  0
  8 11  1  0  0  0  0
  8 13  1  0  0  0  0
  9 10  2  0  0  0  0
  9 17  1  0  0  0  0
 11 14  1  0  0  0  0
 11 15  1  0  0  0  0
 11 16  1  0  0  0  0
 17 18  1  0  0  0  0
 17 22  1  0  0  0  0
 18 19  1  0  0  0  0
 18 21  1  0  0  0  0
 18 23  1  0  0  0  0
 19 20  2  0  0  0  0
 19 27  1  0  0  0  0
 21 24  1  0  0  0  0
 21 25  1  0  0  0  0
 21 26  1  0  0  0  0
 27 28  1  0  0  0  0
 27 32  1  0  0  0  0
 28 29  1  0  0  0  0
 28 31  1  0  0  0  0
 28 33  1  0  0  0  0
 29 30  2  0  0  0  0
 29 37  1  0  0  0  0
 31 34  1  0  0  0  0
 31 35  1  0  0  0  0
 31 36  1  0  0  0  0
 37 38  1  0  0  0  0
 37 39  1  0  0  0  0
 38 40  1  0  0  0  0
 38 41  1  0  0  0  0
 38 42  1  0  0  0  0
M  END
$$$$

  -OEChem-05262215353D

 42 41  0     1  0  0  0  0  0999 V2000
   -5.4697   -0.8873    1.7658 C   0  0  0  0  0  0  0  0  0  0  0  0
   -5.8447    0.1119    1.1725 O   0  0  0  0  0  0  0  0  0  0  0  0
   -6.3933   -2.0841    1.8949 C   0  0  0  0  0  0  0  0  0  0  0  0
   -6.5238   -2.3439    2.9481 H   0  0  0  0  0  0  0  0  0  0  0  0
   -7.3724   -1.8538    1.4654 H   0  0  0  0  0  0  0  0  0  0  0  0
   -5.9688   -2.9408    1.3655 H   0  0  0  0  0  0  0  0  0  0  0  0
   -4.2010   -0.9448    2.3029 N   0  0  0  0  0  0  0  0  0  0  0  0
   -3.1396    0.0281    2.0113 C   0  0  2  0  0  0  0  0  0  0  0  0
   -1.8646   -0.6718    1.4991 C   0  0  0  0  0  0  0  0  0  0  0  0
   -1.6700   -1.8514    1.7594 O   0  0  0  0  0  0  0  0  0  0  0  0
   -2.8419    0.8038    3.2969 C   0  0  0  0  0  0  0  0  0  0  0  0
   -3.8897   -1.8615    2.6222 H   0  0  0  0  0  0  0  0  0  0  0  0
   -3.4628    0.7316    1.2370 H   0  0  0  0  0  0  0  0  0  0  0  0
   -2.4965    0.1248    4.0832 H   0  0  0  0  0  0  0  0  0  0  0  0
   -2.0661    1.5559    3.1232 H   0  0  0  0  0  0  0  0  0  0  0  0
   -3.7448    1.3133    3.6478 H   0  0  0  0  0  0  0  0  0  0  0  0
   -0.9289    0.0325    0.7627 N   0  0  0  0  0  0  0  0  0  0  0  0
    0.4197   -0.4658    0.4455 C   0  0  2  0  0  0  0  0  0  0  0  0
    1.2724   -0.7624    1.7009 C   0  0  0  0  0  0  0  0  0  0  0  0
    1.6345   -1.8997    1.9674 O   0  0  0  0  0  0  0  0  0  0  0  0
    1.1046    0.5488   -0.4763 C   0  0  0  0  0  0  0  0  0  0  0  0
   -1.1315    1.0141    0.5973 H   0  0  0  0  0  0  0  0  0  0  0  0
    0.3226   -1.4117   -0.1003 H   0  0  0  0  0  0  0  0  0  0  0  0
    1.1831    1.5281    0.0060 H   0  0  0  0  0  0  0  0  0  0  0  0
    2.1123    0.2047   -0.7317 H   0  0  0  0  0  0  0  0  0  0  0  0
    0.5345    0.6621   -1.4037 H   0  0  0  0  0  0  0  0  0  0  0  0
    1.8058    0.2887    2.4224 N   0  0  0  0  0  0  0  0  0  0  0  0
    2.4295    0.1348    3.7414 C   0  0  2  0  0  0  0  0  0  0  0  0
    1.9004    1.2033    4.7217 C   0  0  0  0  0  0  0  0  0  0  0  0
    1.1920    2.1177    4.3088 O   0  0  0  0  0  0  0  0  0  0  0  0
    3.9458    0.2453    3.5655 C   0  0  0  0  0  0  0  0  0  0  0  0
    1.3829    1.1986    2.2467 H   0  0  0  0  0  0  0  0  0  0  0  0
    2.1872   -0.8454    4.1662 H   0  0  0  0  0  0  0  0  0  0  0  0
    4.2144    1.2279    3.1648 H   0  0  0  0  0  0  0  0  0  0  0  0
    4.4559    0.1066    4.5232 H   0  0  0  0  0  0  0  0  0  0  0  0
    4.3009   -0.5234    2.8713 H   0  0  0  0  0  0  0  0  0  0  0  0
    2.2072    1.1379    6.0681 N   0  0  0  0  0  0  0  0  0  0  0  0
    1.7299    2.1081    7.0464 C   0  0  0  0  0  0  0  0  0  0  0  0
    2.7654    0.3504    6.3862 H   0  0  0  0  0  0  0  0  0  0  0  0
    2.0316    3.1216    6.7606 H   0  0  0  0  0  0  0  0  0  0  0  0
    0.6377    2.0729    7.1202 H   0  0  0  0  0  0  0  0  0  0  0  0
    2.1512    1.8895    8.0324 H   0  0  0  0  0  0  0  0  0  0  0  0
  1  2  2  0  0  0  0
  1  3  1  0  0  0  0
  1  7  1  0  0  0  0
  3  4  1  0  0  0  0
  3  5  1  0  0  0  0
  3  6  1  0  0  0  0
  7  8  1  0  0  0  0
  7 12  1  0  0  0  0
  8  9  1  0  0  0  0
  8 11  1  0  0  0  0
  8 13  1  0  0  0  0
  9 10  2  0  0  0  0
  9 17  1  0  0  0  0
 11 14  1  0  0  0  0
 11 15  1  0  0  0  0
 11 16  1  0  0  0  0
 17 18  1  0  0  0  0
 17 22  1  0  0  0  0
 18 19  1  0  0  0  0
 18 21  1  0  0  0  0
 18 23  1  0  0  0  0
 19 20  2  0  0  0  0
 19 27  1  0  0  0  0
 21 24  1  0  0  0  0
 21 25  1  0  0  0  0
 21 26  1  0  0  0  0
 27 28  1  0  0  0  0
 27 32  1  0  0  0  0
 28 29  1  0  0  0  0
 28 31  1  0  0  0  0
 28 33  1  0  0  0  0
 29 30  2  0  0  0  0
 29 37  1  0  0  0  0
 31 34  1  0  0  0  0
 31 35  1  0  0  0  0
 31 36  1  0  0  0  0
 37 38  1  0  0  0  0
 37 39  1  0  0  0  0
 38 40  1  0  0  0  0
 38 41  1  0  0  0  0
 38 42  1  0  0  0  0
M  END
$$$$

  -OEChem-05262215353D

 42 41  0     1  0  0  0  0  0999 V2000
   -5.2285   -0.8530    1.9157 C   0  0  0  0  0  0  0  0  0  0  0  0
   -5.5205   -0.1795    0.9398 O   0  0  0  0  0  0  0  0  0  0  0  0
   -6.1241   -2.0024    2.3385 C   0  0  0  0  0  0  0  0  0  0  0  0
   -6.4699   -1.8488    3.3637 H   0  0  0  0  0  0  0  0  0  0  0  0
   -6.9946   -2.0657    1.6796 H   0  0  0  0  0  0  0  0  0  0  0  0
   -5.5722   -2.9441    2.2842 H   0  0  0  0  0  0  0  0  0  0  0  0
   -4.0805   -0.5875    2.6328 N   0  0  0  0  0  0  0  0  0  0  0  0
   -3.0171    0.3148    2.1680 C   0  0  2  0  0  0  0  0  0  0  0  0
   -1.7330   -0.4615    1.8090 C   0  0  0  0  0  0  0  0  0  0  0  0
   -1.4943   -1.5318    2.3535 O   0  0  0  0  0  0  0  0  0  0  0  0
   -2.7374    1.3228    3.2845 C   0  0  0  0  0  0  0  0  0  0  0  0
   -3.7946   -1.3124    3.2882 H   0  0  0  0  0  0  0  0  0  0  0  0
   -3.3364    0.8639    1.2765 H   0  0  0  0  0  0  0  0  0  0  0  0
   -2.3863    0.8110    4.1864 H   0  0  0  0  0  0  0  0  0  0  0  0
   -1.9694    2.0371    2.9726 H   0  0  0  0  0  0  0  0  0  0  0  0
   -3.6473    1.8790    3.5298 H   0  0  0  0  0  0  0  0  0  0  0  0
   -0.8363    0.0527    0.8880 N   0  0  0  0  0  0  0  0  0  0  0  0
    0.4343   -0.5917    0.5124 C   0  0  2  0  0  0  0  0  0  0  0  0
    1.3924   -0.7779    1.7086 C   0  0  0  0  0  0  0  0  0  0  0  0
    1.8777   -1.8732    1.9581 O   0  0  0  0  0  0  0  0  0  0  0  0
    1.0916    0.2364   -0.5951 C   0  0  0  0  0  0  0  0  0  0  0  0
   -1.1012    0.9179    0.4263 H   0  0  0  0  0  0  0  0  0  0  0  0
    0.2178   -1.5908    0.1168 H   0  0  0  0  0  0  0  0  0  0  0  0
    1.3091    1.2512   -0.2484 H   0  0  0  0  0  0  0  0  0  0  0  0
    2.0303   -0.2322   -0.9078 H   0  0  0  0  0  0  0  0  0  0  0  0
    0.4314    0.2984   -1.4657 H   0  0  0  0  0  0  0  0  0  0  0  0
    1.8218    0.3328    2.4107 N   0  0  0  0  0  0  0  0  0  0  0  0
    2.3222    0.2268    3.7858 C   0  0  2  0  0  0  0  0  0  0  0  0
    1.2382    0.6921    4.7790 C   0  0  0  0  0  0  0  0  0  0  0  0
    0.4462    1.5711    4.4494 O   0  0  0  0  0  0  0  0  0  0  0  0
    3.5781    1.0904    3.9075 C   0  0  0  0  0  0  0  0  0  0  0  0
    1.2681    1.1666    2.2276 H   0  0  0  0  0  0  0  0  0  0  0  0
    2.5870   -0.8069    4.0308 H   0  0  0  0  0  0  0  0  0  0  0  0
    3.3474    2.1374    3.6860 H   0  0  0  0  0  0  0  0  0  0  0  0
    3.9853    1.0305    4.9215 H   0  0  0  0  0  0  0  0  0  0  0  0
    4.3429    0.7441    3.2054 H   0  0  0  0  0  0  0  0  0  0  0  0
    1.1522    0.1337    6.0399 N   0  0  0  0  0  0  0  0  0  0  0  0
    0.0971    0.4708    6.9868 C   0  0  0  0  0  0  0  0  0  0  0  0
    1.7522   -0.6627    6.2373 H   0  0  0  0  0  0  0  0  0  0  0  0
    0.1365    1.5354    7.2401 H   0  0  0  0  0  0  0  0  0  0  0  0
   -0.8859    0.2450    6.5602 H   0  0  0  0  0  0  0  0  0  0  0  0
    0.2163   -0.1071    7.9084 H   0  0  0  0  0  0  0  0  0  0  0  0
  1  2  2  0  0  0  0
  1  3  1  0  0  0  0
  1  7  1  0  0  0  0
  3  4  1  0  0  0  0
  3  5  1  0  0  0  0
  3  6  1  0  0  0  0
  7  8  1  0  0  0  0
  7 12  1  0  0  0  0
  8  9  1  0  0  0  0
  8 11  1  0  0  0  0
  8 13  1  0  0  0  0
  9 10  2  0  0  0  0
  9 17  1  0  0  0  0
 11 14  1  0  0  0  0
 11 15  1  0  0  0  0
 11 16  1  0  0  0  0
 17 18  1  0  0  0  0
 17 22  1  0  0  0  0
 18 19  1  0  0  0  0
 18 21  1  0  0  0  0
 18 23  1  0  0  0  0
 19 20  2  0  0  0  0
 19 27  1  0  0  0  0
 21 24  1  0  0  0  0
 21 25  1  0  0  0  0
 21 26  1  0  0  0  0
 27 28  1  0  0  0  0
 27 32  1  0  0  0  0
 28 29  1  0  0  0  0
 28 31  1  0  0  0  0
 28 33  1  0  0  0  0
 29 30  2  0  0  0  0
 29 37  1  0  0  0  0
 31 34  1  0  0  0  0
 31 35  1  0  0  0  0
 31 36  1  0  0  0  0
 37 38  1  0  0  0  0
 37 39  1  0  0  0  0
 38 40  1  0  0  0  0
 38 41  1  0  0  0  0
 38 42  1  0  0  0  0
M  END
$$$$

  -OEChem-05262215353D

 42 41  0     1  0  0  0  0  0999 V2000
   -5.4661   -0.9620    1.6985 C   0  0  0  0  0  0  0  0  0  0  0  0
   -5.8417   -0.0310    1.0034 O   0  0  0  0  0  0  0  0  0  0  0  0
   -6.3453   -2.1872    1.8642 C   0  0  0  0  0  0  0  0  0  0  0  0
   -6.5441   -2.3649    2.9238 H   0  0  0  0  0  0  0  0  0  0  0  0
   -7.2975   -2.0412    1.3467 H   0  0  0  0  0  0  0  0  0  0  0  0
   -5.8462   -3.0630    1.4426 H   0  0  0  0  0  0  0  0  0  0  0  0
   -4.2344   -0.9176    2.3172 N   0  0  0  0  0  0  0  0  0  0  0  0
   -3.2032    0.0893    2.0309 C   0  0  2  0  0  0  0  0  0  0  0  0
   -1.8702   -0.5735    1.6284 C   0  0  0  0  0  0  0  0  0  0  0  0
   -1.6091   -1.7062    2.0139 O   0  0  0  0  0  0  0  0  0  0  0  0
   -3.0165    0.9444    3.2862 C   0  0  0  0  0  0  0  0  0  0  0  0
   -3.9076   -1.7874    2.7358 H   0  0  0  0  0  0  0  0  0  0  0  0
   -3.5143    0.7368    1.2047 H   0  0  0  0  0  0  0  0  0  0  0  0
   -2.6789    0.3274    4.1256 H   0  0  0  0  0  0  0  0  0  0  0  0
   -2.2717    1.7271    3.1120 H   0  0  0  0  0  0  0  0  0  0  0  0
   -3.9615    1.4222    3.5627 H   0  0  0  0  0  0  0  0  0  0  0  0
   -0.9473    0.1088    0.8545 N   0  0  0  0  0  0  0  0  0  0  0  0
    0.3839   -0.4172    0.5038 C   0  0  2  0  0  0  0  0  0  0  0  0
    1.2659   -0.7124    1.7358 C   0  0  0  0  0  0  0  0  0  0  0  0
    2.0247   -1.6725    1.7488 O   0  0  0  0  0  0  0  0  0  0  0  0
    1.0761    0.5869   -0.4204 C   0  0  0  0  0  0  0  0  0  0  0  0
   -1.2153    1.0294    0.5183 H   0  0  0  0  0  0  0  0  0  0  0  0
    0.2587   -1.3622   -0.0370 H   0  0  0  0  0  0  0  0  0  0  0  0
    1.2136    1.5485    0.0841 H   0  0  0  0  0  0  0  0  0  0  0  0
    2.0593    0.2074   -0.7176 H   0  0  0  0  0  0  0  0  0  0  0  0
    0.4807    0.7454   -1.3247 H   0  0  0  0  0  0  0  0  0  0  0  0
    1.3247    0.2144    2.7581 N   0  0  0  0  0  0  0  0  0  0  0  0
    1.8605   -0.0894    4.0881 C   0  0  2  0  0  0  0  0  0  0  0  0
    0.9035    0.4234    5.1854 C   0  0  0  0  0  0  0  0  0  0  0  0
    0.0109    1.2177    4.9007 O   0  0  0  0  0  0  0  0  0  0  0  0
    3.2402    0.5612    4.2077 C   0  0  0  0  0  0  0  0  0  0  0  0
    0.5868    0.9163    2.7404 H   0  0  0  0  0  0  0  0  0  0  0  0
    1.9592   -1.1726    4.2186 H   0  0  0  0  0  0  0  0  0  0  0  0
    3.1643    1.6463    4.0858 H   0  0  0  0  0  0  0  0  0  0  0  0
    3.6829    0.3487    5.1852 H   0  0  0  0  0  0  0  0  0  0  0  0
    3.9080    0.1694    3.4338 H   0  0  0  0  0  0  0  0  0  0  0  0
    1.0283   -0.0169    6.4900 N   0  0  0  0  0  0  0  0  0  0  0  0
    0.1162    0.3759    7.5573 C   0  0  0  0  0  0  0  0  0  0  0  0
    1.7367   -0.7195    6.6822 H   0  0  0  0  0  0  0  0  0  0  0  0
    0.1063    1.4648    7.6733 H   0  0  0  0  0  0  0  0  0  0  0  0
   -0.9007    0.0354    7.3359 H   0  0  0  0  0  0  0  0  0  0  0  0
    0.4306   -0.0680    8.5068 H   0  0  0  0  0  0  0  0  0  0  0  0
  1  2  2  0  0  0  0
  1  3  1  0  0  0  0
  1  7  1  0  0  0  0
  3  4  1  0  0  0  0
  3  5  1  0  0  0  0
  3  6  1  0  0  0  0
  7  8  1  0  0  0  0
  7 12  1  0  0  0  0
  8  9  1  0  0  0  0
  8 11  1  0  0  0  0
  8 13  1  0  0  0  0
  9 10  2  0  0  0  0
  9 17  1  0  0  0  0
 11 14  1  0  0  0  0
 11 15  1  0  0  0  0
 11 16  1  0  0  0  0
 17 18  1  0  0  0  0
 17 22  1  0  0  0  0
 18 19  1  0  0  0  0
 18 21  1  0  0  0  0
 18 23  1  0  0  0  0
 19 20  2  0  0  0  0
 19 27  1  0  0  0  0
 21 24  1  0  0  0  0
 21 25  1  0  0  0  0
 21 26  1  0  0  0  0
 27 28  1  0  0  0  0
 27 32  1  0  0  0  0
 28 29  1  0  0  0  0
 28 31  1  0  0  0  0
 28 33  1  0  0  0  0
 29 30  2  0  0  0  0
 29 37  1  0  0  0  0
 31 34  1  0  0  0  0
 31 35  1  0  0  0  0
 31 36  1  0  0  0  0
 37 38  1  0  0  0  0
 37 39  1  0  0  0  0
 38 40  1  0  0  0  0
 38 41  1  0  0  0  0
 38 42  1  0  0  0  0
M  END
$$$$

  -OEChem-05262215353D

 42 41  0     1  0  0  0  0  0999 V2000
   -5.5332   -1.0013    1.6325 C   0  0  0  0  0  0  0  0  0  0  0  0
   -5.9261   -0.0537    0.9704 O   0  0  0  0  0  0  0  0  0  0  0  0
   -6.4121   -2.2259    1.8029 C   0  0  0  0  0  0  0  0  0  0  0  0
   -6.5468   -2.4446    2.8650 H   0  0  0  0  0  0  0  0  0  0  0  0
   -7.3933   -2.0519    1.3524 H   0  0  0  0  0  0  0  0  0  0  0  0
   -5.9480   -3.0872    1.3162 H   0  0  0  0  0  0  0  0  0  0  0  0
   -4.2832   -0.9726    2.2134 N   0  0  0  0  0  0  0  0  0  0  0  0
   -3.2717    0.0607    1.9564 C   0  0  2  0  0  0  0  0  0  0  0  0
   -1.9004   -0.5648    1.6301 C   0  0  0  0  0  0  0  0  0  0  0  0
   -1.6243   -1.6873    2.0351 O   0  0  0  0  0  0  0  0  0  0  0  0
   -3.1800    0.9464    3.2007 C   0  0  0  0  0  0  0  0  0  0  0  0
   -3.9489   -1.8413    2.6280 H   0  0  0  0  0  0  0  0  0  0  0  0
   -3.5626    0.6777    1.1000 H   0  0  0  0  0  0  0  0  0  0  0  0
   -2.8971    0.3516    4.0752 H   0  0  0  0  0  0  0  0  0  0  0  0
   -2.4333    1.7338    3.0614 H   0  0  0  0  0  0  0  0  0  0  0  0
   -4.1472    1.4181    3.4002 H   0  0  0  0  0  0  0  0  0  0  0  0
   -0.9674    0.1278    0.8767 N   0  0  0  0  0  0  0  0  0  0  0  0
    0.3755   -0.3877    0.5507 C   0  0  2  0  0  0  0  0  0  0  0  0
    1.2541   -0.6873    1.7854 C   0  0  0  0  0  0  0  0  0  0  0  0
    2.1779   -1.4872    1.7127 O   0  0  0  0  0  0  0  0  0  0  0  0
    1.0703    0.6331   -0.3525 C   0  0  0  0  0  0  0  0  0  0  0  0
   -1.2467    1.0329    0.5085 H   0  0  0  0  0  0  0  0  0  0  0  0
    0.2661   -1.3286   -0.0004 H   0  0  0  0  0  0  0  0  0  0  0  0
    1.2129    1.5817    0.1746 H   0  0  0  0  0  0  0  0  0  0  0  0
    2.0514    0.2566   -0.6599 H   0  0  0  0  0  0  0  0  0  0  0  0
    0.4747    0.8154   -1.2521 H   0  0  0  0  0  0  0  0  0  0  0  0
    1.0811    0.0489    2.9409 N   0  0  0  0  0  0  0  0  0  0  0  0
    1.6279   -0.3429    4.2424 C   0  0  2  0  0  0  0  0  0  0  0  0
    0.5822   -0.1201    5.3548 C   0  0  0  0  0  0  0  0  0  0  0  0
   -0.3709    0.6301    5.1617 O   0  0  0  0  0  0  0  0  0  0  0  0
    2.8892    0.4823    4.5062 C   0  0  0  0  0  0  0  0  0  0  0  0
    0.2242    0.5982    2.9767 H   0  0  0  0  0  0  0  0  0  0  0  0
    1.8852   -1.4077    4.2372 H   0  0  0  0  0  0  0  0  0  0  0  0
    2.6505    1.5504    4.5251 H   0  0  0  0  0  0  0  0  0  0  0  0
    3.3351    0.2070    5.4665 H   0  0  0  0  0  0  0  0  0  0  0  0
    3.6280    0.3038    3.7185 H   0  0  0  0  0  0  0  0  0  0  0  0
    0.7043   -0.7639    6.5722 N   0  0  0  0  0  0  0  0  0  0  0  0
   -0.2817   -0.6482    7.6399 C   0  0  0  0  0  0  0  0  0  0  0  0
    1.4676   -1.4264    6.6769 H   0  0  0  0  0  0  0  0  0  0  0  0
   -0.4213    0.4007    7.9226 H   0  0  0  0  0  0  0  0  0  0  0  0
   -1.2450   -1.0575    7.3176 H   0  0  0  0  0  0  0  0  0  0  0  0
    0.0515   -1.2006    8.5238 H   0  0  0  0  0  0  0  0  0  0  0  0
  1  2  2  0  0  0  0
  1  3  1  0  0  0  0
  1  7  1  0  0  0  0
  3  4  1  0  0  0  0
  3  5  1  0  0  0  0
  3  6  1  0  0  0  0
  7  8  1  0  0  0  0
  7 12  1  0  0  0  0
  8  9  1  0  0  0  0
  8 11  1  0  0  0  0
  8 13  1  0  0  0  0
  9 10  2  0  0  0  0
  9 17  1  0  0  0  0
 11 14  1  0  0  0  0
 11 15  1  0  0  0  0
 11 16  1  0  0  0  0
 17 18  1  0  0  0  0
 17 22  1  0  0  0  0
 18 19  1  0  0  0  0
 18 21  1  0  0  0  0
 18 23  1  0  0  0  0
 19 20  2  0  0  0  0
 19 27  1  0  0  0  0
 21 24  1  0  0  0  0
 21 25  1  0  0  0  0
 21 26  1  0  0  0  0
 27 28  1  0  0  0  0
 27 32  1  0  0  0  0
 28 29  1  0  0  0  0
 28 31  1  0  0  0  0
 28 33  1  0  0  0  0
 29 30  2  0  0  0  0
 29 37  1  0  0  0  0
 31 34  1  0  0  0  0
 31 35  1  0  0  0  0
 31 36  1  0  0  0  0
 37 38  1  0  0  0  0
 37 39  1  0  0  0  0
 38 40  1  0  0  0  0
 38 41  1  0  0  0  0
 38 42  1  0  0  0  0
M  END
$$$$

  -OEChem-05262215353D

 42 41  0     1  0  0  0  0  0999 V2000
   -5.6140   -1.0206    1.5498 C   0  0  0  0  0  0  0  0  0  0  0  0
   -6.0157   -0.0917    0.8666 O   0  0  0  0  0  0  0  0  0  0  0  0
   -6.4968   -2.2327    1.7793 C   0  0  0  0  0  0  0  0  0  0  0  0
   -6.6676   -2.3725    2.8495 H   0  0  0  0  0  0  0  0  0  0  0  0
   -7.4618   -2.0954    1.2833 H   0  0  0  0  0  0  0  0  0  0  0  0
   -6.0163   -3.1268    1.3743 H   0  0  0  0  0  0  0  0  0  0  0  0
   -4.3543   -0.9783    2.1082 N   0  0  0  0  0  0  0  0  0  0  0  0
   -3.3491    0.0498    1.8113 C   0  0  2  0  0  0  0  0  0  0  0  0
   -1.9710   -0.5734    1.5095 C   0  0  0  0  0  0  0  0  0  0  0  0
   -1.7119   -1.7136    1.8734 O   0  0  0  0  0  0  0  0  0  0  0  0
   -3.2649    0.9830    3.0211 C   0  0  0  0  0  0  0  0  0  0  0  0
   -4.0147   -1.8341    2.5452 H   0  0  0  0  0  0  0  0  0  0  0  0
   -3.6445    0.6304    0.9311 H   0  0  0  0  0  0  0  0  0  0  0  0
   -2.9722    0.4244    3.9162 H   0  0  0  0  0  0  0  0  0  0  0  0
   -2.5294    1.7743    2.8488 H   0  0  0  0  0  0  0  0  0  0  0  0
   -4.2377    1.4496    3.2059 H   0  0  0  0  0  0  0  0  0  0  0  0
   -0.9954    0.1555    0.8514 N   0  0  0  0  0  0  0  0  0  0  0  0
    0.3699   -0.3341    0.5800 C   0  0  2  0  0  0  0  0  0  0  0  0
    1.2018   -0.7000    1.8331 C   0  0  0  0  0  0  0  0  0  0  0  0
    2.2808   -1.2657    1.7100 O   0  0  0  0  0  0  0  0  0  0  0  0
    1.0901    0.7458   -0.2325 C   0  0  0  0  0  0  0  0  0  0  0  0
   -1.2424    1.0950    0.5530 H   0  0  0  0  0  0  0  0  0  0  0  0
    0.2997   -1.2433   -0.0273 H   0  0  0  0  0  0  0  0  0  0  0  0
    1.1932    1.6641    0.3542 H   0  0  0  0  0  0  0  0  0  0  0  0
    2.0904    0.4022   -0.5159 H   0  0  0  0  0  0  0  0  0  0  0  0
    0.5337    0.9718   -1.1474 H   0  0  0  0  0  0  0  0  0  0  0  0
    0.8007   -0.2840    3.0876 N   0  0  0  0  0  0  0  0  0  0  0  0
    1.4076   -0.7372    4.3418 C   0  0  2  0  0  0  0  0  0  0  0  0
    0.3458   -0.8303    5.4575 C   0  0  0  0  0  0  0  0  0  0  0  0
   -0.7158   -0.2225    5.3519 O   0  0  0  0  0  0  0  0  0  0  0  0
    2.5177    0.2431    4.7312 C   0  0  0  0  0  0  0  0  0  0  0  0
   -0.1678    0.0246    3.1532 H   0  0  0  0  0  0  0  0  0  0  0  0
    1.8349   -1.7364    4.2057 H   0  0  0  0  0  0  0  0  0  0  0  0
    2.1078    1.2481    4.8731 H   0  0  0  0  0  0  0  0  0  0  0  0
    3.0003   -0.0713    5.6613 H   0  0  0  0  0  0  0  0  0  0  0  0
    3.2781    0.2846    3.9450 H   0  0  0  0  0  0  0  0  0  0  0  0
    0.5773   -1.5991    6.5829 N   0  0  0  0  0  0  0  0  0  0  0  0
   -0.4028   -1.7711    7.6482 C   0  0  0  0  0  0  0  0  0  0  0  0
    1.4442   -2.1276    6.6204 H   0  0  0  0  0  0  0  0  0  0  0  0
   -0.6632   -0.8033    8.0894 H   0  0  0  0  0  0  0  0  0  0  0  0
   -1.3140   -2.2374    7.2589 H   0  0  0  0  0  0  0  0  0  0  0  0
    0.0038   -2.4115    8.4368 H   0  0  0  0  0  0  0  0  0  0  0  0
  1  2  2  0  0  0  0
  1  3  1  0  0  0  0
  1  7  1  0  0  0  0
  3  4  1  0  0  0  0
  3  5  1  0  0  0  0
  3  6  1  0  0  0  0
  7  8  1  0  0  0  0
  7 12  1  0  0  0  0
  8  9  1  0  0  0  0
  8 11  1  0  0  0  0
  8 13  1  0  0  0  0
  9 10  2  0  0  0  0
  9 17  1  0  0  0  0
 11 14  1  0  0  0  0
 11 15  1  0  0  0  0
 11 16  1  0  0  0  0
 17 18  1  0  0  0  0
 17 22  1  0  0  0  0
 18 19  1  0  0  0  0
 18 21  1  0  0  0  0
 18 23  1  0  0  0  0
 19 20  2  0  0  0  0
 19 27  1  0  0  0  0
 21 24  1  0  0  0  0
 21 25  1  0  0  0  0
 21 26  1  0  0  0  0
 27 28  1  0  0  0  0
 27 32  1  0  0  0  0
 28 29  1  0  0  0  0
 28 31  1  0  0  0  0
 28 33  1  0  0  0  0
 29 30  2  0  0  0  0
 29 37  1  0  0  0  0
 31 34  1  0  0  0  0
 31 35  1  0  0  0  0
 31 36  1  0  0  0  0
 37 38  1  0  0  0  0
 37 39  1  0  0  0  0
 38 40  1  0  0  0  0
 38 41  1  0  0  0  0
 38 42  1  0  0  0  0
M  END
$$$$

  -OEChem-05262215353D

 42 41  0     1  0  0  0  0  0999 V2000
   -5.6501   -0.9656    1.5821 C   0  0  0  0  0  0  0  0  0  0  0  0
   -6.0707   -0.0191    0.9353 O   0  0  0  0  0  0  0  0  0  0  0  0
   -6.5354   -2.1730    1.8277 C   0  0  0  0  0  0  0  0  0  0  0  0
   -6.6707   -2.3242    2.9015 H   0  0  0  0  0  0  0  0  0  0  0  0
   -7.5155   -2.0224    1.3664 H   0  0  0  0  0  0  0  0  0  0  0  0
   -6.0764   -3.0661    1.3963 H   0  0  0  0  0  0  0  0  0  0  0  0
   -4.3655   -0.9485    2.0821 N   0  0  0  0  0  0  0  0  0  0  0  0
   -3.3575    0.0648    1.7455 C   0  0  2  0  0  0  0  0  0  0  0  0
   -2.0064   -0.5799    1.3751 C   0  0  0  0  0  0  0  0  0  0  0  0
   -1.7821   -1.7532    1.6446 O   0  0  0  0  0  0  0  0  0  0  0  0
   -3.1991    0.9849    2.9593 C   0  0  0  0  0  0  0  0  0  0  0  0
   -4.0193   -1.8165    2.4896 H   0  0  0  0  0  0  0  0  0  0  0  0
   -3.6834    0.6575    0.8841 H   0  0  0  0  0  0  0  0  0  0  0  0
   -2.8623    0.4149    3.8320 H   0  0  0  0  0  0  0  0  0  0  0  0
   -2.4680    1.7728    2.7553 H   0  0  0  0  0  0  0  0  0  0  0  0
   -4.1565    1.4572    3.2017 H   0  0  0  0  0  0  0  0  0  0  0  0
   -0.9940    0.1722    0.8069 N   0  0  0  0  0  0  0  0  0  0  0  0
    0.3819   -0.3104    0.5751 C   0  0  2  0  0  0  0  0  0  0  0  0
    1.1665   -0.7543    1.8389 C   0  0  0  0  0  0  0  0  0  0  0  0
    2.3510   -1.0540    1.7509 O   0  0  0  0  0  0  0  0  0  0  0  0
    1.1277    0.8088   -0.1602 C   0  0  0  0  0  0  0  0  0  0  0  0
   -1.1951    1.1526    0.6309 H   0  0  0  0  0  0  0  0  0  0  0  0
    0.3325   -1.1854   -0.0821 H   0  0  0  0  0  0  0  0  0  0  0  0
    1.2388    1.6857    0.4855 H   0  0  0  0  0  0  0  0  0  0  0  0
    2.1258    0.4700   -0.4572 H   0  0  0  0  0  0  0  0  0  0  0  0
    0.5841    1.1017   -1.0637 H   0  0  0  0  0  0  0  0  0  0  0  0
    0.5917   -0.6933    3.0938 N   0  0  0  0  0  0  0  0  0  0  0  0
    1.2287   -1.1627    4.3276 C   0  0  2  0  0  0  0  0  0  0  0  0
    0.1744   -1.6310    5.3528 C   0  0  0  0  0  0  0  0  0  0  0  0
   -0.9945   -1.2701    5.2510 O   0  0  0  0  0  0  0  0  0  0  0  0
    2.0693   -0.0224    4.9108 C   0  0  0  0  0  0  0  0  0  0  0  0
   -0.4288   -0.6901    3.0976 H   0  0  0  0  0  0  0  0  0  0  0  0
    1.8768   -2.0166    4.1042 H   0  0  0  0  0  0  0  0  0  0  0  0
    1.4361    0.8411    5.1388 H   0  0  0  0  0  0  0  0  0  0  0  0
    2.5662   -0.3436    5.8311 H   0  0  0  0  0  0  0  0  0  0  0  0
    2.8374    0.2881    4.1953 H   0  0  0  0  0  0  0  0  0  0  0  0
    0.5394   -2.4567    6.4004 N   0  0  0  0  0  0  0  0  0  0  0  0
   -0.4056   -2.9606    7.3897 C   0  0  0  0  0  0  0  0  0  0  0  0
    1.5066   -2.7650    6.4406 H   0  0  0  0  0  0  0  0  0  0  0  0
   -0.8983   -2.1305    7.9071 H   0  0  0  0  0  0  0  0  0  0  0  0
   -1.1702   -3.5795    6.9084 H   0  0  0  0  0  0  0  0  0  0  0  0
    0.1150   -3.5703    8.1347 H   0  0  0  0  0  0  0  0  0  0  0  0
  1  2  2  0  0  0  0
  1  3  1  0  0  0  0
  1  7  1  0  0  0  0
  3  4  1  0  0  0  0
  3  5  1  0  0  0  0
  3  6  1  0  0  0  0
  7  8  1  0  0  0  0
  7 12  1  0  0  0  0
  8  9  1  0  0  0  0
  8 11  1  0  0  0  0
  8 13  1  0  0  0  0
  9 10  2  0  0  0  0
  9 17  1  0  0  0  0
 11 14  1  0  0  0  0
 11 15  1  0  0  0  0
 11 16  1  0  0  0  0
 17 18  1  0  0  0  0
 17 22  1  0  0  0  0
 18 19  1  0  0  0  0
 18 21  1  0  0  0  0
 18 23  1  0  0  0  0
 19 20  2  0  0  0  0
 19 27  1  0  0  0  0
 21 24  1  0  0  0  0
 21 25  1  0  0  0  0
 21 26  1  0  0  0  0
 27 28  1  0  0  0  0
 27 32  1  0  0  0  0
 28 29  1  0  0  0  0
 28 31  1  0  0  0  0
 28 33  1  0  0  0  0
 29 30  2  0  0  0  0
 29 37  1  0  0  0  0
 31 34  1  0  0  0  0
 31 35  1  0  0  0  0
 31 36  1  0  0  0  0
 37 38  1  0  0  0  0
 37 39  1  0  0  0  0
 38 40  1  0  0  0  0
 38 41  1  0  0  0  0
 38 42  1  0  0  0  0
M  END
$$$$

  -OEChem-05262215353D

 42 41  0     1  0  0  0  0  0999 V2000
   -5.6054   -0.9629    1.5924 C   0  0  0  0  0  0  0  0  0  0  0  0
   -6.0033   -0.0230    0.9218 O   0  0  0  0  0  0  0  0  0  0  0  0
   -6.4861   -2.1823    1.7901 C   0  0  0  0  0  0  0  0  0  0  0  0
   -6.6871   -2.3289    2.8542 H   0  0  0  0  0  0  0  0  0  0  0  0
   -7.4366   -2.0508    1.2657 H   0  0  0  0  0  0  0  0  0  0  0  0
   -5.9863   -3.0704    1.3955 H   0  0  0  0  0  0  0  0  0  0  0  0
   -4.3520   -0.9295    2.1659 N   0  0  0  0  0  0  0  0  0  0  0  0
   -3.3263    0.0744    1.8529 C   0  0  2  0  0  0  0  0  0  0  0  0
   -2.0298   -0.5779    1.3297 C   0  0  0  0  0  0  0  0  0  0  0  0
   -1.8361   -1.7793    1.4717 O   0  0  0  0  0  0  0  0  0  0  0  0
   -3.0508    0.8593    3.1383 C   0  0  0  0  0  0  0  0  0  0  0  0
   -4.0196   -1.8034    2.5721 H   0  0  0  0  0  0  0  0  0  0  0  0
   -3.6810    0.7649    1.0805 H   0  0  0  0  0  0  0  0  0  0  0  0
   -2.6693    0.1939    3.9205 H   0  0  0  0  0  0  0  0  0  0  0  0
   -2.3126    1.6465    2.9602 H   0  0  0  0  0  0  0  0  0  0  0  0
   -3.9727    1.3264    3.4986 H   0  0  0  0  0  0  0  0  0  0  0  0
   -1.0126    0.1921    0.7950 N   0  0  0  0  0  0  0  0  0  0  0  0
    0.3627   -0.2867    0.5467 C   0  0  2  0  0  0  0  0  0  0  0  0
    1.1453   -0.7858    1.7948 C   0  0  0  0  0  0  0  0  0  0  0  0
    2.3682   -0.8528    1.7713 O   0  0  0  0  0  0  0  0  0  0  0  0
    1.1028    0.8586   -0.1557 C   0  0  0  0  0  0  0  0  0  0  0  0
   -1.1773    1.1941    0.7621 H   0  0  0  0  0  0  0  0  0  0  0  0
    0.3101   -1.1367   -0.1422 H   0  0  0  0  0  0  0  0  0  0  0  0
    1.2224    1.7104    0.5211 H   0  0  0  0  0  0  0  0  0  0  0  0
    2.0968    0.5310   -0.4775 H   0  0  0  0  0  0  0  0  0  0  0  0
    0.5494    1.1860   -1.0412 H   0  0  0  0  0  0  0  0  0  0  0  0
    0.4983   -1.0661    2.9828 N   0  0  0  0  0  0  0  0  0  0  0  0
    1.1409   -1.5729    4.1991 C   0  0  2  0  0  0  0  0  0  0  0  0
    0.1271   -2.3143    5.0964 C   0  0  0  0  0  0  0  0  0  0  0  0
   -1.0771   -2.1099    4.9771 O   0  0  0  0  0  0  0  0  0  0  0  0
    1.7557   -0.3962    4.9644 C   0  0  0  0  0  0  0  0  0  0  0  0
   -0.5038   -1.2537    2.8926 H   0  0  0  0  0  0  0  0  0  0  0  0
    1.9290   -2.2826    3.9261 H   0  0  0  0  0  0  0  0  0  0  0  0
    0.9808    0.3264    5.2390 H   0  0  0  0  0  0  0  0  0  0  0  0
    2.2460   -0.7465    5.8774 H   0  0  0  0  0  0  0  0  0  0  0  0
    2.5031    0.1123    4.3476 H   0  0  0  0  0  0  0  0  0  0  0  0
    0.5689   -3.2095    6.0531 N   0  0  0  0  0  0  0  0  0  0  0  0
   -0.3299   -3.9703    6.9124 C   0  0  0  0  0  0  0  0  0  0  0  0
    1.5678   -3.3875    6.1043 H   0  0  0  0  0  0  0  0  0  0  0  0
   -0.9831   -3.2973    7.4779 H   0  0  0  0  0  0  0  0  0  0  0  0
   -0.9520   -4.6437    6.3135 H   0  0  0  0  0  0  0  0  0  0  0  0
    0.2451   -4.5701    7.6246 H   0  0  0  0  0  0  0  0  0  0  0  0
  1  2  2  0  0  0  0
  1  3  1  0  0  0  0
  1  7  1  0  0  0  0
  3  4  1  0  0  0  0
  3  5  1  0  0  0  0
  3  6  1  0  0  0  0
  7  8  1  0  0  0  0
  7 12  1  0  0  0  0
  8  9  1  0  0  0  0
  8 11  1  0  0  0  0
  8 13  1  0  0  0  0
  9 10  2  0  0  0  0
  9 17  1  0  0  0  0
 11 14  1  0  0  0  0
 11 15  1  0  0  0  0
 11 16  1  0  0  0  0
 17 18  1  0  0  0  0
 17 22  1  0  0  0  0
 18 19  1  0  0  0  0
 18 21  1  0  0  0  0
 18 23  1  0  0  0  0
 19 20  2  0  0  0  0
 19 27  1  0  0  0  0
 21 24  1  0  0  0  0
 21 25  1  0  0  0  0
 21 26  1  0  0  0  0
 27 28  1  0  0  0  0
 27 32  1  0  0  0  0
 28 29  1  0  0  0  0
 28 31  1  0  0  0  0
 28 33  1  0  0  0  0
 29 30  2  0  0  0  0
 29 37  1  0  0  0  0
 31 34  1  0  0  0  0
 31 35  1  0  0  0  0
 31 36  1  0  0  0  0
 37 38  1  0  0  0  0
 37 39  1  0  0  0  0
 38 40  1  0  0  0  0
 38 41  1  0  0  0  0
 38 42  1  0  0  0  0
M  END
$$$$

  -OEChem-05262215353D

 42 41  0     1  0  0  0  0  0999 V2000
   -5.5456   -0.9749    1.6248 C   0  0  0  0  0  0  0  0  0  0  0  0
   -5.9131    0.0020    0.9911 O   0  0  0  0  0  0  0  0  0  0  0  0
   -6.4494   -2.1874    1.7420 C   0  0  0  0  0  0  0  0  0  0  0  0
   -6.6521   -2.4010    2.7942 H   0  0  0  0  0  0  0  0  0  0  0  0
   -7.3980   -2.0020    1.2306 H   0  0  0  0  0  0  0  0  0  0  0  0
   -5.9675   -3.0561    1.2870 H   0  0  0  0  0  0  0  0  0  0  0  0
   -4.3084   -0.9878    2.2338 N   0  0  0  0  0  0  0  0  0  0  0  0
   -3.2613    0.0142    1.9897 C   0  0  2  0  0  0  0  0  0  0  0  0
   -2.0273   -0.6020    1.2989 C   0  0  0  0  0  0  0  0  0  0  0  0
   -1.8614   -1.8164    1.2928 O   0  0  0  0  0  0  0  0  0  0  0  0
   -2.8704    0.6009    3.3488 C   0  0  0  0  0  0  0  0  0  0  0  0
   -3.9950   -1.8919    2.5850 H   0  0  0  0  0  0  0  0  0  0  0  0
   -3.6328    0.8207    1.3490 H   0  0  0  0  0  0  0  0  0  0  0  0
   -2.4750   -0.1822    4.0052 H   0  0  0  0  0  0  0  0  0  0  0  0
   -2.1059    1.3747    3.2312 H   0  0  0  0  0  0  0  0  0  0  0  0
   -3.7447    1.0505    3.8302 H   0  0  0  0  0  0  0  0  0  0  0  0
   -1.0256    0.2008    0.7823 N   0  0  0  0  0  0  0  0  0  0  0  0
    0.3493   -0.2619    0.5030 C   0  0  2  0  0  0  0  0  0  0  0  0
    1.1411   -0.8005    1.7311 C   0  0  0  0  0  0  0  0  0  0  0  0
    2.3526   -0.6373    1.8116 O   0  0  0  0  0  0  0  0  0  0  0  0
    1.0746    0.9038   -0.1829 C   0  0  0  0  0  0  0  0  0  0  0  0
   -1.1701    1.2023    0.8751 H   0  0  0  0  0  0  0  0  0  0  0  0
    0.2910   -1.0913   -0.2100 H   0  0  0  0  0  0  0  0  0  0  0  0
    1.2035    1.7388    0.5129 H   0  0  0  0  0  0  0  0  0  0  0  0
    2.0638    0.5873   -0.5294 H   0  0  0  0  0  0  0  0  0  0  0  0
    0.5061    1.2523   -1.0506 H   0  0  0  0  0  0  0  0  0  0  0  0
    0.4998   -1.4072    2.7940 N   0  0  0  0  0  0  0  0  0  0  0  0
    1.1412   -1.9092    4.0140 C   0  0  2  0  0  0  0  0  0  0  0  0
    0.2264   -2.8991    4.7656 C   0  0  0  0  0  0  0  0  0  0  0  0
   -0.9931   -2.8264    4.6533 O   0  0  0  0  0  0  0  0  0  0  0  0
    1.4757   -0.7266    4.9313 C   0  0  0  0  0  0  0  0  0  0  0  0
   -0.4648   -1.7073    2.6188 H   0  0  0  0  0  0  0  0  0  0  0  0
    2.0629   -2.4355    3.7454 H   0  0  0  0  0  0  0  0  0  0  0  0
    0.5641   -0.1835    5.2006 H   0  0  0  0  0  0  0  0  0  0  0  0
    1.9558   -1.0785    5.8493 H   0  0  0  0  0  0  0  0  0  0  0  0
    2.1592   -0.0329    4.4322 H   0  0  0  0  0  0  0  0  0  0  0  0
    0.7738   -3.8581    5.5981 N   0  0  0  0  0  0  0  0  0  0  0  0
   -0.0250   -4.8355    6.3271 C   0  0  0  0  0  0  0  0  0  0  0  0
    1.7869   -3.9165    5.6453 H   0  0  0  0  0  0  0  0  0  0  0  0
   -0.7714   -4.3329    6.9514 H   0  0  0  0  0  0  0  0  0  0  0  0
   -0.5405   -5.5044    5.6302 H   0  0  0  0  0  0  0  0  0  0  0  0
    0.6160   -5.4387    6.9770 H   0  0  0  0  0  0  0  0  0  0  0  0
  1  2  2  0  0  0  0
  1  3  1  0  0  0  0
  1  7  1  0  0  0  0
  3  4  1  0  0  0  0
  3  5  1  0  0  0  0
  3  6  1  0  0  0  0
  7  8  1  0  0  0  0
  7 12  1  0  0  0  0
  8  9  1  0  0  0  0
  8 11  1  0  0  0  0
  8 13  1  0  0  0  0
  9 10  2  0  0  0  0
  9 17  1  0  0  0  0
 11 14  1  0  0  0  0
 11 15  1  0  0  0  0
 11 16  1  0  0  0  0
 17 18  1  0  0  0  0
 17 22  1  0  0  0  0
 18 19  1  0  0  0  0
 18 21  1  0  0  0  0
 18 23  1  0  0  0  0
 19 20  2  0  0  0  0
 19 27  1  0  0  0  0
 21 24  1  0  0  0  0
 21 25  1  0  0  0  0
 21 26  1  0  0  0  0
 27 28  1  0  0  0  0
 27 32  1  0  0  0  0
 28 29  1  0  0  0  0
 28 31  1  0  0  0  0
 28 33  1  0  0  0  0
 29 30  2  0  0  0  0
 29 37  1  0  0  0  0
 31 34  1  0  0  0  0
 31 35  1  0  0  0  0
 31 36  1  0  0  0  0
 37 38  1  0  0  0  0
 37 39  1  0  0  0  0
 38 40  1  0  0  0  0
 38 41  1  0  0  0  0
 38 42  1  0  0  0  0
M  END
$$$$

  -OEChem-05262215353D

 42 41  0     1  0  0  0  0  0999 V2000
   -5.6222   -0.9132    1.8286 C   0  0  0  0  0  0  0  0  0  0  0  0
   -6.0482    0.2032    1.5763 O   0  0  0  0  0  0  0  0  0  0  0  0
   -6.5694   -2.0976    1.8749 C   0  0  0  0  0  0  0  0  0  0  0  0
   -6.5582   -2.5453    2.8718 H   0  0  0  0  0  0  0  0  0  0  0  0
   -7.5885   -1.7749    1.6445 H   0  0  0  0  0  0  0  0  0  0  0  0
   -6.2639   -2.8490    1.1425 H   0  0  0  0  0  0  0  0  0  0  0  0
   -4.2769   -1.1019    2.0633 N   0  0  0  0  0  0  0  0  0  0  0  0
   -3.2492   -0.0691    1.8766 C   0  0  2  0  0  0  0  0  0  0  0  0
   -1.9604   -0.6538    1.2634 C   0  0  0  0  0  0  0  0  0  0  0  0
   -1.7934   -1.8669    1.2124 O   0  0  0  0  0  0  0  0  0  0  0  0
   -2.9549    0.5557    3.2433 C   0  0  0  0  0  0  0  0  0  0  0  0
   -3.9496   -2.0648    2.1452 H   0  0  0  0  0  0  0  0  0  0  0  0
   -3.6138    0.7057    1.1934 H   0  0  0  0  0  0  0  0  0  0  0  0
   -2.5752   -0.2027    3.9360 H   0  0  0  0  0  0  0  0  0  0  0  0
   -2.2083    1.3502    3.1533 H   0  0  0  0  0  0  0  0  0  0  0  0
   -3.8681    0.9873    3.6654 H   0  0  0  0  0  0  0  0  0  0  0  0
   -0.9652    0.1733    0.7740 N   0  0  0  0  0  0  0  0  0  0  0  0
    0.4198   -0.2605    0.5059 C   0  0  2  0  0  0  0  0  0  0  0  0
    1.2016   -0.8046    1.7374 C   0  0  0  0  0  0  0  0  0  0  0  0
    2.3460   -0.4282    1.9630 O   0  0  0  0  0  0  0  0  0  0  0  0
    1.1298    0.9253   -0.1627 C   0  0  0  0  0  0  0  0  0  0  0  0
   -1.1235    1.1701    0.8921 H   0  0  0  0  0  0  0  0  0  0  0  0
    0.3857   -1.0812   -0.2185 H   0  0  0  0  0  0  0  0  0  0  0  0
    1.2287    1.7603    0.5386 H   0  0  0  0  0  0  0  0  0  0  0  0
    2.1316    0.6314   -0.4935 H   0  0  0  0  0  0  0  0  0  0  0  0
    0.5679    1.2655   -1.0382 H   0  0  0  0  0  0  0  0  0  0  0  0
    0.6311   -1.6936    2.6283 N   0  0  0  0  0  0  0  0  0  0  0  0
    1.2793   -2.2280    3.8329 C   0  0  2  0  0  0  0  0  0  0  0  0
    0.5878   -3.5070    4.3497 C   0  0  0  0  0  0  0  0  0  0  0  0
   -0.5928   -3.7225    4.1020 O   0  0  0  0  0  0  0  0  0  0  0  0
    1.2555   -1.1572    4.9304 C   0  0  0  0  0  0  0  0  0  0  0  0
   -0.2886   -2.0729    2.3737 H   0  0  0  0  0  0  0  0  0  0  0  0
    2.3175   -2.4831    3.5963 H   0  0  0  0  0  0  0  0  0  0  0  0
    0.2239   -0.8780    5.1680 H   0  0  0  0  0  0  0  0  0  0  0  0
    1.7340   -1.5316    5.8403 H   0  0  0  0  0  0  0  0  0  0  0  0
    1.7928   -0.2609    4.6057 H   0  0  0  0  0  0  0  0  0  0  0  0
    1.2875   -4.4046    5.1356 N   0  0  0  0  0  0  0  0  0  0  0  0
    0.7009   -5.6274    5.6702 C   0  0  0  0  0  0  0  0  0  0  0  0
    2.2679   -4.2082    5.3148 H   0  0  0  0  0  0  0  0  0  0  0  0
   -0.1746   -5.3958    6.2862 H   0  0  0  0  0  0  0  0  0  0  0  0
    0.3934   -6.2918    4.8557 H   0  0  0  0  0  0  0  0  0  0  0  0
    1.4296   -6.1559    6.2923 H   0  0  0  0  0  0  0  0  0  0  0  0
  1  2  2  0  0  0  0
  1  3  1  0  0  0  0
  1  7  1  0  0  0  0
  3  4  1  0  0  0  0
  3  5  1  0  0  0  0
  3  6  1  0  0  0  0
  7  8  1  0  0  0  0
  7 12  1  0  0  0  0
  8  9  1  0  0  0  0
  8 11  1  0  0  0  0
  8 13  1  0  0  0  0
  9 10  2  0  0  0  0
  9 17  1  0  0  0  0
 11 14  1  0  0  0  0
 11 15  1  0  0  0  0
 11 16  1  0  0  0  0
 17 18  1  0  0  0  0
 17 22  1  0  0  0  0
 18 19  1  0  0  0  0
 18 21  1  0  0  0  0
 18 23  1  0  0  0  0
 19 20  2  0  0  0  0
 19 27  1  0  0  0  0
 21 24  1  0  0  0  0
 21 25  1  0  0  0  0
 21 26  1  0  0  0  0
 27 28  1  0  0  0  0
 27 32  1  0  0  0  0
 28 29  1  0  0  0  0
 28 31  1  0  0  0  0
 28 33  1  0  0  0  0
 29 30  2  0  0  0  0
 29 37  1  0  0  0  0
 31 34  1  0  0  0  0
 31 35  1  0  0  0  0
 31 36  1  0  0  0  0
 37 38  1  0  0  0  0
 37 39  1  0  0  0  0
 38 40  1  0  0  0  0
 38 41  1  0  0  0  0
 38 42  1  0  0  0  0
M  END
$$$$

  -OEChem-05262215353D

 42 41  0     1  0  0  0  0  0999 V2000
   -5.6268   -0.8444    1.8820 C   0  0  0  0  0  0  0  0  0  0  0  0
   -6.0234    0.2945    1.6905 O   0  0  0  0  0  0  0  0  0  0  0  0
   -6.6104   -1.9993    1.9068 C   0  0  0  0  0  0  0  0  0  0  0  0
   -6.5714   -2.5027    2.8757 H   0  0  0  0  0  0  0  0  0  0  0  0
   -7.6271   -1.6319    1.7414 H   0  0  0  0  0  0  0  0  0  0  0  0
   -6.3631   -2.7172    1.1209 H   0  0  0  0  0  0  0  0  0  0  0  0
   -4.2809   -1.0829    2.0633 N   0  0  0  0  0  0  0  0  0  0  0  0
   -3.2318   -0.0693    1.8920 C   0  0  2  0  0  0  0  0  0  0  0  0
   -1.9415   -0.6803    1.3091 C   0  0  0  0  0  0  0  0  0  0  0  0
   -1.7864   -1.8961    1.2918 O   0  0  0  0  0  0  0  0  0  0  0  0
   -2.9542    0.5708    3.2558 C   0  0  0  0  0  0  0  0  0  0  0  0
   -3.9788   -2.0569    2.0916 H   0  0  0  0  0  0  0  0  0  0  0  0
   -3.5715    0.7023    1.1928 H   0  0  0  0  0  0  0  0  0  0  0  0
   -2.6060   -0.1834    3.9689 H   0  0  0  0  0  0  0  0  0  0  0  0
   -2.1888    1.3479    3.1700 H   0  0  0  0  0  0  0  0  0  0  0  0
   -3.8670    1.0286    3.6507 H   0  0  0  0  0  0  0  0  0  0  0  0
   -0.9522    0.1269    0.7775 N   0  0  0  0  0  0  0  0  0  0  0  0
    0.4223   -0.3247    0.4957 C   0  0  2  0  0  0  0  0  0  0  0  0
    1.2095   -0.8367    1.7345 C   0  0  0  0  0  0  0  0  0  0  0  0
    2.2457   -0.2864    2.0897 O   0  0  0  0  0  0  0  0  0  0  0  0
    1.1341    0.8299   -0.2213 C   0  0  0  0  0  0  0  0  0  0  0  0
   -1.1025    1.1280    0.8670 H   0  0  0  0  0  0  0  0  0  0  0  0
    0.3707   -1.1668   -0.2026 H   0  0  0  0  0  0  0  0  0  0  0  0
    1.2285    1.6964    0.4412 H   0  0  0  0  0  0  0  0  0  0  0  0
    2.1374    0.5206   -0.5318 H   0  0  0  0  0  0  0  0  0  0  0  0
    0.5757    1.1285   -1.1139 H   0  0  0  0  0  0  0  0  0  0  0  0
    0.7597   -1.9099    2.4777 N   0  0  0  0  0  0  0  0  0  0  0  0
    1.4270   -2.4580    3.6654 C   0  0  2  0  0  0  0  0  0  0  0  0
    1.1085   -3.9512    3.8871 C   0  0  0  0  0  0  0  0  0  0  0  0
    0.0886   -4.4496    3.4270 O   0  0  0  0  0  0  0  0  0  0  0  0
    0.9918   -1.6406    4.8858 C   0  0  0  0  0  0  0  0  0  0  0  0
   -0.1122   -2.3548    2.1660 H   0  0  0  0  0  0  0  0  0  0  0  0
    2.5116   -2.3722    3.5423 H   0  0  0  0  0  0  0  0  0  0  0  0
   -0.0915   -1.7124    5.0262 H   0  0  0  0  0  0  0  0  0  0  0  0
    1.4859   -2.0089    5.7900 H   0  0  0  0  0  0  0  0  0  0  0  0
    1.2576   -0.5872    4.7531 H   0  0  0  0  0  0  0  0  0  0  0  0
    1.9660   -4.7403    4.6322 N   0  0  0  0  0  0  0  0  0  0  0  0
    1.7368   -6.1586    4.8804 C   0  0  0  0  0  0  0  0  0  0  0  0
    2.8153   -4.3090    4.9848 H   0  0  0  0  0  0  0  0  0  0  0  0
    0.7838   -6.3081    5.3988 H   0  0  0  0  0  0  0  0  0  0  0  0
    1.7156   -6.7142    3.9369 H   0  0  0  0  0  0  0  0  0  0  0  0
    2.5370   -6.5671    5.5051 H   0  0  0  0  0  0  0  0  0  0  0  0
  1  2  2  0  0  0  0
  1  3  1  0  0  0  0
  1  7  1  0  0  0  0
  3  4  1  0  0  0  0
  3  5  1  0  0  0  0
  3  6  1  0  0  0  0
  7  8  1  0  0  0  0
  7 12  1  0  0  0  0
  8  9  1  0  0  0  0
  8 11  1  0  0  0  0
  8 13  1  0  0  0  0
  9 10  2  0  0  0  0
  9 17  1  0  0  0  0
 11 14  1  0  0  0  0
 11 15  1  0  0  0  0
 11 16  1  0  0  0  0
 17 18  1  0  0  0  0
 17 22  1  0  0  0  0
 18 19  1  0  0  0  0
 18 21  1  0  0  0  0
 18 23  1  0  0  0  0
 19 20  2  0  0  0  0
 19 27  1  0  0  0  0
 21 24  1  0  0  0  0
 21 25  1  0  0  0  0
 21 26  1  0  0  0  0
 27 28  1  0  0  0  0
 27 32  1  0  0  0  0
 28 29  1  0  0  0  0
 28 31  1  0  0  0  0
 28 33  1  0  0  0  0
 29 30  2  0  0  0  0
 29 37  1  0  0  0  0
 31 34  1  0  0  0  0
 31 35  1  0  0  0  0
 31 36  1  0  0  0  0
 37 38  1  0  0  0  0
 37 39  1  0  0  0  0
 38 40  1  0  0  0  0
 38 41  1  0  0  0  0
 38 42  1  0  0  0  0
M  END
$$$$

  -OEChem-05262215353D

 42 41  0     1  0  0  0  0  0999 V2000
   -5.5896   -0.8580    1.9326 C   0  0  0  0  0  0  0  0  0  0  0  0
   -5.9851    0.2851    1.7666 O   0  0  0  0  0  0  0  0  0  0  0  0
   -6.5775   -2.0089    1.9635 C   0  0  0  0  0  0  0  0  0  0  0  0
   -6.5378   -2.5081    2.9348 H   0  0  0  0  0  0  0  0  0  0  0  0
   -7.5933   -1.6384    1.7986 H   0  0  0  0  0  0  0  0  0  0  0  0
   -6.3349   -2.7309    1.1798 H   0  0  0  0  0  0  0  0  0  0  0  0
   -4.2420   -1.1059    2.0866 N   0  0  0  0  0  0  0  0  0  0  0  0
   -3.1908   -0.0925    1.9300 C   0  0  2  0  0  0  0  0  0  0  0  0
   -1.9018   -0.6972    1.3381 C   0  0  0  0  0  0  0  0  0  0  0  0
   -1.7280   -1.9115    1.3444 O   0  0  0  0  0  0  0  0  0  0  0  0
   -2.9097    0.5269    3.3021 C   0  0  0  0  0  0  0  0  0  0  0  0
   -3.9443   -2.0811    2.1001 H   0  0  0  0  0  0  0  0  0  0  0  0
   -3.5299    0.6898    1.2421 H   0  0  0  0  0  0  0  0  0  0  0  0
   -2.5672   -0.2391    4.0053 H   0  0  0  0  0  0  0  0  0  0  0  0
   -2.1394    1.3001    3.2258 H   0  0  0  0  0  0  0  0  0  0  0  0
   -3.8191    0.9856    3.7028 H   0  0  0  0  0  0  0  0  0  0  0  0
   -0.9361    0.1176    0.7754 N   0  0  0  0  0  0  0  0  0  0  0  0
    0.4286   -0.3319    0.4553 C   0  0  2  0  0  0  0  0  0  0  0  0
    1.2301   -0.8339    1.6856 C   0  0  0  0  0  0  0  0  0  0  0  0
    2.1185   -0.1494    2.1805 O   0  0  0  0  0  0  0  0  0  0  0  0
    1.1301    0.8224   -0.2725 C   0  0  0  0  0  0  0  0  0  0  0  0
   -1.0880    1.1183    0.8676 H   0  0  0  0  0  0  0  0  0  0  0  0
    0.3650   -1.1741   -0.2419 H   0  0  0  0  0  0  0  0  0  0  0  0
    1.2218    1.6950    0.3823 H   0  0  0  0  0  0  0  0  0  0  0  0
    2.1343    0.5178   -0.5844 H   0  0  0  0  0  0  0  0  0  0  0  0
    0.5648    1.1112   -1.1640 H   0  0  0  0  0  0  0  0  0  0  0  0
    0.9586   -2.0664    2.2449 N   0  0  0  0  0  0  0  0  0  0  0  0
    1.6392   -2.6320    3.4166 C   0  0  2  0  0  0  0  0  0  0  0  0
    1.6721   -4.1751    3.3996 C   0  0  0  0  0  0  0  0  0  0  0  0
    0.8714   -4.8141    2.7278 O   0  0  0  0  0  0  0  0  0  0  0  0
    0.9224   -2.1312    4.6740 C   0  0  0  0  0  0  0  0  0  0  0  0
    0.1380   -2.5628    1.8808 H   0  0  0  0  0  0  0  0  0  0  0  0
    2.6785   -2.2877    3.4327 H   0  0  0  0  0  0  0  0  0  0  0  0
   -0.1210   -2.4629    4.6754 H   0  0  0  0  0  0  0  0  0  0  0  0
    1.4123   -2.5149    5.5739 H   0  0  0  0  0  0  0  0  0  0  0  0
    0.9417   -1.0376    4.7116 H   0  0  0  0  0  0  0  0  0  0  0  0
    2.6048   -4.8562    4.1611 N   0  0  0  0  0  0  0  0  0  0  0  0
    2.7117   -6.3100    4.1833 C   0  0  0  0  0  0  0  0  0  0  0  0
    3.2708   -4.3043    4.6934 H   0  0  0  0  0  0  0  0  0  0  0  0
    1.7784   -6.7572    4.5412 H   0  0  0  0  0  0  0  0  0  0  0  0
    2.9244   -6.6940    3.1801 H   0  0  0  0  0  0  0  0  0  0  0  0
    3.5211   -6.6204    4.8509 H   0  0  0  0  0  0  0  0  0  0  0  0
  1  2  2  0  0  0  0
  1  3  1  0  0  0  0
  1  7  1  0  0  0  0
  3  4  1  0  0  0  0
  3  5  1  0  0  0  0
  3  6  1  0  0  0  0
  7  8  1  0  0  0  0
  7 12  1  0  0  0  0
  8  9  1  0  0  0  0
  8 11  1  0  0  0  0
  8 13  1  0  0  0  0
  9 10  2  0  0  0  0
  9 17  1  0  0  0  0
 11 14  1  0  0  0  0
 11 15  1  0  0  0  0
 11 16  1  0  0  0  0
 17 18  1  0  0  0  0
 17 22  1  0  0  0  0
 18 19  1  0  0  0  0
 18 21  1  0  0  0  0
 18 23  1  0  0  0  0
 19 20  2  0  0  0  0
 19 27  1  0  0  0  0
 21 24  1  0  0  0  0
 21 25  1  0  0  0  0
 21 26  1  0  0  0  0
 27 28  1  0  0  0  0
 27 32  1  0  0  0  0
 28 29  1  0  0  0  0
 28 31  1  0  0  0  0
 28 33  1  0  0  0  0
 29 30  2  0  0  0  0
 29 37  1  0  0  0  0
 31 34  1  0  0  0  0
 31 35  1  0  0  0  0
 31 36  1  0  0  0  0
 37 38  1  0  0  0  0
 37 39  1  0  0  0  0
 38 40  1  0  0  0  0
 38 41  1  0  0  0  0
 38 42  1  0  0  0  0
M  END
$$$$

  -OEChem-05262215353D

 42 41  0     1  0  0  0  0  0999 V2000
   -5.5176   -0.9406    2.0210 C   0  0  0  0  0  0  0  0  0  0  0  0
   -5.9344    0.2010    1.9043 O   0  0  0  0  0  0  0  0  0  0  0  0
   -6.4882   -2.1065    2.0438 C   0  0  0  0  0  0  0  0  0  0  0  0
   -6.4102   -2.6385    2.9950 H   0  0  0  0  0  0  0  0  0  0  0  0
   -7.5135   -1.7451    1.9247 H   0  0  0  0  0  0  0  0  0  0  0  0
   -6.2624   -2.7974    1.2279 H   0  0  0  0  0  0  0  0  0  0  0  0
   -4.1619   -1.1720    2.1200 N   0  0  0  0  0  0  0  0  0  0  0  0
   -3.1331   -0.1379    1.9503 C   0  0  2  0  0  0  0  0  0  0  0  0
   -1.8549   -0.7067    1.3024 C   0  0  0  0  0  0  0  0  0  0  0  0
   -1.6547   -1.9175    1.2818 O   0  0  0  0  0  0  0  0  0  0  0  0
   -2.8119    0.4574    3.3243 C   0  0  0  0  0  0  0  0  0  0  0  0
   -3.8487   -2.1419    2.0939 H   0  0  0  0  0  0  0  0  0  0  0  0
   -3.5086    0.6534    1.2924 H   0  0  0  0  0  0  0  0  0  0  0  0
   -2.4256   -0.3158    3.9962 H   0  0  0  0  0  0  0  0  0  0  0  0
   -2.0605    1.2480    3.2355 H   0  0  0  0  0  0  0  0  0  0  0  0
   -3.7141    0.8884    3.7701 H   0  0  0  0  0  0  0  0  0  0  0  0
   -0.9207    0.1387    0.7317 N   0  0  0  0  0  0  0  0  0  0  0  0
    0.4420   -0.2959    0.3935 C   0  0  2  0  0  0  0  0  0  0  0  0
    1.2404   -0.7905    1.6251 C   0  0  0  0  0  0  0  0  0  0  0  0
    1.9229   -0.0135    2.2835 O   0  0  0  0  0  0  0  0  0  0  0  0
    1.1381    0.8720   -0.3149 C   0  0  0  0  0  0  0  0  0  0  0  0
   -1.0705    1.1332    0.8793 H   0  0  0  0  0  0  0  0  0  0  0  0
    0.3853   -1.1311   -0.3132 H   0  0  0  0  0  0  0  0  0  0  0  0
    1.1971    1.7448    0.3435 H   0  0  0  0  0  0  0  0  0  0  0  0
    2.1550    0.5875   -0.6030 H   0  0  0  0  0  0  0  0  0  0  0  0
    0.5879    1.1522   -1.2185 H   0  0  0  0  0  0  0  0  0  0  0  0
    1.1979   -2.1205    1.9914 N   0  0  0  0  0  0  0  0  0  0  0  0
    1.8847   -2.6936    3.1553 C   0  0  2  0  0  0  0  0  0  0  0  0
    2.2280   -4.1863    2.9640 C   0  0  0  0  0  0  0  0  0  0  0  0
    1.6381   -4.8648    2.1314 O   0  0  0  0  0  0  0  0  0  0  0  0
    0.9858   -2.5063    4.3814 C   0  0  0  0  0  0  0  0  0  0  0  0
    0.4985   -2.7008    1.5216 H   0  0  0  0  0  0  0  0  0  0  0  0
    2.8289   -2.1631    3.3164 H   0  0  0  0  0  0  0  0  0  0  0  0
    0.0301   -3.0202    4.2355 H   0  0  0  0  0  0  0  0  0  0  0  0
    1.4672   -2.9113    5.2765 H   0  0  0  0  0  0  0  0  0  0  0  0
    0.7876   -1.4428    4.5481 H   0  0  0  0  0  0  0  0  0  0  0  0
    3.2099   -4.7765    3.7394 N   0  0  0  0  0  0  0  0  0  0  0  0
    3.6111   -6.1712    3.5991 C   0  0  0  0  0  0  0  0  0  0  0  0
    3.7024   -4.1865    4.4034 H   0  0  0  0  0  0  0  0  0  0  0  0
    2.7590   -6.8353    3.7781 H   0  0  0  0  0  0  0  0  0  0  0  0
    3.9991   -6.3591    2.5923 H   0  0  0  0  0  0  0  0  0  0  0  0
    4.3953   -6.4143    4.3226 H   0  0  0  0  0  0  0  0  0  0  0  0
  1  2  2  0  0  0  0
  1  3  1  0  0  0  0
  1  7  1  0  0  0  0
  3  4  1  0  0  0  0
  3  5  1  0  0  0  0
  3  6  1  0  0  0  0
  7  8  1  0  0  0  0
  7 12  1  0  0  0  0
  8  9  1  0  0  0  0
  8 11  1  0  0  0  0
  8 13  1  0  0  0  0
  9 10  2  0  0  0  0
  9 17  1  0  0  0  0
 11 14  1  0  0  0  0
 11 15  1  0  0  0  0
 11 16  1  0  0  0  0
 17 18  1  0  0  0  0
 17 22  1  0  0  0  0
 18 19  1  0  0  0  0
 18 21  1  0  0  0  0
 18 23  1  0  0  0  0
 19 20  2  0  0  0  0
 19 27  1  0  0  0  0
 21 24  1  0  0  0  0
 21 25  1  0  0  0  0
 21 26  1  0  0  0  0
 27 28  1  0  0  0  0
 27 32  1  0  0  0  0
 28 29  1  0  0  0  0
 28 31  1  0  0  0  0
 28 33  1  0  0  0  0
 29 30  2  0  0  0  0
 29 37  1  0  0  0  0
 31 34  1  0  0  0  0
 31 35  1  0  0  0  0
 31 36  1  0  0  0  0
 37 38  1  0  0  0  0
 37 39  1  0  0  0  0
 38 40  1  0  0  0  0
 38 41  1  0  0  0  0
 38 42  1  0  0  0  0
M  END
$$$$

  -OEChem-05262215353D

 42 41  0     1  0  0  0  0  0999 V2000
   -5.4305   -1.0337    2.1450 C   0  0  0  0  0  0  0  0  0  0  0  0
   -5.8700    0.1053    2.1395 O   0  0  0  0  0  0  0  0  0  0  0  0
   -6.3797   -2.2163    2.1916 C   0  0  0  0  0  0  0  0  0  0  0  0
   -6.1703   -2.8288    3.0719 H   0  0  0  0  0  0  0  0  0  0  0  0
   -7.4147   -1.8671    2.2441 H   0  0  0  0  0  0  0  0  0  0  0  0
   -6.2589   -2.8276    1.2940 H   0  0  0  0  0  0  0  0  0  0  0  0
   -4.0694   -1.2478    2.1001 N   0  0  0  0  0  0  0  0  0  0  0  0
   -3.0676   -0.1886    1.9257 C   0  0  2  0  0  0  0  0  0  0  0  0
   -1.8171   -0.7051    1.1866 C   0  0  0  0  0  0  0  0  0  0  0  0
   -1.6018   -1.9106    1.0999 O   0  0  0  0  0  0  0  0  0  0  0  0
   -2.6805    0.3450    3.3086 C   0  0  0  0  0  0  0  0  0  0  0  0
   -3.7469   -2.2091    1.9941 H   0  0  0  0  0  0  0  0  0  0  0  0
   -3.4912    0.6251    1.3270 H   0  0  0  0  0  0  0  0  0  0  0  0
   -2.2559   -0.4560    3.9225 H   0  0  0  0  0  0  0  0  0  0  0  0
   -1.9386    1.1445    3.2202 H   0  0  0  0  0  0  0  0  0  0  0  0
   -3.5610    0.7469    3.8200 H   0  0  0  0  0  0  0  0  0  0  0  0
   -0.9128    0.1807    0.6290 N   0  0  0  0  0  0  0  0  0  0  0  0
    0.4586   -0.2288    0.2994 C   0  0  2  0  0  0  0  0  0  0  0  0
    1.2350   -0.7133    1.5455 C   0  0  0  0  0  0  0  0  0  0  0  0
    1.6389    0.0948    2.3745 O   0  0  0  0  0  0  0  0  0  0  0  0
    1.1615    0.9497   -0.3807 C   0  0  0  0  0  0  0  0  0  0  0  0
   -1.0566    1.1585    0.8666 H   0  0  0  0  0  0  0  0  0  0  0  0
    0.4237   -1.0583   -0.4149 H   0  0  0  0  0  0  0  0  0  0  0  0
    1.1983    1.8173    0.2859 H   0  0  0  0  0  0  0  0  0  0  0  0
    2.1869    0.6747   -0.6470 H   0  0  0  0  0  0  0  0  0  0  0  0
    0.6300    1.2323   -1.2945 H   0  0  0  0  0  0  0  0  0  0  0  0
    1.4678   -2.0588    1.7450 N   0  0  0  0  0  0  0  0  0  0  0  0
    2.1470   -2.6293    2.9136 C   0  0  2  0  0  0  0  0  0  0  0  0
    2.8025   -3.9898    2.5961 C   0  0  0  0  0  0  0  0  0  0  0  0
    2.4714   -4.6263    1.6020 O   0  0  0  0  0  0  0  0  0  0  0  0
    1.1203   -2.7813    4.0410 C   0  0  0  0  0  0  0  0  0  0  0  0
    1.0202   -2.7106    1.0997 H   0  0  0  0  0  0  0  0  0  0  0  0
    2.9429   -1.9512    3.2389 H   0  0  0  0  0  0  0  0  0  0  0  0
    0.3108   -3.4507    3.7320 H   0  0  0  0  0  0  0  0  0  0  0  0
    1.5921   -3.1937    4.9378 H   0  0  0  0  0  0  0  0  0  0  0  0
    0.6881   -1.8086    4.2963 H   0  0  0  0  0  0  0  0  0  0  0  0
    3.7763   -4.5043    3.4325 N   0  0  0  0  0  0  0  0  0  0  0  0
    4.4520   -5.7728    3.1883 C   0  0  0  0  0  0  0  0  0  0  0  0
    4.0448   -3.9492    4.2397 H   0  0  0  0  0  0  0  0  0  0  0  0
    3.7278   -6.5938    3.1599 H   0  0  0  0  0  0  0  0  0  0  0  0
    4.9888   -5.7436    2.2342 H   0  0  0  0  0  0  0  0  0  0  0  0
    5.1737   -5.9768    3.9851 H   0  0  0  0  0  0  0  0  0  0  0  0
  1  2  2  0  0  0  0
  1  3  1  0  0  0  0
  1  7  1  0  0  0  0
  3  4  1  0  0  0  0
  3  5  1  0  0  0  0
  3  6  1  0  0  0  0
  7  8  1  0  0  0  0
  7 12  1  0  0  0  0
  8  9  1  0  0  0  0
  8 11  1  0  0  0  0
  8 13  1  0  0  0  0
  9 10  2  0  0  0  0
  9 17  1  0  0  0  0
 11 14  1  0  0  0  0
 11 15  1  0  0  0  0
 11 16  1  0  0  0  0
 17 18  1  0  0  0  0
 17 22  1  0  0  0  0
 18 19  1  0  0  0  0
 18 21  1  0  0  0  0
 18 23  1  0  0  0  0
 19 20  2  0  0  0  0
 19 27  1  0  0  0  0
 21 24  1  0  0  0  0
 21 25  1  0  0  0  0
 21 26  1  0  0  0  0
 27 28  1  0  0  0  0
 27 32  1  0  0  0  0
 28 29  1  0  0  0  0
 28 31  1  0  0  0  0
 28 33  1  0  0  0  0
 29 30  2  0  0  0  0
 29 37  1  0  0  0  0
 31 34  1  0  0  0  0
 31 35  1  0  0  0  0
 31 36  1  0  0  0  0
 37 38  1  0  0  0  0
 37 39  1  0  0  0  0
 38 40  1  0  0  0  0
 38 41  1  0  0  0  0
 38 42  1  0  0  0  0
M  END
$$$$

  -OEChem-05262215353D

 42 41  0     1  0  0  0  0  0999 V2000
   -5.4493   -1.0059    2.1392 C   0  0  0  0  0  0  0  0  0  0  0  0
   -5.8723    0.1392    2.1169 O   0  0  0  0  0  0  0  0  0  0  0  0
   -6.4168   -2.1728    2.1982 C   0  0  0  0  0  0  0  0  0  0  0  0
   -6.2491   -2.7515    3.1099 H   0  0  0  0  0  0  0  0  0  0  0  0
   -7.4478   -1.8075    2.1964 H   0  0  0  0  0  0  0  0  0  0  0  0
   -6.2715   -2.8219    1.3314 H   0  0  0  0  0  0  0  0  0  0  0  0
   -4.0911   -1.2403    2.1033 N   0  0  0  0  0  0  0  0  0  0  0  0
   -3.0737   -0.1969    1.9236 C   0  0  2  0  0  0  0  0  0  0  0  0
   -1.8377   -0.7261    1.1687 C   0  0  0  0  0  0  0  0  0  0  0  0
   -1.6271   -1.9330    1.0913 O   0  0  0  0  0  0  0  0  0  0  0  0
   -2.6652    0.3217    3.3058 C   0  0  0  0  0  0  0  0  0  0  0  0
   -3.7801   -2.2072    2.0178 H   0  0  0  0  0  0  0  0  0  0  0  0
   -3.4890    0.6278    1.3342 H   0  0  0  0  0  0  0  0  0  0  0  0
   -2.2512   -0.4910    3.9116 H   0  0  0  0  0  0  0  0  0  0  0  0
   -1.9076    1.1064    3.2153 H   0  0  0  0  0  0  0  0  0  0  0  0
   -3.5337    0.7380    3.8262 H   0  0  0  0  0  0  0  0  0  0  0  0
   -0.9418    0.1539    0.5890 N   0  0  0  0  0  0  0  0  0  0  0  0
    0.4291   -0.2583    0.2620 C   0  0  2  0  0  0  0  0  0  0  0  0
    1.2123   -0.7150    1.5136 C   0  0  0  0  0  0  0  0  0  0  0  0
    1.3878    0.0663    2.4427 O   0  0  0  0  0  0  0  0  0  0  0  0
    1.1320    0.9149   -0.4256 C   0  0  0  0  0  0  0  0  0  0  0  0
   -1.0795    1.1313    0.8307 H   0  0  0  0  0  0  0  0  0  0  0  0
    0.3916   -1.0968   -0.4413 H   0  0  0  0  0  0  0  0  0  0  0  0
    1.1889    1.7784    0.2453 H   0  0  0  0  0  0  0  0  0  0  0  0
    2.1493    0.6312   -0.7124 H   0  0  0  0  0  0  0  0  0  0  0  0
    0.5878    1.2081   -1.3284 H   0  0  0  0  0  0  0  0  0  0  0  0
    1.7217   -1.9948    1.6013 N   0  0  0  0  0  0  0  0  0  0  0  0
    2.4742   -2.5228    2.7446 C   0  0  2  0  0  0  0  0  0  0  0  0
    3.4386   -3.6514    2.3235 C   0  0  0  0  0  0  0  0  0  0  0  0
    3.2956   -4.2205    1.2468 O   0  0  0  0  0  0  0  0  0  0  0  0
    1.4725   -3.0334    3.7850 C   0  0  0  0  0  0  0  0  0  0  0  0
    1.5262   -2.6379    0.8348 H   0  0  0  0  0  0  0  0  0  0  0  0
    3.0777   -1.7226    3.1856 H   0  0  0  0  0  0  0  0  0  0  0  0
    0.8561   -3.8330    3.3613 H   0  0  0  0  0  0  0  0  0  0  0  0
    1.9955   -3.4229    4.6633 H   0  0  0  0  0  0  0  0  0  0  0  0
    0.8134   -2.2216    4.1085 H   0  0  0  0  0  0  0  0  0  0  0  0
    4.4786   -4.0285    3.1535 N   0  0  0  0  0  0  0  0  0  0  0  0
    5.4299   -5.0809    2.8167 C   0  0  0  0  0  0  0  0  0  0  0  0
    4.5863   -3.5286    4.0312 H   0  0  0  0  0  0  0  0  0  0  0  0
    4.9104   -6.0330    2.6652 H   0  0  0  0  0  0  0  0  0  0  0  0
    5.9737   -4.8271    1.9006 H   0  0  0  0  0  0  0  0  0  0  0  0
    6.1558   -5.2088    3.6258 H   0  0  0  0  0  0  0  0  0  0  0  0
  1  2  2  0  0  0  0
  1  3  1  0  0  0  0
  1  7  1  0  0  0  0
  3  4  1  0  0  0  0
  3  5  1  0  0  0  0
  3  6  1  0  0  0  0
  7  8  1  0  0  0  0
  7 12  1  0  0  0  0
  8  9  1  0  0  0  0
  8 11  1  0  0  0  0
  8 13  1  0  0  0  0
  9 10  2  0  0  0  0
  9 17  1  0  0  0  0
 11 14  1  0  0  0  0
 11 15  1  0  0  0  0
 11 16  1  0  0  0  0
 17 18  1  0  0  0  0
 17 22  1  0  0  0  0
 18 19  1  0  0  0  0
 18 21  1  0  0  0  0
 18 23  1  0  0  0  0
 19 20  2  0  0  0  0
 19 27  1  0  0  0  0
 21 24  1  0  0  0  0
 21 25  1  0  0  0  0
 21 26  1  0  0  0  0
 27 28  1  0  0  0  0
 27 32  1  0  0  0  0
 28 29  1  0  0  0  0
 28 31  1  0  0  0  0
 28 33  1  0  0  0  0
 29 30  2  0  0  0  0
 29 37  1  0  0  0  0
 31 34  1  0  0  0  0
 31 35  1  0  0  0  0
 31 36  1  0  0  0  0
 37 38  1  0  0  0  0
 37 39  1  0  0  0  0
 38 40  1  0  0  0  0
 38 41  1  0  0  0  0
 38 42  1  0  0  0  0
M  END
$$$$

  -OEChem-05262215353D

 42 41  0     1  0  0  0  0  0999 V2000
   -5.4343   -1.0053    2.1763 C   0  0  0  0  0  0  0  0  0  0  0  0
   -5.8490    0.1430    2.1769 O   0  0  0  0  0  0  0  0  0  0  0  0
   -6.4097   -2.1655    2.2403 C   0  0  0  0  0  0  0  0  0  0  0  0
   -6.2094   -2.7731    3.1259 H   0  0  0  0  0  0  0  0  0  0  0  0
   -7.4363   -1.7924    2.2942 H   0  0  0  0  0  0  0  0  0  0  0  0
   -6.3078   -2.7882    1.3483 H   0  0  0  0  0  0  0  0  0  0  0  0
   -4.0792   -1.2503    2.1065 N   0  0  0  0  0  0  0  0  0  0  0  0
   -3.0563   -0.2144    1.9129 C   0  0  2  0  0  0  0  0  0  0  0  0
   -1.8584   -0.7407    1.0966 C   0  0  0  0  0  0  0  0  0  0  0  0
   -1.6640   -1.9482    0.9891 O   0  0  0  0  0  0  0  0  0  0  0  0
   -2.5865    0.2625    3.2910 C   0  0  0  0  0  0  0  0  0  0  0  0
   -3.7797   -2.2183    1.9962 H   0  0  0  0  0  0  0  0  0  0  0  0
   -3.4831    0.6311    1.3628 H   0  0  0  0  0  0  0  0  0  0  0  0
   -2.1450   -0.5674    3.8527 H   0  0  0  0  0  0  0  0  0  0  0  0
   -1.8339    1.0509    3.1910 H   0  0  0  0  0  0  0  0  0  0  0  0
   -3.4305    0.6617    3.8628 H   0  0  0  0  0  0  0  0  0  0  0  0
   -0.9727    0.1410    0.5030 N   0  0  0  0  0  0  0  0  0  0  0  0
    0.4030   -0.2733    0.1961 C   0  0  2  0  0  0  0  0  0  0  0  0
    1.1786   -0.6972    1.4637 C   0  0  0  0  0  0  0  0  0  0  0  0
    1.1382    0.0092    2.4661 O   0  0  0  0  0  0  0  0  0  0  0  0
    1.1129    0.8881   -0.5035 C   0  0  0  0  0  0  0  0  0  0  0  0
   -1.0989    1.1116    0.7760 H   0  0  0  0  0  0  0  0  0  0  0  0
    0.3746   -1.1278   -0.4884 H   0  0  0  0  0  0  0  0  0  0  0  0
    1.1546    1.7649    0.1510 H   0  0  0  0  0  0  0  0  0  0  0  0
    2.1368    0.6044   -0.7669 H   0  0  0  0  0  0  0  0  0  0  0  0
    0.5825    1.1606   -1.4211 H   0  0  0  0  0  0  0  0  0  0  0  0
    1.9499   -1.8422    1.4741 N   0  0  0  0  0  0  0  0  0  0  0  0
    2.7640   -2.2943    2.6079 C   0  0  2  0  0  0  0  0  0  0  0  0
    3.9655   -3.1438    2.1427 C   0  0  0  0  0  0  0  0  0  0  0  0
    4.0199   -3.5608    0.9906 O   0  0  0  0  0  0  0  0  0  0  0  0
    1.8661   -3.0969    3.5557 C   0  0  0  0  0  0  0  0  0  0  0  0
    2.0010   -2.3928    0.6176 H   0  0  0  0  0  0  0  0  0  0  0  0
    3.1651   -1.4250    3.1397 H   0  0  0  0  0  0  0  0  0  0  0  0
    1.4536   -3.9722    3.0433 H   0  0  0  0  0  0  0  0  0  0  0  0
    2.4320   -3.4372    4.4279 H   0  0  0  0  0  0  0  0  0  0  0  0
    1.0351   -2.4761    3.9056 H   0  0  0  0  0  0  0  0  0  0  0  0
    5.0035   -3.4226    3.0126 N   0  0  0  0  0  0  0  0  0  0  0  0
    6.1817   -4.1928    2.6331 C   0  0  0  0  0  0  0  0  0  0  0  0
    4.9391   -3.0521    3.9562 H   0  0  0  0  0  0  0  0  0  0  0  0
    5.8967   -5.2073    2.3355 H   0  0  0  0  0  0  0  0  0  0  0  0
    6.7012   -3.7133    1.7967 H   0  0  0  0  0  0  0  0  0  0  0  0
    6.8761   -4.2617    3.4758 H   0  0  0  0  0  0  0  0  0  0  0  0
  1  2  2  0  0  0  0
  1  3  1  0  0  0  0
  1  7  1  0  0  0  0
  3  4  1  0  0  0  0
  3  5  1  0  0  0  0
  3  6  1  0  0  0  0
  7  8  1  0  0  0  0
  7 12  1  0  0  0  0
  8  9  1  0  0  0  0
  8 11  1  0  0  0  0
  8 13  1  0  0  0  0
  9 10  2  0  0  0  0
  9 17  1  0  0  0  0
 11 14  1  0  0  0  0
 11 15  1  0  0  0  0
 11 16  1  0  0  0  0
 17 18  1  0  0  0  0
 17 22  1  0  0  0  0
 18 19  1  0  0  0  0
 18 21  1  0  0  0  0
 18 23  1  0  0  0  0
 19 20  2  0  0  0  0
 19 27  1  0  0  0  0
 21 24  1  0  0  0  0
 21 25  1  0  0  0  0
 21 26  1  0  0  0  0
 27 28  1  0  0  0  0
 27 32  1  0  0  0  0
 28 29  1  0  0  0  0
 28 31  1  0  0  0  0
 28 33  1  0  0  0  0
 29 30  2  0  0  0  0
 29 37  1  0  0  0  0
 31 34  1  0  0  0  0
 31 35  1  0  0  0  0
 31 36  1  0  0  0  0
 37 38  1  0  0  0  0
 37 39  1  0  0  0  0
 38 40  1  0  0  0  0
 38 41  1  0  0  0  0
 38 42  1  0  0  0  0
M  END
$$$$

  -OEChem-05262215353D

 42 41  0     1  0  0  0  0  0999 V2000
   -5.5043   -0.8875    1.9404 C   0  0  0  0  0  0  0  0  0  0  0  0
   -5.8849    0.2332    1.6410 O   0  0  0  0  0  0  0  0  0  0  0  0
   -6.4896   -2.0413    1.9598 C   0  0  0  0  0  0  0  0  0  0  0  0
   -6.5655   -2.4516    2.9697 H   0  0  0  0  0  0  0  0  0  0  0  0
   -7.4783   -1.6971    1.6435 H   0  0  0  0  0  0  0  0  0  0  0  0
   -6.1573   -2.8282    1.2784 H   0  0  0  0  0  0  0  0  0  0  0  0
   -4.1795   -1.1151    2.2485 N   0  0  0  0  0  0  0  0  0  0  0  0
   -3.1030   -0.1364    2.0417 C   0  0  2  0  0  0  0  0  0  0  0  0
   -1.9194   -0.7537    1.2693 C   0  0  0  0  0  0  0  0  0  0  0  0
   -1.7628   -1.9713    1.2458 O   0  0  0  0  0  0  0  0  0  0  0  0
   -2.6416    0.3592    3.4145 C   0  0  0  0  0  0  0  0  0  0  0  0
   -3.8917   -2.0895    2.3258 H   0  0  0  0  0  0  0  0  0  0  0  0
   -3.4659    0.7159    1.4578 H   0  0  0  0  0  0  0  0  0  0  0  0
   -2.2638   -0.4740    4.0157 H   0  0  0  0  0  0  0  0  0  0  0  0
   -1.8413    1.0982    3.3083 H   0  0  0  0  0  0  0  0  0  0  0  0
   -3.4759    0.8256    3.9478 H   0  0  0  0  0  0  0  0  0  0  0  0
   -1.0165    0.0557    0.6029 N   0  0  0  0  0  0  0  0  0  0  0  0
    0.3372   -0.4265    0.2946 C   0  0  2  0  0  0  0  0  0  0  0  0
    1.1453   -0.8036    1.5578 C   0  0  0  0  0  0  0  0  0  0  0  0
    1.0008   -0.1647    2.5956 O   0  0  0  0  0  0  0  0  0  0  0  0
    1.0651    0.6621   -0.4964 C   0  0  0  0  0  0  0  0  0  0  0  0
   -1.1076    1.0466    0.8075 H   0  0  0  0  0  0  0  0  0  0  0  0
    0.2583   -1.3210   -0.3326 H   0  0  0  0  0  0  0  0  0  0  0  0
    1.1640    1.5722    0.1040 H   0  0  0  0  0  0  0  0  0  0  0  0
    2.0670    0.3225   -0.7782 H   0  0  0  0  0  0  0  0  0  0  0  0
    0.5123    0.9026   -1.4099 H   0  0  0  0  0  0  0  0  0  0  0  0
    2.1069   -1.7931    1.4990 N   0  0  0  0  0  0  0  0  0  0  0  0
    3.0577   -2.1024    2.5737 C   0  0  2  0  0  0  0  0  0  0  0  0
    4.4390   -2.4985    2.0098 C   0  0  0  0  0  0  0  0  0  0  0  0
    4.5759   -2.7191    0.8109 O   0  0  0  0  0  0  0  0  0  0  0  0
    2.4662   -3.2352    3.4168 C   0  0  0  0  0  0  0  0  0  0  0  0
    2.2934   -2.2120    0.5888 H   0  0  0  0  0  0  0  0  0  0  0  0
    3.2059   -1.2212    3.2069 H   0  0  0  0  0  0  0  0  0  0  0  0
    2.3268   -4.1335    2.8069 H   0  0  0  0  0  0  0  0  0  0  0  0
    3.1278   -3.4798    4.2528 H   0  0  0  0  0  0  0  0  0  0  0  0
    1.4943   -2.9361    3.8223 H   0  0  0  0  0  0  0  0  0  0  0  0
    5.5378   -2.5938    2.8442 N   0  0  0  0  0  0  0  0  0  0  0  0
    6.8737   -2.9383    2.3719 C   0  0  0  0  0  0  0  0  0  0  0  0
    5.3997   -2.3944    3.8307 H   0  0  0  0  0  0  0  0  0  0  0  0
    6.8692   -3.9237    1.8941 H   0  0  0  0  0  0  0  0  0  0  0  0
    7.2270   -2.1970    1.6473 H   0  0  0  0  0  0  0  0  0  0  0  0
    7.5770   -2.9646    3.2099 H   0  0  0  0  0  0  0  0  0  0  0  0
  1  2  2  0  0  0  0
  1  3  1  0  0  0  0
  1  7  1  0  0  0  0
  3  4  1  0  0  0  0
  3  5  1  0  0  0  0
  3  6  1  0  0  0  0
  7  8  1  0  0  0  0
  7 12  1  0  0  0  0
  8  9  1  0  0  0  0
  8 11  1  0  0  0  0
  8 13  1  0  0  0  0
  9 10  2  0  0  0  0
  9 17  1  0  0  0  0
 11 14  1  0  0  0  0
 11 15  1  0  0  0  0
 11 16  1  0  0  0  0
 17 18  1  0  0  0  0
 17 22  1  0  0  0  0
 18 19  1  0  0  0  0
 18 21  1  0  0  0  0
 18 23  1  0  0  0  0
 19 20  2  0  0  0  0
 19 27  1  0  0  0  0
 21 24  1  0  0  0  0
 21 25  1  0  0  0  0
 21 26  1  0  0  0  0
 27 28  1  0  0  0  0
 27 32  1  0  0  0  0
 28 29  1  0  0  0  0
 28 31  1  0  0  0  0
 28 33  1  0  0  0  0
 29 30  2  0  0  0  0
 29 37  1  0  0  0  0
 31 34  1  0  0  0  0
 31 35  1  0  0  0  0
 31 36  1  0  0  0  0
 37 38  1  0  0  0  0
 37 39  1  0  0  0  0
 38 40  1  0  0  0  0
 38 41  1  0  0  0  0
 38 42  1  0  0  0  0
M  END
$$$$

  -OEChem-05262215353D

 42 41  0     1  0  0  0  0  0999 V2000
   -5.5036   -0.8664    1.8863 C   0  0  0  0  0  0  0  0  0  0  0  0
   -5.8750    0.2392    1.5248 O   0  0  0  0  0  0  0  0  0  0  0  0
   -6.4820   -2.0255    1.9059 C   0  0  0  0  0  0  0  0  0  0  0  0
   -6.5954   -2.4009    2.9257 H   0  0  0  0  0  0  0  0  0  0  0  0
   -7.4593   -1.7003    1.5386 H   0  0  0  0  0  0  0  0  0  0  0  0
   -6.1159   -2.8323    1.2661 H   0  0  0  0  0  0  0  0  0  0  0  0
   -4.1937   -1.0776    2.2612 N   0  0  0  0  0  0  0  0  0  0  0  0
   -3.1074   -0.1141    2.0365 C   0  0  2  0  0  0  0  0  0  0  0  0
   -1.9388   -0.7518    1.2580 C   0  0  0  0  0  0  0  0  0  0  0  0
   -1.8189   -1.9730    1.2085 O   0  0  0  0  0  0  0  0  0  0  0  0
   -2.6281    0.3829    3.4022 C   0  0  0  0  0  0  0  0  0  0  0  0
   -3.9102   -2.0496    2.3748 H   0  0  0  0  0  0  0  0  0  0  0  0
   -3.4631    0.7400    1.4510 H   0  0  0  0  0  0  0  0  0  0  0  0
   -2.2422   -0.4500    3.9991 H   0  0  0  0  0  0  0  0  0  0  0  0
   -1.8290    1.1212    3.2841 H   0  0  0  0  0  0  0  0  0  0  0  0
   -3.4547    0.8505    3.9462 H   0  0  0  0  0  0  0  0  0  0  0  0
   -1.0122    0.0435    0.6074 N   0  0  0  0  0  0  0  0  0  0  0  0
    0.3392   -0.4636    0.3279 C   0  0  2  0  0  0  0  0  0  0  0  0
    1.1288   -0.8548    1.6011 C   0  0  0  0  0  0  0  0  0  0  0  0
    0.8442   -0.3622    2.6888 O   0  0  0  0  0  0  0  0  0  0  0  0
    1.0910    0.6156   -0.4557 C   0  0  0  0  0  0  0  0  0  0  0  0
   -1.0870    1.0329    0.8239 H   0  0  0  0  0  0  0  0  0  0  0  0
    0.2566   -1.3585   -0.2985 H   0  0  0  0  0  0  0  0  0  0  0  0
    1.2126    1.5181    0.1521 H   0  0  0  0  0  0  0  0  0  0  0  0
    2.0839    0.2571   -0.7455 H   0  0  0  0  0  0  0  0  0  0  0  0
    0.5410    0.8771   -1.3653 H   0  0  0  0  0  0  0  0  0  0  0  0
    2.2699   -1.6263    1.4932 N   0  0  0  0  0  0  0  0  0  0  0  0
    3.2548   -1.8187    2.5656 C   0  0  2  0  0  0  0  0  0  0  0  0
    4.6961   -1.8093    2.0130 C   0  0  0  0  0  0  0  0  0  0  0  0
    4.8917   -1.8623    0.8031 O   0  0  0  0  0  0  0  0  0  0  0  0
    2.9451   -3.1474    3.2610 C   0  0  0  0  0  0  0  0  0  0  0  0
    2.5722   -1.8759    0.5524 H   0  0  0  0  0  0  0  0  0  0  0  0
    3.1820   -1.0050    3.2951 H   0  0  0  0  0  0  0  0  0  0  0  0
    3.0345   -3.9794    2.5549 H   0  0  0  0  0  0  0  0  0  0  0  0
    3.6368   -3.3184    4.0911 H   0  0  0  0  0  0  0  0  0  0  0  0
    1.9250   -3.1370    3.6585 H   0  0  0  0  0  0  0  0  0  0  0  0
    5.7780   -1.7290    2.8704 N   0  0  0  0  0  0  0  0  0  0  0  0
    7.1623   -1.7051    2.4130 C   0  0  0  0  0  0  0  0  0  0  0  0
    5.5864   -1.6602    3.8657 H   0  0  0  0  0  0  0  0  0  0  0  0
    7.3877   -2.6016    1.8258 H   0  0  0  0  0  0  0  0  0  0  0  0
    7.3459   -0.8221    1.7921 H   0  0  0  0  0  0  0  0  0  0  0  0
    7.8435   -1.6735    3.2686 H   0  0  0  0  0  0  0  0  0  0  0  0
  1  2  2  0  0  0  0
  1  3  1  0  0  0  0
  1  7  1  0  0  0  0
  3  4  1  0  0  0  0
  3  5  1  0  0  0  0
  3  6  1  0  0  0  0
  7  8  1  0  0  0  0
  7 12  1  0  0  0  0
  8  9  1  0  0  0  0
  8 11  1  0  0  0  0
  8 13  1  0  0  0  0
  9 10  2  0  0  0  0
  9 17  1  0  0  0  0
 11 14  1  0  0  0  0
 11 15  1  0  0  0  0
 11 16  1  0  0  0  0
 17 18  1  0  0  0  0
 17 22  1  0  0  0  0
 18 19  1  0  0  0  0
 18 21  1  0  0  0  0
 18 23  1  0  0  0  0
 19 20  2  0  0  0  0
 19 27  1  0  0  0  0
 21 24  1  0  0  0  0
 21 25  1  0  0  0  0
 21 26  1  0  0  0  0
 27 28  1  0  0  0  0
 27 32  1  0  0  0  0
 28 29  1  0  0  0  0
 28 31  1  0  0  0  0
 28 33  1  0  0  0  0
 29 30  2  0  0  0  0
 29 37  1  0  0  0  0
 31 34  1  0  0  0  0
 31 35  1  0  0  0  0
 31 36  1  0  0  0  0
 37 38  1  0  0  0  0
 37 39  1  0  0  0  0
 38 40  1  0  0  0  0
 38 41  1  0  0  0  0
 38 42  1  0  0  0  0
M  END
$$$$

  -OEChem-05262215353D

 42 41  0     1  0  0  0  0  0999 V2000
   -5.5592   -0.8023    1.9605 C   0  0  0  0  0  0  0  0  0  0  0  0
   -5.8891    0.3703    1.8741 O   0  0  0  0  0  0  0  0  0  0  0  0
   -6.6136   -1.8926    1.9168 C   0  0  0  0  0  0  0  0  0  0  0  0
   -6.6003   -2.4612    2.8497 H   0  0  0  0  0  0  0  0  0  0  0  0
   -7.6064   -1.4528    1.7853 H   0  0  0  0  0  0  0  0  0  0  0  0
   -6.4157   -2.5703    1.0827 H   0  0  0  0  0  0  0  0  0  0  0  0
   -4.2292   -1.1429    2.0859 N   0  0  0  0  0  0  0  0  0  0  0  0
   -3.1140   -0.1984    1.9409 C   0  0  2  0  0  0  0  0  0  0  0  0
   -1.9542   -0.8100    1.1287 C   0  0  0  0  0  0  0  0  0  0  0  0
   -1.9002   -2.0212    0.9339 O   0  0  0  0  0  0  0  0  0  0  0  0
   -2.6316    0.1920    3.3397 C   0  0  0  0  0  0  0  0  0  0  0  0
   -3.9953   -2.1319    2.0072 H   0  0  0  0  0  0  0  0  0  0  0  0
   -3.4467    0.7000    1.4106 H   0  0  0  0  0  0  0  0  0  0  0  0
   -2.2754   -0.6907    3.8811 H   0  0  0  0  0  0  0  0  0  0  0  0
   -1.8099    0.9115    3.2754 H   0  0  0  0  0  0  0  0  0  0  0  0
   -3.4477    0.6473    3.9093 H   0  0  0  0  0  0  0  0  0  0  0  0
   -1.0011    0.0022    0.5379 N   0  0  0  0  0  0  0  0  0  0  0  0
    0.3773   -0.4743    0.3300 C   0  0  2  0  0  0  0  0  0  0  0  0
    1.0358   -1.2058    1.5326 C   0  0  0  0  0  0  0  0  0  0  0  0
    0.5692   -1.1161    2.6640 O   0  0  0  0  0  0  0  0  0  0  0  0
    1.2132    0.7464   -0.0706 C   0  0  0  0  0  0  0  0  0  0  0  0
   -1.0959    0.9825    0.7833 H   0  0  0  0  0  0  0  0  0  0  0  0
    0.3653   -1.1843   -0.5034 H   0  0  0  0  0  0  0  0  0  0  0  0
    1.2786    1.4551    0.7613 H   0  0  0  0  0  0  0  0  0  0  0  0
    2.2279    0.4462   -0.3503 H   0  0  0  0  0  0  0  0  0  0  0  0
    0.7601    1.2528   -0.9288 H   0  0  0  0  0  0  0  0  0  0  0  0
    2.3273   -1.6842    1.4071 N   0  0  0  0  0  0  0  0  0  0  0  0
    3.1917   -2.0843    2.5251 C   0  0  2  0  0  0  0  0  0  0  0  0
    4.6744   -1.7740    2.2273 C   0  0  0  0  0  0  0  0  0  0  0  0
    5.0121   -1.4018    1.1078 O   0  0  0  0  0  0  0  0  0  0  0  0
    2.9842   -3.5808    2.7750 C   0  0  0  0  0  0  0  0  0  0  0  0
    2.7862   -1.5548    0.5063 H   0  0  0  0  0  0  0  0  0  0  0  0
    2.9195   -1.5273    3.4278 H   0  0  0  0  0  0  0  0  0  0  0  0
    3.2725   -4.1595    1.8915 H   0  0  0  0  0  0  0  0  0  0  0  0
    3.5849   -3.9169    3.6253 H   0  0  0  0  0  0  0  0  0  0  0  0
    1.9311   -3.7838    2.9959 H   0  0  0  0  0  0  0  0  0  0  0  0
    5.6316   -1.8929    3.2183 N   0  0  0  0  0  0  0  0  0  0  0  0
    7.0434   -1.5945    3.0087 C   0  0  0  0  0  0  0  0  0  0  0  0
    5.3218   -2.1896    4.1394 H   0  0  0  0  0  0  0  0  0  0  0  0
    7.4515   -2.2147    2.2037 H   0  0  0  0  0  0  0  0  0  0  0  0
    7.1771   -0.5405    2.7434 H   0  0  0  0  0  0  0  0  0  0  0  0
    7.6127   -1.7960    3.9212 H   0  0  0  0  0  0  0  0  0  0  0  0
  1  2  2  0  0  0  0
  1  3  1  0  0  0  0
  1  7  1  0  0  0  0
  3  4  1  0  0  0  0
  3  5  1  0  0  0  0
  3  6  1  0  0  0  0
  7  8  1  0  0  0  0
  7 12  1  0  0  0  0
  8  9  1  0  0  0  0
  8 11  1  0  0  0  0
  8 13  1  0  0  0  0
  9 10  2  0  0  0  0
  9 17  1  0  0  0  0
 11 14  1  0  0  0  0
 11 15  1  0  0  0  0
 11 16  1  0  0  0  0
 17 18  1  0  0  0  0
 17 22  1  0  0  0  0
 18 19  1  0  0  0  0
 18 21  1  0  0  0  0
 18 23  1  0  0  0  0
 19 20  2  0  0  0  0
 19 27  1  0  0  0  0
 21 24  1  0  0  0  0
 21 25  1  0  0  0  0
 21 26  1  0  0  0  0
 27 28  1  0  0  0  0
 27 32  1  0  0  0  0
 28 29  1  0  0  0  0
 28 31  1  0  0  0  0
 28 33  1  0  0  0  0
 29 30  2  0  0  0  0
 29 37  1  0  0  0  0
 31 34  1  0  0  0  0
 31 35  1  0  0  0  0
 31 36  1  0  0  0  0
 37 38  1  0  0  0  0
 37 39  1  0  0  0  0
 38 40  1  0  0  0  0
 38 41  1  0  0  0  0
 38 42  1  0  0  0  0
M  END
$$$$

  -OEChem-05262215353D

 42 41  0     1  0  0  0  0  0999 V2000
   -5.5438   -0.7968    1.9946 C   0  0  0  0  0  0  0  0  0  0  0  0
   -5.8628    0.3820    1.9836 O   0  0  0  0  0  0  0  0  0  0  0  0
   -6.6114   -1.8728    1.9341 C   0  0  0  0  0  0  0  0  0  0  0  0
   -6.5808   -2.4786    2.8428 H   0  0  0  0  0  0  0  0  0  0  0  0
   -7.6017   -1.4171    1.8471 H   0  0  0  0  0  0  0  0  0  0  0  0
   -6.4435   -2.5179    1.0681 H   0  0  0  0  0  0  0  0  0  0  0  0
   -4.2142   -1.1554    2.0494 N   0  0  0  0  0  0  0  0  0  0  0  0
   -3.0955   -0.2135    1.9196 C   0  0  2  0  0  0  0  0  0  0  0  0
   -1.9428   -0.8149    1.0891 C   0  0  0  0  0  0  0  0  0  0  0  0
   -1.9196   -2.0155    0.8334 O   0  0  0  0  0  0  0  0  0  0  0  0
   -2.6082    0.1464    3.3254 C   0  0  0  0  0  0  0  0  0  0  0  0
   -3.9914   -2.1413    1.9162 H   0  0  0  0  0  0  0  0  0  0  0  0
   -3.4281    0.6961    1.4086 H   0  0  0  0  0  0  0  0  0  0  0  0
   -2.2551   -0.7492    3.8473 H   0  0  0  0  0  0  0  0  0  0  0  0
   -1.7840    0.8644    3.2758 H   0  0  0  0  0  0  0  0  0  0  0  0
   -3.4221    0.5922    3.9060 H   0  0  0  0  0  0  0  0  0  0  0  0
   -0.9786   -0.0003    0.5199 N   0  0  0  0  0  0  0  0  0  0  0  0
    0.4059   -0.4712    0.3298 C   0  0  2  0  0  0  0  0  0  0  0  0
    1.0709   -1.2131    1.5286 C   0  0  0  0  0  0  0  0  0  0  0  0
    0.4943   -1.3623    2.6005 O   0  0  0  0  0  0  0  0  0  0  0  0
    1.2249    0.7606   -0.0800 C   0  0  0  0  0  0  0  0  0  0  0  0
   -1.0752    0.9759    0.7796 H   0  0  0  0  0  0  0  0  0  0  0  0
    0.4034   -1.1801   -0.5047 H   0  0  0  0  0  0  0  0  0  0  0  0
    1.3086    1.4606    0.7577 H   0  0  0  0  0  0  0  0  0  0  0  0
    2.2328    0.4730   -0.3948 H   0  0  0  0  0  0  0  0  0  0  0  0
    0.7455    1.2742   -0.9195 H   0  0  0  0  0  0  0  0  0  0  0  0
    2.4417   -1.4019    1.5283 N   0  0  0  0  0  0  0  0  0  0  0  0
    3.2509   -1.7503    2.7034 C   0  0  2  0  0  0  0  0  0  0  0  0
    4.6600   -1.1283    2.6118 C   0  0  0  0  0  0  0  0  0  0  0  0
    5.0292   -0.5917    1.5718 O   0  0  0  0  0  0  0  0  0  0  0  0
    3.3310   -3.2772    2.7954 C   0  0  0  0  0  0  0  0  0  0  0  0
    2.9565   -1.0664    0.7151 H   0  0  0  0  0  0  0  0  0  0  0  0
    2.7824   -1.3580    3.6121 H   0  0  0  0  0  0  0  0  0  0  0  0
    3.8106   -3.6901    1.9023 H   0  0  0  0  0  0  0  0  0  0  0  0
    3.9079   -3.5817    3.6736 H   0  0  0  0  0  0  0  0  0  0  0  0
    2.3262   -3.7038    2.8795 H   0  0  0  0  0  0  0  0  0  0  0  0
    5.5096   -1.1504    3.7022 N   0  0  0  0  0  0  0  0  0  0  0  0
    6.8473   -0.5706    3.6889 C   0  0  0  0  0  0  0  0  0  0  0  0
    5.1702   -1.5861    4.5549 H   0  0  0  0  0  0  0  0  0  0  0  0
    7.4557   -1.0275    2.9012 H   0  0  0  0  0  0  0  0  0  0  0  0
    6.7964    0.5092    3.5133 H   0  0  0  0  0  0  0  0  0  0  0  0
    7.3426   -0.7417    4.6497 H   0  0  0  0  0  0  0  0  0  0  0  0
  1  2  2  0  0  0  0
  1  3  1  0  0  0  0
  1  7  1  0  0  0  0
  3  4  1  0  0  0  0
  3  5  1  0  0  0  0
  3  6  1  0  0  0  0
  7  8  1  0  0  0  0
  7 12  1  0  0  0  0
  8  9  1  0  0  0  0
  8 11  1  0  0  0  0
  8 13  1  0  0  0  0
  9 10  2  0  0  0  0
  9 17  1  0  0  0  0
 11 14  1  0  0  0  0
 11 15  1  0  0  0  0
 11 16  1  0  0  0  0
 17 18  1  0  0  0  0
 17 22  1  0  0  0  0
 18 19  1  0  0  0  0
 18 21  1  0  0  0  0
 18 23  1  0  0  0  0
 19 20  2  0  0  0  0
 19 27  1  0  0  0  0
 21 24  1  0  0  0  0
 21 25  1  0  0  0  0
 21 26  1  0  0  0  0
 27 28  1  0  0  0  0
 27 32  1  0  0  0  0
 28 29  1  0  0  0  0
 28 31  1  0  0  0  0
 28 33  1  0  0  0  0
 29 30  2  0  0  0  0
 29 37  1  0  0  0  0
 31 34  1  0  0  0  0
 31 35  1  0  0  0  0
 31 36  1  0  0  0  0
 37 38  1  0  0  0  0
 37 39  1  0  0  0  0
 38 40  1  0  0  0  0
 38 41  1  0  0  0  0
 38 42  1  0  0  0  0
M  END
$$$$

  -OEChem-05262215353D

 42 41  0     1  0  0  0  0  0999 V2000
   -5.5061   -0.7996    2.0545 C   0  0  0  0  0  0  0  0  0  0  0  0
   -5.8116    0.3811    2.1211 O   0  0  0  0  0  0  0  0  0  0  0  0
   -6.5876   -1.8615    1.9851 C   0  0  0  0  0  0  0  0  0  0  0  0
   -6.5300   -2.5100    2.8627 H   0  0  0  0  0  0  0  0  0  0  0  0
   -7.5751   -1.3924    1.9567 H   0  0  0  0  0  0  0  0  0  0  0  0
   -6.4601   -2.4669    1.0843 H   0  0  0  0  0  0  0  0  0  0  0  0
   -4.1793   -1.1712    2.0279 N   0  0  0  0  0  0  0  0  0  0  0  0
   -3.0578   -0.2328    1.9000 C   0  0  2  0  0  0  0  0  0  0  0  0
   -1.9278   -0.8174    1.0277 C   0  0  0  0  0  0  0  0  0  0  0  0
   -1.9380   -2.0019    0.7067 O   0  0  0  0  0  0  0  0  0  0  0  0
   -2.5357    0.0831    3.3041 C   0  0  0  0  0  0  0  0  0  0  0  0
   -3.9718   -2.1510    1.8360 H   0  0  0  0  0  0  0  0  0  0  0  0
   -3.3965    0.6925    1.4224 H   0  0  0  0  0  0  0  0  0  0  0  0
   -2.1752   -0.8296    3.7905 H   0  0  0  0  0  0  0  0  0  0  0  0
   -1.7096    0.7988    3.2563 H   0  0  0  0  0  0  0  0  0  0  0  0
   -3.3330    0.5147    3.9176 H   0  0  0  0  0  0  0  0  0  0  0  0
   -0.9595    0.0033    0.4754 N   0  0  0  0  0  0  0  0  0  0  0  0
    0.4336   -0.4522    0.3057 C   0  0  2  0  0  0  0  0  0  0  0  0
    1.1040   -1.1906    1.5082 C   0  0  0  0  0  0  0  0  0  0  0  0
    0.4653   -1.6107    2.4652 O   0  0  0  0  0  0  0  0  0  0  0  0
    1.2329    0.7874   -0.1237 C   0  0  0  0  0  0  0  0  0  0  0  0
   -1.0635    0.9754    0.7474 H   0  0  0  0  0  0  0  0  0  0  0  0
    0.4437   -1.1675   -0.5236 H   0  0  0  0  0  0  0  0  0  0  0  0
    1.3222    1.4948    0.7072 H   0  0  0  0  0  0  0  0  0  0  0  0
    2.2377    0.5081   -0.4553 H   0  0  0  0  0  0  0  0  0  0  0  0
    0.7351    1.2907   -0.9588 H   0  0  0  0  0  0  0  0  0  0  0  0
    2.4734   -1.0938    1.6862 N   0  0  0  0  0  0  0  0  0  0  0  0
    3.1967   -1.4161    2.9234 C   0  0  2  0  0  0  0  0  0  0  0  0
    4.4614   -0.5429    3.0667 C   0  0  0  0  0  0  0  0  0  0  0  0
    4.8272    0.1657    2.1338 O   0  0  0  0  0  0  0  0  0  0  0  0
    3.5578   -2.9046    2.9012 C   0  0  0  0  0  0  0  0  0  0  0  0
    2.9949   -0.5592    0.9926 H   0  0  0  0  0  0  0  0  0  0  0  0
    2.5612   -1.2122    3.7916 H   0  0  0  0  0  0  0  0  0  0  0  0
    4.2048   -3.1292    2.0473 H   0  0  0  0  0  0  0  0  0  0  0  0
    4.0802   -3.1884    3.8195 H   0  0  0  0  0  0  0  0  0  0  0  0
    2.6508   -3.5124    2.8202 H   0  0  0  0  0  0  0  0  0  0  0  0
    5.1765   -0.5285    4.2499 N   0  0  0  0  0  0  0  0  0  0  0  0
    6.3609    0.2956    4.4616 C   0  0  0  0  0  0  0  0  0  0  0  0
    4.8375   -1.1087    5.0121 H   0  0  0  0  0  0  0  0  0  0  0  0
    7.1366    0.0495    3.7286 H   0  0  0  0  0  0  0  0  0  0  0  0
    6.1116    1.3579    4.3673 H   0  0  0  0  0  0  0  0  0  0  0  0
    6.7668    0.1240    5.4633 H   0  0  0  0  0  0  0  0  0  0  0  0
  1  2  2  0  0  0  0
  1  3  1  0  0  0  0
  1  7  1  0  0  0  0
  3  4  1  0  0  0  0
  3  5  1  0  0  0  0
  3  6  1  0  0  0  0
  7  8  1  0  0  0  0
  7 12  1  0  0  0  0
  8  9  1  0  0  0  0
  8 11  1  0  0  0  0
  8 13  1  0  0  0  0
  9 10  2  0  0  0  0
  9 17  1  0  0  0  0
 11 14  1  0  0  0  0
 11 15  1  0  0  0  0
 11 16  1  0  0  0  0
 17 18  1  0  0  0  0
 17 22  1  0  0  0  0
 18 19  1  0  0  0  0
 18 21  1  0  0  0  0
 18 23  1  0  0  0  0
 19 20  2  0  0  0  0
 19 27  1  0  0  0  0
 21 24  1  0  0  0  0
 21 25  1  0  0  0  0
 21 26  1  0  0  0  0
 27 28  1  0  0  0  0
 27 32  1  0  0  0  0
 28 29  1  0  0  0  0
 28 31  1  0  0  0  0
 28 33  1  0  0  0  0
 29 30  2  0  0  0  0
 29 37  1  0  0  0  0
 31 34  1  0  0  0  0
 31 35  1  0  0  0  0
 31 36  1  0  0  0  0
 37 38  1  0  0  0  0
 37 39  1  0  0  0  0
 38 40  1  0  0  0  0
 38 41  1  0  0  0  0
 38 42  1  0  0  0  0
M  END
$$$$

  -OEChem-05262215353D

 42 41  0     1  0  0  0  0  0999 V2000
   -5.4673   -0.7927    2.0990 C   0  0  0  0  0  0  0  0  0  0  0  0
   -5.7689    0.3879    2.1838 O   0  0  0  0  0  0  0  0  0  0  0  0
   -6.5506   -1.8529    2.0386 C   0  0  0  0  0  0  0  0  0  0  0  0
   -6.4882   -2.4986    2.9178 H   0  0  0  0  0  0  0  0  0  0  0  0
   -7.5377   -1.3831    2.0136 H   0  0  0  0  0  0  0  0  0  0  0  0
   -6.4274   -2.4612    1.1392 H   0  0  0  0  0  0  0  0  0  0  0  0
   -4.1422   -1.1673    2.0460 N   0  0  0  0  0  0  0  0  0  0  0  0
   -3.0221   -0.2309    1.8968 C   0  0  2  0  0  0  0  0  0  0  0  0
   -1.9102   -0.8211    1.0052 C   0  0  0  0  0  0  0  0  0  0  0  0
   -1.9508   -1.9973    0.6604 O   0  0  0  0  0  0  0  0  0  0  0  0
   -2.4714    0.0865    3.2893 C   0  0  0  0  0  0  0  0  0  0  0  0
   -3.9426   -2.1440    1.8298 H   0  0  0  0  0  0  0  0  0  0  0  0
   -3.3691    0.6936    1.4234 H   0  0  0  0  0  0  0  0  0  0  0  0
   -2.1023   -0.8262    3.7690 H   0  0  0  0  0  0  0  0  0  0  0  0
   -1.6462    0.8015    3.2234 H   0  0  0  0  0  0  0  0  0  0  0  0
   -3.2560    0.5198    3.9177 H   0  0  0  0  0  0  0  0  0  0  0  0
   -0.9423   -0.0060    0.4446 N   0  0  0  0  0  0  0  0  0  0  0  0
    0.4573   -0.4472    0.2884 C   0  0  2  0  0  0  0  0  0  0  0  0
    1.1321   -1.1572    1.5057 C   0  0  0  0  0  0  0  0  0  0  0  0
    0.5182   -1.8665    2.2903 O   0  0  0  0  0  0  0  0  0  0  0  0
    1.2423    0.7878   -0.1797 C   0  0  0  0  0  0  0  0  0  0  0  0
   -1.0565    0.9705    0.6962 H   0  0  0  0  0  0  0  0  0  0  0  0
    0.4759   -1.1830   -0.5226 H   0  0  0  0  0  0  0  0  0  0  0  0
    1.3020    1.5349    0.6187 H   0  0  0  0  0  0  0  0  0  0  0  0
    2.2582    0.5108   -0.4790 H   0  0  0  0  0  0  0  0  0  0  0  0
    0.7516    1.2429   -1.0462 H   0  0  0  0  0  0  0  0  0  0  0  0
    2.4171   -0.8034    1.8793 N   0  0  0  0  0  0  0  0  0  0  0  0
    3.0543   -1.1398    3.1590 C   0  0  2  0  0  0  0  0  0  0  0  0
    4.0692   -0.0513    3.5679 C   0  0  0  0  0  0  0  0  0  0  0  0
    4.3519    0.8496    2.7836 O   0  0  0  0  0  0  0  0  0  0  0  0
    3.7410   -2.5022    3.0197 C   0  0  0  0  0  0  0  0  0  0  0  0
    2.8706   -0.0682    1.3383 H   0  0  0  0  0  0  0  0  0  0  0  0
    2.2977   -1.1947    3.9492 H   0  0  0  0  0  0  0  0  0  0  0  0
    4.5188   -2.4618    2.2506 H   0  0  0  0  0  0  0  0  0  0  0  0
    4.2007   -2.8014    3.9663 H   0  0  0  0  0  0  0  0  0  0  0  0
    3.0108   -3.2672    2.7367 H   0  0  0  0  0  0  0  0  0  0  0  0
    4.6488   -0.0632    4.8229 N   0  0  0  0  0  0  0  0  0  0  0  0
    5.5984    0.9460    5.2763 C   0  0  0  0  0  0  0  0  0  0  0  0
    4.3862   -0.8129    5.4562 H   0  0  0  0  0  0  0  0  0  0  0  0
    6.4763    0.9688    4.6220 H   0  0  0  0  0  0  0  0  0  0  0  0
    5.1332    1.9373    5.2760 H   0  0  0  0  0  0  0  0  0  0  0  0
    5.9324    0.7213    6.2938 H   0  0  0  0  0  0  0  0  0  0  0  0
  1  2  2  0  0  0  0
  1  3  1  0  0  0  0
  1  7  1  0  0  0  0
  3  4  1  0  0  0  0
  3  5  1  0  0  0  0
  3  6  1  0  0  0  0
  7  8  1  0  0  0  0
  7 12  1  0  0  0  0
  8  9  1  0  0  0  0
  8 11  1  0  0  0  0
  8 13  1  0  0  0  0
  9 10  2  0  0  0  0
  9 17  1  0  0  0  0
 11 14  1  0  0  0  0
 11 15  1  0  0  0  0
 11 16  1  0  0  0  0
 17 18  1  0  0  0  0
 17 22  1  0  0  0  0
 18 19  1  0  0  0  0
 18 21  1  0  0  0  0
 18 23  1  0  0  0  0
 19 20  2  0  0  0  0
 19 27  1  0  0  0  0
 21 24  1  0  0  0  0
 21 25  1  0  0  0  0
 21 26  1  0  0  0  0
 27 28  1  0  0  0  0
 27 32  1  0  0  0  0
 28 29  1  0  0  0  0
 28 31  1  0  0  0  0
 28 33  1  0  0  0  0
 29 30  2  0  0  0  0
 29 37  1  0  0  0  0
 31 34  1  0  0  0  0
 31 35  1  0  0  0  0
 31 36  1  0  0  0  0
 37 38  1  0  0  0  0
 37 39  1  0  0  0  0
 38 40  1  0  0  0  0
 38 41  1  0  0  0  0
 38 42  1  0  0  0  0
M  END
$$$$

  -OEChem-05262215353D

 42 41  0     1  0  0  0  0  0999 V2000
   -5.4370   -0.8095    2.1519 C   0  0  0  0  0  0  0  0  0  0  0  0
   -5.7584    0.3675    2.2088 O   0  0  0  0  0  0  0  0  0  0  0  0
   -6.4988   -1.8923    2.1967 C   0  0  0  0  0  0  0  0  0  0  0  0
   -6.3086   -2.5664    3.0355 H   0  0  0  0  0  0  0  0  0  0  0  0
   -7.4890   -1.4453    2.3217 H   0  0  0  0  0  0  0  0  0  0  0  0
   -6.4857   -2.4660    1.2668 H   0  0  0  0  0  0  0  0  0  0  0  0
   -4.1081   -1.1576    2.0413 N   0  0  0  0  0  0  0  0  0  0  0  0
   -3.0155   -0.2018    1.8233 C   0  0  2  0  0  0  0  0  0  0  0  0
   -1.8803   -0.8228    0.9829 C   0  0  0  0  0  0  0  0  0  0  0  0
   -1.9076   -2.0132    0.6963 O   0  0  0  0  0  0  0  0  0  0  0  0
   -2.4832    0.2447    3.1886 C   0  0  0  0  0  0  0  0  0  0  0  0
   -3.8932   -2.1389    1.8618 H   0  0  0  0  0  0  0  0  0  0  0  0
   -3.3906    0.6697    1.2762 H   0  0  0  0  0  0  0  0  0  0  0  0
   -2.0899   -0.6134    3.7439 H   0  0  0  0  0  0  0  0  0  0  0  0
   -1.6809    0.9786    3.0684 H   0  0  0  0  0  0  0  0  0  0  0  0
   -3.2848    0.7030    3.7768 H   0  0  0  0  0  0  0  0  0  0  0  0
   -0.9115   -0.0212    0.4048 N   0  0  0  0  0  0  0  0  0  0  0  0
    0.4957   -0.4445    0.2755 C   0  0  2  0  0  0  0  0  0  0  0  0
    1.1533   -1.0996    1.5288 C   0  0  0  0  0  0  0  0  0  0  0  0
    0.6842   -2.0768    2.0918 O   0  0  0  0  0  0  0  0  0  0  0  0
    1.2743    0.7789   -0.2299 C   0  0  0  0  0  0  0  0  0  0  0  0
   -1.0472    0.9661    0.5965 H   0  0  0  0  0  0  0  0  0  0  0  0
    0.5366   -1.2119   -0.5051 H   0  0  0  0  0  0  0  0  0  0  0  0
    1.2708    1.5801    0.5166 H   0  0  0  0  0  0  0  0  0  0  0  0
    2.3116    0.5078   -0.4519 H   0  0  0  0  0  0  0  0  0  0  0  0
    0.8212    1.1611   -1.1506 H   0  0  0  0  0  0  0  0  0  0  0  0
    2.2700   -0.5233    2.1094 N   0  0  0  0  0  0  0  0  0  0  0  0
    2.8667   -0.9316    3.3877 C   0  0  2  0  0  0  0  0  0  0  0  0
    3.5500    0.2626    4.0865 C   0  0  0  0  0  0  0  0  0  0  0  0
    3.7214    1.3137    3.4766 O   0  0  0  0  0  0  0  0  0  0  0  0
    3.8750   -2.0534    3.1182 C   0  0  0  0  0  0  0  0  0  0  0  0
    2.5893    0.3665    1.7288 H   0  0  0  0  0  0  0  0  0  0  0  0
    2.0857   -1.3010    4.0609 H   0  0  0  0  0  0  0  0  0  0  0  0
    4.6655   -1.7048    2.4459 H   0  0  0  0  0  0  0  0  0  0  0  0
    4.3346   -2.3916    4.0518 H   0  0  0  0  0  0  0  0  0  0  0  0
    3.3740   -2.9085    2.6529 H   0  0  0  0  0  0  0  0  0  0  0  0
    3.9529    0.1694    5.4059 N   0  0  0  0  0  0  0  0  0  0  0  0
    4.5945    1.2624    6.1271 C   0  0  0  0  0  0  0  0  0  0  0  0
    3.7771   -0.7057    5.8917 H   0  0  0  0  0  0  0  0  0  0  0  0
    5.5380    1.5384    5.6443 H   0  0  0  0  0  0  0  0  0  0  0  0
    3.9417    2.1414    6.1529 H   0  0  0  0  0  0  0  0  0  0  0  0
    4.8089    0.9617    7.1572 H   0  0  0  0  0  0  0  0  0  0  0  0
  1  2  2  0  0  0  0
  1  3  1  0  0  0  0
  1  7  1  0  0  0  0
  3  4  1  0  0  0  0
  3  5  1  0  0  0  0
  3  6  1  0  0  0  0
  7  8  1  0  0  0  0
  7 12  1  0  0  0  0
  8  9  1  0  0  0  0
  8 11  1  0  0  0  0
  8 13  1  0  0  0  0
  9 10  2  0  0  0  0
  9 17  1  0  0  0  0
 11 14  1  0  0  0  0
 11 15  1  0  0  0  0
 11 16  1  0  0  0  0
 17 18  1  0  0  0  0
 17 22  1  0  0  0  0
 18 19  1  0  0  0  0
 18 21  1  0  0  0  0
 18 23  1  0  0  0  0
 19 20  2  0  0  0  0
 19 27  1  0  0  0  0
 21 24  1  0  0  0  0
 21 25  1  0  0  0  0
 21 26  1  0  0  0  0
 27 28  1  0  0  0  0
 27 32  1  0  0  0  0
 28 29  1  0  0  0  0
 28 31  1  0  0  0  0
 28 33  1  0  0  0  0
 29 30  2  0  0  0  0
 29 37  1  0  0  0  0
 31 34  1  0  0  0  0
 31 35  1  0  0  0  0
 31 36  1  0  0  0  0
 37 38  1  0  0  0  0
 37 39  1  0  0  0  0
 38 40  1  0  0  0  0
 38 41  1  0  0  0  0
 38 42  1  0  0  0  0
M  END
$$$$

  -OEChem-05262215353D

 42 41  0     1  0  0  0  0  0999 V2000
   -5.6067   -0.8504    1.8779 C   0  0  0  0  0  0  0  0  0  0  0  0
   -5.9909    0.2592    1.5419 O   0  0  0  0  0  0  0  0  0  0  0  0
   -6.6045   -1.9783    2.0634 C   0  0  0  0  0  0  0  0  0  0  0  0
   -6.5475   -2.3634    3.0844 H   0  0  0  0  0  0  0  0  0  0  0  0
   -7.6200   -1.6170    1.8793 H   0  0  0  0  0  0  0  0  0  0  0  0
   -6.3866   -2.7885    1.3635 H   0  0  0  0  0  0  0  0  0  0  0  0
   -4.2631   -1.0815    2.0816 N   0  0  0  0  0  0  0  0  0  0  0  0
   -3.2008   -0.1124    1.7852 C   0  0  2  0  0  0  0  0  0  0  0  0
   -1.8928   -0.8131    1.3602 C   0  0  0  0  0  0  0  0  0  0  0  0
   -1.7608   -2.0117    1.5551 O   0  0  0  0  0  0  0  0  0  0  0  0
   -2.9665    0.7467    3.0319 C   0  0  0  0  0  0  0  0  0  0  0  0
   -3.9690   -2.0462    2.2361 H   0  0  0  0  0  0  0  0  0  0  0  0
   -3.5119    0.5311    0.9555 H   0  0  0  0  0  0  0  0  0  0  0  0
   -2.6492    0.1206    3.8722 H   0  0  0  0  0  0  0  0  0  0  0  0
   -2.1927    1.4973    2.8446 H   0  0  0  0  0  0  0  0  0  0  0  0
   -3.8885    1.2658    3.3131 H   0  0  0  0  0  0  0  0  0  0  0  0
   -0.9140   -0.0940    0.6956 N   0  0  0  0  0  0  0  0  0  0  0  0
    0.4827   -0.5171    0.4758 C   0  0  2  0  0  0  0  0  0  0  0  0
    1.2287   -1.1271    1.6964 C   0  0  0  0  0  0  0  0  0  0  0  0
    1.1816   -2.3237    1.9407 O   0  0  0  0  0  0  0  0  0  0  0  0
    1.2225    0.6930   -0.1104 C   0  0  0  0  0  0  0  0  0  0  0  0
   -1.1233    0.8901    0.5594 H   0  0  0  0  0  0  0  0  0  0  0  0
    0.4741   -1.3067   -0.2837 H   0  0  0  0  0  0  0  0  0  0  0  0
    1.2189    1.5318    0.5929 H   0  0  0  0  0  0  0  0  0  0  0  0
    2.2606    0.4300   -0.3391 H   0  0  0  0  0  0  0  0  0  0  0  0
    0.7417    1.0168   -1.0390 H   0  0  0  0  0  0  0  0  0  0  0  0
    2.1795   -0.3836    2.3738 N   0  0  0  0  0  0  0  0  0  0  0  0
    2.8912   -0.8398    3.5741 C   0  0  2  0  0  0  0  0  0  0  0  0
    3.0741    0.3147    4.5810 C   0  0  0  0  0  0  0  0  0  0  0  0
    2.8237    1.4682    4.2441 O   0  0  0  0  0  0  0  0  0  0  0  0
    4.2457   -1.4080    3.1411 C   0  0  0  0  0  0  0  0  0  0  0  0
    2.1576    0.6244    2.2283 H   0  0  0  0  0  0  0  0  0  0  0  0
    2.3140   -1.6230    4.0775 H   0  0  0  0  0  0  0  0  0  0  0  0
    4.8492   -0.6341    2.6561 H   0  0  0  0  0  0  0  0  0  0  0  0
    4.7969   -1.7909    4.0049 H   0  0  0  0  0  0  0  0  0  0  0  0
    4.1002   -2.2307    2.4336 H   0  0  0  0  0  0  0  0  0  0  0  0
    3.5056    0.0629    5.8701 N   0  0  0  0  0  0  0  0  0  0  0  0
    3.6719    1.1050    6.8762 C   0  0  0  0  0  0  0  0  0  0  0  0
    3.6707   -0.9053    6.1309 H   0  0  0  0  0  0  0  0  0  0  0  0
    4.3878    1.8596    6.5327 H   0  0  0  0  0  0  0  0  0  0  0  0
    2.7141    1.5951    7.0810 H   0  0  0  0  0  0  0  0  0  0  0  0
    4.0473    0.6745    7.8098 H   0  0  0  0  0  0  0  0  0  0  0  0
  1  2  2  0  0  0  0
  1  3  1  0  0  0  0
  1  7  1  0  0  0  0
  3  4  1  0  0  0  0
  3  5  1  0  0  0  0
  3  6  1  0  0  0  0
  7  8  1  0  0  0  0
  7 12  1  0  0  0  0
  8  9  1  0  0  0  0
  8 11  1  0  0  0  0
  8 13  1  0  0  0  0
  9 10  2  0  0  0  0
  9 17  1  0  0  0  0
 11 14  1  0  0  0  0
 11 15  1  0  0  0  0
 11 16  1  0  0  0  0
 17 18  1  0  0  0  0
 17 22  1  0  0  0  0
 18 19  1  0  0  0  0
 18 21  1  0  0  0  0
 18 23  1  0  0  0  0
 19 20  2  0  0  0  0
 19 27  1  0  0  0  0
 21 24  1  0  0  0  0
 21 25  1  0  0  0  0
 21 26  1  0  0  0  0
 27 28  1  0  0  0  0
 27 32  1  0  0  0  0
 28 29  1  0  0  0  0
 28 31  1  0  0  0  0
 28 33  1  0  0  0  0
 29 30  2  0  0  0  0
 29 37  1  0  0  0  0
 31 34  1  0  0  0  0
 31 35  1  0  0  0  0
 31 36  1  0  0  0  0
 37 38  1  0  0  0  0
 37 39  1  0  0  0  0
 38 40  1  0  0  0  0
 38 41  1  0  0  0  0
 38 42  1  0  0  0  0
M  END
$$$$

  -OEChem-05262215353D

 42 41  0     1  0  0  0  0  0999 V2000
   -5.5830   -0.8939    1.8055 C   0  0  0  0  0  0  0  0  0  0  0  0
   -5.9887    0.1331    1.2839 O   0  0  0  0  0  0  0  0  0  0  0  0
   -6.5345   -2.0497    2.0517 C   0  0  0  0  0  0  0  0  0  0  0  0
   -6.5690   -2.2830    3.1187 H   0  0  0  0  0  0  0  0  0  0  0  0
   -7.5416   -1.7879    1.7150 H   0  0  0  0  0  0  0  0  0  0  0  0
   -6.1982   -2.9327    1.5029 H   0  0  0  0  0  0  0  0  0  0  0  0
   -4.2568   -1.0094    2.1643 N   0  0  0  0  0  0  0  0  0  0  0  0
   -3.2172   -0.0314    1.8190 C   0  0  2  0  0  0  0  0  0  0  0  0
   -1.8760   -0.7195    1.4891 C   0  0  0  0  0  0  0  0  0  0  0  0
   -1.6857   -1.8730    1.8454 O   0  0  0  0  0  0  0  0  0  0  0  0
   -3.0509    0.9276    3.0013 C   0  0  0  0  0  0  0  0  0  0  0  0
   -3.9341   -1.9284    2.4670 H   0  0  0  0  0  0  0  0  0  0  0  0
   -3.5202    0.5366    0.9329 H   0  0  0  0  0  0  0  0  0  0  0  0
   -2.7449    0.3786    3.8979 H   0  0  0  0  0  0  0  0  0  0  0  0
   -2.2927    1.6852    2.7814 H   0  0  0  0  0  0  0  0  0  0  0  0
   -3.9969    1.4374    3.2102 H   0  0  0  0  0  0  0  0  0  0  0  0
   -0.9069   -0.0335    0.7771 N   0  0  0  0  0  0  0  0  0  0  0  0
    0.4670   -0.4957    0.5046 C   0  0  2  0  0  0  0  0  0  0  0  0
    1.2242   -1.1105    1.7107 C   0  0  0  0  0  0  0  0  0  0  0  0
    1.3958   -2.3195    1.7861 O   0  0  0  0  0  0  0  0  0  0  0  0
    1.2370    0.6828   -0.1046 C   0  0  0  0  0  0  0  0  0  0  0  0
   -1.1471    0.9150    0.5056 H   0  0  0  0  0  0  0  0  0  0  0  0
    0.4099   -1.2893   -0.2489 H   0  0  0  0  0  0  0  0  0  0  0  0
    1.2743    1.5292    0.5886 H   0  0  0  0  0  0  0  0  0  0  0  0
    2.2624    0.3814   -0.3428 H   0  0  0  0  0  0  0  0  0  0  0  0
    0.7538    1.0126   -1.0295 H   0  0  0  0  0  0  0  0  0  0  0  0
    1.9793   -0.3006    2.5398 N   0  0  0  0  0  0  0  0  0  0  0  0
    2.6405   -0.7717    3.7627 C   0  0  2  0  0  0  0  0  0  0  0  0
    2.4297    0.2245    4.9218 C   0  0  0  0  0  0  0  0  0  0  0  0
    1.9965    1.3500    4.6926 O   0  0  0  0  0  0  0  0  0  0  0  0
    4.1305   -0.9498    3.4612 C   0  0  0  0  0  0  0  0  0  0  0  0
    1.7508    0.6919    2.5199 H   0  0  0  0  0  0  0  0  0  0  0  0
    2.2176   -1.7327    4.0757 H   0  0  0  0  0  0  0  0  0  0  0  0
    4.5785    0.0044    3.1653 H   0  0  0  0  0  0  0  0  0  0  0  0
    4.6589   -1.3257    4.3423 H   0  0  0  0  0  0  0  0  0  0  0  0
    4.2661   -1.6672    2.6454 H   0  0  0  0  0  0  0  0  0  0  0  0
    2.7164   -0.1398    6.2242 N   0  0  0  0  0  0  0  0  0  0  0  0
    2.5179    0.7459    7.3649 C   0  0  0  0  0  0  0  0  0  0  0  0
    3.0383   -1.0898    6.3870 H   0  0  0  0  0  0  0  0  0  0  0  0
    3.1190    1.6545    7.2534 H   0  0  0  0  0  0  0  0  0  0  0  0
    1.4638    1.0293    7.4514 H   0  0  0  0  0  0  0  0  0  0  0  0
    2.8180    0.2451    8.2904 H   0  0  0  0  0  0  0  0  0  0  0  0
  1  2  2  0  0  0  0
  1  3  1  0  0  0  0
  1  7  1  0  0  0  0
  3  4  1  0  0  0  0
  3  5  1  0  0  0  0
  3  6  1  0  0  0  0
  7  8  1  0  0  0  0
  7 12  1  0  0  0  0
  8  9  1  0  0  0  0
  8 11  1  0  0  0  0
  8 13  1  0  0  0  0
  9 10  2  0  0  0  0
  9 17  1  0  0  0  0
 11 14  1  0  0  0  0
 11 15  1  0  0  0  0
 11 16  1  0  0  0  0
 17 18  1  0  0  0  0
 17 22  1  0  0  0  0
 18 19  1  0  0  0  0
 18 21  1  0  0  0  0
 18 23  1  0  0  0  0
 19 20  2  0  0  0  0
 19 27  1  0  0  0  0
 21 24  1  0  0  0  0
 21 25  1  0  0  0  0
 21 26  1  0  0  0  0
 27 28  1  0  0  0  0
 27 32  1  0  0  0  0
 28 29  1  0  0  0  0
 28 31  1  0  0  0  0
 28 33  1  0  0  0  0
 29 30  2  0  0  0  0
 29 37  1  0  0  0  0
 31 34  1  0  0  0  0
 31 35  1  0  0  0  0
 31 36  1  0  0  0  0
 37 38  1  0  0  0  0
 37 39  1  0  0  0  0
 38 40  1  0  0  0  0
 38 41  1  0  0  0  0
 38 42  1  0  0  0  0
M  END
$$$$

  -OEChem-05262215353D

 42 41  0     1  0  0  0  0  0999 V2000
   -5.4767   -0.8441    1.8110 C   0  0  0  0  0  0  0  0  0  0  0  0
   -5.8405    0.1454    1.1948 O   0  0  0  0  0  0  0  0  0  0  0  0
   -6.4310   -2.0061    2.0134 C   0  0  0  0  0  0  0  0  0  0  0  0
   -6.6091   -2.1597    3.0802 H   0  0  0  0  0  0  0  0  0  0  0  0
   -7.3864   -1.8004    1.5228 H   0  0  0  0  0  0  0  0  0  0  0  0
   -6.0058   -2.9182    1.5872 H   0  0  0  0  0  0  0  0  0  0  0  0
   -4.1968   -0.9155    2.3192 N   0  0  0  0  0  0  0  0  0  0  0  0
   -3.1278    0.0426    2.0073 C   0  0  2  0  0  0  0  0  0  0  0  0
   -1.8316   -0.6762    1.5799 C   0  0  0  0  0  0  0  0  0  0  0  0
   -1.6362   -1.8314    1.9313 O   0  0  0  0  0  0  0  0  0  0  0  0
   -2.8791    0.8963    3.2535 C   0  0  0  0  0  0  0  0  0  0  0  0
   -3.8982   -1.8218    2.6777 H   0  0  0  0  0  0  0  0  0  0  0  0
   -3.4286    0.6952    1.1812 H   0  0  0  0  0  0  0  0  0  0  0  0
   -2.5669    0.2674    4.0939 H   0  0  0  0  0  0  0  0  0  0  0  0
   -2.0947    1.6357    3.0650 H   0  0  0  0  0  0  0  0  0  0  0  0
   -3.7939    1.4269    3.5358 H   0  0  0  0  0  0  0  0  0  0  0  0
   -0.8954   -0.0141    0.8030 N   0  0  0  0  0  0  0  0  0  0  0  0
    0.4501   -0.5141    0.4647 C   0  0  2  0  0  0  0  0  0  0  0  0
    1.2333   -1.1218    1.6530 C   0  0  0  0  0  0  0  0  0  0  0  0
    1.5804   -2.2953    1.6366 O   0  0  0  0  0  0  0  0  0  0  0  0
    1.2347    0.6300   -0.1866 C   0  0  0  0  0  0  0  0  0  0  0  0
   -1.1296    0.9381    0.5381 H   0  0  0  0  0  0  0  0  0  0  0  0
    0.3376   -1.3168   -0.2728 H   0  0  0  0  0  0  0  0  0  0  0  0
    1.3350    1.4775    0.4985 H   0  0  0  0  0  0  0  0  0  0  0  0
    2.2366    0.2877   -0.4654 H   0  0  0  0  0  0  0  0  0  0  0  0
    0.7248    0.9724   -1.0922 H   0  0  0  0  0  0  0  0  0  0  0  0
    1.7798   -0.2818    2.6048 N   0  0  0  0  0  0  0  0  0  0  0  0
    2.3031   -0.7632    3.8884 C   0  0  2  0  0  0  0  0  0  0  0  0
    1.6382   -0.0131    5.0625 C   0  0  0  0  0  0  0  0  0  0  0  0
    0.9543    0.9842    4.8472 O   0  0  0  0  0  0  0  0  0  0  0  0
    3.8196   -0.5580    3.8904 C   0  0  0  0  0  0  0  0  0  0  0  0
    1.3666    0.6486    2.6357 H   0  0  0  0  0  0  0  0  0  0  0  0
    2.0860   -1.8291    4.0174 H   0  0  0  0  0  0  0  0  0  0  0  0
    4.0637    0.5043    3.7874 H   0  0  0  0  0  0  0  0  0  0  0  0
    4.2568   -0.9289    4.8223 H   0  0  0  0  0  0  0  0  0  0  0  0
    4.2729   -1.1032    3.0562 H   0  0  0  0  0  0  0  0  0  0  0  0
    1.8071   -0.4517    6.3626 N   0  0  0  0  0  0  0  0  0  0  0  0
    1.1904    0.1966    7.5137 C   0  0  0  0  0  0  0  0  0  0  0  0
    2.3428   -1.3032    6.5050 H   0  0  0  0  0  0  0  0  0  0  0  0
    1.4769    1.2528    7.5590 H   0  0  0  0  0  0  0  0  0  0  0  0
    0.0991    0.1298    7.4512 H   0  0  0  0  0  0  0  0  0  0  0  0
    1.5152   -0.2877    8.4398 H   0  0  0  0  0  0  0  0  0  0  0  0
  1  2  2  0  0  0  0
  1  3  1  0  0  0  0
  1  7  1  0  0  0  0
  3  4  1  0  0  0  0
  3  5  1  0  0  0  0
  3  6  1  0  0  0  0
  7  8  1  0  0  0  0
  7 12  1  0  0  0  0
  8  9  1  0  0  0  0
  8 11  1  0  0  0  0
  8 13  1  0  0  0  0
  9 10  2  0  0  0  0
  9 17  1  0  0  0  0
 11 14  1  0  0  0  0
 11 15  1  0  0  0  0
 11 16  1  0  0  0  0
 17 18  1  0  0  0  0
 17 22  1  0  0  0  0
 18 19  1  0  0  0  0
 18 21  1  0  0  0  0
 18 23  1  0  0  0  0
 19 20  2  0  0  0  0
 19 27  1  0  0  0  0
 21 24  1  0  0  0  0
 21 25  1  0  0  0  0
 21 26  1  0  0  0  0
 27 28  1  0  0  0  0
 27 32  1  0  0  0  0
 28 29  1  0  0  0  0
 28 31  1  0  0  0  0
 28 33  1  0  0  0  0
 29 30  2  0  0  0  0
 29 37  1  0  0  0  0
 31 34  1  0  0  0  0
 31 35  1  0  0  0  0
 31 36  1  0  0  0  0
 37 38  1  0  0  0  0
 37 39  1  0  0  0  0
 38 40  1  0  0  0  0
 38 41  1  0  0  0  0
 38 42  1  0  0  0  0
M  END
$$$$

  -OEChem-05262215353D

 42 41  0     1  0  0  0  0  0999 V2000
   -4.4132    0.0077    1.0862 C   0  0  0  0  0  0  0  0  0  0  0  0
   -3.4776    0.5384    0.5046 O   0  0  0  0  0  0  0  0  0  0  0  0
   -5.6718   -0.3722    0.3297 C   0  0  0  0  0  0  0  0  0  0  0  0
   -6.5346    0.1449    0.7569 H   0  0  0  0  0  0  0  0  0  0  0  0
   -5.5793   -0.0911   -0.7233 H   0  0  0  0  0  0  0  0  0  0  0  0
   -5.8349   -1.4509    0.3920 H   0  0  0  0  0  0  0  0  0  0  0  0
   -4.2966   -0.2883    2.4289 N   0  0  0  0  0  0  0  0  0  0  0  0
   -3.1395    0.0809    3.2595 C   0  0  2  0  0  0  0  0  0  0  0  0
   -1.9095   -0.8308    3.0227 C   0  0  0  0  0  0  0  0  0  0  0  0
   -1.4410   -1.5165    3.9201 O   0  0  0  0  0  0  0  0  0  0  0  0
   -3.6051    0.0781    4.7213 C   0  0  0  0  0  0  0  0  0  0  0  0
   -5.0706   -0.7795    2.8678 H   0  0  0  0  0  0  0  0  0  0  0  0
   -2.8320    1.1031    3.0135 H   0  0  0  0  0  0  0  0  0  0  0  0
   -3.9091   -0.9283    5.0278 H   0  0  0  0  0  0  0  0  0  0  0  0
   -2.7923    0.4078    5.3772 H   0  0  0  0  0  0  0  0  0  0  0  0
   -4.4525    0.7576    4.8555 H   0  0  0  0  0  0  0  0  0  0  0  0
   -1.3274   -0.8600    1.7680 N   0  0  0  0  0  0  0  0  0  0  0  0
   -0.1248   -1.6178    1.3825 C   0  0  2  0  0  0  0  0  0  0  0  0
    1.0476   -1.5200    2.3842 C   0  0  0  0  0  0  0  0  0  0  0  0
    1.5303   -2.5286    2.8824 O   0  0  0  0  0  0  0  0  0  0  0  0
    0.3116   -1.1302   -0.0017 C   0  0  0  0  0  0  0  0  0  0  0  0
   -1.8233   -0.3246    1.0486 H   0  0  0  0  0  0  0  0  0  0  0  0
   -0.3932   -2.6775    1.3120 H   0  0  0  0  0  0  0  0  0  0  0  0
    0.5642   -0.0655    0.0218 H   0  0  0  0  0  0  0  0  0  0  0  0
    1.1901   -1.6894   -0.3397 H   0  0  0  0  0  0  0  0  0  0  0  0
   -0.4935   -1.2806   -0.7279 H   0  0  0  0  0  0  0  0  0  0  0  0
    1.6057   -0.2901    2.6839 N   0  0  0  0  0  0  0  0  0  0  0  0
    2.6115   -0.0940    3.7391 C   0  0  2  0  0  0  0  0  0  0  0  0
    1.9678   -0.0500    5.1468 C   0  0  0  0  0  0  0  0  0  0  0  0
    2.0739    0.9357    5.8684 O   0  0  0  0  0  0  0  0  0  0  0  0
    3.3950    1.1790    3.3956 C   0  0  0  0  0  0  0  0  0  0  0  0
    1.0790    0.5201    2.3725 H   0  0  0  0  0  0  0  0  0  0  0  0
    3.3196   -0.9297    3.7359 H   0  0  0  0  0  0  0  0  0  0  0  0
    2.7345    2.0520    3.3991 H   0  0  0  0  0  0  0  0  0  0  0  0
    4.1899    1.3440    4.1301 H   0  0  0  0  0  0  0  0  0  0  0  0
    3.8532    1.0890    2.4060 H   0  0  0  0  0  0  0  0  0  0  0  0
    1.2125   -1.1223    5.5777 N   0  0  0  0  0  0  0  0  0  0  0  0
    0.3947   -1.0975    6.7815 C   0  0  0  0  0  0  0  0  0  0  0  0
    1.0199   -1.8420    4.8760 H   0  0  0  0  0  0  0  0  0  0  0  0
    1.0042   -0.8483    7.6562 H   0  0  0  0  0  0  0  0  0  0  0  0
   -0.4056   -0.3571    6.6838 H   0  0  0  0  0  0  0  0  0  0  0  0
   -0.0595   -2.0793    6.9459 H   0  0  0  0  0  0  0  0  0  0  0  0
  1  2  2  0  0  0  0
  1  3  1  0  0  0  0
  1  7  1  0  0  0  0
  3  4  1  0  0  0  0
  3  5  1  0  0  0  0
  3  6  1  0  0  0  0
  7  8  1  0  0  0  0
  7 12  1  0  0  0  0
  8  9  1  0  0  0  0
  8 11  1  0  0  0  0
  8 13  1  0  0  0  0
  9 10  2  0  0  0  0
  9 17  1  0  0  0  0
 11 14  1  0  0  0  0
 11 15  1  0  0  0  0
 11 16  1  0  0  0  0
 17 18  1  0  0  0  0
 17 22  1  0  0  0  0
 18 19  1  0  0  0  0
 18 21  1  0  0  0  0
 18 23  1  0  0  0  0
 19 20  2  0  0  0  0
 19 27  1  0  0  0  0
 21 24  1  0  0  0  0
 21 25  1  0  0  0  0
 21 26  1  0  0  0  0
 27 28  1  0  0  0  0
 27 32  1  0  0  0  0
 28 29  1  0  0  0  0
 28 31  1  0  0  0  0
 28 33  1  0  0  0  0
 29 30  2  0  0  0  0
 29 37  1  0  0  0  0
 31 34  1  0  0  0  0
 31 35  1  0  0  0  0
 31 36  1  0  0  0  0
 37 38  1  0  0  0  0
 37 39  1  0  0  0  0
 38 40  1  0  0  0  0
 38 41  1  0  0  0  0
 38 42  1  0  0  0  0
M  END
$$$$

  -OEChem-05262215353D

 42 41  0     1  0  0  0  0  0999 V2000
   -5.4871   -0.9193    1.6787 C   0  0  0  0  0  0  0  0  0  0  0  0
   -5.8289    0.0593    1.0335 O   0  0  0  0  0  0  0  0  0  0  0  0
   -6.4152   -2.1144    1.7942 C   0  0  0  0  0  0  0  0  0  0  0  0
   -6.6230   -2.3261    2.8459 H   0  0  0  0  0  0  0  0  0  0  0  0
   -7.3604   -1.9094    1.2834 H   0  0  0  0  0  0  0  0  0  0  0  0
   -5.9511   -2.9922    1.3377 H   0  0  0  0  0  0  0  0  0  0  0  0
   -4.2525   -0.9506    2.2927 N   0  0  0  0  0  0  0  0  0  0  0  0
   -3.1931    0.0439    2.0750 C   0  0  2  0  0  0  0  0  0  0  0  0
   -1.8648   -0.6269    1.6693 C   0  0  0  0  0  0  0  0  0  0  0  0
   -1.6224   -1.7683    2.0414 O   0  0  0  0  0  0  0  0  0  0  0  0
   -3.0173    0.8347    3.3727 C   0  0  0  0  0  0  0  0  0  0  0  0
   -3.9578   -1.8466    2.6782 H   0  0  0  0  0  0  0  0  0  0  0  0
   -3.4735    0.7351    1.2736 H   0  0  0  0  0  0  0  0  0  0  0  0
   -2.7334    0.1671    4.1928 H   0  0  0  0  0  0  0  0  0  0  0  0
   -2.2373    1.5935    3.2588 H   0  0  0  0  0  0  0  0  0  0  0  0
   -3.9524    1.3363    3.6405 H   0  0  0  0  0  0  0  0  0  0  0  0
   -0.9483    0.0510    0.8806 N   0  0  0  0  0  0  0  0  0  0  0  0
    0.3993   -0.4385    0.5282 C   0  0  2  0  0  0  0  0  0  0  0  0
    1.2024   -1.0384    1.7043 C   0  0  0  0  0  0  0  0  0  0  0  0
    1.9213   -2.0150    1.5374 O   0  0  0  0  0  0  0  0  0  0  0  0
    1.1791    0.7231   -0.0925 C   0  0  0  0  0  0  0  0  0  0  0  0
   -1.2222    0.9754    0.5596 H   0  0  0  0  0  0  0  0  0  0  0  0
    0.2935   -1.2321   -0.2197 H   0  0  0  0  0  0  0  0  0  0  0  0
    1.2998    1.5381    0.6282 H   0  0  0  0  0  0  0  0  0  0  0  0
    2.1732    0.3855   -0.4036 H   0  0  0  0  0  0  0  0  0  0  0  0
    0.6555    1.1070   -0.9733 H   0  0  0  0  0  0  0  0  0  0  0  0
    1.2241   -0.3749    2.9153 N   0  0  0  0  0  0  0  0  0  0  0  0
    1.6200   -1.0186    4.1705 C   0  0  2  0  0  0  0  0  0  0  0  0
    0.6129   -0.6743    5.2877 C   0  0  0  0  0  0  0  0  0  0  0  0
   -0.1408    0.2875    5.1606 O   0  0  0  0  0  0  0  0  0  0  0  0
    3.0284   -0.5459    4.5369 C   0  0  0  0  0  0  0  0  0  0  0  0
    0.5210    0.3555    3.0131 H   0  0  0  0  0  0  0  0  0  0  0  0
    1.6219   -2.1076    4.0520 H   0  0  0  0  0  0  0  0  0  0  0  0
    3.0454    0.5408    4.6675 H   0  0  0  0  0  0  0  0  0  0  0  0
    3.3607   -1.0152    5.4678 H   0  0  0  0  0  0  0  0  0  0  0  0
    3.7343   -0.8134    3.7440 H   0  0  0  0  0  0  0  0  0  0  0  0
    0.5439   -1.4425    6.4349 N   0  0  0  0  0  0  0  0  0  0  0  0
   -0.4192   -1.1992    7.5017 C   0  0  0  0  0  0  0  0  0  0  0  0
    1.1409   -2.2630    6.4870 H   0  0  0  0  0  0  0  0  0  0  0  0
   -0.2704   -0.2030    7.9315 H   0  0  0  0  0  0  0  0  0  0  0  0
   -1.4426   -1.2687    7.1179 H   0  0  0  0  0  0  0  0  0  0  0  0
   -0.2984   -1.9399    8.2980 H   0  0  0  0  0  0  0  0  0  0  0  0
  1  2  2  0  0  0  0
  1  3  1  0  0  0  0
  1  7  1  0  0  0  0
  3  4  1  0  0  0  0
  3  5  1  0  0  0  0
  3  6  1  0  0  0  0
  7  8  1  0  0  0  0
  7 12  1  0  0  0  0
  8  9  1  0  0  0  0
  8 11  1  0  0  0  0
  8 13  1  0  0  0  0
  9 10  2  0  0  0  0
  9 17  1  0  0  0  0
 11 14  1  0  0  0  0
 11 15  1  0  0  0  0
 11 16  1  0  0  0  0
 17 18  1  0  0  0  0
 17 22  1  0  0  0  0
 18 19  1  0  0  0  0
 18 21  1  0  0  0  0
 18 23  1  0  0  0  0
 19 20  2  0  0  0  0
 19 27  1  0  0  0  0
 21 24  1  0  0  0  0
 21 25  1  0  0  0  0
 21 26  1  0  0  0  0
 27 28  1  0  0  0  0
 27 32  1  0  0  0  0
 28 29  1  0  0  0  0
 28 31  1  0  0  0  0
 28 33  1  0  0  0  0
 29 30  2  0  0  0  0
 29 37  1  0  0  0  0
 31 34  1  0  0  0  0
 31 35  1  0  0  0  0
 31 36  1  0  0  0  0
 37 38  1  0  0  0  0
 37 39  1  0  0  0  0
 38 40  1  0  0  0  0
 38 41  1  0  0  0  0
 38 42  1  0  0  0  0
M  END
$$$$

  -OEChem-05262215353D

 42 41  0     1  0  0  0  0  0999 V2000
   -5.5804   -0.9507    1.5723 C   0  0  0  0  0  0  0  0  0  0  0  0
   -5.9421   -0.0312    0.8549 O   0  0  0  0  0  0  0  0  0  0  0  0
   -6.4912   -2.1429    1.7962 C   0  0  0  0  0  0  0  0  0  0  0  0
   -6.6912   -2.2638    2.8635 H   0  0  0  0  0  0  0  0  0  0  0  0
   -7.4410   -1.9958    1.2745 H   0  0  0  0  0  0  0  0  0  0  0  0
   -6.0166   -3.0509    1.4160 H   0  0  0  0  0  0  0  0  0  0  0  0
   -4.3411   -0.9168    2.1759 N   0  0  0  0  0  0  0  0  0  0  0  0
   -3.2999    0.0749    1.8752 C   0  0  2  0  0  0  0  0  0  0  0  0
   -1.9494   -0.5970    1.5516 C   0  0  0  0  0  0  0  0  0  0  0  0
   -1.7337   -1.7482    1.9091 O   0  0  0  0  0  0  0  0  0  0  0  0
   -3.1656    0.9947    3.0910 C   0  0  0  0  0  0  0  0  0  0  0  0
   -4.0301   -1.7762    2.6267 H   0  0  0  0  0  0  0  0  0  0  0  0
   -3.5830    0.6752    1.0043 H   0  0  0  0  0  0  0  0  0  0  0  0
   -2.8857    0.4181    3.9787 H   0  0  0  0  0  0  0  0  0  0  0  0
   -2.4010    1.7575    2.9164 H   0  0  0  0  0  0  0  0  0  0  0  0
   -4.1169    1.4980    3.2903 H   0  0  0  0  0  0  0  0  0  0  0  0
   -0.9748    0.0938    0.8496 N   0  0  0  0  0  0  0  0  0  0  0  0
    0.3955   -0.3896    0.5839 C   0  0  2  0  0  0  0  0  0  0  0  0
    1.1423   -1.0254    1.7811 C   0  0  0  0  0  0  0  0  0  0  0  0
    2.0626   -1.8090    1.5847 O   0  0  0  0  0  0  0  0  0  0  0  0
    1.2051    0.7948    0.0497 C   0  0  0  0  0  0  0  0  0  0  0  0
   -1.2158    1.0333    0.5465 H   0  0  0  0  0  0  0  0  0  0  0  0
    0.3410   -1.1602   -0.1927 H   0  0  0  0  0  0  0  0  0  0  0  0
    1.2906    1.5776    0.8101 H   0  0  0  0  0  0  0  0  0  0  0  0
    2.2134    0.4692   -0.2269 H   0  0  0  0  0  0  0  0  0  0  0  0
    0.7258    1.2170   -0.8387 H   0  0  0  0  0  0  0  0  0  0  0  0
    0.8724   -0.6083    3.0700 N   0  0  0  0  0  0  0  0  0  0  0  0
    1.3203   -1.3259    4.2659 C   0  0  2  0  0  0  0  0  0  0  0  0
    0.2288   -1.2956    5.3561 C   0  0  0  0  0  0  0  0  0  0  0  0
   -0.6666   -0.4564    5.3108 O   0  0  0  0  0  0  0  0  0  0  0  0
    2.6121   -0.6772    4.7696 C   0  0  0  0  0  0  0  0  0  0  0  0
    0.0077   -0.0815    3.1793 H   0  0  0  0  0  0  0  0  0  0  0  0
    1.5123   -2.3759    4.0199 H   0  0  0  0  0  0  0  0  0  0  0  0
    2.4392    0.3734    5.0240 H   0  0  0  0  0  0  0  0  0  0  0  0
    2.9808   -1.1965    5.6592 H   0  0  0  0  0  0  0  0  0  0  0  0
    3.3852   -0.7260    3.9960 H   0  0  0  0  0  0  0  0  0  0  0  0
    0.2477   -2.2099    6.3930 N   0  0  0  0  0  0  0  0  0  0  0  0
   -0.7792   -2.2681    7.4260 C   0  0  0  0  0  0  0  0  0  0  0  0
    0.9693   -2.9249    6.3746 H   0  0  0  0  0  0  0  0  0  0  0  0
   -0.8319   -1.3183    7.9684 H   0  0  0  0  0  0  0  0  0  0  0  0
   -1.7583   -2.4748    6.9815 H   0  0  0  0  0  0  0  0  0  0  0  0
   -0.5503   -3.0620    8.1434 H   0  0  0  0  0  0  0  0  0  0  0  0
  1  2  2  0  0  0  0
  1  3  1  0  0  0  0
  1  7  1  0  0  0  0
  3  4  1  0  0  0  0
  3  5  1  0  0  0  0
  3  6  1  0  0  0  0
  7  8  1  0  0  0  0
  7 12  1  0  0  0  0
  8  9  1  0  0  0  0
  8 11  1  0  0  0  0
  8 13  1  0  0  0  0
  9 10  2  0  0  0  0
  9 17  1  0  0  0  0
 11 14  1  0  0  0  0
 11 15  1  0  0  0  0
 11 16  1  0  0  0  0
 17 18  1  0  0  0  0
 17 22  1  0  0  0  0
 18 19  1  0  0  0  0
 18 21  1  0  0  0  0
 18 23  1  0  0  0  0
 19 20  2  0  0  0  0
 19 27  1  0  0  0  0
 21 24  1  0  0  0  0
 21 25  1  0  0  0  0
 21 26  1  0  0  0  0
 27 28  1  0  0  0  0
 27 32  1  0  0  0  0
 28 29  1  0  0  0  0
 28 31  1  0  0  0  0
 28 33  1  0  0  0  0
 29 30  2  0  0  0  0
 29 37  1  0  0  0  0
 31 34  1  0  0  0  0
 31 35  1  0  0  0  0
 31 36  1  0  0  0  0
 37 38  1  0  0  0  0
 37 39  1  0  0  0  0
 38 40  1  0  0  0  0
 38 41  1  0  0  0  0
 38 42  1  0  0  0  0
M  END
$$$$

  -OEChem-05262215353D

 42 41  0     1  0  0  0  0  0999 V2000
   -5.6426   -0.8914    1.5574 C   0  0  0  0  0  0  0  0  0  0  0  0
   -6.0204    0.0218    0.8400 O   0  0  0  0  0  0  0  0  0  0  0  0
   -6.5569   -2.0704    1.8320 C   0  0  0  0  0  0  0  0  0  0  0  0
   -6.6963   -2.1912    2.9091 H   0  0  0  0  0  0  0  0  0  0  0  0
   -7.5332   -1.9077    1.3667 H   0  0  0  0  0  0  0  0  0  0  0  0
   -6.1193   -2.9845    1.4230 H   0  0  0  0  0  0  0  0  0  0  0  0
   -4.3821   -0.8622    2.1146 N   0  0  0  0  0  0  0  0  0  0  0  0
   -3.3393    0.1068    1.7529 C   0  0  2  0  0  0  0  0  0  0  0  0
   -2.0132   -0.5924    1.3890 C   0  0  0  0  0  0  0  0  0  0  0  0
   -1.8410   -1.7724    1.6649 O   0  0  0  0  0  0  0  0  0  0  0  0
   -3.1458    1.0420    2.9493 C   0  0  0  0  0  0  0  0  0  0  0  0
   -4.0674   -1.7158    2.5747 H   0  0  0  0  0  0  0  0  0  0  0  0
   -3.6463    0.6964    0.8826 H   0  0  0  0  0  0  0  0  0  0  0  0
   -2.8226    0.4769    3.8299 H   0  0  0  0  0  0  0  0  0  0  0  0
   -2.3925    1.8038    2.7280 H   0  0  0  0  0  0  0  0  0  0  0  0
   -4.0875    1.5467    3.1879 H   0  0  0  0  0  0  0  0  0  0  0  0
   -0.9856    0.1112    0.7841 N   0  0  0  0  0  0  0  0  0  0  0  0
    0.3999   -0.3731    0.6035 C   0  0  2  0  0  0  0  0  0  0  0  0
    1.0834   -1.0582    1.8173 C   0  0  0  0  0  0  0  0  0  0  0  0
    2.1731   -1.5985    1.6728 O   0  0  0  0  0  0  0  0  0  0  0  0
    1.2358    0.8302    0.1552 C   0  0  0  0  0  0  0  0  0  0  0  0
   -1.1733    1.0882    0.5779 H   0  0  0  0  0  0  0  0  0  0  0  0
    0.3933   -1.1162   -0.2008 H   0  0  0  0  0  0  0  0  0  0  0  0
    1.2885    1.5803    0.9508 H   0  0  0  0  0  0  0  0  0  0  0  0
    2.2553    0.5138   -0.0898 H   0  0  0  0  0  0  0  0  0  0  0  0
    0.7984    1.2908   -0.7361 H   0  0  0  0  0  0  0  0  0  0  0  0
    0.5619   -0.9435    3.0915 N   0  0  0  0  0  0  0  0  0  0  0  0
    1.0588   -1.6795    4.2566 C   0  0  2  0  0  0  0  0  0  0  0  0
   -0.0966   -2.0154    5.2241 C   0  0  0  0  0  0  0  0  0  0  0  0
   -1.1521   -1.3898    5.1719 O   0  0  0  0  0  0  0  0  0  0  0  0
    2.1190   -0.8254    4.9575 C   0  0  0  0  0  0  0  0  0  0  0  0
   -0.4291   -0.7064    3.1223 H   0  0  0  0  0  0  0  0  0  0  0  0
    1.5074   -2.6250    3.9333 H   0  0  0  0  0  0  0  0  0  0  0  0
    1.6866    0.1238    5.2897 H   0  0  0  0  0  0  0  0  0  0  0  0
    2.5205   -1.3504    5.8292 H   0  0  0  0  0  0  0  0  0  0  0  0
    2.9458   -0.6107    4.2730 H   0  0  0  0  0  0  0  0  0  0  0  0
    0.0466   -3.0217    6.1617 N   0  0  0  0  0  0  0  0  0  0  0  0
   -1.0171   -3.4207    7.0757 C   0  0  0  0  0  0  0  0  0  0  0  0
    0.9121   -3.5537    6.1501 H   0  0  0  0  0  0  0  0  0  0  0  0
   -1.3389   -2.5689    7.6843 H   0  0  0  0  0  0  0  0  0  0  0  0
   -1.8793   -3.8009    6.5177 H   0  0  0  0  0  0  0  0  0  0  0  0
   -0.6648   -4.2096    7.7474 H   0  0  0  0  0  0  0  0  0  0  0  0
  1  2  2  0  0  0  0
  1  3  1  0  0  0  0
  1  7  1  0  0  0  0
  3  4  1  0  0  0  0
  3  5  1  0  0  0  0
  3  6  1  0  0  0  0
  7  8  1  0  0  0  0
  7 12  1  0  0  0  0
  8  9  1  0  0  0  0
  8 11  1  0  0  0  0
  8 13  1  0  0  0  0
  9 10  2  0  0  0  0
  9 17  1  0  0  0  0
 11 14  1  0  0  0  0
 11 15  1  0  0  0  0
 11 16  1  0  0  0  0
 17 18  1  0  0  0  0
 17 22  1  0  0  0  0
 18 19  1  0  0  0  0
 18 21  1  0  0  0  0
 18 23  1  0  0  0  0
 19 20  2  0  0  0  0
 19 27  1  0  0  0  0
 21 24  1  0  0  0  0
 21 25  1  0  0  0  0
 21 26  1  0  0  0  0
 27 28  1  0  0  0  0
 27 32  1  0  0  0  0
 28 29  1  0  0  0  0
 28 31  1  0  0  0  0
 28 33  1  0  0  0  0
 29 30  2  0  0  0  0
 29 37  1  0  0  0  0
 31 34  1  0  0  0  0
 31 35  1  0  0  0  0
 31 36  1  0  0  0  0
 37 38  1  0  0  0  0
 37 39  1  0  0  0  0
 38 40  1  0  0  0  0
 38 41  1  0  0  0  0
 38 42  1  0  0  0  0
M  END
$$$$

  -OEChem-05262215353D

 42 41  0     1  0  0  0  0  0999 V2000
   -5.6241   -0.8612    1.5643 C   0  0  0  0  0  0  0  0  0  0  0  0
   -5.9981    0.0234    0.8099 O   0  0  0  0  0  0  0  0  0  0  0  0
   -6.5242   -2.0487    1.8472 C   0  0  0  0  0  0  0  0  0  0  0  0
   -6.7361   -2.1090    2.9175 H   0  0  0  0  0  0  0  0  0  0  0  0
   -7.4684   -1.9445    1.3053 H   0  0  0  0  0  0  0  0  0  0  0  0
   -6.0337   -2.9714    1.5270 H   0  0  0  0  0  0  0  0  0  0  0  0
   -4.3818   -0.7940    2.1585 N   0  0  0  0  0  0  0  0  0  0  0  0
   -3.3327    0.1576    1.7675 C   0  0  2  0  0  0  0  0  0  0  0  0
   -2.0684   -0.5634    1.2537 C   0  0  0  0  0  0  0  0  0  0  0  0
   -1.9514   -1.7754    1.3804 O   0  0  0  0  0  0  0  0  0  0  0  0
   -3.0063    1.0012    3.0031 C   0  0  0  0  0  0  0  0  0  0  0  0
   -4.0694   -1.6389    2.6364 H   0  0  0  0  0  0  0  0  0  0  0  0
   -3.6831    0.8180    0.9675 H   0  0  0  0  0  0  0  0  0  0  0  0
   -2.6238    0.3668    3.8102 H   0  0  0  0  0  0  0  0  0  0  0  0
   -2.2529    1.7588    2.7682 H   0  0  0  0  0  0  0  0  0  0  0  0
   -3.9071    1.5112    3.3594 H   0  0  0  0  0  0  0  0  0  0  0  0
   -1.0050    0.1516    0.7309 N   0  0  0  0  0  0  0  0  0  0  0  0
    0.3824   -0.3450    0.5922 C   0  0  2  0  0  0  0  0  0  0  0  0
    1.0180   -1.0998    1.7971 C   0  0  0  0  0  0  0  0  0  0  0  0
    2.2020   -1.4121    1.7589 O   0  0  0  0  0  0  0  0  0  0  0  0
    1.2376    0.8717    0.2174 C   0  0  0  0  0  0  0  0  0  0  0  0
   -1.1417    1.1566    0.6734 H   0  0  0  0  0  0  0  0  0  0  0  0
    0.3984   -1.0528   -0.2434 H   0  0  0  0  0  0  0  0  0  0  0  0
    1.2779    1.5835    1.0479 H   0  0  0  0  0  0  0  0  0  0  0  0
    2.2602    0.5616   -0.0217 H   0  0  0  0  0  0  0  0  0  0  0  0
    0.8229    1.3763   -0.6607 H   0  0  0  0  0  0  0  0  0  0  0  0
    0.3263   -1.3127    2.9741 N   0  0  0  0  0  0  0  0  0  0  0  0
    0.8349   -2.0671    4.1230 C   0  0  2  0  0  0  0  0  0  0  0  0
   -0.3223   -2.7148    4.9148 C   0  0  0  0  0  0  0  0  0  0  0  0
   -1.4677   -2.2852    4.8080 O   0  0  0  0  0  0  0  0  0  0  0  0
    1.6273   -1.1142    5.0233 C   0  0  0  0  0  0  0  0  0  0  0  0
   -0.6901   -1.3200    2.8650 H   0  0  0  0  0  0  0  0  0  0  0  0
    1.4916   -2.8707    3.7734 H   0  0  0  0  0  0  0  0  0  0  0  0
    0.9833   -0.3049    5.3823 H   0  0  0  0  0  0  0  0  0  0  0  0
    2.0305   -1.6496    5.8879 H   0  0  0  0  0  0  0  0  0  0  0  0
    2.4630   -0.6746    4.4697 H   0  0  0  0  0  0  0  0  0  0  0  0
   -0.0773   -3.7819    5.7596 N   0  0  0  0  0  0  0  0  0  0  0  0
   -1.1230   -4.4696    6.5075 C   0  0  0  0  0  0  0  0  0  0  0  0
    0.8724   -4.1403    5.7986 H   0  0  0  0  0  0  0  0  0  0  0  0
   -1.6585   -3.7666    7.1544 H   0  0  0  0  0  0  0  0  0  0  0  0
   -1.8399   -4.9357    5.8233 H   0  0  0  0  0  0  0  0  0  0  0  0
   -0.6863   -5.2514    7.1367 H   0  0  0  0  0  0  0  0  0  0  0  0
  1  2  2  0  0  0  0
  1  3  1  0  0  0  0
  1  7  1  0  0  0  0
  3  4  1  0  0  0  0
  3  5  1  0  0  0  0
  3  6  1  0  0  0  0
  7  8  1  0  0  0  0
  7 12  1  0  0  0  0
  8  9  1  0  0  0  0
  8 11  1  0  0  0  0
  8 13  1  0  0  0  0
  9 10  2  0  0  0  0
  9 17  1  0  0  0  0
 11 14  1  0  0  0  0
 11 15  1  0  0  0  0
 11 16  1  0  0  0  0
 17 18  1  0  0  0  0
 17 22  1  0  0  0  0
 18 19  1  0  0  0  0
 18 21  1  0  0  0  0
 18 23  1  0  0  0  0
 19 20  2  0  0  0  0
 19 27  1  0  0  0  0
 21 24  1  0  0  0  0
 21 25  1  0  0  0  0
 21 26  1  0  0  0  0
 27 28  1  0  0  0  0
 27 32  1  0  0  0  0
 28 29  1  0  0  0  0
 28 31  1  0  0  0  0
 28 33  1  0  0  0  0
 29 30  2  0  0  0  0
 29 37  1  0  0  0  0
 31 34  1  0  0  0  0
 31 35  1  0  0  0  0
 31 36  1  0  0  0  0
 37 38  1  0  0  0  0
 37 39  1  0  0  0  0
 38 40  1  0  0  0  0
 38 41  1  0  0  0  0
 38 42  1  0  0  0  0
M  END
$$$$

  -OEChem-05262215353D

 42 41  0     1  0  0  0  0  0999 V2000
   -5.5537   -0.9371    1.6376 C   0  0  0  0  0  0  0  0  0  0  0  0
   -5.9525    0.0025    0.9668 O   0  0  0  0  0  0  0  0  0  0  0  0
   -6.4359   -2.1547    1.8370 C   0  0  0  0  0  0  0  0  0  0  0  0
   -6.6653   -2.2791    2.8980 H   0  0  0  0  0  0  0  0  0  0  0  0
   -7.3721   -2.0368    1.2843 H   0  0  0  0  0  0  0  0  0  0  0  0
   -5.9229   -3.0491    1.4746 H   0  0  0  0  0  0  0  0  0  0  0  0
   -4.3024   -0.9020    2.2158 N   0  0  0  0  0  0  0  0  0  0  0  0
   -3.2727    0.0907    1.8770 C   0  0  2  0  0  0  0  0  0  0  0  0
   -2.0749   -0.5490    1.1428 C   0  0  0  0  0  0  0  0  0  0  0  0
   -1.9925   -1.7659    1.0283 O   0  0  0  0  0  0  0  0  0  0  0  0
   -2.8206    0.7287    3.1938 C   0  0  0  0  0  0  0  0  0  0  0  0
   -3.9702   -1.7834    2.6073 H   0  0  0  0  0  0  0  0  0  0  0  0
   -3.6799    0.8720    1.2269 H   0  0  0  0  0  0  0  0  0  0  0  0
   -2.3801   -0.0262    3.8542 H   0  0  0  0  0  0  0  0  0  0  0  0
   -2.0766    1.5098    3.0121 H   0  0  0  0  0  0  0  0  0  0  0  0
   -3.6759    1.1815    3.7054 H   0  0  0  0  0  0  0  0  0  0  0  0
   -1.0151    0.2214    0.6973 N   0  0  0  0  0  0  0  0  0  0  0  0
    0.3786   -0.2576    0.5508 C   0  0  2  0  0  0  0  0  0  0  0  0
    0.9949   -1.0999    1.7112 C   0  0  0  0  0  0  0  0  0  0  0  0
    2.2114   -1.2048    1.8100 O   0  0  0  0  0  0  0  0  0  0  0  0
    1.2261    0.9912    0.2730 C   0  0  0  0  0  0  0  0  0  0  0  0
   -1.1327    1.2210    0.8342 H   0  0  0  0  0  0  0  0  0  0  0  0
    0.4129   -0.9025   -0.3333 H   0  0  0  0  0  0  0  0  0  0  0  0
    1.2694    1.6301    1.1606 H   0  0  0  0  0  0  0  0  0  0  0  0
    2.2482    0.7077    0.0013 H   0  0  0  0  0  0  0  0  0  0  0  0
    0.8027    1.5667   -0.5562 H   0  0  0  0  0  0  0  0  0  0  0  0
    0.2209   -1.6637    2.7065 N   0  0  0  0  0  0  0  0  0  0  0  0
    0.7063   -2.4439    3.8477 C   0  0  2  0  0  0  0  0  0  0  0  0
   -0.4418   -3.2632    4.4775 C   0  0  0  0  0  0  0  0  0  0  0  0
   -1.6125   -2.9341    4.3040 O   0  0  0  0  0  0  0  0  0  0  0  0
    1.2983   -1.4929    4.8948 C   0  0  0  0  0  0  0  0  0  0  0  0
   -0.7673   -1.7859    2.4679 H   0  0  0  0  0  0  0  0  0  0  0  0
    1.4782   -3.1420    3.5075 H   0  0  0  0  0  0  0  0  0  0  0  0
    0.5431   -0.7721    5.2237 H   0  0  0  0  0  0  0  0  0  0  0  0
    1.6499   -2.0524    5.7666 H   0  0  0  0  0  0  0  0  0  0  0  0
    2.1467   -0.9416    4.4780 H   0  0  0  0  0  0  0  0  0  0  0  0
   -0.1599   -4.3677    5.2602 N   0  0  0  0  0  0  0  0  0  0  0  0
   -1.1875   -5.2026    5.8703 C   0  0  0  0  0  0  0  0  0  0  0  0
    0.8149   -4.6360    5.3597 H   0  0  0  0  0  0  0  0  0  0  0  0
   -1.8484   -4.5996    6.5021 H   0  0  0  0  0  0  0  0  0  0  0  0
   -1.7895   -5.6941    5.0988 H   0  0  0  0  0  0  0  0  0  0  0  0
   -0.7260   -5.9744    6.4940 H   0  0  0  0  0  0  0  0  0  0  0  0
  1  2  2  0  0  0  0
  1  3  1  0  0  0  0
  1  7  1  0  0  0  0
  3  4  1  0  0  0  0
  3  5  1  0  0  0  0
  3  6  1  0  0  0  0
  7  8  1  0  0  0  0
  7 12  1  0  0  0  0
  8  9  1  0  0  0  0
  8 11  1  0  0  0  0
  8 13  1  0  0  0  0
  9 10  2  0  0  0  0
  9 17  1  0  0  0  0
 11 14  1  0  0  0  0
 11 15  1  0  0  0  0
 11 16  1  0  0  0  0
 17 18  1  0  0  0  0
 17 22  1  0  0  0  0
 18 19  1  0  0  0  0
 18 21  1  0  0  0  0
 18 23  1  0  0  0  0
 19 20  2  0  0  0  0
 19 27  1  0  0  0  0
 21 24  1  0  0  0  0
 21 25  1  0  0  0  0
 21 26  1  0  0  0  0
 27 28  1  0  0  0  0
 27 32  1  0  0  0  0
 28 29  1  0  0  0  0
 28 31  1  0  0  0  0
 28 33  1  0  0  0  0
 29 30  2  0  0  0  0
 29 37  1  0  0  0  0
 31 34  1  0  0  0  0
 31 35  1  0  0  0  0
 31 36  1  0  0  0  0
 37 38  1  0  0  0  0
 37 39  1  0  0  0  0
 38 40  1  0  0  0  0
 38 41  1  0  0  0  0
 38 42  1  0  0  0  0
M  END
$$$$

  -OEChem-05262215353D

 42 41  0     1  0  0  0  0  0999 V2000
   -5.5993   -0.8684    1.7155 C   0  0  0  0  0  0  0  0  0  0  0  0
   -5.9888    0.1750    1.2143 O   0  0  0  0  0  0  0  0  0  0  0  0
   -6.5350   -2.0579    1.8170 C   0  0  0  0  0  0  0  0  0  0  0  0
   -6.6910   -2.3193    2.8665 H   0  0  0  0  0  0  0  0  0  0  0  0
   -7.5018   -1.8186    1.3651 H   0  0  0  0  0  0  0  0  0  0  0  0
   -6.1046   -2.9162    1.2949 H   0  0  0  0  0  0  0  0  0  0  0  0
   -4.3105   -0.9768    2.1932 N   0  0  0  0  0  0  0  0  0  0  0  0
   -3.2509    0.0081    1.9330 C   0  0  2  0  0  0  0  0  0  0  0  0
   -2.0792   -0.6063    1.1391 C   0  0  0  0  0  0  0  0  0  0  0  0
   -2.0275   -1.8142    0.9402 O   0  0  0  0  0  0  0  0  0  0  0  0
   -2.7664    0.5164    3.2933 C   0  0  0  0  0  0  0  0  0  0  0  0
   -4.0034   -1.9196    2.4325 H   0  0  0  0  0  0  0  0  0  0  0  0
   -3.6359    0.8534    1.3529 H   0  0  0  0  0  0  0  0  0  0  0  0
   -2.3540   -0.3080    3.8850 H   0  0  0  0  0  0  0  0  0  0  0  0
   -1.9914    1.2782    3.1693 H   0  0  0  0  0  0  0  0  0  0  0  0
   -3.5996    0.9600    3.8476 H   0  0  0  0  0  0  0  0  0  0  0  0
   -1.0347    0.1769    0.6815 N   0  0  0  0  0  0  0  0  0  0  0  0
    0.3585   -0.2917    0.5083 C   0  0  2  0  0  0  0  0  0  0  0  0
    0.9975   -1.1379    1.6558 C   0  0  0  0  0  0  0  0  0  0  0  0
    2.1978   -1.0486    1.8845 O   0  0  0  0  0  0  0  0  0  0  0  0
    1.1887    0.9635    0.2015 C   0  0  0  0  0  0  0  0  0  0  0  0
   -1.1446    1.1689    0.8707 H   0  0  0  0  0  0  0  0  0  0  0  0
    0.3776   -0.9367   -0.3764 H   0  0  0  0  0  0  0  0  0  0  0  0
    1.2494    1.6086    1.0838 H   0  0  0  0  0  0  0  0  0  0  0  0
    2.2057    0.6867   -0.0954 H   0  0  0  0  0  0  0  0  0  0  0  0
    0.7397    1.5301   -0.6202 H   0  0  0  0  0  0  0  0  0  0  0  0
    0.2580   -1.9595    2.4845 N   0  0  0  0  0  0  0  0  0  0  0  0
    0.7620   -2.7199    3.6335 C   0  0  2  0  0  0  0  0  0  0  0  0
   -0.2597   -3.7836    4.0882 C   0  0  0  0  0  0  0  0  0  0  0  0
   -1.4629   -3.5911    3.9432 O   0  0  0  0  0  0  0  0  0  0  0  0
    1.0445   -1.7618    4.7980 C   0  0  0  0  0  0  0  0  0  0  0  0
   -0.7045   -2.1505    2.1867 H   0  0  0  0  0  0  0  0  0  0  0  0
    1.6867   -3.2321    3.3484 H   0  0  0  0  0  0  0  0  0  0  0  0
    0.1335   -1.2232    5.0776 H   0  0  0  0  0  0  0  0  0  0  0  0
    1.4030   -2.3164    5.6703 H   0  0  0  0  0  0  0  0  0  0  0  0
    1.8095   -1.0307    4.5206 H   0  0  0  0  0  0  0  0  0  0  0  0
    0.1705   -4.9483    4.6973 N   0  0  0  0  0  0  0  0  0  0  0  0
   -0.7349   -6.0040    5.1340 C   0  0  0  0  0  0  0  0  0  0  0  0
    1.1725   -5.0926    4.7818 H   0  0  0  0  0  0  0  0  0  0  0  0
   -1.4629   -5.6122    5.8523 H   0  0  0  0  0  0  0  0  0  0  0  0
   -1.2745   -6.4238    4.2784 H   0  0  0  0  0  0  0  0  0  0  0  0
   -0.1731   -6.8091    5.6172 H   0  0  0  0  0  0  0  0  0  0  0  0
  1  2  2  0  0  0  0
  1  3  1  0  0  0  0
  1  7  1  0  0  0  0
  3  4  1  0  0  0  0
  3  5  1  0  0  0  0
  3  6  1  0  0  0  0
  7  8  1  0  0  0  0
  7 12  1  0  0  0  0
  8  9  1  0  0  0  0
  8 11  1  0  0  0  0
  8 13  1  0  0  0  0
  9 10  2  0  0  0  0
  9 17  1  0  0  0  0
 11 14  1  0  0  0  0
 11 15  1  0  0  0  0
 11 16  1  0  0  0  0
 17 18  1  0  0  0  0
 17 22  1  0  0  0  0
 18 19  1  0  0  0  0
 18 21  1  0  0  0  0
 18 23  1  0  0  0  0
 19 20  2  0  0  0  0
 19 27  1  0  0  0  0
 21 24  1  0  0  0  0
 21 25  1  0  0  0  0
 21 26  1  0  0  0  0
 27 28  1  0  0  0  0
 27 32  1  0  0  0  0
 28 29  1  0  0  0  0
 28 31  1  0  0  0  0
 28 33  1  0  0  0  0
 29 30  2  0  0  0  0
 29 37  1  0  0  0  0
 31 34  1  0  0  0  0
 31 35  1  0  0  0  0
 31 36  1  0  0  0  0
 37 38  1  0  0  0  0
 37 39  1  0  0  0  0
 38 40  1  0  0  0  0
 38 41  1  0  0  0  0
 38 42  1  0  0  0  0
M  END
$$$$

  -OEChem-05262215353D

 42 41  0     1  0  0  0  0  0999 V2000
   -4.6706   -0.4761    0.9196 C   0  0  0  0  0  0  0  0  0  0  0  0
   -3.7908    0.0765    0.2764 O   0  0  0  0  0  0  0  0  0  0  0  0
   -5.9386   -0.9512    0.2363 C   0  0  0  0  0  0  0  0  0  0  0  0
   -6.8136   -0.5234    0.7318 H   0  0  0  0  0  0  0  0  0  0  0  0
   -5.9413   -0.6391   -0.8120 H   0  0  0  0  0  0  0  0  0  0  0  0
   -6.0007   -2.0415    0.2790 H   0  0  0  0  0  0  0  0  0  0  0  0
   -4.4755   -0.7149    2.2646 N   0  0  0  0  0  0  0  0  0  0  0  0
   -3.2820   -0.2877    3.0124 C   0  0  2  0  0  0  0  0  0  0  0  0
   -2.0555   -1.2000    2.7586 C   0  0  0  0  0  0  0  0  0  0  0  0
   -1.5844   -1.8853    3.6553 O   0  0  0  0  0  0  0  0  0  0  0  0
   -3.6750   -0.2103    4.4934 C   0  0  0  0  0  0  0  0  0  0  0  0
   -5.1944   -1.2399    2.7548 H   0  0  0  0  0  0  0  0  0  0  0  0
   -2.9973    0.7214    2.6947 H   0  0  0  0  0  0  0  0  0  0  0  0
   -3.9836   -1.1932    4.8638 H   0  0  0  0  0  0  0  0  0  0  0  0
   -2.8263    0.1345    5.0931 H   0  0  0  0  0  0  0  0  0  0  0  0
   -4.5023    0.4923    4.6323 H   0  0  0  0  0  0  0  0  0  0  0  0
   -1.5653   -1.3042    1.4711 N   0  0  0  0  0  0  0  0  0  0  0  0
   -0.2269   -1.7374    1.0204 C   0  0  2  0  0  0  0  0  0  0  0  0
    1.0228   -1.1662    1.7613 C   0  0  0  0  0  0  0  0  0  0  0  0
    1.7397   -0.3438    1.2113 O   0  0  0  0  0  0  0  0  0  0  0  0
   -0.1798   -1.4388   -0.4846 C   0  0  0  0  0  0  0  0  0  0  0  0
   -2.0862   -0.7251    0.8053 H   0  0  0  0  0  0  0  0  0  0  0  0
   -0.1733   -2.8229    1.1381 H   0  0  0  0  0  0  0  0  0  0  0  0
   -0.2457   -0.3609   -0.6662 H   0  0  0  0  0  0  0  0  0  0  0  0
    0.7567   -1.8063   -0.9162 H   0  0  0  0  0  0  0  0  0  0  0  0
   -1.0110   -1.9308   -0.9991 H   0  0  0  0  0  0  0  0  0  0  0  0
    1.1729   -1.0629    3.1225 N   0  0  0  0  0  0  0  0  0  0  0  0
    1.7887   -2.1901    3.8470 C   0  0  2  0  0  0  0  0  0  0  0  0
    1.4024   -3.6147    3.3795 C   0  0  0  0  0  0  0  0  0  0  0  0
    2.2338   -4.3055    2.8070 O   0  0  0  0  0  0  0  0  0  0  0  0
    1.4617   -2.0153    5.3335 C   0  0  0  0  0  0  0  0  0  0  0  0
    1.6454   -0.1830    3.3104 H   0  0  0  0  0  0  0  0  0  0  0  0
    2.8750   -2.1132    3.7244 H   0  0  0  0  0  0  0  0  0  0  0  0
    1.9313   -2.8100    5.9216 H   0  0  0  0  0  0  0  0  0  0  0  0
    1.8357   -1.0524    5.6944 H   0  0  0  0  0  0  0  0  0  0  0  0
    0.3809   -2.0513    5.5008 H   0  0  0  0  0  0  0  0  0  0  0  0
    0.1248   -4.1098    3.5430 N   0  0  0  0  0  0  0  0  0  0  0  0
   -0.3215   -5.3834    2.9951 C   0  0  0  0  0  0  0  0  0  0  0  0
   -0.5811   -3.4238    3.8277 H   0  0  0  0  0  0  0  0  0  0  0  0
   -0.2684   -5.3704    1.9016 H   0  0  0  0  0  0  0  0  0  0  0  0
    0.3024   -6.2022    3.3689 H   0  0  0  0  0  0  0  0  0  0  0  0
   -1.3569   -5.5769    3.2914 H   0  0  0  0  0  0  0  0  0  0  0  0
  1  2  2  0  0  0  0
  1  3  1  0  0  0  0
  1  7  1  0  0  0  0
  3  4  1  0  0  0  0
  3  5  1  0  0  0  0
  3  6  1  0  0  0  0
  7  8  1  0  0  0  0
  7 12  1  0  0  0  0
  8  9  1  0  0  0  0
  8 11  1  0  0  0  0
  8 13  1  0  0  0  0
  9 10  2  0  0  0  0
  9 17  1  0  0  0  0
 11 14  1  0  0  0  0
 11 15  1  0  0  0  0
 11 16  1  0  0  0  0
 17 18  1  0  0  0  0
 17 22  1  0  0  0  0
 18 19  1  0  0  0  0
 18 21  1  0  0  0  0
 18 23  1  0  0  0  0
 19 20  2  0  0  0  0
 19 27  1  0  0  0  0
 21 24  1  0  0  0  0
 21 25  1  0  0  0  0
 21 26  1  0  0  0  0
 27 28  1  0  0  0  0
 27 32  1  0  0  0  0
 28 29  1  0  0  0  0
 28 31  1  0  0  0  0
 28 33  1  0  0  0  0
 29 30  2  0  0  0  0
 29 37  1  0  0  0  0
 31 34  1  0  0  0  0
 31 35  1  0  0  0  0
 31 36  1  0  0  0  0
 37 38  1  0  0  0  0
 37 39  1  0  0  0  0
 38 40  1  0  0  0  0
 38 41  1  0  0  0  0
 38 42  1  0  0  0  0
M  END
$$$$

  -OEChem-05262215353D

 42 41  0     1  0  0  0  0  0999 V2000
   -5.7256   -0.6481    1.8805 C   0  0  0  0  0  0  0  0  0  0  0  0
   -6.0510    0.5271    1.8175 O   0  0  0  0  0  0  0  0  0  0  0  0
   -6.7818   -1.7362    1.8382 C   0  0  0  0  0  0  0  0  0  0  0  0
   -6.7279   -2.3441    2.7449 H   0  0  0  0  0  0  0  0  0  0  0  0
   -7.7789   -1.2921    1.7702 H   0  0  0  0  0  0  0  0  0  0  0  0
   -6.6217   -2.3775    0.9679 H   0  0  0  0  0  0  0  0  0  0  0  0
   -4.3937   -0.9897    1.9797 N   0  0  0  0  0  0  0  0  0  0  0  0
   -3.2836   -0.0346    1.8704 C   0  0  2  0  0  0  0  0  0  0  0  0
   -2.0336   -0.6870    1.2449 C   0  0  0  0  0  0  0  0  0  0  0  0
   -1.9793   -1.9030    1.1089 O   0  0  0  0  0  0  0  0  0  0  0  0
   -2.9622    0.4963    3.2708 C   0  0  0  0  0  0  0  0  0  0  0  0
   -4.1582   -1.9788    1.8973 H   0  0  0  0  0  0  0  0  0  0  0  0
   -3.5766    0.7995    1.2237 H   0  0  0  0  0  0  0  0  0  0  0  0
   -2.6598   -0.3237    3.9300 H   0  0  0  0  0  0  0  0  0  0  0  0
   -2.1491    1.2272    3.2294 H   0  0  0  0  0  0  0  0  0  0  0  0
   -3.8426    0.9837    3.7022 H   0  0  0  0  0  0  0  0  0  0  0  0
   -0.9997    0.0925    0.7584 N   0  0  0  0  0  0  0  0  0  0  0  0
    0.3885   -0.3610    0.5361 C   0  0  2  0  0  0  0  0  0  0  0  0
    1.0565   -1.2060    1.6634 C   0  0  0  0  0  0  0  0  0  0  0  0
    2.0785   -0.8056    2.2100 O   0  0  0  0  0  0  0  0  0  0  0  0
    1.2027    0.8950    0.1917 C   0  0  0  0  0  0  0  0  0  0  0  0
   -1.1234    1.0913    0.8988 H   0  0  0  0  0  0  0  0  0  0  0  0
    0.3847   -1.0068   -0.3482 H   0  0  0  0  0  0  0  0  0  0  0  0
    1.2496    1.5727    1.0502 H   0  0  0  0  0  0  0  0  0  0  0  0
    2.2251    0.6199   -0.0873 H   0  0  0  0  0  0  0  0  0  0  0  0
    0.7504    1.4260   -0.6514 H   0  0  0  0  0  0  0  0  0  0  0  0
    0.5430   -2.4157    2.0871 N   0  0  0  0  0  0  0  0  0  0  0  0
    1.1040   -3.2481    3.1596 C   0  0  2  0  0  0  0  0  0  0  0  0
    0.7294   -4.7384    3.0137 C   0  0  0  0  0  0  0  0  0  0  0  0
   -0.2560   -5.0794    2.3712 O   0  0  0  0  0  0  0  0  0  0  0  0
    0.6018   -2.7094    4.5031 C   0  0  0  0  0  0  0  0  0  0  0  0
   -0.3488   -2.7087    1.6703 H   0  0  0  0  0  0  0  0  0  0  0  0
    2.1966   -3.1845    3.1307 H   0  0  0  0  0  0  0  0  0  0  0  0
   -0.4908   -2.7610    4.5501 H   0  0  0  0  0  0  0  0  0  0  0  0
    1.0159   -3.2949    5.3294 H   0  0  0  0  0  0  0  0  0  0  0  0
    0.9074   -1.6668    4.6336 H   0  0  0  0  0  0  0  0  0  0  0  0
    1.4958   -5.7107    3.6313 N   0  0  0  0  0  0  0  0  0  0  0  0
    1.2040   -7.1364    3.5405 C   0  0  0  0  0  0  0  0  0  0  0  0
    2.3185   -5.4066    4.1432 H   0  0  0  0  0  0  0  0  0  0  0  0
    0.2079   -7.3500    3.9426 H   0  0  0  0  0  0  0  0  0  0  0  0
    1.2426   -7.4700    2.4981 H   0  0  0  0  0  0  0  0  0  0  0  0
    1.9376   -7.7105    4.1143 H   0  0  0  0  0  0  0  0  0  0  0  0
  1  2  2  0  0  0  0
  1  3  1  0  0  0  0
  1  7  1  0  0  0  0
  3  4  1  0  0  0  0
  3  5  1  0  0  0  0
  3  6  1  0  0  0  0
  7  8  1  0  0  0  0
  7 12  1  0  0  0  0
  8  9  1  0  0  0  0
  8 11  1  0  0  0  0
  8 13  1  0  0  0  0
  9 10  2  0  0  0  0
  9 17  1  0  0  0  0
 11 14  1  0  0  0  0
 11 15  1  0  0  0  0
 11 16  1  0  0  0  0
 17 18  1  0  0  0  0
 17 22  1  0  0  0  0
 18 19  1  0  0  0  0
 18 21  1  0  0  0  0
 18 23  1  0  0  0  0
 19 20  2  0  0  0  0
 19 27  1  0  0  0  0
 21 24  1  0  0  0  0
 21 25  1  0  0  0  0
 21 26  1  0  0  0  0
 27 28  1  0  0  0  0
 27 32  1  0  0  0  0
 28 29  1  0  0  0  0
 28 31  1  0  0  0  0
 28 33  1  0  0  0  0
 29 30  2  0  0  0  0
 29 37  1  0  0  0  0
 31 34  1  0  0  0  0
 31 35  1  0  0  0  0
 31 36  1  0  0  0  0
 37 38  1  0  0  0  0
 37 39  1  0  0  0  0
 38 40  1  0  0  0  0
 38 41  1  0  0  0  0
 38 42  1  0  0  0  0
M  END
$$$$

  -OEChem-05262215353D

 42 41  0     1  0  0  0  0  0999 V2000
   -5.6792   -0.7162    1.8980 C   0  0  0  0  0  0  0  0  0  0  0  0
   -6.0225    0.4485    1.7707 O   0  0  0  0  0  0  0  0  0  0  0  0
   -6.7127   -1.8261    1.8569 C   0  0  0  0  0  0  0  0  0  0  0  0
   -6.7376   -2.3475    2.8167 H   0  0  0  0  0  0  0  0  0  0  0  0
   -7.7043   -1.4119    1.6546 H   0  0  0  0  0  0  0  0  0  0  0  0
   -6.4628   -2.5399    1.0683 H   0  0  0  0  0  0  0  0  0  0  0  0
   -4.3468   -1.0271    2.0685 N   0  0  0  0  0  0  0  0  0  0  0  0
   -3.2500   -0.0583    1.9433 C   0  0  2  0  0  0  0  0  0  0  0  0
   -1.9900   -0.7050    1.3315 C   0  0  0  0  0  0  0  0  0  0  0  0
   -1.9031   -1.9252    1.2547 O   0  0  0  0  0  0  0  0  0  0  0  0
   -2.9443    0.5068    3.3333 C   0  0  0  0  0  0  0  0  0  0  0  0
   -4.0914   -2.0139    2.0323 H   0  0  0  0  0  0  0  0  0  0  0  0
   -3.5515    0.7600    1.2804 H   0  0  0  0  0  0  0  0  0  0  0  0
   -2.6327   -0.2936    4.0124 H   0  0  0  0  0  0  0  0  0  0  0  0
   -2.1433    1.2504    3.2795 H   0  0  0  0  0  0  0  0  0  0  0  0
   -3.8350    0.9895    3.7488 H   0  0  0  0  0  0  0  0  0  0  0  0
   -0.9901    0.0821    0.7891 N   0  0  0  0  0  0  0  0  0  0  0  0
    0.3851   -0.3694    0.5050 C   0  0  2  0  0  0  0  0  0  0  0  0
    1.0834   -1.2002    1.6199 C   0  0  0  0  0  0  0  0  0  0  0  0
    1.9812   -0.7071    2.2937 O   0  0  0  0  0  0  0  0  0  0  0  0
    1.1897    0.8819    0.1285 C   0  0  0  0  0  0  0  0  0  0  0  0
   -1.1208    1.0829    0.9075 H   0  0  0  0  0  0  0  0  0  0  0  0
    0.3498   -1.0194   -0.3755 H   0  0  0  0  0  0  0  0  0  0  0  0
    1.2397    1.5784    0.9718 H   0  0  0  0  0  0  0  0  0  0  0  0
    2.2111    0.6050   -0.1517 H   0  0  0  0  0  0  0  0  0  0  0  0
    0.7273    1.3925   -0.7219 H   0  0  0  0  0  0  0  0  0  0  0  0
    0.7469   -2.5190    1.8500 N   0  0  0  0  0  0  0  0  0  0  0  0
    1.3390   -3.3736    2.8869 C   0  0  2  0  0  0  0  0  0  0  0  0
    1.2745   -4.8732    2.5269 C   0  0  0  0  0  0  0  0  0  0  0  0
    0.4626   -5.2921    1.7105 O   0  0  0  0  0  0  0  0  0  0  0  0
    0.6021   -3.1128    4.2043 C   0  0  0  0  0  0  0  0  0  0  0  0
   -0.1123   -2.8493    1.3983 H   0  0  0  0  0  0  0  0  0  0  0  0
    2.3959   -3.1152    3.0088 H   0  0  0  0  0  0  0  0  0  0  0  0
   -0.4589   -3.3625    4.1023 H   0  0  0  0  0  0  0  0  0  0  0  0
    1.0279   -3.7188    5.0096 H   0  0  0  0  0  0  0  0  0  0  0  0
    0.6873   -2.0586    4.4857 H   0  0  0  0  0  0  0  0  0  0  0  0
    2.1330   -5.7678    3.1398 N   0  0  0  0  0  0  0  0  0  0  0  0
    2.1471   -7.1954    2.8449 C   0  0  0  0  0  0  0  0  0  0  0  0
    2.8163   -5.3918    3.7901 H   0  0  0  0  0  0  0  0  0  0  0  0
    1.1668   -7.6389    3.0483 H   0  0  0  0  0  0  0  0  0  0  0  0
    2.4000   -7.3667    1.7934 H   0  0  0  0  0  0  0  0  0  0  0  0
    2.8904   -7.7032    3.4666 H   0  0  0  0  0  0  0  0  0  0  0  0
  1  2  2  0  0  0  0
  1  3  1  0  0  0  0
  1  7  1  0  0  0  0
  3  4  1  0  0  0  0
  3  5  1  0  0  0  0
  3  6  1  0  0  0  0
  7  8  1  0  0  0  0
  7 12  1  0  0  0  0
  8  9  1  0  0  0  0
  8 11  1  0  0  0  0
  8 13  1  0  0  0  0
  9 10  2  0  0  0  0
  9 17  1  0  0  0  0
 11 14  1  0  0  0  0
 11 15  1  0  0  0  0
 11 16  1  0  0  0  0
 17 18  1  0  0  0  0
 17 22  1  0  0  0  0
 18 19  1  0  0  0  0
 18 21  1  0  0  0  0
 18 23  1  0  0  0  0
 19 20  2  0  0  0  0
 19 27  1  0  0  0  0
 21 24  1  0  0  0  0
 21 25  1  0  0  0  0
 21 26  1  0  0  0  0
 27 28  1  0  0  0  0
 27 32  1  0  0  0  0
 28 29  1  0  0  0  0
 28 31  1  0  0  0  0
 28 33  1  0  0  0  0
 29 30  2  0  0  0  0
 29 37  1  0  0  0  0
 31 34  1  0  0  0  0
 31 35  1  0  0  0  0
 31 36  1  0  0  0  0
 37 38  1  0  0  0  0
 37 39  1  0  0  0  0
 38 40  1  0  0  0  0
 38 41  1  0  0  0  0
 38 42  1  0  0  0  0
M  END
$$$$

  -OEChem-05262215353D

 42 41  0     1  0  0  0  0  0999 V2000
   -5.5928   -0.8408    1.9964 C   0  0  0  0  0  0  0  0  0  0  0  0
   -5.9544    0.3250    1.9668 O   0  0  0  0  0  0  0  0  0  0  0  0
   -6.6195   -1.9571    1.9765 C   0  0  0  0  0  0  0  0  0  0  0  0
   -6.5281   -2.5632    2.8810 H   0  0  0  0  0  0  0  0  0  0  0  0
   -7.6293   -1.5395    1.9323 H   0  0  0  0  0  0  0  0  0  0  0  0
   -6.4629   -2.5931    1.1019 H   0  0  0  0  0  0  0  0  0  0  0  0
   -4.2486   -1.1447    2.0423 N   0  0  0  0  0  0  0  0  0  0  0  0
   -3.1723   -0.1514    1.9364 C   0  0  2  0  0  0  0  0  0  0  0  0
   -1.9138   -0.7348    1.2619 C   0  0  0  0  0  0  0  0  0  0  0  0
   -1.7766   -1.9486    1.1524 O   0  0  0  0  0  0  0  0  0  0  0  0
   -2.8369    0.3504    3.3442 C   0  0  0  0  0  0  0  0  0  0  0  0
   -3.9840   -2.1249    1.9506 H   0  0  0  0  0  0  0  0  0  0  0  0
   -3.5104    0.6915    1.3241 H   0  0  0  0  0  0  0  0  0  0  0  0
   -2.4962   -0.4771    3.9751 H   0  0  0  0  0  0  0  0  0  0  0  0
   -2.0470    1.1066    3.3053 H   0  0  0  0  0  0  0  0  0  0  0  0
   -3.7214    0.7999    3.8070 H   0  0  0  0  0  0  0  0  0  0  0  0
   -0.9565    0.1064    0.7234 N   0  0  0  0  0  0  0  0  0  0  0  0
    0.4262   -0.3056    0.4294 C   0  0  2  0  0  0  0  0  0  0  0  0
    1.1158   -1.1267    1.5517 C   0  0  0  0  0  0  0  0  0  0  0  0
    1.7792   -0.5644    2.4161 O   0  0  0  0  0  0  0  0  0  0  0  0
    1.2137    0.9669    0.0921 C   0  0  0  0  0  0  0  0  0  0  0  0
   -1.1063    1.0959    0.8982 H   0  0  0  0  0  0  0  0  0  0  0  0
    0.4146   -0.9406   -0.4624 H   0  0  0  0  0  0  0  0  0  0  0  0
    1.2384    1.6462    0.9506 H   0  0  0  0  0  0  0  0  0  0  0  0
    2.2441    0.7141   -0.1779 H   0  0  0  0  0  0  0  0  0  0  0  0
    0.7541    1.4883   -0.7533 H   0  0  0  0  0  0  0  0  0  0  0  0
    1.0255   -2.5042    1.5733 N   0  0  0  0  0  0  0  0  0  0  0  0
    1.5940   -3.3634    2.6194 C   0  0  2  0  0  0  0  0  0  0  0  0
    1.8637   -4.8007    2.1245 C   0  0  0  0  0  0  0  0  0  0  0  0
    1.3090   -5.2363    1.1223 O   0  0  0  0  0  0  0  0  0  0  0  0
    0.6216   -3.3863    3.8037 C   0  0  0  0  0  0  0  0  0  0  0  0
    0.3111   -2.9166    0.9695 H   0  0  0  0  0  0  0  0  0  0  0  0
    2.5527   -2.9480    2.9465 H   0  0  0  0  0  0  0  0  0  0  0  0
   -0.3472   -3.7907    3.4927 H   0  0  0  0  0  0  0  0  0  0  0  0
    1.0159   -4.0074    4.6133 H   0  0  0  0  0  0  0  0  0  0  0  0
    0.4679   -2.3741    4.1906 H   0  0  0  0  0  0  0  0  0  0  0  0
    2.7348   -5.6196    2.8208 N   0  0  0  0  0  0  0  0  0  0  0  0
    3.0488   -6.9851    2.4180 C   0  0  0  0  0  0  0  0  0  0  0  0
    3.1923   -5.2303    3.6396 H   0  0  0  0  0  0  0  0  0  0  0  0
    2.1466   -7.6056    2.4296 H   0  0  0  0  0  0  0  0  0  0  0  0
    3.4738   -6.9990    1.4087 H   0  0  0  0  0  0  0  0  0  0  0  0
    3.7783   -7.4235    3.1058 H   0  0  0  0  0  0  0  0  0  0  0  0
  1  2  2  0  0  0  0
  1  3  1  0  0  0  0
  1  7  1  0  0  0  0
  3  4  1  0  0  0  0
  3  5  1  0  0  0  0
  3  6  1  0  0  0  0
  7  8  1  0  0  0  0
  7 12  1  0  0  0  0
  8  9  1  0  0  0  0
  8 11  1  0  0  0  0
  8 13  1  0  0  0  0
  9 10  2  0  0  0  0
  9 17  1  0  0  0  0
 11 14  1  0  0  0  0
 11 15  1  0  0  0  0
 11 16  1  0  0  0  0
 17 18  1  0  0  0  0
 17 22  1  0  0  0  0
 18 19  1  0  0  0  0
 18 21  1  0  0  0  0
 18 23  1  0  0  0  0
 19 20  2  0  0  0  0
 19 27  1  0  0  0  0
 21 24  1  0  0  0  0
 21 25  1  0  0  0  0
 21 26  1  0  0  0  0
 27 28  1  0  0  0  0
 27 32  1  0  0  0  0
 28 29  1  0  0  0  0
 28 31  1  0  0  0  0
 28 33  1  0  0  0  0
 29 30  2  0  0  0  0
 29 37  1  0  0  0  0
 31 34  1  0  0  0  0
 31 35  1  0  0  0  0
 31 36  1  0  0  0  0
 37 38  1  0  0  0  0
 37 39  1  0  0  0  0
 38 40  1  0  0  0  0
 38 41  1  0  0  0  0
 38 42  1  0  0  0  0
M  END
$$$$

  -OEChem-05262215353D

 42 41  0     1  0  0  0  0  0999 V2000
   -5.5351   -0.9171    2.0376 C   0  0  0  0  0  0  0  0  0  0  0  0
   -5.9160    0.2426    2.0075 O   0  0  0  0  0  0  0  0  0  0  0  0
   -6.5442   -2.0495    2.0194 C   0  0  0  0  0  0  0  0  0  0  0  0
   -6.4653   -2.6334    2.9395 H   0  0  0  0  0  0  0  0  0  0  0  0
   -7.5588   -1.6485    1.9421 H   0  0  0  0  0  0  0  0  0  0  0  0
   -6.3577   -2.7026    1.1634 H   0  0  0  0  0  0  0  0  0  0  0  0
   -4.1861   -1.1993    2.0803 N   0  0  0  0  0  0  0  0  0  0  0  0
   -3.1261   -0.1906    1.9584 C   0  0  2  0  0  0  0  0  0  0  0  0
   -1.8854   -0.7453    1.2300 C   0  0  0  0  0  0  0  0  0  0  0  0
   -1.7249   -1.9560    1.1119 O   0  0  0  0  0  0  0  0  0  0  0  0
   -2.7483    0.2853    3.3641 C   0  0  0  0  0  0  0  0  0  0  0  0
   -3.9065   -2.1751    1.9871 H   0  0  0  0  0  0  0  0  0  0  0  0
   -3.4923    0.6612    1.3755 H   0  0  0  0  0  0  0  0  0  0  0  0
   -2.3727   -0.5504    3.9636 H   0  0  0  0  0  0  0  0  0  0  0  0
   -1.9708    1.0540    3.3151 H   0  0  0  0  0  0  0  0  0  0  0  0
   -3.6228    0.7105    3.8671 H   0  0  0  0  0  0  0  0  0  0  0  0
   -0.9634    0.1189    0.6670 N   0  0  0  0  0  0  0  0  0  0  0  0
    0.4202   -0.2786    0.3644 C   0  0  2  0  0  0  0  0  0  0  0  0
    1.1116   -1.0695    1.5033 C   0  0  0  0  0  0  0  0  0  0  0  0
    1.5131   -0.4854    2.5040 O   0  0  0  0  0  0  0  0  0  0  0  0
    1.2040    0.9918    0.0169 C   0  0  0  0  0  0  0  0  0  0  0  0
   -1.1169    1.1016    0.8745 H   0  0  0  0  0  0  0  0  0  0  0  0
    0.4091   -0.9247   -0.5192 H   0  0  0  0  0  0  0  0  0  0  0  0
    1.2293    1.6769    0.8707 H   0  0  0  0  0  0  0  0  0  0  0  0
    2.2341    0.7391   -0.2538 H   0  0  0  0  0  0  0  0  0  0  0  0
    0.7407    1.5062   -0.8307 H   0  0  0  0  0  0  0  0  0  0  0  0
    1.3001   -2.4330    1.3994 N   0  0  0  0  0  0  0  0  0  0  0  0
    1.8939   -3.2800    2.4398 C   0  0  2  0  0  0  0  0  0  0  0  0
    2.5001   -4.5743    1.8571 C   0  0  0  0  0  0  0  0  0  0  0  0
    2.1957   -4.9562    0.7325 O   0  0  0  0  0  0  0  0  0  0  0  0
    0.8069   -3.6176    3.4658 C   0  0  0  0  0  0  0  0  0  0  0  0
    0.8449   -2.9066    0.6194 H   0  0  0  0  0  0  0  0  0  0  0  0
    2.7031   -2.7338    2.9357 H   0  0  0  0  0  0  0  0  0  0  0  0
   -0.0160   -4.1569    2.9854 H   0  0  0  0  0  0  0  0  0  0  0  0
    1.2141   -4.2419    4.2666 H   0  0  0  0  0  0  0  0  0  0  0  0
    0.4071   -2.7021    3.9129 H   0  0  0  0  0  0  0  0  0  0  0  0
    3.3979   -5.3186    2.6007 N   0  0  0  0  0  0  0  0  0  0  0  0
    4.0218   -6.5414    2.1098 C   0  0  0  0  0  0  0  0  0  0  0  0
    3.6454   -4.9731    3.5233 H   0  0  0  0  0  0  0  0  0  0  0  0
    3.2606   -7.2943    1.8795 H   0  0  0  0  0  0  0  0  0  0  0  0
    4.6014   -6.3378    1.2031 H   0  0  0  0  0  0  0  0  0  0  0  0
    4.6967   -6.9523    2.8666 H   0  0  0  0  0  0  0  0  0  0  0  0
  1  2  2  0  0  0  0
  1  3  1  0  0  0  0
  1  7  1  0  0  0  0
  3  4  1  0  0  0  0
  3  5  1  0  0  0  0
  3  6  1  0  0  0  0
  7  8  1  0  0  0  0
  7 12  1  0  0  0  0
  8  9  1  0  0  0  0
  8 11  1  0  0  0  0
  8 13  1  0  0  0  0
  9 10  2  0  0  0  0
  9 17  1  0  0  0  0
 11 14  1  0  0  0  0
 11 15  1  0  0  0  0
 11 16  1  0  0  0  0
 17 18  1  0  0  0  0
 17 22  1  0  0  0  0
 18 19  1  0  0  0  0
 18 21  1  0  0  0  0
 18 23  1  0  0  0  0
 19 20  2  0  0  0  0
 19 27  1  0  0  0  0
 21 24  1  0  0  0  0
 21 25  1  0  0  0  0
 21 26  1  0  0  0  0
 27 28  1  0  0  0  0
 27 32  1  0  0  0  0
 28 29  1  0  0  0  0
 28 31  1  0  0  0  0
 28 33  1  0  0  0  0
 29 30  2  0  0  0  0
 29 37  1  0  0  0  0
 31 34  1  0  0  0  0
 31 35  1  0  0  0  0
 31 36  1  0  0  0  0
 37 38  1  0  0  0  0
 37 39  1  0  0  0  0
 38 40  1  0  0  0  0
 38 41  1  0  0  0  0
 38 42  1  0  0  0  0
M  END
$$$$

  -OEChem-05262215353D

 42 41  0     1  0  0  0  0  0999 V2000
   -5.5051   -0.9409    2.0675 C   0  0  0  0  0  0  0  0  0  0  0  0
   -5.8889    0.2179    2.0421 O   0  0  0  0  0  0  0  0  0  0  0  0
   -6.5120   -2.0757    2.0478 C   0  0  0  0  0  0  0  0  0  0  0  0
   -6.4233   -2.6692    2.9610 H   0  0  0  0  0  0  0  0  0  0  0  0
   -7.5283   -1.6766    1.9842 H   0  0  0  0  0  0  0  0  0  0  0  0
   -6.3321   -2.7198    1.1835 H   0  0  0  0  0  0  0  0  0  0  0  0
   -4.1555   -1.2213    2.1026 N   0  0  0  0  0  0  0  0  0  0  0  0
   -3.0961   -0.2125    1.9726 C   0  0  2  0  0  0  0  0  0  0  0  0
   -1.8863   -0.7528    1.1846 C   0  0  0  0  0  0  0  0  0  0  0  0
   -1.7208   -1.9621    1.0557 O   0  0  0  0  0  0  0  0  0  0  0  0
   -2.6617    0.2133    3.3780 C   0  0  0  0  0  0  0  0  0  0  0  0
   -3.8760   -2.1954    1.9942 H   0  0  0  0  0  0  0  0  0  0  0  0
   -3.4762    0.6604    1.4312 H   0  0  0  0  0  0  0  0  0  0  0  0
   -2.2719   -0.6455    3.9346 H   0  0  0  0  0  0  0  0  0  0  0  0
   -1.8780    0.9753    3.3246 H   0  0  0  0  0  0  0  0  0  0  0  0
   -3.5120    0.6295    3.9278 H   0  0  0  0  0  0  0  0  0  0  0  0
   -0.9889    0.1210    0.5966 N   0  0  0  0  0  0  0  0  0  0  0  0
    0.3952   -0.2739    0.2950 C   0  0  2  0  0  0  0  0  0  0  0  0
    1.0877   -1.0333    1.4523 C   0  0  0  0  0  0  0  0  0  0  0  0
    1.2395   -0.4826    2.5379 O   0  0  0  0  0  0  0  0  0  0  0  0
    1.1798    0.9897   -0.0682 C   0  0  0  0  0  0  0  0  0  0  0  0
   -1.1341    1.0969    0.8379 H   0  0  0  0  0  0  0  0  0  0  0  0
    0.3838   -0.9373   -0.5756 H   0  0  0  0  0  0  0  0  0  0  0  0
    1.2046    1.6850    0.7772 H   0  0  0  0  0  0  0  0  0  0  0  0
    2.2098    0.7327   -0.3346 H   0  0  0  0  0  0  0  0  0  0  0  0
    0.7171    1.4930   -0.9227 H   0  0  0  0  0  0  0  0  0  0  0  0
    1.5605   -2.3181    1.2735 N   0  0  0  0  0  0  0  0  0  0  0  0
    2.2084   -3.1255    2.3127 C   0  0  2  0  0  0  0  0  0  0  0  0
    3.1374   -4.2007    1.7101 C   0  0  0  0  0  0  0  0  0  0  0  0
    3.0695   -4.4851    0.5191 O   0  0  0  0  0  0  0  0  0  0  0  0
    1.1150   -3.7777    3.1655 C   0  0  0  0  0  0  0  0  0  0  0  0
    1.3859   -2.7688    0.3764 H   0  0  0  0  0  0  0  0  0  0  0  0
    2.8239   -2.4783    2.9460 H   0  0  0  0  0  0  0  0  0  0  0  0
    0.4851   -4.4257    2.5474 H   0  0  0  0  0  0  0  0  0  0  0  0
    1.5570   -4.3792    3.9652 H   0  0  0  0  0  0  0  0  0  0  0  0
    0.4802   -3.0111    3.6215 H   0  0  0  0  0  0  0  0  0  0  0  0
    4.0633   -4.8488    2.5074 N   0  0  0  0  0  0  0  0  0  0  0  0
    4.9790   -5.8671    2.0071 C   0  0  0  0  0  0  0  0  0  0  0  0
    4.1061   -4.5854    3.4875 H   0  0  0  0  0  0  0  0  0  0  0  0
    4.4217   -6.7148    1.5945 H   0  0  0  0  0  0  0  0  0  0  0  0
    5.6218   -5.4532    1.2230 H   0  0  0  0  0  0  0  0  0  0  0  0
    5.6157   -6.2341    2.8179 H   0  0  0  0  0  0  0  0  0  0  0  0
  1  2  2  0  0  0  0
  1  3  1  0  0  0  0
  1  7  1  0  0  0  0
  3  4  1  0  0  0  0
  3  5  1  0  0  0  0
  3  6  1  0  0  0  0
  7  8  1  0  0  0  0
  7 12  1  0  0  0  0
  8  9  1  0  0  0  0
  8 11  1  0  0  0  0
  8 13  1  0  0  0  0
  9 10  2  0  0  0  0
  9 17  1  0  0  0  0
 11 14  1  0  0  0  0
 11 15  1  0  0  0  0
 11 16  1  0  0  0  0
 17 18  1  0  0  0  0
 17 22  1  0  0  0  0
 18 19  1  0  0  0  0
 18 21  1  0  0  0  0
 18 23  1  0  0  0  0
 19 20  2  0  0  0  0
 19 27  1  0  0  0  0
 21 24  1  0  0  0  0
 21 25  1  0  0  0  0
 21 26  1  0  0  0  0
 27 28  1  0  0  0  0
 27 32  1  0  0  0  0
 28 29  1  0  0  0  0
 28 31  1  0  0  0  0
 28 33  1  0  0  0  0
 29 30  2  0  0  0  0
 29 37  1  0  0  0  0
 31 34  1  0  0  0  0
 31 35  1  0  0  0  0
 31 36  1  0  0  0  0
 37 38  1  0  0  0  0
 37 39  1  0  0  0  0
 38 40  1  0  0  0  0
 38 41  1  0  0  0  0
 38 42  1  0  0  0  0
M  END
$$$$

  -OEChem-05262215353D

 42 41  0     1  0  0  0  0  0999 V2000
   -5.5144   -0.9194    2.0309 C   0  0  0  0  0  0  0  0  0  0  0  0
   -5.8980    0.2361    1.9382 O   0  0  0  0  0  0  0  0  0  0  0  0
   -6.5192   -2.0561    2.0215 C   0  0  0  0  0  0  0  0  0  0  0  0
   -6.4668   -2.6075    2.9633 H   0  0  0  0  0  0  0  0  0  0  0  0
   -7.5324   -1.6629    1.8986 H   0  0  0  0  0  0  0  0  0  0  0  0
   -6.3036   -2.7380    1.1954 H   0  0  0  0  0  0  0  0  0  0  0  0
   -4.1681   -1.1976    2.1350 N   0  0  0  0  0  0  0  0  0  0  0  0
   -3.1009   -0.2008    1.9774 C   0  0  2  0  0  0  0  0  0  0  0  0
   -1.9181   -0.7579    1.1602 C   0  0  0  0  0  0  0  0  0  0  0  0
   -1.7737   -1.9697    1.0256 O   0  0  0  0  0  0  0  0  0  0  0  0
   -2.6278    0.2168    3.3721 C   0  0  0  0  0  0  0  0  0  0  0  0
   -3.8899   -2.1760    2.0710 H   0  0  0  0  0  0  0  0  0  0  0  0
   -3.4806    0.6783    1.4462 H   0  0  0  0  0  0  0  0  0  0  0  0
   -2.2319   -0.6473    3.9158 H   0  0  0  0  0  0  0  0  0  0  0  0
   -1.8383    0.9713    3.3019 H   0  0  0  0  0  0  0  0  0  0  0  0
   -3.4603    0.6387    3.9440 H   0  0  0  0  0  0  0  0  0  0  0  0
   -1.0164    0.1009    0.5554 N   0  0  0  0  0  0  0  0  0  0  0  0
    0.3660   -0.3182    0.2766 C   0  0  2  0  0  0  0  0  0  0  0  0
    1.0438   -1.0534    1.4579 C   0  0  0  0  0  0  0  0  0  0  0  0
    1.0069   -0.5644    2.5829 O   0  0  0  0  0  0  0  0  0  0  0  0
    1.1763    0.9228   -0.1071 C   0  0  0  0  0  0  0  0  0  0  0  0
   -1.1449    1.0781    0.8006 H   0  0  0  0  0  0  0  0  0  0  0  0
    0.3501   -1.0046   -0.5763 H   0  0  0  0  0  0  0  0  0  0  0  0
    1.2167    1.6302    0.7277 H   0  0  0  0  0  0  0  0  0  0  0  0
    2.2006    0.6400   -0.3704 H   0  0  0  0  0  0  0  0  0  0  0  0
    0.7239    1.4225   -0.9692 H   0  0  0  0  0  0  0  0  0  0  0  0
    1.7708   -2.2079    1.2461 N   0  0  0  0  0  0  0  0  0  0  0  0
    2.5194   -2.9308    2.2800 C   0  0  2  0  0  0  0  0  0  0  0  0
    3.7070   -3.7118    1.6786 C   0  0  0  0  0  0  0  0  0  0  0  0
    3.7846   -3.8820    0.4664 O   0  0  0  0  0  0  0  0  0  0  0  0
    1.5536   -3.8812    2.9954 C   0  0  0  0  0  0  0  0  0  0  0  0
    1.8251   -2.5709    0.2955 H   0  0  0  0  0  0  0  0  0  0  0  0
    2.9281   -2.2174    3.0033 H   0  0  0  0  0  0  0  0  0  0  0  0
    1.1408   -4.6091    2.2893 H   0  0  0  0  0  0  0  0  0  0  0  0
    2.0666   -4.4224    3.7956 H   0  0  0  0  0  0  0  0  0  0  0  0
    0.7245   -3.3185    3.4366 H   0  0  0  0  0  0  0  0  0  0  0  0
    4.7014   -4.2170    2.4960 N   0  0  0  0  0  0  0  0  0  0  0  0
    5.8515   -4.9579    1.9914 C   0  0  0  0  0  0  0  0  0  0  0  0
    4.6210   -4.0497    3.4947 H   0  0  0  0  0  0  0  0  0  0  0  0
    5.5243   -5.8637    1.4702 H   0  0  0  0  0  0  0  0  0  0  0  0
    6.4308   -4.3414    1.2960 H   0  0  0  0  0  0  0  0  0  0  0  0
    6.5055   -5.2517    2.8178 H   0  0  0  0  0  0  0  0  0  0  0  0
  1  2  2  0  0  0  0
  1  3  1  0  0  0  0
  1  7  1  0  0  0  0
  3  4  1  0  0  0  0
  3  5  1  0  0  0  0
  3  6  1  0  0  0  0
  7  8  1  0  0  0  0
  7 12  1  0  0  0  0
  8  9  1  0  0  0  0
  8 11  1  0  0  0  0
  8 13  1  0  0  0  0
  9 10  2  0  0  0  0
  9 17  1  0  0  0  0
 11 14  1  0  0  0  0
 11 15  1  0  0  0  0
 11 16  1  0  0  0  0
 17 18  1  0  0  0  0
 17 22  1  0  0  0  0
 18 19  1  0  0  0  0
 18 21  1  0  0  0  0
 18 23  1  0  0  0  0
 19 20  2  0  0  0  0
 19 27  1  0  0  0  0
 21 24  1  0  0  0  0
 21 25  1  0  0  0  0
 21 26  1  0  0  0  0
 27 28  1  0  0  0  0
 27 32  1  0  0  0  0
 28 29  1  0  0  0  0
 28 31  1  0  0  0  0
 28 33  1  0  0  0  0
 29 30  2  0  0  0  0
 29 37  1  0  0  0  0
 31 34  1  0  0  0  0
 31 35  1  0  0  0  0
 31 36  1  0  0  0  0
 37 38  1  0  0  0  0
 37 39  1  0  0  0  0
 38 40  1  0  0  0  0
 38 41  1  0  0  0  0
 38 42  1  0  0  0  0
M  END
$$$$

  -OEChem-05262215353D

 42 41  0     1  0  0  0  0  0999 V2000
   -5.5329   -0.8837    2.0300 C   0  0  0  0  0  0  0  0  0  0  0  0
   -5.8901    0.2830    1.9814 O   0  0  0  0  0  0  0  0  0  0  0  0
   -6.5658   -1.9947    2.0193 C   0  0  0  0  0  0  0  0  0  0  0  0
   -6.4942   -2.5776    2.9407 H   0  0  0  0  0  0  0  0  0  0  0  0
   -7.5723   -1.5732    1.9456 H   0  0  0  0  0  0  0  0  0  0  0  0
   -6.3967   -2.6536    1.1640 H   0  0  0  0  0  0  0  0  0  0  0  0
   -4.1916   -1.1972    2.0863 N   0  0  0  0  0  0  0  0  0  0  0  0
   -3.1048   -0.2200    1.9432 C   0  0  2  0  0  0  0  0  0  0  0  0
   -1.9322   -0.7857    1.1177 C   0  0  0  0  0  0  0  0  0  0  0  0
   -1.8051   -1.9978    0.9687 O   0  0  0  0  0  0  0  0  0  0  0  0
   -2.6226    0.1683    3.3431 C   0  0  0  0  0  0  0  0  0  0  0  0
   -3.9365   -2.1803    1.9999 H   0  0  0  0  0  0  0  0  0  0  0  0
   -3.4688    0.6734    1.4251 H   0  0  0  0  0  0  0  0  0  0  0  0
   -2.2430   -0.7111    3.8737 H   0  0  0  0  0  0  0  0  0  0  0  0
   -1.8177    0.9073    3.2814 H   0  0  0  0  0  0  0  0  0  0  0  0
   -3.4454    0.5989    3.9225 H   0  0  0  0  0  0  0  0  0  0  0  0
   -1.0229    0.0657    0.5136 N   0  0  0  0  0  0  0  0  0  0  0  0
    0.3627   -0.3632    0.2651 C   0  0  2  0  0  0  0  0  0  0  0  0
    1.0312   -1.0831    1.4624 C   0  0  0  0  0  0  0  0  0  0  0  0
    0.8245   -0.6924    2.6076 O   0  0  0  0  0  0  0  0  0  0  0  0
    1.1761    0.8746   -0.1194 C   0  0  0  0  0  0  0  0  0  0  0  0
   -1.1462    1.0427    0.7619 H   0  0  0  0  0  0  0  0  0  0  0  0
    0.3584   -1.0611   -0.5785 H   0  0  0  0  0  0  0  0  0  0  0  0
    1.2022    1.5897    0.7093 H   0  0  0  0  0  0  0  0  0  0  0  0
    2.2048    0.5927   -0.3658 H   0  0  0  0  0  0  0  0  0  0  0  0
    0.7341    1.3644   -0.9927 H   0  0  0  0  0  0  0  0  0  0  0  0
    1.9984   -2.0455    1.2479 N   0  0  0  0  0  0  0  0  0  0  0  0
    2.8188   -2.6568    2.2997 C   0  0  2  0  0  0  0  0  0  0  0  0
    4.1844   -3.1244    1.7540 C   0  0  0  0  0  0  0  0  0  0  0  0
    4.3935   -3.1437    0.5454 O   0  0  0  0  0  0  0  0  0  0  0  0
    2.0392   -3.8328    2.8965 C   0  0  0  0  0  0  0  0  0  0  0  0
    2.2385   -2.2744    0.2842 H   0  0  0  0  0  0  0  0  0  0  0  0
    3.0174   -1.9197    3.0848 H   0  0  0  0  0  0  0  0  0  0  0  0
    1.8278   -4.5818    2.1266 H   0  0  0  0  0  0  0  0  0  0  0  0
    2.6114   -4.3077    3.6987 H   0  0  0  0  0  0  0  0  0  0  0  0
    1.0882   -3.4843    3.3121 H   0  0  0  0  0  0  0  0  0  0  0  0
    5.1938   -3.5011    2.6210 N   0  0  0  0  0  0  0  0  0  0  0  0
    6.5147   -3.9280    2.1750 C   0  0  0  0  0  0  0  0  0  0  0  0
    4.9973   -3.4656    3.6171 H   0  0  0  0  0  0  0  0  0  0  0  0
    6.4380   -4.8331    1.5631 H   0  0  0  0  0  0  0  0  0  0  0  0
    6.9924   -3.1407    1.5820 H   0  0  0  0  0  0  0  0  0  0  0  0
    7.1536   -4.1460    3.0365 H   0  0  0  0  0  0  0  0  0  0  0  0
  1  2  2  0  0  0  0
  1  3  1  0  0  0  0
  1  7  1  0  0  0  0
  3  4  1  0  0  0  0
  3  5  1  0  0  0  0
  3  6  1  0  0  0  0
  7  8  1  0  0  0  0
  7 12  1  0  0  0  0
  8  9  1  0  0  0  0
  8 11  1  0  0  0  0
  8 13  1  0  0  0  0
  9 10  2  0  0  0  0
  9 17  1  0  0  0  0
 11 14  1  0  0  0  0
 11 15  1  0  0  0  0
 11 16  1  0  0  0  0
 17 18  1  0  0  0  0
 17 22  1  0  0  0  0
 18 19  1  0  0  0  0
 18 21  1  0  0  0  0
 18 23  1  0  0  0  0
 19 20  2  0  0  0  0
 19 27  1  0  0  0  0
 21 24  1  0  0  0  0
 21 25  1  0  0  0  0
 21 26  1  0  0  0  0
 27 28  1  0  0  0  0
 27 32  1  0  0  0  0
 28 29  1  0  0  0  0
 28 31  1  0  0  0  0
 28 33  1  0  0  0  0
 29 30  2  0  0  0  0
 29 37  1  0  0  0  0
 31 34  1  0  0  0  0
 31 35  1  0  0  0  0
 31 36  1  0  0  0  0
 37 38  1  0  0  0  0
 37 39  1  0  0  0  0
 38 40  1  0  0  0  0
 38 41  1  0  0  0  0
 38 42  1  0  0  0  0
M  END
$$$$

  -OEChem-05262215353D

 42 41  0     1  0  0  0  0  0999 V2000
   -5.5628   -0.8402    1.9990 C   0  0  0  0  0  0  0  0  0  0  0  0
   -5.9028    0.3319    1.9542 O   0  0  0  0  0  0  0  0  0  0  0  0
   -6.6126   -1.9358    1.9822 C   0  0  0  0  0  0  0  0  0  0  0  0
   -6.5537   -2.5242    2.9012 H   0  0  0  0  0  0  0  0  0  0  0  0
   -7.6125   -1.4989    1.9065 H   0  0  0  0  0  0  0  0  0  0  0  0
   -6.4507   -2.5941    1.1252 H   0  0  0  0  0  0  0  0  0  0  0  0
   -4.2257   -1.1723    2.0543 N   0  0  0  0  0  0  0  0  0  0  0  0
   -3.1244   -0.2109    1.9127 C   0  0  2  0  0  0  0  0  0  0  0  0
   -1.9469   -0.8028    1.1116 C   0  0  0  0  0  0  0  0  0  0  0  0
   -1.8545   -2.0154    0.9421 O   0  0  0  0  0  0  0  0  0  0  0  0
   -2.6584    0.1954    3.3132 C   0  0  0  0  0  0  0  0  0  0  0  0
   -3.9841   -2.1584    1.9643 H   0  0  0  0  0  0  0  0  0  0  0  0
   -3.4705    0.6781    1.3750 H   0  0  0  0  0  0  0  0  0  0  0  0
   -2.2912   -0.6780    3.8622 H   0  0  0  0  0  0  0  0  0  0  0  0
   -1.8487    0.9289    3.2522 H   0  0  0  0  0  0  0  0  0  0  0  0
   -3.4864    0.6394    3.8745 H   0  0  0  0  0  0  0  0  0  0  0  0
   -1.0091    0.0290    0.5240 N   0  0  0  0  0  0  0  0  0  0  0  0
    0.3740   -0.4251    0.3045 C   0  0  2  0  0  0  0  0  0  0  0  0
    1.0270   -1.1557    1.5064 C   0  0  0  0  0  0  0  0  0  0  0  0
    0.6783   -0.9010    2.6553 O   0  0  0  0  0  0  0  0  0  0  0  0
    1.2050    0.8052   -0.0703 C   0  0  0  0  0  0  0  0  0  0  0  0
   -1.1190    1.0072    0.7725 H   0  0  0  0  0  0  0  0  0  0  0  0
    0.3723   -1.1246   -0.5378 H   0  0  0  0  0  0  0  0  0  0  0  0
    1.2372    1.5144    0.7632 H   0  0  0  0  0  0  0  0  0  0  0  0
    2.2310    0.5140   -0.3166 H   0  0  0  0  0  0  0  0  0  0  0  0
    0.7719    1.3067   -0.9415 H   0  0  0  0  0  0  0  0  0  0  0  0
    2.1820   -1.8907    1.3171 N   0  0  0  0  0  0  0  0  0  0  0  0
    3.0508   -2.3824    2.3936 C   0  0  2  0  0  0  0  0  0  0  0  0
    4.5227   -2.4614    1.9358 C   0  0  0  0  0  0  0  0  0  0  0  0
    4.8092   -2.3061    0.7529 O   0  0  0  0  0  0  0  0  0  0  0  0
    2.5421   -3.7591    2.8314 C   0  0  0  0  0  0  0  0  0  0  0  0
    2.5552   -1.9467    0.3703 H   0  0  0  0  0  0  0  0  0  0  0  0
    3.0120   -1.6952    3.2456 H   0  0  0  0  0  0  0  0  0  0  0  0
    2.5802   -4.4644    1.9951 H   0  0  0  0  0  0  0  0  0  0  0  0
    3.1516   -4.1539    3.6494 H   0  0  0  0  0  0  0  0  0  0  0  0
    1.5063   -3.6865    3.1784 H   0  0  0  0  0  0  0  0  0  0  0  0
    5.5333   -2.6864    2.8527 N   0  0  0  0  0  0  0  0  0  0  0  0
    6.9426   -2.7674    2.4873 C   0  0  0  0  0  0  0  0  0  0  0  0
    5.2685   -2.8057    3.8263 H   0  0  0  0  0  0  0  0  0  0  0  0
    7.1148   -3.6110    1.8103 H   0  0  0  0  0  0  0  0  0  0  0  0
    7.2640   -1.8454    1.9909 H   0  0  0  0  0  0  0  0  0  0  0  0
    7.5579   -2.9096    3.3812 H   0  0  0  0  0  0  0  0  0  0  0  0
  1  2  2  0  0  0  0
  1  3  1  0  0  0  0
  1  7  1  0  0  0  0
  3  4  1  0  0  0  0
  3  5  1  0  0  0  0
  3  6  1  0  0  0  0
  7  8  1  0  0  0  0
  7 12  1  0  0  0  0
  8  9  1  0  0  0  0
  8 11  1  0  0  0  0
  8 13  1  0  0  0  0
  9 10  2  0  0  0  0
  9 17  1  0  0  0  0
 11 14  1  0  0  0  0
 11 15  1  0  0  0  0
 11 16  1  0  0  0  0
 17 18  1  0  0  0  0
 17 22  1  0  0  0  0
 18 19  1  0  0  0  0
 18 21  1  0  0  0  0
 18 23  1  0  0  0  0
 19 20  2  0  0  0  0
 19 27  1  0  0  0  0
 21 24  1  0  0  0  0
 21 25  1  0  0  0  0
 21 26  1  0  0  0  0
 27 28  1  0  0  0  0
 27 32  1  0  0  0  0
 28 29  1  0  0  0  0
 28 31  1  0  0  0  0
 28 33  1  0  0  0  0
 29 30  2  0  0  0  0
 29 37  1  0  0  0  0
 31 34  1  0  0  0  0
 31 35  1  0  0  0  0
 31 36  1  0  0  0  0
 37 38  1  0  0  0  0
 37 39  1  0  0  0  0
 38 40  1  0  0  0  0
 38 41  1  0  0  0  0
 38 42  1  0  0  0  0
M  END
$$$$

  -OEChem-05262215353D

 42 41  0     1  0  0  0  0  0999 V2000
   -5.6141   -0.7170    1.9896 C   0  0  0  0  0  0  0  0  0  0  0  0
   -5.8873    0.4719    2.0506 O   0  0  0  0  0  0  0  0  0  0  0  0
   -6.7243   -1.7485    1.9150 C   0  0  0  0  0  0  0  0  0  0  0  0
   -6.6738   -2.4145    2.7795 H   0  0  0  0  0  0  0  0  0  0  0  0
   -7.6993   -1.2535    1.9085 H   0  0  0  0  0  0  0  0  0  0  0  0
   -6.6243   -2.3399    1.0018 H   0  0  0  0  0  0  0  0  0  0  0  0
   -4.2976   -1.1255    1.9781 N   0  0  0  0  0  0  0  0  0  0  0  0
   -3.1488   -0.2171    1.8741 C   0  0  2  0  0  0  0  0  0  0  0  0
   -2.0106   -0.8293    1.0316 C   0  0  0  0  0  0  0  0  0  0  0  0
   -2.0426   -2.0125    0.7061 O   0  0  0  0  0  0  0  0  0  0  0  0
   -2.6516    0.0943    3.2884 C   0  0  0  0  0  0  0  0  0  0  0  0
   -4.1142   -2.1114    1.7937 H   0  0  0  0  0  0  0  0  0  0  0  0
   -3.4540    0.7136    1.3842 H   0  0  0  0  0  0  0  0  0  0  0  0
   -2.3254   -0.8236    3.7889 H   0  0  0  0  0  0  0  0  0  0  0  0
   -1.8066    0.7884    3.2561 H   0  0  0  0  0  0  0  0  0  0  0  0
   -3.4519    0.5503    3.8799 H   0  0  0  0  0  0  0  0  0  0  0  0
   -1.0102   -0.0280    0.5075 N   0  0  0  0  0  0  0  0  0  0  0  0
    0.3795   -0.5020    0.3532 C   0  0  2  0  0  0  0  0  0  0  0  0
    0.9106   -1.5556    1.3689 C   0  0  0  0  0  0  0  0  0  0  0  0
    0.3833   -1.7066    2.4663 O   0  0  0  0  0  0  0  0  0  0  0  0
    1.2643    0.7506    0.3947 C   0  0  0  0  0  0  0  0  0  0  0  0
   -1.1030    0.9459    0.7774 H   0  0  0  0  0  0  0  0  0  0  0  0
    0.4603   -0.9626   -0.6368 H   0  0  0  0  0  0  0  0  0  0  0  0
    1.2298    1.2100    1.3880 H   0  0  0  0  0  0  0  0  0  0  0  0
    2.3048    0.4991    0.1667 H   0  0  0  0  0  0  0  0  0  0  0  0
    0.9243    1.4840   -0.3434 H   0  0  0  0  0  0  0  0  0  0  0  0
    2.2086   -2.0153    1.2351 N   0  0  0  0  0  0  0  0  0  0  0  0
    2.9732   -2.7140    2.2761 C   0  0  2  0  0  0  0  0  0  0  0  0
    4.4883   -2.4669    2.1198 C   0  0  0  0  0  0  0  0  0  0  0  0
    4.9206   -1.8978    1.1223 O   0  0  0  0  0  0  0  0  0  0  0  0
    2.6528   -4.2095    2.1876 C   0  0  0  0  0  0  0  0  0  0  0  0
    2.7340   -1.7090    0.4173 H   0  0  0  0  0  0  0  0  0  0  0  0
    2.6842   -2.3397    3.2640 H   0  0  0  0  0  0  0  0  0  0  0  0
    2.9475   -4.6062    1.2108 H   0  0  0  0  0  0  0  0  0  0  0  0
    3.1848   -4.7650    2.9653 H   0  0  0  0  0  0  0  0  0  0  0  0
    1.5788   -4.3754    2.3209 H   0  0  0  0  0  0  0  0  0  0  0  0
    5.3686   -2.8628    3.1098 N   0  0  0  0  0  0  0  0  0  0  0  0
    6.8074   -2.6379    3.0408 C   0  0  0  0  0  0  0  0  0  0  0  0
    4.9791   -3.3142    3.9325 H   0  0  0  0  0  0  0  0  0  0  0  0
    7.2296   -3.1209    2.1532 H   0  0  0  0  0  0  0  0  0  0  0  0
    7.0259   -1.5657    2.9962 H   0  0  0  0  0  0  0  0  0  0  0  0
    7.2979   -3.0542    3.9261 H   0  0  0  0  0  0  0  0  0  0  0  0
  1  2  2  0  0  0  0
  1  3  1  0  0  0  0
  1  7  1  0  0  0  0
  3  4  1  0  0  0  0
  3  5  1  0  0  0  0
  3  6  1  0  0  0  0
  7  8  1  0  0  0  0
  7 12  1  0  0  0  0
  8  9  1  0  0  0  0
  8 11  1  0  0  0  0
  8 13  1  0  0  0  0
  9 10  2  0  0  0  0
  9 17  1  0  0  0  0
 11 14  1  0  0  0  0
 11 15  1  0  0  0  0
 11 16  1  0  0  0  0
 17 18  1  0  0  0  0
 17 22  1  0  0  0  0
 18 19  1  0  0  0  0
 18 21  1  0  0  0  0
 18 23  1  0  0  0  0
 19 20  2  0  0  0  0
 19 27  1  0  0  0  0
 21 24  1  0  0  0  0
 21 25  1  0  0  0  0
 21 26  1  0  0  0  0
 27 28  1  0  0  0  0
 27 32  1  0  0  0  0
 28 29  1  0  0  0  0
 28 31  1  0  0  0  0
 28 33  1  0  0  0  0
 29 30  2  0  0  0  0
 29 37  1  0  0  0  0
 31 34  1  0  0  0  0
 31 35  1  0  0  0  0
 31 36  1  0  0  0  0
 37 38  1  0  0  0  0
 37 39  1  0  0  0  0
 38 40  1  0  0  0  0
 38 41  1  0  0  0  0
 38 42  1  0  0  0  0
M  END
$$$$

  -OEChem-05262215353D

 42 41  0     1  0  0  0  0  0999 V2000
   -5.5737   -0.7233    2.0355 C   0  0  0  0  0  0  0  0  0  0  0  0
   -5.8345    0.4620    2.1738 O   0  0  0  0  0  0  0  0  0  0  0  0
   -6.6930   -1.7430    1.9414 C   0  0  0  0  0  0  0  0  0  0  0  0
   -6.6327   -2.4393    2.7813 H   0  0  0  0  0  0  0  0  0  0  0  0
   -7.6643   -1.2412    1.9674 H   0  0  0  0  0  0  0  0  0  0  0  0
   -6.6106   -2.3025    1.0063 H   0  0  0  0  0  0  0  0  0  0  0  0
   -4.2621   -1.1387    1.9563 N   0  0  0  0  0  0  0  0  0  0  0  0
   -3.1099   -0.2344    1.8625 C   0  0  2  0  0  0  0  0  0  0  0  0
   -1.9993   -0.8236    0.9682 C   0  0  0  0  0  0  0  0  0  0  0  0
   -2.0741   -1.9790    0.5612 O   0  0  0  0  0  0  0  0  0  0  0  0
   -2.5765    0.0154    3.2757 C   0  0  0  0  0  0  0  0  0  0  0  0
   -4.0932   -2.1128    1.7054 H   0  0  0  0  0  0  0  0  0  0  0  0
   -3.4194    0.7178    1.4190 H   0  0  0  0  0  0  0  0  0  0  0  0
   -2.2454   -0.9247    3.7299 H   0  0  0  0  0  0  0  0  0  0  0  0
   -1.7279    0.7054    3.2504 H   0  0  0  0  0  0  0  0  0  0  0  0
   -3.3592    0.4518    3.9046 H   0  0  0  0  0  0  0  0  0  0  0  0
   -0.9875   -0.0219    0.4692 N   0  0  0  0  0  0  0  0  0  0  0  0
    0.4063   -0.4946    0.3390 C   0  0  2  0  0  0  0  0  0  0  0  0
    0.9454   -1.5560    1.3500 C   0  0  0  0  0  0  0  0  0  0  0  0
    0.2939   -1.9344    2.3164 O   0  0  0  0  0  0  0  0  0  0  0  0
    1.2736    0.7727    0.3708 C   0  0  0  0  0  0  0  0  0  0  0  0
   -1.0782    0.9447    0.7642 H   0  0  0  0  0  0  0  0  0  0  0  0
    0.4976   -0.9557   -0.6496 H   0  0  0  0  0  0  0  0  0  0  0  0
    1.2631    1.2187    1.3708 H   0  0  0  0  0  0  0  0  0  0  0  0
    2.3099    0.5453    0.1029 H   0  0  0  0  0  0  0  0  0  0  0  0
    0.8983    1.5101   -0.3462 H   0  0  0  0  0  0  0  0  0  0  0  0
    2.3109   -1.7695    1.4269 N   0  0  0  0  0  0  0  0  0  0  0  0
    3.0114   -2.4348    2.5334 C   0  0  2  0  0  0  0  0  0  0  0  0
    4.4598   -1.9173    2.6616 C   0  0  0  0  0  0  0  0  0  0  0  0
    4.9302   -1.1863    1.7952 O   0  0  0  0  0  0  0  0  0  0  0  0
    2.9901   -3.9463    2.2815 C   0  0  0  0  0  0  0  0  0  0  0  0
    2.8998   -1.2790    0.7551 H   0  0  0  0  0  0  0  0  0  0  0  0
    2.5048   -2.2184    3.4801 H   0  0  0  0  0  0  0  0  0  0  0  0
    3.4979   -4.1848    1.3414 H   0  0  0  0  0  0  0  0  0  0  0  0
    3.4905   -4.4806    3.0945 H   0  0  0  0  0  0  0  0  0  0  0  0
    1.9575   -4.3050    2.2199 H   0  0  0  0  0  0  0  0  0  0  0  0
    5.2299   -2.2466    3.7618 N   0  0  0  0  0  0  0  0  0  0  0  0
    6.5922   -1.7662    3.9602 C   0  0  0  0  0  0  0  0  0  0  0  0
    4.8044   -2.8297    4.4768 H   0  0  0  0  0  0  0  0  0  0  0  0
    7.2260   -2.0459    3.1119 H   0  0  0  0  0  0  0  0  0  0  0  0
    6.6030   -0.6762    4.0635 H   0  0  0  0  0  0  0  0  0  0  0  0
    7.0194   -2.2040    4.8675 H   0  0  0  0  0  0  0  0  0  0  0  0
  1  2  2  0  0  0  0
  1  3  1  0  0  0  0
  1  7  1  0  0  0  0
  3  4  1  0  0  0  0
  3  5  1  0  0  0  0
  3  6  1  0  0  0  0
  7  8  1  0  0  0  0
  7 12  1  0  0  0  0
  8  9  1  0  0  0  0
  8 11  1  0  0  0  0
  8 13  1  0  0  0  0
  9 10  2  0  0  0  0
  9 17  1  0  0  0  0
 11 14  1  0  0  0  0
 11 15  1  0  0  0  0
 11 16  1  0  0  0  0
 17 18  1  0  0  0  0
 17 22  1  0  0  0  0
 18 19  1  0  0  0  0
 18 21  1  0  0  0  0
 18 23  1  0  0  0  0
 19 20  2  0  0  0  0
 19 27  1  0  0  0  0
 21 24  1  0  0  0  0
 21 25  1  0  0  0  0
 21 26  1  0  0  0  0
 27 28  1  0  0  0  0
 27 32  1  0  0  0  0
 28 29  1  0  0  0  0
 28 31  1  0  0  0  0
 28 33  1  0  0  0  0
 29 30  2  0  0  0  0
 29 37  1  0  0  0  0
 31 34  1  0  0  0  0
 31 35  1  0  0  0  0
 31 36  1  0  0  0  0
 37 38  1  0  0  0  0
 37 39  1  0  0  0  0
 38 40  1  0  0  0  0
 38 41  1  0  0  0  0
 38 42  1  0  0  0  0
M  END
$$$$

  -OEChem-05262215353D

 42 41  0     1  0  0  0  0  0999 V2000
   -5.5263   -0.7215    2.0881 C   0  0  0  0  0  0  0  0  0  0  0  0
   -5.7638    0.4610    2.2814 O   0  0  0  0  0  0  0  0  0  0  0  0
   -6.6623   -1.7231    2.0023 C   0  0  0  0  0  0  0  0  0  0  0  0
   -6.5715   -2.4576    2.8062 H   0  0  0  0  0  0  0  0  0  0  0  0
   -7.6245   -1.2123    2.0975 H   0  0  0  0  0  0  0  0  0  0  0  0
   -6.6320   -2.2409    1.0405 H   0  0  0  0  0  0  0  0  0  0  0  0
   -4.2254   -1.1515    1.9441 N   0  0  0  0  0  0  0  0  0  0  0  0
   -3.0627   -0.2618    1.8496 C   0  0  2  0  0  0  0  0  0  0  0  0
   -1.9848   -0.8388    0.9096 C   0  0  0  0  0  0  0  0  0  0  0  0
   -2.1042   -1.9670    0.4441 O   0  0  0  0  0  0  0  0  0  0  0  0
   -2.4900   -0.0658    3.2560 C   0  0  0  0  0  0  0  0  0  0  0  0
   -4.0812   -2.1160    1.6450 H   0  0  0  0  0  0  0  0  0  0  0  0
   -3.3694    0.7076    1.4434 H   0  0  0  0  0  0  0  0  0  0  0  0
   -2.1597   -1.0245    3.6700 H   0  0  0  0  0  0  0  0  0  0  0  0
   -1.6340    0.6148    3.2324 H   0  0  0  0  0  0  0  0  0  0  0  0
   -3.2506    0.3581    3.9191 H   0  0  0  0  0  0  0  0  0  0  0  0
   -0.9719   -0.0372    0.4147 N   0  0  0  0  0  0  0  0  0  0  0  0
    0.4317   -0.4887    0.3109 C   0  0  2  0  0  0  0  0  0  0  0  0
    0.9911   -1.5276    1.3392 C   0  0  0  0  0  0  0  0  0  0  0  0
    0.2830   -2.1826    2.0917 O   0  0  0  0  0  0  0  0  0  0  0  0
    1.2708    0.7995    0.3002 C   0  0  0  0  0  0  0  0  0  0  0  0
   -1.0729    0.9282    0.7100 H   0  0  0  0  0  0  0  0  0  0  0  0
    0.5356   -0.9712   -0.6662 H   0  0  0  0  0  0  0  0  0  0  0  0
    1.2776    1.2617    1.2929 H   0  0  0  0  0  0  0  0  0  0  0  0
    2.3035    0.5907    0.0037 H   0  0  0  0  0  0  0  0  0  0  0  0
    0.8601    1.5183   -0.4166 H   0  0  0  0  0  0  0  0  0  0  0  0
    2.3370   -1.4972    1.6625 N   0  0  0  0  0  0  0  0  0  0  0  0
    2.9527   -2.1532    2.8237 C   0  0  2  0  0  0  0  0  0  0  0  0
    4.2252   -1.4015    3.2683 C   0  0  0  0  0  0  0  0  0  0  0  0
    4.6575   -0.4725    2.5924 O   0  0  0  0  0  0  0  0  0  0  0  0
    3.2762   -3.6042    2.4527 C   0  0  0  0  0  0  0  0  0  0  0  0
    2.9154   -0.8086    1.1831 H   0  0  0  0  0  0  0  0  0  0  0  0
    2.2568   -2.1426    3.6693 H   0  0  0  0  0  0  0  0  0  0  0  0
    3.9818   -3.6376    1.6166 H   0  0  0  0  0  0  0  0  0  0  0  0
    3.7176   -4.1305    3.3041 H   0  0  0  0  0  0  0  0  0  0  0  0
    2.3635   -4.1327    2.1593 H   0  0  0  0  0  0  0  0  0  0  0  0
    4.8763   -1.7478    4.4378 N   0  0  0  0  0  0  0  0  0  0  0  0
    6.0747   -1.0693    4.9170 C   0  0  0  0  0  0  0  0  0  0  0  0
    4.4909   -2.5139    4.9830 H   0  0  0  0  0  0  0  0  0  0  0  0
    6.8757   -1.1340    4.1729 H   0  0  0  0  0  0  0  0  0  0  0  0
    5.8633   -0.0132    5.1158 H   0  0  0  0  0  0  0  0  0  0  0  0
    6.4274   -1.5322    5.8437 H   0  0  0  0  0  0  0  0  0  0  0  0
  1  2  2  0  0  0  0
  1  3  1  0  0  0  0
  1  7  1  0  0  0  0
  3  4  1  0  0  0  0
  3  5  1  0  0  0  0
  3  6  1  0  0  0  0
  7  8  1  0  0  0  0
  7 12  1  0  0  0  0
  8  9  1  0  0  0  0
  8 11  1  0  0  0  0
  8 13  1  0  0  0  0
  9 10  2  0  0  0  0
  9 17  1  0  0  0  0
 11 14  1  0  0  0  0
 11 15  1  0  0  0  0
 11 16  1  0  0  0  0
 17 18  1  0  0  0  0
 17 22  1  0  0  0  0
 18 19  1  0  0  0  0
 18 21  1  0  0  0  0
 18 23  1  0  0  0  0
 19 20  2  0  0  0  0
 19 27  1  0  0  0  0
 21 24  1  0  0  0  0
 21 25  1  0  0  0  0
 21 26  1  0  0  0  0
 27 28  1  0  0  0  0
 27 32  1  0  0  0  0
 28 29  1  0  0  0  0
 28 31  1  0  0  0  0
 28 33  1  0  0  0  0
 29 30  2  0  0  0  0
 29 37  1  0  0  0  0
 31 34  1  0  0  0  0
 31 35  1  0  0  0  0
 31 36  1  0  0  0  0
 37 38  1  0  0  0  0
 37 39  1  0  0  0  0
 38 40  1  0  0  0  0
 38 41  1  0  0  0  0
 38 42  1  0  0  0  0
M  END
$$$$

  -OEChem-05262215353D

 42 41  0     1  0  0  0  0  0999 V2000
   -5.5118   -0.7097    2.1229 C   0  0  0  0  0  0  0  0  0  0  0  0
   -5.7523    0.4775    2.2810 O   0  0  0  0  0  0  0  0  0  0  0  0
   -6.6460   -1.7150    2.0524 C   0  0  0  0  0  0  0  0  0  0  0  0
   -6.5121   -2.4823    2.8188 H   0  0  0  0  0  0  0  0  0  0  0  0
   -7.6047   -1.2153    2.2173 H   0  0  0  0  0  0  0  0  0  0  0  0
   -6.6604   -2.1914    1.0690 H   0  0  0  0  0  0  0  0  0  0  0  0
   -4.2094   -1.1397    1.9907 N   0  0  0  0  0  0  0  0  0  0  0  0
   -3.0533   -0.2481    1.8422 C   0  0  2  0  0  0  0  0  0  0  0  0
   -1.9684   -0.8768    0.9430 C   0  0  0  0  0  0  0  0  0  0  0  0
   -2.1004   -2.0226    0.5313 O   0  0  0  0  0  0  0  0  0  0  0  0
   -2.4835    0.0455    3.2329 C   0  0  0  0  0  0  0  0  0  0  0  0
   -4.0653   -2.1114    1.7146 H   0  0  0  0  0  0  0  0  0  0  0  0
   -3.3683    0.6897    1.3726 H   0  0  0  0  0  0  0  0  0  0  0  0
   -2.1464   -0.8813    3.7089 H   0  0  0  0  0  0  0  0  0  0  0  0
   -1.6335    0.7307    3.1647 H   0  0  0  0  0  0  0  0  0  0  0  0
   -3.2482    0.5059    3.8666 H   0  0  0  0  0  0  0  0  0  0  0  0
   -0.9613   -0.0954    0.4057 N   0  0  0  0  0  0  0  0  0  0  0  0
    0.4515   -0.5204    0.3180 C   0  0  2  0  0  0  0  0  0  0  0  0
    1.0329   -1.4922    1.3964 C   0  0  0  0  0  0  0  0  0  0  0  0
    0.4134   -2.4307    1.8722 O   0  0  0  0  0  0  0  0  0  0  0  0
    1.2647    0.7799    0.2140 C   0  0  0  0  0  0  0  0  0  0  0  0
   -1.0817    0.8867    0.6308 H   0  0  0  0  0  0  0  0  0  0  0  0
    0.5590   -1.0602   -0.6286 H   0  0  0  0  0  0  0  0  0  0  0  0
    1.2451    1.3263    1.1628 H   0  0  0  0  0  0  0  0  0  0  0  0
    2.3057    0.5658   -0.0477 H   0  0  0  0  0  0  0  0  0  0  0  0
    0.8522    1.4259   -0.5678 H   0  0  0  0  0  0  0  0  0  0  0  0
    2.2739   -1.2357    1.9538 N   0  0  0  0  0  0  0  0  0  0  0  0
    2.8580   -1.9458    3.0989 C   0  0  2  0  0  0  0  0  0  0  0  0
    3.8324   -1.0334    3.8738 C   0  0  0  0  0  0  0  0  0  0  0  0
    4.1337    0.0671    3.4217 O   0  0  0  0  0  0  0  0  0  0  0  0
    3.5761   -3.1974    2.5822 C   0  0  0  0  0  0  0  0  0  0  0  0
    2.7387   -0.3711    1.6805 H   0  0  0  0  0  0  0  0  0  0  0  0
    2.0661   -2.2431    3.7945 H   0  0  0  0  0  0  0  0  0  0  0  0
    4.3758   -2.9207    1.8880 H   0  0  0  0  0  0  0  0  0  0  0  0
    4.0132   -3.7622    3.4108 H   0  0  0  0  0  0  0  0  0  0  0  0
    2.8709   -3.8502    2.0578 H   0  0  0  0  0  0  0  0  0  0  0  0
    4.3597   -1.4349    5.0873 N   0  0  0  0  0  0  0  0  0  0  0  0
    5.2810   -0.6198    5.8703 C   0  0  0  0  0  0  0  0  0  0  0  0
    4.0814   -2.3445    5.4444 H   0  0  0  0  0  0  0  0  0  0  0  0
    6.1832   -0.3965    5.2911 H   0  0  0  0  0  0  0  0  0  0  0  0
    4.8068    0.3233    6.1615 H   0  0  0  0  0  0  0  0  0  0  0  0
    5.5783   -1.1519    6.7791 H   0  0  0  0  0  0  0  0  0  0  0  0
  1  2  2  0  0  0  0
  1  3  1  0  0  0  0
  1  7  1  0  0  0  0
  3  4  1  0  0  0  0
  3  5  1  0  0  0  0
  3  6  1  0  0  0  0
  7  8  1  0  0  0  0
  7 12  1  0  0  0  0
  8  9  1  0  0  0  0
  8 11  1  0  0  0  0
  8 13  1  0  0  0  0
  9 10  2  0  0  0  0
  9 17  1  0  0  0  0
 11 14  1  0  0  0  0
 11 15  1  0  0  0  0
 11 16  1  0  0  0  0
 17 18  1  0  0  0  0
 17 22  1  0  0  0  0
 18 19  1  0  0  0  0
 18 21  1  0  0  0  0
 18 23  1  0  0  0  0
 19 20  2  0  0  0  0
 19 27  1  0  0  0  0
 21 24  1  0  0  0  0
 21 25  1  0  0  0  0
 21 26  1  0  0  0  0
 27 28  1  0  0  0  0
 27 32  1  0  0  0  0
 28 29  1  0  0  0  0
 28 31  1  0  0  0  0
 28 33  1  0  0  0  0
 29 30  2  0  0  0  0
 29 37  1  0  0  0  0
 31 34  1  0  0  0  0
 31 35  1  0  0  0  0
 31 36  1  0  0  0  0
 37 38  1  0  0  0  0
 37 39  1  0  0  0  0
 38 40  1  0  0  0  0
 38 41  1  0  0  0  0
 38 42  1  0  0  0  0
M  END
$$$$

  -OEChem-05262215353D

 42 41  0     1  0  0  0  0  0999 V2000
   -5.6860   -0.9965    1.7184 C   0  0  0  0  0  0  0  0  0  0  0  0
   -6.1059   -0.1228    0.9756 O   0  0  0  0  0  0  0  0  0  0  0  0
   -6.5914   -2.1381    2.1411 C   0  0  0  0  0  0  0  0  0  0  0  0
   -6.6598   -2.1763    3.2311 H   0  0  0  0  0  0  0  0  0  0  0  0
   -7.5947   -1.9956    1.7298 H   0  0  0  0  0  0  0  0  0  0  0  0
   -6.1913   -3.0866    1.7744 H   0  0  0  0  0  0  0  0  0  0  0  0
   -4.3829   -0.9523    2.1654 N   0  0  0  0  0  0  0  0  0  0  0  0
   -3.3755    0.0053    1.6930 C   0  0  2  0  0  0  0  0  0  0  0  0
   -1.9614   -0.6148    1.6888 C   0  0  0  0  0  0  0  0  0  0  0  0
   -1.7609   -1.6262    2.3423 O   0  0  0  0  0  0  0  0  0  0  0  0
   -3.4208    1.2393    2.5997 C   0  0  0  0  0  0  0  0  0  0  0  0
   -4.0336   -1.7632    2.6767 H   0  0  0  0  0  0  0  0  0  0  0  0
   -3.6055    0.3034    0.6646 H   0  0  0  0  0  0  0  0  0  0  0  0
   -3.1868    0.9628    3.6330 H   0  0  0  0  0  0  0  0  0  0  0  0
   -2.6972    1.9896    2.2672 H   0  0  0  0  0  0  0  0  0  0  0  0
   -4.4185    1.6896    2.5769 H   0  0  0  0  0  0  0  0  0  0  0  0
   -0.9502    0.0183    0.9824 N   0  0  0  0  0  0  0  0  0  0  0  0
    0.4175   -0.4633    0.6871 C   0  0  2  0  0  0  0  0  0  0  0  0
    1.1174   -1.4263    1.6905 C   0  0  0  0  0  0  0  0  0  0  0  0
    0.8768   -2.6256    1.6428 O   0  0  0  0  0  0  0  0  0  0  0  0
    1.2516    0.8031    0.4386 C   0  0  0  0  0  0  0  0  0  0  0  0
   -1.2544    0.8400    0.4695 H   0  0  0  0  0  0  0  0  0  0  0  0
    0.3689   -1.0259   -0.2511 H   0  0  0  0  0  0  0  0  0  0  0  0
    1.3226    1.4055    1.3504 H   0  0  0  0  0  0  0  0  0  0  0  0
    2.2625    0.5392    0.1105 H   0  0  0  0  0  0  0  0  0  0  0  0
    0.7934    1.4142   -0.3453 H   0  0  0  0  0  0  0  0  0  0  0  0
    2.3066   -1.0700    2.3042 N   0  0  0  0  0  0  0  0  0  0  0  0
    3.0329   -1.9273    3.2497 C   0  0  2  0  0  0  0  0  0  0  0  0
    3.5886   -1.1052    4.4306 C   0  0  0  0  0  0  0  0  0  0  0  0
    3.6211    0.1201    4.3660 O   0  0  0  0  0  0  0  0  0  0  0  0
    4.1657   -2.6261    2.4929 C   0  0  0  0  0  0  0  0  0  0  0  0
    2.4843   -0.0706    2.3925 H   0  0  0  0  0  0  0  0  0  0  0  0
    2.3577   -2.6821    3.6677 H   0  0  0  0  0  0  0  0  0  0  0  0
    4.8602   -1.8891    2.0772 H   0  0  0  0  0  0  0  0  0  0  0  0
    4.7206   -3.2924    3.1599 H   0  0  0  0  0  0  0  0  0  0  0  0
    3.7575   -3.2232    1.6711 H   0  0  0  0  0  0  0  0  0  0  0  0
    4.0460   -1.7375    5.5719 N   0  0  0  0  0  0  0  0  0  0  0  0
    4.5437   -1.0204    6.7394 C   0  0  0  0  0  0  0  0  0  0  0  0
    3.9650   -2.7496    5.6121 H   0  0  0  0  0  0  0  0  0  0  0  0
    5.3832   -0.3734    6.4636 H   0  0  0  0  0  0  0  0  0  0  0  0
    3.7512   -0.4029    7.1752 H   0  0  0  0  0  0  0  0  0  0  0  0
    4.8896   -1.7279    7.4992 H   0  0  0  0  0  0  0  0  0  0  0  0
  1  2  2  0  0  0  0
  1  3  1  0  0  0  0
  1  7  1  0  0  0  0
  3  4  1  0  0  0  0
  3  5  1  0  0  0  0
  3  6  1  0  0  0  0
  7  8  1  0  0  0  0
  7 12  1  0  0  0  0
  8  9  1  0  0  0  0
  8 11  1  0  0  0  0
  8 13  1  0  0  0  0
  9 10  2  0  0  0  0
  9 17  1  0  0  0  0
 11 14  1  0  0  0  0
 11 15  1  0  0  0  0
 11 16  1  0  0  0  0
 17 18  1  0  0  0  0
 17 22  1  0  0  0  0
 18 19  1  0  0  0  0
 18 21  1  0  0  0  0
 18 23  1  0  0  0  0
 19 20  2  0  0  0  0
 19 27  1  0  0  0  0
 21 24  1  0  0  0  0
 21 25  1  0  0  0  0
 21 26  1  0  0  0  0
 27 28  1  0  0  0  0
 27 32  1  0  0  0  0
 28 29  1  0  0  0  0
 28 31  1  0  0  0  0
 28 33  1  0  0  0  0
 29 30  2  0  0  0  0
 29 37  1  0  0  0  0
 31 34  1  0  0  0  0
 31 35  1  0  0  0  0
 31 36  1  0  0  0  0
 37 38  1  0  0  0  0
 37 39  1  0  0  0  0
 38 40  1  0  0  0  0
 38 41  1  0  0  0  0
 38 42  1  0  0  0  0
M  END
$$$$

  -OEChem-05262215353D

 42 41  0     1  0  0  0  0  0999 V2000
   -5.6466   -0.9795    1.7237 C   0  0  0  0  0  0  0  0  0  0  0  0
   -6.0735   -0.0902    1.0038 O   0  0  0  0  0  0  0  0  0  0  0  0
   -6.5451   -2.1339    2.1246 C   0  0  0  0  0  0  0  0  0  0  0  0
   -6.6707   -2.1478    3.2099 H   0  0  0  0  0  0  0  0  0  0  0  0
   -7.5278   -2.0269    1.6571 H   0  0  0  0  0  0  0  0  0  0  0  0
   -6.1036   -3.0805    1.8033 H   0  0  0  0  0  0  0  0  0  0  0  0
   -4.3432   -0.9395    2.1702 N   0  0  0  0  0  0  0  0  0  0  0  0
   -3.3402    0.0302    1.7139 C   0  0  2  0  0  0  0  0  0  0  0  0
   -1.9327   -0.6007    1.6482 C   0  0  0  0  0  0  0  0  0  0  0  0
   -1.7224   -1.6423    2.2514 O   0  0  0  0  0  0  0  0  0  0  0  0
   -3.3537    1.2214    2.6764 C   0  0  0  0  0  0  0  0  0  0  0  0
   -3.9889   -1.7640    2.6553 H   0  0  0  0  0  0  0  0  0  0  0  0
   -3.5920    0.3764    0.7057 H   0  0  0  0  0  0  0  0  0  0  0  0
   -3.0965    0.8962    3.6898 H   0  0  0  0  0  0  0  0  0  0  0  0
   -2.6331    1.9815    2.3605 H   0  0  0  0  0  0  0  0  0  0  0  0
   -4.3484    1.6780    2.6990 H   0  0  0  0  0  0  0  0  0  0  0  0
   -0.9335    0.0422    0.9341 N   0  0  0  0  0  0  0  0  0  0  0  0
    0.4306   -0.4432    0.6349 C   0  0  2  0  0  0  0  0  0  0  0  0
    1.1084   -1.4027    1.6524 C   0  0  0  0  0  0  0  0  0  0  0  0
    1.0211   -2.6128    1.4857 O   0  0  0  0  0  0  0  0  0  0  0  0
    1.2846    0.8083    0.3864 C   0  0  0  0  0  0  0  0  0  0  0  0
   -1.2332    0.8829    0.4497 H   0  0  0  0  0  0  0  0  0  0  0  0
    0.3797   -1.0099   -0.3010 H   0  0  0  0  0  0  0  0  0  0  0  0
    1.3232    1.4379    1.2815 H   0  0  0  0  0  0  0  0  0  0  0  0
    2.3062    0.5244    0.1123 H   0  0  0  0  0  0  0  0  0  0  0  0
    0.8650    1.3985   -0.4343 H   0  0  0  0  0  0  0  0  0  0  0  0
    2.1070   -0.9534    2.4990 N   0  0  0  0  0  0  0  0  0  0  0  0
    2.7500   -1.7926    3.5175 C   0  0  2  0  0  0  0  0  0  0  0  0
    2.9465   -1.0142    4.8347 C   0  0  0  0  0  0  0  0  0  0  0  0
    2.8499    0.2093    4.8467 O   0  0  0  0  0  0  0  0  0  0  0  0
    4.0934   -2.2758    2.9650 C   0  0  0  0  0  0  0  0  0  0  0  0
    2.1189    0.0484    2.6844 H   0  0  0  0  0  0  0  0  0  0  0  0
    2.1192   -2.6596    3.7420 H   0  0  0  0  0  0  0  0  0  0  0  0
    4.7479   -1.4250    2.7503 H   0  0  0  0  0  0  0  0  0  0  0  0
    4.5939   -2.9285    3.6865 H   0  0  0  0  0  0  0  0  0  0  0  0
    3.9389   -2.8396    2.0393 H   0  0  0  0  0  0  0  0  0  0  0  0
    3.2260   -1.6845    6.0112 N   0  0  0  0  0  0  0  0  0  0  0  0
    3.3870   -1.0140    7.2956 C   0  0  0  0  0  0  0  0  0  0  0  0
    3.2568   -2.6996    5.9775 H   0  0  0  0  0  0  0  0  0  0  0  0
    4.2222   -0.3066    7.2566 H   0  0  0  0  0  0  0  0  0  0  0  0
    2.4751   -0.4685    7.5607 H   0  0  0  0  0  0  0  0  0  0  0  0
    3.5917   -1.7469    8.0819 H   0  0  0  0  0  0  0  0  0  0  0  0
  1  2  2  0  0  0  0
  1  3  1  0  0  0  0
  1  7  1  0  0  0  0
  3  4  1  0  0  0  0
  3  5  1  0  0  0  0
  3  6  1  0  0  0  0
  7  8  1  0  0  0  0
  7 12  1  0  0  0  0
  8  9  1  0  0  0  0
  8 11  1  0  0  0  0
  8 13  1  0  0  0  0
  9 10  2  0  0  0  0
  9 17  1  0  0  0  0
 11 14  1  0  0  0  0
 11 15  1  0  0  0  0
 11 16  1  0  0  0  0
 17 18  1  0  0  0  0
 17 22  1  0  0  0  0
 18 19  1  0  0  0  0
 18 21  1  0  0  0  0
 18 23  1  0  0  0  0
 19 20  2  0  0  0  0
 19 27  1  0  0  0  0
 21 24  1  0  0  0  0
 21 25  1  0  0  0  0
 21 26  1  0  0  0  0
 27 28  1  0  0  0  0
 27 32  1  0  0  0  0
 28 29  1  0  0  0  0
 28 31  1  0  0  0  0
 28 33  1  0  0  0  0
 29 30  2  0  0  0  0
 29 37  1  0  0  0  0
 31 34  1  0  0  0  0
 31 35  1  0  0  0  0
 31 36  1  0  0  0  0
 37 38  1  0  0  0  0
 37 39  1  0  0  0  0
 38 40  1  0  0  0  0
 38 41  1  0  0  0  0
 38 42  1  0  0  0  0
M  END
$$$$

  -OEChem-05262215353D

 42 41  0     1  0  0  0  0  0999 V2000
   -5.6062   -0.8980    1.7179 C   0  0  0  0  0  0  0  0  0  0  0  0
   -5.9894    0.0474    1.0465 O   0  0  0  0  0  0  0  0  0  0  0  0
   -6.5468   -2.0503    2.0157 C   0  0  0  0  0  0  0  0  0  0  0  0
   -6.7586   -2.0898    3.0869 H   0  0  0  0  0  0  0  0  0  0  0  0
   -7.4878   -1.9192    1.4740 H   0  0  0  0  0  0  0  0  0  0  0  0
   -6.0918   -2.9943    1.7059 H   0  0  0  0  0  0  0  0  0  0  0  0
   -4.3156   -0.9234    2.2020 N   0  0  0  0  0  0  0  0  0  0  0  0
   -3.2757    0.0453    1.8344 C   0  0  2  0  0  0  0  0  0  0  0  0
   -1.9017   -0.6339    1.6578 C   0  0  0  0  0  0  0  0  0  0  0  0
   -1.6956   -1.7129    2.1945 O   0  0  0  0  0  0  0  0  0  0  0  0
   -3.2121    1.1134    2.9291 C   0  0  0  0  0  0  0  0  0  0  0  0
   -3.9982   -1.7877    2.6406 H   0  0  0  0  0  0  0  0  0  0  0  0
   -3.5289    0.5206    0.8808 H   0  0  0  0  0  0  0  0  0  0  0  0
   -2.9491    0.6611    3.8909 H   0  0  0  0  0  0  0  0  0  0  0  0
   -2.4622    1.8714    2.6843 H   0  0  0  0  0  0  0  0  0  0  0  0
   -4.1835    1.6079    3.0306 H   0  0  0  0  0  0  0  0  0  0  0  0
   -0.9250   -0.0022    0.9041 N   0  0  0  0  0  0  0  0  0  0  0  0
    0.4295   -0.4960    0.5834 C   0  0  2  0  0  0  0  0  0  0  0  0
    1.1119   -1.4293    1.6180 C   0  0  0  0  0  0  0  0  0  0  0  0
    1.2040   -2.6277    1.3828 O   0  0  0  0  0  0  0  0  0  0  0  0
    1.2931    0.7389    0.2979 C   0  0  0  0  0  0  0  0  0  0  0  0
   -1.2115    0.8703    0.4704 H   0  0  0  0  0  0  0  0  0  0  0  0
    0.3582   -1.0832   -0.3385 H   0  0  0  0  0  0  0  0  0  0  0  0
    1.3411    1.3931    1.1742 H   0  0  0  0  0  0  0  0  0  0  0  0
    2.3107    0.4362    0.0306 H   0  0  0  0  0  0  0  0  0  0  0  0
    0.8759    1.3091   -0.5378 H   0  0  0  0  0  0  0  0  0  0  0  0
    1.8911   -0.9034    2.6329 N   0  0  0  0  0  0  0  0  0  0  0  0
    2.4537   -1.7121    3.7209 C   0  0  2  0  0  0  0  0  0  0  0  0
    2.2213   -1.0360    5.0880 C   0  0  0  0  0  0  0  0  0  0  0  0
    1.9493    0.1597    5.1436 O   0  0  0  0  0  0  0  0  0  0  0  0
    3.9493   -1.8984    3.4551 C   0  0  0  0  0  0  0  0  0  0  0  0
    1.7108    0.0723    2.8637 H   0  0  0  0  0  0  0  0  0  0  0  0
    1.9679   -2.6933    3.7547 H   0  0  0  0  0  0  0  0  0  0  0  0
    4.4565   -0.9287    3.4283 H   0  0  0  0  0  0  0  0  0  0  0  0
    4.4058   -2.5101    4.2390 H   0  0  0  0  0  0  0  0  0  0  0  0
    4.1020   -2.3993    2.4937 H   0  0  0  0  0  0  0  0  0  0  0  0
    2.3201   -1.7648    6.2590 N   0  0  0  0  0  0  0  0  0  0  0  0
    2.0806   -1.1932    7.5786 C   0  0  0  0  0  0  0  0  0  0  0  0
    2.4912   -2.7631    6.1778 H   0  0  0  0  0  0  0  0  0  0  0  0
    2.7681   -0.3617    7.7665 H   0  0  0  0  0  0  0  0  0  0  0  0
    1.0522   -0.8249    7.6547 H   0  0  0  0  0  0  0  0  0  0  0  0
    2.2360   -1.9500    8.3534 H   0  0  0  0  0  0  0  0  0  0  0  0
  1  2  2  0  0  0  0
  1  3  1  0  0  0  0
  1  7  1  0  0  0  0
  3  4  1  0  0  0  0
  3  5  1  0  0  0  0
  3  6  1  0  0  0  0
  7  8  1  0  0  0  0
  7 12  1  0  0  0  0
  8  9  1  0  0  0  0
  8 11  1  0  0  0  0
  8 13  1  0  0  0  0
  9 10  2  0  0  0  0
  9 17  1  0  0  0  0
 11 14  1  0  0  0  0
 11 15  1  0  0  0  0
 11 16  1  0  0  0  0
 17 18  1  0  0  0  0
 17 22  1  0  0  0  0
 18 19  1  0  0  0  0
 18 21  1  0  0  0  0
 18 23  1  0  0  0  0
 19 20  2  0  0  0  0
 19 27  1  0  0  0  0
 21 24  1  0  0  0  0
 21 25  1  0  0  0  0
 21 26  1  0  0  0  0
 27 28  1  0  0  0  0
 27 32  1  0  0  0  0
 28 29  1  0  0  0  0
 28 31  1  0  0  0  0
 28 33  1  0  0  0  0
 29 30  2  0  0  0  0
 29 37  1  0  0  0  0
 31 34  1  0  0  0  0
 31 35  1  0  0  0  0
 31 36  1  0  0  0  0
 37 38  1  0  0  0  0
 37 39  1  0  0  0  0
 38 40  1  0  0  0  0
 38 41  1  0  0  0  0
 38 42  1  0  0  0  0
M  END
$$$$

  -OEChem-05262215353D

 42 41  0     1  0  0  0  0  0999 V2000
   -5.4941   -0.8602    1.7277 C   0  0  0  0  0  0  0  0  0  0  0  0
   -5.8325    0.1179    1.0797 O   0  0  0  0  0  0  0  0  0  0  0  0
   -6.4306   -2.0466    1.8596 C   0  0  0  0  0  0  0  0  0  0  0  0
   -6.6376   -2.2435    2.9142 H   0  0  0  0  0  0  0  0  0  0  0  0
   -7.3749   -1.8415    1.3475 H   0  0  0  0  0  0  0  0  0  0  0  0
   -5.9729   -2.9333    1.4137 H   0  0  0  0  0  0  0  0  0  0  0  0
   -4.2536   -0.9031    2.3278 N   0  0  0  0  0  0  0  0  0  0  0  0
   -3.1745    0.0583    2.0647 C   0  0  2  0  0  0  0  0  0  0  0  0
   -1.8726   -0.6628    1.6594 C   0  0  0  0  0  0  0  0  0  0  0  0
   -1.6792   -1.8047    2.0543 O   0  0  0  0  0  0  0  0  0  0  0  0
   -2.9527    0.8787    3.3375 C   0  0  0  0  0  0  0  0  0  0  0  0
   -3.9647   -1.8058    2.7029 H   0  0  0  0  0  0  0  0  0  0  0  0
   -3.4503    0.7337    1.2483 H   0  0  0  0  0  0  0  0  0  0  0  0
   -2.6587    0.2276    4.1673 H   0  0  0  0  0  0  0  0  0  0  0  0
   -2.1638    1.6211    3.1840 H   0  0  0  0  0  0  0  0  0  0  0  0
   -3.8728    1.4030    3.6140 H   0  0  0  0  0  0  0  0  0  0  0  0
   -0.9347   -0.0075    0.8758 N   0  0  0  0  0  0  0  0  0  0  0  0
    0.4131   -0.4911    0.5115 C   0  0  2  0  0  0  0  0  0  0  0  0
    1.1064   -1.4183    1.5393 C   0  0  0  0  0  0  0  0  0  0  0  0
    1.3819   -2.5741    1.2432 O   0  0  0  0  0  0  0  0  0  0  0  0
    1.2836    0.7362    0.2182 C   0  0  0  0  0  0  0  0  0  0  0  0
   -1.1985    0.9215    0.5609 H   0  0  0  0  0  0  0  0  0  0  0  0
    0.3208   -1.0774   -0.4091 H   0  0  0  0  0  0  0  0  0  0  0  0
    1.3605    1.3818    1.0988 H   0  0  0  0  0  0  0  0  0  0  0  0
    2.2917    0.4226   -0.0726 H   0  0  0  0  0  0  0  0  0  0  0  0
    0.8557    1.3183   -0.6037 H   0  0  0  0  0  0  0  0  0  0  0  0
    1.6320   -0.8816    2.6989 N   0  0  0  0  0  0  0  0  0  0  0  0
    2.0139   -1.7059    3.8496 C   0  0  2  0  0  0  0  0  0  0  0  0
    1.4192   -1.1261    5.1507 C   0  0  0  0  0  0  0  0  0  0  0  0
    0.9758    0.0192    5.1676 O   0  0  0  0  0  0  0  0  0  0  0  0
    3.5415   -1.7614    3.9151 C   0  0  0  0  0  0  0  0  0  0  0  0
    1.2814    0.0448    2.9376 H   0  0  0  0  0  0  0  0  0  0  0  0
    1.6214   -2.7223    3.7357 H   0  0  0  0  0  0  0  0  0  0  0  0
    3.9574   -0.7567    4.0406 H   0  0  0  0  0  0  0  0  0  0  0  0
    3.8681   -2.3826    4.7544 H   0  0  0  0  0  0  0  0  0  0  0  0
    3.9409   -2.1918    2.9910 H   0  0  0  0  0  0  0  0  0  0  0  0
    1.3667   -1.8901    6.3019 N   0  0  0  0  0  0  0  0  0  0  0  0
    0.7655   -1.4226    7.5452 C   0  0  0  0  0  0  0  0  0  0  0  0
    1.6775   -2.8554    6.2374 H   0  0  0  0  0  0  0  0  0  0  0  0
    1.2675   -0.5151    7.8969 H   0  0  0  0  0  0  0  0  0  0  0  0
   -0.2972   -1.2030    7.3982 H   0  0  0  0  0  0  0  0  0  0  0  0
    0.8565   -2.1888    8.3209 H   0  0  0  0  0  0  0  0  0  0  0  0
  1  2  2  0  0  0  0
  1  3  1  0  0  0  0
  1  7  1  0  0  0  0
  3  4  1  0  0  0  0
  3  5  1  0  0  0  0
  3  6  1  0  0  0  0
  7  8  1  0  0  0  0
  7 12  1  0  0  0  0
  8  9  1  0  0  0  0
  8 11  1  0  0  0  0
  8 13  1  0  0  0  0
  9 10  2  0  0  0  0
  9 17  1  0  0  0  0
 11 14  1  0  0  0  0
 11 15  1  0  0  0  0
 11 16  1  0  0  0  0
 17 18  1  0  0  0  0
 17 22  1  0  0  0  0
 18 19  1  0  0  0  0
 18 21  1  0  0  0  0
 18 23  1  0  0  0  0
 19 20  2  0  0  0  0
 19 27  1  0  0  0  0
 21 24  1  0  0  0  0
 21 25  1  0  0  0  0
 21 26  1  0  0  0  0
 27 28  1  0  0  0  0
 27 32  1  0  0  0  0
 28 29  1  0  0  0  0
 28 31  1  0  0  0  0
 28 33  1  0  0  0  0
 29 30  2  0  0  0  0
 29 37  1  0  0  0  0
 31 34  1  0  0  0  0
 31 35  1  0  0  0  0
 31 36  1  0  0  0  0
 37 38  1  0  0  0  0
 37 39  1  0  0  0  0
 38 40  1  0  0  0  0
 38 41  1  0  0  0  0
 38 42  1  0  0  0  0
M  END
$$$$

  -OEChem-05262215353D

 42 41  0     1  0  0  0  0  0999 V2000
   -5.4389   -0.8755    1.7204 C   0  0  0  0  0  0  0  0  0  0  0  0
   -5.7366    0.0883    1.0323 O   0  0  0  0  0  0  0  0  0  0  0  0
   -6.3934   -2.0492    1.8344 C   0  0  0  0  0  0  0  0  0  0  0  0
   -6.6042   -2.2579    2.8859 H   0  0  0  0  0  0  0  0  0  0  0  0
   -7.3343   -1.8214    1.3256 H   0  0  0  0  0  0  0  0  0  0  0  0
   -5.9500   -2.9363    1.3753 H   0  0  0  0  0  0  0  0  0  0  0  0
   -4.2313   -0.9124    2.3856 N   0  0  0  0  0  0  0  0  0  0  0  0
   -3.1348    0.0381    2.1557 C   0  0  2  0  0  0  0  0  0  0  0  0
   -1.8564   -0.6810    1.6808 C   0  0  0  0  0  0  0  0  0  0  0  0
   -1.6544   -1.8363    2.0316 O   0  0  0  0  0  0  0  0  0  0  0  0
   -2.8670    0.7747    3.4695 C   0  0  0  0  0  0  0  0  0  0  0  0
   -3.9679   -1.8101    2.7889 H   0  0  0  0  0  0  0  0  0  0  0  0
   -3.4102    0.7705    1.3901 H   0  0  0  0  0  0  0  0  0  0  0  0
   -2.5737    0.0676    4.2527 H   0  0  0  0  0  0  0  0  0  0  0  0
   -2.0612    1.5043    3.3439 H   0  0  0  0  0  0  0  0  0  0  0  0
   -3.7670    1.3046    3.7966 H   0  0  0  0  0  0  0  0  0  0  0  0
   -0.9442   -0.0107    0.8792 N   0  0  0  0  0  0  0  0  0  0  0  0
    0.4066   -0.4742    0.4996 C   0  0  2  0  0  0  0  0  0  0  0  0
    1.1226   -1.3798    1.5277 C   0  0  0  0  0  0  0  0  0  0  0  0
    1.5974   -2.4565    1.1892 O   0  0  0  0  0  0  0  0  0  0  0  0
    1.2593    0.7647    0.2089 C   0  0  0  0  0  0  0  0  0  0  0  0
   -1.2122    0.9284    0.5993 H   0  0  0  0  0  0  0  0  0  0  0  0
    0.3173   -1.0626   -0.4201 H   0  0  0  0  0  0  0  0  0  0  0  0
    1.3431    1.3974    1.0981 H   0  0  0  0  0  0  0  0  0  0  0  0
    2.2663    0.4660   -0.1006 H   0  0  0  0  0  0  0  0  0  0  0  0
    0.8129    1.3535   -0.5981 H   0  0  0  0  0  0  0  0  0  0  0  0
    1.3702   -0.8920    2.7959 N   0  0  0  0  0  0  0  0  0  0  0  0
    1.6231   -1.7753    3.9369 C   0  0  2  0  0  0  0  0  0  0  0  0
    0.7150   -1.3889    5.1237 C   0  0  0  0  0  0  0  0  0  0  0  0
    0.1380   -0.3039    5.1316 O   0  0  0  0  0  0  0  0  0  0  0  0
    3.1019   -1.6653    4.3127 C   0  0  0  0  0  0  0  0  0  0  0  0
    0.8488   -0.0482    3.0285 H   0  0  0  0  0  0  0  0  0  0  0  0
    1.3935   -2.8135    3.6732 H   0  0  0  0  0  0  0  0  0  0  0  0
    3.3508   -0.6368    4.5932 H   0  0  0  0  0  0  0  0  0  0  0  0
    3.3335   -2.3238    5.1551 H   0  0  0  0  0  0  0  0  0  0  0  0
    3.7282   -1.9569    3.4633 H   0  0  0  0  0  0  0  0  0  0  0  0
    0.5467   -2.2538    6.1888 N   0  0  0  0  0  0  0  0  0  0  0  0
   -0.3219   -1.9668    7.3236 C   0  0  0  0  0  0  0  0  0  0  0  0
    0.9858   -3.1677    6.1230 H   0  0  0  0  0  0  0  0  0  0  0  0
   -0.0196   -1.0347    7.8128 H   0  0  0  0  0  0  0  0  0  0  0  0
   -1.3622   -1.8712    6.9951 H   0  0  0  0  0  0  0  0  0  0  0  0
   -0.2628   -2.7752    8.0588 H   0  0  0  0  0  0  0  0  0  0  0  0
  1  2  2  0  0  0  0
  1  3  1  0  0  0  0
  1  7  1  0  0  0  0
  3  4  1  0  0  0  0
  3  5  1  0  0  0  0
  3  6  1  0  0  0  0
  7  8  1  0  0  0  0
  7 12  1  0  0  0  0
  8  9  1  0  0  0  0
  8 11  1  0  0  0  0
  8 13  1  0  0  0  0
  9 10  2  0  0  0  0
  9 17  1  0  0  0  0
 11 14  1  0  0  0  0
 11 15  1  0  0  0  0
 11 16  1  0  0  0  0
 17 18  1  0  0  0  0
 17 22  1  0  0  0  0
 18 19  1  0  0  0  0
 18 21  1  0  0  0  0
 18 23  1  0  0  0  0
 19 20  2  0  0  0  0
 19 27  1  0  0  0  0
 21 24  1  0  0  0  0
 21 25  1  0  0  0  0
 21 26  1  0  0  0  0
 27 28  1  0  0  0  0
 27 32  1  0  0  0  0
 28 29  1  0  0  0  0
 28 31  1  0  0  0  0
 28 33  1  0  0  0  0
 29 30  2  0  0  0  0
 29 37  1  0  0  0  0
 31 34  1  0  0  0  0
 31 35  1  0  0  0  0
 31 36  1  0  0  0  0
 37 38  1  0  0  0  0
 37 39  1  0  0  0  0
 38 40  1  0  0  0  0
 38 41  1  0  0  0  0
 38 42  1  0  0  0  0
M  END
$$$$

  -OEChem-05262215353D

 42 41  0     1  0  0  0  0  0999 V2000
   -5.5207   -0.8825    1.6657 C   0  0  0  0  0  0  0  0  0  0  0  0
   -5.8417    0.0904    1.0014 O   0  0  0  0  0  0  0  0  0  0  0  0
   -6.4698   -2.0592    1.7965 C   0  0  0  0  0  0  0  0  0  0  0  0
   -6.6820   -2.2529    2.8509 H   0  0  0  0  0  0  0  0  0  0  0  0
   -7.4106   -1.8449    1.2817 H   0  0  0  0  0  0  0  0  0  0  0  0
   -6.0207   -2.9512    1.3527 H   0  0  0  0  0  0  0  0  0  0  0  0
   -4.2912   -0.9260    2.2884 N   0  0  0  0  0  0  0  0  0  0  0  0
   -3.2094    0.0403    2.0557 C   0  0  2  0  0  0  0  0  0  0  0  0
   -1.8993   -0.6666    1.6519 C   0  0  0  0  0  0  0  0  0  0  0  0
   -1.7062   -1.8245    2.0009 O   0  0  0  0  0  0  0  0  0  0  0  0
   -3.0100    0.8390    3.3453 C   0  0  0  0  0  0  0  0  0  0  0  0
   -4.0144   -1.8231    2.6846 H   0  0  0  0  0  0  0  0  0  0  0  0
   -3.4753    0.7298    1.2477 H   0  0  0  0  0  0  0  0  0  0  0  0
   -2.7601    0.1700    4.1753 H   0  0  0  0  0  0  0  0  0  0  0  0
   -2.1997    1.5649    3.2290 H   0  0  0  0  0  0  0  0  0  0  0  0
   -3.9265    1.3805    3.5991 H   0  0  0  0  0  0  0  0  0  0  0  0
   -0.9616   -0.0027    0.8742 N   0  0  0  0  0  0  0  0  0  0  0  0
    0.4079   -0.4630    0.5560 C   0  0  2  0  0  0  0  0  0  0  0  0
    1.1136   -1.3449    1.6126 C   0  0  0  0  0  0  0  0  0  0  0  0
    1.8050   -2.2942    1.2664 O   0  0  0  0  0  0  0  0  0  0  0  0
    1.2609    0.7793    0.2866 C   0  0  0  0  0  0  0  0  0  0  0  0
   -1.2184    0.9357    0.5808 H   0  0  0  0  0  0  0  0  0  0  0  0
    0.3571   -1.0625   -0.3593 H   0  0  0  0  0  0  0  0  0  0  0  0
    1.3214    1.4084    1.1805 H   0  0  0  0  0  0  0  0  0  0  0  0
    2.2761    0.4845    0.0008 H   0  0  0  0  0  0  0  0  0  0  0  0
    0.8322    1.3685   -0.5298 H   0  0  0  0  0  0  0  0  0  0  0  0
    1.0590   -0.9880    2.9457 N   0  0  0  0  0  0  0  0  0  0  0  0
    1.3123   -1.9376    4.0310 C   0  0  2  0  0  0  0  0  0  0  0  0
    0.2468   -1.7782    5.1360 C   0  0  0  0  0  0  0  0  0  0  0  0
   -0.3896   -0.7318    5.2323 O   0  0  0  0  0  0  0  0  0  0  0  0
    2.7179   -1.6868    4.5808 C   0  0  0  0  0  0  0  0  0  0  0  0
    0.3675   -0.2728    3.1640 H   0  0  0  0  0  0  0  0  0  0  0  0
    1.2474   -2.9643    3.6548 H   0  0  0  0  0  0  0  0  0  0  0  0
    2.8008   -0.6674    4.9708 H   0  0  0  0  0  0  0  0  0  0  0  0
    2.9453   -2.3896    5.3879 H   0  0  0  0  0  0  0  0  0  0  0  0
    3.4609   -1.8186    3.7875 H   0  0  0  0  0  0  0  0  0  0  0  0
   -0.0032   -2.8072    6.0246 N   0  0  0  0  0  0  0  0  0  0  0  0
   -1.0405   -2.7442    7.0467 C   0  0  0  0  0  0  0  0  0  0  0  0
    0.4842   -3.6852    5.8707 H   0  0  0  0  0  0  0  0  0  0  0  0
   -0.8595   -1.9041    7.7253 H   0  0  0  0  0  0  0  0  0  0  0  0
   -2.0259   -2.6189    6.5856 H   0  0  0  0  0  0  0  0  0  0  0  0
   -1.0483   -3.6667    7.6350 H   0  0  0  0  0  0  0  0  0  0  0  0
  1  2  2  0  0  0  0
  1  3  1  0  0  0  0
  1  7  1  0  0  0  0
  3  4  1  0  0  0  0
  3  5  1  0  0  0  0
  3  6  1  0  0  0  0
  7  8  1  0  0  0  0
  7 12  1  0  0  0  0
  8  9  1  0  0  0  0
  8 11  1  0  0  0  0
  8 13  1  0  0  0  0
  9 10  2  0  0  0  0
  9 17  1  0  0  0  0
 11 14  1  0  0  0  0
 11 15  1  0  0  0  0
 11 16  1  0  0  0  0
 17 18  1  0  0  0  0
 17 22  1  0  0  0  0
 18 19  1  0  0  0  0
 18 21  1  0  0  0  0
 18 23  1  0  0  0  0
 19 20  2  0  0  0  0
 19 27  1  0  0  0  0
 21 24  1  0  0  0  0
 21 25  1  0  0  0  0
 21 26  1  0  0  0  0
 27 28  1  0  0  0  0
 27 32  1  0  0  0  0
 28 29  1  0  0  0  0
 28 31  1  0  0  0  0
 28 33  1  0  0  0  0
 29 30  2  0  0  0  0
 29 37  1  0  0  0  0
 31 34  1  0  0  0  0
 31 35  1  0  0  0  0
 31 36  1  0  0  0  0
 37 38  1  0  0  0  0
 37 39  1  0  0  0  0
 38 40  1  0  0  0  0
 38 41  1  0  0  0  0
 38 42  1  0  0  0  0
M  END
$$$$

  -OEChem-05262215353D

 42 41  0     1  0  0  0  0  0999 V2000
   -5.6102   -0.8258    1.5943 C   0  0  0  0  0  0  0  0  0  0  0  0
   -5.9470    0.0843    0.8530 O   0  0  0  0  0  0  0  0  0  0  0  0
   -6.5513   -1.9889    1.8448 C   0  0  0  0  0  0  0  0  0  0  0  0
   -6.7325   -2.0981    2.9169 H   0  0  0  0  0  0  0  0  0  0  0  0
   -7.5069   -1.8158    1.3420 H   0  0  0  0  0  0  0  0  0  0  0  0
   -6.1118   -2.9128    1.4603 H   0  0  0  0  0  0  0  0  0  0  0  0
   -4.3705   -0.8121    2.1971 N   0  0  0  0  0  0  0  0  0  0  0  0
   -3.2910    0.1178    1.8410 C   0  0  2  0  0  0  0  0  0  0  0  0
   -2.0063   -0.6324    1.4333 C   0  0  0  0  0  0  0  0  0  0  0  0
   -1.8811   -1.8207    1.6981 O   0  0  0  0  0  0  0  0  0  0  0  0
   -3.0290    1.0092    3.0574 C   0  0  0  0  0  0  0  0  0  0  0  0
   -4.0851   -1.6741    2.6601 H   0  0  0  0  0  0  0  0  0  0  0  0
   -3.5862    0.7469    0.9951 H   0  0  0  0  0  0  0  0  0  0  0  0
   -2.7215    0.4051    3.9176 H   0  0  0  0  0  0  0  0  0  0  0  0
   -2.2397    1.7351    2.8417 H   0  0  0  0  0  0  0  0  0  0  0  0
   -3.9382    1.5566    3.3255 H   0  0  0  0  0  0  0  0  0  0  0  0
   -0.9859    0.0332    0.7732 N   0  0  0  0  0  0  0  0  0  0  0  0
    0.4060   -0.4384    0.5984 C   0  0  2  0  0  0  0  0  0  0  0  0
    1.0225   -1.3475    1.6933 C   0  0  0  0  0  0  0  0  0  0  0  0
    1.9631   -2.0798    1.4130 O   0  0  0  0  0  0  0  0  0  0  0  0
    1.2833    0.8063    0.4390 C   0  0  0  0  0  0  0  0  0  0  0  0
   -1.1747    1.0057    0.5476 H   0  0  0  0  0  0  0  0  0  0  0  0
    0.4433   -1.0181   -0.3299 H   0  0  0  0  0  0  0  0  0  0  0  0
    1.2809    1.3994    1.3592 H   0  0  0  0  0  0  0  0  0  0  0  0
    2.3154    0.5147    0.2172 H   0  0  0  0  0  0  0  0  0  0  0  0
    0.9205    1.4300   -0.3836 H   0  0  0  0  0  0  0  0  0  0  0  0
    0.6267   -1.2380    3.0129 N   0  0  0  0  0  0  0  0  0  0  0  0
    0.9616   -2.2205    4.0461 C   0  0  2  0  0  0  0  0  0  0  0  0
   -0.2256   -2.4107    5.0147 C   0  0  0  0  0  0  0  0  0  0  0  0
   -1.0994   -1.5517    5.1017 O   0  0  0  0  0  0  0  0  0  0  0  0
    2.2050   -1.7381    4.7975 C   0  0  0  0  0  0  0  0  0  0  0  0
   -0.2692   -0.7719    3.1468 H   0  0  0  0  0  0  0  0  0  0  0  0
    1.1697   -3.1909    3.5827 H   0  0  0  0  0  0  0  0  0  0  0  0
    2.0144   -0.7692    5.2698 H   0  0  0  0  0  0  0  0  0  0  0  0
    2.4874   -2.4558    5.5735 H   0  0  0  0  0  0  0  0  0  0  0  0
    3.0459   -1.6296    4.1051 H   0  0  0  0  0  0  0  0  0  0  0  0
   -0.3161   -3.5482    5.7956 N   0  0  0  0  0  0  0  0  0  0  0  0
   -1.4372   -3.8167    6.6877 C   0  0  0  0  0  0  0  0  0  0  0  0
    0.3879   -4.2677    5.6578 H   0  0  0  0  0  0  0  0  0  0  0  0
   -1.5457   -3.0098    7.4204 H   0  0  0  0  0  0  0  0  0  0  0  0
   -2.3677   -3.9023    6.1164 H   0  0  0  0  0  0  0  0  0  0  0  0
   -1.2742   -4.7536    7.2293 H   0  0  0  0  0  0  0  0  0  0  0  0
  1  2  2  0  0  0  0
  1  3  1  0  0  0  0
  1  7  1  0  0  0  0
  3  4  1  0  0  0  0
  3  5  1  0  0  0  0
  3  6  1  0  0  0  0
  7  8  1  0  0  0  0
  7 12  1  0  0  0  0
  8  9  1  0  0  0  0
  8 11  1  0  0  0  0
  8 13  1  0  0  0  0
  9 10  2  0  0  0  0
  9 17  1  0  0  0  0
 11 14  1  0  0  0  0
 11 15  1  0  0  0  0
 11 16  1  0  0  0  0
 17 18  1  0  0  0  0
 17 22  1  0  0  0  0
 18 19  1  0  0  0  0
 18 21  1  0  0  0  0
 18 23  1  0  0  0  0
 19 20  2  0  0  0  0
 19 27  1  0  0  0  0
 21 24  1  0  0  0  0
 21 25  1  0  0  0  0
 21 26  1  0  0  0  0
 27 28  1  0  0  0  0
 27 32  1  0  0  0  0
 28 29  1  0  0  0  0
 28 31  1  0  0  0  0
 28 33  1  0  0  0  0
 29 30  2  0  0  0  0
 29 37  1  0  0  0  0
 31 34  1  0  0  0  0
 31 35  1  0  0  0  0
 31 36  1  0  0  0  0
 37 38  1  0  0  0  0
 37 39  1  0  0  0  0
 38 40  1  0  0  0  0
 38 41  1  0  0  0  0
 38 42  1  0  0  0  0
M  END
$$$$

  -OEChem-05262215353D

 42 41  0     1  0  0  0  0  0999 V2000
   -5.6172   -0.7732    1.5593 C   0  0  0  0  0  0  0  0  0  0  0  0
   -5.9502    0.0651    0.7359 O   0  0  0  0  0  0  0  0  0  0  0  0
   -6.5449   -1.9286    1.8836 C   0  0  0  0  0  0  0  0  0  0  0  0
   -6.7915   -1.9207    2.9478 H   0  0  0  0  0  0  0  0  0  0  0  0
   -7.4696   -1.8443    1.3063 H   0  0  0  0  0  0  0  0  0  0  0  0
   -6.0596   -2.8758    1.6359 H   0  0  0  0  0  0  0  0  0  0  0  0
   -4.3977   -0.6822    2.1964 N   0  0  0  0  0  0  0  0  0  0  0  0
   -3.3163    0.2170    1.7695 C   0  0  2  0  0  0  0  0  0  0  0  0
   -2.0953   -0.5660    1.2408 C   0  0  0  0  0  0  0  0  0  0  0  0
   -2.0468   -1.7828    1.3589 O   0  0  0  0  0  0  0  0  0  0  0  0
   -2.9295    1.0604    2.9877 C   0  0  0  0  0  0  0  0  0  0  0  0
   -4.1136   -1.5057    2.7268 H   0  0  0  0  0  0  0  0  0  0  0  0
   -3.6541    0.8839    0.9694 H   0  0  0  0  0  0  0  0  0  0  0  0
   -2.5666    0.4187    3.7981 H   0  0  0  0  0  0  0  0  0  0  0  0
   -2.1433    1.7762    2.7306 H   0  0  0  0  0  0  0  0  0  0  0  0
   -3.7984    1.6192    3.3500 H   0  0  0  0  0  0  0  0  0  0  0  0
   -1.0093    0.0950    0.6919 N   0  0  0  0  0  0  0  0  0  0  0  0
    0.3812   -0.4127    0.6105 C   0  0  2  0  0  0  0  0  0  0  0  0
    0.9133   -1.3855    1.7030 C   0  0  0  0  0  0  0  0  0  0  0  0
    2.0141   -1.9028    1.5572 O   0  0  0  0  0  0  0  0  0  0  0  0
    1.2877    0.8224    0.5584 C   0  0  0  0  0  0  0  0  0  0  0  0
   -1.1266    1.0998    0.6002 H   0  0  0  0  0  0  0  0  0  0  0  0
    0.4735   -0.9564   -0.3356 H   0  0  0  0  0  0  0  0  0  0  0  0
    1.2414    1.3724    1.5037 H   0  0  0  0  0  0  0  0  0  0  0  0
    2.3267    0.5243    0.3823 H   0  0  0  0  0  0  0  0  0  0  0  0
    0.9842    1.4898   -0.2540 H   0  0  0  0  0  0  0  0  0  0  0  0
    0.2595   -1.5643    2.9072 N   0  0  0  0  0  0  0  0  0  0  0  0
    0.6403   -2.5494    3.9222 C   0  0  2  0  0  0  0  0  0  0  0  0
   -0.6048   -3.0572    4.6822 C   0  0  0  0  0  0  0  0  0  0  0  0
   -1.6410   -2.3971    4.6963 O   0  0  0  0  0  0  0  0  0  0  0  0
    1.6344   -1.9015    4.8902 C   0  0  0  0  0  0  0  0  0  0  0  0
   -0.7408   -1.3632    2.8661 H   0  0  0  0  0  0  0  0  0  0  0  0
    1.1112   -3.4126    3.4400 H   0  0  0  0  0  0  0  0  0  0  0  0
    1.1790   -1.0370    5.3836 H   0  0  0  0  0  0  0  0  0  0  0  0
    1.9453   -2.6176    5.6564 H   0  0  0  0  0  0  0  0  0  0  0  0
    2.5253   -1.5658    4.3501 H   0  0  0  0  0  0  0  0  0  0  0  0
   -0.5635   -4.2634    5.3569 N   0  0  0  0  0  0  0  0  0  0  0  0
   -1.7116   -4.8309    6.0532 C   0  0  0  0  0  0  0  0  0  0  0  0
    0.2899   -4.8104    5.2870 H   0  0  0  0  0  0  0  0  0  0  0  0
   -2.0611   -4.1488    6.8353 H   0  0  0  0  0  0  0  0  0  0  0  0
   -2.5330   -5.0141    5.3525 H   0  0  0  0  0  0  0  0  0  0  0  0
   -1.4376   -5.7811    6.5215 H   0  0  0  0  0  0  0  0  0  0  0  0
  1  2  2  0  0  0  0
  1  3  1  0  0  0  0
  1  7  1  0  0  0  0
  3  4  1  0  0  0  0
  3  5  1  0  0  0  0
  3  6  1  0  0  0  0
  7  8  1  0  0  0  0
  7 12  1  0  0  0  0
  8  9  1  0  0  0  0
  8 11  1  0  0  0  0
  8 13  1  0  0  0  0
  9 10  2  0  0  0  0
  9 17  1  0  0  0  0
 11 14  1  0  0  0  0
 11 15  1  0  0  0  0
 11 16  1  0  0  0  0
 17 18  1  0  0  0  0
 17 22  1  0  0  0  0
 18 19  1  0  0  0  0
 18 21  1  0  0  0  0
 18 23  1  0  0  0  0
 19 20  2  0  0  0  0
 19 27  1  0  0  0  0
 21 24  1  0  0  0  0
 21 25  1  0  0  0  0
 21 26  1  0  0  0  0
 27 28  1  0  0  0  0
 27 32  1  0  0  0  0
 28 29  1  0  0  0  0
 28 31  1  0  0  0  0
 28 33  1  0  0  0  0
 29 30  2  0  0  0  0
 29 37  1  0  0  0  0
 31 34  1  0  0  0  0
 31 35  1  0  0  0  0
 31 36  1  0  0  0  0
 37 38  1  0  0  0  0
 37 39  1  0  0  0  0
 38 40  1  0  0  0  0
 38 41  1  0  0  0  0
 38 42  1  0  0  0  0
M  END
$$$$

  -OEChem-05262215353D

 42 41  0     1  0  0  0  0  0999 V2000
   -5.2208   -1.2250    2.0801 C   0  0  0  0  0  0  0  0  0  0  0  0
   -5.9053   -0.5327    1.3418 O   0  0  0  0  0  0  0  0  0  0  0  0
   -5.7838   -2.5103    2.6556 C   0  0  0  0  0  0  0  0  0  0  0  0
   -5.8496   -2.4329    3.7434 H   0  0  0  0  0  0  0  0  0  0  0  0
   -6.7819   -2.7001    2.2513 H   0  0  0  0  0  0  0  0  0  0  0  0
   -5.1319   -3.3492    2.3975 H   0  0  0  0  0  0  0  0  0  0  0  0
   -3.9376   -0.8449    2.4081 N   0  0  0  0  0  0  0  0  0  0  0  0
   -3.1857    0.1941    1.6849 C   0  0  2  0  0  0  0  0  0  0  0  0
   -2.0353   -0.4133    0.8469 C   0  0  0  0  0  0  0  0  0  0  0  0
   -2.0292   -1.6073    0.5779 O   0  0  0  0  0  0  0  0  0  0  0  0
   -2.6713    1.1751    2.7447 C   0  0  0  0  0  0  0  0  0  0  0  0
   -3.3956   -1.5569    2.9095 H   0  0  0  0  0  0  0  0  0  0  0  0
   -3.8377    0.7396    0.9947 H   0  0  0  0  0  0  0  0  0  0  0  0
   -1.9599    0.6791    3.4136 H   0  0  0  0  0  0  0  0  0  0  0  0
   -2.1779    2.0315    2.2766 H   0  0  0  0  0  0  0  0  0  0  0  0
   -3.5068    1.5506    3.3444 H   0  0  0  0  0  0  0  0  0  0  0  0
   -0.8961    0.3110    0.5384 N   0  0  0  0  0  0  0  0  0  0  0  0
    0.4896   -0.2200    0.5992 C   0  0  2  0  0  0  0  0  0  0  0  0
    0.8505   -1.3323    1.6355 C   0  0  0  0  0  0  0  0  0  0  0  0
    2.0157   -1.6851    1.7657 O   0  0  0  0  0  0  0  0  0  0  0  0
    1.3919    1.0020    0.8163 C   0  0  0  0  0  0  0  0  0  0  0  0
   -0.9822    1.3015    0.7439 H   0  0  0  0  0  0  0  0  0  0  0  0
    0.7147   -0.6517   -0.3814 H   0  0  0  0  0  0  0  0  0  0  0  0
    1.2219    1.4333    1.8080 H   0  0  0  0  0  0  0  0  0  0  0  0
    2.4467    0.7183    0.7392 H   0  0  0  0  0  0  0  0  0  0  0  0
    1.1921    1.7669    0.0594 H   0  0  0  0  0  0  0  0  0  0  0  0
   -0.0815   -1.8496    2.5132 N   0  0  0  0  0  0  0  0  0  0  0  0
    0.1383   -2.8893    3.5196 C   0  0  2  0  0  0  0  0  0  0  0  0
   -1.2177   -3.4862    3.9626 C   0  0  0  0  0  0  0  0  0  0  0  0
   -2.2635   -2.8603    3.7884 O   0  0  0  0  0  0  0  0  0  0  0  0
    0.8636   -2.2869    4.7285 C   0  0  0  0  0  0  0  0  0  0  0  0
   -1.0456   -1.7660    2.1854 H   0  0  0  0  0  0  0  0  0  0  0  0
    0.7452   -3.6918    3.0875 H   0  0  0  0  0  0  0  0  0  0  0  0
    0.2717   -1.4745    5.1620 H   0  0  0  0  0  0  0  0  0  0  0  0
    1.0264   -3.0487    5.4965 H   0  0  0  0  0  0  0  0  0  0  0  0
    1.8378   -1.8868    4.4317 H   0  0  0  0  0  0  0  0  0  0  0  0
   -1.2725   -4.7278    4.5678 N   0  0  0  0  0  0  0  0  0  0  0  0
   -2.5167   -5.3571    4.9943 C   0  0  0  0  0  0  0  0  0  0  0  0
   -0.4000   -5.2371    4.6772 H   0  0  0  0  0  0  0  0  0  0  0  0
   -3.0247   -4.7357    5.7394 H   0  0  0  0  0  0  0  0  0  0  0  0
   -3.1866   -5.5014    4.1399 H   0  0  0  0  0  0  0  0  0  0  0  0
   -2.3128   -6.3346    5.4421 H   0  0  0  0  0  0  0  0  0  0  0  0
  1  2  2  0  0  0  0
  1  3  1  0  0  0  0
  1  7  1  0  0  0  0
  3  4  1  0  0  0  0
  3  5  1  0  0  0  0
  3  6  1  0  0  0  0
  7  8  1  0  0  0  0
  7 12  1  0  0  0  0
  8  9  1  0  0  0  0
  8 11  1  0  0  0  0
  8 13  1  0  0  0  0
  9 10  2  0  0  0  0
  9 17  1  0  0  0  0
 11 14  1  0  0  0  0
 11 15  1  0  0  0  0
 11 16  1  0  0  0  0
 17 18  1  0  0  0  0
 17 22  1  0  0  0  0
 18 19  1  0  0  0  0
 18 21  1  0  0  0  0
 18 23  1  0  0  0  0
 19 20  2  0  0  0  0
 19 27  1  0  0  0  0
 21 24  1  0  0  0  0
 21 25  1  0  0  0  0
 21 26  1  0  0  0  0
 27 28  1  0  0  0  0
 27 32  1  0  0  0  0
 28 29  1  0  0  0  0
 28 31  1  0  0  0  0
 28 33  1  0  0  0  0
 29 30  2  0  0  0  0
 29 37  1  0  0  0  0
 31 34  1  0  0  0  0
 31 35  1  0  0  0  0
 31 36  1  0  0  0  0
 37 38  1  0  0  0  0
 37 39  1  0  0  0  0
 38 40  1  0  0  0  0
 38 41  1  0  0  0  0
 38 42  1  0  0  0  0
M  END
$$$$

  -OEChem-05262215353D

 42 41  0     1  0  0  0  0  0999 V2000
   -5.2359   -1.3927    2.0024 C   0  0  0  0  0  0  0  0  0  0  0  0
   -5.9262   -0.5999    1.3792 O   0  0  0  0  0  0  0  0  0  0  0  0
   -5.7937   -2.7482    2.3927 C   0  0  0  0  0  0  0  0  0  0  0  0
   -5.6768   -2.9045    3.4678 H   0  0  0  0  0  0  0  0  0  0  0  0
   -6.8553   -2.8086    2.1388 H   0  0  0  0  0  0  0  0  0  0  0  0
   -5.2552   -3.5358    1.8594 H   0  0  0  0  0  0  0  0  0  0  0  0
   -3.9449   -1.0706    2.3598 N   0  0  0  0  0  0  0  0  0  0  0  0
   -3.1920    0.0490    1.7722 C   0  0  2  0  0  0  0  0  0  0  0  0
   -2.1065   -0.4482    0.7880 C   0  0  0  0  0  0  0  0  0  0  0  0
   -2.1252   -1.5973    0.3643 O   0  0  0  0  0  0  0  0  0  0  0  0
   -2.5841    0.8260    2.9457 C   0  0  0  0  0  0  0  0  0  0  0  0
   -3.4016   -1.8535    2.7389 H   0  0  0  0  0  0  0  0  0  0  0  0
   -3.8571    0.7194    1.2176 H   0  0  0  0  0  0  0  0  0  0  0  0
   -1.8648    0.2023    3.4868 H   0  0  0  0  0  0  0  0  0  0  0  0
   -2.0740    1.7275    2.5946 H   0  0  0  0  0  0  0  0  0  0  0  0
   -3.3720    1.1303    3.6425 H   0  0  0  0  0  0  0  0  0  0  0  0
   -0.9917    0.3123    0.4819 N   0  0  0  0  0  0  0  0  0  0  0  0
    0.4028   -0.1980    0.5084 C   0  0  2  0  0  0  0  0  0  0  0  0
    0.8010   -1.3343    1.5090 C   0  0  0  0  0  0  0  0  0  0  0  0
    1.9787   -1.5020    1.7987 O   0  0  0  0  0  0  0  0  0  0  0  0
    1.2843    1.0407    0.7221 C   0  0  0  0  0  0  0  0  0  0  0  0
   -1.0857    1.2802    0.7742 H   0  0  0  0  0  0  0  0  0  0  0  0
    0.6134   -0.6055   -0.4857 H   0  0  0  0  0  0  0  0  0  0  0  0
    1.1396    1.4458    1.7285 H   0  0  0  0  0  0  0  0  0  0  0  0
    2.3423    0.7857    0.6015 H   0  0  0  0  0  0  0  0  0  0  0  0
    1.0404    1.8171   -0.0096 H   0  0  0  0  0  0  0  0  0  0  0  0
   -0.1292   -2.1086    2.1737 N   0  0  0  0  0  0  0  0  0  0  0  0
    0.1043   -3.0777    3.2486 C   0  0  2  0  0  0  0  0  0  0  0  0
   -1.2086   -3.8201    3.5844 C   0  0  0  0  0  0  0  0  0  0  0  0
   -2.2965   -3.2753    3.4027 O   0  0  0  0  0  0  0  0  0  0  0  0
    0.6034   -2.3616    4.5115 C   0  0  0  0  0  0  0  0  0  0  0  0
   -1.0647   -2.1116    1.7584 H   0  0  0  0  0  0  0  0  0  0  0  0
    0.8489   -3.8098    2.9201 H   0  0  0  0  0  0  0  0  0  0  0  0
   -0.1147   -1.5968    4.8240 H   0  0  0  0  0  0  0  0  0  0  0  0
    0.7308   -3.0755    5.3311 H   0  0  0  0  0  0  0  0  0  0  0  0
    1.5682   -1.8793    4.3301 H   0  0  0  0  0  0  0  0  0  0  0  0
   -1.1762   -5.0928    4.1227 N   0  0  0  0  0  0  0  0  0  0  0  0
   -2.3752   -5.8527    4.4551 C   0  0  0  0  0  0  0  0  0  0  0  0
   -0.2669   -5.5287    4.2488 H   0  0  0  0  0  0  0  0  0  0  0  0
   -2.9598   -5.3309    5.2200 H   0  0  0  0  0  0  0  0  0  0  0  0
   -3.0003   -5.9910    3.5665 H   0  0  0  0  0  0  0  0  0  0  0  0
   -2.1024   -6.8392    4.8422 H   0  0  0  0  0  0  0  0  0  0  0  0
  1  2  2  0  0  0  0
  1  3  1  0  0  0  0
  1  7  1  0  0  0  0
  3  4  1  0  0  0  0
  3  5  1  0  0  0  0
  3  6  1  0  0  0  0
  7  8  1  0  0  0  0
  7 12  1  0  0  0  0
  8  9  1  0  0  0  0
  8 11  1  0  0  0  0
  8 13  1  0  0  0  0
  9 10  2  0  0  0  0
  9 17  1  0  0  0  0
 11 14  1  0  0  0  0
 11 15  1  0  0  0  0
 11 16  1  0  0  0  0
 17 18  1  0  0  0  0
 17 22  1  0  0  0  0
 18 19  1  0  0  0  0
 18 21  1  0  0  0  0
 18 23  1  0  0  0  0
 19 20  2  0  0  0  0
 19 27  1  0  0  0  0
 21 24  1  0  0  0  0
 21 25  1  0  0  0  0
 21 26  1  0  0  0  0
 27 28  1  0  0  0  0
 27 32  1  0  0  0  0
 28 29  1  0  0  0  0
 28 31  1  0  0  0  0
 28 33  1  0  0  0  0
 29 30  2  0  0  0  0
 29 37  1  0  0  0  0
 31 34  1  0  0  0  0
 31 35  1  0  0  0  0
 31 36  1  0  0  0  0
 37 38  1  0  0  0  0
 37 39  1  0  0  0  0
 38 40  1  0  0  0  0
 38 41  1  0  0  0  0
 38 42  1  0  0  0  0
M  END
$$$$

  -OEChem-05262215353D

 42 41  0     1  0  0  0  0  0999 V2000
   -4.9062    0.0205    1.0767 C   0  0  0  0  0  0  0  0  0  0  0  0
   -3.9852    0.5651    0.4862 O   0  0  0  0  0  0  0  0  0  0  0  0
   -6.2360   -0.2059    0.3834 C   0  0  0  0  0  0  0  0  0  0  0  0
   -7.0514    0.1815    0.9993 H   0  0  0  0  0  0  0  0  0  0  0  0
   -6.2503    0.3095   -0.5813 H   0  0  0  0  0  0  0  0  0  0  0  0
   -6.3913   -1.2746    0.2147 H   0  0  0  0  0  0  0  0  0  0  0  0
   -4.7016   -0.4488    2.3582 N   0  0  0  0  0  0  0  0  0  0  0  0
   -3.4464   -0.2803    3.1078 C   0  0  2  0  0  0  0  0  0  0  0  0
   -2.3429   -1.2720    2.6603 C   0  0  0  0  0  0  0  0  0  0  0  0
   -1.9399   -2.1454    3.4147 O   0  0  0  0  0  0  0  0  0  0  0  0
   -3.7868   -0.3962    4.5993 C   0  0  0  0  0  0  0  0  0  0  0  0
   -5.4615   -0.9650    2.7929 H   0  0  0  0  0  0  0  0  0  0  0  0
   -3.0553    0.7286    2.9366 H   0  0  0  0  0  0  0  0  0  0  0  0
   -4.1837   -1.3901    4.8294 H   0  0  0  0  0  0  0  0  0  0  0  0
   -2.8904   -0.2337    5.2063 H   0  0  0  0  0  0  0  0  0  0  0  0
   -4.5331    0.3532    4.8803 H   0  0  0  0  0  0  0  0  0  0  0  0
   -1.9297   -1.2509    1.3413 N   0  0  0  0  0  0  0  0  0  0  0  0
   -0.6529   -1.6998    0.7430 C   0  0  2  0  0  0  0  0  0  0  0  0
    0.6815   -1.6413    1.5538 C   0  0  0  0  0  0  0  0  0  0  0  0
    1.7195   -1.2701    1.0259 O   0  0  0  0  0  0  0  0  0  0  0  0
   -0.5408   -0.9097   -0.5701 C   0  0  0  0  0  0  0  0  0  0  0  0
   -2.4339   -0.5444    0.7963 H   0  0  0  0  0  0  0  0  0  0  0  0
   -0.7783   -2.7572    0.4902 H   0  0  0  0  0  0  0  0  0  0  0  0
   -0.3721    0.1525   -0.3651 H   0  0  0  0  0  0  0  0  0  0  0  0
    0.2926   -1.2835   -1.1738 H   0  0  0  0  0  0  0  0  0  0  0  0
   -1.4573   -1.0106   -1.1603 H   0  0  0  0  0  0  0  0  0  0  0  0
    0.7999   -1.7653    2.9183 N   0  0  0  0  0  0  0  0  0  0  0  0
    1.5593   -2.9265    3.4143 C   0  0  2  0  0  0  0  0  0  0  0  0
    0.9726   -4.3068    3.0399 C   0  0  0  0  0  0  0  0  0  0  0  0
    1.7124   -5.2778    2.9539 O   0  0  0  0  0  0  0  0  0  0  0  0
    1.6245   -2.8004    4.9380 C   0  0  0  0  0  0  0  0  0  0  0  0
    1.1860   -0.9022    3.2868 H   0  0  0  0  0  0  0  0  0  0  0  0
    2.5784   -2.8894    3.0118 H   0  0  0  0  0  0  0  0  0  0  0  0
    0.6173   -2.8244    5.3672 H   0  0  0  0  0  0  0  0  0  0  0  0
    2.2039   -3.6267    5.3624 H   0  0  0  0  0  0  0  0  0  0  0  0
    2.1050   -1.8600    5.2241 H   0  0  0  0  0  0  0  0  0  0  0  0
   -0.3817   -4.4732    2.8304 N   0  0  0  0  0  0  0  0  0  0  0  0
   -1.0087   -5.7630    2.5799 C   0  0  0  0  0  0  0  0  0  0  0  0
   -0.9743   -3.6675    3.0534 H   0  0  0  0  0  0  0  0  0  0  0  0
   -2.0680   -5.6260    2.3433 H   0  0  0  0  0  0  0  0  0  0  0  0
   -0.5292   -6.2651    1.7330 H   0  0  0  0  0  0  0  0  0  0  0  0
   -0.9274   -6.4046    3.4632 H   0  0  0  0  0  0  0  0  0  0  0  0
  1  2  2  0  0  0  0
  1  3  1  0  0  0  0
  1  7  1  0  0  0  0
  3  4  1  0  0  0  0
  3  5  1  0  0  0  0
  3  6  1  0  0  0  0
  7  8  1  0  0  0  0
  7 12  1  0  0  0  0
  8  9  1  0  0  0  0
  8 11  1  0  0  0  0
  8 13  1  0  0  0  0
  9 10  2  0  0  0  0
  9 17  1  0  0  0  0
 11 14  1  0  0  0  0
 11 15  1  0  0  0  0
 11 16  1  0  0  0  0
 17 18  1  0  0  0  0
 17 22  1  0  0  0  0
 18 19  1  0  0  0  0
 18 21  1  0  0  0  0
 18 23  1  0  0  0  0
 19 20  2  0  0  0  0
 19 27  1  0  0  0  0
 21 24  1  0  0  0  0
 21 25  1  0  0  0  0
 21 26  1  0  0  0  0
 27 28  1  0  0  0  0
 27 32  1  0  0  0  0
 28 29  1  0  0  0  0
 28 31  1  0  0  0  0
 28 33  1  0  0  0  0
 29 30  2  0  0  0  0
 29 37  1  0  0  0  0
 31 34  1  0  0  0  0
 31 35  1  0  0  0  0
 31 36  1  0  0  0  0
 37 38  1  0  0  0  0
 37 39  1  0  0  0  0
 38 40  1  0  0  0  0
 38 41  1  0  0  0  0
 38 42  1  0  0  0  0
M  END
$$$$

  -OEChem-05262215353D

 42 41  0     1  0  0  0  0  0999 V2000
   -5.8649   -0.2858    1.8587 C   0  0  0  0  0  0  0  0  0  0  0  0
   -6.0982    0.9115    1.8020 O   0  0  0  0  0  0  0  0  0  0  0  0
   -7.0026   -1.2888    1.8147 C   0  0  0  0  0  0  0  0  0  0  0  0
   -6.9837   -1.9140    2.7108 H   0  0  0  0  0  0  0  0  0  0  0  0
   -7.9632   -0.7682    1.7681 H   0  0  0  0  0  0  0  0  0  0  0  0
   -6.9046   -1.9260    0.9324 H   0  0  0  0  0  0  0  0  0  0  0  0
   -4.5631   -0.7294    1.9529 N   0  0  0  0  0  0  0  0  0  0  0  0
   -3.3820    0.1366    1.8401 C   0  0  2  0  0  0  0  0  0  0  0  0
   -2.1818   -0.6178    1.2299 C   0  0  0  0  0  0  0  0  0  0  0  0
   -2.2639   -1.8204    1.0258 O   0  0  0  0  0  0  0  0  0  0  0  0
   -3.0309    0.6605    3.2366 C   0  0  0  0  0  0  0  0  0  0  0  0
   -4.4054   -1.7329    1.8548 H   0  0  0  0  0  0  0  0  0  0  0  0
   -3.6074    0.9827    1.1816 H   0  0  0  0  0  0  0  0  0  0  0  0
   -2.7924   -0.1702    3.9089 H   0  0  0  0  0  0  0  0  0  0  0  0
   -2.1685    1.3322    3.1918 H   0  0  0  0  0  0  0  0  0  0  0  0
   -3.8761    1.2156    3.6564 H   0  0  0  0  0  0  0  0  0  0  0  0
   -1.0668    0.0738    0.7919 N   0  0  0  0  0  0  0  0  0  0  0  0
    0.3136   -0.4364    0.6224 C   0  0  2  0  0  0  0  0  0  0  0  0
    0.8602   -1.5846    1.5335 C   0  0  0  0  0  0  0  0  0  0  0  0
    1.9851   -1.4884    2.0124 O   0  0  0  0  0  0  0  0  0  0  0  0
    1.2088    0.8120    0.6910 C   0  0  0  0  0  0  0  0  0  0  0  0
   -1.1357    1.0778    0.9300 H   0  0  0  0  0  0  0  0  0  0  0  0
    0.3772   -0.8386   -0.3937 H   0  0  0  0  0  0  0  0  0  0  0  0
    1.2101    1.2265    1.7045 H   0  0  0  0  0  0  0  0  0  0  0  0
    2.2396    0.5609    0.4191 H   0  0  0  0  0  0  0  0  0  0  0  0
    0.8559    1.5802   -0.0042 H   0  0  0  0  0  0  0  0  0  0  0  0
    0.1573   -2.7324    1.8435 N   0  0  0  0  0  0  0  0  0  0  0  0
    0.6179   -3.7945    2.7480 C   0  0  2  0  0  0  0  0  0  0  0  0
   -0.0780   -5.1460    2.4833 C   0  0  0  0  0  0  0  0  0  0  0  0
   -1.2052   -5.1913    2.0061 O   0  0  0  0  0  0  0  0  0  0  0  0
    0.3550   -3.3494    4.1907 C   0  0  0  0  0  0  0  0  0  0  0  0
   -0.7949   -2.8082    1.4672 H   0  0  0  0  0  0  0  0  0  0  0  0
    1.6926   -3.9486    2.6060 H   0  0  0  0  0  0  0  0  0  0  0  0
   -0.7152   -3.1794    4.3475 H   0  0  0  0  0  0  0  0  0  0  0  0
    0.6940   -4.1140    4.8960 H   0  0  0  0  0  0  0  0  0  0  0  0
    0.8909   -2.4202    4.4074 H   0  0  0  0  0  0  0  0  0  0  0  0
    0.5538   -6.3284    2.8241 N   0  0  0  0  0  0  0  0  0  0  0  0
   -0.0504   -7.6418    2.6352 C   0  0  0  0  0  0  0  0  0  0  0  0
    1.4913   -6.2665    3.2101 H   0  0  0  0  0  0  0  0  0  0  0  0
   -0.9613   -7.7330    3.2362 H   0  0  0  0  0  0  0  0  0  0  0  0
   -0.3062   -7.7989    1.5820 H   0  0  0  0  0  0  0  0  0  0  0  0
    0.6467   -8.4274    2.9421 H   0  0  0  0  0  0  0  0  0  0  0  0
  1  2  2  0  0  0  0
  1  3  1  0  0  0  0
  1  7  1  0  0  0  0
  3  4  1  0  0  0  0
  3  5  1  0  0  0  0
  3  6  1  0  0  0  0
  7  8  1  0  0  0  0
  7 12  1  0  0  0  0
  8  9  1  0  0  0  0
  8 11  1  0  0  0  0
  8 13  1  0  0  0  0
  9 10  2  0  0  0  0
  9 17  1  0  0  0  0
 11 14  1  0  0  0  0
 11 15  1  0  0  0  0
 11 16  1  0  0  0  0
 17 18  1  0  0  0  0
 17 22  1  0  0  0  0
 18 19  1  0  0  0  0
 18 21  1  0  0  0  0
 18 23  1  0  0  0  0
 19 20  2  0  0  0  0
 19 27  1  0  0  0  0
 21 24  1  0  0  0  0
 21 25  1  0  0  0  0
 21 26  1  0  0  0  0
 27 28  1  0  0  0  0
 27 32  1  0  0  0  0
 28 29  1  0  0  0  0
 28 31  1  0  0  0  0
 28 33  1  0  0  0  0
 29 30  2  0  0  0  0
 29 37  1  0  0  0  0
 31 34  1  0  0  0  0
 31 35  1  0  0  0  0
 31 36  1  0  0  0  0
 37 38  1  0  0  0  0
 37 39  1  0  0  0  0
 38 40  1  0  0  0  0
 38 41  1  0  0  0  0
 38 42  1  0  0  0  0
M  END
$$$$

  -OEChem-05262215353D

 42 41  0     1  0  0  0  0  0999 V2000
   -5.8553   -0.3508    1.8519 C   0  0  0  0  0  0  0  0  0  0  0  0
   -6.0912    0.8423    1.7444 O   0  0  0  0  0  0  0  0  0  0  0  0
   -6.9819   -1.3631    1.7686 C   0  0  0  0  0  0  0  0  0  0  0  0
   -7.0729   -1.8971    2.7175 H   0  0  0  0  0  0  0  0  0  0  0  0
   -7.9280   -0.8578    1.5552 H   0  0  0  0  0  0  0  0  0  0  0  0
   -6.7798   -2.0826    0.9711 H   0  0  0  0  0  0  0  0  0  0  0  0
   -4.5592   -0.7823    2.0361 N   0  0  0  0  0  0  0  0  0  0  0  0
   -3.3784    0.0863    1.9485 C   0  0  2  0  0  0  0  0  0  0  0  0
   -2.1551   -0.6742    1.3941 C   0  0  0  0  0  0  0  0  0  0  0  0
   -2.1882   -1.8947    1.3201 O   0  0  0  0  0  0  0  0  0  0  0  0
   -3.0802    0.6431    3.3438 C   0  0  0  0  0  0  0  0  0  0  0  0
   -4.3918   -1.7872    1.9862 H   0  0  0  0  0  0  0  0  0  0  0  0
   -3.5835    0.9172    1.2649 H   0  0  0  0  0  0  0  0  0  0  0  0
   -2.8693   -0.1711    4.0447 H   0  0  0  0  0  0  0  0  0  0  0  0
   -2.2150    1.3122    3.3151 H   0  0  0  0  0  0  0  0  0  0  0  0
   -3.9403    1.2089    3.7164 H   0  0  0  0  0  0  0  0  0  0  0  0
   -1.0872    0.0288    0.8637 N   0  0  0  0  0  0  0  0  0  0  0  0
    0.2852   -0.4547    0.5911 C   0  0  2  0  0  0  0  0  0  0  0  0
    0.9050   -1.5816    1.4767 C   0  0  0  0  0  0  0  0  0  0  0  0
    1.9607   -1.3870    2.0698 O   0  0  0  0  0  0  0  0  0  0  0  0
    1.1665    0.8042    0.5768 C   0  0  0  0  0  0  0  0  0  0  0  0
   -1.1868    1.0378    0.9296 H   0  0  0  0  0  0  0  0  0  0  0  0
    0.2801   -0.8682   -0.4225 H   0  0  0  0  0  0  0  0  0  0  0  0
    1.2181    1.2481    1.5765 H   0  0  0  0  0  0  0  0  0  0  0  0
    2.1834    0.5538    0.2568 H   0  0  0  0  0  0  0  0  0  0  0  0
    0.7663    1.5481   -0.1191 H   0  0  0  0  0  0  0  0  0  0  0  0
    0.3441   -2.8380    1.5853 N   0  0  0  0  0  0  0  0  0  0  0  0
    0.8693   -3.9371    2.4060 C   0  0  2  0  0  0  0  0  0  0  0  0
    0.4387   -5.3266    1.8891 C   0  0  0  0  0  0  0  0  0  0  0  0
   -0.4960   -5.4505    1.1067 O   0  0  0  0  0  0  0  0  0  0  0  0
    0.3827   -3.7372    3.8451 C   0  0  0  0  0  0  0  0  0  0  0  0
   -0.6038   -2.9434    1.2068 H   0  0  0  0  0  0  0  0  0  0  0  0
    1.9638   -3.9115    2.3877 H   0  0  0  0  0  0  0  0  0  0  0  0
   -0.7114   -3.7543    3.8822 H   0  0  0  0  0  0  0  0  0  0  0  0
    0.7672   -4.5294    4.4945 H   0  0  0  0  0  0  0  0  0  0  0  0
    0.7298   -2.7749    4.2340 H   0  0  0  0  0  0  0  0  0  0  0  0
    1.1032   -6.4605    2.3210 N   0  0  0  0  0  0  0  0  0  0  0  0
    0.7632   -7.8069    1.8768 C   0  0  0  0  0  0  0  0  0  0  0  0
    1.8880   -6.3328    2.9525 H   0  0  0  0  0  0  0  0  0  0  0  0
   -0.2844   -8.0332    2.1035 H   0  0  0  0  0  0  0  0  0  0  0  0
    0.9191   -7.9038    0.7972 H   0  0  0  0  0  0  0  0  0  0  0  0
    1.3925   -8.5440    2.3851 H   0  0  0  0  0  0  0  0  0  0  0  0
  1  2  2  0  0  0  0
  1  3  1  0  0  0  0
  1  7  1  0  0  0  0
  3  4  1  0  0  0  0
  3  5  1  0  0  0  0
  3  6  1  0  0  0  0
  7  8  1  0  0  0  0
  7 12  1  0  0  0  0
  8  9  1  0  0  0  0
  8 11  1  0  0  0  0
  8 13  1  0  0  0  0
  9 10  2  0  0  0  0
  9 17  1  0  0  0  0
 11 14  1  0  0  0  0
 11 15  1  0  0  0  0
 11 16  1  0  0  0  0
 17 18  1  0  0  0  0
 17 22  1  0  0  0  0
 18 19  1  0  0  0  0
 18 21  1  0  0  0  0
 18 23  1  0  0  0  0
 19 20  2  0  0  0  0
 19 27  1  0  0  0  0
 21 24  1  0  0  0  0
 21 25  1  0  0  0  0
 21 26  1  0  0  0  0
 27 28  1  0  0  0  0
 27 32  1  0  0  0  0
 28 29  1  0  0  0  0
 28 31  1  0  0  0  0
 28 33  1  0  0  0  0
 29 30  2  0  0  0  0
 29 37  1  0  0  0  0
 31 34  1  0  0  0  0
 31 35  1  0  0  0  0
 31 36  1  0  0  0  0
 37 38  1  0  0  0  0
 37 39  1  0  0  0  0
 38 40  1  0  0  0  0
 38 41  1  0  0  0  0
 38 42  1  0  0  0  0
M  END
$$$$

  -OEChem-05262215353D

 42 41  0     1  0  0  0  0  0999 V2000
   -5.7761   -0.5363    1.9099 C   0  0  0  0  0  0  0  0  0  0  0  0
   -6.0523    0.6500    1.8236 O   0  0  0  0  0  0  0  0  0  0  0  0
   -6.8767   -1.5794    1.8676 C   0  0  0  0  0  0  0  0  0  0  0  0
   -6.9019   -2.1326    2.8095 H   0  0  0  0  0  0  0  0  0  0  0  0
   -7.8469   -1.0980    1.7149 H   0  0  0  0  0  0  0  0  0  0  0  0
   -6.6975   -2.2781    1.0469 H   0  0  0  0  0  0  0  0  0  0  0  0
   -4.4607   -0.9305    2.0352 N   0  0  0  0  0  0  0  0  0  0  0  0
   -3.3126   -0.0203    1.9342 C   0  0  2  0  0  0  0  0  0  0  0  0
   -2.0715   -0.7213    1.3430 C   0  0  0  0  0  0  0  0  0  0  0  0
   -2.0444   -1.9422    1.2565 O   0  0  0  0  0  0  0  0  0  0  0  0
   -3.0019    0.5235    3.3319 C   0  0  0  0  0  0  0  0  0  0  0  0
   -4.2636   -1.9293    1.9774 H   0  0  0  0  0  0  0  0  0  0  0  0
   -3.5634    0.8135    1.2697 H   0  0  0  0  0  0  0  0  0  0  0  0
   -2.7427   -0.2946    4.0119 H   0  0  0  0  0  0  0  0  0  0  0  0
   -2.1632    1.2250    3.2949 H   0  0  0  0  0  0  0  0  0  0  0  0
   -3.8725    1.0499    3.7361 H   0  0  0  0  0  0  0  0  0  0  0  0
   -1.0380    0.0345    0.8174 N   0  0  0  0  0  0  0  0  0  0  0  0
    0.3448   -0.4138    0.5511 C   0  0  2  0  0  0  0  0  0  0  0  0
    0.9486   -1.5270    1.4583 C   0  0  0  0  0  0  0  0  0  0  0  0
    1.8426   -1.2638    2.2557 O   0  0  0  0  0  0  0  0  0  0  0  0
    1.2101    0.8553    0.5636 C   0  0  0  0  0  0  0  0  0  0  0  0
   -1.1649    1.0379    0.9133 H   0  0  0  0  0  0  0  0  0  0  0  0
    0.3668   -0.8227   -0.4639 H   0  0  0  0  0  0  0  0  0  0  0  0
    1.2183    1.3075    1.5609 H   0  0  0  0  0  0  0  0  0  0  0  0
    2.2415    0.6145    0.2860 H   0  0  0  0  0  0  0  0  0  0  0  0
    0.8267    1.5896   -0.1514 H   0  0  0  0  0  0  0  0  0  0  0  0
    0.5717   -2.8481    1.3215 N   0  0  0  0  0  0  0  0  0  0  0  0
    1.0818   -3.9550    2.1410 C   0  0  2  0  0  0  0  0  0  0  0  0
    0.9305   -5.3258    1.4468 C   0  0  0  0  0  0  0  0  0  0  0  0
    0.1353   -5.4840    0.5277 O   0  0  0  0  0  0  0  0  0  0  0  0
    0.3283   -3.9566    3.4755 C   0  0  0  0  0  0  0  0  0  0  0  0
   -0.3111   -3.0053    0.8270 H   0  0  0  0  0  0  0  0  0  0  0  0
    2.1496   -3.8019    2.3286 H   0  0  0  0  0  0  0  0  0  0  0  0
   -0.7440   -4.0988    3.3062 H   0  0  0  0  0  0  0  0  0  0  0  0
    0.6902   -4.7626    4.1204 H   0  0  0  0  0  0  0  0  0  0  0  0
    0.4749   -3.0061    3.9976 H   0  0  0  0  0  0  0  0  0  0  0  0
    1.6880   -6.4037    1.8696 N   0  0  0  0  0  0  0  0  0  0  0  0
    1.6014   -7.7283    1.2662 C   0  0  0  0  0  0  0  0  0  0  0  0
    2.3514   -6.2463    2.6224 H   0  0  0  0  0  0  0  0  0  0  0  0
    0.5798   -8.1162    1.3392 H   0  0  0  0  0  0  0  0  0  0  0  0
    1.8884   -7.6877    0.2100 H   0  0  0  0  0  0  0  0  0  0  0  0
    2.2714   -8.4242    1.7802 H   0  0  0  0  0  0  0  0  0  0  0  0
  1  2  2  0  0  0  0
  1  3  1  0  0  0  0
  1  7  1  0  0  0  0
  3  4  1  0  0  0  0
  3  5  1  0  0  0  0
  3  6  1  0  0  0  0
  7  8  1  0  0  0  0
  7 12  1  0  0  0  0
  8  9  1  0  0  0  0
  8 11  1  0  0  0  0
  8 13  1  0  0  0  0
  9 10  2  0  0  0  0
  9 17  1  0  0  0  0
 11 14  1  0  0  0  0
 11 15  1  0  0  0  0
 11 16  1  0  0  0  0
 17 18  1  0  0  0  0
 17 22  1  0  0  0  0
 18 19  1  0  0  0  0
 18 21  1  0  0  0  0
 18 23  1  0  0  0  0
 19 20  2  0  0  0  0
 19 27  1  0  0  0  0
 21 24  1  0  0  0  0
 21 25  1  0  0  0  0
 21 26  1  0  0  0  0
 27 28  1  0  0  0  0
 27 32  1  0  0  0  0
 28 29  1  0  0  0  0
 28 31  1  0  0  0  0
 28 33  1  0  0  0  0
 29 30  2  0  0  0  0
 29 37  1  0  0  0  0
 31 34  1  0  0  0  0
 31 35  1  0  0  0  0
 31 36  1  0  0  0  0
 37 38  1  0  0  0  0
 37 39  1  0  0  0  0
 38 40  1  0  0  0  0
 38 41  1  0  0  0  0
 38 42  1  0  0  0  0
M  END
$$$$

  -OEChem-05262215353D

 42 41  0     1  0  0  0  0  0999 V2000
   -5.6851   -0.7069    1.9692 C   0  0  0  0  0  0  0  0  0  0  0  0
   -5.9969    0.4735    1.9527 O   0  0  0  0  0  0  0  0  0  0  0  0
   -6.7579   -1.7788    1.9261 C   0  0  0  0  0  0  0  0  0  0  0  0
   -6.7055   -2.3962    2.8260 H   0  0  0  0  0  0  0  0  0  0  0  0
   -7.7481   -1.3182    1.8726 H   0  0  0  0  0  0  0  0  0  0  0  0
   -6.6171   -2.4137    1.0482 H   0  0  0  0  0  0  0  0  0  0  0  0
   -4.3547   -1.0659    2.0203 N   0  0  0  0  0  0  0  0  0  0  0  0
   -3.2367   -0.1173    1.9361 C   0  0  2  0  0  0  0  0  0  0  0  0
   -1.9942   -0.7491    1.2748 C   0  0  0  0  0  0  0  0  0  0  0  0
   -1.9189   -1.9658    1.1484 O   0  0  0  0  0  0  0  0  0  0  0  0
   -2.8982    0.3605    3.3515 C   0  0  0  0  0  0  0  0  0  0  0  0
   -4.1286   -2.0550    1.9206 H   0  0  0  0  0  0  0  0  0  0  0  0
   -3.5306    0.7430    1.3252 H   0  0  0  0  0  0  0  0  0  0  0  0
   -2.5985   -0.4853    3.9789 H   0  0  0  0  0  0  0  0  0  0  0  0
   -2.0779    1.0845    3.3284 H   0  0  0  0  0  0  0  0  0  0  0  0
   -3.7691    0.8418    3.8080 H   0  0  0  0  0  0  0  0  0  0  0  0
   -1.0060    0.0617    0.7431 N   0  0  0  0  0  0  0  0  0  0  0  0
    0.3858   -0.3508    0.4800 C   0  0  2  0  0  0  0  0  0  0  0  0
    0.9767   -1.4426    1.4145 C   0  0  0  0  0  0  0  0  0  0  0  0
    1.6250   -1.1285    2.4072 O   0  0  0  0  0  0  0  0  0  0  0  0
    1.2382    0.9251    0.5066 C   0  0  0  0  0  0  0  0  0  0  0  0
   -1.1532    1.0554    0.8942 H   0  0  0  0  0  0  0  0  0  0  0  0
    0.4286   -0.7621   -0.5333 H   0  0  0  0  0  0  0  0  0  0  0  0
    1.2081    1.3905    1.4974 H   0  0  0  0  0  0  0  0  0  0  0  0
    2.2802    0.6887    0.2683 H   0  0  0  0  0  0  0  0  0  0  0  0
    0.8723    1.6463   -0.2305 H   0  0  0  0  0  0  0  0  0  0  0  0
    0.8549   -2.7811    1.0984 N   0  0  0  0  0  0  0  0  0  0  0  0
    1.3452   -3.8843    1.9330 C   0  0  2  0  0  0  0  0  0  0  0  0
    1.5355   -5.1863    1.1258 C   0  0  0  0  0  0  0  0  0  0  0  0
    1.0034   -5.3308    0.0308 O   0  0  0  0  0  0  0  0  0  0  0  0
    0.3461   -4.1115    3.0731 C   0  0  0  0  0  0  0  0  0  0  0  0
    0.1567   -3.0141    0.3909 H   0  0  0  0  0  0  0  0  0  0  0  0
    2.3194   -3.6139    2.3538 H   0  0  0  0  0  0  0  0  0  0  0  0
   -0.6382   -4.3715    2.6701 H   0  0  0  0  0  0  0  0  0  0  0  0
    0.6835   -4.9228    3.7246 H   0  0  0  0  0  0  0  0  0  0  0  0
    0.2442   -3.2051    3.6780 H   0  0  0  0  0  0  0  0  0  0  0  0
    2.3081   -6.2136    1.6372 N   0  0  0  0  0  0  0  0  0  0  0  0
    2.5324   -7.4723    0.9363 C   0  0  0  0  0  0  0  0  0  0  0  0
    2.7483   -6.0660    2.5407 H   0  0  0  0  0  0  0  0  0  0  0  0
    1.5814   -7.9844    0.7551 H   0  0  0  0  0  0  0  0  0  0  0  0
    3.0250   -7.2932   -0.0252 H   0  0  0  0  0  0  0  0  0  0  0  0
    3.1709   -8.1298    1.5342 H   0  0  0  0  0  0  0  0  0  0  0  0
  1  2  2  0  0  0  0
  1  3  1  0  0  0  0
  1  7  1  0  0  0  0
  3  4  1  0  0  0  0
  3  5  1  0  0  0  0
  3  6  1  0  0  0  0
  7  8  1  0  0  0  0
  7 12  1  0  0  0  0
  8  9  1  0  0  0  0
  8 11  1  0  0  0  0
  8 13  1  0  0  0  0
  9 10  2  0  0  0  0
  9 17  1  0  0  0  0
 11 14  1  0  0  0  0
 11 15  1  0  0  0  0
 11 16  1  0  0  0  0
 17 18  1  0  0  0  0
 17 22  1  0  0  0  0
 18 19  1  0  0  0  0
 18 21  1  0  0  0  0
 18 23  1  0  0  0  0
 19 20  2  0  0  0  0
 19 27  1  0  0  0  0
 21 24  1  0  0  0  0
 21 25  1  0  0  0  0
 21 26  1  0  0  0  0
 27 28  1  0  0  0  0
 27 32  1  0  0  0  0
 28 29  1  0  0  0  0
 28 31  1  0  0  0  0
 28 33  1  0  0  0  0
 29 30  2  0  0  0  0
 29 37  1  0  0  0  0
 31 34  1  0  0  0  0
 31 35  1  0  0  0  0
 31 36  1  0  0  0  0
 37 38  1  0  0  0  0
 37 39  1  0  0  0  0
 38 40  1  0  0  0  0
 38 41  1  0  0  0  0
 38 42  1  0  0  0  0
M  END
$$$$

  -OEChem-05262215353D

 42 41  0     1  0  0  0  0  0999 V2000
   -5.6186   -0.8159    2.0031 C   0  0  0  0  0  0  0  0  0  0  0  0
   -5.9612    0.3560    1.9852 O   0  0  0  0  0  0  0  0  0  0  0  0
   -6.6643   -1.9140    1.9525 C   0  0  0  0  0  0  0  0  0  0  0  0
   -6.6291   -2.5050    2.8708 H   0  0  0  0  0  0  0  0  0  0  0  0
   -7.6627   -1.4789    1.8513 H   0  0  0  0  0  0  0  0  0  0  0  0
   -6.4782   -2.5688    1.0976 H   0  0  0  0  0  0  0  0  0  0  0  0
   -4.2799   -1.1419    2.0588 N   0  0  0  0  0  0  0  0  0  0  0  0
   -3.1859   -0.1672    1.9588 C   0  0  2  0  0  0  0  0  0  0  0  0
   -1.9554   -0.7573    1.2396 C   0  0  0  0  0  0  0  0  0  0  0  0
   -1.8531   -1.9706    1.0928 O   0  0  0  0  0  0  0  0  0  0  0  0
   -2.8087    0.2813    3.3735 C   0  0  0  0  0  0  0  0  0  0  0  0
   -4.0301   -2.1246    1.9527 H   0  0  0  0  0  0  0  0  0  0  0  0
   -3.5169    0.7020    1.3802 H   0  0  0  0  0  0  0  0  0  0  0  0
   -2.4659   -0.5727    3.9665 H   0  0  0  0  0  0  0  0  0  0  0  0
   -2.0072    1.0256    3.3416 H   0  0  0  0  0  0  0  0  0  0  0  0
   -3.6745    0.7274    3.8729 H   0  0  0  0  0  0  0  0  0  0  0  0
   -1.0052    0.0829    0.6836 N   0  0  0  0  0  0  0  0  0  0  0  0
    0.3896   -0.3112    0.4131 C   0  0  2  0  0  0  0  0  0  0  0  0
    0.9834   -1.3778    1.3701 C   0  0  0  0  0  0  0  0  0  0  0  0
    1.3650   -1.0563    2.4908 O   0  0  0  0  0  0  0  0  0  0  0  0
    1.2375    0.9665    0.4322 C   0  0  0  0  0  0  0  0  0  0  0  0
   -1.1585    1.0689    0.8729 H   0  0  0  0  0  0  0  0  0  0  0  0
    0.4319   -0.7335   -0.5961 H   0  0  0  0  0  0  0  0  0  0  0  0
    1.2031    1.4391    1.4194 H   0  0  0  0  0  0  0  0  0  0  0  0
    2.2808    0.7316    0.1983 H   0  0  0  0  0  0  0  0  0  0  0  0
    0.8705    1.6809   -0.3109 H   0  0  0  0  0  0  0  0  0  0  0  0
    1.1484   -2.6837    0.9521 N   0  0  0  0  0  0  0  0  0  0  0  0
    1.6449   -3.7756    1.7968 C   0  0  2  0  0  0  0  0  0  0  0  0
    2.1972   -4.9483    0.9588 C   0  0  0  0  0  0  0  0  0  0  0  0
    1.9338   -5.0416   -0.2353 O   0  0  0  0  0  0  0  0  0  0  0  0
    0.4954   -4.2572    2.6892 C   0  0  0  0  0  0  0  0  0  0  0  0
    0.7246   -2.9451    0.0629 H   0  0  0  0  0  0  0  0  0  0  0  0
    2.4622   -3.4059    2.4248 H   0  0  0  0  0  0  0  0  0  0  0  0
   -0.3340   -4.6243    2.0761 H   0  0  0  0  0  0  0  0  0  0  0  0
    0.8291   -5.0650    3.3469 H   0  0  0  0  0  0  0  0  0  0  0  0
    0.1271   -3.4368    3.3127 H   0  0  0  0  0  0  0  0  0  0  0  0
    2.9989   -5.9088    1.5486 N   0  0  0  0  0  0  0  0  0  0  0  0
    3.5570   -7.0436    0.8231 C   0  0  0  0  0  0  0  0  0  0  0  0
    3.2082   -5.8034    2.5369 H   0  0  0  0  0  0  0  0  0  0  0  0
    2.7561   -7.6606    0.4020 H   0  0  0  0  0  0  0  0  0  0  0  0
    4.2020   -6.6984    0.0082 H   0  0  0  0  0  0  0  0  0  0  0  0
    4.1544   -7.6658    1.4961 H   0  0  0  0  0  0  0  0  0  0  0  0
  1  2  2  0  0  0  0
  1  3  1  0  0  0  0
  1  7  1  0  0  0  0
  3  4  1  0  0  0  0
  3  5  1  0  0  0  0
  3  6  1  0  0  0  0
  7  8  1  0  0  0  0
  7 12  1  0  0  0  0
  8  9  1  0  0  0  0
  8 11  1  0  0  0  0
  8 13  1  0  0  0  0
  9 10  2  0  0  0  0
  9 17  1  0  0  0  0
 11 14  1  0  0  0  0
 11 15  1  0  0  0  0
 11 16  1  0  0  0  0
 17 18  1  0  0  0  0
 17 22  1  0  0  0  0
 18 19  1  0  0  0  0
 18 21  1  0  0  0  0
 18 23  1  0  0  0  0
 19 20  2  0  0  0  0
 19 27  1  0  0  0  0
 21 24  1  0  0  0  0
 21 25  1  0  0  0  0
 21 26  1  0  0  0  0
 27 28  1  0  0  0  0
 27 32  1  0  0  0  0
 28 29  1  0  0  0  0
 28 31  1  0  0  0  0
 28 33  1  0  0  0  0
 29 30  2  0  0  0  0
 29 37  1  0  0  0  0
 31 34  1  0  0  0  0
 31 35  1  0  0  0  0
 31 36  1  0  0  0  0
 37 38  1  0  0  0  0
 37 39  1  0  0  0  0
 38 40  1  0  0  0  0
 38 41  1  0  0  0  0
 38 42  1  0  0  0  0
M  END
$$$$

  -OEChem-05262215353D

 42 41  0     1  0  0  0  0  0999 V2000
   -5.5859   -0.8525    2.0176 C   0  0  0  0  0  0  0  0  0  0  0  0
   -5.9363    0.3171    2.0013 O   0  0  0  0  0  0  0  0  0  0  0  0
   -6.6237   -1.9584    1.9680 C   0  0  0  0  0  0  0  0  0  0  0  0
   -6.5912   -2.5423    2.8911 H   0  0  0  0  0  0  0  0  0  0  0  0
   -7.6242   -1.5312    1.8557 H   0  0  0  0  0  0  0  0  0  0  0  0
   -6.4262   -2.6187    1.1200 H   0  0  0  0  0  0  0  0  0  0  0  0
   -4.2457   -1.1709    2.0712 N   0  0  0  0  0  0  0  0  0  0  0  0
   -3.1571   -0.1916    1.9627 C   0  0  2  0  0  0  0  0  0  0  0  0
   -1.9487   -0.7669    1.1971 C   0  0  0  0  0  0  0  0  0  0  0  0
   -1.8437   -1.9785    1.0326 O   0  0  0  0  0  0  0  0  0  0  0  0
   -2.7406    0.2241    3.3758 C   0  0  0  0  0  0  0  0  0  0  0  0
   -3.9915   -2.1511    1.9535 H   0  0  0  0  0  0  0  0  0  0  0  0
   -3.5032    0.6902    1.4128 H   0  0  0  0  0  0  0  0  0  0  0  0
   -2.3847   -0.6440    3.9401 H   0  0  0  0  0  0  0  0  0  0  0  0
   -1.9366    0.9652    3.3384 H   0  0  0  0  0  0  0  0  0  0  0  0
   -3.5914    0.6623    3.9071 H   0  0  0  0  0  0  0  0  0  0  0  0
   -1.0208    0.0838    0.6197 N   0  0  0  0  0  0  0  0  0  0  0  0
    0.3758   -0.3069    0.3576 C   0  0  2  0  0  0  0  0  0  0  0  0
    0.9680   -1.3462    1.3432 C   0  0  0  0  0  0  0  0  0  0  0  0
    1.1074   -1.0551    2.5269 O   0  0  0  0  0  0  0  0  0  0  0  0
    1.2241    0.9688    0.3620 C   0  0  0  0  0  0  0  0  0  0  0  0
   -1.1745    1.0659    0.8273 H   0  0  0  0  0  0  0  0  0  0  0  0
    0.4192   -0.7492   -0.6426 H   0  0  0  0  0  0  0  0  0  0  0  0
    1.1945    1.4483    1.3460 H   0  0  0  0  0  0  0  0  0  0  0  0
    2.2661    0.7312    0.1254 H   0  0  0  0  0  0  0  0  0  0  0  0
    0.8540    1.6780   -0.3848 H   0  0  0  0  0  0  0  0  0  0  0  0
    1.4254   -2.5683    0.8905 N   0  0  0  0  0  0  0  0  0  0  0  0
    1.9663   -3.6300    1.7463 C   0  0  2  0  0  0  0  0  0  0  0  0
    2.8488   -4.6120    0.9474 C   0  0  0  0  0  0  0  0  0  0  0  0
    2.8037   -4.6326   -0.2782 O   0  0  0  0  0  0  0  0  0  0  0  0
    0.7941   -4.3740    2.3964 C   0  0  0  0  0  0  0  0  0  0  0  0
    1.2728   -2.7989   -0.0899 H   0  0  0  0  0  0  0  0  0  0  0  0
    2.5912   -3.1853    2.5277 H   0  0  0  0  0  0  0  0  0  0  0  0
    0.1480   -4.8122    1.6288 H   0  0  0  0  0  0  0  0  0  0  0  0
    1.1578   -5.1753    3.0465 H   0  0  0  0  0  0  0  0  0  0  0  0
    0.1947   -3.6859    3.0011 H   0  0  0  0  0  0  0  0  0  0  0  0
    3.7091   -5.4712    1.6064 N   0  0  0  0  0  0  0  0  0  0  0  0
    4.5814   -6.4149    0.9182 C   0  0  0  0  0  0  0  0  0  0  0  0
    3.7293   -5.4305    2.6211 H   0  0  0  0  0  0  0  0  0  0  0  0
    3.9875   -7.1564    0.3735 H   0  0  0  0  0  0  0  0  0  0  0  0
    5.2300   -5.8906    0.2082 H   0  0  0  0  0  0  0  0  0  0  0  0
    5.2150   -6.9400    1.6394 H   0  0  0  0  0  0  0  0  0  0  0  0
  1  2  2  0  0  0  0
  1  3  1  0  0  0  0
  1  7  1  0  0  0  0
  3  4  1  0  0  0  0
  3  5  1  0  0  0  0
  3  6  1  0  0  0  0
  7  8  1  0  0  0  0
  7 12  1  0  0  0  0
  8  9  1  0  0  0  0
  8 11  1  0  0  0  0
  8 13  1  0  0  0  0
  9 10  2  0  0  0  0
  9 17  1  0  0  0  0
 11 14  1  0  0  0  0
 11 15  1  0  0  0  0
 11 16  1  0  0  0  0
 17 18  1  0  0  0  0
 17 22  1  0  0  0  0
 18 19  1  0  0  0  0
 18 21  1  0  0  0  0
 18 23  1  0  0  0  0
 19 20  2  0  0  0  0
 19 27  1  0  0  0  0
 21 24  1  0  0  0  0
 21 25  1  0  0  0  0
 21 26  1  0  0  0  0
 27 28  1  0  0  0  0
 27 32  1  0  0  0  0
 28 29  1  0  0  0  0
 28 31  1  0  0  0  0
 28 33  1  0  0  0  0
 29 30  2  0  0  0  0
 29 37  1  0  0  0  0
 31 34  1  0  0  0  0
 31 35  1  0  0  0  0
 31 36  1  0  0  0  0
 37 38  1  0  0  0  0
 37 39  1  0  0  0  0
 38 40  1  0  0  0  0
 38 41  1  0  0  0  0
 38 42  1  0  0  0  0
M  END
$$$$

  -OEChem-05262215353D

 42 41  0     1  0  0  0  0  0999 V2000
   -5.5933   -0.8168    1.9953 C   0  0  0  0  0  0  0  0  0  0  0  0
   -5.9238    0.3577    1.9443 O   0  0  0  0  0  0  0  0  0  0  0  0
   -6.6485   -1.9057    1.9425 C   0  0  0  0  0  0  0  0  0  0  0  0
   -6.6269   -2.4902    2.8655 H   0  0  0  0  0  0  0  0  0  0  0  0
   -7.6421   -1.4630    1.8277 H   0  0  0  0  0  0  0  0  0  0  0  0
   -6.4588   -2.5689    1.0950 H   0  0  0  0  0  0  0  0  0  0  0  0
   -4.2611   -1.1587    2.0917 N   0  0  0  0  0  0  0  0  0  0  0  0
   -3.1517   -0.2042    1.9714 C   0  0  2  0  0  0  0  0  0  0  0  0
   -1.9826   -0.7889    1.1539 C   0  0  0  0  0  0  0  0  0  0  0  0
   -1.9011   -1.9999    0.9707 O   0  0  0  0  0  0  0  0  0  0  0  0
   -2.6801    0.1624    3.3806 C   0  0  0  0  0  0  0  0  0  0  0  0
   -4.0247   -2.1452    1.9908 H   0  0  0  0  0  0  0  0  0  0  0  0
   -3.4894    0.7014    1.4571 H   0  0  0  0  0  0  0  0  0  0  0  0
   -2.3243   -0.7287    3.9085 H   0  0  0  0  0  0  0  0  0  0  0  0
   -1.8617    0.8873    3.3364 H   0  0  0  0  0  0  0  0  0  0  0  0
   -3.5030    0.6035    3.9520 H   0  0  0  0  0  0  0  0  0  0  0  0
   -1.0576    0.0513    0.5565 N   0  0  0  0  0  0  0  0  0  0  0  0
    0.3384   -0.3548    0.3165 C   0  0  2  0  0  0  0  0  0  0  0  0
    0.9221   -1.3664    1.3350 C   0  0  0  0  0  0  0  0  0  0  0  0
    0.8622   -1.1257    2.5371 O   0  0  0  0  0  0  0  0  0  0  0  0
    1.1947    0.9141    0.2970 C   0  0  0  0  0  0  0  0  0  0  0  0
   -1.1977    1.0335    0.7722 H   0  0  0  0  0  0  0  0  0  0  0  0
    0.3849   -0.8258   -0.6702 H   0  0  0  0  0  0  0  0  0  0  0  0
    1.1639    1.4132    1.2711 H   0  0  0  0  0  0  0  0  0  0  0  0
    2.2360    0.6654    0.0690 H   0  0  0  0  0  0  0  0  0  0  0  0
    0.8313    1.6094   -0.4660 H   0  0  0  0  0  0  0  0  0  0  0  0
    1.6501   -2.4582    0.9036 N   0  0  0  0  0  0  0  0  0  0  0  0
    2.3072   -3.4305    1.7845 C   0  0  2  0  0  0  0  0  0  0  0  0
    3.4735   -4.1466    1.0707 C   0  0  0  0  0  0  0  0  0  0  0  0
    3.6228   -4.0310   -0.1414 O   0  0  0  0  0  0  0  0  0  0  0  0
    1.2571   -4.4436    2.2550 C   0  0  0  0  0  0  0  0  0  0  0  0
    1.7477   -2.6032   -0.1002 H   0  0  0  0  0  0  0  0  0  0  0  0
    2.7248   -2.9118    2.6539 H   0  0  0  0  0  0  0  0  0  0  0  0
    0.8303   -4.9769    1.3995 H   0  0  0  0  0  0  0  0  0  0  0  0
    1.7030   -5.1746    2.9356 H   0  0  0  0  0  0  0  0  0  0  0  0
    0.4458   -3.9329    2.7838 H   0  0  0  0  0  0  0  0  0  0  0  0
    4.3716   -4.9121    1.7921 N   0  0  0  0  0  0  0  0  0  0  0  0
    5.5012   -5.6058    1.1849 C   0  0  0  0  0  0  0  0  0  0  0  0
    4.2310   -4.9819    2.7958 H   0  0  0  0  0  0  0  0  0  0  0  0
    5.1521   -6.3205    0.4321 H   0  0  0  0  0  0  0  0  0  0  0  0
    6.1772   -4.8902    0.7051 H   0  0  0  0  0  0  0  0  0  0  0  0
    6.0630   -6.1546    1.9470 H   0  0  0  0  0  0  0  0  0  0  0  0
  1  2  2  0  0  0  0
  1  3  1  0  0  0  0
  1  7  1  0  0  0  0
  3  4  1  0  0  0  0
  3  5  1  0  0  0  0
  3  6  1  0  0  0  0
  7  8  1  0  0  0  0
  7 12  1  0  0  0  0
  8  9  1  0  0  0  0
  8 11  1  0  0  0  0
  8 13  1  0  0  0  0
  9 10  2  0  0  0  0
  9 17  1  0  0  0  0
 11 14  1  0  0  0  0
 11 15  1  0  0  0  0
 11 16  1  0  0  0  0
 17 18  1  0  0  0  0
 17 22  1  0  0  0  0
 18 19  1  0  0  0  0
 18 21  1  0  0  0  0
 18 23  1  0  0  0  0
 19 20  2  0  0  0  0
 19 27  1  0  0  0  0
 21 24  1  0  0  0  0
 21 25  1  0  0  0  0
 21 26  1  0  0  0  0
 27 28  1  0  0  0  0
 27 32  1  0  0  0  0
 28 29  1  0  0  0  0
 28 31  1  0  0  0  0
 28 33  1  0  0  0  0
 29 30  2  0  0  0  0
 29 37  1  0  0  0  0
 31 34  1  0  0  0  0
 31 35  1  0  0  0  0
 31 36  1  0  0  0  0
 37 38  1  0  0  0  0
 37 39  1  0  0  0  0
 38 40  1  0  0  0  0
 38 41  1  0  0  0  0
 38 42  1  0  0  0  0
M  END
$$$$

  -OEChem-05262215353D

 42 41  0     1  0  0  0  0  0999 V2000
   -5.6090   -0.7835    2.0010 C   0  0  0  0  0  0  0  0  0  0  0  0
   -5.9236    0.3964    1.9968 O   0  0  0  0  0  0  0  0  0  0  0  0
   -6.6814   -1.8553    1.9468 C   0  0  0  0  0  0  0  0  0  0  0  0
   -6.6328   -2.4774    2.8438 H   0  0  0  0  0  0  0  0  0  0  0  0
   -7.6719   -1.3952    1.8895 H   0  0  0  0  0  0  0  0  0  0  0  0
   -6.5353   -2.4855    1.0661 H   0  0  0  0  0  0  0  0  0  0  0  0
   -4.2797   -1.1461    2.0406 N   0  0  0  0  0  0  0  0  0  0  0  0
   -3.1606   -0.2041    1.9156 C   0  0  2  0  0  0  0  0  0  0  0  0
   -2.0046   -0.7991    1.0864 C   0  0  0  0  0  0  0  0  0  0  0  0
   -1.9599   -2.0047    0.8586 O   0  0  0  0  0  0  0  0  0  0  0  0
   -2.6709    0.1511    3.3219 C   0  0  0  0  0  0  0  0  0  0  0  0
   -4.0603   -2.1323    1.9054 H   0  0  0  0  0  0  0  0  0  0  0  0
   -3.4935    0.7068    1.4072 H   0  0  0  0  0  0  0  0  0  0  0  0
   -2.3203   -0.7466    3.8421 H   0  0  0  0  0  0  0  0  0  0  0  0
   -1.8440    0.8660    3.2727 H   0  0  0  0  0  0  0  0  0  0  0  0
   -3.4822    0.5992    3.9041 H   0  0  0  0  0  0  0  0  0  0  0  0
   -1.0509    0.0278    0.5166 N   0  0  0  0  0  0  0  0  0  0  0  0
    0.3437   -0.4088    0.3209 C   0  0  2  0  0  0  0  0  0  0  0  0
    0.8885   -1.4311    1.3517 C   0  0  0  0  0  0  0  0  0  0  0  0
    0.6524   -1.2835    2.5473 O   0  0  0  0  0  0  0  0  0  0  0  0
    1.2225    0.8447    0.3314 C   0  0  0  0  0  0  0  0  0  0  0  0
   -1.1697    1.0067    0.7586 H   0  0  0  0  0  0  0  0  0  0  0  0
    0.4097   -0.8812   -0.6644 H   0  0  0  0  0  0  0  0  0  0  0  0
    1.1741    1.3385    1.3077 H   0  0  0  0  0  0  0  0  0  0  0  0
    2.2652    0.5801    0.1289 H   0  0  0  0  0  0  0  0  0  0  0  0
    0.8916    1.5508   -0.4366 H   0  0  0  0  0  0  0  0  0  0  0  0
    1.8532   -2.3461    0.9765 N   0  0  0  0  0  0  0  0  0  0  0  0
    2.5949   -3.2129    1.9001 C   0  0  2  0  0  0  0  0  0  0  0  0
    3.9637   -3.6201    1.3148 C   0  0  0  0  0  0  0  0  0  0  0  0
    4.2303   -3.3786    0.1419 O   0  0  0  0  0  0  0  0  0  0  0  0
    1.7400   -4.4502    2.1940 C   0  0  0  0  0  0  0  0  0  0  0  0
    2.1379   -2.3661   -0.0018 H   0  0  0  0  0  0  0  0  0  0  0  0
    2.7855   -2.6761    2.8355 H   0  0  0  0  0  0  0  0  0  0  0  0
    1.5355   -5.0024    1.2712 H   0  0  0  0  0  0  0  0  0  0  0  0
    2.2532   -5.1160    2.8937 H   0  0  0  0  0  0  0  0  0  0  0  0
    0.7847   -4.1541    2.6396 H   0  0  0  0  0  0  0  0  0  0  0  0
    4.9088   -4.2442    2.1081 N   0  0  0  0  0  0  0  0  0  0  0  0
    6.2207   -4.6522    1.6200 C   0  0  0  0  0  0  0  0  0  0  0  0
    4.6641   -4.4274    3.0769 H   0  0  0  0  0  0  0  0  0  0  0  0
    6.1184   -5.3968    0.8233 H   0  0  0  0  0  0  0  0  0  0  0  0
    6.7701   -3.7900    1.2274 H   0  0  0  0  0  0  0  0  0  0  0  0
    6.8070   -5.0926    2.4323 H   0  0  0  0  0  0  0  0  0  0  0  0
  1  2  2  0  0  0  0
  1  3  1  0  0  0  0
  1  7  1  0  0  0  0
  3  4  1  0  0  0  0
  3  5  1  0  0  0  0
  3  6  1  0  0  0  0
  7  8  1  0  0  0  0
  7 12  1  0  0  0  0
  8  9  1  0  0  0  0
  8 11  1  0  0  0  0
  8 13  1  0  0  0  0
  9 10  2  0  0  0  0
  9 17  1  0  0  0  0
 11 14  1  0  0  0  0
 11 15  1  0  0  0  0
 11 16  1  0  0  0  0
 17 18  1  0  0  0  0
 17 22  1  0  0  0  0
 18 19  1  0  0  0  0
 18 21  1  0  0  0  0
 18 23  1  0  0  0  0
 19 20  2  0  0  0  0
 19 27  1  0  0  0  0
 21 24  1  0  0  0  0
 21 25  1  0  0  0  0
 21 26  1  0  0  0  0
 27 28  1  0  0  0  0
 27 32  1  0  0  0  0
 28 29  1  0  0  0  0
 28 31  1  0  0  0  0
 28 33  1  0  0  0  0
 29 30  2  0  0  0  0
 29 37  1  0  0  0  0
 31 34  1  0  0  0  0
 31 35  1  0  0  0  0
 31 36  1  0  0  0  0
 37 38  1  0  0  0  0
 37 39  1  0  0  0  0
 38 40  1  0  0  0  0
 38 41  1  0  0  0  0
 38 42  1  0  0  0  0
M  END
$$$$

  -OEChem-05262215353D

 42 41  0     1  0  0  0  0  0999 V2000
   -5.6214   -0.7351    1.9676 C   0  0  0  0  0  0  0  0  0  0  0  0
   -5.9150    0.4502    1.9529 O   0  0  0  0  0  0  0  0  0  0  0  0
   -6.7115   -1.7888    1.9148 C   0  0  0  0  0  0  0  0  0  0  0  0
   -6.6757   -2.4071    2.8149 H   0  0  0  0  0  0  0  0  0  0  0  0
   -7.6937   -1.3123    1.8525 H   0  0  0  0  0  0  0  0  0  0  0  0
   -6.5730   -2.4254    1.0378 H   0  0  0  0  0  0  0  0  0  0  0  0
   -4.2995   -1.1220    2.0234 N   0  0  0  0  0  0  0  0  0  0  0  0
   -3.1603   -0.2036    1.9022 C   0  0  2  0  0  0  0  0  0  0  0  0
   -2.0177   -0.8187    1.0681 C   0  0  0  0  0  0  0  0  0  0  0  0
   -2.0134   -2.0183    0.8074 O   0  0  0  0  0  0  0  0  0  0  0  0
   -2.6646    0.1301    3.3115 C   0  0  0  0  0  0  0  0  0  0  0  0
   -4.0980   -2.1130    1.8946 H   0  0  0  0  0  0  0  0  0  0  0  0
   -3.4727    0.7184    1.4005 H   0  0  0  0  0  0  0  0  0  0  0  0
   -2.3291   -0.7783    3.8229 H   0  0  0  0  0  0  0  0  0  0  0  0
   -1.8260    0.8315    3.2682 H   0  0  0  0  0  0  0  0  0  0  0  0
   -3.4679    0.5860    3.8988 H   0  0  0  0  0  0  0  0  0  0  0  0
   -1.0393   -0.0123    0.5111 N   0  0  0  0  0  0  0  0  0  0  0  0
    0.3507   -0.4749    0.3380 C   0  0  2  0  0  0  0  0  0  0  0  0
    0.8854   -1.5045    1.3695 C   0  0  0  0  0  0  0  0  0  0  0  0
    0.5016   -1.4783    2.5352 O   0  0  0  0  0  0  0  0  0  0  0  0
    1.2415    0.7710    0.3562 C   0  0  0  0  0  0  0  0  0  0  0  0
   -1.1409    0.9668    0.7585 H   0  0  0  0  0  0  0  0  0  0  0  0
    0.4205   -0.9503   -0.6455 H   0  0  0  0  0  0  0  0  0  0  0  0
    1.1993    1.2568    1.3364 H   0  0  0  0  0  0  0  0  0  0  0  0
    2.2822    0.5021    0.1488 H   0  0  0  0  0  0  0  0  0  0  0  0
    0.9151    1.4860   -0.4053 H   0  0  0  0  0  0  0  0  0  0  0  0
    2.0433   -2.2052    1.0874 N   0  0  0  0  0  0  0  0  0  0  0  0
    2.8251   -2.9693    2.0668 C   0  0  2  0  0  0  0  0  0  0  0  0
    4.3148   -3.0360    1.6694 C   0  0  0  0  0  0  0  0  0  0  0  0
    4.6820   -2.6115    0.5783 O   0  0  0  0  0  0  0  0  0  0  0  0
    2.2238   -4.3746    2.1711 C   0  0  0  0  0  0  0  0  0  0  0  0
    2.4714   -2.0645    0.1732 H   0  0  0  0  0  0  0  0  0  0  0  0
    2.7728   -2.4802    3.0452 H   0  0  0  0  0  0  0  0  0  0  0  0
    2.2801   -4.8868    1.2056 H   0  0  0  0  0  0  0  0  0  0  0  0
    2.7606   -4.9703    2.9147 H   0  0  0  0  0  0  0  0  0  0  0  0
    1.1729   -4.3158    2.4724 H   0  0  0  0  0  0  0  0  0  0  0  0
    5.2510   -3.5528    2.5458 N   0  0  0  0  0  0  0  0  0  0  0  0
    6.6751   -3.6298    2.2439 C   0  0  0  0  0  0  0  0  0  0  0  0
    4.9185   -3.8857    3.4463 H   0  0  0  0  0  0  0  0  0  0  0  0
    6.8440   -4.2299    1.3434 H   0  0  0  0  0  0  0  0  0  0  0  0
    7.0870   -2.6278    2.0829 H   0  0  0  0  0  0  0  0  0  0  0  0
    7.2131   -4.0958    3.0751 H   0  0  0  0  0  0  0  0  0  0  0  0
  1  2  2  0  0  0  0
  1  3  1  0  0  0  0
  1  7  1  0  0  0  0
  3  4  1  0  0  0  0
  3  5  1  0  0  0  0
  3  6  1  0  0  0  0
  7  8  1  0  0  0  0
  7 12  1  0  0  0  0
  8  9  1  0  0  0  0
  8 11  1  0  0  0  0
  8 13  1  0  0  0  0
  9 10  2  0  0  0  0
  9 17  1  0  0  0  0
 11 14  1  0  0  0  0
 11 15  1  0  0  0  0
 11 16  1  0  0  0  0
 17 18  1  0  0  0  0
 17 22  1  0  0  0  0
 18 19  1  0  0  0  0
 18 21  1  0  0  0  0
 18 23  1  0  0  0  0
 19 20  2  0  0  0  0
 19 27  1  0  0  0  0
 21 24  1  0  0  0  0
 21 25  1  0  0  0  0
 21 26  1  0  0  0  0
 27 28  1  0  0  0  0
 27 32  1  0  0  0  0
 28 29  1  0  0  0  0
 28 31  1  0  0  0  0
 28 33  1  0  0  0  0
 29 30  2  0  0  0  0
 29 37  1  0  0  0  0
 31 34  1  0  0  0  0
 31 35  1  0  0  0  0
 31 36  1  0  0  0  0
 37 38  1  0  0  0  0
 37 39  1  0  0  0  0
 38 40  1  0  0  0  0
 38 41  1  0  0  0  0
 38 42  1  0  0  0  0
M  END
$$$$

  -OEChem-05262215353D

 42 41  0     1  0  0  0  0  0999 V2000
   -5.6363   -0.5911    2.0516 C   0  0  0  0  0  0  0  0  0  0  0  0
   -5.8334    0.5966    2.2572 O   0  0  0  0  0  0  0  0  0  0  0  0
   -6.8062   -1.5502    1.9441 C   0  0  0  0  0  0  0  0  0  0  0  0
   -6.7420   -2.3043    2.7321 H   0  0  0  0  0  0  0  0  0  0  0  0
   -7.7499   -1.0082    2.0501 H   0  0  0  0  0  0  0  0  0  0  0  0
   -6.7924   -2.0472    0.9711 H   0  0  0  0  0  0  0  0  0  0  0  0
   -4.3507   -1.0650    1.9075 N   0  0  0  0  0  0  0  0  0  0  0  0
   -3.1578   -0.2146    1.8278 C   0  0  2  0  0  0  0  0  0  0  0  0
   -2.0947   -0.8136    0.8849 C   0  0  0  0  0  0  0  0  0  0  0  0
   -2.2501   -1.9281    0.3959 O   0  0  0  0  0  0  0  0  0  0  0  0
   -2.5833   -0.0563    3.2384 C   0  0  0  0  0  0  0  0  0  0  0  0
   -4.2391   -2.0309    1.6001 H   0  0  0  0  0  0  0  0  0  0  0  0
   -3.4293    0.7700    1.4332 H   0  0  0  0  0  0  0  0  0  0  0  0
   -2.2876   -1.0312    3.6405 H   0  0  0  0  0  0  0  0  0  0  0  0
   -1.7036    0.5940    3.2265 H   0  0  0  0  0  0  0  0  0  0  0  0
   -3.3309    0.3848    3.9053 H   0  0  0  0  0  0  0  0  0  0  0  0
   -1.0391   -0.0428    0.4311 N   0  0  0  0  0  0  0  0  0  0  0  0
    0.3470   -0.5481    0.3371 C   0  0  2  0  0  0  0  0  0  0  0  0
    0.7460   -1.8577    1.0825 C   0  0  0  0  0  0  0  0  0  0  0  0
    0.1335   -2.2465    2.0710 O   0  0  0  0  0  0  0  0  0  0  0  0
    1.2374    0.6035    0.8229 C   0  0  0  0  0  0  0  0  0  0  0  0
   -1.1064    0.9191    0.7472 H   0  0  0  0  0  0  0  0  0  0  0  0
    0.5486   -0.7328   -0.7228 H   0  0  0  0  0  0  0  0  0  0  0  0
    1.0833    0.7778    1.8929 H   0  0  0  0  0  0  0  0  0  0  0  0
    2.2949    0.3739    0.6594 H   0  0  0  0  0  0  0  0  0  0  0  0
    1.0050    1.5251    0.2801 H   0  0  0  0  0  0  0  0  0  0  0  0
    2.0498   -2.3079    0.9679 N   0  0  0  0  0  0  0  0  0  0  0  0
    2.7090   -3.2547    1.8776 C   0  0  2  0  0  0  0  0  0  0  0  0
    4.2400   -3.0596    1.8658 C   0  0  0  0  0  0  0  0  0  0  0  0
    4.7542   -2.2778    1.0717 O   0  0  0  0  0  0  0  0  0  0  0  0
    2.3361   -4.6797    1.4541 C   0  0  0  0  0  0  0  0  0  0  0  0
    2.6569   -1.8250    0.3065 H   0  0  0  0  0  0  0  0  0  0  0  0
    2.3675   -3.0822    2.9038 H   0  0  0  0  0  0  0  0  0  0  0  0
    2.6848   -4.8799    0.4361 H   0  0  0  0  0  0  0  0  0  0  0  0
    2.7866   -5.4135    2.1287 H   0  0  0  0  0  0  0  0  0  0  0  0
    1.2495   -4.8112    1.4818 H   0  0  0  0  0  0  0  0  0  0  0  0
    5.0437   -3.7403    2.7614 N   0  0  0  0  0  0  0  0  0  0  0  0
    6.4925   -3.5871    2.8139 C   0  0  0  0  0  0  0  0  0  0  0  0
    4.5896   -4.3673    3.4194 H   0  0  0  0  0  0  0  0  0  0  0  0
    6.9382   -3.8126    1.8392 H   0  0  0  0  0  0  0  0  0  0  0  0
    6.7592   -2.5629    3.0949 H   0  0  0  0  0  0  0  0  0  0  0  0
    6.9191   -4.2717    3.5533 H   0  0  0  0  0  0  0  0  0  0  0  0
  1  2  2  0  0  0  0
  1  3  1  0  0  0  0
  1  7  1  0  0  0  0
  3  4  1  0  0  0  0
  3  5  1  0  0  0  0
  3  6  1  0  0  0  0
  7  8  1  0  0  0  0
  7 12  1  0  0  0  0
  8  9  1  0  0  0  0
  8 11  1  0  0  0  0
  8 13  1  0  0  0  0
  9 10  2  0  0  0  0
  9 17  1  0  0  0  0
 11 14  1  0  0  0  0
 11 15  1  0  0  0  0
 11 16  1  0  0  0  0
 17 18  1  0  0  0  0
 17 22  1  0  0  0  0
 18 19  1  0  0  0  0
 18 21  1  0  0  0  0
 18 23  1  0  0  0  0
 19 20  2  0  0  0  0
 19 27  1  0  0  0  0
 21 24  1  0  0  0  0
 21 25  1  0  0  0  0
 21 26  1  0  0  0  0
 27 28  1  0  0  0  0
 27 32  1  0  0  0  0
 28 29  1  0  0  0  0
 28 31  1  0  0  0  0
 28 33  1  0  0  0  0
 29 30  2  0  0  0  0
 29 37  1  0  0  0  0
 31 34  1  0  0  0  0
 31 35  1  0  0  0  0
 31 36  1  0  0  0  0
 37 38  1  0  0  0  0
 37 39  1  0  0  0  0
 38 40  1  0  0  0  0
 38 41  1  0  0  0  0
 38 42  1  0  0  0  0
M  END
$$$$

  -OEChem-05262215353D

 42 41  0     1  0  0  0  0  0999 V2000
   -5.5994   -0.6104    2.0843 C   0  0  0  0  0  0  0  0  0  0  0  0
   -5.7886    0.5716    2.3279 O   0  0  0  0  0  0  0  0  0  0  0  0
   -6.7750   -1.5624    1.9678 C   0  0  0  0  0  0  0  0  0  0  0  0
   -6.7278   -2.3104    2.7632 H   0  0  0  0  0  0  0  0  0  0  0  0
   -7.7160   -1.0124    2.0550 H   0  0  0  0  0  0  0  0  0  0  0  0
   -6.7521   -2.0686    0.9996 H   0  0  0  0  0  0  0  0  0  0  0  0
   -4.3174   -1.0851    1.9117 N   0  0  0  0  0  0  0  0  0  0  0  0
   -3.1233   -0.2360    1.8277 C   0  0  2  0  0  0  0  0  0  0  0  0
   -2.0850   -0.8155    0.8444 C   0  0  0  0  0  0  0  0  0  0  0  0
   -2.2890   -1.8872    0.2846 O   0  0  0  0  0  0  0  0  0  0  0  0
   -2.5167   -0.1149    3.2286 C   0  0  0  0  0  0  0  0  0  0  0  0
   -4.2165   -2.0383    1.5629 H   0  0  0  0  0  0  0  0  0  0  0  0
   -3.4002    0.7593    1.4646 H   0  0  0  0  0  0  0  0  0  0  0  0
   -2.2130   -1.1001    3.5985 H   0  0  0  0  0  0  0  0  0  0  0  0
   -1.6379    0.5363    3.2136 H   0  0  0  0  0  0  0  0  0  0  0  0
   -3.2487    0.3091    3.9232 H   0  0  0  0  0  0  0  0  0  0  0  0
   -1.0201   -0.0487    0.4067 N   0  0  0  0  0  0  0  0  0  0  0  0
    0.3722   -0.5433    0.3288 C   0  0  2  0  0  0  0  0  0  0  0  0
    0.8046   -1.8508    1.0690 C   0  0  0  0  0  0  0  0  0  0  0  0
    0.0702   -2.4564    1.8384 O   0  0  0  0  0  0  0  0  0  0  0  0
    1.2319    0.6405    0.8014 C   0  0  0  0  0  0  0  0  0  0  0  0
   -1.0895    0.9086    0.7351 H   0  0  0  0  0  0  0  0  0  0  0  0
    0.5815   -0.7286   -0.7293 H   0  0  0  0  0  0  0  0  0  0  0  0
    1.0936    0.8060    1.8751 H   0  0  0  0  0  0  0  0  0  0  0  0
    2.2942    0.4575    0.6126 H   0  0  0  0  0  0  0  0  0  0  0  0
    0.9540    1.5550    0.2675 H   0  0  0  0  0  0  0  0  0  0  0  0
    2.1573   -2.1048    1.2229 N   0  0  0  0  0  0  0  0  0  0  0  0
    2.7493   -3.0449    2.1846 C   0  0  2  0  0  0  0  0  0  0  0  0
    4.1940   -2.6342    2.5408 C   0  0  0  0  0  0  0  0  0  0  0  0
    4.7315   -1.7026    1.9495 O   0  0  0  0  0  0  0  0  0  0  0  0
    2.7163   -4.4530    1.5793 C   0  0  0  0  0  0  0  0  0  0  0  0
    2.8075   -1.4681    0.7637 H   0  0  0  0  0  0  0  0  0  0  0  0
    2.1708   -3.0373    3.1147 H   0  0  0  0  0  0  0  0  0  0  0  0
    3.2987   -4.4858    0.6529 H   0  0  0  0  0  0  0  0  0  0  0  0
    3.1318   -5.1837    2.2792 H   0  0  0  0  0  0  0  0  0  0  0  0
    1.6854   -4.7445    1.3536 H   0  0  0  0  0  0  0  0  0  0  0  0
    4.8881   -3.2955    3.5372 N   0  0  0  0  0  0  0  0  0  0  0  0
    6.2542   -2.9610    3.9217 C   0  0  0  0  0  0  0  0  0  0  0  0
    4.4138   -4.0564    4.0152 H   0  0  0  0  0  0  0  0  0  0  0  0
    6.9272   -3.0485    3.0622 H   0  0  0  0  0  0  0  0  0  0  0  0
    6.3051   -1.9368    4.3059 H   0  0  0  0  0  0  0  0  0  0  0  0
    6.6041   -3.6417    4.7038 H   0  0  0  0  0  0  0  0  0  0  0  0
  1  2  2  0  0  0  0
  1  3  1  0  0  0  0
  1  7  1  0  0  0  0
  3  4  1  0  0  0  0
  3  5  1  0  0  0  0
  3  6  1  0  0  0  0
  7  8  1  0  0  0  0
  7 12  1  0  0  0  0
  8  9  1  0  0  0  0
  8 11  1  0  0  0  0
  8 13  1  0  0  0  0
  9 10  2  0  0  0  0
  9 17  1  0  0  0  0
 11 14  1  0  0  0  0
 11 15  1  0  0  0  0
 11 16  1  0  0  0  0
 17 18  1  0  0  0  0
 17 22  1  0  0  0  0
 18 19  1  0  0  0  0
 18 21  1  0  0  0  0
 18 23  1  0  0  0  0
 19 20  2  0  0  0  0
 19 27  1  0  0  0  0
 21 24  1  0  0  0  0
 21 25  1  0  0  0  0
 21 26  1  0  0  0  0
 27 28  1  0  0  0  0
 27 32  1  0  0  0  0
 28 29  1  0  0  0  0
 28 31  1  0  0  0  0
 28 33  1  0  0  0  0
 29 30  2  0  0  0  0
 29 37  1  0  0  0  0
 31 34  1  0  0  0  0
 31 35  1  0  0  0  0
 31 36  1  0  0  0  0
 37 38  1  0  0  0  0
 37 39  1  0  0  0  0
 38 40  1  0  0  0  0
 38 41  1  0  0  0  0
 38 42  1  0  0  0  0
M  END
$$$$

  -OEChem-05262215353D

 42 41  0     1  0  0  0  0  0999 V2000
   -5.3860   -1.3358    1.7740 C   0  0  0  0  0  0  0  0  0  0  0  0
   -5.8432   -0.7509    0.8039 O   0  0  0  0  0  0  0  0  0  0  0  0
   -6.1234   -2.5216    2.3669 C   0  0  0  0  0  0  0  0  0  0  0  0
   -6.3755   -2.3195    3.4108 H   0  0  0  0  0  0  0  0  0  0  0  0
   -7.0463   -2.7081    1.8105 H   0  0  0  0  0  0  0  0  0  0  0  0
   -5.4947   -3.4142    2.3172 H   0  0  0  0  0  0  0  0  0  0  0  0
   -4.1949   -0.9219    2.3304 N   0  0  0  0  0  0  0  0  0  0  0  0
   -3.3200    0.1037    1.7506 C   0  0  2  0  0  0  0  0  0  0  0  0
   -1.8353   -0.2096    2.0300 C   0  0  0  0  0  0  0  0  0  0  0  0
   -1.5400   -0.8516    3.0295 O   0  0  0  0  0  0  0  0  0  0  0  0
   -3.7118    1.4603    2.3437 C   0  0  0  0  0  0  0  0  0  0  0  0
   -3.7883   -1.5060    3.0613 H   0  0  0  0  0  0  0  0  0  0  0  0
   -3.4517    0.1302    0.6637 H   0  0  0  0  0  0  0  0  0  0  0  0
   -3.5813    1.4530    3.4310 H   0  0  0  0  0  0  0  0  0  0  0  0
   -3.0926    2.2582    1.9233 H   0  0  0  0  0  0  0  0  0  0  0  0
   -4.7603    1.6822    2.1195 H   0  0  0  0  0  0  0  0  0  0  0  0
   -0.8428    0.4056    1.2843 N   0  0  0  0  0  0  0  0  0  0  0  0
    0.4349   -0.2117    0.8578 C   0  0  2  0  0  0  0  0  0  0  0  0
    0.9173   -1.5384    1.5153 C   0  0  0  0  0  0  0  0  0  0  0  0
    0.1870   -2.5218    1.4852 O   0  0  0  0  0  0  0  0  0  0  0  0
    1.4827    0.8999    1.0241 C   0  0  0  0  0  0  0  0  0  0  0  0
   -1.2224    1.0699    0.6175 H   0  0  0  0  0  0  0  0  0  0  0  0
    0.3464   -0.4460   -0.2076 H   0  0  0  0  0  0  0  0  0  0  0  0
    1.6592    1.1026    2.0858 H   0  0  0  0  0  0  0  0  0  0  0  0
    2.4307    0.6165    0.5567 H   0  0  0  0  0  0  0  0  0  0  0  0
    1.1407    1.8241    0.5480 H   0  0  0  0  0  0  0  0  0  0  0  0
    2.2706   -1.8064    1.6371 N   0  0  0  0  0  0  0  0  0  0  0  0
    2.8136   -3.0458    2.2088 C   0  0  2  0  0  0  0  0  0  0  0  0
    4.0163   -2.7516    3.1290 C   0  0  0  0  0  0  0  0  0  0  0  0
    4.5894   -1.6685    3.0624 O   0  0  0  0  0  0  0  0  0  0  0  0
    3.2255   -3.9673    1.0576 C   0  0  0  0  0  0  0  0  0  0  0  0
    2.8855   -0.9954    1.6904 H   0  0  0  0  0  0  0  0  0  0  0  0
    2.0512   -3.5449    2.8168 H   0  0  0  0  0  0  0  0  0  0  0  0
    3.9979   -3.4925    0.4440 H   0  0  0  0  0  0  0  0  0  0  0  0
    3.6177   -4.9128    1.4440 H   0  0  0  0  0  0  0  0  0  0  0  0
    2.3610   -4.1859    0.4226 H   0  0  0  0  0  0  0  0  0  0  0  0
    4.4545   -3.6968    4.0381 N   0  0  0  0  0  0  0  0  0  0  0  0
    5.5637   -3.4688    4.9566 C   0  0  0  0  0  0  0  0  0  0  0  0
    3.9275   -4.5630    4.1064 H   0  0  0  0  0  0  0  0  0  0  0  0
    6.4822   -3.2505    4.4013 H   0  0  0  0  0  0  0  0  0  0  0  0
    5.3443   -2.6263    5.6212 H   0  0  0  0  0  0  0  0  0  0  0  0
    5.7358   -4.3579    5.5709 H   0  0  0  0  0  0  0  0  0  0  0  0
  1  2  2  0  0  0  0
  1  3  1  0  0  0  0
  1  7  1  0  0  0  0
  3  4  1  0  0  0  0
  3  5  1  0  0  0  0
  3  6  1  0  0  0  0
  7  8  1  0  0  0  0
  7 12  1  0  0  0  0
  8  9  1  0  0  0  0
  8 11  1  0  0  0  0
  8 13  1  0  0  0  0
  9 10  2  0  0  0  0
  9 17  1  0  0  0  0
 11 14  1  0  0  0  0
 11 15  1  0  0  0  0
 11 16  1  0  0  0  0
 17 18  1  0  0  0  0
 17 22  1  0  0  0  0
 18 19  1  0  0  0  0
 18 21  1  0  0  0  0
 18 23  1  0  0  0  0
 19 20  2  0  0  0  0
 19 27  1  0  0  0  0
 21 24  1  0  0  0  0
 21 25  1  0  0  0  0
 21 26  1  0  0  0  0
 27 28  1  0  0  0  0
 27 32  1  0  0  0  0
 28 29  1  0  0  0  0
 28 31  1  0  0  0  0
 28 33  1  0  0  0  0
 29 30  2  0  0  0  0
 29 37  1  0  0  0  0
 31 34  1  0  0  0  0
 31 35  1  0  0  0  0
 31 36  1  0  0  0  0
 37 38  1  0  0  0  0
 37 39  1  0  0  0  0
 38 40  1  0  0  0  0
 38 41  1  0  0  0  0
 38 42  1  0  0  0  0
M  END
$$$$

  -OEChem-05262215353D

 42 41  0     1  0  0  0  0  0999 V2000
   -5.4225   -1.2636    1.7508 C   0  0  0  0  0  0  0  0  0  0  0  0
   -5.8694   -0.6434    0.7983 O   0  0  0  0  0  0  0  0  0  0  0  0
   -6.1764   -2.4580    2.3038 C   0  0  0  0  0  0  0  0  0  0  0  0
   -6.5106   -2.2469    3.3223 H   0  0  0  0  0  0  0  0  0  0  0  0
   -7.0497   -2.6743    1.6821 H   0  0  0  0  0  0  0  0  0  0  0  0
   -5.5276   -3.3373    2.3155 H   0  0  0  0  0  0  0  0  0  0  0  0
   -4.2311   -0.8793    2.3271 N   0  0  0  0  0  0  0  0  0  0  0  0
   -3.3305    0.1348    1.7661 C   0  0  2  0  0  0  0  0  0  0  0  0
   -1.8524   -0.2566    1.9719 C   0  0  0  0  0  0  0  0  0  0  0  0
   -1.5566   -0.9929    2.9039 O   0  0  0  0  0  0  0  0  0  0  0  0
   -3.6378    1.4754    2.4395 C   0  0  0  0  0  0  0  0  0  0  0  0
   -3.8314   -1.5005    3.0306 H   0  0  0  0  0  0  0  0  0  0  0  0
   -3.4976    0.2254    0.6875 H   0  0  0  0  0  0  0  0  0  0  0  0
   -3.4702    1.4076    3.5193 H   0  0  0  0  0  0  0  0  0  0  0  0
   -2.9970    2.2652    2.0362 H   0  0  0  0  0  0  0  0  0  0  0  0
   -4.6816    1.7557    2.2654 H   0  0  0  0  0  0  0  0  0  0  0  0
   -0.8667    0.3575    1.2149 N   0  0  0  0  0  0  0  0  0  0  0  0
    0.4197   -0.2432    0.7948 C   0  0  2  0  0  0  0  0  0  0  0  0
    0.9098   -1.5497    1.4827 C   0  0  0  0  0  0  0  0  0  0  0  0
    0.2811   -2.5851    1.2959 O   0  0  0  0  0  0  0  0  0  0  0  0
    1.4524    0.8860    0.9338 C   0  0  0  0  0  0  0  0  0  0  0  0
   -1.2411    1.0446    0.5682 H   0  0  0  0  0  0  0  0  0  0  0  0
    0.3336   -0.5013   -0.2655 H   0  0  0  0  0  0  0  0  0  0  0  0
    1.6027    1.1381    1.9891 H   0  0  0  0  0  0  0  0  0  0  0  0
    2.4128    0.5885    0.5004 H   0  0  0  0  0  0  0  0  0  0  0  0
    1.1123    1.7844    0.4090 H   0  0  0  0  0  0  0  0  0  0  0  0
    2.2212   -1.6904    1.9021 N   0  0  0  0  0  0  0  0  0  0  0  0
    2.7370   -2.8871    2.5771 C   0  0  2  0  0  0  0  0  0  0  0  0
    3.6860   -2.5026    3.7306 C   0  0  0  0  0  0  0  0  0  0  0  0
    4.1524   -1.3691    3.7922 O   0  0  0  0  0  0  0  0  0  0  0  0
    3.4610   -3.7532    1.5431 C   0  0  0  0  0  0  0  0  0  0  0  0
    2.7210   -0.8256    2.1049 H   0  0  0  0  0  0  0  0  0  0  0  0
    1.9087   -3.4572    3.0116 H   0  0  0  0  0  0  0  0  0  0  0  0
    4.2934   -3.2004    1.0961 H   0  0  0  0  0  0  0  0  0  0  0  0
    3.8547   -4.6608    2.0101 H   0  0  0  0  0  0  0  0  0  0  0  0
    2.7692   -4.0467    0.7471 H   0  0  0  0  0  0  0  0  0  0  0  0
    4.0072   -3.4231    4.7108 N   0  0  0  0  0  0  0  0  0  0  0  0
    4.8400   -3.1038    5.8640 C   0  0  0  0  0  0  0  0  0  0  0  0
    3.5603   -4.3342    4.6623 H   0  0  0  0  0  0  0  0  0  0  0  0
    5.8267   -2.7564    5.5399 H   0  0  0  0  0  0  0  0  0  0  0  0
    4.3716   -2.3201    6.4689 H   0  0  0  0  0  0  0  0  0  0  0  0
    4.9753   -3.9908    6.4906 H   0  0  0  0  0  0  0  0  0  0  0  0
  1  2  2  0  0  0  0
  1  3  1  0  0  0  0
  1  7  1  0  0  0  0
  3  4  1  0  0  0  0
  3  5  1  0  0  0  0
  3  6  1  0  0  0  0
  7  8  1  0  0  0  0
  7 12  1  0  0  0  0
  8  9  1  0  0  0  0
  8 11  1  0  0  0  0
  8 13  1  0  0  0  0
  9 10  2  0  0  0  0
  9 17  1  0  0  0  0
 11 14  1  0  0  0  0
 11 15  1  0  0  0  0
 11 16  1  0  0  0  0
 17 18  1  0  0  0  0
 17 22  1  0  0  0  0
 18 19  1  0  0  0  0
 18 21  1  0  0  0  0
 18 23  1  0  0  0  0
 19 20  2  0  0  0  0
 19 27  1  0  0  0  0
 21 24  1  0  0  0  0
 21 25  1  0  0  0  0
 21 26  1  0  0  0  0
 27 28  1  0  0  0  0
 27 32  1  0  0  0  0
 28 29  1  0  0  0  0
 28 31  1  0  0  0  0
 28 33  1  0  0  0  0
 29 30  2  0  0  0  0
 29 37  1  0  0  0  0
 31 34  1  0  0  0  0
 31 35  1  0  0  0  0
 31 36  1  0  0  0  0
 37 38  1  0  0  0  0
 37 39  1  0  0  0  0
 38 40  1  0  0  0  0
 38 41  1  0  0  0  0
 38 42  1  0  0  0  0
M  END
$$$$

  -OEChem-05262215353D

 42 41  0     1  0  0  0  0  0999 V2000
   -5.5172   -1.1381    1.7327 C   0  0  0  0  0  0  0  0  0  0  0  0
   -5.9607   -0.4207    0.8494 O   0  0  0  0  0  0  0  0  0  0  0  0
   -6.3215   -2.3264    2.2251 C   0  0  0  0  0  0  0  0  0  0  0  0
   -6.5774   -2.1922    3.2789 H   0  0  0  0  0  0  0  0  0  0  0  0
   -7.2445   -2.4223    1.6465 H   0  0  0  0  0  0  0  0  0  0  0  0
   -5.7394   -3.2443    2.1126 H   0  0  0  0  0  0  0  0  0  0  0  0
   -4.2807   -0.8734    2.2811 N   0  0  0  0  0  0  0  0  0  0  0  0
   -3.3398    0.1242    1.7578 C   0  0  2  0  0  0  0  0  0  0  0  0
   -1.8798   -0.3607    1.8819 C   0  0  0  0  0  0  0  0  0  0  0  0
   -1.6085   -1.2147    2.7152 O   0  0  0  0  0  0  0  0  0  0  0  0
   -3.5458    1.4296    2.5310 C   0  0  0  0  0  0  0  0  0  0  0  0
   -3.8940   -1.5694    2.9187 H   0  0  0  0  0  0  0  0  0  0  0  0
   -3.5372    0.2979    0.6946 H   0  0  0  0  0  0  0  0  0  0  0  0
   -3.3408    1.2792    3.5960 H   0  0  0  0  0  0  0  0  0  0  0  0
   -2.8781    2.2100    2.1544 H   0  0  0  0  0  0  0  0  0  0  0  0
   -4.5783    1.7760    2.4199 H   0  0  0  0  0  0  0  0  0  0  0  0
   -0.8897    0.2607    1.1351 N   0  0  0  0  0  0  0  0  0  0  0  0
    0.4221   -0.3016    0.7431 C   0  0  2  0  0  0  0  0  0  0  0  0
    0.9332   -1.5810    1.4616 C   0  0  0  0  0  0  0  0  0  0  0  0
    0.4668   -2.6650    1.1305 O   0  0  0  0  0  0  0  0  0  0  0  0
    1.4227    0.8568    0.8698 C   0  0  0  0  0  0  0  0  0  0  0  0
   -1.2438    0.9952    0.5303 H   0  0  0  0  0  0  0  0  0  0  0  0
    0.3581   -0.5819   -0.3131 H   0  0  0  0  0  0  0  0  0  0  0  0
    1.5254    1.1660    1.9155 H   0  0  0  0  0  0  0  0  0  0  0  0
    2.4062    0.5587    0.4918 H   0  0  0  0  0  0  0  0  0  0  0  0
    1.0837    1.7188    0.2869 H   0  0  0  0  0  0  0  0  0  0  0  0
    2.1172   -1.5898    2.1780 N   0  0  0  0  0  0  0  0  0  0  0  0
    2.5970   -2.7527    2.9333 C   0  0  2  0  0  0  0  0  0  0  0  0
    3.2197   -2.3237    4.2774 C   0  0  0  0  0  0  0  0  0  0  0  0
    3.5667   -1.1594    4.4511 O   0  0  0  0  0  0  0  0  0  0  0  0
    3.6225   -3.4970    2.0751 C   0  0  0  0  0  0  0  0  0  0  0  0
    2.4517   -0.6844    2.5050 H   0  0  0  0  0  0  0  0  0  0  0  0
    1.7588   -3.4211    3.1595 H   0  0  0  0  0  0  0  0  0  0  0  0
    4.4808   -2.8524    1.8603 H   0  0  0  0  0  0  0  0  0  0  0  0
    3.9780   -4.3927    2.5929 H   0  0  0  0  0  0  0  0  0  0  0  0
    3.1696   -3.8032    1.1268 H   0  0  0  0  0  0  0  0  0  0  0  0
    3.3879   -3.2426    5.2967 N   0  0  0  0  0  0  0  0  0  0  0  0
    3.9170   -2.8929    6.6092 C   0  0  0  0  0  0  0  0  0  0  0  0
    3.0345   -4.1827    5.1430 H   0  0  0  0  0  0  0  0  0  0  0  0
    4.9150   -2.4516    6.5162 H   0  0  0  0  0  0  0  0  0  0  0  0
    3.2589   -2.1737    7.1079 H   0  0  0  0  0  0  0  0  0  0  0  0
    3.9927   -3.7860    7.2369 H   0  0  0  0  0  0  0  0  0  0  0  0
  1  2  2  0  0  0  0
  1  3  1  0  0  0  0
  1  7  1  0  0  0  0
  3  4  1  0  0  0  0
  3  5  1  0  0  0  0
  3  6  1  0  0  0  0
  7  8  1  0  0  0  0
  7 12  1  0  0  0  0
  8  9  1  0  0  0  0
  8 11  1  0  0  0  0
  8 13  1  0  0  0  0
  9 10  2  0  0  0  0
  9 17  1  0  0  0  0
 11 14  1  0  0  0  0
 11 15  1  0  0  0  0
 11 16  1  0  0  0  0
 17 18  1  0  0  0  0
 17 22  1  0  0  0  0
 18 19  1  0  0  0  0
 18 21  1  0  0  0  0
 18 23  1  0  0  0  0
 19 20  2  0  0  0  0
 19 27  1  0  0  0  0
 21 24  1  0  0  0  0
 21 25  1  0  0  0  0
 21 26  1  0  0  0  0
 27 28  1  0  0  0  0
 27 32  1  0  0  0  0
 28 29  1  0  0  0  0
 28 31  1  0  0  0  0
 28 33  1  0  0  0  0
 29 30  2  0  0  0  0
 29 37  1  0  0  0  0
 31 34  1  0  0  0  0
 31 35  1  0  0  0  0
 31 36  1  0  0  0  0
 37 38  1  0  0  0  0
 37 39  1  0  0  0  0
 38 40  1  0  0  0  0
 38 41  1  0  0  0  0
 38 42  1  0  0  0  0
M  END
$$$$

  -OEChem-05262215353D

 42 41  0     1  0  0  0  0  0999 V2000
   -5.5637   -1.0284    1.7360 C   0  0  0  0  0  0  0  0  0  0  0  0
   -5.9950   -0.2289    0.9198 O   0  0  0  0  0  0  0  0  0  0  0  0
   -6.4111   -2.2108    2.1664 C   0  0  0  0  0  0  0  0  0  0  0  0
   -6.6865   -2.1083    3.2188 H   0  0  0  0  0  0  0  0  0  0  0  0
   -7.3231   -2.2598    1.5650 H   0  0  0  0  0  0  0  0  0  0  0  0
   -5.8520   -3.1403    2.0328 H   0  0  0  0  0  0  0  0  0  0  0  0
   -4.2999   -0.8648    2.2611 N   0  0  0  0  0  0  0  0  0  0  0  0
   -3.3248    0.1200    1.7772 C   0  0  2  0  0  0  0  0  0  0  0  0
   -1.8902   -0.4487    1.8044 C   0  0  0  0  0  0  0  0  0  0  0  0
   -1.6451   -1.4011    2.5323 O   0  0  0  0  0  0  0  0  0  0  0  0
   -3.4317    1.3711    2.6536 C   0  0  0  0  0  0  0  0  0  0  0  0
   -3.9304   -1.6250    2.8320 H   0  0  0  0  0  0  0  0  0  0  0  0
   -3.5498    0.3863    0.7390 H   0  0  0  0  0  0  0  0  0  0  0  0
   -3.2017    1.1285    3.6962 H   0  0  0  0  0  0  0  0  0  0  0  0
   -2.7342    2.1418    2.3130 H   0  0  0  0  0  0  0  0  0  0  0  0
   -4.4463    1.7794    2.6058 H   0  0  0  0  0  0  0  0  0  0  0  0
   -0.8979    0.1774    1.0640 N   0  0  0  0  0  0  0  0  0  0  0  0
    0.4296   -0.3598    0.6919 C   0  0  2  0  0  0  0  0  0  0  0  0
    0.9525   -1.6198    1.4330 C   0  0  0  0  0  0  0  0  0  0  0  0
    0.6813   -2.7261    0.9810 O   0  0  0  0  0  0  0  0  0  0  0  0
    1.4109    0.8131    0.8240 C   0  0  0  0  0  0  0  0  0  0  0  0
   -1.2294    0.9608    0.5096 H   0  0  0  0  0  0  0  0  0  0  0  0
    0.3855   -0.6509   -0.3630 H   0  0  0  0  0  0  0  0  0  0  0  0
    1.4511    1.1705    1.8582 H   0  0  0  0  0  0  0  0  0  0  0  0
    2.4165    0.5064    0.5186 H   0  0  0  0  0  0  0  0  0  0  0  0
    1.1001    1.6441    0.1836 H   0  0  0  0  0  0  0  0  0  0  0  0
    1.9379   -1.5332    2.3997 N   0  0  0  0  0  0  0  0  0  0  0  0
    2.3716   -2.6726    3.2149 C   0  0  2  0  0  0  0  0  0  0  0  0
    2.5914   -2.2469    4.6807 C   0  0  0  0  0  0  0  0  0  0  0  0
    2.7436   -1.0617    4.9611 O   0  0  0  0  0  0  0  0  0  0  0  0
    3.6609   -3.2348    2.6112 C   0  0  0  0  0  0  0  0  0  0  0  0
    2.0597   -0.6172    2.8295 H   0  0  0  0  0  0  0  0  0  0  0  0
    1.6003   -3.4504    3.2123 H   0  0  0  0  0  0  0  0  0  0  0  0
    4.4475   -2.4735    2.6121 H   0  0  0  0  0  0  0  0  0  0  0  0
    4.0093   -4.0983    3.1856 H   0  0  0  0  0  0  0  0  0  0  0  0
    3.4858   -3.5547    1.5789 H   0  0  0  0  0  0  0  0  0  0  0  0
    2.6094   -3.1913    5.6898 N   0  0  0  0  0  0  0  0  0  0  0  0
    2.7406   -2.8479    7.1002 C   0  0  0  0  0  0  0  0  0  0  0  0
    2.4143   -4.1546    5.4328 H   0  0  0  0  0  0  0  0  0  0  0  0
    3.6747   -2.3045    7.2773 H   0  0  0  0  0  0  0  0  0  0  0  0
    1.9020   -2.2208    7.4208 H   0  0  0  0  0  0  0  0  0  0  0  0
    2.7490   -3.7552    7.7117 H   0  0  0  0  0  0  0  0  0  0  0  0
  1  2  2  0  0  0  0
  1  3  1  0  0  0  0
  1  7  1  0  0  0  0
  3  4  1  0  0  0  0
  3  5  1  0  0  0  0
  3  6  1  0  0  0  0
  7  8  1  0  0  0  0
  7 12  1  0  0  0  0
  8  9  1  0  0  0  0
  8 11  1  0  0  0  0
  8 13  1  0  0  0  0
  9 10  2  0  0  0  0
  9 17  1  0  0  0  0
 11 14  1  0  0  0  0
 11 15  1  0  0  0  0
 11 16  1  0  0  0  0
 17 18  1  0  0  0  0
 17 22  1  0  0  0  0
 18 19  1  0  0  0  0
 18 21  1  0  0  0  0
 18 23  1  0  0  0  0
 19 20  2  0  0  0  0
 19 27  1  0  0  0  0
 21 24  1  0  0  0  0
 21 25  1  0  0  0  0
 21 26  1  0  0  0  0
 27 28  1  0  0  0  0
 27 32  1  0  0  0  0
 28 29  1  0  0  0  0
 28 31  1  0  0  0  0
 28 33  1  0  0  0  0
 29 30  2  0  0  0  0
 29 37  1  0  0  0  0
 31 34  1  0  0  0  0
 31 35  1  0  0  0  0
 31 36  1  0  0  0  0
 37 38  1  0  0  0  0
 37 39  1  0  0  0  0
 38 40  1  0  0  0  0
 38 41  1  0  0  0  0
 38 42  1  0  0  0  0
M  END
$$$$

  -OEChem-05262215353D

 42 41  0     1  0  0  0  0  0999 V2000
   -5.5868   -0.9459    1.7727 C   0  0  0  0  0  0  0  0  0  0  0  0
   -6.0123   -0.0633    1.0439 O   0  0  0  0  0  0  0  0  0  0  0  0
   -6.4809   -2.1058    2.1677 C   0  0  0  0  0  0  0  0  0  0  0  0
   -6.6466   -2.0966    3.2478 H   0  0  0  0  0  0  0  0  0  0  0  0
   -7.4468   -2.0265    1.6610 H   0  0  0  0  0  0  0  0  0  0  0  0
   -6.0123   -3.0520    1.8857 H   0  0  0  0  0  0  0  0  0  0  0  0
   -4.2892   -0.8931    2.2349 N   0  0  0  0  0  0  0  0  0  0  0  0
   -3.2895    0.0846    1.7873 C   0  0  2  0  0  0  0  0  0  0  0  0
   -1.8780   -0.5370    1.7165 C   0  0  0  0  0  0  0  0  0  0  0  0
   -1.6551   -1.5719    2.3304 O   0  0  0  0  0  0  0  0  0  0  0  0
   -3.3121    1.2708    2.7559 C   0  0  0  0  0  0  0  0  0  0  0  0
   -3.9354   -1.7121    2.7290 H   0  0  0  0  0  0  0  0  0  0  0  0
   -3.5416    0.4356    0.7810 H   0  0  0  0  0  0  0  0  0  0  0  0
   -3.0571    0.9430    3.7689 H   0  0  0  0  0  0  0  0  0  0  0  0
   -2.5937    2.0353    2.4458 H   0  0  0  0  0  0  0  0  0  0  0  0
   -4.3089    1.7228    2.7769 H   0  0  0  0  0  0  0  0  0  0  0  0
   -0.8867    0.1098    0.9917 N   0  0  0  0  0  0  0  0  0  0  0  0
    0.4616   -0.3897    0.6427 C   0  0  2  0  0  0  0  0  0  0  0  0
    1.0016   -1.6302    1.3996 C   0  0  0  0  0  0  0  0  0  0  0  0
    0.9689   -2.7266    0.8535 O   0  0  0  0  0  0  0  0  0  0  0  0
    1.4214    0.7977    0.7914 C   0  0  0  0  0  0  0  0  0  0  0  0
   -1.1956    0.9491    0.5103 H   0  0  0  0  0  0  0  0  0  0  0  0
    0.4415   -0.6830   -0.4122 H   0  0  0  0  0  0  0  0  0  0  0  0
    1.4229    1.1708    1.8207 H   0  0  0  0  0  0  0  0  0  0  0  0
    2.4407    0.4977    0.5268 H   0  0  0  0  0  0  0  0  0  0  0  0
    1.1225    1.6148    0.1279 H   0  0  0  0  0  0  0  0  0  0  0  0
    1.7214   -1.4903    2.5716 N   0  0  0  0  0  0  0  0  0  0  0  0
    2.0679   -2.6219    3.4371 C   0  0  2  0  0  0  0  0  0  0  0  0
    1.8549   -2.2628    4.9219 C   0  0  0  0  0  0  0  0  0  0  0  0
    1.8091   -1.0872    5.2722 O   0  0  0  0  0  0  0  0  0  0  0  0
    3.5259   -3.0043    3.1720 C   0  0  0  0  0  0  0  0  0  0  0  0
    1.6110   -0.5968    3.0491 H   0  0  0  0  0  0  0  0  0  0  0  0
    1.4220   -3.4777    3.2120 H   0  0  0  0  0  0  0  0  0  0  0  0
    4.1903   -2.1665    3.4073 H   0  0  0  0  0  0  0  0  0  0  0  0
    3.8153   -3.8631    3.7851 H   0  0  0  0  0  0  0  0  0  0  0  0
    3.6594   -3.2709    2.1186 H   0  0  0  0  0  0  0  0  0  0  0  0
    1.7144   -3.2600    5.8691 N   0  0  0  0  0  0  0  0  0  0  0  0
    1.4521   -2.9931    7.2778 C   0  0  0  0  0  0  0  0  0  0  0  0
    1.6884   -4.2197    5.5369 H   0  0  0  0  0  0  0  0  0  0  0  0
    2.2500   -2.3781    7.7070 H   0  0  0  0  0  0  0  0  0  0  0  0
    0.4991   -2.4673    7.3974 H   0  0  0  0  0  0  0  0  0  0  0  0
    1.4022   -3.9318    7.8377 H   0  0  0  0  0  0  0  0  0  0  0  0
  1  2  2  0  0  0  0
  1  3  1  0  0  0  0
  1  7  1  0  0  0  0
  3  4  1  0  0  0  0
  3  5  1  0  0  0  0
  3  6  1  0  0  0  0
  7  8  1  0  0  0  0
  7 12  1  0  0  0  0
  8  9  1  0  0  0  0
  8 11  1  0  0  0  0
  8 13  1  0  0  0  0
  9 10  2  0  0  0  0
  9 17  1  0  0  0  0
 11 14  1  0  0  0  0
 11 15  1  0  0  0  0
 11 16  1  0  0  0  0
 17 18  1  0  0  0  0
 17 22  1  0  0  0  0
 18 19  1  0  0  0  0
 18 21  1  0  0  0  0
 18 23  1  0  0  0  0
 19 20  2  0  0  0  0
 19 27  1  0  0  0  0
 21 24  1  0  0  0  0
 21 25  1  0  0  0  0
 21 26  1  0  0  0  0
 27 28  1  0  0  0  0
 27 32  1  0  0  0  0
 28 29  1  0  0  0  0
 28 31  1  0  0  0  0
 28 33  1  0  0  0  0
 29 30  2  0  0  0  0
 29 37  1  0  0  0  0
 31 34  1  0  0  0  0
 31 35  1  0  0  0  0
 31 36  1  0  0  0  0
 37 38  1  0  0  0  0
 37 39  1  0  0  0  0
 38 40  1  0  0  0  0
 38 41  1  0  0  0  0
 38 42  1  0  0  0  0
M  END
$$$$

  -OEChem-05262215353D

 42 41  0     1  0  0  0  0  0999 V2000
   -5.4935   -0.8711    1.7317 C   0  0  0  0  0  0  0  0  0  0  0  0
   -5.8211    0.1046    1.0746 O   0  0  0  0  0  0  0  0  0  0  0  0
   -6.4305   -2.0582    1.8480 C   0  0  0  0  0  0  0  0  0  0  0  0
   -6.6535   -2.2571    2.8990 H   0  0  0  0  0  0  0  0  0  0  0  0
   -7.3668   -1.8524    1.3218 H   0  0  0  0  0  0  0  0  0  0  0  0
   -5.9649   -2.9430    1.4068 H   0  0  0  0  0  0  0  0  0  0  0  0
   -4.2633   -0.9102    2.3531 N   0  0  0  0  0  0  0  0  0  0  0  0
   -3.1845    0.0554    2.1065 C   0  0  2  0  0  0  0  0  0  0  0  0
   -1.8660   -0.6584    1.7449 C   0  0  0  0  0  0  0  0  0  0  0  0
   -1.6631   -1.7797    2.1917 O   0  0  0  0  0  0  0  0  0  0  0  0
   -3.0054    0.8950    3.3729 C   0  0  0  0  0  0  0  0  0  0  0  0
   -3.9806   -1.8075    2.7452 H   0  0  0  0  0  0  0  0  0  0  0  0
   -3.4439    0.7169    1.2734 H   0  0  0  0  0  0  0  0  0  0  0  0
   -2.7248    0.2580    4.2183 H   0  0  0  0  0  0  0  0  0  0  0  0
   -2.2220    1.6450    3.2286 H   0  0  0  0  0  0  0  0  0  0  0  0
   -3.9388    1.4112    3.6193 H   0  0  0  0  0  0  0  0  0  0  0  0
   -0.9341   -0.0079    0.9479 N   0  0  0  0  0  0  0  0  0  0  0  0
    0.4098   -0.4770    0.5446 C   0  0  2  0  0  0  0  0  0  0  0  0
    1.0118   -1.6707    1.3247 C   0  0  0  0  0  0  0  0  0  0  0  0
    1.1807   -2.7480    0.7667 O   0  0  0  0  0  0  0  0  0  0  0  0
    1.3490    0.7327    0.6101 C   0  0  0  0  0  0  0  0  0  0  0  0
   -1.2264    0.8999    0.5984 H   0  0  0  0  0  0  0  0  0  0  0  0
    0.3459   -0.8086   -0.4973 H   0  0  0  0  0  0  0  0  0  0  0  0
    1.3988    1.1335    1.6275 H   0  0  0  0  0  0  0  0  0  0  0  0
    2.3589    0.4454    0.2994 H   0  0  0  0  0  0  0  0  0  0  0  0
    0.9972    1.5244   -0.0583 H   0  0  0  0  0  0  0  0  0  0  0  0
    1.5037   -1.4812    2.6018 N   0  0  0  0  0  0  0  0  0  0  0  0
    1.6864   -2.5918    3.5403 C   0  0  2  0  0  0  0  0  0  0  0  0
    1.0601   -2.2448    4.9072 C   0  0  0  0  0  0  0  0  0  0  0  0
    0.8413   -1.0735    5.2058 O   0  0  0  0  0  0  0  0  0  0  0  0
    3.1844   -2.8724    3.6735 C   0  0  0  0  0  0  0  0  0  0  0  0
    1.2154   -0.6071    3.0393 H   0  0  0  0  0  0  0  0  0  0  0  0
    1.1820   -3.4903    3.1678 H   0  0  0  0  0  0  0  0  0  0  0  0
    3.7069   -1.9908    4.0579 H   0  0  0  0  0  0  0  0  0  0  0  0
    3.3591   -3.7083    4.3574 H   0  0  0  0  0  0  0  0  0  0  0  0
    3.6065   -3.1304    2.6968 H   0  0  0  0  0  0  0  0  0  0  0  0
    0.7408   -3.2446    5.8069 N   0  0  0  0  0  0  0  0  0  0  0  0
    0.0836   -2.9893    7.0827 C   0  0  0  0  0  0  0  0  0  0  0  0
    0.8562   -4.2049    5.4963 H   0  0  0  0  0  0  0  0  0  0  0  0
    0.6884   -2.3143    7.6974 H   0  0  0  0  0  0  0  0  0  0  0  0
   -0.8994   -2.5341    6.9232 H   0  0  0  0  0  0  0  0  0  0  0  0
   -0.0534   -3.9257    7.6320 H   0  0  0  0  0  0  0  0  0  0  0  0
  1  2  2  0  0  0  0
  1  3  1  0  0  0  0
  1  7  1  0  0  0  0
  3  4  1  0  0  0  0
  3  5  1  0  0  0  0
  3  6  1  0  0  0  0
  7  8  1  0  0  0  0
  7 12  1  0  0  0  0
  8  9  1  0  0  0  0
  8 11  1  0  0  0  0
  8 13  1  0  0  0  0
  9 10  2  0  0  0  0
  9 17  1  0  0  0  0
 11 14  1  0  0  0  0
 11 15  1  0  0  0  0
 11 16  1  0  0  0  0
 17 18  1  0  0  0  0
 17 22  1  0  0  0  0
 18 19  1  0  0  0  0
 18 21  1  0  0  0  0
 18 23  1  0  0  0  0
 19 20  2  0  0  0  0
 19 27  1  0  0  0  0
 21 24  1  0  0  0  0
 21 25  1  0  0  0  0
 21 26  1  0  0  0  0
 27 28  1  0  0  0  0
 27 32  1  0  0  0  0
 28 29  1  0  0  0  0
 28 31  1  0  0  0  0
 28 33  1  0  0  0  0
 29 30  2  0  0  0  0
 29 37  1  0  0  0  0
 31 34  1  0  0  0  0
 31 35  1  0  0  0  0
 31 36  1  0  0  0  0
 37 38  1  0  0  0  0
 37 39  1  0  0  0  0
 38 40  1  0  0  0  0
 38 41  1  0  0  0  0
 38 42  1  0  0  0  0
M  END
$$$$

  -OEChem-05262215353D

 42 41  0     1  0  0  0  0  0999 V2000
   -5.4766   -0.8590    1.7223 C   0  0  0  0  0  0  0  0  0  0  0  0
   -5.7633    0.1166    1.0463 O   0  0  0  0  0  0  0  0  0  0  0  0
   -6.4504   -2.0173    1.8321 C   0  0  0  0  0  0  0  0  0  0  0  0
   -6.6838   -2.2113    2.8819 H   0  0  0  0  0  0  0  0  0  0  0  0
   -7.3783   -1.7823    1.3029 H   0  0  0  0  0  0  0  0  0  0  0  0
   -6.0113   -2.9157    1.3914 H   0  0  0  0  0  0  0  0  0  0  0  0
   -4.2642   -0.9230    2.3766 N   0  0  0  0  0  0  0  0  0  0  0  0
   -3.1527    0.0094    2.1437 C   0  0  2  0  0  0  0  0  0  0  0  0
   -1.8910   -0.7269    1.6482 C   0  0  0  0  0  0  0  0  0  0  0  0
   -1.7269   -1.8995    1.9602 O   0  0  0  0  0  0  0  0  0  0  0  0
   -2.8626    0.7285    3.4632 C   0  0  0  0  0  0  0  0  0  0  0  0
   -4.0126   -1.8287    2.7694 H   0  0  0  0  0  0  0  0  0  0  0  0
   -3.4233    0.7531    1.3873 H   0  0  0  0  0  0  0  0  0  0  0  0
   -2.5700    0.0098    4.2362 H   0  0  0  0  0  0  0  0  0  0  0  0
   -2.0506    1.4508    3.3374 H   0  0  0  0  0  0  0  0  0  0  0  0
   -3.7536    1.2647    3.8049 H   0  0  0  0  0  0  0  0  0  0  0  0
   -0.9629   -0.0531    0.8652 N   0  0  0  0  0  0  0  0  0  0  0  0
    0.4108   -0.4822    0.5172 C   0  0  2  0  0  0  0  0  0  0  0  0
    1.0299   -1.6324    1.3454 C   0  0  0  0  0  0  0  0  0  0  0  0
    1.4691   -2.6321    0.7914 O   0  0  0  0  0  0  0  0  0  0  0  0
    1.3125    0.7533    0.6048 C   0  0  0  0  0  0  0  0  0  0  0  0
   -1.2254    0.8936    0.6067 H   0  0  0  0  0  0  0  0  0  0  0  0
    0.3972   -0.8331   -0.5203 H   0  0  0  0  0  0  0  0  0  0  0  0
    1.3271    1.1528    1.6239 H   0  0  0  0  0  0  0  0  0  0  0  0
    2.3370    0.4930    0.3191 H   0  0  0  0  0  0  0  0  0  0  0  0
    0.9567    1.5360   -0.0720 H   0  0  0  0  0  0  0  0  0  0  0  0
    1.1832   -1.4792    2.7097 N   0  0  0  0  0  0  0  0  0  0  0  0
    1.2777   -2.6255    3.6159 C   0  0  2  0  0  0  0  0  0  0  0  0
    0.3246   -2.4348    4.8154 C   0  0  0  0  0  0  0  0  0  0  0  0
   -0.1013   -1.3166    5.0962 O   0  0  0  0  0  0  0  0  0  0  0  0
    2.7288   -2.7610    4.0798 C   0  0  0  0  0  0  0  0  0  0  0  0
    0.6796   -0.6838    3.0994 H   0  0  0  0  0  0  0  0  0  0  0  0
    0.9750   -3.5424    3.0982 H   0  0  0  0  0  0  0  0  0  0  0  0
    3.0475   -1.8581    4.6099 H   0  0  0  0  0  0  0  0  0  0  0  0
    2.8389   -3.6180    4.7506 H   0  0  0  0  0  0  0  0  0  0  0  0
    3.3861   -2.9103    3.2175 H   0  0  0  0  0  0  0  0  0  0  0  0
   -0.0485   -3.5157    5.5926 N   0  0  0  0  0  0  0  0  0  0  0  0
   -0.9788   -3.4147    6.7098 C   0  0  0  0  0  0  0  0  0  0  0  0
    0.2656   -4.4347    5.2948 H   0  0  0  0  0  0  0  0  0  0  0  0
   -0.5997   -2.7150    7.4619 H   0  0  0  0  0  0  0  0  0  0  0  0
   -1.9569   -3.0645    6.3639 H   0  0  0  0  0  0  0  0  0  0  0  0
   -1.1086   -4.3923    7.1838 H   0  0  0  0  0  0  0  0  0  0  0  0
  1  2  2  0  0  0  0
  1  3  1  0  0  0  0
  1  7  1  0  0  0  0
  3  4  1  0  0  0  0
  3  5  1  0  0  0  0
  3  6  1  0  0  0  0
  7  8  1  0  0  0  0
  7 12  1  0  0  0  0
  8  9  1  0  0  0  0
  8 11  1  0  0  0  0
  8 13  1  0  0  0  0
  9 10  2  0  0  0  0
  9 17  1  0  0  0  0
 11 14  1  0  0  0  0
 11 15  1  0  0  0  0
 11 16  1  0  0  0  0
 17 18  1  0  0  0  0
 17 22  1  0  0  0  0
 18 19  1  0  0  0  0
 18 21  1  0  0  0  0
 18 23  1  0  0  0  0
 19 20  2  0  0  0  0
 19 27  1  0  0  0  0
 21 24  1  0  0  0  0
 21 25  1  0  0  0  0
 21 26  1  0  0  0  0
 27 28  1  0  0  0  0
 27 32  1  0  0  0  0
 28 29  1  0  0  0  0
 28 31  1  0  0  0  0
 28 33  1  0  0  0  0
 29 30  2  0  0  0  0
 29 37  1  0  0  0  0
 31 34  1  0  0  0  0
 31 35  1  0  0  0  0
 31 36  1  0  0  0  0
 37 38  1  0  0  0  0
 37 39  1  0  0  0  0
 38 40  1  0  0  0  0
 38 41  1  0  0  0  0
 38 42  1  0  0  0  0
M  END
$$$$

  -OEChem-05262215353D

 42 41  0     1  0  0  0  0  0999 V2000
   -5.5648   -0.7664    1.6392 C   0  0  0  0  0  0  0  0  0  0  0  0
   -5.8493    0.1526    0.8870 O   0  0  0  0  0  0  0  0  0  0  0  0
   -6.5408   -1.9090    1.8452 C   0  0  0  0  0  0  0  0  0  0  0  0
   -6.7969   -1.9935    2.9041 H   0  0  0  0  0  0  0  0  0  0  0  0
   -7.4559   -1.7319    1.2732 H   0  0  0  0  0  0  0  0  0  0  0  0
   -6.0918   -2.8472    1.5099 H   0  0  0  0  0  0  0  0  0  0  0  0
   -4.3529   -0.7833    2.2965 N   0  0  0  0  0  0  0  0  0  0  0  0
   -3.2308    0.1064    1.9701 C   0  0  2  0  0  0  0  0  0  0  0  0
   -2.0052   -0.6855    1.4694 C   0  0  0  0  0  0  0  0  0  0  0  0
   -1.9236   -1.8843    1.7009 O   0  0  0  0  0  0  0  0  0  0  0  0
   -2.8763    0.8847    3.2390 C   0  0  0  0  0  0  0  0  0  0  0  0
   -4.1064   -1.6612    2.7513 H   0  0  0  0  0  0  0  0  0  0  0  0
   -3.5127    0.8161    1.1856 H   0  0  0  0  0  0  0  0  0  0  0  0
   -2.5745    0.1990    4.0380 H   0  0  0  0  0  0  0  0  0  0  0  0
   -2.0529    1.5791    3.0478 H   0  0  0  0  0  0  0  0  0  0  0  0
   -3.7416    1.4595    3.5833 H   0  0  0  0  0  0  0  0  0  0  0  0
   -1.0017   -0.0397    0.7631 N   0  0  0  0  0  0  0  0  0  0  0  0
    0.3918   -0.4985    0.5573 C   0  0  2  0  0  0  0  0  0  0  0  0
    0.9468   -1.6369    1.4503 C   0  0  0  0  0  0  0  0  0  0  0  0
    1.6890   -2.4850    0.9712 O   0  0  0  0  0  0  0  0  0  0  0  0
    1.2934    0.7297    0.7071 C   0  0  0  0  0  0  0  0  0  0  0  0
   -1.1882    0.9381    0.5599 H   0  0  0  0  0  0  0  0  0  0  0  0
    0.4659   -0.8664   -0.4717 H   0  0  0  0  0  0  0  0  0  0  0  0
    1.2357    1.1294    1.7246 H   0  0  0  0  0  0  0  0  0  0  0  0
    2.3346    0.4614    0.4989 H   0  0  0  0  0  0  0  0  0  0  0  0
    0.9942    1.5130    0.0042 H   0  0  0  0  0  0  0  0  0  0  0  0
    0.7266   -1.6203    2.8146 N   0  0  0  0  0  0  0  0  0  0  0  0
    0.9104   -2.7934    3.6712 C   0  0  2  0  0  0  0  0  0  0  0  0
   -0.2400   -2.8954    4.6957 C   0  0  0  0  0  0  0  0  0  0  0  0
   -0.9114   -1.9053    4.9766 O   0  0  0  0  0  0  0  0  0  0  0  0
    2.2619   -2.6739    4.3784 C   0  0  0  0  0  0  0  0  0  0  0  0
   -0.0260   -1.0005    3.1100 H   0  0  0  0  0  0  0  0  0  0  0  0
    0.8954   -3.7057    3.0652 H   0  0  0  0  0  0  0  0  0  0  0  0
    2.2907   -1.7719    4.9981 H   0  0  0  0  0  0  0  0  0  0  0  0
    2.4388   -3.5436    5.0181 H   0  0  0  0  0  0  0  0  0  0  0  0
    3.0691   -2.6169    3.6411 H   0  0  0  0  0  0  0  0  0  0  0  0
   -0.5147   -4.0978    5.3204 N   0  0  0  0  0  0  0  0  0  0  0  0
   -1.6086   -4.2750    6.2669 C   0  0  0  0  0  0  0  0  0  0  0  0
    0.0201   -4.9102    5.0268 H   0  0  0  0  0  0  0  0  0  0  0  0
   -1.5047   -3.5794    7.1064 H   0  0  0  0  0  0  0  0  0  0  0  0
   -2.5714   -4.0958    5.7769 H   0  0  0  0  0  0  0  0  0  0  0  0
   -1.6054   -5.2952    6.6624 H   0  0  0  0  0  0  0  0  0  0  0  0
  1  2  2  0  0  0  0
  1  3  1  0  0  0  0
  1  7  1  0  0  0  0
  3  4  1  0  0  0  0
  3  5  1  0  0  0  0
  3  6  1  0  0  0  0
  7  8  1  0  0  0  0
  7 12  1  0  0  0  0
  8  9  1  0  0  0  0
  8 11  1  0  0  0  0
  8 13  1  0  0  0  0
  9 10  2  0  0  0  0
  9 17  1  0  0  0  0
 11 14  1  0  0  0  0
 11 15  1  0  0  0  0
 11 16  1  0  0  0  0
 17 18  1  0  0  0  0
 17 22  1  0  0  0  0
 18 19  1  0  0  0  0
 18 21  1  0  0  0  0
 18 23  1  0  0  0  0
 19 20  2  0  0  0  0
 19 27  1  0  0  0  0
 21 24  1  0  0  0  0
 21 25  1  0  0  0  0
 21 26  1  0  0  0  0
 27 28  1  0  0  0  0
 27 32  1  0  0  0  0
 28 29  1  0  0  0  0
 28 31  1  0  0  0  0
 28 33  1  0  0  0  0
 29 30  2  0  0  0  0
 29 37  1  0  0  0  0
 31 34  1  0  0  0  0
 31 35  1  0  0  0  0
 31 36  1  0  0  0  0
 37 38  1  0  0  0  0
 37 39  1  0  0  0  0
 38 40  1  0  0  0  0
 38 41  1  0  0  0  0
 38 42  1  0  0  0  0
M  END
$$$$

  -OEChem-05262215353D

 42 41  0     1  0  0  0  0  0999 V2000
   -5.6118   -0.6641    1.5862 C   0  0  0  0  0  0  0  0  0  0  0  0
   -5.8996    0.1789    0.7507 O   0  0  0  0  0  0  0  0  0  0  0  0
   -6.5774   -1.7939    1.8882 C   0  0  0  0  0  0  0  0  0  0  0  0
   -6.8644   -1.7680    2.9421 H   0  0  0  0  0  0  0  0  0  0  0  0
   -7.4771   -1.6959    1.2746 H   0  0  0  0  0  0  0  0  0  0  0  0
   -6.1044   -2.7543    1.6695 H   0  0  0  0  0  0  0  0  0  0  0  0
   -4.4059   -0.6065    2.2525 N   0  0  0  0  0  0  0  0  0  0  0  0
   -3.2845    0.2448    1.8305 C   0  0  2  0  0  0  0  0  0  0  0  0
   -2.1156   -0.5893    1.2637 C   0  0  0  0  0  0  0  0  0  0  0  0
   -2.1272   -1.8073    1.3713 O   0  0  0  0  0  0  0  0  0  0  0  0
   -2.8313    1.0339    3.0622 C   0  0  0  0  0  0  0  0  0  0  0  0
   -4.1568   -1.4441    2.7781 H   0  0  0  0  0  0  0  0  0  0  0  0
   -3.5984    0.9509    1.0548 H   0  0  0  0  0  0  0  0  0  0  0  0
   -2.4868    0.3531    3.8483 H   0  0  0  0  0  0  0  0  0  0  0  0
   -2.0134    1.7145    2.8075 H   0  0  0  0  0  0  0  0  0  0  0  0
   -3.6625    1.6273    3.4563 H   0  0  0  0  0  0  0  0  0  0  0  0
   -1.0253    0.0302    0.6751 N   0  0  0  0  0  0  0  0  0  0  0  0
    0.3651   -0.4815    0.5995 C   0  0  2  0  0  0  0  0  0  0  0  0
    0.8263   -1.6588    1.5043 C   0  0  0  0  0  0  0  0  0  0  0  0
    1.8061   -2.3164    1.1762 O   0  0  0  0  0  0  0  0  0  0  0  0
    1.2802    0.7185    0.8620 C   0  0  0  0  0  0  0  0  0  0  0  0
   -1.1315    1.0337    0.5587 H   0  0  0  0  0  0  0  0  0  0  0  0
    0.5239   -0.8276   -0.4274 H   0  0  0  0  0  0  0  0  0  0  0  0
    1.1591    1.0766    1.8894 H   0  0  0  0  0  0  0  0  0  0  0  0
    2.3279    0.4354    0.7152 H   0  0  0  0  0  0  0  0  0  0  0  0
    1.0490    1.5371    0.1736 H   0  0  0  0  0  0  0  0  0  0  0  0
    0.2740   -1.8703    2.7534 N   0  0  0  0  0  0  0  0  0  0  0  0
    0.5378   -3.0480    3.5831 C   0  0  2  0  0  0  0  0  0  0  0  0
   -0.7260   -3.4444    4.3785 C   0  0  0  0  0  0  0  0  0  0  0  0
   -1.6202   -2.6256    4.5788 O   0  0  0  0  0  0  0  0  0  0  0  0
    1.6958   -2.7294    4.5324 C   0  0  0  0  0  0  0  0  0  0  0  0
   -0.6681   -1.4911    2.8538 H   0  0  0  0  0  0  0  0  0  0  0  0
    0.8103   -3.8963    2.9464 H   0  0  0  0  0  0  0  0  0  0  0  0
    1.4384   -1.8840    5.1786 H   0  0  0  0  0  0  0  0  0  0  0  0
    1.9245   -3.5940    5.1624 H   0  0  0  0  0  0  0  0  0  0  0  0
    2.5931   -2.4712    3.9610 H   0  0  0  0  0  0  0  0  0  0  0  0
   -0.8601   -4.7254    4.8824 N   0  0  0  0  0  0  0  0  0  0  0  0
   -2.0429   -5.1821    5.6014 C   0  0  0  0  0  0  0  0  0  0  0  0
   -0.1312   -5.3961    4.6566 H   0  0  0  0  0  0  0  0  0  0  0  0
   -2.2147   -4.5637    6.4886 H   0  0  0  0  0  0  0  0  0  0  0  0
   -2.9266   -5.1282    4.9571 H   0  0  0  0  0  0  0  0  0  0  0  0
   -1.9130   -6.2193    5.9249 H   0  0  0  0  0  0  0  0  0  0  0  0
  1  2  2  0  0  0  0
  1  3  1  0  0  0  0
  1  7  1  0  0  0  0
  3  4  1  0  0  0  0
  3  5  1  0  0  0  0
  3  6  1  0  0  0  0
  7  8  1  0  0  0  0
  7 12  1  0  0  0  0
  8  9  1  0  0  0  0
  8 11  1  0  0  0  0
  8 13  1  0  0  0  0
  9 10  2  0  0  0  0
  9 17  1  0  0  0  0
 11 14  1  0  0  0  0
 11 15  1  0  0  0  0
 11 16  1  0  0  0  0
 17 18  1  0  0  0  0
 17 22  1  0  0  0  0
 18 19  1  0  0  0  0
 18 21  1  0  0  0  0
 18 23  1  0  0  0  0
 19 20  2  0  0  0  0
 19 27  1  0  0  0  0
 21 24  1  0  0  0  0
 21 25  1  0  0  0  0
 21 26  1  0  0  0  0
 27 28  1  0  0  0  0
 27 32  1  0  0  0  0
 28 29  1  0  0  0  0
 28 31  1  0  0  0  0
 28 33  1  0  0  0  0
 29 30  2  0  0  0  0
 29 37  1  0  0  0  0
 31 34  1  0  0  0  0
 31 35  1  0  0  0  0
 31 36  1  0  0  0  0
 37 38  1  0  0  0  0
 37 39  1  0  0  0  0
 38 40  1  0  0  0  0
 38 41  1  0  0  0  0
 38 42  1  0  0  0  0
M  END
$$$$

  -OEChem-05262215353D

 42 41  0     1  0  0  0  0  0999 V2000
   -5.2707   -1.0754    2.1031 C   0  0  0  0  0  0  0  0  0  0  0  0
   -5.9480   -0.3249    1.4169 O   0  0  0  0  0  0  0  0  0  0  0  0
   -5.8777   -2.3418    2.6758 C   0  0  0  0  0  0  0  0  0  0  0  0
   -5.8417   -2.3099    3.7673 H   0  0  0  0  0  0  0  0  0  0  0  0
   -6.9187   -2.4414    2.3567 H   0  0  0  0  0  0  0  0  0  0  0  0
   -5.3154   -3.2117    2.3267 H   0  0  0  0  0  0  0  0  0  0  0  0
   -3.9514   -0.7833    2.3711 N   0  0  0  0  0  0  0  0  0  0  0  0
   -3.1690    0.2204    1.6297 C   0  0  2  0  0  0  0  0  0  0  0  0
   -2.0470   -0.4416    0.7954 C   0  0  0  0  0  0  0  0  0  0  0  0
   -2.1025   -1.6341    0.5296 O   0  0  0  0  0  0  0  0  0  0  0  0
   -2.6113    1.1969    2.6713 C   0  0  0  0  0  0  0  0  0  0  0  0
   -3.4337   -1.5452    2.8225 H   0  0  0  0  0  0  0  0  0  0  0  0
   -3.8055    0.7779    0.9342 H   0  0  0  0  0  0  0  0  0  0  0  0
   -1.9136    0.6845    3.3419 H   0  0  0  0  0  0  0  0  0  0  0  0
   -2.0899    2.0277    2.1875 H   0  0  0  0  0  0  0  0  0  0  0  0
   -3.4278    1.6112    3.2714 H   0  0  0  0  0  0  0  0  0  0  0  0
   -0.8770    0.2273    0.4766 N   0  0  0  0  0  0  0  0  0  0  0  0
    0.4966   -0.3166    0.6429 C   0  0  2  0  0  0  0  0  0  0  0  0
    0.7656   -1.5750    1.5267 C   0  0  0  0  0  0  0  0  0  0  0  0
    1.8808   -2.0800    1.5295 O   0  0  0  0  0  0  0  0  0  0  0  0
    1.3380    0.8483    1.1776 C   0  0  0  0  0  0  0  0  0  0  0  0
   -0.9467    1.2304    0.6184 H   0  0  0  0  0  0  0  0  0  0  0  0
    0.8593   -0.5839   -0.3553 H   0  0  0  0  0  0  0  0  0  0  0  0
    1.0057    1.1314    2.1815 H   0  0  0  0  0  0  0  0  0  0  0  0
    2.3943    0.5642    1.2302 H   0  0  0  0  0  0  0  0  0  0  0  0
    1.2542    1.7186    0.5193 H   0  0  0  0  0  0  0  0  0  0  0  0
   -0.1683   -2.0538    2.4242 N   0  0  0  0  0  0  0  0  0  0  0  0
   -0.0493   -3.2616    3.2412 C   0  0  2  0  0  0  0  0  0  0  0  0
   -1.4571   -3.7522    3.6529 C   0  0  0  0  0  0  0  0  0  0  0  0
   -2.4222   -2.9883    3.6164 O   0  0  0  0  0  0  0  0  0  0  0  0
    0.7898   -2.9533    4.4854 C   0  0  0  0  0  0  0  0  0  0  0  0
   -1.1282   -1.8070    2.1804 H   0  0  0  0  0  0  0  0  0  0  0  0
    0.4339   -4.0522    2.6574 H   0  0  0  0  0  0  0  0  0  0  0  0
    0.3257   -2.1525    5.0696 H   0  0  0  0  0  0  0  0  0  0  0  0
    0.8783   -3.8414    5.1181 H   0  0  0  0  0  0  0  0  0  0  0  0
    1.7967   -2.6353    4.1978 H   0  0  0  0  0  0  0  0  0  0  0  0
   -1.6514   -5.0566    4.0670 N   0  0  0  0  0  0  0  0  0  0  0  0
   -2.9572   -5.5963    4.4271 C   0  0  0  0  0  0  0  0  0  0  0  0
   -0.8483   -5.6792    4.0513 H   0  0  0  0  0  0  0  0  0  0  0  0
   -3.3776   -5.0473    5.2762 H   0  0  0  0  0  0  0  0  0  0  0  0
   -3.6495   -5.5226    3.5817 H   0  0  0  0  0  0  0  0  0  0  0  0
   -2.8663   -6.6499    4.7082 H   0  0  0  0  0  0  0  0  0  0  0  0
  1  2  2  0  0  0  0
  1  3  1  0  0  0  0
  1  7  1  0  0  0  0
  3  4  1  0  0  0  0
  3  5  1  0  0  0  0
  3  6  1  0  0  0  0
  7  8  1  0  0  0  0
  7 12  1  0  0  0  0
  8  9  1  0  0  0  0
  8 11  1  0  0  0  0
  8 13  1  0  0  0  0
  9 10  2  0  0  0  0
  9 17  1  0  0  0  0
 11 14  1  0  0  0  0
 11 15  1  0  0  0  0
 11 16  1  0  0  0  0
 17 18  1  0  0  0  0
 17 22  1  0  0  0  0
 18 19  1  0  0  0  0
 18 21  1  0  0  0  0
 18 23  1  0  0  0  0
 19 20  2  0  0  0  0
 19 27  1  0  0  0  0
 21 24  1  0  0  0  0
 21 25  1  0  0  0  0
 21 26  1  0  0  0  0
 27 28  1  0  0  0  0
 27 32  1  0  0  0  0
 28 29  1  0  0  0  0
 28 31  1  0  0  0  0
 28 33  1  0  0  0  0
 29 30  2  0  0  0  0
 29 37  1  0  0  0  0
 31 34  1  0  0  0  0
 31 35  1  0  0  0  0
 31 36  1  0  0  0  0
 37 38  1  0  0  0  0
 37 39  1  0  0  0  0
 38 40  1  0  0  0  0
 38 41  1  0  0  0  0
 38 42  1  0  0  0  0
M  END
$$$$

  -OEChem-05262215353D

 42 41  0     1  0  0  0  0  0999 V2000
   -5.3703   -1.1574    2.0310 C   0  0  0  0  0  0  0  0  0  0  0  0
   -6.0349   -0.2583    1.5379 O   0  0  0  0  0  0  0  0  0  0  0  0
   -6.0235   -2.4755    2.4000 C   0  0  0  0  0  0  0  0  0  0  0  0
   -5.8784   -2.6787    3.4638 H   0  0  0  0  0  0  0  0  0  0  0  0
   -7.0954   -2.4395    2.1877 H   0  0  0  0  0  0  0  0  0  0  0  0
   -5.5740   -3.2854    1.8199 H   0  0  0  0  0  0  0  0  0  0  0  0
   -4.0228   -0.9883    2.2602 N   0  0  0  0  0  0  0  0  0  0  0  0
   -3.2209    0.0997    1.6766 C   0  0  2  0  0  0  0  0  0  0  0  0
   -2.1740   -0.4388    0.6736 C   0  0  0  0  0  0  0  0  0  0  0  0
   -2.2712   -1.5715    0.2203 O   0  0  0  0  0  0  0  0  0  0  0  0
   -2.5612    0.8321    2.8505 C   0  0  0  0  0  0  0  0  0  0  0  0
   -3.5272   -1.8406    2.5435 H   0  0  0  0  0  0  0  0  0  0  0  0
   -3.8567    0.8074    1.1343 H   0  0  0  0  0  0  0  0  0  0  0  0
   -1.8738    0.1643    3.3808 H   0  0  0  0  0  0  0  0  0  0  0  0
   -2.0042    1.7069    2.5026 H   0  0  0  0  0  0  0  0  0  0  0  0
   -3.3256    1.1741    3.5558 H   0  0  0  0  0  0  0  0  0  0  0  0
   -1.0182    0.2592    0.3720 N   0  0  0  0  0  0  0  0  0  0  0  0
    0.3604   -0.2809    0.5077 C   0  0  2  0  0  0  0  0  0  0  0  0
    0.6557   -1.5733    1.3390 C   0  0  0  0  0  0  0  0  0  0  0  0
    1.8182   -1.9064    1.5297 O   0  0  0  0  0  0  0  0  0  0  0  0
    1.1959    0.8835    1.0593 C   0  0  0  0  0  0  0  0  0  0  0  0
   -1.0915    1.2404    0.6230 H   0  0  0  0  0  0  0  0  0  0  0  0
    0.7100   -0.5110   -0.5042 H   0  0  0  0  0  0  0  0  0  0  0  0
    0.9076    1.1070    2.0914 H   0  0  0  0  0  0  0  0  0  0  0  0
    2.2617    0.6320    1.0451 H   0  0  0  0  0  0  0  0  0  0  0  0
    1.0557    1.7824    0.4509 H   0  0  0  0  0  0  0  0  0  0  0  0
   -0.3245   -2.2904    1.9959 N   0  0  0  0  0  0  0  0  0  0  0  0
   -0.1500   -3.4068    2.9280 C   0  0  2  0  0  0  0  0  0  0  0  0
   -1.5187   -4.0551    3.2380 C   0  0  0  0  0  0  0  0  0  0  0  0
   -2.5568   -3.4041    3.1256 O   0  0  0  0  0  0  0  0  0  0  0  0
    0.4736   -2.9024    4.2361 C   0  0  0  0  0  0  0  0  0  0  0  0
   -1.2687   -2.1669    1.6230 H   0  0  0  0  0  0  0  0  0  0  0  0
    0.5014   -4.1602    2.4735 H   0  0  0  0  0  0  0  0  0  0  0  0
   -0.1504   -2.1185    4.6774 H   0  0  0  0  0  0  0  0  0  0  0  0
    0.5662   -3.7209    4.9561 H   0  0  0  0  0  0  0  0  0  0  0  0
    1.4721   -2.4926    4.0574 H   0  0  0  0  0  0  0  0  0  0  0  0
   -1.5901   -5.3652    3.6733 N   0  0  0  0  0  0  0  0  0  0  0  0
   -2.8456   -6.0452    3.9689 C   0  0  0  0  0  0  0  0  0  0  0  0
   -0.7214   -5.8891    3.7325 H   0  0  0  0  0  0  0  0  0  0  0  0
   -3.3998   -5.5083    4.7460 H   0  0  0  0  0  0  0  0  0  0  0  0
   -3.4688   -6.1071    3.0705 H   0  0  0  0  0  0  0  0  0  0  0  0
   -2.6506   -7.0611    4.3258 H   0  0  0  0  0  0  0  0  0  0  0  0
  1  2  2  0  0  0  0
  1  3  1  0  0  0  0
  1  7  1  0  0  0  0
  3  4  1  0  0  0  0
  3  5  1  0  0  0  0
  3  6  1  0  0  0  0
  7  8  1  0  0  0  0
  7 12  1  0  0  0  0
  8  9  1  0  0  0  0
  8 11  1  0  0  0  0
  8 13  1  0  0  0  0
  9 10  2  0  0  0  0
  9 17  1  0  0  0  0
 11 14  1  0  0  0  0
 11 15  1  0  0  0  0
 11 16  1  0  0  0  0
 17 18  1  0  0  0  0
 17 22  1  0  0  0  0
 18 19  1  0  0  0  0
 18 21  1  0  0  0  0
 18 23  1  0  0  0  0
 19 20  2  0  0  0  0
 19 27  1  0  0  0  0
 21 24  1  0  0  0  0
 21 25  1  0  0  0  0
 21 26  1  0  0  0  0
 27 28  1  0  0  0  0
 27 32  1  0  0  0  0
 28 29  1  0  0  0  0
 28 31  1  0  0  0  0
 28 33  1  0  0  0  0
 29 30  2  0  0  0  0
 29 37  1  0  0  0  0
 31 34  1  0  0  0  0
 31 35  1  0  0  0  0
 31 36  1  0  0  0  0
 37 38  1  0  0  0  0
 37 39  1  0  0  0  0
 38 40  1  0  0  0  0
 38 41  1  0  0  0  0
 38 42  1  0  0  0  0
M  END
$$$$

  -OEChem-05262215353D

 42 41  0     1  0  0  0  0  0999 V2000
   -4.9160    1.0534    0.9766 C   0  0  0  0  0  0  0  0  0  0  0  0
   -3.8741    1.3541    0.4127 O   0  0  0  0  0  0  0  0  0  0  0  0
   -6.2440    1.1678    0.2525 C   0  0  0  0  0  0  0  0  0  0  0  0
   -6.9037    1.8556    0.7875 H   0  0  0  0  0  0  0  0  0  0  0  0
   -6.0890    1.5466   -0.7618 H   0  0  0  0  0  0  0  0  0  0  0  0
   -6.7232    0.1875    0.1918 H   0  0  0  0  0  0  0  0  0  0  0  0
   -4.8664    0.5567    2.2631 N   0  0  0  0  0  0  0  0  0  0  0  0
   -3.6321    0.4367    3.0559 C   0  0  2  0  0  0  0  0  0  0  0  0
   -2.7730   -0.7888    2.6501 C   0  0  0  0  0  0  0  0  0  0  0  0
   -2.5910   -1.7053    3.4357 O   0  0  0  0  0  0  0  0  0  0  0  0
   -4.0416    0.4202    4.5348 C   0  0  0  0  0  0  0  0  0  0  0  0
   -5.7428    0.2570    2.6817 H   0  0  0  0  0  0  0  0  0  0  0  0
   -3.0127    1.3263    2.8967 H   0  0  0  0  0  0  0  0  0  0  0  0
   -4.6612   -0.4553    4.7544 H   0  0  0  0  0  0  0  0  0  0  0  0
   -3.1532    0.3837    5.1737 H   0  0  0  0  0  0  0  0  0  0  0  0
   -4.6077    1.3226    4.7855 H   0  0  0  0  0  0  0  0  0  0  0  0
   -2.2833   -0.8378    1.3566 N   0  0  0  0  0  0  0  0  0  0  0  0
   -1.2879   -1.7057    0.6800 C   0  0  2  0  0  0  0  0  0  0  0  0
   -0.2679   -2.6317    1.4180 C   0  0  0  0  0  0  0  0  0  0  0  0
    0.6496   -3.1225    0.7671 O   0  0  0  0  0  0  0  0  0  0  0  0
   -0.5254   -0.7320   -0.2339 C   0  0  0  0  0  0  0  0  0  0  0  0
   -2.6022   -0.0373    0.8013 H   0  0  0  0  0  0  0  0  0  0  0  0
   -1.8629   -2.3916    0.0505 H   0  0  0  0  0  0  0  0  0  0  0  0
    0.1065   -0.0660    0.3624 H   0  0  0  0  0  0  0  0  0  0  0  0
    0.1124   -1.2754   -0.9385 H   0  0  0  0  0  0  0  0  0  0  0  0
   -1.2221   -0.1220   -0.8180 H   0  0  0  0  0  0  0  0  0  0  0  0
   -0.3282   -3.0001    2.7465 N   0  0  0  0  0  0  0  0  0  0  0  0
    0.6505   -3.8415    3.4535 C   0  0  2  0  0  0  0  0  0  0  0  0
    0.4781   -5.3534    3.1621 C   0  0  0  0  0  0  0  0  0  0  0  0
    0.3691   -6.1794    4.0615 O   0  0  0  0  0  0  0  0  0  0  0  0
    0.5252   -3.5082    4.9453 C   0  0  0  0  0  0  0  0  0  0  0  0
   -1.1478   -2.6768    3.2643 H   0  0  0  0  0  0  0  0  0  0  0  0
    1.6609   -3.5672    3.1327 H   0  0  0  0  0  0  0  0  0  0  0  0
   -0.4692   -3.7776    5.3163 H   0  0  0  0  0  0  0  0  0  0  0  0
    1.2724   -4.0614    5.5232 H   0  0  0  0  0  0  0  0  0  0  0  0
    0.6830   -2.4384    5.1115 H   0  0  0  0  0  0  0  0  0  0  0  0
    0.4912   -5.7945    1.8537 N   0  0  0  0  0  0  0  0  0  0  0  0
    0.3997   -7.1933    1.4605 C   0  0  0  0  0  0  0  0  0  0  0  0
    0.6293   -5.0739    1.1404 H   0  0  0  0  0  0  0  0  0  0  0  0
    1.2417   -7.7608    1.8702 H   0  0  0  0  0  0  0  0  0  0  0  0
   -0.5340   -7.6336    1.8257 H   0  0  0  0  0  0  0  0  0  0  0  0
    0.4203   -7.2801    0.3700 H   0  0  0  0  0  0  0  0  0  0  0  0
  1  2  2  0  0  0  0
  1  3  1  0  0  0  0
  1  7  1  0  0  0  0
  3  4  1  0  0  0  0
  3  5  1  0  0  0  0
  3  6  1  0  0  0  0
  7  8  1  0  0  0  0
  7 12  1  0  0  0  0
  8  9  1  0  0  0  0
  8 11  1  0  0  0  0
  8 13  1  0  0  0  0
  9 10  2  0  0  0  0
  9 17  1  0  0  0  0
 11 14  1  0  0  0  0
 11 15  1  0  0  0  0
 11 16  1  0  0  0  0
 17 18  1  0  0  0  0
 17 22  1  0  0  0  0
 18 19  1  0  0  0  0
 18 21  1  0  0  0  0
 18 23  1  0  0  0  0
 19 20  2  0  0  0  0
 19 27  1  0  0  0  0
 21 24  1  0  0  0  0
 21 25  1  0  0  0  0
 21 26  1  0  0  0  0
 27 28  1  0  0  0  0
 27 32  1  0  0  0  0
 28 29  1  0  0  0  0
 28 31  1  0  0  0  0
 28 33  1  0  0  0  0
 29 30  2  0  0  0  0
 29 37  1  0  0  0  0
 31 34  1  0  0  0  0
 31 35  1  0  0  0  0
 31 36  1  0  0  0  0
 37 38  1  0  0  0  0
 37 39  1  0  0  0  0
 38 40  1  0  0  0  0
 38 41  1  0  0  0  0
 38 42  1  0  0  0  0
M  END
$$$$

  -OEChem-05262215353D

 42 41  0     1  0  0  0  0  0999 V2000
   -4.6413    1.3385    1.1105 C   0  0  0  0  0  0  0  0  0  0  0  0
   -3.6469    1.4576    0.4099 O   0  0  0  0  0  0  0  0  0  0  0  0
   -6.0120    1.6994    0.5696 C   0  0  0  0  0  0  0  0  0  0  0  0
   -6.4732    2.4635    1.2004 H   0  0  0  0  0  0  0  0  0  0  0  0
   -5.9258    2.0905   -0.4482 H   0  0  0  0  0  0  0  0  0  0  0  0
   -6.6531    0.8146    0.5530 H   0  0  0  0  0  0  0  0  0  0  0  0
   -4.5092    0.8311    2.3870 N   0  0  0  0  0  0  0  0  0  0  0  0
   -3.2187    0.5261    3.0260 C   0  0  2  0  0  0  0  0  0  0  0  0
   -2.6063   -0.8161    2.5484 C   0  0  0  0  0  0  0  0  0  0  0  0
   -2.4530   -1.7402    3.3314 O   0  0  0  0  0  0  0  0  0  0  0  0
   -3.4409    0.5789    4.5438 C   0  0  0  0  0  0  0  0  0  0  0  0
   -5.3604    0.6966    2.9259 H   0  0  0  0  0  0  0  0  0  0  0  0
   -2.4974    1.3110    2.7734 H   0  0  0  0  0  0  0  0  0  0  0  0
   -4.1555   -0.1892    4.8574 H   0  0  0  0  0  0  0  0  0  0  0  0
   -2.4966    0.4076    5.0708 H   0  0  0  0  0  0  0  0  0  0  0  0
   -3.8268    1.5592    4.8402 H   0  0  0  0  0  0  0  0  0  0  0  0
   -2.2982   -0.9490    1.2056 N   0  0  0  0  0  0  0  0  0  0  0  0
   -1.4870   -1.9338    0.4476 C   0  0  2  0  0  0  0  0  0  0  0  0
   -0.4782   -2.9293    1.1100 C   0  0  0  0  0  0  0  0  0  0  0  0
    0.4703   -3.3465    0.4519 O   0  0  0  0  0  0  0  0  0  0  0  0
   -0.7753   -1.0771   -0.6135 C   0  0  0  0  0  0  0  0  0  0  0  0
   -2.5709   -0.1173    0.6719 H   0  0  0  0  0  0  0  0  0  0  0  0
   -2.2025   -2.5841   -0.0648 H   0  0  0  0  0  0  0  0  0  0  0  0
   -0.0021   -0.4580   -0.1475 H   0  0  0  0  0  0  0  0  0  0  0  0
   -0.3027   -1.7092   -1.3722 H   0  0  0  0  0  0  0  0  0  0  0  0
   -1.4874   -0.4208   -1.1241 H   0  0  0  0  0  0  0  0  0  0  0  0
   -0.6042   -3.4506    2.3815 N   0  0  0  0  0  0  0  0  0  0  0  0
    0.3905   -4.2905    3.0675 C   0  0  2  0  0  0  0  0  0  0  0  0
    0.3350   -5.7778    2.6376 C   0  0  0  0  0  0  0  0  0  0  0  0
    0.1908   -6.6842    3.4504 O   0  0  0  0  0  0  0  0  0  0  0  0
    0.1676   -4.0994    4.5732 C   0  0  0  0  0  0  0  0  0  0  0  0
   -1.3793   -3.0806    2.9363 H   0  0  0  0  0  0  0  0  0  0  0  0
    1.3955   -3.9269    2.8302 H   0  0  0  0  0  0  0  0  0  0  0  0
   -0.8236   -4.4630    4.8640 H   0  0  0  0  0  0  0  0  0  0  0  0
    0.9212   -4.6530    5.1423 H   0  0  0  0  0  0  0  0  0  0  0  0
    0.2431   -3.0406    4.8386 H   0  0  0  0  0  0  0  0  0  0  0  0
    0.4996   -6.1008    1.3055 N   0  0  0  0  0  0  0  0  0  0  0  0
    0.5035   -7.4609    0.7855 C   0  0  0  0  0  0  0  0  0  0  0  0
    0.6201   -5.3112    0.6657 H   0  0  0  0  0  0  0  0  0  0  0  0
    1.3047   -8.0462    1.2488 H   0  0  0  0  0  0  0  0  0  0  0  0
   -0.4544   -7.9505    0.9891 H   0  0  0  0  0  0  0  0  0  0  0  0
    0.6650   -7.4499   -0.2966 H   0  0  0  0  0  0  0  0  0  0  0  0
  1  2  2  0  0  0  0
  1  3  1  0  0  0  0
  1  7  1  0  0  0  0
  3  4  1  0  0  0  0
  3  5  1  0  0  0  0
  3  6  1  0  0  0  0
  7  8  1  0  0  0  0
  7 12  1  0  0  0  0
  8  9  1  0  0  0  0
  8 11  1  0  0  0  0
  8 13  1  0  0  0  0
  9 10  2  0  0  0  0
  9 17  1  0  0  0  0
 11 14  1  0  0  0  0
 11 15  1  0  0  0  0
 11 16  1  0  0  0  0
 17 18  1  0  0  0  0
 17 22  1  0  0  0  0
 18 19  1  0  0  0  0
 18 21  1  0  0  0  0
 18 23  1  0  0  0  0
 19 20  2  0  0  0  0
 19 27  1  0  0  0  0
 21 24  1  0  0  0  0
 21 25  1  0  0  0  0
 21 26  1  0  0  0  0
 27 28  1  0  0  0  0
 27 32  1  0  0  0  0
 28 29  1  0  0  0  0
 28 31  1  0  0  0  0
 28 33  1  0  0  0  0
 29 30  2  0  0  0  0
 29 37  1  0  0  0  0
 31 34  1  0  0  0  0
 31 35  1  0  0  0  0
 31 36  1  0  0  0  0
 37 38  1  0  0  0  0
 37 39  1  0  0  0  0
 38 40  1  0  0  0  0
 38 41  1  0  0  0  0
 38 42  1  0  0  0  0
M  END
$$$$

  -OEChem-05262215353D

 42 41  0     1  0  0  0  0  0999 V2000
   -5.7577   -0.2031    1.5109 C   0  0  0  0  0  0  0  0  0  0  0  0
   -5.7954    0.7319    0.7263 O   0  0  0  0  0  0  0  0  0  0  0  0
   -6.8792   -1.2250    1.5289 C   0  0  0  0  0  0  0  0  0  0  0  0
   -7.3719   -1.2221    2.5044 H   0  0  0  0  0  0  0  0  0  0  0  0
   -7.6187   -0.9864    0.7592 H   0  0  0  0  0  0  0  0  0  0  0  0
   -6.4781   -2.2230    1.3340 H   0  0  0  0  0  0  0  0  0  0  0  0
   -4.6927   -0.3452    2.3765 N   0  0  0  0  0  0  0  0  0  0  0  0
   -3.4405    0.4172    2.2610 C   0  0  2  0  0  0  0  0  0  0  0  0
   -2.2593   -0.4881    1.8507 C   0  0  0  0  0  0  0  0  0  0  0  0
   -2.2903   -1.6669    2.1662 O   0  0  0  0  0  0  0  0  0  0  0  0
   -3.1670    1.0729    3.6160 C   0  0  0  0  0  0  0  0  0  0  0  0
   -4.6263   -1.2471    2.8453 H   0  0  0  0  0  0  0  0  0  0  0  0
   -3.5361    1.2055    1.5070 H   0  0  0  0  0  0  0  0  0  0  0  0
   -3.0490    0.3117    4.3942 H   0  0  0  0  0  0  0  0  0  0  0  0
   -2.2527    1.6726    3.5743 H   0  0  0  0  0  0  0  0  0  0  0  0
   -3.9989    1.7286    3.8921 H   0  0  0  0  0  0  0  0  0  0  0  0
   -1.2035    0.0591    1.1389 N   0  0  0  0  0  0  0  0  0  0  0  0
    0.0738   -0.5261    0.6583 C   0  0  2  0  0  0  0  0  0  0  0  0
    0.6428   -1.8879    1.1758 C   0  0  0  0  0  0  0  0  0  0  0  0
    1.8497   -2.0157    1.3553 O   0  0  0  0  0  0  0  0  0  0  0  0
    1.1002    0.6036    0.8542 C   0  0  0  0  0  0  0  0  0  0  0  0
   -1.3342    1.0422    0.9182 H   0  0  0  0  0  0  0  0  0  0  0  0
   -0.0495   -0.6883   -0.4169 H   0  0  0  0  0  0  0  0  0  0  0  0
    1.2984    0.7570    1.9201 H   0  0  0  0  0  0  0  0  0  0  0  0
    2.0451    0.3574    0.3583 H   0  0  0  0  0  0  0  0  0  0  0  0
    0.7336    1.5419    0.4267 H   0  0  0  0  0  0  0  0  0  0  0  0
   -0.1293   -3.0214    1.3258 N   0  0  0  0  0  0  0  0  0  0  0  0
    0.3558   -4.3340    1.7705 C   0  0  2  0  0  0  0  0  0  0  0  0
   -0.5108   -5.4975    1.2414 C   0  0  0  0  0  0  0  0  0  0  0  0
   -1.6418   -5.3037    0.8103 O   0  0  0  0  0  0  0  0  0  0  0  0
    0.3801   -4.3401    3.3024 C   0  0  0  0  0  0  0  0  0  0  0  0
   -1.1435   -2.8737    1.3268 H   0  0  0  0  0  0  0  0  0  0  0  0
    1.3710   -4.4938    1.3936 H   0  0  0  0  0  0  0  0  0  0  0  0
   -0.6276   -4.1796    3.6998 H   0  0  0  0  0  0  0  0  0  0  0  0
    0.7562   -5.2964    3.6775 H   0  0  0  0  0  0  0  0  0  0  0  0
    1.0319   -3.5437    3.6750 H   0  0  0  0  0  0  0  0  0  0  0  0
   -0.0127   -6.7883    1.2508 N   0  0  0  0  0  0  0  0  0  0  0  0
   -0.7586   -7.9378    0.7531 C   0  0  0  0  0  0  0  0  0  0  0  0
    0.9326   -6.9245    1.5965 H   0  0  0  0  0  0  0  0  0  0  0  0
   -1.6924   -8.0595    1.3123 H   0  0  0  0  0  0  0  0  0  0  0  0
   -0.9976   -7.8087   -0.3080 H   0  0  0  0  0  0  0  0  0  0  0  0
   -0.1672   -8.8513    0.8659 H   0  0  0  0  0  0  0  0  0  0  0  0
  1  2  2  0  0  0  0
  1  3  1  0  0  0  0
  1  7  1  0  0  0  0
  3  4  1  0  0  0  0
  3  5  1  0  0  0  0
  3  6  1  0  0  0  0
  7  8  1  0  0  0  0
  7 12  1  0  0  0  0
  8  9  1  0  0  0  0
  8 11  1  0  0  0  0
  8 13  1  0  0  0  0
  9 10  2  0  0  0  0
  9 17  1  0  0  0  0
 11 14  1  0  0  0  0
 11 15  1  0  0  0  0
 11 16  1  0  0  0  0
 17 18  1  0  0  0  0
 17 22  1  0  0  0  0
 18 19  1  0  0  0  0
 18 21  1  0  0  0  0
 18 23  1  0  0  0  0
 19 20  2  0  0  0  0
 19 27  1  0  0  0  0
 21 24  1  0  0  0  0
 21 25  1  0  0  0  0
 21 26  1  0  0  0  0
 27 28  1  0  0  0  0
 27 32  1  0  0  0  0
 28 29  1  0  0  0  0
 28 31  1  0  0  0  0
 28 33  1  0  0  0  0
 29 30  2  0  0  0  0
 29 37  1  0  0  0  0
 31 34  1  0  0  0  0
 31 35  1  0  0  0  0
 31 36  1  0  0  0  0
 37 38  1  0  0  0  0
 37 39  1  0  0  0  0
 38 40  1  0  0  0  0
 38 41  1  0  0  0  0
 38 42  1  0  0  0  0
M  END
$$$$

  -OEChem-05262215353D

 42 41  0     1  0  0  0  0  0999 V2000
   -5.8311   -0.2651    1.7468 C   0  0  0  0  0  0  0  0  0  0  0  0
   -6.0067    0.8770    1.3525 O   0  0  0  0  0  0  0  0  0  0  0  0
   -6.9628   -1.2740    1.6838 C   0  0  0  0  0  0  0  0  0  0  0  0
   -7.2189   -1.6105    2.6914 H   0  0  0  0  0  0  0  0  0  0  0  0
   -7.8479   -0.8209    1.2281 H   0  0  0  0  0  0  0  0  0  0  0  0
   -6.6613   -2.1366    1.0843 H   0  0  0  0  0  0  0  0  0  0  0  0
   -4.6015   -0.6452    2.2426 N   0  0  0  0  0  0  0  0  0  0  0  0
   -3.3858    0.1757    2.1547 C   0  0  2  0  0  0  0  0  0  0  0  0
   -2.1810   -0.6428    1.6454 C   0  0  0  0  0  0  0  0  0  0  0  0
   -2.1993   -1.8588    1.7639 O   0  0  0  0  0  0  0  0  0  0  0  0
   -3.0967    0.7442    3.5455 C   0  0  0  0  0  0  0  0  0  0  0  0
   -4.4648   -1.6415    2.4098 H   0  0  0  0  0  0  0  0  0  0  0  0
   -3.5375    1.0045    1.4552 H   0  0  0  0  0  0  0  0  0  0  0  0
   -2.9310   -0.0658    4.2633 H   0  0  0  0  0  0  0  0  0  0  0  0
   -2.2053    1.3783    3.5239 H   0  0  0  0  0  0  0  0  0  0  0  0
   -3.9424    1.3480    3.8900 H   0  0  0  0  0  0  0  0  0  0  0  0
   -1.1364    0.0094    1.0102 N   0  0  0  0  0  0  0  0  0  0  0  0
    0.1980   -0.4924    0.6045 C   0  0  2  0  0  0  0  0  0  0  0  0
    0.7651   -1.8334    1.1668 C   0  0  0  0  0  0  0  0  0  0  0  0
    1.8767   -1.8703    1.6843 O   0  0  0  0  0  0  0  0  0  0  0  0
    1.1587    0.6769    0.8746 C   0  0  0  0  0  0  0  0  0  0  0  0
   -1.2629    1.0150    0.9394 H   0  0  0  0  0  0  0  0  0  0  0  0
    0.1585   -0.6495   -0.4779 H   0  0  0  0  0  0  0  0  0  0  0  0
    1.2471    0.8579    1.9509 H   0  0  0  0  0  0  0  0  0  0  0  0
    2.1549    0.4541    0.4782 H   0  0  0  0  0  0  0  0  0  0  0  0
    0.8014    1.5919    0.3924 H   0  0  0  0  0  0  0  0  0  0  0  0
    0.1146   -3.0343    0.9688 N   0  0  0  0  0  0  0  0  0  0  0  0
    0.5788   -4.3359    1.4648 C   0  0  2  0  0  0  0  0  0  0  0  0
   -0.0337   -5.5173    0.6807 C   0  0  0  0  0  0  0  0  0  0  0  0
   -1.0396   -5.3697   -0.0042 O   0  0  0  0  0  0  0  0  0  0  0  0
    0.2164   -4.4450    2.9504 C   0  0  0  0  0  0  0  0  0  0  0  0
   -0.8835   -2.9560    0.7541 H   0  0  0  0  0  0  0  0  0  0  0  0
    1.6659   -4.3987    1.3520 H   0  0  0  0  0  0  0  0  0  0  0  0
   -0.8672   -4.3640    3.0845 H   0  0  0  0  0  0  0  0  0  0  0  0
    0.5488   -5.4038    3.3587 H   0  0  0  0  0  0  0  0  0  0  0  0
    0.6974   -3.6441    3.5206 H   0  0  0  0  0  0  0  0  0  0  0  0
    0.5481   -6.7709    0.7498 N   0  0  0  0  0  0  0  0  0  0  0  0
    0.0304   -7.9352    0.0406 C   0  0  0  0  0  0  0  0  0  0  0  0
    1.3864   -6.8696    1.3146 H   0  0  0  0  0  0  0  0  0  0  0  0
   -0.9899   -8.1609    0.3683 H   0  0  0  0  0  0  0  0  0  0  0  0
    0.0214   -7.7540   -1.0395 H   0  0  0  0  0  0  0  0  0  0  0  0
    0.6580   -8.8095    0.2387 H   0  0  0  0  0  0  0  0  0  0  0  0
  1  2  2  0  0  0  0
  1  3  1  0  0  0  0
  1  7  1  0  0  0  0
  3  4  1  0  0  0  0
  3  5  1  0  0  0  0
  3  6  1  0  0  0  0
  7  8  1  0  0  0  0
  7 12  1  0  0  0  0
  8  9  1  0  0  0  0
  8 11  1  0  0  0  0
  8 13  1  0  0  0  0
  9 10  2  0  0  0  0
  9 17  1  0  0  0  0
 11 14  1  0  0  0  0
 11 15  1  0  0  0  0
 11 16  1  0  0  0  0
 17 18  1  0  0  0  0
 17 22  1  0  0  0  0
 18 19  1  0  0  0  0
 18 21  1  0  0  0  0
 18 23  1  0  0  0  0
 19 20  2  0  0  0  0
 19 27  1  0  0  0  0
 21 24  1  0  0  0  0
 21 25  1  0  0  0  0
 21 26  1  0  0  0  0
 27 28  1  0  0  0  0
 27 32  1  0  0  0  0
 28 29  1  0  0  0  0
 28 31  1  0  0  0  0
 28 33  1  0  0  0  0
 29 30  2  0  0  0  0
 29 37  1  0  0  0  0
 31 34  1  0  0  0  0
 31 35  1  0  0  0  0
 31 36  1  0  0  0  0
 37 38  1  0  0  0  0
 37 39  1  0  0  0  0
 38 40  1  0  0  0  0
 38 41  1  0  0  0  0
 38 42  1  0  0  0  0
M  END
$$$$

  -OEChem-05262215353D

 42 41  0     1  0  0  0  0  0999 V2000
   -5.7971   -0.4507    1.8729 C   0  0  0  0  0  0  0  0  0  0  0  0
   -6.0454    0.7294    1.6820 O   0  0  0  0  0  0  0  0  0  0  0  0
   -6.9062   -1.4834    1.8079 C   0  0  0  0  0  0  0  0  0  0  0  0
   -7.0341   -1.9543    2.7855 H   0  0  0  0  0  0  0  0  0  0  0  0
   -7.8478   -1.0082    1.5189 H   0  0  0  0  0  0  0  0  0  0  0  0
   -6.6589   -2.2513    1.0706 H   0  0  0  0  0  0  0  0  0  0  0  0
   -4.5049   -0.8504    2.1391 N   0  0  0  0  0  0  0  0  0  0  0  0
   -3.3333    0.0309    2.0532 C   0  0  2  0  0  0  0  0  0  0  0  0
   -2.1018   -0.7105    1.4922 C   0  0  0  0  0  0  0  0  0  0  0  0
   -2.0870   -1.9338    1.4949 O   0  0  0  0  0  0  0  0  0  0  0  0
   -3.0398    0.5760    3.4532 C   0  0  0  0  0  0  0  0  0  0  0  0
   -4.3224   -1.8535    2.1558 H   0  0  0  0  0  0  0  0  0  0  0  0
   -3.5469    0.8672    1.3789 H   0  0  0  0  0  0  0  0  0  0  0  0
   -2.8185   -0.2435    4.1447 H   0  0  0  0  0  0  0  0  0  0  0  0
   -2.1813    1.2539    3.4308 H   0  0  0  0  0  0  0  0  0  0  0  0
   -3.9059    1.1280    3.8322 H   0  0  0  0  0  0  0  0  0  0  0  0
   -1.0756    0.0132    0.9069 N   0  0  0  0  0  0  0  0  0  0  0  0
    0.2922   -0.4409    0.5715 C   0  0  2  0  0  0  0  0  0  0  0  0
    0.8304   -1.7644    1.1913 C   0  0  0  0  0  0  0  0  0  0  0  0
    1.7555   -1.7508    1.9970 O   0  0  0  0  0  0  0  0  0  0  0  0
    1.2137    0.7442    0.8984 C   0  0  0  0  0  0  0  0  0  0  0  0
   -1.2122    1.0196    0.9277 H   0  0  0  0  0  0  0  0  0  0  0  0
    0.3252   -0.6016   -0.5107 H   0  0  0  0  0  0  0  0  0  0  0  0
    1.2194    0.9410    1.9756 H   0  0  0  0  0  0  0  0  0  0  0  0
    2.2392    0.5270    0.5819 H   0  0  0  0  0  0  0  0  0  0  0  0
    0.8811    1.6478    0.3789 H   0  0  0  0  0  0  0  0  0  0  0  0
    0.3918   -2.9877    0.7240 N   0  0  0  0  0  0  0  0  0  0  0  0
    0.8351   -4.2882    1.2414 C   0  0  2  0  0  0  0  0  0  0  0  0
    0.5455   -5.4391    0.2536 C   0  0  0  0  0  0  0  0  0  0  0  0
   -0.2486   -5.2934   -0.6692 O   0  0  0  0  0  0  0  0  0  0  0  0
    0.1261   -4.5512    2.5759 C   0  0  0  0  0  0  0  0  0  0  0  0
   -0.5059   -2.9742    0.2370 H   0  0  0  0  0  0  0  0  0  0  0  0
    1.9173   -4.2613    1.4052 H   0  0  0  0  0  0  0  0  0  0  0  0
   -0.9595   -4.5665    2.4329 H   0  0  0  0  0  0  0  0  0  0  0  0
    0.4374   -5.5126    2.9951 H   0  0  0  0  0  0  0  0  0  0  0  0
    0.3687   -3.7668    3.2997 H   0  0  0  0  0  0  0  0  0  0  0  0
    1.1767   -6.6603    0.4081 N   0  0  0  0  0  0  0  0  0  0  0  0
    0.9414   -7.8002   -0.4697 C   0  0  0  0  0  0  0  0  0  0  0  0
    1.8291   -6.7572    1.1805 H   0  0  0  0  0  0  0  0  0  0  0  0
   -0.1107   -8.1017   -0.4321 H   0  0  0  0  0  0  0  0  0  0  0  0
    1.1987   -7.5470   -1.5036 H   0  0  0  0  0  0  0  0  0  0  0  0
    1.5558   -8.6504   -0.1588 H   0  0  0  0  0  0  0  0  0  0  0  0
  1  2  2  0  0  0  0
  1  3  1  0  0  0  0
  1  7  1  0  0  0  0
  3  4  1  0  0  0  0
  3  5  1  0  0  0  0
  3  6  1  0  0  0  0
  7  8  1  0  0  0  0
  7 12  1  0  0  0  0
  8  9  1  0  0  0  0
  8 11  1  0  0  0  0
  8 13  1  0  0  0  0
  9 10  2  0  0  0  0
  9 17  1  0  0  0  0
 11 14  1  0  0  0  0
 11 15  1  0  0  0  0
 11 16  1  0  0  0  0
 17 18  1  0  0  0  0
 17 22  1  0  0  0  0
 18 19  1  0  0  0  0
 18 21  1  0  0  0  0
 18 23  1  0  0  0  0
 19 20  2  0  0  0  0
 19 27  1  0  0  0  0
 21 24  1  0  0  0  0
 21 25  1  0  0  0  0
 21 26  1  0  0  0  0
 27 28  1  0  0  0  0
 27 32  1  0  0  0  0
 28 29  1  0  0  0  0
 28 31  1  0  0  0  0
 28 33  1  0  0  0  0
 29 30  2  0  0  0  0
 29 37  1  0  0  0  0
 31 34  1  0  0  0  0
 31 35  1  0  0  0  0
 31 36  1  0  0  0  0
 37 38  1  0  0  0  0
 37 39  1  0  0  0  0
 38 40  1  0  0  0  0
 38 41  1  0  0  0  0
 38 42  1  0  0  0  0
M  END
$$$$

  -OEChem-05262215353D

 42 41  0     1  0  0  0  0  0999 V2000
   -5.7382   -0.6063    1.9216 C   0  0  0  0  0  0  0  0  0  0  0  0
   -6.0311    0.5693    1.7704 O   0  0  0  0  0  0  0  0  0  0  0  0
   -6.8172   -1.6718    1.8816 C   0  0  0  0  0  0  0  0  0  0  0  0
   -6.8803   -2.1725    2.8507 H   0  0  0  0  0  0  0  0  0  0  0  0
   -7.7863   -1.2192    1.6534 H   0  0  0  0  0  0  0  0  0  0  0  0
   -6.5849   -2.4107    1.1109 H   0  0  0  0  0  0  0  0  0  0  0  0
   -4.4233   -0.9701    2.1203 N   0  0  0  0  0  0  0  0  0  0  0  0
   -3.2845   -0.0498    2.0079 C   0  0  2  0  0  0  0  0  0  0  0  0
   -2.0523   -0.7411    1.3877 C   0  0  0  0  0  0  0  0  0  0  0  0
   -2.0131   -1.9636    1.3261 O   0  0  0  0  0  0  0  0  0  0  0  0
   -2.9549    0.4803    3.4061 C   0  0  0  0  0  0  0  0  0  0  0  0
   -4.2080   -1.9666    2.1049 H   0  0  0  0  0  0  0  0  0  0  0  0
   -3.5491    0.7904    1.3570 H   0  0  0  0  0  0  0  0  0  0  0  0
   -2.6783   -0.3430    4.0727 H   0  0  0  0  0  0  0  0  0  0  0  0
   -2.1219    1.1882    3.3639 H   0  0  0  0  0  0  0  0  0  0  0  0
   -3.8233    0.9946    3.8298 H   0  0  0  0  0  0  0  0  0  0  0  0
   -1.0497    0.0271    0.8177 N   0  0  0  0  0  0  0  0  0  0  0  0
    0.3343   -0.4010    0.5255 C   0  0  2  0  0  0  0  0  0  0  0  0
    0.8488   -1.7066    1.1940 C   0  0  0  0  0  0  0  0  0  0  0  0
    1.5092   -1.6641    2.2269 O   0  0  0  0  0  0  0  0  0  0  0  0
    1.2361    0.7905    0.8761 C   0  0  0  0  0  0  0  0  0  0  0  0
   -1.1934    1.0290    0.9032 H   0  0  0  0  0  0  0  0  0  0  0  0
    0.4078   -0.5717   -0.5531 H   0  0  0  0  0  0  0  0  0  0  0  0
    1.1758    1.0176    1.9458 H   0  0  0  0  0  0  0  0  0  0  0  0
    2.2782    0.5625    0.6299 H   0  0  0  0  0  0  0  0  0  0  0  0
    0.9373    1.6790    0.3117 H   0  0  0  0  0  0  0  0  0  0  0  0
    0.6857   -2.9228    0.5594 N   0  0  0  0  0  0  0  0  0  0  0  0
    1.1068   -4.2173    1.1080 C   0  0  2  0  0  0  0  0  0  0  0  0
    1.2124   -5.2999    0.0124 C   0  0  0  0  0  0  0  0  0  0  0  0
    0.7029   -5.1274   -1.0898 O   0  0  0  0  0  0  0  0  0  0  0  0
    0.0968   -4.6473    2.1791 C   0  0  0  0  0  0  0  0  0  0  0  0
    0.0245   -2.9479   -0.2157 H   0  0  0  0  0  0  0  0  0  0  0  0
    2.0964   -4.1120    1.5645 H   0  0  0  0  0  0  0  0  0  0  0  0
   -0.9033   -4.7420    1.7437 H   0  0  0  0  0  0  0  0  0  0  0  0
    0.3816   -5.6093    2.6148 H   0  0  0  0  0  0  0  0  0  0  0  0
    0.0539   -3.9060    2.9831 H   0  0  0  0  0  0  0  0  0  0  0  0
    1.8872   -6.4812    0.2628 N   0  0  0  0  0  0  0  0  0  0  0  0
    2.0279   -7.5479   -0.7212 C   0  0  0  0  0  0  0  0  0  0  0  0
    2.3036   -6.5987    1.1818 H   0  0  0  0  0  0  0  0  0  0  0  0
    1.0442   -7.9272   -1.0180 H   0  0  0  0  0  0  0  0  0  0  0  0
    2.5483   -7.1817   -1.6125 H   0  0  0  0  0  0  0  0  0  0  0  0
    2.6061   -8.3767   -0.3015 H   0  0  0  0  0  0  0  0  0  0  0  0
  1  2  2  0  0  0  0
  1  3  1  0  0  0  0
  1  7  1  0  0  0  0
  3  4  1  0  0  0  0
  3  5  1  0  0  0  0
  3  6  1  0  0  0  0
  7  8  1  0  0  0  0
  7 12  1  0  0  0  0
  8  9  1  0  0  0  0
  8 11  1  0  0  0  0
  8 13  1  0  0  0  0
  9 10  2  0  0  0  0
  9 17  1  0  0  0  0
 11 14  1  0  0  0  0
 11 15  1  0  0  0  0
 11 16  1  0  0  0  0
 17 18  1  0  0  0  0
 17 22  1  0  0  0  0
 18 19  1  0  0  0  0
 18 21  1  0  0  0  0
 18 23  1  0  0  0  0
 19 20  2  0  0  0  0
 19 27  1  0  0  0  0
 21 24  1  0  0  0  0
 21 25  1  0  0  0  0
 21 26  1  0  0  0  0
 27 28  1  0  0  0  0
 27 32  1  0  0  0  0
 28 29  1  0  0  0  0
 28 31  1  0  0  0  0
 28 33  1  0  0  0  0
 29 30  2  0  0  0  0
 29 37  1  0  0  0  0
 31 34  1  0  0  0  0
 31 35  1  0  0  0  0
 31 36  1  0  0  0  0
 37 38  1  0  0  0  0
 37 39  1  0  0  0  0
 38 40  1  0  0  0  0
 38 41  1  0  0  0  0
 38 42  1  0  0  0  0
M  END
$$$$

  -OEChem-05262215353D

 42 41  0     1  0  0  0  0  0999 V2000
   -5.6943   -0.6894    1.9674 C   0  0  0  0  0  0  0  0  0  0  0  0
   -6.0083    0.4865    1.8706 O   0  0  0  0  0  0  0  0  0  0  0  0
   -6.7585   -1.7690    1.9054 C   0  0  0  0  0  0  0  0  0  0  0  0
   -6.8005   -2.3048    2.8566 H   0  0  0  0  0  0  0  0  0  0  0  0
   -7.7376   -1.3239    1.7068 H   0  0  0  0  0  0  0  0  0  0  0  0
   -6.5264   -2.4770    1.1060 H   0  0  0  0  0  0  0  0  0  0  0  0
   -4.3702   -1.0418    2.1185 N   0  0  0  0  0  0  0  0  0  0  0  0
   -3.2461   -0.1054    1.9916 C   0  0  2  0  0  0  0  0  0  0  0  0
   -2.0397   -0.7562    1.2836 C   0  0  0  0  0  0  0  0  0  0  0  0
   -2.0023   -1.9735    1.1436 O   0  0  0  0  0  0  0  0  0  0  0  0
   -2.8499    0.3649    3.3936 C   0  0  0  0  0  0  0  0  0  0  0  0
   -4.1441   -2.0336    2.0510 H   0  0  0  0  0  0  0  0  0  0  0  0
   -3.5482    0.7604    1.3928 H   0  0  0  0  0  0  0  0  0  0  0  0
   -2.5247   -0.4835    4.0045 H   0  0  0  0  0  0  0  0  0  0  0  0
   -2.0306    1.0880    3.3401 H   0  0  0  0  0  0  0  0  0  0  0  0
   -3.7016    0.8440    3.8867 H   0  0  0  0  0  0  0  0  0  0  0  0
   -1.0586    0.0427    0.7177 N   0  0  0  0  0  0  0  0  0  0  0  0
    0.3356   -0.3710    0.4610 C   0  0  2  0  0  0  0  0  0  0  0  0
    0.8310   -1.6580    1.1730 C   0  0  0  0  0  0  0  0  0  0  0  0
    1.2033   -1.6154    2.3411 O   0  0  0  0  0  0  0  0  0  0  0  0
    1.2298    0.8215    0.8236 C   0  0  0  0  0  0  0  0  0  0  0  0
   -1.2010    1.0372    0.8660 H   0  0  0  0  0  0  0  0  0  0  0  0
    0.4366   -0.5556   -0.6130 H   0  0  0  0  0  0  0  0  0  0  0  0
    1.1382    1.0628    1.8881 H   0  0  0  0  0  0  0  0  0  0  0  0
    2.2781    0.5867    0.6118 H   0  0  0  0  0  0  0  0  0  0  0  0
    0.9500    1.7033    0.2390 H   0  0  0  0  0  0  0  0  0  0  0  0
    0.9779   -2.8354    0.4658 N   0  0  0  0  0  0  0  0  0  0  0  0
    1.4157   -4.1106    1.0437 C   0  0  2  0  0  0  0  0  0  0  0  0
    1.9246   -5.0827   -0.0417 C   0  0  0  0  0  0  0  0  0  0  0  0
    1.6896   -4.8717   -1.2271 O   0  0  0  0  0  0  0  0  0  0  0  0
    0.2389   -4.7334    1.8045 C   0  0  0  0  0  0  0  0  0  0  0  0
    0.6065   -2.8641   -0.4821 H   0  0  0  0  0  0  0  0  0  0  0  0
    2.2417   -3.9289    1.7394 H   0  0  0  0  0  0  0  0  0  0  0  0
   -0.6015   -4.9136    1.1264 H   0  0  0  0  0  0  0  0  0  0  0  0
    0.5331   -5.6842    2.2584 H   0  0  0  0  0  0  0  0  0  0  0  0
   -0.0984   -4.0627    2.6010 H   0  0  0  0  0  0  0  0  0  0  0  0
    2.6564   -6.2019    0.3111 N   0  0  0  0  0  0  0  0  0  0  0  0
    3.1593   -7.1681   -0.6578 C   0  0  0  0  0  0  0  0  0  0  0  0
    2.8379   -6.3526    1.2991 H   0  0  0  0  0  0  0  0  0  0  0  0
    2.3291   -7.6423   -1.1918 H   0  0  0  0  0  0  0  0  0  0  0  0
    3.8119   -6.6760   -1.3865 H   0  0  0  0  0  0  0  0  0  0  0  0
    3.7349   -7.9480   -0.1506 H   0  0  0  0  0  0  0  0  0  0  0  0
  1  2  2  0  0  0  0
  1  3  1  0  0  0  0
  1  7  1  0  0  0  0
  3  4  1  0  0  0  0
  3  5  1  0  0  0  0
  3  6  1  0  0  0  0
  7  8  1  0  0  0  0
  7 12  1  0  0  0  0
  8  9  1  0  0  0  0
  8 11  1  0  0  0  0
  8 13  1  0  0  0  0
  9 10  2  0  0  0  0
  9 17  1  0  0  0  0
 11 14  1  0  0  0  0
 11 15  1  0  0  0  0
 11 16  1  0  0  0  0
 17 18  1  0  0  0  0
 17 22  1  0  0  0  0
 18 19  1  0  0  0  0
 18 21  1  0  0  0  0
 18 23  1  0  0  0  0
 19 20  2  0  0  0  0
 19 27  1  0  0  0  0
 21 24  1  0  0  0  0
 21 25  1  0  0  0  0
 21 26  1  0  0  0  0
 27 28  1  0  0  0  0
 27 32  1  0  0  0  0
 28 29  1  0  0  0  0
 28 31  1  0  0  0  0
 28 33  1  0  0  0  0
 29 30  2  0  0  0  0
 29 37  1  0  0  0  0
 31 34  1  0  0  0  0
 31 35  1  0  0  0  0
 31 36  1  0  0  0  0
 37 38  1  0  0  0  0
 37 39  1  0  0  0  0
 38 40  1  0  0  0  0
 38 41  1  0  0  0  0
 38 42  1  0  0  0  0
M  END
$$$$

  -OEChem-05262215353D

 42 41  0     1  0  0  0  0  0999 V2000
   -5.6801   -0.7025    2.0118 C   0  0  0  0  0  0  0  0  0  0  0  0
   -5.9748    0.4825    2.0133 O   0  0  0  0  0  0  0  0  0  0  0  0
   -6.7671   -1.7577    1.9381 C   0  0  0  0  0  0  0  0  0  0  0  0
   -6.7456   -2.3786    2.8367 H   0  0  0  0  0  0  0  0  0  0  0  0
   -7.7492   -1.2836    1.8602 H   0  0  0  0  0  0  0  0  0  0  0  0
   -6.6118   -2.3913    1.0619 H   0  0  0  0  0  0  0  0  0  0  0  0
   -4.3572   -1.0863    2.0607 N   0  0  0  0  0  0  0  0  0  0  0  0
   -3.2216   -0.1608    1.9625 C   0  0  2  0  0  0  0  0  0  0  0  0
   -2.0419   -0.7836    1.1874 C   0  0  0  0  0  0  0  0  0  0  0  0
   -2.0115   -1.9937    0.9888 O   0  0  0  0  0  0  0  0  0  0  0  0
   -2.7838    0.2143    3.3805 C   0  0  0  0  0  0  0  0  0  0  0  0
   -4.1514   -2.0759    1.9278 H   0  0  0  0  0  0  0  0  0  0  0  0
   -3.5253    0.7446    1.4264 H   0  0  0  0  0  0  0  0  0  0  0  0
   -2.4680   -0.6782    3.9307 H   0  0  0  0  0  0  0  0  0  0  0  0
   -1.9468    0.9184    3.3520 H   0  0  0  0  0  0  0  0  0  0  0  0
   -3.6121    0.6833    3.9211 H   0  0  0  0  0  0  0  0  0  0  0  0
   -1.0798    0.0332    0.6145 N   0  0  0  0  0  0  0  0  0  0  0  0
    0.3236   -0.3665    0.3907 C   0  0  2  0  0  0  0  0  0  0  0  0
    0.8207   -1.6270    1.1458 C   0  0  0  0  0  0  0  0  0  0  0  0
    0.9382   -1.6028    2.3670 O   0  0  0  0  0  0  0  0  0  0  0  0
    1.2023    0.8388    0.7430 C   0  0  0  0  0  0  0  0  0  0  0  0
   -1.2252    1.0211    0.7990 H   0  0  0  0  0  0  0  0  0  0  0  0
    0.4403   -0.5759   -0.6770 H   0  0  0  0  0  0  0  0  0  0  0  0
    1.0980    1.0949    1.8026 H   0  0  0  0  0  0  0  0  0  0  0  0
    2.2545    0.6113    0.5446 H   0  0  0  0  0  0  0  0  0  0  0  0
    0.9193    1.7087    0.1424 H   0  0  0  0  0  0  0  0  0  0  0  0
    1.2875   -2.7246    0.4487 N   0  0  0  0  0  0  0  0  0  0  0  0
    1.7769   -3.9632    1.0650 C   0  0  2  0  0  0  0  0  0  0  0  0
    2.6334   -4.7895    0.0817 C   0  0  0  0  0  0  0  0  0  0  0  0
    2.6410   -4.5179   -1.1145 O   0  0  0  0  0  0  0  0  0  0  0  0
    0.5689   -4.7824    1.5356 C   0  0  0  0  0  0  0  0  0  0  0  0
    1.1892   -2.7219   -0.5651 H   0  0  0  0  0  0  0  0  0  0  0  0
    2.4063   -3.7165    1.9264 H   0  0  0  0  0  0  0  0  0  0  0  0
   -0.0796   -5.0262    0.6878 H   0  0  0  0  0  0  0  0  0  0  0  0
    0.8943   -5.7142    2.0072 H   0  0  0  0  0  0  0  0  0  0  0  0
   -0.0170   -4.2150    2.2660 H   0  0  0  0  0  0  0  0  0  0  0  0
    3.4070   -5.8411    0.5391 N   0  0  0  0  0  0  0  0  0  0  0  0
    4.2398   -6.6623   -0.3319 C   0  0  0  0  0  0  0  0  0  0  0  0
    3.3869   -6.0416    1.5348 H   0  0  0  0  0  0  0  0  0  0  0  0
    3.6266   -7.1628   -1.0889 H   0  0  0  0  0  0  0  0  0  0  0  0
    4.9903   -6.0458   -0.8379 H   0  0  0  0  0  0  0  0  0  0  0  0
    4.7595   -7.4278    0.2526 H   0  0  0  0  0  0  0  0  0  0  0  0
  1  2  2  0  0  0  0
  1  3  1  0  0  0  0
  1  7  1  0  0  0  0
  3  4  1  0  0  0  0
  3  5  1  0  0  0  0
  3  6  1  0  0  0  0
  7  8  1  0  0  0  0
  7 12  1  0  0  0  0
  8  9  1  0  0  0  0
  8 11  1  0  0  0  0
  8 13  1  0  0  0  0
  9 10  2  0  0  0  0
  9 17  1  0  0  0  0
 11 14  1  0  0  0  0
 11 15  1  0  0  0  0
 11 16  1  0  0  0  0
 17 18  1  0  0  0  0
 17 22  1  0  0  0  0
 18 19  1  0  0  0  0
 18 21  1  0  0  0  0
 18 23  1  0  0  0  0
 19 20  2  0  0  0  0
 19 27  1  0  0  0  0
 21 24  1  0  0  0  0
 21 25  1  0  0  0  0
 21 26  1  0  0  0  0
 27 28  1  0  0  0  0
 27 32  1  0  0  0  0
 28 29  1  0  0  0  0
 28 31  1  0  0  0  0
 28 33  1  0  0  0  0
 29 30  2  0  0  0  0
 29 37  1  0  0  0  0
 31 34  1  0  0  0  0
 31 35  1  0  0  0  0
 31 36  1  0  0  0  0
 37 38  1  0  0  0  0
 37 39  1  0  0  0  0
 38 40  1  0  0  0  0
 38 41  1  0  0  0  0
 38 42  1  0  0  0  0
M  END
$$$$

  -OEChem-05262215353D

 42 41  0     1  0  0  0  0  0999 V2000
   -5.6808   -0.6737    1.9906 C   0  0  0  0  0  0  0  0  0  0  0  0
   -5.9586    0.5152    1.9668 O   0  0  0  0  0  0  0  0  0  0  0  0
   -6.7843   -1.7129    1.9300 C   0  0  0  0  0  0  0  0  0  0  0  0
   -6.7778   -2.3170    2.8406 H   0  0  0  0  0  0  0  0  0  0  0  0
   -7.7580   -1.2237    1.8383 H   0  0  0  0  0  0  0  0  0  0  0  0
   -6.6354   -2.3653    1.0662 H   0  0  0  0  0  0  0  0  0  0  0  0
   -4.3644   -1.0768    2.0615 N   0  0  0  0  0  0  0  0  0  0  0  0
   -3.2144   -0.1717    1.9447 C   0  0  2  0  0  0  0  0  0  0  0  0
   -2.0744   -0.8004    1.1178 C   0  0  0  0  0  0  0  0  0  0  0  0
   -2.0811   -2.0029    0.8737 O   0  0  0  0  0  0  0  0  0  0  0  0
   -2.7218    0.1628    3.3551 C   0  0  0  0  0  0  0  0  0  0  0  0
   -4.1743   -2.0700    1.9322 H   0  0  0  0  0  0  0  0  0  0  0  0
   -3.5149    0.7517    1.4387 H   0  0  0  0  0  0  0  0  0  0  0  0
   -2.3981   -0.7463    3.8729 H   0  0  0  0  0  0  0  0  0  0  0  0
   -1.8768    0.8566    3.3137 H   0  0  0  0  0  0  0  0  0  0  0  0
   -3.5241    0.6290    3.9357 H   0  0  0  0  0  0  0  0  0  0  0  0
   -1.1038    0.0060    0.5460 N   0  0  0  0  0  0  0  0  0  0  0  0
    0.2978   -0.4156    0.3556 C   0  0  2  0  0  0  0  0  0  0  0  0
    0.7704   -1.6667    1.1410 C   0  0  0  0  0  0  0  0  0  0  0  0
    0.6835   -1.6882    2.3652 O   0  0  0  0  0  0  0  0  0  0  0  0
    1.1840    0.7806    0.7166 C   0  0  0  0  0  0  0  0  0  0  0  0
   -1.2306    0.9915    0.7536 H   0  0  0  0  0  0  0  0  0  0  0  0
    0.4312   -0.6421   -0.7067 H   0  0  0  0  0  0  0  0  0  0  0  0
    1.0649    1.0407    1.7737 H   0  0  0  0  0  0  0  0  0  0  0  0
    2.2369    0.5413    0.5363 H   0  0  0  0  0  0  0  0  0  0  0  0
    0.9200    1.6514    0.1087 H   0  0  0  0  0  0  0  0  0  0  0  0
    1.5138   -2.6469    0.5119 N   0  0  0  0  0  0  0  0  0  0  0  0
    2.1093   -3.8105    1.1793 C   0  0  2  0  0  0  0  0  0  0  0  0
    3.2626   -4.4107    0.3473 C   0  0  0  0  0  0  0  0  0  0  0  0
    3.4613   -4.0283   -0.8014 O   0  0  0  0  0  0  0  0  0  0  0  0
    1.0105   -4.8549    1.4102 C   0  0  0  0  0  0  0  0  0  0  0  0
    1.6618   -2.5661   -0.4929 H   0  0  0  0  0  0  0  0  0  0  0  0
    2.5256   -3.5039    2.1445 H   0  0  0  0  0  0  0  0  0  0  0  0
    0.5854   -5.1800    0.4554 H   0  0  0  0  0  0  0  0  0  0  0  0
    1.4127   -5.7291    1.9302 H   0  0  0  0  0  0  0  0  0  0  0  0
    0.2058   -4.4330    2.0212 H   0  0  0  0  0  0  0  0  0  0  0  0
    4.0924   -5.3745    0.8908 N   0  0  0  0  0  0  0  0  0  0  0  0
    5.1990   -5.9829    0.1616 C   0  0  0  0  0  0  0  0  0  0  0  0
    3.9096   -5.6686    1.8460 H   0  0  0  0  0  0  0  0  0  0  0  0
    4.8360   -6.4719   -0.7486 H   0  0  0  0  0  0  0  0  0  0  0  0
    5.9381   -5.2246   -0.1176 H   0  0  0  0  0  0  0  0  0  0  0  0
    5.6938   -6.7355    0.7829 H   0  0  0  0  0  0  0  0  0  0  0  0
  1  2  2  0  0  0  0
  1  3  1  0  0  0  0
  1  7  1  0  0  0  0
  3  4  1  0  0  0  0
  3  5  1  0  0  0  0
  3  6  1  0  0  0  0
  7  8  1  0  0  0  0
  7 12  1  0  0  0  0
  8  9  1  0  0  0  0
  8 11  1  0  0  0  0
  8 13  1  0  0  0  0
  9 10  2  0  0  0  0
  9 17  1  0  0  0  0
 11 14  1  0  0  0  0
 11 15  1  0  0  0  0
 11 16  1  0  0  0  0
 17 18  1  0  0  0  0
 17 22  1  0  0  0  0
 18 19  1  0  0  0  0
 18 21  1  0  0  0  0
 18 23  1  0  0  0  0
 19 20  2  0  0  0  0
 19 27  1  0  0  0  0
 21 24  1  0  0  0  0
 21 25  1  0  0  0  0
 21 26  1  0  0  0  0
 27 28  1  0  0  0  0
 27 32  1  0  0  0  0
 28 29  1  0  0  0  0
 28 31  1  0  0  0  0
 28 33  1  0  0  0  0
 29 30  2  0  0  0  0
 29 37  1  0  0  0  0
 31 34  1  0  0  0  0
 31 35  1  0  0  0  0
 31 36  1  0  0  0  0
 37 38  1  0  0  0  0
 37 39  1  0  0  0  0
 38 40  1  0  0  0  0
 38 41  1  0  0  0  0
 38 42  1  0  0  0  0
M  END
$$$$

  -OEChem-05262215353D

 42 41  0     1  0  0  0  0  0999 V2000
   -5.6836   -0.6343    2.0086 C   0  0  0  0  0  0  0  0  0  0  0  0
   -5.9394    0.5588    2.0624 O   0  0  0  0  0  0  0  0  0  0  0  0
   -6.8066   -1.6515    1.9339 C   0  0  0  0  0  0  0  0  0  0  0  0
   -6.7844   -2.2951    2.8167 H   0  0  0  0  0  0  0  0  0  0  0  0
   -7.7742   -1.1437    1.8909 H   0  0  0  0  0  0  0  0  0  0  0  0
   -6.6926   -2.2679    1.0387 H   0  0  0  0  0  0  0  0  0  0  0  0
   -4.3736   -1.0624    2.0040 N   0  0  0  0  0  0  0  0  0  0  0  0
   -3.2116   -0.1731    1.8882 C   0  0  2  0  0  0  0  0  0  0  0  0
   -2.0960   -0.8052    1.0308 C   0  0  0  0  0  0  0  0  0  0  0  0
   -2.1536   -1.9899    0.7156 O   0  0  0  0  0  0  0  0  0  0  0  0
   -2.6907    0.1239    3.2970 C   0  0  0  0  0  0  0  0  0  0  0  0
   -4.2062   -2.0512    1.8189 H   0  0  0  0  0  0  0  0  0  0  0  0
   -3.5057    0.7646    1.4053 H   0  0  0  0  0  0  0  0  0  0  0  0
   -2.3724   -0.8012    3.7889 H   0  0  0  0  0  0  0  0  0  0  0  0
   -1.8360    0.8055    3.2568 H   0  0  0  0  0  0  0  0  0  0  0  0
   -3.4758    0.5890    3.9014 H   0  0  0  0  0  0  0  0  0  0  0  0
   -1.0908   -0.0170    0.4955 N   0  0  0  0  0  0  0  0  0  0  0  0
    0.3039   -0.4797    0.3520 C   0  0  2  0  0  0  0  0  0  0  0  0
    0.7275   -1.7461    1.1422 C   0  0  0  0  0  0  0  0  0  0  0  0
    0.4523   -1.8485    2.3341 O   0  0  0  0  0  0  0  0  0  0  0  0
    1.2066    0.6909    0.7545 C   0  0  0  0  0  0  0  0  0  0  0  0
   -1.1894    0.9643    0.7350 H   0  0  0  0  0  0  0  0  0  0  0  0
    0.4663   -0.7043   -0.7065 H   0  0  0  0  0  0  0  0  0  0  0  0
    1.0640    0.9384    1.8118 H   0  0  0  0  0  0  0  0  0  0  0  0
    2.2592    0.4327    0.5996 H   0  0  0  0  0  0  0  0  0  0  0  0
    0.9784    1.5757    0.1523 H   0  0  0  0  0  0  0  0  0  0  0  0
    1.7103   -2.5713    0.6295 N   0  0  0  0  0  0  0  0  0  0  0  0
    2.3839   -3.6450    1.3691 C   0  0  2  0  0  0  0  0  0  0  0  0
    3.7574   -3.9768    0.7475 C   0  0  0  0  0  0  0  0  0  0  0  0
    4.0845   -3.4827   -0.3269 O   0  0  0  0  0  0  0  0  0  0  0  0
    1.4757   -4.8799    1.3687 C   0  0  0  0  0  0  0  0  0  0  0  0
    2.0521   -2.3793   -0.3111 H   0  0  0  0  0  0  0  0  0  0  0  0
    2.5587   -3.3248    2.4016 H   0  0  0  0  0  0  0  0  0  0  0  0
    1.2950   -5.2219    0.3448 H   0  0  0  0  0  0  0  0  0  0  0  0
    1.9333   -5.6965    1.9344 H   0  0  0  0  0  0  0  0  0  0  0  0
    0.5118   -4.6421    1.8300 H   0  0  0  0  0  0  0  0  0  0  0  0
    4.6378   -4.8216    1.3982 N   0  0  0  0  0  0  0  0  0  0  0  0
    5.9427   -5.1867    0.8600 C   0  0  0  0  0  0  0  0  0  0  0  0
    4.3410   -5.2187    2.2848 H   0  0  0  0  0  0  0  0  0  0  0  0
    5.8315   -5.6794   -0.1117 H   0  0  0  0  0  0  0  0  0  0  0  0
    6.5685   -4.2968    0.7349 H   0  0  0  0  0  0  0  0  0  0  0  0
    6.4538   -5.8755    1.5396 H   0  0  0  0  0  0  0  0  0  0  0  0
  1  2  2  0  0  0  0
  1  3  1  0  0  0  0
  1  7  1  0  0  0  0
  3  4  1  0  0  0  0
  3  5  1  0  0  0  0
  3  6  1  0  0  0  0
  7  8  1  0  0  0  0
  7 12  1  0  0  0  0
  8  9  1  0  0  0  0
  8 11  1  0  0  0  0
  8 13  1  0  0  0  0
  9 10  2  0  0  0  0
  9 17  1  0  0  0  0
 11 14  1  0  0  0  0
 11 15  1  0  0  0  0
 11 16  1  0  0  0  0
 17 18  1  0  0  0  0
 17 22  1  0  0  0  0
 18 19  1  0  0  0  0
 18 21  1  0  0  0  0
 18 23  1  0  0  0  0
 19 20  2  0  0  0  0
 19 27  1  0  0  0  0
 21 24  1  0  0  0  0
 21 25  1  0  0  0  0
 21 26  1  0  0  0  0
 27 28  1  0  0  0  0
 27 32  1  0  0  0  0
 28 29  1  0  0  0  0
 28 31  1  0  0  0  0
 28 33  1  0  0  0  0
 29 30  2  0  0  0  0
 29 37  1  0  0  0  0
 31 34  1  0  0  0  0
 31 35  1  0  0  0  0
 31 36  1  0  0  0  0
 37 38  1  0  0  0  0
 37 39  1  0  0  0  0
 38 40  1  0  0  0  0
 38 41  1  0  0  0  0
 38 42  1  0  0  0  0
M  END
$$$$

  -OEChem-05262215353D

 42 41  0     1  0  0  0  0  0999 V2000
   -5.6749   -0.5989    2.0193 C   0  0  0  0  0  0  0  0  0  0  0  0
   -5.8966    0.5957    2.1431 O   0  0  0  0  0  0  0  0  0  0  0  0
   -6.8278   -1.5810    1.9325 C   0  0  0  0  0  0  0  0  0  0  0  0
   -6.7814   -2.2856    2.7661 H   0  0  0  0  0  0  0  0  0  0  0  0
   -7.7812   -1.0471    1.9746 H   0  0  0  0  0  0  0  0  0  0  0  0
   -6.7760   -2.1355    0.9925 H   0  0  0  0  0  0  0  0  0  0  0  0
   -4.3771   -1.0575    1.9500 N   0  0  0  0  0  0  0  0  0  0  0  0
   -3.1964   -0.1905    1.8566 C   0  0  2  0  0  0  0  0  0  0  0  0
   -2.0980   -0.8176    0.9733 C   0  0  0  0  0  0  0  0  0  0  0  0
   -2.2009   -1.9767    0.5837 O   0  0  0  0  0  0  0  0  0  0  0  0
   -2.6642    0.0520    3.2718 C   0  0  0  0  0  0  0  0  0  0  0  0
   -4.2382   -2.0389    1.7103 H   0  0  0  0  0  0  0  0  0  0  0  0
   -3.4740    0.7671    1.4039 H   0  0  0  0  0  0  0  0  0  0  0  0
   -2.3684   -0.8951    3.7353 H   0  0  0  0  0  0  0  0  0  0  0  0
   -1.7927    0.7128    3.2484 H   0  0  0  0  0  0  0  0  0  0  0  0
   -3.4358    0.5191    3.8921 H   0  0  0  0  0  0  0  0  0  0  0  0
   -1.0676   -0.0413    0.4706 N   0  0  0  0  0  0  0  0  0  0  0  0
    0.3207   -0.5311    0.3479 C   0  0  2  0  0  0  0  0  0  0  0  0
    0.7275   -1.8177    1.1198 C   0  0  0  0  0  0  0  0  0  0  0  0
    0.2841   -2.0382    2.2428 O   0  0  0  0  0  0  0  0  0  0  0  0
    1.2252    0.6248    0.7886 C   0  0  0  0  0  0  0  0  0  0  0  0
   -1.1456    0.9330    0.7435 H   0  0  0  0  0  0  0  0  0  0  0  0
    0.4984   -0.7399   -0.7117 H   0  0  0  0  0  0  0  0  0  0  0  0
    1.0717    0.8459    1.8501 H   0  0  0  0  0  0  0  0  0  0  0  0
    2.2785    0.3673    0.6386 H   0  0  0  0  0  0  0  0  0  0  0  0
    1.0077    1.5257    0.2067 H   0  0  0  0  0  0  0  0  0  0  0  0
    1.9016   -2.4619    0.7734 N   0  0  0  0  0  0  0  0  0  0  0  0
    2.5962   -3.4606    1.5965 C   0  0  2  0  0  0  0  0  0  0  0  0
    4.1002   -3.5206    1.2542 C   0  0  0  0  0  0  0  0  0  0  0  0
    4.5411   -2.8895    0.2987 O   0  0  0  0  0  0  0  0  0  0  0  0
    1.9317   -4.8237    1.3729 C   0  0  0  0  0  0  0  0  0  0  0  0
    2.3963   -2.1328   -0.0547 H   0  0  0  0  0  0  0  0  0  0  0  0
    2.5140   -3.1882    2.6541 H   0  0  0  0  0  0  0  0  0  0  0  0
    2.0092   -5.1201    0.3220 H   0  0  0  0  0  0  0  0  0  0  0  0
    2.4089   -5.5916    1.9886 H   0  0  0  0  0  0  0  0  0  0  0  0
    0.8719   -4.7777    1.6437 H   0  0  0  0  0  0  0  0  0  0  0  0
    4.9680   -4.2661    2.0309 N   0  0  0  0  0  0  0  0  0  0  0  0
    6.3988   -4.3638    1.7679 C   0  0  0  0  0  0  0  0  0  0  0  0
    4.5760   -4.7734    2.8190 H   0  0  0  0  0  0  0  0  0  0  0  0
    6.5786   -4.7773    0.7698 H   0  0  0  0  0  0  0  0  0  0  0  0
    6.8686   -3.3765    1.8301 H   0  0  0  0  0  0  0  0  0  0  0  0
    6.8745   -5.0197    2.5036 H   0  0  0  0  0  0  0  0  0  0  0  0
  1  2  2  0  0  0  0
  1  3  1  0  0  0  0
  1  7  1  0  0  0  0
  3  4  1  0  0  0  0
  3  5  1  0  0  0  0
  3  6  1  0  0  0  0
  7  8  1  0  0  0  0
  7 12  1  0  0  0  0
  8  9  1  0  0  0  0
  8 11  1  0  0  0  0
  8 13  1  0  0  0  0
  9 10  2  0  0  0  0
  9 17  1  0  0  0  0
 11 14  1  0  0  0  0
 11 15  1  0  0  0  0
 11 16  1  0  0  0  0
 17 18  1  0  0  0  0
 17 22  1  0  0  0  0
 18 19  1  0  0  0  0
 18 21  1  0  0  0  0
 18 23  1  0  0  0  0
 19 20  2  0  0  0  0
 19 27  1  0  0  0  0
 21 24  1  0  0  0  0
 21 25  1  0  0  0  0
 21 26  1  0  0  0  0
 27 28  1  0  0  0  0
 27 32  1  0  0  0  0
 28 29  1  0  0  0  0
 28 31  1  0  0  0  0
 28 33  1  0  0  0  0
 29 30  2  0  0  0  0
 29 37  1  0  0  0  0
 31 34  1  0  0  0  0
 31 35  1  0  0  0  0
 31 36  1  0  0  0  0
 37 38  1  0  0  0  0
 37 39  1  0  0  0  0
 38 40  1  0  0  0  0
 38 41  1  0  0  0  0
 38 42  1  0  0  0  0
M  END
$$$$

  -OEChem-05262215353D

 42 41  0     1  0  0  0  0  0999 V2000
   -5.2320   -1.4489    1.7764 C   0  0  0  0  0  0  0  0  0  0  0  0
   -5.6769   -0.9028    0.7783 O   0  0  0  0  0  0  0  0  0  0  0  0
   -5.9315   -2.6637    2.3568 C   0  0  0  0  0  0  0  0  0  0  0  0
   -6.1869   -2.4828    3.4037 H   0  0  0  0  0  0  0  0  0  0  0  0
   -6.8500   -2.8712    1.8009 H   0  0  0  0  0  0  0  0  0  0  0  0
   -5.2762   -3.5361    2.2945 H   0  0  0  0  0  0  0  0  0  0  0  0
   -4.0911   -0.9647    2.3783 N   0  0  0  0  0  0  0  0  0  0  0  0
   -3.2314    0.0778    1.8078 C   0  0  2  0  0  0  0  0  0  0  0  0
   -1.7529   -0.1861    2.1564 C   0  0  0  0  0  0  0  0  0  0  0  0
   -1.4715   -0.7795    3.1912 O   0  0  0  0  0  0  0  0  0  0  0  0
   -3.6906    1.4328    2.3539 C   0  0  0  0  0  0  0  0  0  0  0  0
   -3.6852   -1.5230    3.1297 H   0  0  0  0  0  0  0  0  0  0  0  0
   -3.3178    0.0759    0.7160 H   0  0  0  0  0  0  0  0  0  0  0  0
   -3.6133    1.4498    3.4458 H   0  0  0  0  0  0  0  0  0  0  0  0
   -3.0753    2.2412    1.9486 H   0  0  0  0  0  0  0  0  0  0  0  0
   -4.7327    1.6187    2.0751 H   0  0  0  0  0  0  0  0  0  0  0  0
   -0.7353    0.4341    1.4527 N   0  0  0  0  0  0  0  0  0  0  0  0
    0.4955   -0.2436    0.9818 C   0  0  2  0  0  0  0  0  0  0  0  0
    0.7397   -1.7613    1.2435 C   0  0  0  0  0  0  0  0  0  0  0  0
   -0.1838   -2.5529    1.3836 O   0  0  0  0  0  0  0  0  0  0  0  0
    1.6440    0.5663    1.5993 C   0  0  0  0  0  0  0  0  0  0  0  0
   -1.0977    1.1157    0.7937 H   0  0  0  0  0  0  0  0  0  0  0  0
    0.5320   -0.1326   -0.1062 H   0  0  0  0  0  0  0  0  0  0  0  0
    1.6631    0.4233    2.6851 H   0  0  0  0  0  0  0  0  0  0  0  0
    2.6107    0.2583    1.1897 H   0  0  0  0  0  0  0  0  0  0  0  0
    1.5159    1.6337    1.3932 H   0  0  0  0  0  0  0  0  0  0  0  0
    1.9182   -2.3188    0.7771 N   0  0  0  0  0  0  0  0  0  0  0  0
    2.2711   -3.7394    0.9092 C   0  0  2  0  0  0  0  0  0  0  0  0
    3.7464   -3.9082    1.3271 C   0  0  0  0  0  0  0  0  0  0  0  0
    4.5201   -2.9594    1.2413 O   0  0  0  0  0  0  0  0  0  0  0  0
    2.0087   -4.4260   -0.4331 C   0  0  0  0  0  0  0  0  0  0  0  0
    2.7082   -1.6826    0.6789 H   0  0  0  0  0  0  0  0  0  0  0  0
    1.6562   -4.2112    1.6834 H   0  0  0  0  0  0  0  0  0  0  0  0
    2.6369   -3.9888   -1.2157 H   0  0  0  0  0  0  0  0  0  0  0  0
    2.2265   -5.4961   -0.3671 H   0  0  0  0  0  0  0  0  0  0  0  0
    0.9592   -4.3043   -0.7188 H   0  0  0  0  0  0  0  0  0  0  0  0
    4.2074   -5.1215    1.8037 N   0  0  0  0  0  0  0  0  0  0  0  0
    5.5803   -5.3390    2.2434 C   0  0  0  0  0  0  0  0  0  0  0  0
    3.5321   -5.8739    1.9065 H   0  0  0  0  0  0  0  0  0  0  0  0
    6.2839   -5.1049    1.4372 H   0  0  0  0  0  0  0  0  0  0  0  0
    5.8097   -4.7059    3.1071 H   0  0  0  0  0  0  0  0  0  0  0  0
    5.7241   -6.3848    2.5319 H   0  0  0  0  0  0  0  0  0  0  0  0
  1  2  2  0  0  0  0
  1  3  1  0  0  0  0
  1  7  1  0  0  0  0
  3  4  1  0  0  0  0
  3  5  1  0  0  0  0
  3  6  1  0  0  0  0
  7  8  1  0  0  0  0
  7 12  1  0  0  0  0
  8  9  1  0  0  0  0
  8 11  1  0  0  0  0
  8 13  1  0  0  0  0
  9 10  2  0  0  0  0
  9 17  1  0  0  0  0
 11 14  1  0  0  0  0
 11 15  1  0  0  0  0
 11 16  1  0  0  0  0
 17 18  1  0  0  0  0
 17 22  1  0  0  0  0
 18 19  1  0  0  0  0
 18 21  1  0  0  0  0
 18 23  1  0  0  0  0
 19 20  2  0  0  0  0
 19 27  1  0  0  0  0
 21 24  1  0  0  0  0
 21 25  1  0  0  0  0
 21 26  1  0  0  0  0
 27 28  1  0  0  0  0
 27 32  1  0  0  0  0
 28 29  1  0  0  0  0
 28 31  1  0  0  0  0
 28 33  1  0  0  0  0
 29 30  2  0  0  0  0
 29 37  1  0  0  0  0
 31 34  1  0  0  0  0
 31 35  1  0  0  0  0
 31 36  1  0  0  0  0
 37 38  1  0  0  0  0
 37 39  1  0  0  0  0
 38 40  1  0  0  0  0
 38 41  1  0  0  0  0
 38 42  1  0  0  0  0
M  END
$$$$

  -OEChem-05262215353D

 42 41  0     1  0  0  0  0  0999 V2000
   -5.2223   -1.4160    1.7957 C   0  0  0  0  0  0  0  0  0  0  0  0
   -5.6935   -0.8362    0.8293 O   0  0  0  0  0  0  0  0  0  0  0  0
   -5.8759   -2.6818    2.3177 C   0  0  0  0  0  0  0  0  0  0  0  0
   -6.1302   -2.5637    3.3739 H   0  0  0  0  0  0  0  0  0  0  0  0
   -6.7900   -2.8935    1.7559 H   0  0  0  0  0  0  0  0  0  0  0  0
   -5.1906   -3.5260    2.2071 H   0  0  0  0  0  0  0  0  0  0  0  0
   -4.0871   -0.9308    2.4087 N   0  0  0  0  0  0  0  0  0  0  0  0
   -3.2412    0.1311    1.8523 C   0  0  2  0  0  0  0  0  0  0  0  0
   -1.7504   -0.1715    2.1017 C   0  0  0  0  0  0  0  0  0  0  0  0
   -1.4211   -0.8141    3.0924 O   0  0  0  0  0  0  0  0  0  0  0  0
   -3.6407    1.4616    2.4966 C   0  0  0  0  0  0  0  0  0  0  0  0
   -3.6551   -1.5232    3.1179 H   0  0  0  0  0  0  0  0  0  0  0  0
   -3.3863    0.1945    0.7686 H   0  0  0  0  0  0  0  0  0  0  0  0
   -3.4888    1.4224    3.5801 H   0  0  0  0  0  0  0  0  0  0  0  0
   -3.0391    2.2800    2.0898 H   0  0  0  0  0  0  0  0  0  0  0  0
   -4.6962    1.6764    2.3003 H   0  0  0  0  0  0  0  0  0  0  0  0
   -0.7705    0.4463    1.3432 N   0  0  0  0  0  0  0  0  0  0  0  0
    0.4665   -0.2145    0.8673 C   0  0  2  0  0  0  0  0  0  0  0  0
    0.7287   -1.7119    1.2071 C   0  0  0  0  0  0  0  0  0  0  0  0
   -0.1843   -2.5276    1.1465 O   0  0  0  0  0  0  0  0  0  0  0  0
    1.6083    0.6639    1.3991 C   0  0  0  0  0  0  0  0  0  0  0  0
   -1.1617    1.1122    0.6846 H   0  0  0  0  0  0  0  0  0  0  0  0
    0.4694   -0.1658   -0.2258 H   0  0  0  0  0  0  0  0  0  0  0  0
    1.6818    0.5699    2.4879 H   0  0  0  0  0  0  0  0  0  0  0  0
    2.5666    0.3768    0.9560 H   0  0  0  0  0  0  0  0  0  0  0  0
    1.4283    1.7155    1.1544 H   0  0  0  0  0  0  0  0  0  0  0  0
    2.0005   -2.2330    1.0449 N   0  0  0  0  0  0  0  0  0  0  0  0
    2.3534   -3.6336    1.3116 C   0  0  2  0  0  0  0  0  0  0  0  0
    3.7149   -3.7313    2.0301 C   0  0  0  0  0  0  0  0  0  0  0  0
    4.4697   -2.7638    2.0470 O   0  0  0  0  0  0  0  0  0  0  0  0
    2.3869   -4.3852   -0.0216 C   0  0  0  0  0  0  0  0  0  0  0  0
    2.7704   -1.5693    1.1200 H   0  0  0  0  0  0  0  0  0  0  0  0
    1.6045   -4.0918    1.9667 H   0  0  0  0  0  0  0  0  0  0  0  0
    3.1383   -3.9499   -0.6881 H   0  0  0  0  0  0  0  0  0  0  0  0
    2.6294   -5.4400    0.1375 H   0  0  0  0  0  0  0  0  0  0  0  0
    1.4097   -4.3261   -0.5115 H   0  0  0  0  0  0  0  0  0  0  0  0
    4.0903   -4.8965    2.6726 N   0  0  0  0  0  0  0  0  0  0  0  0
    5.3412   -5.0348    3.4089 C   0  0  0  0  0  0  0  0  0  0  0  0
    3.4264   -5.6657    2.6789 H   0  0  0  0  0  0  0  0  0  0  0  0
    6.1968   -4.8660    2.7463 H   0  0  0  0  0  0  0  0  0  0  0  0
    5.3840   -4.3118    4.2307 H   0  0  0  0  0  0  0  0  0  0  0  0
    5.4245   -6.0417    3.8292 H   0  0  0  0  0  0  0  0  0  0  0  0
  1  2  2  0  0  0  0
  1  3  1  0  0  0  0
  1  7  1  0  0  0  0
  3  4  1  0  0  0  0
  3  5  1  0  0  0  0
  3  6  1  0  0  0  0
  7  8  1  0  0  0  0
  7 12  1  0  0  0  0
  8  9  1  0  0  0  0
  8 11  1  0  0  0  0
  8 13  1  0  0  0  0
  9 10  2  0  0  0  0
  9 17  1  0  0  0  0
 11 14  1  0  0  0  0
 11 15  1  0  0  0  0
 11 16  1  0  0  0  0
 17 18  1  0  0  0  0
 17 22  1  0  0  0  0
 18 19  1  0  0  0  0
 18 21  1  0  0  0  0
 18 23  1  0  0  0  0
 19 20  2  0  0  0  0
 19 27  1  0  0  0  0
 21 24  1  0  0  0  0
 21 25  1  0  0  0  0
 21 26  1  0  0  0  0
 27 28  1  0  0  0  0
 27 32  1  0  0  0  0
 28 29  1  0  0  0  0
 28 31  1  0  0  0  0
 28 33  1  0  0  0  0
 29 30  2  0  0  0  0
 29 37  1  0  0  0  0
 31 34  1  0  0  0  0
 31 35  1  0  0  0  0
 31 36  1  0  0  0  0
 37 38  1  0  0  0  0
 37 39  1  0  0  0  0
 38 40  1  0  0  0  0
 38 41  1  0  0  0  0
 38 42  1  0  0  0  0
M  END
$$$$

  -OEChem-05262215353D

 42 41  0     1  0  0  0  0  0999 V2000
   -5.2204   -1.3666    1.7731 C   0  0  0  0  0  0  0  0  0  0  0  0
   -5.6909   -0.7435    0.8338 O   0  0  0  0  0  0  0  0  0  0  0  0
   -5.8947   -2.6357    2.2588 C   0  0  0  0  0  0  0  0  0  0  0  0
   -6.1677   -2.5331    3.3117 H   0  0  0  0  0  0  0  0  0  0  0  0
   -6.8002   -2.8278    1.6765 H   0  0  0  0  0  0  0  0  0  0  0  0
   -5.2159   -3.4850    2.1466 H   0  0  0  0  0  0  0  0  0  0  0  0
   -4.0743   -0.9195    2.3949 N   0  0  0  0  0  0  0  0  0  0  0  0
   -3.2304    0.1678    1.8863 C   0  0  2  0  0  0  0  0  0  0  0  0
   -1.7367   -0.1671    2.0646 C   0  0  0  0  0  0  0  0  0  0  0  0
   -1.3821   -0.8476    3.0207 O   0  0  0  0  0  0  0  0  0  0  0  0
   -3.5931    1.4499    2.6393 C   0  0  0  0  0  0  0  0  0  0  0  0
   -3.6453   -1.5405    3.0806 H   0  0  0  0  0  0  0  0  0  0  0  0
   -3.4091    0.3130    0.8157 H   0  0  0  0  0  0  0  0  0  0  0  0
   -3.4199    1.3236    3.7130 H   0  0  0  0  0  0  0  0  0  0  0  0
   -2.9865    2.2885    2.2848 H   0  0  0  0  0  0  0  0  0  0  0  0
   -4.6483    1.6948    2.4819 H   0  0  0  0  0  0  0  0  0  0  0  0
   -0.7826    0.4419    1.2655 N   0  0  0  0  0  0  0  0  0  0  0  0
    0.4536   -0.2142    0.7835 C   0  0  2  0  0  0  0  0  0  0  0  0
    0.7198   -1.6950    1.1810 C   0  0  0  0  0  0  0  0  0  0  0  0
   -0.1482   -2.5357    0.9717 O   0  0  0  0  0  0  0  0  0  0  0  0
    1.5977    0.7014    1.2441 C   0  0  0  0  0  0  0  0  0  0  0  0
   -1.1893    1.1009    0.6091 H   0  0  0  0  0  0  0  0  0  0  0  0
    0.4295   -0.2141   -0.3105 H   0  0  0  0  0  0  0  0  0  0  0  0
    1.6920    0.6715    2.3350 H   0  0  0  0  0  0  0  0  0  0  0  0
    2.5490    0.3945    0.7989 H   0  0  0  0  0  0  0  0  0  0  0  0
    1.4054    1.7356    0.9419 H   0  0  0  0  0  0  0  0  0  0  0  0
    2.0125   -2.1657    1.3265 N   0  0  0  0  0  0  0  0  0  0  0  0
    2.3423   -3.5430    1.7110 C   0  0  2  0  0  0  0  0  0  0  0  0
    3.5157   -3.5663    2.7116 C   0  0  0  0  0  0  0  0  0  0  0  0
    4.2262   -2.5747    2.8469 O   0  0  0  0  0  0  0  0  0  0  0  0
    2.6903   -4.3277    0.4437 C   0  0  0  0  0  0  0  0  0  0  0  0
    2.7207   -1.4684    1.5531 H   0  0  0  0  0  0  0  0  0  0  0  0
    1.4829   -4.0118    2.2026 H   0  0  0  0  0  0  0  0  0  0  0  0
    3.5443   -3.8712   -0.0668 H   0  0  0  0  0  0  0  0  0  0  0  0
    2.9424   -5.3635    0.6895 H   0  0  0  0  0  0  0  0  0  0  0  0
    1.8369   -4.3338   -0.2419 H   0  0  0  0  0  0  0  0  0  0  0  0
    3.7657   -4.6907    3.4761 N   0  0  0  0  0  0  0  0  0  0  0  0
    4.8045   -4.7442    4.4975 C   0  0  0  0  0  0  0  0  0  0  0  0
    3.1229   -5.4725    3.3856 H   0  0  0  0  0  0  0  0  0  0  0  0
    5.7821   -4.5083    4.0639 H   0  0  0  0  0  0  0  0  0  0  0  0
    4.5916   -4.0263    5.2967 H   0  0  0  0  0  0  0  0  0  0  0  0
    4.8546   -5.7459    4.9350 H   0  0  0  0  0  0  0  0  0  0  0  0
  1  2  2  0  0  0  0
  1  3  1  0  0  0  0
  1  7  1  0  0  0  0
  3  4  1  0  0  0  0
  3  5  1  0  0  0  0
  3  6  1  0  0  0  0
  7  8  1  0  0  0  0
  7 12  1  0  0  0  0
  8  9  1  0  0  0  0
  8 11  1  0  0  0  0
  8 13  1  0  0  0  0
  9 10  2  0  0  0  0
  9 17  1  0  0  0  0
 11 14  1  0  0  0  0
 11 15  1  0  0  0  0
 11 16  1  0  0  0  0
 17 18  1  0  0  0  0
 17 22  1  0  0  0  0
 18 19  1  0  0  0  0
 18 21  1  0  0  0  0
 18 23  1  0  0  0  0
 19 20  2  0  0  0  0
 19 27  1  0  0  0  0
 21 24  1  0  0  0  0
 21 25  1  0  0  0  0
 21 26  1  0  0  0  0
 27 28  1  0  0  0  0
 27 32  1  0  0  0  0
 28 29  1  0  0  0  0
 28 31  1  0  0  0  0
 28 33  1  0  0  0  0
 29 30  2  0  0  0  0
 29 37  1  0  0  0  0
 31 34  1  0  0  0  0
 31 35  1  0  0  0  0
 31 36  1  0  0  0  0
 37 38  1  0  0  0  0
 37 39  1  0  0  0  0
 38 40  1  0  0  0  0
 38 41  1  0  0  0  0
 38 42  1  0  0  0  0
M  END
$$$$

  -OEChem-05262215353D

 42 41  0     1  0  0  0  0  0999 V2000
   -5.3094   -1.2694    1.7729 C   0  0  0  0  0  0  0  0  0  0  0  0
   -5.7814   -0.5824    0.8803 O   0  0  0  0  0  0  0  0  0  0  0  0
   -6.0249   -2.5284    2.2246 C   0  0  0  0  0  0  0  0  0  0  0  0
   -6.3424   -2.4233    3.2648 H   0  0  0  0  0  0  0  0  0  0  0  0
   -6.9063   -2.7061    1.6020 H   0  0  0  0  0  0  0  0  0  0  0  0
   -5.3555   -3.3882    2.1399 H   0  0  0  0  0  0  0  0  0  0  0  0
   -4.1219   -0.9067    2.3716 N   0  0  0  0  0  0  0  0  0  0  0  0
   -3.2421    0.1605    1.8805 C   0  0  2  0  0  0  0  0  0  0  0  0
   -1.7593   -0.2450    2.0013 C   0  0  0  0  0  0  0  0  0  0  0  0
   -1.4218   -1.0202    2.8889 O   0  0  0  0  0  0  0  0  0  0  0  0
   -3.5235    1.4280    2.6911 C   0  0  0  0  0  0  0  0  0  0  0  0
   -3.7025   -1.5786    3.0139 H   0  0  0  0  0  0  0  0  0  0  0  0
   -3.4443    0.3547    0.8219 H   0  0  0  0  0  0  0  0  0  0  0  0
   -3.3192    1.2557    3.7529 H   0  0  0  0  0  0  0  0  0  0  0  0
   -2.8938    2.2527    2.3446 H   0  0  0  0  0  0  0  0  0  0  0  0
   -4.5719    1.7226    2.5806 H   0  0  0  0  0  0  0  0  0  0  0  0
   -0.8012    0.3875    1.2237 N   0  0  0  0  0  0  0  0  0  0  0  0
    0.4593   -0.2273    0.7508 C   0  0  2  0  0  0  0  0  0  0  0  0
    0.7460   -1.7045    1.1417 C   0  0  0  0  0  0  0  0  0  0  0  0
   -0.0245   -2.5760    0.7536 O   0  0  0  0  0  0  0  0  0  0  0  0
    1.5749    0.7145    1.2276 C   0  0  0  0  0  0  0  0  0  0  0  0
   -1.1959    1.0837    0.5988 H   0  0  0  0  0  0  0  0  0  0  0  0
    0.4481   -0.2203   -0.3435 H   0  0  0  0  0  0  0  0  0  0  0  0
    1.6428    0.7028    2.3208 H   0  0  0  0  0  0  0  0  0  0  0  0
    2.5417    0.4158    0.8102 H   0  0  0  0  0  0  0  0  0  0  0  0
    1.3712    1.7406    0.9054 H   0  0  0  0  0  0  0  0  0  0  0  0
    1.9852   -2.1070    1.6059 N   0  0  0  0  0  0  0  0  0  0  0  0
    2.2678   -3.4637    2.0884 C   0  0  2  0  0  0  0  0  0  0  0  0
    3.1839   -3.4262    3.3286 C   0  0  0  0  0  0  0  0  0  0  0  0
    3.8392   -2.4190    3.5777 O   0  0  0  0  0  0  0  0  0  0  0  0
    2.9220   -4.2572    0.9545 C   0  0  0  0  0  0  0  0  0  0  0  0
    2.5813   -1.3737    1.9878 H   0  0  0  0  0  0  0  0  0  0  0  0
    1.3354   -3.9568    2.3843 H   0  0  0  0  0  0  0  0  0  0  0  0
    3.8542   -3.7772    0.6397 H   0  0  0  0  0  0  0  0  0  0  0  0
    3.1465   -5.2778    1.2792 H   0  0  0  0  0  0  0  0  0  0  0  0
    2.2480   -4.3094    0.0933 H   0  0  0  0  0  0  0  0  0  0  0  0
    3.2672   -4.5173    4.1737 N   0  0  0  0  0  0  0  0  0  0  0  0
    4.0678   -4.5236    5.3919 C   0  0  0  0  0  0  0  0  0  0  0  0
    2.6681   -5.3129    3.9734 H   0  0  0  0  0  0  0  0  0  0  0  0
    5.1233   -4.3503    5.1574 H   0  0  0  0  0  0  0  0  0  0  0  0
    3.7260   -3.7416    6.0781 H   0  0  0  0  0  0  0  0  0  0  0  0
    3.9810   -5.4901    5.8978 H   0  0  0  0  0  0  0  0  0  0  0  0
  1  2  2  0  0  0  0
  1  3  1  0  0  0  0
  1  7  1  0  0  0  0
  3  4  1  0  0  0  0
  3  5  1  0  0  0  0
  3  6  1  0  0  0  0
  7  8  1  0  0  0  0
  7 12  1  0  0  0  0
  8  9  1  0  0  0  0
  8 11  1  0  0  0  0
  8 13  1  0  0  0  0
  9 10  2  0  0  0  0
  9 17  1  0  0  0  0
 11 14  1  0  0  0  0
 11 15  1  0  0  0  0
 11 16  1  0  0  0  0
 17 18  1  0  0  0  0
 17 22  1  0  0  0  0
 18 19  1  0  0  0  0
 18 21  1  0  0  0  0
 18 23  1  0  0  0  0
 19 20  2  0  0  0  0
 19 27  1  0  0  0  0
 21 24  1  0  0  0  0
 21 25  1  0  0  0  0
 21 26  1  0  0  0  0
 27 28  1  0  0  0  0
 27 32  1  0  0  0  0
 28 29  1  0  0  0  0
 28 31  1  0  0  0  0
 28 33  1  0  0  0  0
 29 30  2  0  0  0  0
 29 37  1  0  0  0  0
 31 34  1  0  0  0  0
 31 35  1  0  0  0  0
 31 36  1  0  0  0  0
 37 38  1  0  0  0  0
 37 39  1  0  0  0  0
 38 40  1  0  0  0  0
 38 41  1  0  0  0  0
 38 42  1  0  0  0  0
M  END
$$$$

  -OEChem-05262215353D

 42 41  0     1  0  0  0  0  0999 V2000
   -5.4170   -1.1620    1.7900 C   0  0  0  0  0  0  0  0  0  0  0  0
   -5.8970   -0.4031    0.9623 O   0  0  0  0  0  0  0  0  0  0  0  0
   -6.1925   -2.3833    2.2458 C   0  0  0  0  0  0  0  0  0  0  0  0
   -6.4192   -2.3034    3.3116 H   0  0  0  0  0  0  0  0  0  0  0  0
   -7.1306   -2.4636    1.6896 H   0  0  0  0  0  0  0  0  0  0  0  0
   -5.6024   -3.2866    2.0724 H   0  0  0  0  0  0  0  0  0  0  0  0
   -4.1660   -0.9125    2.3117 N   0  0  0  0  0  0  0  0  0  0  0  0
   -3.2567    0.1298    1.8217 C   0  0  2  0  0  0  0  0  0  0  0  0
   -1.7853   -0.3243    1.9199 C   0  0  0  0  0  0  0  0  0  0  0  0
   -1.4808   -1.1862    2.7363 O   0  0  0  0  0  0  0  0  0  0  0  0
   -3.4917    1.3989    2.6459 C   0  0  0  0  0  0  0  0  0  0  0  0
   -3.7543   -1.6310    2.9071 H   0  0  0  0  0  0  0  0  0  0  0  0
   -3.4663    0.3382    0.7670 H   0  0  0  0  0  0  0  0  0  0  0  0
   -3.2868    1.2098    3.7046 H   0  0  0  0  0  0  0  0  0  0  0  0
   -2.8397    2.2075    2.3031 H   0  0  0  0  0  0  0  0  0  0  0  0
   -4.5311    1.7275    2.5452 H   0  0  0  0  0  0  0  0  0  0  0  0
   -0.8110    0.3273    1.1780 N   0  0  0  0  0  0  0  0  0  0  0  0
    0.4809   -0.2484    0.7427 C   0  0  2  0  0  0  0  0  0  0  0  0
    0.7917   -1.7184    1.1372 C   0  0  0  0  0  0  0  0  0  0  0  0
    0.1806   -2.6180    0.5714 O   0  0  0  0  0  0  0  0  0  0  0  0
    1.5611    0.7178    1.2492 C   0  0  0  0  0  0  0  0  0  0  0  0
   -1.1810    1.0622    0.5829 H   0  0  0  0  0  0  0  0  0  0  0  0
    0.5007   -0.2396   -0.3516 H   0  0  0  0  0  0  0  0  0  0  0  0
    1.5734    0.7413    2.3442 H   0  0  0  0  0  0  0  0  0  0  0  0
    2.5499    0.4124    0.8917 H   0  0  0  0  0  0  0  0  0  0  0  0
    1.3668    1.7313    0.8849 H   0  0  0  0  0  0  0  0  0  0  0  0
    1.8868   -2.0559    1.9117 N   0  0  0  0  0  0  0  0  0  0  0  0
    2.1154   -3.4046    2.4412 C   0  0  2  0  0  0  0  0  0  0  0  0
    2.7046   -3.3440    3.8653 C   0  0  0  0  0  0  0  0  0  0  0  0
    3.2332   -2.3130    4.2701 O   0  0  0  0  0  0  0  0  0  0  0  0
    3.0610   -4.1469    1.4935 C   0  0  0  0  0  0  0  0  0  0  0  0
    2.3062   -1.2975    2.4483 H   0  0  0  0  0  0  0  0  0  0  0  0
    1.1646   -3.9455    2.5025 H   0  0  0  0  0  0  0  0  0  0  0  0
    4.0220   -3.6272    1.4264 H   0  0  0  0  0  0  0  0  0  0  0  0
    3.2386   -5.1660    1.8493 H   0  0  0  0  0  0  0  0  0  0  0  0
    2.6236   -4.2023    0.4916 H   0  0  0  0  0  0  0  0  0  0  0  0
    2.6391   -4.4448    4.6990 N   0  0  0  0  0  0  0  0  0  0  0  0
    3.1328   -4.4383    6.0708 C   0  0  0  0  0  0  0  0  0  0  0  0
    2.1484   -5.2652    4.3552 H   0  0  0  0  0  0  0  0  0  0  0  0
    4.2097   -4.2397    6.0895 H   0  0  0  0  0  0  0  0  0  0  0  0
    2.6226   -3.6677    6.6588 H   0  0  0  0  0  0  0  0  0  0  0  0
    2.9522   -5.4089    6.5430 H   0  0  0  0  0  0  0  0  0  0  0  0
  1  2  2  0  0  0  0
  1  3  1  0  0  0  0
  1  7  1  0  0  0  0
  3  4  1  0  0  0  0
  3  5  1  0  0  0  0
  3  6  1  0  0  0  0
  7  8  1  0  0  0  0
  7 12  1  0  0  0  0
  8  9  1  0  0  0  0
  8 11  1  0  0  0  0
  8 13  1  0  0  0  0
  9 10  2  0  0  0  0
  9 17  1  0  0  0  0
 11 14  1  0  0  0  0
 11 15  1  0  0  0  0
 11 16  1  0  0  0  0
 17 18  1  0  0  0  0
 17 22  1  0  0  0  0
 18 19  1  0  0  0  0
 18 21  1  0  0  0  0
 18 23  1  0  0  0  0
 19 20  2  0  0  0  0
 19 27  1  0  0  0  0
 21 24  1  0  0  0  0
 21 25  1  0  0  0  0
 21 26  1  0  0  0  0
 27 28  1  0  0  0  0
 27 32  1  0  0  0  0
 28 29  1  0  0  0  0
 28 31  1  0  0  0  0
 28 33  1  0  0  0  0
 29 30  2  0  0  0  0
 29 37  1  0  0  0  0
 31 34  1  0  0  0  0
 31 35  1  0  0  0  0
 31 36  1  0  0  0  0
 37 38  1  0  0  0  0
 37 39  1  0  0  0  0
 38 40  1  0  0  0  0
 38 41  1  0  0  0  0
 38 42  1  0  0  0  0
M  END
$$$$

  -OEChem-05262215353D

 42 41  0     1  0  0  0  0  0999 V2000
   -5.4659   -1.0699    1.7876 C   0  0  0  0  0  0  0  0  0  0  0  0
   -5.9188   -0.2568    0.9973 O   0  0  0  0  0  0  0  0  0  0  0  0
   -6.2819   -2.2872    2.1789 C   0  0  0  0  0  0  0  0  0  0  0  0
   -6.5255   -2.2470    3.2432 H   0  0  0  0  0  0  0  0  0  0  0  0
   -7.2116   -2.3183    1.6040 H   0  0  0  0  0  0  0  0  0  0  0  0
   -5.7130   -3.1976    1.9760 H   0  0  0  0  0  0  0  0  0  0  0  0
   -4.2060   -0.8902    2.3172 N   0  0  0  0  0  0  0  0  0  0  0  0
   -3.2553    0.1309    1.8602 C   0  0  2  0  0  0  0  0  0  0  0  0
   -1.8079   -0.4041    1.8749 C   0  0  0  0  0  0  0  0  0  0  0  0
   -1.5307   -1.3499    2.6024 O   0  0  0  0  0  0  0  0  0  0  0  0
   -3.3921    1.3568    2.7676 C   0  0  0  0  0  0  0  0  0  0  0  0
   -3.8178   -1.6579    2.8648 H   0  0  0  0  0  0  0  0  0  0  0  0
   -3.4864    0.4182    0.8289 H   0  0  0  0  0  0  0  0  0  0  0  0
   -3.1579    1.0942    3.8042 H   0  0  0  0  0  0  0  0  0  0  0  0
   -2.7120    2.1515    2.4471 H   0  0  0  0  0  0  0  0  0  0  0  0
   -4.4158    1.7426    2.7290 H   0  0  0  0  0  0  0  0  0  0  0  0
   -0.8308    0.2464    1.1351 N   0  0  0  0  0  0  0  0  0  0  0  0
    0.4760   -0.3022    0.7100 C   0  0  2  0  0  0  0  0  0  0  0  0
    0.8208   -1.7601    1.1145 C   0  0  0  0  0  0  0  0  0  0  0  0
    0.3949   -2.6799    0.4256 O   0  0  0  0  0  0  0  0  0  0  0  0
    1.5368    0.6860    1.2132 C   0  0  0  0  0  0  0  0  0  0  0  0
   -1.1794    1.0289    0.5896 H   0  0  0  0  0  0  0  0  0  0  0  0
    0.4979   -0.2995   -0.3847 H   0  0  0  0  0  0  0  0  0  0  0  0
    1.5239    0.7437    2.3068 H   0  0  0  0  0  0  0  0  0  0  0  0
    2.5348    0.3739    0.8890 H   0  0  0  0  0  0  0  0  0  0  0  0
    1.3450    1.6863    0.8132 H   0  0  0  0  0  0  0  0  0  0  0  0
    1.7204   -2.0431    2.1258 N   0  0  0  0  0  0  0  0  0  0  0  0
    1.8887   -3.3819    2.6997 C   0  0  2  0  0  0  0  0  0  0  0  0
    2.0866   -3.3035    4.2275 C   0  0  0  0  0  0  0  0  0  0  0  0
    2.4666   -2.2580    4.7461 O   0  0  0  0  0  0  0  0  0  0  0  0
    3.0911   -4.0520    2.0296 C   0  0  0  0  0  0  0  0  0  0  0  0
    1.9347   -1.2706    2.7552 H   0  0  0  0  0  0  0  0  0  0  0  0
    0.9899   -3.9807    2.5169 H   0  0  0  0  0  0  0  0  0  0  0  0
    4.0013   -3.4707    2.2085 H   0  0  0  0  0  0  0  0  0  0  0  0
    3.2376   -5.0616    2.4253 H   0  0  0  0  0  0  0  0  0  0  0  0
    2.9297   -4.1243    0.9493 H   0  0  0  0  0  0  0  0  0  0  0  0
    1.8370   -4.4048    5.0257 N   0  0  0  0  0  0  0  0  0  0  0  0
    1.9326   -4.3723    6.4803 C   0  0  0  0  0  0  0  0  0  0  0  0
    1.4578   -5.2325    4.5749 H   0  0  0  0  0  0  0  0  0  0  0  0
    2.9456   -4.0964    6.7917 H   0  0  0  0  0  0  0  0  0  0  0  0
    1.2265   -3.6445    6.8941 H   0  0  0  0  0  0  0  0  0  0  0  0
    1.6995   -5.3564    6.8981 H   0  0  0  0  0  0  0  0  0  0  0  0
  1  2  2  0  0  0  0
  1  3  1  0  0  0  0
  1  7  1  0  0  0  0
  3  4  1  0  0  0  0
  3  5  1  0  0  0  0
  3  6  1  0  0  0  0
  7  8  1  0  0  0  0
  7 12  1  0  0  0  0
  8  9  1  0  0  0  0
  8 11  1  0  0  0  0
  8 13  1  0  0  0  0
  9 10  2  0  0  0  0
  9 17  1  0  0  0  0
 11 14  1  0  0  0  0
 11 15  1  0  0  0  0
 11 16  1  0  0  0  0
 17 18  1  0  0  0  0
 17 22  1  0  0  0  0
 18 19  1  0  0  0  0
 18 21  1  0  0  0  0
 18 23  1  0  0  0  0
 19 20  2  0  0  0  0
 19 27  1  0  0  0  0
 21 24  1  0  0  0  0
 21 25  1  0  0  0  0
 21 26  1  0  0  0  0
 27 28  1  0  0  0  0
 27 32  1  0  0  0  0
 28 29  1  0  0  0  0
 28 31  1  0  0  0  0
 28 33  1  0  0  0  0
 29 30  2  0  0  0  0
 29 37  1  0  0  0  0
 31 34  1  0  0  0  0
 31 35  1  0  0  0  0
 31 36  1  0  0  0  0
 37 38  1  0  0  0  0
 37 39  1  0  0  0  0
 38 40  1  0  0  0  0
 38 41  1  0  0  0  0
 38 42  1  0  0  0  0
M  END
$$$$

  -OEChem-05262215353D

 42 41  0     1  0  0  0  0  0999 V2000
   -5.5317   -0.9802    1.8152 C   0  0  0  0  0  0  0  0  0  0  0  0
   -5.9738   -0.1347    1.0531 O   0  0  0  0  0  0  0  0  0  0  0  0
   -6.3907   -2.1614    2.2256 C   0  0  0  0  0  0  0  0  0  0  0  0
   -6.5778   -2.1294    3.3016 H   0  0  0  0  0  0  0  0  0  0  0  0
   -7.3490   -2.1323    1.6995 H   0  0  0  0  0  0  0  0  0  0  0  0
   -5.8819   -3.0967    1.9790 H   0  0  0  0  0  0  0  0  0  0  0  0
   -4.2450   -0.8707    2.2972 N   0  0  0  0  0  0  0  0  0  0  0  0
   -3.2636    0.1118    1.8204 C   0  0  2  0  0  0  0  0  0  0  0  0
   -1.8391   -0.4831    1.7873 C   0  0  0  0  0  0  0  0  0  0  0  0
   -1.6054   -1.5006    2.4277 O   0  0  0  0  0  0  0  0  0  0  0  0
   -3.3231    1.3349    2.7410 C   0  0  0  0  0  0  0  0  0  0  0  0
   -3.8742   -1.6644    2.8192 H   0  0  0  0  0  0  0  0  0  0  0  0
   -3.5117    0.4169    0.7980 H   0  0  0  0  0  0  0  0  0  0  0  0
   -3.0691    1.0537    3.7686 H   0  0  0  0  0  0  0  0  0  0  0  0
   -2.6216    2.1048    2.4063 H   0  0  0  0  0  0  0  0  0  0  0  0
   -4.3309    1.7623    2.7357 H   0  0  0  0  0  0  0  0  0  0  0  0
   -0.8437    0.1727    1.0761 N   0  0  0  0  0  0  0  0  0  0  0  0
    0.4926   -0.3412    0.7008 C   0  0  2  0  0  0  0  0  0  0  0  0
    0.8710   -1.7822    1.1295 C   0  0  0  0  0  0  0  0  0  0  0  0
    0.7172   -2.7005    0.3328 O   0  0  0  0  0  0  0  0  0  0  0  0
    1.5147    0.6721    1.2312 C   0  0  0  0  0  0  0  0  0  0  0  0
   -1.1597    1.0016    0.5815 H   0  0  0  0  0  0  0  0  0  0  0  0
    0.5508   -0.3448   -0.3927 H   0  0  0  0  0  0  0  0  0  0  0  0
    1.4555    0.7489    2.3219 H   0  0  0  0  0  0  0  0  0  0  0  0
    2.5300    0.3677    0.9565 H   0  0  0  0  0  0  0  0  0  0  0  0
    1.3267    1.6619    0.8046 H   0  0  0  0  0  0  0  0  0  0  0  0
    1.4890   -2.0325    2.3407 N   0  0  0  0  0  0  0  0  0  0  0  0
    1.6080   -3.3769    2.9131 C   0  0  2  0  0  0  0  0  0  0  0  0
    1.3744   -3.3473    4.4378 C   0  0  0  0  0  0  0  0  0  0  0  0
    1.5253   -2.3038    5.0659 O   0  0  0  0  0  0  0  0  0  0  0  0
    3.0001   -3.9237    2.5877 C   0  0  0  0  0  0  0  0  0  0  0  0
    1.4292   -1.2772    3.0229 H   0  0  0  0  0  0  0  0  0  0  0  0
    0.8479   -4.0352    2.4786 H   0  0  0  0  0  0  0  0  0  0  0  0
    3.7738   -3.2799    3.0181 H   0  0  0  0  0  0  0  0  0  0  0  0
    3.1198   -4.9330    2.9925 H   0  0  0  0  0  0  0  0  0  0  0  0
    3.1447   -3.9664    1.5034 H   0  0  0  0  0  0  0  0  0  0  0  0
    1.0004   -4.4957    5.1115 N   0  0  0  0  0  0  0  0  0  0  0  0
    0.6996   -4.5211    6.5377 C   0  0  0  0  0  0  0  0  0  0  0  0
    0.8239   -5.3271    4.5553 H   0  0  0  0  0  0  0  0  0  0  0  0
    1.5662   -4.1879    7.1184 H   0  0  0  0  0  0  0  0  0  0  0  0
   -0.1482   -3.8650    6.7618 H   0  0  0  0  0  0  0  0  0  0  0  0
    0.4439   -5.5373    6.8529 H   0  0  0  0  0  0  0  0  0  0  0  0
  1  2  2  0  0  0  0
  1  3  1  0  0  0  0
  1  7  1  0  0  0  0
  3  4  1  0  0  0  0
  3  5  1  0  0  0  0
  3  6  1  0  0  0  0
  7  8  1  0  0  0  0
  7 12  1  0  0  0  0
  8  9  1  0  0  0  0
  8 11  1  0  0  0  0
  8 13  1  0  0  0  0
  9 10  2  0  0  0  0
  9 17  1  0  0  0  0
 11 14  1  0  0  0  0
 11 15  1  0  0  0  0
 11 16  1  0  0  0  0
 17 18  1  0  0  0  0
 17 22  1  0  0  0  0
 18 19  1  0  0  0  0
 18 21  1  0  0  0  0
 18 23  1  0  0  0  0
 19 20  2  0  0  0  0
 19 27  1  0  0  0  0
 21 24  1  0  0  0  0
 21 25  1  0  0  0  0
 21 26  1  0  0  0  0
 27 28  1  0  0  0  0
 27 32  1  0  0  0  0
 28 29  1  0  0  0  0
 28 31  1  0  0  0  0
 28 33  1  0  0  0  0
 29 30  2  0  0  0  0
 29 37  1  0  0  0  0
 31 34  1  0  0  0  0
 31 35  1  0  0  0  0
 31 36  1  0  0  0  0
 37 38  1  0  0  0  0
 37 39  1  0  0  0  0
 38 40  1  0  0  0  0
 38 41  1  0  0  0  0
 38 42  1  0  0  0  0
M  END
$$$$

  -OEChem-05262215353D

 42 41  0     1  0  0  0  0  0999 V2000
   -5.6694   -0.7717    1.8148 C   0  0  0  0  0  0  0  0  0  0  0  0
   -6.0804    0.1426    1.1173 O   0  0  0  0  0  0  0  0  0  0  0  0
   -6.6145   -1.8671    2.2722 C   0  0  0  0  0  0  0  0  0  0  0  0
   -6.7093   -1.8471    3.3607 H   0  0  0  0  0  0  0  0  0  0  0  0
   -7.6037   -1.7218    1.8288 H   0  0  0  0  0  0  0  0  0  0  0  0
   -6.2314   -2.8433    1.9649 H   0  0  0  0  0  0  0  0  0  0  0  0
   -4.3417   -0.8141    2.1834 N   0  0  0  0  0  0  0  0  0  0  0  0
   -3.3104    0.1046    1.6851 C   0  0  2  0  0  0  0  0  0  0  0  0
   -1.9233   -0.5721    1.6243 C   0  0  0  0  0  0  0  0  0  0  0  0
   -1.7658   -1.6561    2.1695 O   0  0  0  0  0  0  0  0  0  0  0  0
   -3.2750    1.3302    2.6039 C   0  0  0  0  0  0  0  0  0  0  0  0
   -4.0137   -1.6518    2.6639 H   0  0  0  0  0  0  0  0  0  0  0  0
   -3.5636    0.4221    0.6678 H   0  0  0  0  0  0  0  0  0  0  0  0
   -3.0175    1.0339    3.6260 H   0  0  0  0  0  0  0  0  0  0  0  0
   -2.5348    2.0553    2.2534 H   0  0  0  0  0  0  0  0  0  0  0  0
   -4.2541    1.8198    2.6192 H   0  0  0  0  0  0  0  0  0  0  0  0
   -0.8805    0.0710    0.9724 N   0  0  0  0  0  0  0  0  0  0  0  0
    0.4930   -0.4183    0.7152 C   0  0  2  0  0  0  0  0  0  0  0  0
    0.8963   -1.8309    1.2101 C   0  0  0  0  0  0  0  0  0  0  0  0
    1.1212   -2.7117    0.3886 O   0  0  0  0  0  0  0  0  0  0  0  0
    1.4504    0.6299    1.2941 C   0  0  0  0  0  0  0  0  0  0  0  0
   -1.1317    0.9561    0.5417 H   0  0  0  0  0  0  0  0  0  0  0  0
    0.6305   -0.4448   -0.3711 H   0  0  0  0  0  0  0  0  0  0  0  0
    1.3172    0.7206    2.3769 H   0  0  0  0  0  0  0  0  0  0  0  0
    2.4891    0.3472    1.0935 H   0  0  0  0  0  0  0  0  0  0  0  0
    1.2676    1.6079    0.8388 H   0  0  0  0  0  0  0  0  0  0  0  0
    1.1447   -2.0723    2.5488 N   0  0  0  0  0  0  0  0  0  0  0  0
    1.3178   -3.4185    3.1025 C   0  0  2  0  0  0  0  0  0  0  0  0
    0.6786   -3.5329    4.5020 C   0  0  0  0  0  0  0  0  0  0  0  0
    0.5052   -2.5314    5.1898 O   0  0  0  0  0  0  0  0  0  0  0  0
    2.8156   -3.7288    3.1672 C   0  0  0  0  0  0  0  0  0  0  0  0
    0.7465   -1.3874    3.1909 H   0  0  0  0  0  0  0  0  0  0  0  0
    0.8220   -4.1509    2.4565 H   0  0  0  0  0  0  0  0  0  0  0  0
    3.3267   -3.0105    3.8161 H   0  0  0  0  0  0  0  0  0  0  0  0
    2.9828   -4.7356    3.5612 H   0  0  0  0  0  0  0  0  0  0  0  0
    3.2569   -3.6712    2.1673 H   0  0  0  0  0  0  0  0  0  0  0  0
    0.3160   -4.7697    5.0029 N   0  0  0  0  0  0  0  0  0  0  0  0
   -0.3153   -4.9532    6.3039 C   0  0  0  0  0  0  0  0  0  0  0  0
    0.4215   -5.5718    4.3885 H   0  0  0  0  0  0  0  0  0  0  0  0
    0.3281   -4.5648    7.1004 H   0  0  0  0  0  0  0  0  0  0  0  0
   -1.2768   -4.4304    6.3408 H   0  0  0  0  0  0  0  0  0  0  0  0
   -0.4915   -6.0166    6.4915 H   0  0  0  0  0  0  0  0  0  0  0  0
  1  2  2  0  0  0  0
  1  3  1  0  0  0  0
  1  7  1  0  0  0  0
  3  4  1  0  0  0  0
  3  5  1  0  0  0  0
  3  6  1  0  0  0  0
  7  8  1  0  0  0  0
  7 12  1  0  0  0  0
  8  9  1  0  0  0  0
  8 11  1  0  0  0  0
  8 13  1  0  0  0  0
  9 10  2  0  0  0  0
  9 17  1  0  0  0  0
 11 14  1  0  0  0  0
 11 15  1  0  0  0  0
 11 16  1  0  0  0  0
 17 18  1  0  0  0  0
 17 22  1  0  0  0  0
 18 19  1  0  0  0  0
 18 21  1  0  0  0  0
 18 23  1  0  0  0  0
 19 20  2  0  0  0  0
 19 27  1  0  0  0  0
 21 24  1  0  0  0  0
 21 25  1  0  0  0  0
 21 26  1  0  0  0  0
 27 28  1  0  0  0  0
 27 32  1  0  0  0  0
 28 29  1  0  0  0  0
 28 31  1  0  0  0  0
 28 33  1  0  0  0  0
 29 30  2  0  0  0  0
 29 37  1  0  0  0  0
 31 34  1  0  0  0  0
 31 35  1  0  0  0  0
 31 36  1  0  0  0  0
 37 38  1  0  0  0  0
 37 39  1  0  0  0  0
 38 40  1  0  0  0  0
 38 41  1  0  0  0  0
 38 42  1  0  0  0  0
M  END
$$$$

  -OEChem-05262215353D

 42 41  0     1  0  0  0  0  0999 V2000
   -5.8102   -0.4510    1.5707 C   0  0  0  0  0  0  0  0  0  0  0  0
   -6.1010    0.5248    0.8966 O   0  0  0  0  0  0  0  0  0  0  0  0
   -6.8663   -1.4858    1.9103 C   0  0  0  0  0  0  0  0  0  0  0  0
   -6.9916   -1.5472    2.9940 H   0  0  0  0  0  0  0  0  0  0  0  0
   -7.8237   -1.2097    1.4596 H   0  0  0  0  0  0  0  0  0  0  0  0
   -6.5668   -2.4650    1.5287 H   0  0  0  0  0  0  0  0  0  0  0  0
   -4.5189   -0.6160    2.0235 N   0  0  0  0  0  0  0  0  0  0  0  0
   -3.3896    0.2411    1.6421 C   0  0  2  0  0  0  0  0  0  0  0  0
   -2.0732   -0.5591    1.5437 C   0  0  0  0  0  0  0  0  0  0  0  0
   -2.0240   -1.6896    2.0060 O   0  0  0  0  0  0  0  0  0  0  0  0
   -3.2667    1.3590    2.6822 C   0  0  0  0  0  0  0  0  0  0  0  0
   -4.2892   -1.5027    2.4722 H   0  0  0  0  0  0  0  0  0  0  0  0
   -3.5764    0.6833    0.6575 H   0  0  0  0  0  0  0  0  0  0  0  0
   -3.0690    0.9385    3.6737 H   0  0  0  0  0  0  0  0  0  0  0  0
   -2.4512    2.0407    2.4232 H   0  0  0  0  0  0  0  0  0  0  0  0
   -4.1959    1.9363    2.7279 H   0  0  0  0  0  0  0  0  0  0  0  0
   -0.9722    0.0186    0.9313 N   0  0  0  0  0  0  0  0  0  0  0  0
    0.3947   -0.5226    0.7508 C   0  0  2  0  0  0  0  0  0  0  0  0
    0.7681   -1.9311    1.2837 C   0  0  0  0  0  0  0  0  0  0  0  0
    1.3278   -2.7193    0.5310 O   0  0  0  0  0  0  0  0  0  0  0  0
    1.3512    0.5050    1.3644 C   0  0  0  0  0  0  0  0  0  0  0  0
   -1.1397    0.9470    0.5544 H   0  0  0  0  0  0  0  0  0  0  0  0
    0.5793   -0.5667   -0.3280 H   0  0  0  0  0  0  0  0  0  0  0  0
    1.1834    0.5921    2.4429 H   0  0  0  0  0  0  0  0  0  0  0  0
    2.3901    0.2018    1.1982 H   0  0  0  0  0  0  0  0  0  0  0  0
    1.2040    1.4883    0.9077 H   0  0  0  0  0  0  0  0  0  0  0  0
    0.6726   -2.2402    2.6278 N   0  0  0  0  0  0  0  0  0  0  0  0
    0.9526   -3.5700    3.1794 C   0  0  2  0  0  0  0  0  0  0  0  0
    0.0943   -3.8558    4.4300 C   0  0  0  0  0  0  0  0  0  0  0  0
   -0.3983   -2.9349    5.0737 O   0  0  0  0  0  0  0  0  0  0  0  0
    2.4420   -3.6508    3.5290 C   0  0  0  0  0  0  0  0  0  0  0  0
   -0.0201   -1.6912    3.1398 H   0  0  0  0  0  0  0  0  0  0  0  0
    0.7105   -4.3337    2.4325 H   0  0  0  0  0  0  0  0  0  0  0  0
    2.6991   -2.8936    4.2766 H   0  0  0  0  0  0  0  0  0  0  0  0
    2.6892   -4.6374    3.9315 H   0  0  0  0  0  0  0  0  0  0  0  0
    3.0524   -3.4806    2.6366 H   0  0  0  0  0  0  0  0  0  0  0  0
   -0.1034   -5.1569    4.8560 N   0  0  0  0  0  0  0  0  0  0  0  0
   -0.8783   -5.5046    6.0410 C   0  0  0  0  0  0  0  0  0  0  0  0
    0.3119   -5.9001    4.3021 H   0  0  0  0  0  0  0  0  0  0  0  0
   -0.3914   -5.1201    6.9434 H   0  0  0  0  0  0  0  0  0  0  0  0
   -1.8872   -5.0830    5.9784 H   0  0  0  0  0  0  0  0  0  0  0  0
   -0.9649   -6.5918    6.1307 H   0  0  0  0  0  0  0  0  0  0  0  0
  1  2  2  0  0  0  0
  1  3  1  0  0  0  0
  1  7  1  0  0  0  0
  3  4  1  0  0  0  0
  3  5  1  0  0  0  0
  3  6  1  0  0  0  0
  7  8  1  0  0  0  0
  7 12  1  0  0  0  0
  8  9  1  0  0  0  0
  8 11  1  0  0  0  0
  8 13  1  0  0  0  0
  9 10  2  0  0  0  0
  9 17  1  0  0  0  0
 11 14  1  0  0  0  0
 11 15  1  0  0  0  0
 11 16  1  0  0  0  0
 17 18  1  0  0  0  0
 17 22  1  0  0  0  0
 18 19  1  0  0  0  0
 18 21  1  0  0  0  0
 18 23  1  0  0  0  0
 19 20  2  0  0  0  0
 19 27  1  0  0  0  0
 21 24  1  0  0  0  0
 21 25  1  0  0  0  0
 21 26  1  0  0  0  0
 27 28  1  0  0  0  0
 27 32  1  0  0  0  0
 28 29  1  0  0  0  0
 28 31  1  0  0  0  0
 28 33  1  0  0  0  0
 29 30  2  0  0  0  0
 29 37  1  0  0  0  0
 31 34  1  0  0  0  0
 31 35  1  0  0  0  0
 31 36  1  0  0  0  0
 37 38  1  0  0  0  0
 37 39  1  0  0  0  0
 38 40  1  0  0  0  0
 38 41  1  0  0  0  0
 38 42  1  0  0  0  0
M  END
$$$$

  -OEChem-05262215353D

 42 41  0     1  0  0  0  0  0999 V2000
   -5.8961   -0.1548    1.5101 C   0  0  0  0  0  0  0  0  0  0  0  0
   -6.1102    0.8595    0.8646 O   0  0  0  0  0  0  0  0  0  0  0  0
   -7.0257   -1.1236    1.8037 C   0  0  0  0  0  0  0  0  0  0  0  0
   -7.1557   -1.2283    2.8836 H   0  0  0  0  0  0  0  0  0  0  0  0
   -7.9599   -0.7562    1.3700 H   0  0  0  0  0  0  0  0  0  0  0  0
   -6.7992   -2.1024    1.3744 H   0  0  0  0  0  0  0  0  0  0  0  0
   -4.6241   -0.4243    1.9679 N   0  0  0  0  0  0  0  0  0  0  0  0
   -3.4332    0.3586    1.6135 C   0  0  2  0  0  0  0  0  0  0  0  0
   -2.1773   -0.5307    1.4856 C   0  0  0  0  0  0  0  0  0  0  0  0
   -2.2225   -1.6888    1.8712 O   0  0  0  0  0  0  0  0  0  0  0  0
   -3.2302    1.4297    2.6900 C   0  0  0  0  0  0  0  0  0  0  0  0
   -4.4623   -1.3390    2.3895 H   0  0  0  0  0  0  0  0  0  0  0  0
   -3.5855    0.8454    0.6441 H   0  0  0  0  0  0  0  0  0  0  0  0
   -3.0650    0.9636    3.6669 H   0  0  0  0  0  0  0  0  0  0  0  0
   -2.3672    2.0590    2.4531 H   0  0  0  0  0  0  0  0  0  0  0  0
   -4.1151    2.0709    2.7553 H   0  0  0  0  0  0  0  0  0  0  0  0
   -1.0302   -0.0097    0.9088 N   0  0  0  0  0  0  0  0  0  0  0  0
    0.3276   -0.5927    0.7803 C   0  0  2  0  0  0  0  0  0  0  0  0
    0.6906   -2.0010    1.3277 C   0  0  0  0  0  0  0  0  0  0  0  0
    1.5070   -2.6682    0.7032 O   0  0  0  0  0  0  0  0  0  0  0  0
    1.2839    0.4216    1.4168 C   0  0  0  0  0  0  0  0  0  0  0  0
   -1.1284    0.9491    0.5878 H   0  0  0  0  0  0  0  0  0  0  0  0
    0.5419   -0.6467   -0.2928 H   0  0  0  0  0  0  0  0  0  0  0  0
    1.1022    0.4956    2.4939 H   0  0  0  0  0  0  0  0  0  0  0  0
    2.3231    0.1129    1.2610 H   0  0  0  0  0  0  0  0  0  0  0  0
    1.1510    1.4116    0.9699 H   0  0  0  0  0  0  0  0  0  0  0  0
    0.3068   -2.4365    2.5820 N   0  0  0  0  0  0  0  0  0  0  0  0
    0.6430   -3.7546    3.1334 C   0  0  2  0  0  0  0  0  0  0  0  0
   -0.4171   -4.2462    4.1419 C   0  0  0  0  0  0  0  0  0  0  0  0
   -1.1247   -3.4495    4.7485 O   0  0  0  0  0  0  0  0  0  0  0  0
    2.0127   -3.6641    3.8137 C   0  0  0  0  0  0  0  0  0  0  0  0
   -0.5624   -2.0181    2.9261 H   0  0  0  0  0  0  0  0  0  0  0  0
    0.6880   -4.4882    2.3215 H   0  0  0  0  0  0  0  0  0  0  0  0
    1.9863   -2.9300    4.6254 H   0  0  0  0  0  0  0  0  0  0  0  0
    2.2995   -4.6346    4.2292 H   0  0  0  0  0  0  0  0  0  0  0  0
    2.7772   -3.3591    3.0924 H   0  0  0  0  0  0  0  0  0  0  0  0
   -0.5587   -5.5992    4.3922 N   0  0  0  0  0  0  0  0  0  0  0  0
   -1.5449   -6.1452    5.3165 C   0  0  0  0  0  0  0  0  0  0  0  0
    0.0182   -6.2380    3.8532 H   0  0  0  0  0  0  0  0  0  0  0  0
   -1.3921   -5.7421    6.3233 H   0  0  0  0  0  0  0  0  0  0  0  0
   -2.5588   -5.8955    4.9867 H   0  0  0  0  0  0  0  0  0  0  0  0
   -1.4550   -7.2347    5.3645 H   0  0  0  0  0  0  0  0  0  0  0  0
  1  2  2  0  0  0  0
  1  3  1  0  0  0  0
  1  7  1  0  0  0  0
  3  4  1  0  0  0  0
  3  5  1  0  0  0  0
  3  6  1  0  0  0  0
  7  8  1  0  0  0  0
  7 12  1  0  0  0  0
  8  9  1  0  0  0  0
  8 11  1  0  0  0  0
  8 13  1  0  0  0  0
  9 10  2  0  0  0  0
  9 17  1  0  0  0  0
 11 14  1  0  0  0  0
 11 15  1  0  0  0  0
 11 16  1  0  0  0  0
 17 18  1  0  0  0  0
 17 22  1  0  0  0  0
 18 19  1  0  0  0  0
 18 21  1  0  0  0  0
 18 23  1  0  0  0  0
 19 20  2  0  0  0  0
 19 27  1  0  0  0  0
 21 24  1  0  0  0  0
 21 25  1  0  0  0  0
 21 26  1  0  0  0  0
 27 28  1  0  0  0  0
 27 32  1  0  0  0  0
 28 29  1  0  0  0  0
 28 31  1  0  0  0  0
 28 33  1  0  0  0  0
 29 30  2  0  0  0  0
 29 37  1  0  0  0  0
 31 34  1  0  0  0  0
 31 35  1  0  0  0  0
 31 36  1  0  0  0  0
 37 38  1  0  0  0  0
 37 39  1  0  0  0  0
 38 40  1  0  0  0  0
 38 41  1  0  0  0  0
 38 42  1  0  0  0  0
M  END
$$$$

  -OEChem-05262215353D

 42 41  0     1  0  0  0  0  0999 V2000
   -5.9323    0.0481    1.6756 C   0  0  0  0  0  0  0  0  0  0  0  0
   -6.1471    1.1242    1.1396 O   0  0  0  0  0  0  0  0  0  0  0  0
   -7.0831   -0.8786    2.0195 C   0  0  0  0  0  0  0  0  0  0  0  0
   -7.0584   -1.1238    3.0843 H   0  0  0  0  0  0  0  0  0  0  0  0
   -8.0376   -0.3960    1.7911 H   0  0  0  0  0  0  0  0  0  0  0  0
   -7.0055   -1.8009    1.4384 H   0  0  0  0  0  0  0  0  0  0  0  0
   -4.6394   -0.3310    1.9650 N   0  0  0  0  0  0  0  0  0  0  0  0
   -3.4423    0.4139    1.5542 C   0  0  2  0  0  0  0  0  0  0  0  0
   -2.2285   -0.5223    1.3637 C   0  0  0  0  0  0  0  0  0  0  0  0
   -2.3500   -1.7103    1.6164 O   0  0  0  0  0  0  0  0  0  0  0  0
   -3.1468    1.4746    2.6207 C   0  0  0  0  0  0  0  0  0  0  0  0
   -4.4945   -1.2863    2.2942 H   0  0  0  0  0  0  0  0  0  0  0  0
   -3.6293    0.9073    0.5943 H   0  0  0  0  0  0  0  0  0  0  0  0
   -2.9568    1.0005    3.5893 H   0  0  0  0  0  0  0  0  0  0  0  0
   -2.2711    2.0689    2.3446 H   0  0  0  0  0  0  0  0  0  0  0  0
   -3.9996    2.1527    2.7272 H   0  0  0  0  0  0  0  0  0  0  0  0
   -1.0435   -0.0222    0.8494 N   0  0  0  0  0  0  0  0  0  0  0  0
    0.3176   -0.6145    0.8077 C   0  0  2  0  0  0  0  0  0  0  0  0
    0.6816   -2.0141    1.3856 C   0  0  0  0  0  0  0  0  0  0  0  0
    1.6746   -2.5714    0.9327 O   0  0  0  0  0  0  0  0  0  0  0  0
    1.2274    0.4156    1.4873 C   0  0  0  0  0  0  0  0  0  0  0  0
   -1.0923    0.9629    0.6059 H   0  0  0  0  0  0  0  0  0  0  0  0
    0.5908   -0.6775   -0.2510 H   0  0  0  0  0  0  0  0  0  0  0  0
    0.9868    0.4944    2.5525 H   0  0  0  0  0  0  0  0  0  0  0  0
    2.2773    0.1189    1.3913 H   0  0  0  0  0  0  0  0  0  0  0  0
    1.1098    1.4009    1.0262 H   0  0  0  0  0  0  0  0  0  0  0  0
    0.0481   -2.6030    2.4628 N   0  0  0  0  0  0  0  0  0  0  0  0
    0.3551   -3.9438    2.9749 C   0  0  2  0  0  0  0  0  0  0  0  0
   -0.8778   -4.6100    3.6218 C   0  0  0  0  0  0  0  0  0  0  0  0
   -1.7287   -3.9371    4.1928 O   0  0  0  0  0  0  0  0  0  0  0  0
    1.4891   -3.8319    3.9983 C   0  0  0  0  0  0  0  0  0  0  0  0
   -0.8983   -2.2565    2.6472 H   0  0  0  0  0  0  0  0  0  0  0  0
    0.6777   -4.5839    2.1472 H   0  0  0  0  0  0  0  0  0  0  0  0
    1.1891   -3.1885    4.8316 H   0  0  0  0  0  0  0  0  0  0  0  0
    1.7453   -4.8191    4.3943 H   0  0  0  0  0  0  0  0  0  0  0  0
    2.3820   -3.4045    3.5317 H   0  0  0  0  0  0  0  0  0  0  0  0
   -1.0193   -5.9854    3.5880 N   0  0  0  0  0  0  0  0  0  0  0  0
   -2.1695   -6.6853    4.1466 C   0  0  0  0  0  0  0  0  0  0  0  0
   -0.3181   -6.5163    3.0801 H   0  0  0  0  0  0  0  0  0  0  0  0
   -2.2530   -6.4891    5.2207 H   0  0  0  0  0  0  0  0  0  0  0  0
   -3.0922   -6.3582    3.6556 H   0  0  0  0  0  0  0  0  0  0  0  0
   -2.0637   -7.7644    4.0003 H   0  0  0  0  0  0  0  0  0  0  0  0
  1  2  2  0  0  0  0
  1  3  1  0  0  0  0
  1  7  1  0  0  0  0
  3  4  1  0  0  0  0
  3  5  1  0  0  0  0
  3  6  1  0  0  0  0
  7  8  1  0  0  0  0
  7 12  1  0  0  0  0
  8  9  1  0  0  0  0
  8 11  1  0  0  0  0
  8 13  1  0  0  0  0
  9 10  2  0  0  0  0
  9 17  1  0  0  0  0
 11 14  1  0  0  0  0
 11 15  1  0  0  0  0
 11 16  1  0  0  0  0
 17 18  1  0  0  0  0
 17 22  1  0  0  0  0
 18 19  1  0  0  0  0
 18 21  1  0  0  0  0
 18 23  1  0  0  0  0
 19 20  2  0  0  0  0
 19 27  1  0  0  0  0
 21 24  1  0  0  0  0
 21 25  1  0  0  0  0
 21 26  1  0  0  0  0
 27 28  1  0  0  0  0
 27 32  1  0  0  0  0
 28 29  1  0  0  0  0
 28 31  1  0  0  0  0
 28 33  1  0  0  0  0
 29 30  2  0  0  0  0
 29 37  1  0  0  0  0
 31 34  1  0  0  0  0
 31 35  1  0  0  0  0
 31 36  1  0  0  0  0
 37 38  1  0  0  0  0
 37 39  1  0  0  0  0
 38 40  1  0  0  0  0
 38 41  1  0  0  0  0
 38 42  1  0  0  0  0
M  END
$$$$

  -OEChem-05262215353D

 42 41  0     1  0  0  0  0  0999 V2000
   -5.3866   -0.9148    2.2178 C   0  0  0  0  0  0  0  0  0  0  0  0
   -6.0174    0.0531    1.8197 O   0  0  0  0  0  0  0  0  0  0  0  0
   -6.1094   -2.1958    2.5880 C   0  0  0  0  0  0  0  0  0  0  0  0
   -5.9177   -2.4421    3.6349 H   0  0  0  0  0  0  0  0  0  0  0  0
   -7.1865   -2.0792    2.4422 H   0  0  0  0  0  0  0  0  0  0  0  0
   -5.7533   -3.0164    1.9601 H   0  0  0  0  0  0  0  0  0  0  0  0
   -4.0157   -0.8559    2.3410 N   0  0  0  0  0  0  0  0  0  0  0  0
   -3.1842    0.2001    1.7377 C   0  0  2  0  0  0  0  0  0  0  0  0
   -2.2300   -0.3744    0.6649 C   0  0  0  0  0  0  0  0  0  0  0  0
   -2.4422   -1.4759    0.1773 O   0  0  0  0  0  0  0  0  0  0  0  0
   -2.4209    0.8706    2.8853 C   0  0  0  0  0  0  0  0  0  0  0  0
   -3.5669   -1.7571    2.5391 H   0  0  0  0  0  0  0  0  0  0  0  0
   -3.8072    0.9535    1.2443 H   0  0  0  0  0  0  0  0  0  0  0  0
   -1.7448    0.1559    3.3662 H   0  0  0  0  0  0  0  0  0  0  0  0
   -1.8355    1.7192    2.5203 H   0  0  0  0  0  0  0  0  0  0  0  0
   -3.1252    1.2410    3.6372 H   0  0  0  0  0  0  0  0  0  0  0  0
   -1.0411    0.2426    0.3183 N   0  0  0  0  0  0  0  0  0  0  0  0
    0.3090   -0.3631    0.4744 C   0  0  2  0  0  0  0  0  0  0  0  0
    0.5223   -1.7914    1.0696 C   0  0  0  0  0  0  0  0  0  0  0  0
    1.6454   -2.2778    1.0552 O   0  0  0  0  0  0  0  0  0  0  0  0
    1.1180    0.6407    1.3060 C   0  0  0  0  0  0  0  0  0  0  0  0
   -1.0559    1.2332    0.5411 H   0  0  0  0  0  0  0  0  0  0  0  0
    0.7443   -0.4143   -0.5292 H   0  0  0  0  0  0  0  0  0  0  0  0
    0.7326    0.6906    2.3294 H   0  0  0  0  0  0  0  0  0  0  0  0
    2.1706    0.3409    1.3485 H   0  0  0  0  0  0  0  0  0  0  0  0
    1.0693    1.6394    0.8607 H   0  0  0  0  0  0  0  0  0  0  0  0
   -0.4630   -2.4637    1.7636 N   0  0  0  0  0  0  0  0  0  0  0  0
   -0.3569   -3.7531    2.4472 C   0  0  2  0  0  0  0  0  0  0  0  0
   -1.7710   -4.2645    2.8082 C   0  0  0  0  0  0  0  0  0  0  0  0
   -2.7117   -3.4775    2.9180 O   0  0  0  0  0  0  0  0  0  0  0  0
    0.4774   -3.6006    3.7253 C   0  0  0  0  0  0  0  0  0  0  0  0
   -1.4147   -2.1794    1.5231 H   0  0  0  0  0  0  0  0  0  0  0  0
    0.1187   -4.4794    1.7804 H   0  0  0  0  0  0  0  0  0  0  0  0
    0.0270   -2.8539    4.3869 H   0  0  0  0  0  0  0  0  0  0  0  0
    0.5347   -4.5526    4.2613 H   0  0  0  0  0  0  0  0  0  0  0  0
    1.4969   -3.2830    3.4865 H   0  0  0  0  0  0  0  0  0  0  0  0
   -1.9941   -5.6122    3.0188 N   0  0  0  0  0  0  0  0  0  0  0  0
   -3.3086   -6.1705    3.3125 C   0  0  0  0  0  0  0  0  0  0  0  0
   -1.2111   -6.2450    2.8804 H   0  0  0  0  0  0  0  0  0  0  0  0
   -3.7170   -5.7308    4.2285 H   0  0  0  0  0  0  0  0  0  0  0  0
   -4.0015   -5.9738    2.4875 H   0  0  0  0  0  0  0  0  0  0  0  0
   -3.2365   -7.2533    3.4532 H   0  0  0  0  0  0  0  0  0  0  0  0
  1  2  2  0  0  0  0
  1  3  1  0  0  0  0
  1  7  1  0  0  0  0
  3  4  1  0  0  0  0
  3  5  1  0  0  0  0
  3  6  1  0  0  0  0
  7  8  1  0  0  0  0
  7 12  1  0  0  0  0
  8  9  1  0  0  0  0
  8 11  1  0  0  0  0
  8 13  1  0  0  0  0
  9 10  2  0  0  0  0
  9 17  1  0  0  0  0
 11 14  1  0  0  0  0
 11 15  1  0  0  0  0
 11 16  1  0  0  0  0
 17 18  1  0  0  0  0
 17 22  1  0  0  0  0
 18 19  1  0  0  0  0
 18 21  1  0  0  0  0
 18 23  1  0  0  0  0
 19 20  2  0  0  0  0
 19 27  1  0  0  0  0
 21 24  1  0  0  0  0
 21 25  1  0  0  0  0
 21 26  1  0  0  0  0
 27 28  1  0  0  0  0
 27 32  1  0  0  0  0
 28 29  1  0  0  0  0
 28 31  1  0  0  0  0
 28 33  1  0  0  0  0
 29 30  2  0  0  0  0
 29 37  1  0  0  0  0
 31 34  1  0  0  0  0
 31 35  1  0  0  0  0
 31 36  1  0  0  0  0
 37 38  1  0  0  0  0
 37 39  1  0  0  0  0
 38 40  1  0  0  0  0
 38 41  1  0  0  0  0
 38 42  1  0  0  0  0
M  END
$$$$

  -OEChem-05262215353D

 42 41  0     1  0  0  0  0  0999 V2000
   -4.3057   -0.8420    1.1066 C   0  0  0  0  0  0  0  0  0  0  0  0
   -4.1839    0.2068    0.4880 O   0  0  0  0  0  0  0  0  0  0  0  0
   -4.8249   -2.0846    0.4104 C   0  0  0  0  0  0  0  0  0  0  0  0
   -5.2929   -1.8174   -0.5408 H   0  0  0  0  0  0  0  0  0  0  0  0
   -3.9992   -2.7746    0.2195 H   0  0  0  0  0  0  0  0  0  0  0  0
   -5.5661   -2.5831    1.0396 H   0  0  0  0  0  0  0  0  0  0  0  0
   -3.8420   -0.9169    2.4020 N   0  0  0  0  0  0  0  0  0  0  0  0
   -3.1430    0.1857    3.0807 C   0  0  2  0  0  0  0  0  0  0  0  0
   -1.6691    0.2748    2.6207 C   0  0  0  0  0  0  0  0  0  0  0  0
   -0.7419    0.1382    3.4087 O   0  0  0  0  0  0  0  0  0  0  0  0
   -3.2890   -0.0492    4.5891 C   0  0  0  0  0  0  0  0  0  0  0  0
   -3.7030   -1.8674    2.7633 H   0  0  0  0  0  0  0  0  0  0  0  0
   -3.6244    1.1398    2.8401 H   0  0  0  0  0  0  0  0  0  0  0  0
   -2.8267   -0.9988    4.8777 H   0  0  0  0  0  0  0  0  0  0  0  0
   -2.8050    0.7572    5.1492 H   0  0  0  0  0  0  0  0  0  0  0  0
   -4.3465   -0.0771    4.8689 H   0  0  0  0  0  0  0  0  0  0  0  0
   -1.3887    0.3862    1.2726 N   0  0  0  0  0  0  0  0  0  0  0  0
   -0.6455   -0.6059    0.4571 C   0  0  2  0  0  0  0  0  0  0  0  0
   -0.0796   -1.9350    1.0411 C   0  0  0  0  0  0  0  0  0  0  0  0
    0.2167   -2.8172    0.2430 O   0  0  0  0  0  0  0  0  0  0  0  0
    0.5165    0.1789   -0.1606 C   0  0  0  0  0  0  0  0  0  0  0  0
   -2.2323    0.7018    0.7846 H   0  0  0  0  0  0  0  0  0  0  0  0
   -1.3202   -0.9186   -0.3472 H   0  0  0  0  0  0  0  0  0  0  0  0
    1.2147    0.5012    0.6186 H   0  0  0  0  0  0  0  0  0  0  0  0
    1.0601   -0.4409   -0.8810 H   0  0  0  0  0  0  0  0  0  0  0  0
    0.1452    1.0653   -0.6841 H   0  0  0  0  0  0  0  0  0  0  0  0
   -0.2046   -2.3241    2.3594 N   0  0  0  0  0  0  0  0  0  0  0  0
   -0.3864   -3.7127    2.7859 C   0  0  2  0  0  0  0  0  0  0  0  0
   -1.8028   -4.2267    2.4429 C   0  0  0  0  0  0  0  0  0  0  0  0
   -2.8004   -3.5789    2.7567 O   0  0  0  0  0  0  0  0  0  0  0  0
   -0.1403   -3.7704    4.2949 C   0  0  0  0  0  0  0  0  0  0  0  0
   -0.4577   -1.5833    3.0155 H   0  0  0  0  0  0  0  0  0  0  0  0
    0.3525   -4.3509    2.2900 H   0  0  0  0  0  0  0  0  0  0  0  0
   -0.8545   -3.1322    4.8257 H   0  0  0  0  0  0  0  0  0  0  0  0
   -0.2516   -4.7958    4.6601 H   0  0  0  0  0  0  0  0  0  0  0  0
    0.8725   -3.4267    4.5275 H   0  0  0  0  0  0  0  0  0  0  0  0
   -1.9604   -5.4227    1.7687 N   0  0  0  0  0  0  0  0  0  0  0  0
   -3.2522   -5.9257    1.3176 C   0  0  0  0  0  0  0  0  0  0  0  0
   -1.1167   -5.8404    1.3841 H   0  0  0  0  0  0  0  0  0  0  0  0
   -3.9633   -5.9650    2.1497 H   0  0  0  0  0  0  0  0  0  0  0  0
   -3.6616   -5.2815    0.5329 H   0  0  0  0  0  0  0  0  0  0  0  0
   -3.1429   -6.9372    0.9142 H   0  0  0  0  0  0  0  0  0  0  0  0
  1  2  2  0  0  0  0
  1  3  1  0  0  0  0
  1  7  1  0  0  0  0
  3  4  1  0  0  0  0
  3  5  1  0  0  0  0
  3  6  1  0  0  0  0
  7  8  1  0  0  0  0
  7 12  1  0  0  0  0
  8  9  1  0  0  0  0
  8 11  1  0  0  0  0
  8 13  1  0  0  0  0
  9 10  2  0  0  0  0
  9 17  1  0  0  0  0
 11 14  1  0  0  0  0
 11 15  1  0  0  0  0
 11 16  1  0  0  0  0
 17 18  1  0  0  0  0
 17 22  1  0  0  0  0
 18 19  1  0  0  0  0
 18 21  1  0  0  0  0
 18 23  1  0  0  0  0
 19 20  2  0  0  0  0
 19 27  1  0  0  0  0
 21 24  1  0  0  0  0
 21 25  1  0  0  0  0
 21 26  1  0  0  0  0
 27 28  1  0  0  0  0
 27 32  1  0  0  0  0
 28 29  1  0  0  0  0
 28 31  1  0  0  0  0
 28 33  1  0  0  0  0
 29 30  2  0  0  0  0
 29 37  1  0  0  0  0
 31 34  1  0  0  0  0
 31 35  1  0  0  0  0
 31 36  1  0  0  0  0
 37 38  1  0  0  0  0
 37 39  1  0  0  0  0
 38 40  1  0  0  0  0
 38 41  1  0  0  0  0
 38 42  1  0  0  0  0
M  END
$$$$

  -OEChem-05262215353D

 42 41  0     1  0  0  0  0  0999 V2000
   -4.2047   -0.5575    0.8833 C   0  0  0  0  0  0  0  0  0  0  0  0
   -3.9589    0.5527    0.4311 O   0  0  0  0  0  0  0  0  0  0  0  0
   -4.7854   -1.6362   -0.0107 C   0  0  0  0  0  0  0  0  0  0  0  0
   -5.6666   -2.0769    0.4614 H   0  0  0  0  0  0  0  0  0  0  0  0
   -5.0779   -1.2117   -0.9750 H   0  0  0  0  0  0  0  0  0  0  0  0
   -4.0427   -2.4203   -0.1791 H   0  0  0  0  0  0  0  0  0  0  0  0
   -3.8388   -0.8536    2.1789 N   0  0  0  0  0  0  0  0  0  0  0  0
   -3.0927    0.0753    3.0428 C   0  0  2  0  0  0  0  0  0  0  0  0
   -1.5886    0.0733    2.6827 C   0  0  0  0  0  0  0  0  0  0  0  0
   -0.7449   -0.3307    3.4717 O   0  0  0  0  0  0  0  0  0  0  0  0
   -3.3657   -0.3366    4.4942 C   0  0  0  0  0  0  0  0  0  0  0  0
   -3.7834   -1.8547    2.3960 H   0  0  0  0  0  0  0  0  0  0  0  0
   -3.4660    1.0962    2.9077 H   0  0  0  0  0  0  0  0  0  0  0  0
   -3.0126   -1.3564    4.6788 H   0  0  0  0  0  0  0  0  0  0  0  0
   -2.8508    0.3396    5.1841 H   0  0  0  0  0  0  0  0  0  0  0  0
   -4.4385   -0.2957    4.7055 H   0  0  0  0  0  0  0  0  0  0  0  0
   -1.2158    0.3820    1.3886 N   0  0  0  0  0  0  0  0  0  0  0  0
   -0.4145   -0.4678    0.4738 C   0  0  2  0  0  0  0  0  0  0  0  0
    0.1248   -1.8750    0.8737 C   0  0  0  0  0  0  0  0  0  0  0  0
    0.6994   -2.5276    0.0103 O   0  0  0  0  0  0  0  0  0  0  0  0
    0.7661    0.4171    0.0563 C   0  0  0  0  0  0  0  0  0  0  0  0
   -2.0023    0.8244    0.9038 H   0  0  0  0  0  0  0  0  0  0  0  0
   -1.0377   -0.6534   -0.4067 H   0  0  0  0  0  0  0  0  0  0  0  0
    1.4230    0.6018    0.9124 H   0  0  0  0  0  0  0  0  0  0  0  0
    1.3515   -0.0642   -0.7337 H   0  0  0  0  0  0  0  0  0  0  0  0
    0.4089    1.3794   -0.3234 H   0  0  0  0  0  0  0  0  0  0  0  0
   -0.3321   -2.5726    1.9737 N   0  0  0  0  0  0  0  0  0  0  0  0
   -0.5392   -4.0222    2.0466 C   0  0  2  0  0  0  0  0  0  0  0  0
   -2.0302   -4.3960    1.8868 C   0  0  0  0  0  0  0  0  0  0  0  0
   -2.9212   -3.5892    2.1502 O   0  0  0  0  0  0  0  0  0  0  0  0
   -0.0087   -4.4941    3.4011 C   0  0  0  0  0  0  0  0  0  0  0  0
   -0.7603   -1.9980    2.7010 H   0  0  0  0  0  0  0  0  0  0  0  0
    0.0255   -4.5301    1.2581 H   0  0  0  0  0  0  0  0  0  0  0  0
   -0.5595   -4.0145    4.2169 H   0  0  0  0  0  0  0  0  0  0  0  0
   -0.1151   -5.5788    3.4981 H   0  0  0  0  0  0  0  0  0  0  0  0
    1.0516   -4.2398    3.5004 H   0  0  0  0  0  0  0  0  0  0  0  0
   -2.3841   -5.6607    1.4560 N   0  0  0  0  0  0  0  0  0  0  0  0
   -3.7636   -6.0922    1.2674 C   0  0  0  0  0  0  0  0  0  0  0  0
   -1.6317   -6.2969    1.2069 H   0  0  0  0  0  0  0  0  0  0  0  0
   -4.3272   -5.9949    2.2012 H   0  0  0  0  0  0  0  0  0  0  0  0
   -4.2520   -5.4894    0.4948 H   0  0  0  0  0  0  0  0  0  0  0  0
   -3.7920   -7.1410    0.9565 H   0  0  0  0  0  0  0  0  0  0  0  0
  1  2  2  0  0  0  0
  1  3  1  0  0  0  0
  1  7  1  0  0  0  0
  3  4  1  0  0  0  0
  3  5  1  0  0  0  0
  3  6  1  0  0  0  0
  7  8  1  0  0  0  0
  7 12  1  0  0  0  0
  8  9  1  0  0  0  0
  8 11  1  0  0  0  0
  8 13  1  0  0  0  0
  9 10  2  0  0  0  0
  9 17  1  0  0  0  0
 11 14  1  0  0  0  0
 11 15  1  0  0  0  0
 11 16  1  0  0  0  0
 17 18  1  0  0  0  0
 17 22  1  0  0  0  0
 18 19  1  0  0  0  0
 18 21  1  0  0  0  0
 18 23  1  0  0  0  0
 19 20  2  0  0  0  0
 19 27  1  0  0  0  0
 21 24  1  0  0  0  0
 21 25  1  0  0  0  0
 21 26  1  0  0  0  0
 27 28  1  0  0  0  0
 27 32  1  0  0  0  0
 28 29  1  0  0  0  0
 28 31  1  0  0  0  0
 28 33  1  0  0  0  0
 29 30  2  0  0  0  0
 29 37  1  0  0  0  0
 31 34  1  0  0  0  0
 31 35  1  0  0  0  0
 31 36  1  0  0  0  0
 37 38  1  0  0  0  0
 37 39  1  0  0  0  0
 38 40  1  0  0  0  0
 38 41  1  0  0  0  0
 38 42  1  0  0  0  0
M  END
$$$$

  -OEChem-05262215353D

 42 41  0     1  0  0  0  0  0999 V2000
   -4.1352   -0.7148    0.6889 C   0  0  0  0  0  0  0  0  0  0  0  0
   -3.9346    0.4250    0.2908 O   0  0  0  0  0  0  0  0  0  0  0  0
   -4.6120   -1.7879   -0.2705 C   0  0  0  0  0  0  0  0  0  0  0  0
   -4.9857   -1.3333   -1.1920 H   0  0  0  0  0  0  0  0  0  0  0  0
   -3.7862   -2.4604   -0.5153 H   0  0  0  0  0  0  0  0  0  0  0  0
   -5.4166   -2.3679    0.1882 H   0  0  0  0  0  0  0  0  0  0  0  0
   -3.8095   -1.0418    1.9878 N   0  0  0  0  0  0  0  0  0  0  0  0
   -3.1636   -0.1048    2.9219 C   0  0  2  0  0  0  0  0  0  0  0  0
   -1.6489    0.0040    2.6291 C   0  0  0  0  0  0  0  0  0  0  0  0
   -0.8253   -0.4915    3.3856 O   0  0  0  0  0  0  0  0  0  0  0  0
   -3.4705   -0.5943    4.3423 C   0  0  0  0  0  0  0  0  0  0  0  0
   -3.7503   -2.0465    2.1870 H   0  0  0  0  0  0  0  0  0  0  0  0
   -3.5970    0.8952    2.8121 H   0  0  0  0  0  0  0  0  0  0  0  0
   -3.0757   -1.6039    4.4974 H   0  0  0  0  0  0  0  0  0  0  0  0
   -3.0158    0.0735    5.0810 H   0  0  0  0  0  0  0  0  0  0  0  0
   -4.5515   -0.6137    4.5119 H   0  0  0  0  0  0  0  0  0  0  0  0
   -1.2432    0.4521    1.3857 N   0  0  0  0  0  0  0  0  0  0  0  0
   -0.3689   -0.2858    0.4406 C   0  0  2  0  0  0  0  0  0  0  0  0
    0.1923   -1.7006    0.7789 C   0  0  0  0  0  0  0  0  0  0  0  0
    1.0255   -2.2045    0.0351 O   0  0  0  0  0  0  0  0  0  0  0  0
    0.7885    0.6756    0.1391 C   0  0  0  0  0  0  0  0  0  0  0  0
   -2.0318    0.8959    0.9060 H   0  0  0  0  0  0  0  0  0  0  0  0
   -0.9469   -0.4289   -0.4775 H   0  0  0  0  0  0  0  0  0  0  0  0
    1.4124    0.8086    1.0287 H   0  0  0  0  0  0  0  0  0  0  0  0
    1.4148    0.2876   -0.6705 H   0  0  0  0  0  0  0  0  0  0  0  0
    0.4051    1.6534   -0.1679 H   0  0  0  0  0  0  0  0  0  0  0  0
   -0.5162   -2.5609    1.5929 N   0  0  0  0  0  0  0  0  0  0  0  0
   -0.5468   -4.0233    1.5320 C   0  0  2  0  0  0  0  0  0  0  0  0
   -2.0007   -4.5458    1.4943 C   0  0  0  0  0  0  0  0  0  0  0  0
   -2.9409   -3.8326    1.8456 O   0  0  0  0  0  0  0  0  0  0  0  0
    0.1936   -4.5593    2.7585 C   0  0  0  0  0  0  0  0  0  0  0  0
   -1.0778   -2.1086    2.3139 H   0  0  0  0  0  0  0  0  0  0  0  0
   -0.0414   -4.3758    0.6269 H   0  0  0  0  0  0  0  0  0  0  0  0
   -0.2949   -4.2231    3.6789 H   0  0  0  0  0  0  0  0  0  0  0  0
    0.2096   -5.6532    2.7505 H   0  0  0  0  0  0  0  0  0  0  0  0
    1.2269   -4.1977    2.7619 H   0  0  0  0  0  0  0  0  0  0  0  0
   -2.2642   -5.8259    1.0444 N   0  0  0  0  0  0  0  0  0  0  0  0
   -3.6068   -6.3866    0.9495 C   0  0  0  0  0  0  0  0  0  0  0  0
   -1.4740   -6.3861    0.7362 H   0  0  0  0  0  0  0  0  0  0  0  0
   -4.0933   -6.3861    1.9306 H   0  0  0  0  0  0  0  0  0  0  0  0
   -4.2178   -5.8036    0.2524 H   0  0  0  0  0  0  0  0  0  0  0  0
   -3.5604   -7.4186    0.5884 H   0  0  0  0  0  0  0  0  0  0  0  0
  1  2  2  0  0  0  0
  1  3  1  0  0  0  0
  1  7  1  0  0  0  0
  3  4  1  0  0  0  0
  3  5  1  0  0  0  0
  3  6  1  0  0  0  0
  7  8  1  0  0  0  0
  7 12  1  0  0  0  0
  8  9  1  0  0  0  0
  8 11  1  0  0  0  0
  8 13  1  0  0  0  0
  9 10  2  0  0  0  0
  9 17  1  0  0  0  0
 11 14  1  0  0  0  0
 11 15  1  0  0  0  0
 11 16  1  0  0  0  0
 17 18  1  0  0  0  0
 17 22  1  0  0  0  0
 18 19  1  0  0  0  0
 18 21  1  0  0  0  0
 18 23  1  0  0  0  0
 19 20  2  0  0  0  0
 19 27  1  0  0  0  0
 21 24  1  0  0  0  0
 21 25  1  0  0  0  0
 21 26  1  0  0  0  0
 27 28  1  0  0  0  0
 27 32  1  0  0  0  0
 28 29  1  0  0  0  0
 28 31  1  0  0  0  0
 28 33  1  0  0  0  0
 29 30  2  0  0  0  0
 29 37  1  0  0  0  0
 31 34  1  0  0  0  0
 31 35  1  0  0  0  0
 31 36  1  0  0  0  0
 37 38  1  0  0  0  0
 37 39  1  0  0  0  0
 38 40  1  0  0  0  0
 38 41  1  0  0  0  0
 38 42  1  0  0  0  0
M  END
$$$$

  -OEChem-05262215353D

 42 41  0     1  0  0  0  0  0999 V2000
   -4.7067    0.2140    1.0558 C   0  0  0  0  0  0  0  0  0  0  0  0
   -4.0175    1.1639    0.7116 O   0  0  0  0  0  0  0  0  0  0  0  0
   -5.8448   -0.2714    0.1786 C   0  0  0  0  0  0  0  0  0  0  0  0
   -6.7804   -0.2629    0.7430 H   0  0  0  0  0  0  0  0  0  0  0  0
   -5.9545    0.3793   -0.6935 H   0  0  0  0  0  0  0  0  0  0  0  0
   -5.6442   -1.2897   -0.1647 H   0  0  0  0  0  0  0  0  0  0  0  0
   -4.4001   -0.4555    2.2224 N   0  0  0  0  0  0  0  0  0  0  0  0
   -3.2615   -0.1128    3.0879 C   0  0  2  0  0  0  0  0  0  0  0  0
   -1.9204   -0.5970    2.4864 C   0  0  0  0  0  0  0  0  0  0  0  0
   -1.3222   -1.5397    2.9811 O   0  0  0  0  0  0  0  0  0  0  0  0
   -3.5445   -0.7005    4.4765 C   0  0  0  0  0  0  0  0  0  0  0  0
   -4.9091   -1.3156    2.4109 H   0  0  0  0  0  0  0  0  0  0  0  0
   -3.1969    0.9753    3.1972 H   0  0  0  0  0  0  0  0  0  0  0  0
   -3.6368   -1.7902    4.4247 H   0  0  0  0  0  0  0  0  0  0  0  0
   -2.7288   -0.4561    5.1643 H   0  0  0  0  0  0  0  0  0  0  0  0
   -4.4731   -0.2890    4.8836 H   0  0  0  0  0  0  0  0  0  0  0  0
   -1.4371    0.0492    1.3611 N   0  0  0  0  0  0  0  0  0  0  0  0
   -0.4469   -0.4044    0.3551 C   0  0  2  0  0  0  0  0  0  0  0  0
    0.2291   -1.8043    0.4575 C   0  0  0  0  0  0  0  0  0  0  0  0
    1.3697   -1.9841    0.0435 O   0  0  0  0  0  0  0  0  0  0  0  0
    0.6095    0.7099    0.3168 C   0  0  0  0  0  0  0  0  0  0  0  0
   -2.0837    0.7727    1.0321 H   0  0  0  0  0  0  0  0  0  0  0  0
   -0.9618   -0.4210   -0.6101 H   0  0  0  0  0  0  0  0  0  0  0  0
    1.1880    0.7151    1.2461 H   0  0  0  0  0  0  0  0  0  0  0  0
    1.2988    0.5612   -0.5204 H   0  0  0  0  0  0  0  0  0  0  0  0
    0.1348    1.6883    0.1945 H   0  0  0  0  0  0  0  0  0  0  0  0
   -0.5305   -2.9202    0.7452 N   0  0  0  0  0  0  0  0  0  0  0  0
   -0.0438   -4.3024    0.7606 C   0  0  2  0  0  0  0  0  0  0  0  0
   -1.1984   -5.3144    0.5956 C   0  0  0  0  0  0  0  0  0  0  0  0
   -2.3626   -4.9873    0.8076 O   0  0  0  0  0  0  0  0  0  0  0  0
    0.6906   -4.5457    2.0836 C   0  0  0  0  0  0  0  0  0  0  0  0
   -1.3694   -2.7314    1.2947 H   0  0  0  0  0  0  0  0  0  0  0  0
    0.6502   -4.4528   -0.0725 H   0  0  0  0  0  0  0  0  0  0  0  0
    0.0151   -4.3831    2.9300 H   0  0  0  0  0  0  0  0  0  0  0  0
    1.0702   -5.5704    2.1305 H   0  0  0  0  0  0  0  0  0  0  0  0
    1.5382   -3.8602    2.1807 H   0  0  0  0  0  0  0  0  0  0  0  0
   -0.9293   -6.6127    0.2015 N   0  0  0  0  0  0  0  0  0  0  0  0
   -1.9625   -7.6230    0.0098 C   0  0  0  0  0  0  0  0  0  0  0  0
    0.0396   -6.8555    0.0172 H   0  0  0  0  0  0  0  0  0  0  0  0
   -2.4942   -7.8102    0.9486 H   0  0  0  0  0  0  0  0  0  0  0  0
   -2.6845   -7.2947   -0.7452 H   0  0  0  0  0  0  0  0  0  0  0  0
   -1.5154   -8.5629   -0.3271 H   0  0  0  0  0  0  0  0  0  0  0  0
  1  2  2  0  0  0  0
  1  3  1  0  0  0  0
  1  7  1  0  0  0  0
  3  4  1  0  0  0  0
  3  5  1  0  0  0  0
  3  6  1  0  0  0  0
  7  8  1  0  0  0  0
  7 12  1  0  0  0  0
  8  9  1  0  0  0  0
  8 11  1  0  0  0  0
  8 13  1  0  0  0  0
  9 10  2  0  0  0  0
  9 17  1  0  0  0  0
 11 14  1  0  0  0  0
 11 15  1  0  0  0  0
 11 16  1  0  0  0  0
 17 18  1  0  0  0  0
 17 22  1  0  0  0  0
 18 19  1  0  0  0  0
 18 21  1  0  0  0  0
 18 23  1  0  0  0  0
 19 20  2  0  0  0  0
 19 27  1  0  0  0  0
 21 24  1  0  0  0  0
 21 25  1  0  0  0  0
 21 26  1  0  0  0  0
 27 28  1  0  0  0  0
 27 32  1  0  0  0  0
 28 29  1  0  0  0  0
 28 31  1  0  0  0  0
 28 33  1  0  0  0  0
 29 30  2  0  0  0  0
 29 37  1  0  0  0  0
 31 34  1  0  0  0  0
 31 35  1  0  0  0  0
 31 36  1  0  0  0  0
 37 38  1  0  0  0  0
 37 39  1  0  0  0  0
 38 40  1  0  0  0  0
 38 41  1  0  0  0  0
 38 42  1  0  0  0  0
M  END
$$$$

  -OEChem-05262215353D

 42 41  0     1  0  0  0  0  0999 V2000
   -5.6614   -0.5517    1.6695 C   0  0  0  0  0  0  0  0  0  0  0  0
   -5.8696    0.4616    1.0210 O   0  0  0  0  0  0  0  0  0  0  0  0
   -6.6889   -1.6680    1.6863 C   0  0  0  0  0  0  0  0  0  0  0  0
   -7.1154   -1.7664    2.6874 H   0  0  0  0  0  0  0  0  0  0  0  0
   -7.4942   -1.4513    0.9787 H   0  0  0  0  0  0  0  0  0  0  0  0
   -6.2187   -2.6131    1.4037 H   0  0  0  0  0  0  0  0  0  0  0  0
   -4.4883   -0.6927    2.3813 N   0  0  0  0  0  0  0  0  0  0  0  0
   -3.3251    0.1937    2.2320 C   0  0  2  0  0  0  0  0  0  0  0  0
   -2.0659   -0.5931    1.8107 C   0  0  0  0  0  0  0  0  0  0  0  0
   -1.9949   -1.7826    2.0825 O   0  0  0  0  0  0  0  0  0  0  0  0
   -3.0958    0.8986    3.5704 C   0  0  0  0  0  0  0  0  0  0  0  0
   -4.2970   -1.6251    2.7451 H   0  0  0  0  0  0  0  0  0  0  0  0
   -3.5137    0.9505    1.4635 H   0  0  0  0  0  0  0  0  0  0  0  0
   -2.8842    0.1671    4.3571 H   0  0  0  0  0  0  0  0  0  0  0  0
   -2.2500    1.5893    3.5000 H   0  0  0  0  0  0  0  0  0  0  0  0
   -3.9860    1.4692    3.8540 H   0  0  0  0  0  0  0  0  0  0  0  0
   -1.0478    0.0628    1.1360 N   0  0  0  0  0  0  0  0  0  0  0  0
    0.2583   -0.4488    0.6566 C   0  0  2  0  0  0  0  0  0  0  0  0
    0.6605   -1.9367    0.8879 C   0  0  0  0  0  0  0  0  0  0  0  0
    1.7552   -2.2304    1.3571 O   0  0  0  0  0  0  0  0  0  0  0  0
    1.3031    0.5106    1.2483 C   0  0  0  0  0  0  0  0  0  0  0  0
   -1.2267    1.0486    0.9673 H   0  0  0  0  0  0  0  0  0  0  0  0
    0.2677   -0.3301   -0.4311 H   0  0  0  0  0  0  0  0  0  0  0  0
    1.3516    0.3957    2.3362 H   0  0  0  0  0  0  0  0  0  0  0  0
    2.2949    0.3024    0.8338 H   0  0  0  0  0  0  0  0  0  0  0  0
    1.0509    1.5497    1.0166 H   0  0  0  0  0  0  0  0  0  0  0  0
   -0.1127   -2.9548    0.3641 N   0  0  0  0  0  0  0  0  0  0  0  0
    0.1769   -4.3868    0.5053 C   0  0  2  0  0  0  0  0  0  0  0  0
   -0.5865   -5.2331   -0.5352 C   0  0  0  0  0  0  0  0  0  0  0  0
   -1.5728   -4.7847   -1.1103 O   0  0  0  0  0  0  0  0  0  0  0  0
   -0.2092   -4.8303    1.9212 C   0  0  0  0  0  0  0  0  0  0  0  0
   -1.0804   -2.7079    0.1579 H   0  0  0  0  0  0  0  0  0  0  0  0
    1.2471   -4.5572    0.3495 H   0  0  0  0  0  0  0  0  0  0  0  0
   -1.2754   -4.6543    2.0969 H   0  0  0  0  0  0  0  0  0  0  0  0
   -0.0034   -5.8954    2.0608 H   0  0  0  0  0  0  0  0  0  0  0  0
    0.3617   -4.2692    2.6673 H   0  0  0  0  0  0  0  0  0  0  0  0
   -0.1662   -6.5183   -0.8262 N   0  0  0  0  0  0  0  0  0  0  0  0
   -0.8227   -7.3722   -1.8085 C   0  0  0  0  0  0  0  0  0  0  0  0
    0.6587   -6.8631   -0.3441 H   0  0  0  0  0  0  0  0  0  0  0  0
   -1.8641   -7.5542   -1.5228 H   0  0  0  0  0  0  0  0  0  0  0  0
   -0.8060   -6.9017   -2.7973 H   0  0  0  0  0  0  0  0  0  0  0  0
   -0.3088   -8.3359   -1.8757 H   0  0  0  0  0  0  0  0  0  0  0  0
  1  2  2  0  0  0  0
  1  3  1  0  0  0  0
  1  7  1  0  0  0  0
  3  4  1  0  0  0  0
  3  5  1  0  0  0  0
  3  6  1  0  0  0  0
  7  8  1  0  0  0  0
  7 12  1  0  0  0  0
  8  9  1  0  0  0  0
  8 11  1  0  0  0  0
  8 13  1  0  0  0  0
  9 10  2  0  0  0  0
  9 17  1  0  0  0  0
 11 14  1  0  0  0  0
 11 15  1  0  0  0  0
 11 16  1  0  0  0  0
 17 18  1  0  0  0  0
 17 22  1  0  0  0  0
 18 19  1  0  0  0  0
 18 21  1  0  0  0  0
 18 23  1  0  0  0  0
 19 20  2  0  0  0  0
 19 27  1  0  0  0  0
 21 24  1  0  0  0  0
 21 25  1  0  0  0  0
 21 26  1  0  0  0  0
 27 28  1  0  0  0  0
 27 32  1  0  0  0  0
 28 29  1  0  0  0  0
 28 31  1  0  0  0  0
 28 33  1  0  0  0  0
 29 30  2  0  0  0  0
 29 37  1  0  0  0  0
 31 34  1  0  0  0  0
 31 35  1  0  0  0  0
 31 36  1  0  0  0  0
 37 38  1  0  0  0  0
 37 39  1  0  0  0  0
 38 40  1  0  0  0  0
 38 41  1  0  0  0  0
 38 42  1  0  0  0  0
M  END
$$$$

  -OEChem-05262215353D

 42 41  0     1  0  0  0  0  0999 V2000
   -5.6693   -0.6138    1.7270 C   0  0  0  0  0  0  0  0  0  0  0  0
   -5.9075    0.4075    1.1017 O   0  0  0  0  0  0  0  0  0  0  0  0
   -6.6977   -1.7272    1.7836 C   0  0  0  0  0  0  0  0  0  0  0  0
   -7.0642   -1.8437    2.8063 H   0  0  0  0  0  0  0  0  0  0  0  0
   -7.5423   -1.4932    1.1296 H   0  0  0  0  0  0  0  0  0  0  0  0
   -6.2487   -2.6678    1.4550 H   0  0  0  0  0  0  0  0  0  0  0  0
   -4.4634   -0.7683    2.3780 N   0  0  0  0  0  0  0  0  0  0  0  0
   -3.3073    0.1191    2.1894 C   0  0  2  0  0  0  0  0  0  0  0  0
   -2.0661   -0.6563    1.6984 C   0  0  0  0  0  0  0  0  0  0  0  0
   -2.0031   -1.8623    1.8930 O   0  0  0  0  0  0  0  0  0  0  0  0
   -3.0201    0.7996    3.5295 C   0  0  0  0  0  0  0  0  0  0  0  0
   -4.2565   -1.7062    2.7181 H   0  0  0  0  0  0  0  0  0  0  0  0
   -3.5301    0.8886    1.4429 H   0  0  0  0  0  0  0  0  0  0  0  0
   -2.7821    0.0539    4.2950 H   0  0  0  0  0  0  0  0  0  0  0  0
   -2.1737    1.4870    3.4387 H   0  0  0  0  0  0  0  0  0  0  0  0
   -3.8950    1.3695    3.8580 H   0  0  0  0  0  0  0  0  0  0  0  0
   -1.0588    0.0302    1.0365 N   0  0  0  0  0  0  0  0  0  0  0  0
    0.2752   -0.4534    0.6142 C   0  0  2  0  0  0  0  0  0  0  0  0
    0.6814   -1.9238    0.9183 C   0  0  0  0  0  0  0  0  0  0  0  0
    1.6007   -2.1879    1.6867 O   0  0  0  0  0  0  0  0  0  0  0  0
    1.2844    0.5382    1.2119 C   0  0  0  0  0  0  0  0  0  0  0  0
   -1.2316    1.0248    0.9228 H   0  0  0  0  0  0  0  0  0  0  0  0
    0.3234   -0.3673   -0.4758 H   0  0  0  0  0  0  0  0  0  0  0  0
    1.2663    0.4891    2.3057 H   0  0  0  0  0  0  0  0  0  0  0  0
    2.2978    0.3012    0.8721 H   0  0  0  0  0  0  0  0  0  0  0  0
    1.0515    1.5616    0.9034 H   0  0  0  0  0  0  0  0  0  0  0  0
    0.1386   -2.9482    0.1668 N   0  0  0  0  0  0  0  0  0  0  0  0
    0.4554   -4.3711    0.3308 C   0  0  2  0  0  0  0  0  0  0  0  0
    0.1069   -5.1850   -0.9335 C   0  0  0  0  0  0  0  0  0  0  0  0
   -0.6377   -4.7204   -1.7905 O   0  0  0  0  0  0  0  0  0  0  0  0
   -0.3235   -4.9066    1.5374 C   0  0  0  0  0  0  0  0  0  0  0  0
   -0.6827   -2.7226   -0.3914 H   0  0  0  0  0  0  0  0  0  0  0  0
    1.5290   -4.4854    0.5126 H   0  0  0  0  0  0  0  0  0  0  0  0
   -1.4007   -4.7988    1.3738 H   0  0  0  0  0  0  0  0  0  0  0  0
   -0.0986   -5.9640    1.7039 H   0  0  0  0  0  0  0  0  0  0  0  0
   -0.0547   -4.3511    2.4414 H   0  0  0  0  0  0  0  0  0  0  0  0
    0.6337   -6.4512   -1.1150 N   0  0  0  0  0  0  0  0  0  0  0  0
    0.3638   -7.2705   -2.2904 C   0  0  0  0  0  0  0  0  0  0  0  0
    1.2690   -6.8016   -0.4040 H   0  0  0  0  0  0  0  0  0  0  0  0
   -0.7145   -7.4078   -2.4240 H   0  0  0  0  0  0  0  0  0  0  0  0
    0.7725   -6.7969   -3.1891 H   0  0  0  0  0  0  0  0  0  0  0  0
    0.8239   -8.2567   -2.1774 H   0  0  0  0  0  0  0  0  0  0  0  0
  1  2  2  0  0  0  0
  1  3  1  0  0  0  0
  1  7  1  0  0  0  0
  3  4  1  0  0  0  0
  3  5  1  0  0  0  0
  3  6  1  0  0  0  0
  7  8  1  0  0  0  0
  7 12  1  0  0  0  0
  8  9  1  0  0  0  0
  8 11  1  0  0  0  0
  8 13  1  0  0  0  0
  9 10  2  0  0  0  0
  9 17  1  0  0  0  0
 11 14  1  0  0  0  0
 11 15  1  0  0  0  0
 11 16  1  0  0  0  0
 17 18  1  0  0  0  0
 17 22  1  0  0  0  0
 18 19  1  0  0  0  0
 18 21  1  0  0  0  0
 18 23  1  0  0  0  0
 19 20  2  0  0  0  0
 19 27  1  0  0  0  0
 21 24  1  0  0  0  0
 21 25  1  0  0  0  0
 21 26  1  0  0  0  0
 27 28  1  0  0  0  0
 27 32  1  0  0  0  0
 28 29  1  0  0  0  0
 28 31  1  0  0  0  0
 28 33  1  0  0  0  0
 29 30  2  0  0  0  0
 29 37  1  0  0  0  0
 31 34  1  0  0  0  0
 31 35  1  0  0  0  0
 31 36  1  0  0  0  0
 37 38  1  0  0  0  0
 37 39  1  0  0  0  0
 38 40  1  0  0  0  0
 38 41  1  0  0  0  0
 38 42  1  0  0  0  0
M  END
$$$$

  -OEChem-05262215353D

 42 41  0     1  0  0  0  0  0999 V2000
   -5.6755   -0.6385    1.7677 C   0  0  0  0  0  0  0  0  0  0  0  0
   -5.9307    0.4042    1.1859 O   0  0  0  0  0  0  0  0  0  0  0  0
   -6.7091   -1.7484    1.8205 C   0  0  0  0  0  0  0  0  0  0  0  0
   -7.0297   -1.9104    2.8526 H   0  0  0  0  0  0  0  0  0  0  0  0
   -7.5817   -1.4801    1.2180 H   0  0  0  0  0  0  0  0  0  0  0  0
   -6.2836   -2.6756    1.4286 H   0  0  0  0  0  0  0  0  0  0  0  0
   -4.4483   -0.8189    2.3718 N   0  0  0  0  0  0  0  0  0  0  0  0
   -3.2939    0.0691    2.1695 C   0  0  2  0  0  0  0  0  0  0  0  0
   -2.0760   -0.6939    1.6046 C   0  0  0  0  0  0  0  0  0  0  0  0
   -2.0366   -1.9132    1.7048 O   0  0  0  0  0  0  0  0  0  0  0  0
   -2.9494    0.7061    3.5179 C   0  0  0  0  0  0  0  0  0  0  0  0
   -4.2320   -1.7709    2.6636 H   0  0  0  0  0  0  0  0  0  0  0  0
   -3.5403    0.8640    1.4579 H   0  0  0  0  0  0  0  0  0  0  0  0
   -2.6833   -0.0639    4.2493 H   0  0  0  0  0  0  0  0  0  0  0  0
   -2.1045    1.3936    3.4140 H   0  0  0  0  0  0  0  0  0  0  0  0
   -3.8072    1.2686    3.8998 H   0  0  0  0  0  0  0  0  0  0  0  0
   -1.0786    0.0126    0.9481 N   0  0  0  0  0  0  0  0  0  0  0  0
    0.2708   -0.4568    0.5642 C   0  0  2  0  0  0  0  0  0  0  0  0
    0.6769   -1.9142    0.9177 C   0  0  0  0  0  0  0  0  0  0  0  0
    1.3720   -2.1603    1.8984 O   0  0  0  0  0  0  0  0  0  0  0  0
    1.2619    0.5496    1.1650 C   0  0  0  0  0  0  0  0  0  0  0  0
   -1.2305    1.0161    0.9097 H   0  0  0  0  0  0  0  0  0  0  0  0
    0.3446   -0.3896   -0.5256 H   0  0  0  0  0  0  0  0  0  0  0  0
    1.2091    0.5337    2.2589 H   0  0  0  0  0  0  0  0  0  0  0  0
    2.2848    0.2995    0.8652 H   0  0  0  0  0  0  0  0  0  0  0  0
    1.0403    1.5634    0.8184 H   0  0  0  0  0  0  0  0  0  0  0  0
    0.4216   -2.9293    0.0157 N   0  0  0  0  0  0  0  0  0  0  0  0
    0.7733   -4.3387    0.2179 C   0  0  2  0  0  0  0  0  0  0  0  0
    0.8559   -5.1040   -1.1191 C   0  0  0  0  0  0  0  0  0  0  0  0
    0.3578   -4.6352   -2.1375 O   0  0  0  0  0  0  0  0  0  0  0  0
   -0.2808   -4.9744    1.1305 C   0  0  0  0  0  0  0  0  0  0  0  0
   -0.1848   -2.7142   -0.7734 H   0  0  0  0  0  0  0  0  0  0  0  0
    1.7554   -4.4038    0.6976 H   0  0  0  0  0  0  0  0  0  0  0  0
   -1.2716   -4.9119    0.6691 H   0  0  0  0  0  0  0  0  0  0  0  0
   -0.0465   -6.0264    1.3164 H   0  0  0  0  0  0  0  0  0  0  0  0
   -0.3149   -4.4538    2.0929 H   0  0  0  0  0  0  0  0  0  0  0  0
    1.4991   -6.3265   -1.1831 N   0  0  0  0  0  0  0  0  0  0  0  0
    1.6438   -7.0925   -2.4151 C   0  0  0  0  0  0  0  0  0  0  0  0
    1.9212   -6.6801   -0.3294 H   0  0  0  0  0  0  0  0  0  0  0  0
    0.6641   -7.2856   -2.8647 H   0  0  0  0  0  0  0  0  0  0  0  0
    2.2604   -6.5453   -3.1360 H   0  0  0  0  0  0  0  0  0  0  0  0
    2.1229   -8.0542   -2.2084 H   0  0  0  0  0  0  0  0  0  0  0  0
  1  2  2  0  0  0  0
  1  3  1  0  0  0  0
  1  7  1  0  0  0  0
  3  4  1  0  0  0  0
  3  5  1  0  0  0  0
  3  6  1  0  0  0  0
  7  8  1  0  0  0  0
  7 12  1  0  0  0  0
  8  9  1  0  0  0  0
  8 11  1  0  0  0  0
  8 13  1  0  0  0  0
  9 10  2  0  0  0  0
  9 17  1  0  0  0  0
 11 14  1  0  0  0  0
 11 15  1  0  0  0  0
 11 16  1  0  0  0  0
 17 18  1  0  0  0  0
 17 22  1  0  0  0  0
 18 19  1  0  0  0  0
 18 21  1  0  0  0  0
 18 23  1  0  0  0  0
 19 20  2  0  0  0  0
 19 27  1  0  0  0  0
 21 24  1  0  0  0  0
 21 25  1  0  0  0  0
 21 26  1  0  0  0  0
 27 28  1  0  0  0  0
 27 32  1  0  0  0  0
 28 29  1  0  0  0  0
 28 31  1  0  0  0  0
 28 33  1  0  0  0  0
 29 30  2  0  0  0  0
 29 37  1  0  0  0  0
 31 34  1  0  0  0  0
 31 35  1  0  0  0  0
 31 36  1  0  0  0  0
 37 38  1  0  0  0  0
 37 39  1  0  0  0  0
 38 40  1  0  0  0  0
 38 41  1  0  0  0  0
 38 42  1  0  0  0  0
M  END
$$$$

  -OEChem-05262215353D

 42 41  0     1  0  0  0  0  0999 V2000
   -5.7494   -0.5739    1.9604 C   0  0  0  0  0  0  0  0  0  0  0  0
   -6.0268    0.6043    1.7988 O   0  0  0  0  0  0  0  0  0  0  0  0
   -6.8404   -1.6271    1.9103 C   0  0  0  0  0  0  0  0  0  0  0  0
   -6.9203   -2.1263    2.8792 H   0  0  0  0  0  0  0  0  0  0  0  0
   -7.8017   -1.1634    1.6715 H   0  0  0  0  0  0  0  0  0  0  0  0
   -6.6083   -2.3700    1.1430 H   0  0  0  0  0  0  0  0  0  0  0  0
   -4.4420   -0.9542    2.1771 N   0  0  0  0  0  0  0  0  0  0  0  0
   -3.2870   -0.0568    2.0434 C   0  0  2  0  0  0  0  0  0  0  0  0
   -2.0936   -0.7602    1.3627 C   0  0  0  0  0  0  0  0  0  0  0  0
   -2.0907   -1.9817    1.2696 O   0  0  0  0  0  0  0  0  0  0  0  0
   -2.8945    0.4293    3.4410 C   0  0  0  0  0  0  0  0  0  0  0  0
   -4.2421   -1.9540    2.1604 H   0  0  0  0  0  0  0  0  0  0  0  0
   -3.5540    0.8062    1.4243 H   0  0  0  0  0  0  0  0  0  0  0  0
   -2.6125   -0.4174    4.0757 H   0  0  0  0  0  0  0  0  0  0  0  0
   -2.0469    1.1190    3.3850 H   0  0  0  0  0  0  0  0  0  0  0  0
   -3.7349    0.9519    3.9092 H   0  0  0  0  0  0  0  0  0  0  0  0
   -1.1007    0.0017    0.7648 N   0  0  0  0  0  0  0  0  0  0  0  0
    0.2868   -0.4255    0.4854 C   0  0  2  0  0  0  0  0  0  0  0  0
    0.7032   -1.8637    0.8962 C   0  0  0  0  0  0  0  0  0  0  0  0
    1.0887   -2.0985    2.0371 O   0  0  0  0  0  0  0  0  0  0  0  0
    1.2047    0.6094    1.1489 C   0  0  0  0  0  0  0  0  0  0  0  0
   -1.2410    1.0033    0.8564 H   0  0  0  0  0  0  0  0  0  0  0  0
    0.4385   -0.3658   -0.5965 H   0  0  0  0  0  0  0  0  0  0  0  0
    1.0536    0.6180    2.2336 H   0  0  0  0  0  0  0  0  0  0  0  0
    2.2539    0.3695    0.9490 H   0  0  0  0  0  0  0  0  0  0  0  0
    1.0009    1.6112    0.7591 H   0  0  0  0  0  0  0  0  0  0  0  0
    0.8426   -2.8456   -0.0661 N   0  0  0  0  0  0  0  0  0  0  0  0
    1.2325   -4.2341    0.2045 C   0  0  2  0  0  0  0  0  0  0  0  0
    1.6949   -4.9538   -1.0797 C   0  0  0  0  0  0  0  0  0  0  0  0
    1.4675   -4.4654   -2.1820 O   0  0  0  0  0  0  0  0  0  0  0  0
    0.0359   -4.9704    0.8201 C   0  0  0  0  0  0  0  0  0  0  0  0
    0.5122   -2.6373   -1.0065 H   0  0  0  0  0  0  0  0  0  0  0  0
    2.0687   -4.2441    0.9112 H   0  0  0  0  0  0  0  0  0  0  0  0
   -0.8135   -4.9610    0.1296 H   0  0  0  0  0  0  0  0  0  0  0  0
    0.2945   -6.0096    1.0426 H   0  0  0  0  0  0  0  0  0  0  0  0
   -0.2726   -4.4873    1.7527 H   0  0  0  0  0  0  0  0  0  0  0  0
    2.3738   -6.1561   -1.0016 N   0  0  0  0  0  0  0  0  0  0  0  0
    2.8261   -6.8977   -2.1721 C   0  0  0  0  0  0  0  0  0  0  0  0
    2.5452   -6.5400   -0.0769 H   0  0  0  0  0  0  0  0  0  0  0  0
    1.9730   -7.1898   -2.7934 H   0  0  0  0  0  0  0  0  0  0  0  0
    3.5074   -6.2865   -2.7735 H   0  0  0  0  0  0  0  0  0  0  0  0
    3.3560   -7.8043   -1.8647 H   0  0  0  0  0  0  0  0  0  0  0  0
  1  2  2  0  0  0  0
  1  3  1  0  0  0  0
  1  7  1  0  0  0  0
  3  4  1  0  0  0  0
  3  5  1  0  0  0  0
  3  6  1  0  0  0  0
  7  8  1  0  0  0  0
  7 12  1  0  0  0  0
  8  9  1  0  0  0  0
  8 11  1  0  0  0  0
  8 13  1  0  0  0  0
  9 10  2  0  0  0  0
  9 17  1  0  0  0  0
 11 14  1  0  0  0  0
 11 15  1  0  0  0  0
 11 16  1  0  0  0  0
 17 18  1  0  0  0  0
 17 22  1  0  0  0  0
 18 19  1  0  0  0  0
 18 21  1  0  0  0  0
 18 23  1  0  0  0  0
 19 20  2  0  0  0  0
 19 27  1  0  0  0  0
 21 24  1  0  0  0  0
 21 25  1  0  0  0  0
 21 26  1  0  0  0  0
 27 28  1  0  0  0  0
 27 32  1  0  0  0  0
 28 29  1  0  0  0  0
 28 31  1  0  0  0  0
 28 33  1  0  0  0  0
 29 30  2  0  0  0  0
 29 37  1  0  0  0  0
 31 34  1  0  0  0  0
 31 35  1  0  0  0  0
 31 36  1  0  0  0  0
 37 38  1  0  0  0  0
 37 39  1  0  0  0  0
 38 40  1  0  0  0  0
 38 41  1  0  0  0  0
 38 42  1  0  0  0  0
M  END
$$$$

  -OEChem-05262215353D

 42 41  0     1  0  0  0  0  0999 V2000
   -5.7555   -0.5457    2.0024 C   0  0  0  0  0  0  0  0  0  0  0  0
   -6.0094    0.6461    1.9223 O   0  0  0  0  0  0  0  0  0  0  0  0
   -6.8737   -1.5685    1.9295 C   0  0  0  0  0  0  0  0  0  0  0  0
   -6.9410   -2.1152    2.8732 H   0  0  0  0  0  0  0  0  0  0  0  0
   -7.8291   -1.0706    1.7413 H   0  0  0  0  0  0  0  0  0  0  0  0
   -6.6800   -2.2756    1.1190 H   0  0  0  0  0  0  0  0  0  0  0  0
   -4.4507   -0.9681    2.1415 N   0  0  0  0  0  0  0  0  0  0  0  0
   -3.2799   -0.0907    2.0169 C   0  0  2  0  0  0  0  0  0  0  0  0
   -2.1243   -0.7859    1.2663 C   0  0  0  0  0  0  0  0  0  0  0  0
   -2.1613   -1.9983    1.0890 O   0  0  0  0  0  0  0  0  0  0  0  0
   -2.8352    0.3167    3.4240 C   0  0  0  0  0  0  0  0  0  0  0  0
   -4.2758   -1.9689    2.0550 H   0  0  0  0  0  0  0  0  0  0  0  0
   -3.5448    0.8075    1.4491 H   0  0  0  0  0  0  0  0  0  0  0  0
   -2.5498   -0.5661    4.0059 H   0  0  0  0  0  0  0  0  0  0  0  0
   -1.9768    0.9934    3.3761 H   0  0  0  0  0  0  0  0  0  0  0  0
   -3.6507    0.8290    3.9447 H   0  0  0  0  0  0  0  0  0  0  0  0
   -1.1356   -0.0214    0.6656 N   0  0  0  0  0  0  0  0  0  0  0  0
    0.2577   -0.4524    0.4254 C   0  0  2  0  0  0  0  0  0  0  0  0
    0.6697   -1.8764    0.8837 C   0  0  0  0  0  0  0  0  0  0  0  0
    0.8152   -2.1201    2.0776 O   0  0  0  0  0  0  0  0  0  0  0  0
    1.1677    0.5931    1.0806 C   0  0  0  0  0  0  0  0  0  0  0  0
   -1.2594    0.9767    0.8043 H   0  0  0  0  0  0  0  0  0  0  0  0
    0.4248   -0.4203   -0.6555 H   0  0  0  0  0  0  0  0  0  0  0  0
    1.0224    0.6028    2.1659 H   0  0  0  0  0  0  0  0  0  0  0  0
    2.2181    0.3629    0.8750 H   0  0  0  0  0  0  0  0  0  0  0  0
    0.9512    1.5919    0.6896 H   0  0  0  0  0  0  0  0  0  0  0  0
    1.1295   -2.7975   -0.0380 N   0  0  0  0  0  0  0  0  0  0  0  0
    1.6007   -4.1484    0.2885 C   0  0  2  0  0  0  0  0  0  0  0  0
    2.4424   -4.7476   -0.8580 C   0  0  0  0  0  0  0  0  0  0  0  0
    2.4549   -4.2130   -1.9622 O   0  0  0  0  0  0  0  0  0  0  0  0
    0.3820   -5.0354    0.5736 C   0  0  0  0  0  0  0  0  0  0  0  0
    1.0626   -2.5598   -1.0261 H   0  0  0  0  0  0  0  0  0  0  0  0
    2.2357   -4.1060    1.1796 H   0  0  0  0  0  0  0  0  0  0  0  0
   -0.2649   -5.0905   -0.3076 H   0  0  0  0  0  0  0  0  0  0  0  0
    0.6952   -6.0489    0.8407 H   0  0  0  0  0  0  0  0  0  0  0  0
   -0.2015   -4.6267    1.4049 H   0  0  0  0  0  0  0  0  0  0  0  0
    3.1921   -5.8916   -0.6528 N   0  0  0  0  0  0  0  0  0  0  0  0
    3.9873   -6.5272   -1.6966 C   0  0  0  0  0  0  0  0  0  0  0  0
    3.1587   -6.3161    0.2695 H   0  0  0  0  0  0  0  0  0  0  0  0
    3.3460   -6.8474   -2.5246 H   0  0  0  0  0  0  0  0  0  0  0  0
    4.7402   -5.8320   -2.0826 H   0  0  0  0  0  0  0  0  0  0  0  0
    4.5025   -7.4064   -1.2980 H   0  0  0  0  0  0  0  0  0  0  0  0
  1  2  2  0  0  0  0
  1  3  1  0  0  0  0
  1  7  1  0  0  0  0
  3  4  1  0  0  0  0
  3  5  1  0  0  0  0
  3  6  1  0  0  0  0
  7  8  1  0  0  0  0
  7 12  1  0  0  0  0
  8  9  1  0  0  0  0
  8 11  1  0  0  0  0
  8 13  1  0  0  0  0
  9 10  2  0  0  0  0
  9 17  1  0  0  0  0
 11 14  1  0  0  0  0
 11 15  1  0  0  0  0
 11 16  1  0  0  0  0
 17 18  1  0  0  0  0
 17 22  1  0  0  0  0
 18 19  1  0  0  0  0
 18 21  1  0  0  0  0
 18 23  1  0  0  0  0
 19 20  2  0  0  0  0
 19 27  1  0  0  0  0
 21 24  1  0  0  0  0
 21 25  1  0  0  0  0
 21 26  1  0  0  0  0
 27 28  1  0  0  0  0
 27 32  1  0  0  0  0
 28 29  1  0  0  0  0
 28 31  1  0  0  0  0
 28 33  1  0  0  0  0
 29 30  2  0  0  0  0
 29 37  1  0  0  0  0
 31 34  1  0  0  0  0
 31 35  1  0  0  0  0
 31 36  1  0  0  0  0
 37 38  1  0  0  0  0
 37 39  1  0  0  0  0
 38 40  1  0  0  0  0
 38 41  1  0  0  0  0
 38 42  1  0  0  0  0
M  END
$$$$

  -OEChem-05262215353D

 42 41  0     1  0  0  0  0  0999 V2000
   -5.7548   -0.4964    2.0477 C   0  0  0  0  0  0  0  0  0  0  0  0
   -5.9744    0.7048    2.0674 O   0  0  0  0  0  0  0  0  0  0  0  0
   -6.9081   -1.4797    1.9768 C   0  0  0  0  0  0  0  0  0  0  0  0
   -6.9081   -2.1180    2.8637 H   0  0  0  0  0  0  0  0  0  0  0  0
   -7.8597   -0.9428    1.9285 H   0  0  0  0  0  0  0  0  0  0  0  0
   -6.8115   -2.1054    1.0861 H   0  0  0  0  0  0  0  0  0  0  0  0
   -4.4583   -0.9635    2.0785 N   0  0  0  0  0  0  0  0  0  0  0  0
   -3.2692   -0.1121    1.9485 C   0  0  2  0  0  0  0  0  0  0  0  0
   -2.1713   -0.7928    1.1050 C   0  0  0  0  0  0  0  0  0  0  0  0
   -2.2788   -1.9772    0.8064 O   0  0  0  0  0  0  0  0  0  0  0  0
   -2.7446    0.1960    3.3532 C   0  0  0  0  0  0  0  0  0  0  0  0
   -4.3195   -1.9604    1.9144 H   0  0  0  0  0  0  0  0  0  0  0  0
   -3.5335    0.8251    1.4475 H   0  0  0  0  0  0  0  0  0  0  0  0
   -2.4601   -0.7290    3.8656 H   0  0  0  0  0  0  0  0  0  0  0  0
   -1.8678    0.8484    3.3031 H   0  0  0  0  0  0  0  0  0  0  0  0
   -3.5166    0.6993    3.9438 H   0  0  0  0  0  0  0  0  0  0  0  0
   -1.1547   -0.0360    0.5444 N   0  0  0  0  0  0  0  0  0  0  0  0
    0.2364   -0.5040    0.3720 C   0  0  2  0  0  0  0  0  0  0  0  0
    0.5949   -1.9339    0.8552 C   0  0  0  0  0  0  0  0  0  0  0  0
    0.4912   -2.2214    2.0438 O   0  0  0  0  0  0  0  0  0  0  0  0
    1.1432    0.5138    1.0724 C   0  0  0  0  0  0  0  0  0  0  0  0
   -1.2441    0.9544    0.7481 H   0  0  0  0  0  0  0  0  0  0  0  0
    0.4534   -0.4803   -0.7001 H   0  0  0  0  0  0  0  0  0  0  0  0
    0.9331    0.5391    2.1469 H   0  0  0  0  0  0  0  0  0  0  0  0
    2.1950    0.2442    0.9332 H   0  0  0  0  0  0  0  0  0  0  0  0
    0.9880    1.5156    0.6606 H   0  0  0  0  0  0  0  0  0  0  0  0
    1.3530   -2.7629    0.0505 N   0  0  0  0  0  0  0  0  0  0  0  0
    1.9172   -4.0529    0.4635 C   0  0  2  0  0  0  0  0  0  0  0  0
    3.0782   -4.4793   -0.4594 C   0  0  0  0  0  0  0  0  0  0  0  0
    3.2980   -3.8673   -1.4999 O   0  0  0  0  0  0  0  0  0  0  0  0
    0.8000   -5.1036    0.4451 C   0  0  0  0  0  0  0  0  0  0  0  0
    1.5438   -2.4628   -0.9042 H   0  0  0  0  0  0  0  0  0  0  0  0
    2.3172   -3.9675    1.4793 H   0  0  0  0  0  0  0  0  0  0  0  0
    0.3838   -5.2009   -0.5628 H   0  0  0  0  0  0  0  0  0  0  0  0
    1.1811   -6.0790    0.7616 H   0  0  0  0  0  0  0  0  0  0  0  0
   -0.0068   -4.8137    1.1266 H   0  0  0  0  0  0  0  0  0  0  0  0
    3.8889   -5.5461   -0.1183 N   0  0  0  0  0  0  0  0  0  0  0  0
    4.9887   -6.0168   -0.9515 C   0  0  0  0  0  0  0  0  0  0  0  0
    3.6791   -6.0376    0.7456 H   0  0  0  0  0  0  0  0  0  0  0  0
    4.6148   -6.3504   -1.9251 H   0  0  0  0  0  0  0  0  0  0  0  0
    5.7209   -5.2179   -1.1096 H   0  0  0  0  0  0  0  0  0  0  0  0
    5.4956   -6.8579   -0.4689 H   0  0  0  0  0  0  0  0  0  0  0  0
  1  2  2  0  0  0  0
  1  3  1  0  0  0  0
  1  7  1  0  0  0  0
  3  4  1  0  0  0  0
  3  5  1  0  0  0  0
  3  6  1  0  0  0  0
  7  8  1  0  0  0  0
  7 12  1  0  0  0  0
  8  9  1  0  0  0  0
  8 11  1  0  0  0  0
  8 13  1  0  0  0  0
  9 10  2  0  0  0  0
  9 17  1  0  0  0  0
 11 14  1  0  0  0  0
 11 15  1  0  0  0  0
 11 16  1  0  0  0  0
 17 18  1  0  0  0  0
 17 22  1  0  0  0  0
 18 19  1  0  0  0  0
 18 21  1  0  0  0  0
 18 23  1  0  0  0  0
 19 20  2  0  0  0  0
 19 27  1  0  0  0  0
 21 24  1  0  0  0  0
 21 25  1  0  0  0  0
 21 26  1  0  0  0  0
 27 28  1  0  0  0  0
 27 32  1  0  0  0  0
 28 29  1  0  0  0  0
 28 31  1  0  0  0  0
 28 33  1  0  0  0  0
 29 30  2  0  0  0  0
 29 37  1  0  0  0  0
 31 34  1  0  0  0  0
 31 35  1  0  0  0  0
 31 36  1  0  0  0  0
 37 38  1  0  0  0  0
 37 39  1  0  0  0  0
 38 40  1  0  0  0  0
 38 41  1  0  0  0  0
 38 42  1  0  0  0  0
M  END
$$$$

  -OEChem-05262215353D

 42 41  0     1  0  0  0  0  0999 V2000
   -5.7395   -0.4402    2.0904 C   0  0  0  0  0  0  0  0  0  0  0  0
   -5.9091    0.7609    2.2335 O   0  0  0  0  0  0  0  0  0  0  0  0
   -6.9322   -1.3728    1.9954 C   0  0  0  0  0  0  0  0  0  0  0  0
   -6.9010   -2.1015    2.8093 H   0  0  0  0  0  0  0  0  0  0  0  0
   -7.8632   -0.8033    2.0670 H   0  0  0  0  0  0  0  0  0  0  0  0
   -6.9158   -1.9034    1.0400 H   0  0  0  0  0  0  0  0  0  0  0  0
   -4.4636   -0.9530    2.0011 N   0  0  0  0  0  0  0  0  0  0  0  0
   -3.2478   -0.1376    1.8946 C   0  0  2  0  0  0  0  0  0  0  0  0
   -2.1995   -0.8006    0.9775 C   0  0  0  0  0  0  0  0  0  0  0  0
   -2.3749   -1.9432    0.5678 O   0  0  0  0  0  0  0  0  0  0  0  0
   -2.6737    0.0567    3.3005 C   0  0  0  0  0  0  0  0  0  0  0  0
   -4.3733   -1.9346    1.7392 H   0  0  0  0  0  0  0  0  0  0  0  0
   -3.4908    0.8393    1.4638 H   0  0  0  0  0  0  0  0  0  0  0  0
   -2.4075   -0.9104    3.7402 H   0  0  0  0  0  0  0  0  0  0  0  0
   -1.7763    0.6816    3.2680 H   0  0  0  0  0  0  0  0  0  0  0  0
   -3.4109    0.5439    3.9467 H   0  0  0  0  0  0  0  0  0  0  0  0
   -1.1517   -0.0587    0.4585 N   0  0  0  0  0  0  0  0  0  0  0  0
    0.2300   -0.5683    0.3331 C   0  0  2  0  0  0  0  0  0  0  0  0
    0.5462   -2.0103    0.8134 C   0  0  0  0  0  0  0  0  0  0  0  0
    0.2298   -2.3651    1.9448 O   0  0  0  0  0  0  0  0  0  0  0  0
    1.1351    0.4167    1.0811 C   0  0  0  0  0  0  0  0  0  0  0  0
   -1.2095    0.9218    0.7141 H   0  0  0  0  0  0  0  0  0  0  0  0
    0.4846   -0.5410   -0.7307 H   0  0  0  0  0  0  0  0  0  0  0  0
    0.8921    0.4252    2.1489 H   0  0  0  0  0  0  0  0  0  0  0  0
    2.1857    0.1292    0.9692 H   0  0  0  0  0  0  0  0  0  0  0  0
    1.0127    1.4292    0.6845 H   0  0  0  0  0  0  0  0  0  0  0  0
    1.5519   -2.7227    0.1865 N   0  0  0  0  0  0  0  0  0  0  0  0
    2.1795   -3.9423    0.7101 C   0  0  2  0  0  0  0  0  0  0  0  0
    3.5720   -4.1679    0.0833 C   0  0  0  0  0  0  0  0  0  0  0  0
    3.9533   -3.4592   -0.8431 O   0  0  0  0  0  0  0  0  0  0  0  0
    1.2572   -5.1318    0.4177 C   0  0  0  0  0  0  0  0  0  0  0  0
    1.9591   -2.3295   -0.6610 H   0  0  0  0  0  0  0  0  0  0  0  0
    2.3179   -3.8479    1.7926 H   0  0  0  0  0  0  0  0  0  0  0  0
    1.1043   -5.2419   -0.6608 H   0  0  0  0  0  0  0  0  0  0  0  0
    1.6883   -6.0592    0.8061 H   0  0  0  0  0  0  0  0  0  0  0  0
    0.2824   -4.9823    0.8930 H   0  0  0  0  0  0  0  0  0  0  0  0
    4.4079   -5.1589    0.5646 N   0  0  0  0  0  0  0  0  0  0  0  0
    5.7224   -5.4414    0.0010 C   0  0  0  0  0  0  0  0  0  0  0  0
    4.0648   -5.7338    1.3288 H   0  0  0  0  0  0  0  0  0  0  0  0
    5.6339   -5.7284   -1.0522 H   0  0  0  0  0  0  0  0  0  0  0  0
    6.3681   -4.5598    0.0728 H   0  0  0  0  0  0  0  0  0  0  0  0
    6.1986   -6.2632    0.5444 H   0  0  0  0  0  0  0  0  0  0  0  0
  1  2  2  0  0  0  0
  1  3  1  0  0  0  0
  1  7  1  0  0  0  0
  3  4  1  0  0  0  0
  3  5  1  0  0  0  0
  3  6  1  0  0  0  0
  7  8  1  0  0  0  0
  7 12  1  0  0  0  0
  8  9  1  0  0  0  0
  8 11  1  0  0  0  0
  8 13  1  0  0  0  0
  9 10  2  0  0  0  0
  9 17  1  0  0  0  0
 11 14  1  0  0  0  0
 11 15  1  0  0  0  0
 11 16  1  0  0  0  0
 17 18  1  0  0  0  0
 17 22  1  0  0  0  0
 18 19  1  0  0  0  0
 18 21  1  0  0  0  0
 18 23  1  0  0  0  0
 19 20  2  0  0  0  0
 19 27  1  0  0  0  0
 21 24  1  0  0  0  0
 21 25  1  0  0  0  0
 21 26  1  0  0  0  0
 27 28  1  0  0  0  0
 27 32  1  0  0  0  0
 28 29  1  0  0  0  0
 28 31  1  0  0  0  0
 28 33  1  0  0  0  0
 29 30  2  0  0  0  0
 29 37  1  0  0  0  0
 31 34  1  0  0  0  0
 31 35  1  0  0  0  0
 31 36  1  0  0  0  0
 37 38  1  0  0  0  0
 37 39  1  0  0  0  0
 38 40  1  0  0  0  0
 38 41  1  0  0  0  0
 38 42  1  0  0  0  0
M  END
$$$$

  -OEChem-05262215353D

 42 41  0     1  0  0  0  0  0999 V2000
   -5.7042   -0.4226    2.1117 C   0  0  0  0  0  0  0  0  0  0  0  0
   -5.8327    0.7678    2.3530 O   0  0  0  0  0  0  0  0  0  0  0  0
   -6.9270   -1.3133    1.9982 C   0  0  0  0  0  0  0  0  0  0  0  0
   -6.9015   -2.0801    2.7762 H   0  0  0  0  0  0  0  0  0  0  0  0
   -7.8384   -0.7207    2.1164 H   0  0  0  0  0  0  0  0  0  0  0  0
   -6.9469   -1.7983    1.0192 H   0  0  0  0  0  0  0  0  0  0  0  0
   -4.4482   -0.9607    1.9342 N   0  0  0  0  0  0  0  0  0  0  0  0
   -3.2113   -0.1742    1.8569 C   0  0  2  0  0  0  0  0  0  0  0  0
   -2.1995   -0.8032    0.8767 C   0  0  0  0  0  0  0  0  0  0  0  0
   -2.4304   -1.8930    0.3637 O   0  0  0  0  0  0  0  0  0  0  0  0
   -2.6042   -0.0912    3.2602 C   0  0  0  0  0  0  0  0  0  0  0  0
   -4.3946   -1.9208    1.5941 H   0  0  0  0  0  0  0  0  0  0  0  0
   -3.4348    0.8357    1.4970 H   0  0  0  0  0  0  0  0  0  0  0  0
   -2.3655   -1.0932    3.6319 H   0  0  0  0  0  0  0  0  0  0  0  0
   -1.6851    0.5019    3.2486 H   0  0  0  0  0  0  0  0  0  0  0  0
   -3.3103    0.3792    3.9517 H   0  0  0  0  0  0  0  0  0  0  0  0
   -1.1261   -0.0698    0.4017 N   0  0  0  0  0  0  0  0  0  0  0  0
    0.2510   -0.6013    0.3089 C   0  0  2  0  0  0  0  0  0  0  0  0
    0.5547   -2.0554    0.7695 C   0  0  0  0  0  0  0  0  0  0  0  0
    0.0420   -2.5104    1.7867 O   0  0  0  0  0  0  0  0  0  0  0  0
    1.1325    0.3651    1.1092 C   0  0  0  0  0  0  0  0  0  0  0  0
   -1.1672    0.8982    0.7029 H   0  0  0  0  0  0  0  0  0  0  0  0
    0.5392   -0.5545   -0.7456 H   0  0  0  0  0  0  0  0  0  0  0  0
    0.8750    0.3226    2.1728 H   0  0  0  0  0  0  0  0  0  0  0  0
    2.1897    0.1026    0.9997 H   0  0  0  0  0  0  0  0  0  0  0  0
    0.9989    1.3923    0.7560 H   0  0  0  0  0  0  0  0  0  0  0  0
    1.7514   -2.6323    0.3817 N   0  0  0  0  0  0  0  0  0  0  0  0
    2.3688   -3.8134    1.0001 C   0  0  2  0  0  0  0  0  0  0  0  0
    3.8874   -3.8586    0.7248 C   0  0  0  0  0  0  0  0  0  0  0  0
    4.4023   -3.0321   -0.0219 O   0  0  0  0  0  0  0  0  0  0  0  0
    1.6781   -5.0686    0.4543 C   0  0  0  0  0  0  0  0  0  0  0  0
    2.3153   -2.1362   -0.3074 H   0  0  0  0  0  0  0  0  0  0  0  0
    2.2357   -3.7712    2.0863 H   0  0  0  0  0  0  0  0  0  0  0  0
    1.8060   -5.1340   -0.6308 H   0  0  0  0  0  0  0  0  0  0  0  0
    2.0967   -5.9699    0.9111 H   0  0  0  0  0  0  0  0  0  0  0  0
    0.6065   -5.0395    0.6770 H   0  0  0  0  0  0  0  0  0  0  0  0
    4.6859   -4.8100    1.3328 N   0  0  0  0  0  0  0  0  0  0  0  0
    6.1283   -4.8932    1.1349 C   0  0  0  0  0  0  0  0  0  0  0  0
    4.2350   -5.4737    1.9560 H   0  0  0  0  0  0  0  0  0  0  0  0
    6.3653   -5.0144    0.0727 H   0  0  0  0  0  0  0  0  0  0  0  0
    6.6181   -3.9860    1.5036 H   0  0  0  0  0  0  0  0  0  0  0  0
    6.5355   -5.7516    1.6777 H   0  0  0  0  0  0  0  0  0  0  0  0
  1  2  2  0  0  0  0
  1  3  1  0  0  0  0
  1  7  1  0  0  0  0
  3  4  1  0  0  0  0
  3  5  1  0  0  0  0
  3  6  1  0  0  0  0
  7  8  1  0  0  0  0
  7 12  1  0  0  0  0
  8  9  1  0  0  0  0
  8 11  1  0  0  0  0
  8 13  1  0  0  0  0
  9 10  2  0  0  0  0
  9 17  1  0  0  0  0
 11 14  1  0  0  0  0
 11 15  1  0  0  0  0
 11 16  1  0  0  0  0
 17 18  1  0  0  0  0
 17 22  1  0  0  0  0
 18 19  1  0  0  0  0
 18 21  1  0  0  0  0
 18 23  1  0  0  0  0
 19 20  2  0  0  0  0
 19 27  1  0  0  0  0
 21 24  1  0  0  0  0
 21 25  1  0  0  0  0
 21 26  1  0  0  0  0
 27 28  1  0  0  0  0
 27 32  1  0  0  0  0
 28 29  1  0  0  0  0
 28 31  1  0  0  0  0
 28 33  1  0  0  0  0
 29 30  2  0  0  0  0
 29 37  1  0  0  0  0
 31 34  1  0  0  0  0
 31 35  1  0  0  0  0
 31 36  1  0  0  0  0
 37 38  1  0  0  0  0
 37 39  1  0  0  0  0
 38 40  1  0  0  0  0
 38 41  1  0  0  0  0
 38 42  1  0  0  0  0
M  END
$$$$

  -OEChem-05262215353D

 42 41  0     1  0  0  0  0  0999 V2000
   -5.1548   -1.4015    1.7379 C   0  0  0  0  0  0  0  0  0  0  0  0
   -5.6412   -0.7039    0.8608 O   0  0  0  0  0  0  0  0  0  0  0  0
   -5.7993   -2.7261    2.1012 C   0  0  0  0  0  0  0  0  0  0  0  0
   -6.0677   -2.7342    3.1603 H   0  0  0  0  0  0  0  0  0  0  0  0
   -6.7041   -2.8810    1.5070 H   0  0  0  0  0  0  0  0  0  0  0  0
   -5.1025   -3.5443    1.9027 H   0  0  0  0  0  0  0  0  0  0  0  0
   -4.0116   -0.9949    2.3921 N   0  0  0  0  0  0  0  0  0  0  0  0
   -3.1769    0.1343    1.9663 C   0  0  2  0  0  0  0  0  0  0  0  0
   -1.6818   -0.2075    2.1187 C   0  0  0  0  0  0  0  0  0  0  0  0
   -1.3117   -0.9079    3.0548 O   0  0  0  0  0  0  0  0  0  0  0  0
   -3.5439    1.3549    2.8135 C   0  0  0  0  0  0  0  0  0  0  0  0
   -3.5693   -1.6717    3.0138 H   0  0  0  0  0  0  0  0  0  0  0  0
   -3.3589    0.3588    0.9101 H   0  0  0  0  0  0  0  0  0  0  0  0
   -3.3648    1.1513    3.8744 H   0  0  0  0  0  0  0  0  0  0  0  0
   -2.9434    2.2207    2.5187 H   0  0  0  0  0  0  0  0  0  0  0  0
   -4.6014    1.6036    2.6789 H   0  0  0  0  0  0  0  0  0  0  0  0
   -0.7283    0.4068    1.3242 N   0  0  0  0  0  0  0  0  0  0  0  0
    0.4792   -0.2778    0.8094 C   0  0  2  0  0  0  0  0  0  0  0  0
    0.5645   -1.8334    0.8382 C   0  0  0  0  0  0  0  0  0  0  0  0
   -0.4417   -2.5335    0.8318 O   0  0  0  0  0  0  0  0  0  0  0  0
    1.6512    0.3179    1.6018 C   0  0  0  0  0  0  0  0  0  0  0  0
   -1.1356    1.0790    0.6818 H   0  0  0  0  0  0  0  0  0  0  0  0
    0.5923   -0.0004   -0.2428 H   0  0  0  0  0  0  0  0  0  0  0  0
    1.5905    0.0139    2.6525 H   0  0  0  0  0  0  0  0  0  0  0  0
    2.6114   -0.0162    1.1975 H   0  0  0  0  0  0  0  0  0  0  0  0
    1.6271    1.4113    1.5566 H   0  0  0  0  0  0  0  0  0  0  0  0
    1.7115   -2.4373    0.3537 N   0  0  0  0  0  0  0  0  0  0  0  0
    1.9163   -3.8904    0.2906 C   0  0  2  0  0  0  0  0  0  0  0  0
    3.3518   -4.2647    0.7130 C   0  0  0  0  0  0  0  0  0  0  0  0
    4.2271   -3.4049    0.7349 O   0  0  0  0  0  0  0  0  0  0  0  0
    1.6350   -4.3539   -1.1411 C   0  0  0  0  0  0  0  0  0  0  0  0
    2.5622   -1.8762    0.3722 H   0  0  0  0  0  0  0  0  0  0  0  0
    1.2299   -4.3980    0.9772 H   0  0  0  0  0  0  0  0  0  0  0  0
    2.3147   -3.8604   -1.8434 H   0  0  0  0  0  0  0  0  0  0  0  0
    1.7676   -5.4366   -1.2282 H   0  0  0  0  0  0  0  0  0  0  0  0
    0.6055   -4.1085   -1.4213 H   0  0  0  0  0  0  0  0  0  0  0  0
    3.6620   -5.5598    1.0846 N   0  0  0  0  0  0  0  0  0  0  0  0
    4.9845   -5.9617    1.5485 C   0  0  0  0  0  0  0  0  0  0  0  0
    2.9055   -6.2376    1.1063 H   0  0  0  0  0  0  0  0  0  0  0  0
    5.7358   -5.7751    0.7737 H   0  0  0  0  0  0  0  0  0  0  0  0
    5.2606   -5.4030    2.4490 H   0  0  0  0  0  0  0  0  0  0  0  0
    4.9941   -7.0293    1.7881 H   0  0  0  0  0  0  0  0  0  0  0  0
  1  2  2  0  0  0  0
  1  3  1  0  0  0  0
  1  7  1  0  0  0  0
  3  4  1  0  0  0  0
  3  5  1  0  0  0  0
  3  6  1  0  0  0  0
  7  8  1  0  0  0  0
  7 12  1  0  0  0  0
  8  9  1  0  0  0  0
  8 11  1  0  0  0  0
  8 13  1  0  0  0  0
  9 10  2  0  0  0  0
  9 17  1  0  0  0  0
 11 14  1  0  0  0  0
 11 15  1  0  0  0  0
 11 16  1  0  0  0  0
 17 18  1  0  0  0  0
 17 22  1  0  0  0  0
 18 19  1  0  0  0  0
 18 21  1  0  0  0  0
 18 23  1  0  0  0  0
 19 20  2  0  0  0  0
 19 27  1  0  0  0  0
 21 24  1  0  0  0  0
 21 25  1  0  0  0  0
 21 26  1  0  0  0  0
 27 28  1  0  0  0  0
 27 32  1  0  0  0  0
 28 29  1  0  0  0  0
 28 31  1  0  0  0  0
 28 33  1  0  0  0  0
 29 30  2  0  0  0  0
 29 37  1  0  0  0  0
 31 34  1  0  0  0  0
 31 35  1  0  0  0  0
 31 36  1  0  0  0  0
 37 38  1  0  0  0  0
 37 39  1  0  0  0  0
 38 40  1  0  0  0  0
 38 41  1  0  0  0  0
 38 42  1  0  0  0  0
M  END
$$$$

  -OEChem-05262215353D

 42 41  0     1  0  0  0  0  0999 V2000
   -5.1798   -1.3681    1.7632 C   0  0  0  0  0  0  0  0  0  0  0  0
   -5.6739   -0.6562    0.9022 O   0  0  0  0  0  0  0  0  0  0  0  0
   -5.8401   -2.6828    2.1327 C   0  0  0  0  0  0  0  0  0  0  0  0
   -6.0738   -2.6968    3.1998 H   0  0  0  0  0  0  0  0  0  0  0  0
   -6.7670   -2.8111    1.5670 H   0  0  0  0  0  0  0  0  0  0  0  0
   -5.1690   -3.5139    1.9023 H   0  0  0  0  0  0  0  0  0  0  0  0
   -4.0171   -0.9834    2.3959 N   0  0  0  0  0  0  0  0  0  0  0  0
   -3.1758    0.1367    1.9587 C   0  0  2  0  0  0  0  0  0  0  0  0
   -1.6812   -0.2230    2.0711 C   0  0  0  0  0  0  0  0  0  0  0  0
   -1.3027   -0.9765    2.9620 O   0  0  0  0  0  0  0  0  0  0  0  0
   -3.5104    1.3577    2.8192 C   0  0  0  0  0  0  0  0  0  0  0  0
   -3.5722   -1.6704    3.0042 H   0  0  0  0  0  0  0  0  0  0  0  0
   -3.3780    0.3697    0.9080 H   0  0  0  0  0  0  0  0  0  0  0  0
   -3.3071    1.1492    3.8747 H   0  0  0  0  0  0  0  0  0  0  0  0
   -2.9109    2.2200    2.5124 H   0  0  0  0  0  0  0  0  0  0  0  0
   -4.5687    1.6160    2.7119 H   0  0  0  0  0  0  0  0  0  0  0  0
   -0.7416    0.4110    1.2743 N   0  0  0  0  0  0  0  0  0  0  0  0
    0.4835   -0.2449    0.7651 C   0  0  2  0  0  0  0  0  0  0  0  0
    0.5762   -1.7983    0.8186 C   0  0  0  0  0  0  0  0  0  0  0  0
   -0.4158   -2.4845    0.5967 O   0  0  0  0  0  0  0  0  0  0  0  0
    1.6418    0.3943    1.5442 C   0  0  0  0  0  0  0  0  0  0  0  0
   -1.1549    1.0898    0.6424 H   0  0  0  0  0  0  0  0  0  0  0  0
    0.5898    0.0159   -0.2919 H   0  0  0  0  0  0  0  0  0  0  0  0
    1.6083    0.0838    2.5941 H   0  0  0  0  0  0  0  0  0  0  0  0
    2.6082    0.1026    1.1224 H   0  0  0  0  0  0  0  0  0  0  0  0
    1.5731    1.4860    1.5040 H   0  0  0  0  0  0  0  0  0  0  0  0
    1.8010   -2.4206    0.6536 N   0  0  0  0  0  0  0  0  0  0  0  0
    1.9949   -3.8753    0.7031 C   0  0  2  0  0  0  0  0  0  0  0  0
    3.2953   -4.2329    1.4522 C   0  0  0  0  0  0  0  0  0  0  0  0
    4.1510   -3.3736    1.6394 O   0  0  0  0  0  0  0  0  0  0  0  0
    2.0299   -4.4101   -0.7309 C   0  0  0  0  0  0  0  0  0  0  0  0
    2.6251   -1.8616    0.8714 H   0  0  0  0  0  0  0  0  0  0  0  0
    1.1657   -4.3449    1.2433 H   0  0  0  0  0  0  0  0  0  0  0  0
    2.8574   -3.9591   -1.2878 H   0  0  0  0  0  0  0  0  0  0  0  0
    2.1583   -5.4965   -0.7324 H   0  0  0  0  0  0  0  0  0  0  0  0
    1.0929   -4.1732   -1.2450 H   0  0  0  0  0  0  0  0  0  0  0  0
    3.5009   -5.5126    1.9333 N   0  0  0  0  0  0  0  0  0  0  0  0
    4.6819   -5.9000    2.6955 C   0  0  0  0  0  0  0  0  0  0  0  0
    2.7540   -6.1890    1.8040 H   0  0  0  0  0  0  0  0  0  0  0  0
    5.5886   -5.7563    2.0985 H   0  0  0  0  0  0  0  0  0  0  0  0
    4.7628   -5.3002    3.6082 H   0  0  0  0  0  0  0  0  0  0  0  0
    4.6197   -6.9549    2.9794 H   0  0  0  0  0  0  0  0  0  0  0  0
  1  2  2  0  0  0  0
  1  3  1  0  0  0  0
  1  7  1  0  0  0  0
  3  4  1  0  0  0  0
  3  5  1  0  0  0  0
  3  6  1  0  0  0  0
  7  8  1  0  0  0  0
  7 12  1  0  0  0  0
  8  9  1  0  0  0  0
  8 11  1  0  0  0  0
  8 13  1  0  0  0  0
  9 10  2  0  0  0  0
  9 17  1  0  0  0  0
 11 14  1  0  0  0  0
 11 15  1  0  0  0  0
 11 16  1  0  0  0  0
 17 18  1  0  0  0  0
 17 22  1  0  0  0  0
 18 19  1  0  0  0  0
 18 21  1  0  0  0  0
 18 23  1  0  0  0  0
 19 20  2  0  0  0  0
 19 27  1  0  0  0  0
 21 24  1  0  0  0  0
 21 25  1  0  0  0  0
 21 26  1  0  0  0  0
 27 28  1  0  0  0  0
 27 32  1  0  0  0  0
 28 29  1  0  0  0  0
 28 31  1  0  0  0  0
 28 33  1  0  0  0  0
 29 30  2  0  0  0  0
 29 37  1  0  0  0  0
 31 34  1  0  0  0  0
 31 35  1  0  0  0  0
 31 36  1  0  0  0  0
 37 38  1  0  0  0  0
 37 39  1  0  0  0  0
 38 40  1  0  0  0  0
 38 41  1  0  0  0  0
 38 42  1  0  0  0  0
M  END
$$$$

  -OEChem-05262215353D

 42 41  0     1  0  0  0  0  0999 V2000
   -5.1780   -1.3560    1.7856 C   0  0  0  0  0  0  0  0  0  0  0  0
   -5.6984   -0.6318    0.9511 O   0  0  0  0  0  0  0  0  0  0  0  0
   -5.8291   -2.6740    2.1616 C   0  0  0  0  0  0  0  0  0  0  0  0
   -6.0847   -2.6742    3.2238 H   0  0  0  0  0  0  0  0  0  0  0  0
   -6.7426   -2.8234    1.5790 H   0  0  0  0  0  0  0  0  0  0  0  0
   -5.1425   -3.4999    1.9587 H   0  0  0  0  0  0  0  0  0  0  0  0
   -3.9930   -0.9836    2.3832 N   0  0  0  0  0  0  0  0  0  0  0  0
   -3.1606    0.1368    1.9308 C   0  0  2  0  0  0  0  0  0  0  0  0
   -1.6634   -0.2145    2.0422 C   0  0  0  0  0  0  0  0  0  0  0  0
   -1.2862   -1.0021    2.9043 O   0  0  0  0  0  0  0  0  0  0  0  0
   -3.4975    1.3668    2.7775 C   0  0  0  0  0  0  0  0  0  0  0  0
   -3.5322   -1.6787    2.9700 H   0  0  0  0  0  0  0  0  0  0  0  0
   -3.3697    0.3543    0.8780 H   0  0  0  0  0  0  0  0  0  0  0  0
   -3.2857    1.1739    3.8342 H   0  0  0  0  0  0  0  0  0  0  0  0
   -2.9060    2.2287    2.4549 H   0  0  0  0  0  0  0  0  0  0  0  0
   -4.5581    1.6175    2.6739 H   0  0  0  0  0  0  0  0  0  0  0  0
   -0.7263    0.4383    1.2569 N   0  0  0  0  0  0  0  0  0  0  0  0
    0.5111   -0.1991    0.7556 C   0  0  2  0  0  0  0  0  0  0  0  0
    0.5939   -1.7516    0.8161 C   0  0  0  0  0  0  0  0  0  0  0  0
   -0.3533   -2.4197    0.4143 O   0  0  0  0  0  0  0  0  0  0  0  0
    1.6593    0.4538    1.5388 C   0  0  0  0  0  0  0  0  0  0  0  0
   -1.1414    1.1196    0.6289 H   0  0  0  0  0  0  0  0  0  0  0  0
    0.6234    0.0596   -0.3017 H   0  0  0  0  0  0  0  0  0  0  0  0
    1.6228    0.1498    2.5906 H   0  0  0  0  0  0  0  0  0  0  0  0
    2.6298    0.1671    1.1225 H   0  0  0  0  0  0  0  0  0  0  0  0
    1.5813    1.5445    1.4916 H   0  0  0  0  0  0  0  0  0  0  0  0
    1.8051   -2.4002    0.9764 N   0  0  0  0  0  0  0  0  0  0  0  0
    1.9348   -3.8546    1.1250 C   0  0  2  0  0  0  0  0  0  0  0  0
    3.0481   -4.2103    2.1319 C   0  0  0  0  0  0  0  0  0  0  0  0
    3.8773   -3.3651    2.4536 O   0  0  0  0  0  0  0  0  0  0  0  0
    2.2312   -4.4632   -0.2485 C   0  0  0  0  0  0  0  0  0  0  0  0
    2.5656   -1.8485    1.3720 H   0  0  0  0  0  0  0  0  0  0  0  0
    0.9983   -4.2717    1.5111 H   0  0  0  0  0  0  0  0  0  0  0  0
    3.1727   -4.0711   -0.6463 H   0  0  0  0  0  0  0  0  0  0  0  0
    2.3084   -5.5522   -0.1771 H   0  0  0  0  0  0  0  0  0  0  0  0
    1.4275   -4.2203   -0.9511 H   0  0  0  0  0  0  0  0  0  0  0  0
    3.1107   -5.4716    2.6948 N   0  0  0  0  0  0  0  0  0  0  0  0
    4.0917   -5.8470    3.7060 C   0  0  0  0  0  0  0  0  0  0  0  0
    2.3768   -6.1308    2.4521 H   0  0  0  0  0  0  0  0  0  0  0  0
    5.1087   -5.7201    3.3203 H   0  0  0  0  0  0  0  0  0  0  0  0
    3.9747   -5.2275    4.6014 H   0  0  0  0  0  0  0  0  0  0  0  0
    3.9596   -6.8951    3.9910 H   0  0  0  0  0  0  0  0  0  0  0  0
  1  2  2  0  0  0  0
  1  3  1  0  0  0  0
  1  7  1  0  0  0  0
  3  4  1  0  0  0  0
  3  5  1  0  0  0  0
  3  6  1  0  0  0  0
  7  8  1  0  0  0  0
  7 12  1  0  0  0  0
  8  9  1  0  0  0  0
  8 11  1  0  0  0  0
  8 13  1  0  0  0  0
  9 10  2  0  0  0  0
  9 17  1  0  0  0  0
 11 14  1  0  0  0  0
 11 15  1  0  0  0  0
 11 16  1  0  0  0  0
 17 18  1  0  0  0  0
 17 22  1  0  0  0  0
 18 19  1  0  0  0  0
 18 21  1  0  0  0  0
 18 23  1  0  0  0  0
 19 20  2  0  0  0  0
 19 27  1  0  0  0  0
 21 24  1  0  0  0  0
 21 25  1  0  0  0  0
 21 26  1  0  0  0  0
 27 28  1  0  0  0  0
 27 32  1  0  0  0  0
 28 29  1  0  0  0  0
 28 31  1  0  0  0  0
 28 33  1  0  0  0  0
 29 30  2  0  0  0  0
 29 37  1  0  0  0  0
 31 34  1  0  0  0  0
 31 35  1  0  0  0  0
 31 36  1  0  0  0  0
 37 38  1  0  0  0  0
 37 39  1  0  0  0  0
 38 40  1  0  0  0  0
 38 41  1  0  0  0  0
 38 42  1  0  0  0  0
M  END
$$$$

  -OEChem-05262215353D

 42 41  0     1  0  0  0  0  0999 V2000
   -5.2431   -1.2799    1.7916 C   0  0  0  0  0  0  0  0  0  0  0  0
   -5.7480   -0.5255    0.9747 O   0  0  0  0  0  0  0  0  0  0  0  0
   -5.9386   -2.5762    2.1622 C   0  0  0  0  0  0  0  0  0  0  0  0
   -6.1401   -2.5983    3.2359 H   0  0  0  0  0  0  0  0  0  0  0  0
   -6.8864   -2.6623    1.6235 H   0  0  0  0  0  0  0  0  0  0  0  0
   -5.3053   -3.4271    1.8988 H   0  0  0  0  0  0  0  0  0  0  0  0
   -4.0330   -0.9630    2.3705 N   0  0  0  0  0  0  0  0  0  0  0  0
   -3.1684    0.1343    1.9206 C   0  0  2  0  0  0  0  0  0  0  0  0
   -1.6817   -0.2699    1.9910 C   0  0  0  0  0  0  0  0  0  0  0  0
   -1.3241   -1.1156    2.8048 O   0  0  0  0  0  0  0  0  0  0  0  0
   -3.4407    1.3574    2.7999 C   0  0  0  0  0  0  0  0  0  0  0  0
   -3.5893   -1.6821    2.9413 H   0  0  0  0  0  0  0  0  0  0  0  0
   -3.3929    0.3813    0.8773 H   0  0  0  0  0  0  0  0  0  0  0  0
   -3.2118    1.1340    3.8468 H   0  0  0  0  0  0  0  0  0  0  0  0
   -2.8257    2.2044    2.4811 H   0  0  0  0  0  0  0  0  0  0  0  0
   -4.4937    1.6477    2.7278 H   0  0  0  0  0  0  0  0  0  0  0  0
   -0.7378    0.3955    1.2233 N   0  0  0  0  0  0  0  0  0  0  0  0
    0.5201   -0.2142    0.7399 C   0  0  2  0  0  0  0  0  0  0  0  0
    0.6194   -1.7640    0.8026 C   0  0  0  0  0  0  0  0  0  0  0  0
   -0.2319   -2.4339    0.2274 O   0  0  0  0  0  0  0  0  0  0  0  0
    1.6487    0.4630    1.5298 C   0  0  0  0  0  0  0  0  0  0  0  0
   -1.1385    1.1046    0.6168 H   0  0  0  0  0  0  0  0  0  0  0  0
    0.6392    0.0422   -0.3172 H   0  0  0  0  0  0  0  0  0  0  0  0
    1.5877    0.1932    2.5896 H   0  0  0  0  0  0  0  0  0  0  0  0
    2.6276    0.1611    1.1441 H   0  0  0  0  0  0  0  0  0  0  0  0
    1.5726    1.5515    1.4459 H   0  0  0  0  0  0  0  0  0  0  0  0
    1.7478   -2.4076    1.2775 N   0  0  0  0  0  0  0  0  0  0  0  0
    1.8195   -3.8562    1.4986 C   0  0  2  0  0  0  0  0  0  0  0  0
    2.6662   -4.1849    2.7454 C   0  0  0  0  0  0  0  0  0  0  0  0
    3.4157   -3.3374    3.2207 O   0  0  0  0  0  0  0  0  0  0  0  0
    2.4131   -4.5139    0.2498 C   0  0  0  0  0  0  0  0  0  0  0  0
    2.3832   -1.8451    1.8428 H   0  0  0  0  0  0  0  0  0  0  0  0
    0.8135   -4.2526    1.6734 H   0  0  0  0  0  0  0  0  0  0  0  0
    3.4260   -4.1411    0.0661 H   0  0  0  0  0  0  0  0  0  0  0  0
    2.4561   -5.6004    0.3716 H   0  0  0  0  0  0  0  0  0  0  0  0
    1.7944   -4.2904   -0.6253 H   0  0  0  0  0  0  0  0  0  0  0  0
    2.5791   -5.4271    3.3463 N   0  0  0  0  0  0  0  0  0  0  0  0
    3.2972   -5.7742    4.5666 C   0  0  0  0  0  0  0  0  0  0  0  0
    1.9072   -6.0869    2.9653 H   0  0  0  0  0  0  0  0  0  0  0  0
    4.3758   -5.6452    4.4267 H   0  0  0  0  0  0  0  0  0  0  0  0
    2.9706   -5.1378    5.3960 H   0  0  0  0  0  0  0  0  0  0  0  0
    3.1072   -6.8180    4.8346 H   0  0  0  0  0  0  0  0  0  0  0  0
  1  2  2  0  0  0  0
  1  3  1  0  0  0  0
  1  7  1  0  0  0  0
  3  4  1  0  0  0  0
  3  5  1  0  0  0  0
  3  6  1  0  0  0  0
  7  8  1  0  0  0  0
  7 12  1  0  0  0  0
  8  9  1  0  0  0  0
  8 11  1  0  0  0  0
  8 13  1  0  0  0  0
  9 10  2  0  0  0  0
  9 17  1  0  0  0  0
 11 14  1  0  0  0  0
 11 15  1  0  0  0  0
 11 16  1  0  0  0  0
 17 18  1  0  0  0  0
 17 22  1  0  0  0  0
 18 19  1  0  0  0  0
 18 21  1  0  0  0  0
 18 23  1  0  0  0  0
 19 20  2  0  0  0  0
 19 27  1  0  0  0  0
 21 24  1  0  0  0  0
 21 25  1  0  0  0  0
 21 26  1  0  0  0  0
 27 28  1  0  0  0  0
 27 32  1  0  0  0  0
 28 29  1  0  0  0  0
 28 31  1  0  0  0  0
 28 33  1  0  0  0  0
 29 30  2  0  0  0  0
 29 37  1  0  0  0  0
 31 34  1  0  0  0  0
 31 35  1  0  0  0  0
 31 36  1  0  0  0  0
 37 38  1  0  0  0  0
 37 39  1  0  0  0  0
 38 40  1  0  0  0  0
 38 41  1  0  0  0  0
 38 42  1  0  0  0  0
M  END
$$$$

  -OEChem-05262215353D

 42 41  0     1  0  0  0  0  0999 V2000
   -5.3545   -1.1807    1.8254 C   0  0  0  0  0  0  0  0  0  0  0  0
   -5.8512   -0.3797    1.0488 O   0  0  0  0  0  0  0  0  0  0  0  0
   -6.1192   -2.4284    2.2258 C   0  0  0  0  0  0  0  0  0  0  0  0
   -6.3110   -2.4200    3.3015 H   0  0  0  0  0  0  0  0  0  0  0  0
   -7.0754   -2.4701    1.6969 H   0  0  0  0  0  0  0  0  0  0  0  0
   -5.5384   -3.3188    1.9727 H   0  0  0  0  0  0  0  0  0  0  0  0
   -4.0914   -0.9600    2.3314 N   0  0  0  0  0  0  0  0  0  0  0  0
   -3.1868    0.0968    1.8635 C   0  0  2  0  0  0  0  0  0  0  0  0
   -1.7147   -0.3628    1.9164 C   0  0  0  0  0  0  0  0  0  0  0  0
   -1.3965   -1.2817    2.6640 O   0  0  0  0  0  0  0  0  0  0  0  0
   -3.3996    1.3372    2.7359 C   0  0  0  0  0  0  0  0  0  0  0  0
   -3.6677   -1.7112    2.8754 H   0  0  0  0  0  0  0  0  0  0  0  0
   -3.4154    0.3429    0.8209 H   0  0  0  0  0  0  0  0  0  0  0  0
   -3.1697    1.1119    3.7823 H   0  0  0  0  0  0  0  0  0  0  0  0
   -2.7542    2.1562    2.4048 H   0  0  0  0  0  0  0  0  0  0  0  0
   -4.4402    1.6707    2.6713 H   0  0  0  0  0  0  0  0  0  0  0  0
   -0.7475    0.3273    1.2010 N   0  0  0  0  0  0  0  0  0  0  0  0
    0.5455   -0.2359    0.7565 C   0  0  2  0  0  0  0  0  0  0  0  0
    0.6836   -1.7819    0.7941 C   0  0  0  0  0  0  0  0  0  0  0  0
   -0.0075   -2.4522    0.0351 O   0  0  0  0  0  0  0  0  0  0  0  0
    1.6263    0.4581    1.5969 C   0  0  0  0  0  0  0  0  0  0  0  0
   -1.1198    1.0803    0.6304 H   0  0  0  0  0  0  0  0  0  0  0  0
    0.6965    0.0417   -0.2913 H   0  0  0  0  0  0  0  0  0  0  0  0
    1.5121    0.2021    2.6556 H   0  0  0  0  0  0  0  0  0  0  0  0
    2.6255    0.1561    1.2668 H   0  0  0  0  0  0  0  0  0  0  0  0
    1.5481    1.5449    1.4953 H   0  0  0  0  0  0  0  0  0  0  0  0
    1.6451   -2.4172    1.5582 N   0  0  0  0  0  0  0  0  0  0  0  0
    1.6521   -3.8625    1.8073 C   0  0  2  0  0  0  0  0  0  0  0  0
    2.1574   -4.1739    3.2311 C   0  0  0  0  0  0  0  0  0  0  0  0
    2.7942   -3.3323    3.8571 O   0  0  0  0  0  0  0  0  0  0  0  0
    2.5386   -4.5405    0.7587 C   0  0  0  0  0  0  0  0  0  0  0  0
    2.0955   -1.8477    2.2740 H   0  0  0  0  0  0  0  0  0  0  0  0
    0.6323   -4.2545    1.7282 H   0  0  0  0  0  0  0  0  0  0  0  0
    3.5646   -4.1648    0.8245 H   0  0  0  0  0  0  0  0  0  0  0  0
    2.5527   -5.6238    0.9116 H   0  0  0  0  0  0  0  0  0  0  0  0
    2.1571   -4.3389   -0.2474 H   0  0  0  0  0  0  0  0  0  0  0  0
    1.8962   -5.3995    3.8153 N   0  0  0  0  0  0  0  0  0  0  0  0
    2.3094   -5.7429    5.1703 C   0  0  0  0  0  0  0  0  0  0  0  0
    1.3290   -6.0583    3.2899 H   0  0  0  0  0  0  0  0  0  0  0  0
    3.4014   -5.7316    5.2519 H   0  0  0  0  0  0  0  0  0  0  0  0
    1.8952   -5.0292    5.8902 H   0  0  0  0  0  0  0  0  0  0  0  0
    1.9527   -6.7434    5.4327 H   0  0  0  0  0  0  0  0  0  0  0  0
  1  2  2  0  0  0  0
  1  3  1  0  0  0  0
  1  7  1  0  0  0  0
  3  4  1  0  0  0  0
  3  5  1  0  0  0  0
  3  6  1  0  0  0  0
  7  8  1  0  0  0  0
  7 12  1  0  0  0  0
  8  9  1  0  0  0  0
  8 11  1  0  0  0  0
  8 13  1  0  0  0  0
  9 10  2  0  0  0  0
  9 17  1  0  0  0  0
 11 14  1  0  0  0  0
 11 15  1  0  0  0  0
 11 16  1  0  0  0  0
 17 18  1  0  0  0  0
 17 22  1  0  0  0  0
 18 19  1  0  0  0  0
 18 21  1  0  0  0  0
 18 23  1  0  0  0  0
 19 20  2  0  0  0  0
 19 27  1  0  0  0  0
 21 24  1  0  0  0  0
 21 25  1  0  0  0  0
 21 26  1  0  0  0  0
 27 28  1  0  0  0  0
 27 32  1  0  0  0  0
 28 29  1  0  0  0  0
 28 31  1  0  0  0  0
 28 33  1  0  0  0  0
 29 30  2  0  0  0  0
 29 37  1  0  0  0  0
 31 34  1  0  0  0  0
 31 35  1  0  0  0  0
 31 36  1  0  0  0  0
 37 38  1  0  0  0  0
 37 39  1  0  0  0  0
 38 40  1  0  0  0  0
 38 41  1  0  0  0  0
 38 42  1  0  0  0  0
M  END
$$$$

  -OEChem-05262215353D

 42 41  0     1  0  0  0  0  0999 V2000
   -5.3999   -1.1151    1.8136 C   0  0  0  0  0  0  0  0  0  0  0  0
   -5.8736   -0.2921    1.0460 O   0  0  0  0  0  0  0  0  0  0  0  0
   -6.2022   -2.3408    2.2079 C   0  0  0  0  0  0  0  0  0  0  0  0
   -6.3423   -2.3621    3.2911 H   0  0  0  0  0  0  0  0  0  0  0  0
   -7.1836   -2.3211    1.7259 H   0  0  0  0  0  0  0  0  0  0  0  0
   -5.6758   -3.2466    1.8974 H   0  0  0  0  0  0  0  0  0  0  0  0
   -4.1290   -0.9379    2.3173 N   0  0  0  0  0  0  0  0  0  0  0  0
   -3.1949    0.0984    1.8599 C   0  0  2  0  0  0  0  0  0  0  0  0
   -1.7384   -0.4117    1.8770 C   0  0  0  0  0  0  0  0  0  0  0  0
   -1.4501   -1.3788    2.5735 O   0  0  0  0  0  0  0  0  0  0  0  0
   -3.3520    1.3231    2.7662 C   0  0  0  0  0  0  0  0  0  0  0  0
   -3.7269   -1.7073    2.8523 H   0  0  0  0  0  0  0  0  0  0  0  0
   -3.4305    0.3789    0.8276 H   0  0  0  0  0  0  0  0  0  0  0  0
   -3.1113    1.0651    3.8025 H   0  0  0  0  0  0  0  0  0  0  0  0
   -2.6863    2.1289    2.4436 H   0  0  0  0  0  0  0  0  0  0  0  0
   -4.3821    1.6919    2.7291 H   0  0  0  0  0  0  0  0  0  0  0  0
   -0.7582    0.2758    1.1762 N   0  0  0  0  0  0  0  0  0  0  0  0
    0.5519   -0.2680    0.7582 C   0  0  2  0  0  0  0  0  0  0  0  0
    0.7183   -1.8098    0.8057 C   0  0  0  0  0  0  0  0  0  0  0  0
    0.2213   -2.4814   -0.0908 O   0  0  0  0  0  0  0  0  0  0  0  0
    1.6094    0.4445    1.6119 C   0  0  0  0  0  0  0  0  0  0  0  0
   -1.1088    1.0591    0.6327 H   0  0  0  0  0  0  0  0  0  0  0  0
    0.7166    0.0080   -0.2882 H   0  0  0  0  0  0  0  0  0  0  0  0
    1.4568    0.2285    2.6747 H   0  0  0  0  0  0  0  0  0  0  0  0
    2.6152    0.1190    1.3278 H   0  0  0  0  0  0  0  0  0  0  0  0
    1.5471    1.5276    1.4682 H   0  0  0  0  0  0  0  0  0  0  0  0
    1.4516   -2.4391    1.7946 N   0  0  0  0  0  0  0  0  0  0  0  0
    1.3847   -3.8813    2.0509 C   0  0  2  0  0  0  0  0  0  0  0  0
    1.5305   -4.1814    3.5571 C   0  0  0  0  0  0  0  0  0  0  0  0
    2.0418   -3.3541    4.3054 O   0  0  0  0  0  0  0  0  0  0  0  0
    2.4920   -4.5771    1.2543 C   0  0  0  0  0  0  0  0  0  0  0  0
    1.6854   -1.8640    2.6034 H   0  0  0  0  0  0  0  0  0  0  0  0
    0.4098   -4.2661    1.7328 H   0  0  0  0  0  0  0  0  0  0  0  0
    3.4748   -4.2086    1.5653 H   0  0  0  0  0  0  0  0  0  0  0  0
    2.4581   -5.6589    1.4142 H   0  0  0  0  0  0  0  0  0  0  0  0
    2.3688   -4.3826    0.1842 H   0  0  0  0  0  0  0  0  0  0  0  0
    1.0920   -5.3854    4.0774 N   0  0  0  0  0  0  0  0  0  0  0  0
    1.1506   -5.7085    5.4977 C   0  0  0  0  0  0  0  0  0  0  0  0
    0.6243   -6.0273    3.4440 H   0  0  0  0  0  0  0  0  0  0  0  0
    2.1838   -5.6657    5.8587 H   0  0  0  0  0  0  0  0  0  0  0  0
    0.5457   -5.0021    6.0762 H   0  0  0  0  0  0  0  0  0  0  0  0
    0.7663   -6.7181    5.6719 H   0  0  0  0  0  0  0  0  0  0  0  0
  1  2  2  0  0  0  0
  1  3  1  0  0  0  0
  1  7  1  0  0  0  0
  3  4  1  0  0  0  0
  3  5  1  0  0  0  0
  3  6  1  0  0  0  0
  7  8  1  0  0  0  0
  7 12  1  0  0  0  0
  8  9  1  0  0  0  0
  8 11  1  0  0  0  0
  8 13  1  0  0  0  0
  9 10  2  0  0  0  0
  9 17  1  0  0  0  0
 11 14  1  0  0  0  0
 11 15  1  0  0  0  0
 11 16  1  0  0  0  0
 17 18  1  0  0  0  0
 17 22  1  0  0  0  0
 18 19  1  0  0  0  0
 18 21  1  0  0  0  0
 18 23  1  0  0  0  0
 19 20  2  0  0  0  0
 19 27  1  0  0  0  0
 21 24  1  0  0  0  0
 21 25  1  0  0  0  0
 21 26  1  0  0  0  0
 27 28  1  0  0  0  0
 27 32  1  0  0  0  0
 28 29  1  0  0  0  0
 28 31  1  0  0  0  0
 28 33  1  0  0  0  0
 29 30  2  0  0  0  0
 29 37  1  0  0  0  0
 31 34  1  0  0  0  0
 31 35  1  0  0  0  0
 31 36  1  0  0  0  0
 37 38  1  0  0  0  0
 37 39  1  0  0  0  0
 38 40  1  0  0  0  0
 38 41  1  0  0  0  0
 38 42  1  0  0  0  0
M  END
$$$$

  -OEChem-05262215353D

 42 41  0     1  0  0  0  0  0999 V2000
   -5.5112   -0.9582    1.8114 C   0  0  0  0  0  0  0  0  0  0  0  0
   -5.9485   -0.1492    1.0082 O   0  0  0  0  0  0  0  0  0  0  0  0
   -6.3585   -2.1407    2.2418 C   0  0  0  0  0  0  0  0  0  0  0  0
   -6.5175   -2.1130    3.3226 H   0  0  0  0  0  0  0  0  0  0  0  0
   -7.3305   -2.1108    1.7413 H   0  0  0  0  0  0  0  0  0  0  0  0
   -5.8552   -3.0742    1.9780 H   0  0  0  0  0  0  0  0  0  0  0  0
   -4.2375   -0.8111    2.3169 N   0  0  0  0  0  0  0  0  0  0  0  0
   -3.2542    0.1533    1.8081 C   0  0  2  0  0  0  0  0  0  0  0  0
   -1.8266   -0.4342    1.8297 C   0  0  0  0  0  0  0  0  0  0  0  0
   -1.6018   -1.4394    2.4924 O   0  0  0  0  0  0  0  0  0  0  0  0
   -3.3368    1.4205    2.6644 C   0  0  0  0  0  0  0  0  0  0  0  0
   -3.8689   -1.5805    2.8757 H   0  0  0  0  0  0  0  0  0  0  0  0
   -3.4862    0.4055    0.7675 H   0  0  0  0  0  0  0  0  0  0  0  0
   -3.0933    1.1946    3.7076 H   0  0  0  0  0  0  0  0  0  0  0  0
   -2.6387    2.1799    2.2999 H   0  0  0  0  0  0  0  0  0  0  0  0
   -4.3487    1.8364    2.6251 H   0  0  0  0  0  0  0  0  0  0  0  0
   -0.8074    0.2114    1.1462 N   0  0  0  0  0  0  0  0  0  0  0  0
    0.5170   -0.3419    0.7894 C   0  0  2  0  0  0  0  0  0  0  0  0
    0.7101   -1.8784    0.8793 C   0  0  0  0  0  0  0  0  0  0  0  0
    0.5137   -2.5560   -0.1223 O   0  0  0  0  0  0  0  0  0  0  0  0
    1.5465    0.3915    1.6582 C   0  0  0  0  0  0  0  0  0  0  0  0
   -1.1058    1.0303    0.6246 H   0  0  0  0  0  0  0  0  0  0  0  0
    0.7132   -0.0882   -0.2576 H   0  0  0  0  0  0  0  0  0  0  0  0
    1.3552    0.2119    2.7214 H   0  0  0  0  0  0  0  0  0  0  0  0
    2.5589    0.0480    1.4220 H   0  0  0  0  0  0  0  0  0  0  0  0
    1.4983    1.4694    1.4765 H   0  0  0  0  0  0  0  0  0  0  0  0
    1.1471   -2.4932    2.0383 N   0  0  0  0  0  0  0  0  0  0  0  0
    1.1159   -3.9446    2.2446 C   0  0  2  0  0  0  0  0  0  0  0  0
    0.8697   -4.2911    3.7278 C   0  0  0  0  0  0  0  0  0  0  0  0
    1.1349   -3.4785    4.6080 O   0  0  0  0  0  0  0  0  0  0  0  0
    2.4445   -4.5387    1.7680 C   0  0  0  0  0  0  0  0  0  0  0  0
    1.0684   -1.9301    2.8853 H   0  0  0  0  0  0  0  0  0  0  0  0
    0.2940   -4.3789    1.6656 H   0  0  0  0  0  0  0  0  0  0  0  0
    3.2781   -4.1177    2.3390 H   0  0  0  0  0  0  0  0  0  0  0  0
    2.4470   -5.6252    1.8955 H   0  0  0  0  0  0  0  0  0  0  0  0
    2.6001   -4.3159    0.7080 H   0  0  0  0  0  0  0  0  0  0  0  0
    0.3592   -5.5269    4.0815 N   0  0  0  0  0  0  0  0  0  0  0  0
    0.0658   -5.9039    5.4586 C   0  0  0  0  0  0  0  0  0  0  0  0
    0.1017   -6.1603    3.3304 H   0  0  0  0  0  0  0  0  0  0  0  0
    0.9702   -5.8439    6.0734 H   0  0  0  0  0  0  0  0  0  0  0  0
   -0.6935   -5.2389    5.8835 H   0  0  0  0  0  0  0  0  0  0  0  0
   -0.3110   -6.9304    5.4986 H   0  0  0  0  0  0  0  0  0  0  0  0
  1  2  2  0  0  0  0
  1  3  1  0  0  0  0
  1  7  1  0  0  0  0
  3  4  1  0  0  0  0
  3  5  1  0  0  0  0
  3  6  1  0  0  0  0
  7  8  1  0  0  0  0
  7 12  1  0  0  0  0
  8  9  1  0  0  0  0
  8 11  1  0  0  0  0
  8 13  1  0  0  0  0
  9 10  2  0  0  0  0
  9 17  1  0  0  0  0
 11 14  1  0  0  0  0
 11 15  1  0  0  0  0
 11 16  1  0  0  0  0
 17 18  1  0  0  0  0
 17 22  1  0  0  0  0
 18 19  1  0  0  0  0
 18 21  1  0  0  0  0
 18 23  1  0  0  0  0
 19 20  2  0  0  0  0
 19 27  1  0  0  0  0
 21 24  1  0  0  0  0
 21 25  1  0  0  0  0
 21 26  1  0  0  0  0
 27 28  1  0  0  0  0
 27 32  1  0  0  0  0
 28 29  1  0  0  0  0
 28 31  1  0  0  0  0
 28 33  1  0  0  0  0
 29 30  2  0  0  0  0
 29 37  1  0  0  0  0
 31 34  1  0  0  0  0
 31 35  1  0  0  0  0
 31 36  1  0  0  0  0
 37 38  1  0  0  0  0
 37 39  1  0  0  0  0
 38 40  1  0  0  0  0
 38 41  1  0  0  0  0
 38 42  1  0  0  0  0
M  END
$$$$

  -OEChem-05262215353D

 42 41  0     1  0  0  0  0  0999 V2000
   -5.6954   -0.6389    1.7244 C   0  0  0  0  0  0  0  0  0  0  0  0
   -6.0438    0.2048    0.9133 O   0  0  0  0  0  0  0  0  0  0  0  0
   -6.6806   -1.6889    2.2028 C   0  0  0  0  0  0  0  0  0  0  0  0
   -6.8520   -1.5771    3.2762 H   0  0  0  0  0  0  0  0  0  0  0  0
   -7.6348   -1.5756    1.6804 H   0  0  0  0  0  0  0  0  0  0  0  0
   -6.2875   -2.6894    2.0056 H   0  0  0  0  0  0  0  0  0  0  0  0
   -4.4054   -0.6356    2.2109 N   0  0  0  0  0  0  0  0  0  0  0  0
   -3.3381    0.2485    1.7259 C   0  0  2  0  0  0  0  0  0  0  0  0
   -1.9600   -0.4463    1.7597 C   0  0  0  0  0  0  0  0  0  0  0  0
   -1.8235   -1.4758    2.4055 O   0  0  0  0  0  0  0  0  0  0  0  0
   -3.3335    1.5098    2.5955 C   0  0  0  0  0  0  0  0  0  0  0  0
   -4.1195   -1.4242    2.7909 H   0  0  0  0  0  0  0  0  0  0  0  0
   -3.5343    0.5281    0.6852 H   0  0  0  0  0  0  0  0  0  0  0  0
   -3.1360    1.2520    3.6410 H   0  0  0  0  0  0  0  0  0  0  0  0
   -2.5641    2.2102    2.2574 H   0  0  0  0  0  0  0  0  0  0  0  0
   -4.3051    2.0115    2.5382 H   0  0  0  0  0  0  0  0  0  0  0  0
   -0.8857    0.1334    1.1035 N   0  0  0  0  0  0  0  0  0  0  0  0
    0.4442   -0.4523    0.8222 C   0  0  2  0  0  0  0  0  0  0  0  0
    0.6535   -1.9840    0.9600 C   0  0  0  0  0  0  0  0  0  0  0  0
    0.8400   -2.6438   -0.0554 O   0  0  0  0  0  0  0  0  0  0  0  0
    1.4452    0.2860    1.7184 C   0  0  0  0  0  0  0  0  0  0  0  0
   -1.1139    0.9844    0.5979 H   0  0  0  0  0  0  0  0  0  0  0  0
    0.6862   -0.2221   -0.2210 H   0  0  0  0  0  0  0  0  0  0  0  0
    1.2156    0.1180    2.7757 H   0  0  0  0  0  0  0  0  0  0  0  0
    2.4630   -0.0676    1.5235 H   0  0  0  0  0  0  0  0  0  0  0  0
    1.4113    1.3622    1.5235 H   0  0  0  0  0  0  0  0  0  0  0  0
    0.7524   -2.6031    2.1921 N   0  0  0  0  0  0  0  0  0  0  0  0
    0.8427   -4.0568    2.3677 C   0  0  2  0  0  0  0  0  0  0  0  0
    0.2427   -4.5059    3.7163 C   0  0  0  0  0  0  0  0  0  0  0  0
    0.1416   -3.7179    4.6503 O   0  0  0  0  0  0  0  0  0  0  0  0
    2.3140   -4.4749    2.2779 C   0  0  0  0  0  0  0  0  0  0  0  0
    0.3054   -2.0938    2.9579 H   0  0  0  0  0  0  0  0  0  0  0  0
    0.2748   -4.5543    1.5746 H   0  0  0  0  0  0  0  0  0  0  0  0
    2.8970   -3.9895    3.0672 H   0  0  0  0  0  0  0  0  0  0  0  0
    2.4122   -5.5591    2.3875 H   0  0  0  0  0  0  0  0  0  0  0  0
    2.7330   -4.1880    1.3082 H   0  0  0  0  0  0  0  0  0  0  0  0
   -0.1686   -5.8146    3.8925 N   0  0  0  0  0  0  0  0  0  0  0  0
   -0.7523   -6.3086    5.1334 C   0  0  0  0  0  0  0  0  0  0  0  0
   -0.1005   -6.4399    3.0951 H   0  0  0  0  0  0  0  0  0  0  0  0
   -0.0504   -6.1808    5.9644 H   0  0  0  0  0  0  0  0  0  0  0  0
   -1.6750   -5.7660    5.3649 H   0  0  0  0  0  0  0  0  0  0  0  0
   -0.9898   -7.3730    5.0432 H   0  0  0  0  0  0  0  0  0  0  0  0
  1  2  2  0  0  0  0
  1  3  1  0  0  0  0
  1  7  1  0  0  0  0
  3  4  1  0  0  0  0
  3  5  1  0  0  0  0
  3  6  1  0  0  0  0
  7  8  1  0  0  0  0
  7 12  1  0  0  0  0
  8  9  1  0  0  0  0
  8 11  1  0  0  0  0
  8 13  1  0  0  0  0
  9 10  2  0  0  0  0
  9 17  1  0  0  0  0
 11 14  1  0  0  0  0
 11 15  1  0  0  0  0
 11 16  1  0  0  0  0
 17 18  1  0  0  0  0
 17 22  1  0  0  0  0
 18 19  1  0  0  0  0
 18 21  1  0  0  0  0
 18 23  1  0  0  0  0
 19 20  2  0  0  0  0
 19 27  1  0  0  0  0
 21 24  1  0  0  0  0
 21 25  1  0  0  0  0
 21 26  1  0  0  0  0
 27 28  1  0  0  0  0
 27 32  1  0  0  0  0
 28 29  1  0  0  0  0
 28 31  1  0  0  0  0
 28 33  1  0  0  0  0
 29 30  2  0  0  0  0
 29 37  1  0  0  0  0
 31 34  1  0  0  0  0
 31 35  1  0  0  0  0
 31 36  1  0  0  0  0
 37 38  1  0  0  0  0
 37 39  1  0  0  0  0
 38 40  1  0  0  0  0
 38 41  1  0  0  0  0
 38 42  1  0  0  0  0
M  END
$$$$

  -OEChem-05262215353D

 42 41  0     1  0  0  0  0  0999 V2000
   -5.5828   -0.5628    1.5137 C   0  0  0  0  0  0  0  0  0  0  0  0
   -5.6998    0.0035    0.4385 O   0  0  0  0  0  0  0  0  0  0  0  0
   -6.5833   -1.6272    1.9227 C   0  0  0  0  0  0  0  0  0  0  0  0
   -7.1045   -1.3195    2.8324 H   0  0  0  0  0  0  0  0  0  0  0  0
   -7.3196   -1.7777    1.1281 H   0  0  0  0  0  0  0  0  0  0  0  0
   -6.0679   -2.5729    2.1082 H   0  0  0  0  0  0  0  0  0  0  0  0
   -4.5356   -0.2528    2.3563 N   0  0  0  0  0  0  0  0  0  0  0  0
   -3.3718    0.5473    1.9478 C   0  0  2  0  0  0  0  0  0  0  0  0
   -2.0968   -0.3157    1.8425 C   0  0  0  0  0  0  0  0  0  0  0  0
   -2.0115   -1.3314    2.5151 O   0  0  0  0  0  0  0  0  0  0  0  0
   -3.1833    1.6553    2.9864 C   0  0  0  0  0  0  0  0  0  0  0  0
   -4.3822   -0.9055    3.1232 H   0  0  0  0  0  0  0  0  0  0  0  0
   -3.5433    1.0113    0.9711 H   0  0  0  0  0  0  0  0  0  0  0  0
   -2.9866    1.2256    3.9741 H   0  0  0  0  0  0  0  0  0  0  0  0
   -2.3414    2.2989    2.7137 H   0  0  0  0  0  0  0  0  0  0  0  0
   -4.0845    2.2733    3.0482 H   0  0  0  0  0  0  0  0  0  0  0  0
   -1.0335    0.1250    1.0723 N   0  0  0  0  0  0  0  0  0  0  0  0
    0.2318   -0.5649    0.7272 C   0  0  2  0  0  0  0  0  0  0  0  0
    0.4148   -2.0953    0.9288 C   0  0  0  0  0  0  0  0  0  0  0  0
    0.8303   -2.7510   -0.0193 O   0  0  0  0  0  0  0  0  0  0  0  0
    1.3342    0.1601    1.5065 C   0  0  0  0  0  0  0  0  0  0  0  0
   -1.2201    0.9837    0.5620 H   0  0  0  0  0  0  0  0  0  0  0  0
    0.3996   -0.3976   -0.3421 H   0  0  0  0  0  0  0  0  0  0  0  0
    1.1926    0.0268    2.5842 H   0  0  0  0  0  0  0  0  0  0  0  0
    2.3175   -0.2371    1.2333 H   0  0  0  0  0  0  0  0  0  0  0  0
    1.3224    1.2314    1.2831 H   0  0  0  0  0  0  0  0  0  0  0  0
    0.3073   -2.7171    2.1587 N   0  0  0  0  0  0  0  0  0  0  0  0
    0.4868   -4.1594    2.3685 C   0  0  2  0  0  0  0  0  0  0  0  0
   -0.4108   -4.7052    3.4983 C   0  0  0  0  0  0  0  0  0  0  0  0
   -0.6851   -4.0145    4.4725 O   0  0  0  0  0  0  0  0  0  0  0  0
    1.9603   -4.4166    2.6959 C   0  0  0  0  0  0  0  0  0  0  0  0
   -0.2969   -2.2305    2.8296 H   0  0  0  0  0  0  0  0  0  0  0  0
    0.2208   -4.6993    1.4540 H   0  0  0  0  0  0  0  0  0  0  0  0
    2.2478   -3.8786    3.6049 H   0  0  0  0  0  0  0  0  0  0  0  0
    2.1377   -5.4848    2.8519 H   0  0  0  0  0  0  0  0  0  0  0  0
    2.5974   -4.0769    1.8733 H   0  0  0  0  0  0  0  0  0  0  0  0
   -0.8782   -6.0059    3.4433 N   0  0  0  0  0  0  0  0  0  0  0  0
   -1.7146   -6.6009    4.4784 C   0  0  0  0  0  0  0  0  0  0  0  0
   -0.6564   -6.5493    2.6144 H   0  0  0  0  0  0  0  0  0  0  0  0
   -1.1920   -6.5983    5.4406 H   0  0  0  0  0  0  0  0  0  0  0  0
   -2.6502   -6.0419    4.5843 H   0  0  0  0  0  0  0  0  0  0  0  0
   -1.9574   -7.6361    4.2205 H   0  0  0  0  0  0  0  0  0  0  0  0
  1  2  2  0  0  0  0
  1  3  1  0  0  0  0
  1  7  1  0  0  0  0
  3  4  1  0  0  0  0
  3  5  1  0  0  0  0
  3  6  1  0  0  0  0
  7  8  1  0  0  0  0
  7 12  1  0  0  0  0
  8  9  1  0  0  0  0
  8 11  1  0  0  0  0
  8 13  1  0  0  0  0
  9 10  2  0  0  0  0
  9 17  1  0  0  0  0
 11 14  1  0  0  0  0
 11 15  1  0  0  0  0
 11 16  1  0  0  0  0
 17 18  1  0  0  0  0
 17 22  1  0  0  0  0
 18 19  1  0  0  0  0
 18 21  1  0  0  0  0
 18 23  1  0  0  0  0
 19 20  2  0  0  0  0
 19 27  1  0  0  0  0
 21 24  1  0  0  0  0
 21 25  1  0  0  0  0
 21 26  1  0  0  0  0
 27 28  1  0  0  0  0
 27 32  1  0  0  0  0
 28 29  1  0  0  0  0
 28 31  1  0  0  0  0
 28 33  1  0  0  0  0
 29 30  2  0  0  0  0
 29 37  1  0  0  0  0
 31 34  1  0  0  0  0
 31 35  1  0  0  0  0
 31 36  1  0  0  0  0
 37 38  1  0  0  0  0
 37 39  1  0  0  0  0
 38 40  1  0  0  0  0
 38 41  1  0  0  0  0
 38 42  1  0  0  0  0
M  END
$$$$

  -OEChem-05262215353D

 42 41  0     1  0  0  0  0  0999 V2000
   -4.1282   -0.9745    1.1750 C   0  0  0  0  0  0  0  0  0  0  0  0
   -4.0471   -0.0258    0.4052 O   0  0  0  0  0  0  0  0  0  0  0  0
   -4.6031   -2.3263    0.6784 C   0  0  0  0  0  0  0  0  0  0  0  0
   -3.7587   -3.0194    0.6271 H   0  0  0  0  0  0  0  0  0  0  0  0
   -5.3552   -2.7322    1.3592 H   0  0  0  0  0  0  0  0  0  0  0  0
   -5.0434   -2.2300   -0.3178 H   0  0  0  0  0  0  0  0  0  0  0  0
   -3.6490   -0.8437    2.4608 N   0  0  0  0  0  0  0  0  0  0  0  0
   -2.8878    0.3251    2.9211 C   0  0  2  0  0  0  0  0  0  0  0  0
   -1.4423    0.2709    2.3770 C   0  0  0  0  0  0  0  0  0  0  0  0
   -0.4730    0.1289    3.1144 O   0  0  0  0  0  0  0  0  0  0  0  0
   -2.9521    0.3362    4.4529 C   0  0  0  0  0  0  0  0  0  0  0  0
   -3.4828   -1.7276    2.9556 H   0  0  0  0  0  0  0  0  0  0  0  0
   -3.3527    1.2471    2.5561 H   0  0  0  0  0  0  0  0  0  0  0  0
   -2.5091   -0.5773    4.8639 H   0  0  0  0  0  0  0  0  0  0  0  0
   -2.4053    1.1970    4.8508 H   0  0  0  0  0  0  0  0  0  0  0  0
   -3.9915    0.4005    4.7886 H   0  0  0  0  0  0  0  0  0  0  0  0
   -1.2261    0.3053    1.0122 N   0  0  0  0  0  0  0  0  0  0  0  0
   -0.5633   -0.7795    0.2531 C   0  0  2  0  0  0  0  0  0  0  0  0
   -0.3858   -2.1826    0.8962 C   0  0  0  0  0  0  0  0  0  0  0  0
   -0.7043   -3.1669    0.2387 O   0  0  0  0  0  0  0  0  0  0  0  0
    0.8152   -0.2487   -0.1481 C   0  0  0  0  0  0  0  0  0  0  0  0
   -2.0896    0.6012    0.5473 H   0  0  0  0  0  0  0  0  0  0  0  0
   -1.1495   -0.9396   -0.6582 H   0  0  0  0  0  0  0  0  0  0  0  0
    1.4288   -0.0671    0.7404 H   0  0  0  0  0  0  0  0  0  0  0  0
    1.3314   -0.9720   -0.7874 H   0  0  0  0  0  0  0  0  0  0  0  0
    0.7158    0.6912   -0.6997 H   0  0  0  0  0  0  0  0  0  0  0  0
    0.0533   -2.3936    2.1879 N   0  0  0  0  0  0  0  0  0  0  0  0
   -0.1256   -3.6728    2.8839 C   0  0  2  0  0  0  0  0  0  0  0  0
   -1.6107   -4.0718    3.0670 C   0  0  0  0  0  0  0  0  0  0  0  0
   -2.4564   -3.2497    3.4126 O   0  0  0  0  0  0  0  0  0  0  0  0
    0.5577   -3.5517    4.2472 C   0  0  0  0  0  0  0  0  0  0  0  0
    0.1333   -1.5454    2.7566 H   0  0  0  0  0  0  0  0  0  0  0  0
    0.3736   -4.4599    2.3095 H   0  0  0  0  0  0  0  0  0  0  0  0
    0.0857   -2.7634    4.8437 H   0  0  0  0  0  0  0  0  0  0  0  0
    0.4836   -4.4953    4.7963 H   0  0  0  0  0  0  0  0  0  0  0  0
    1.6168   -3.3060    4.1211 H   0  0  0  0  0  0  0  0  0  0  0  0
   -2.0030   -5.3818    2.8632 N   0  0  0  0  0  0  0  0  0  0  0  0
   -3.3908   -5.8224    2.9340 C   0  0  0  0  0  0  0  0  0  0  0  0
   -1.3163   -6.0048    2.4470 H   0  0  0  0  0  0  0  0  0  0  0  0
   -3.8181   -5.5917    3.9157 H   0  0  0  0  0  0  0  0  0  0  0  0
   -3.9897   -5.3275    2.1625 H   0  0  0  0  0  0  0  0  0  0  0  0
   -3.4517   -6.9040    2.7793 H   0  0  0  0  0  0  0  0  0  0  0  0
  1  2  2  0  0  0  0
  1  3  1  0  0  0  0
  1  7  1  0  0  0  0
  3  4  1  0  0  0  0
  3  5  1  0  0  0  0
  3  6  1  0  0  0  0
  7  8  1  0  0  0  0
  7 12  1  0  0  0  0
  8  9  1  0  0  0  0
  8 11  1  0  0  0  0
  8 13  1  0  0  0  0
  9 10  2  0  0  0  0
  9 17  1  0  0  0  0
 11 14  1  0  0  0  0
 11 15  1  0  0  0  0
 11 16  1  0  0  0  0
 17 18  1  0  0  0  0
 17 22  1  0  0  0  0
 18 19  1  0  0  0  0
 18 21  1  0  0  0  0
 18 23  1  0  0  0  0
 19 20  2  0  0  0  0
 19 27  1  0  0  0  0
 21 24  1  0  0  0  0
 21 25  1  0  0  0  0
 21 26  1  0  0  0  0
 27 28  1  0  0  0  0
 27 32  1  0  0  0  0
 28 29  1  0  0  0  0
 28 31  1  0  0  0  0
 28 33  1  0  0  0  0
 29 30  2  0  0  0  0
 29 37  1  0  0  0  0
 31 34  1  0  0  0  0
 31 35  1  0  0  0  0
 31 36  1  0  0  0  0
 37 38  1  0  0  0  0
 37 39  1  0  0  0  0
 38 40  1  0  0  0  0
 38 41  1  0  0  0  0
 38 42  1  0  0  0  0
M  END
$$$$

  -OEChem-05262215353D

 42 41  0     1  0  0  0  0  0999 V2000
   -4.3491   -0.7497    1.0881 C   0  0  0  0  0  0  0  0  0  0  0  0
   -4.1891    0.3277    0.5306 O   0  0  0  0  0  0  0  0  0  0  0  0
   -4.9236   -1.9261    0.3241 C   0  0  0  0  0  0  0  0  0  0  0  0
   -5.5887   -2.5042    0.9705 H   0  0  0  0  0  0  0  0  0  0  0  0
   -5.4908   -1.5738   -0.5417 H   0  0  0  0  0  0  0  0  0  0  0  0
   -4.1123   -2.5726   -0.0193 H   0  0  0  0  0  0  0  0  0  0  0  0
   -3.8711   -0.9228    2.3691 N   0  0  0  0  0  0  0  0  0  0  0  0
   -3.0918    0.0957    3.0901 C   0  0  2  0  0  0  0  0  0  0  0  0
   -1.6280    0.1257    2.5919 C   0  0  0  0  0  0  0  0  0  0  0  0
   -0.6907   -0.1525    3.3302 O   0  0  0  0  0  0  0  0  0  0  0  0
   -3.2114   -0.2168    4.5861 C   0  0  0  0  0  0  0  0  0  0  0  0
   -3.7787   -1.8991    2.6717 H   0  0  0  0  0  0  0  0  0  0  0  0
   -3.5225    1.0878    2.9176 H   0  0  0  0  0  0  0  0  0  0  0  0
   -2.8032   -1.2087    4.8065 H   0  0  0  0  0  0  0  0  0  0  0  0
   -2.6611    0.5243    5.1743 H   0  0  0  0  0  0  0  0  0  0  0  0
   -4.2605   -0.1946    4.8962 H   0  0  0  0  0  0  0  0  0  0  0  0
   -1.3811    0.3452    1.2502 N   0  0  0  0  0  0  0  0  0  0  0  0
   -0.6048   -0.5422    0.3510 C   0  0  2  0  0  0  0  0  0  0  0  0
   -0.2641   -2.0109    0.7405 C   0  0  0  0  0  0  0  0  0  0  0  0
   -0.1288   -2.8209   -0.1694 O   0  0  0  0  0  0  0  0  0  0  0  0
    0.7080    0.1954    0.0732 C   0  0  0  0  0  0  0  0  0  0  0  0
   -2.2335    0.6931    0.8000 H   0  0  0  0  0  0  0  0  0  0  0  0
   -1.1670   -0.6131   -0.5862 H   0  0  0  0  0  0  0  0  0  0  0  0
    1.2995    0.2806    0.9907 H   0  0  0  0  0  0  0  0  0  0  0  0
    1.2989   -0.3435   -0.6743 H   0  0  0  0  0  0  0  0  0  0  0  0
    0.5085    1.2019   -0.3070 H   0  0  0  0  0  0  0  0  0  0  0  0
   -0.3668   -2.5292    2.0157 N   0  0  0  0  0  0  0  0  0  0  0  0
   -0.6270   -3.9402    2.3091 C   0  0  2  0  0  0  0  0  0  0  0  0
   -2.1001   -4.3175    2.0359 C   0  0  0  0  0  0  0  0  0  0  0  0
   -3.0200   -3.6630    2.5234 O   0  0  0  0  0  0  0  0  0  0  0  0
   -0.2669   -4.1858    3.7757 C   0  0  0  0  0  0  0  0  0  0  0  0
   -0.4983   -1.8454    2.7640 H   0  0  0  0  0  0  0  0  0  0  0  0
    0.0180   -4.5700    1.6876 H   0  0  0  0  0  0  0  0  0  0  0  0
   -0.8813   -3.5613    4.4329 H   0  0  0  0  0  0  0  0  0  0  0  0
   -0.4328   -5.2352    4.0380 H   0  0  0  0  0  0  0  0  0  0  0  0
    0.7863   -3.9461    3.9528 H   0  0  0  0  0  0  0  0  0  0  0  0
   -2.3971   -5.4068    1.2394 N   0  0  0  0  0  0  0  0  0  0  0  0
   -3.7553   -5.7939    0.8788 C   0  0  0  0  0  0  0  0  0  0  0  0
   -1.6218   -5.8182    0.7258 H   0  0  0  0  0  0  0  0  0  0  0  0
   -4.3726   -5.9164    1.7750 H   0  0  0  0  0  0  0  0  0  0  0  0
   -4.2123   -5.0355    0.2359 H   0  0  0  0  0  0  0  0  0  0  0  0
   -3.7447   -6.7457    0.3391 H   0  0  0  0  0  0  0  0  0  0  0  0
  1  2  2  0  0  0  0
  1  3  1  0  0  0  0
  1  7  1  0  0  0  0
  3  4  1  0  0  0  0
  3  5  1  0  0  0  0
  3  6  1  0  0  0  0
  7  8  1  0  0  0  0
  7 12  1  0  0  0  0
  8  9  1  0  0  0  0
  8 11  1  0  0  0  0
  8 13  1  0  0  0  0
  9 10  2  0  0  0  0
  9 17  1  0  0  0  0
 11 14  1  0  0  0  0
 11 15  1  0  0  0  0
 11 16  1  0  0  0  0
 17 18  1  0  0  0  0
 17 22  1  0  0  0  0
 18 19  1  0  0  0  0
 18 21  1  0  0  0  0
 18 23  1  0  0  0  0
 19 20  2  0  0  0  0
 19 27  1  0  0  0  0
 21 24  1  0  0  0  0
 21 25  1  0  0  0  0
 21 26  1  0  0  0  0
 27 28  1  0  0  0  0
 27 32  1  0  0  0  0
 28 29  1  0  0  0  0
 28 31  1  0  0  0  0
 28 33  1  0  0  0  0
 29 30  2  0  0  0  0
 29 37  1  0  0  0  0
 31 34  1  0  0  0  0
 31 35  1  0  0  0  0
 31 36  1  0  0  0  0
 37 38  1  0  0  0  0
 37 39  1  0  0  0  0
 38 40  1  0  0  0  0
 38 41  1  0  0  0  0
 38 42  1  0  0  0  0
M  END
$$$$

  -OEChem-05262215353D

 42 41  0     1  0  0  0  0  0999 V2000
   -4.3338   -0.4335    1.0507 C   0  0  0  0  0  0  0  0  0  0  0  0
   -4.0721    0.7118    0.7078 O   0  0  0  0  0  0  0  0  0  0  0  0
   -4.9987   -1.3891    0.0786 C   0  0  0  0  0  0  0  0  0  0  0  0
   -5.8274   -1.9047    0.5700 H   0  0  0  0  0  0  0  0  0  0  0  0
   -5.3859   -0.8420   -0.7854 H   0  0  0  0  0  0  0  0  0  0  0  0
   -4.2745   -2.1310   -0.2672 H   0  0  0  0  0  0  0  0  0  0  0  0
   -3.9083   -0.8824    2.2827 N   0  0  0  0  0  0  0  0  0  0  0  0
   -3.0729   -0.0823    3.1926 C   0  0  2  0  0  0  0  0  0  0  0  0
   -1.5968   -0.0922    2.7329 C   0  0  0  0  0  0  0  0  0  0  0  0
   -0.7226   -0.6315    3.3994 O   0  0  0  0  0  0  0  0  0  0  0  0
   -3.2678   -0.6444    4.6057 C   0  0  0  0  0  0  0  0  0  0  0  0
   -3.8890   -1.9027    2.3892 H   0  0  0  0  0  0  0  0  0  0  0  0
   -3.4128    0.9589    3.1966 H   0  0  0  0  0  0  0  0  0  0  0  0
   -2.9533   -1.6923    4.6512 H   0  0  0  0  0  0  0  0  0  0  0  0
   -2.6755   -0.0723    5.3270 H   0  0  0  0  0  0  0  0  0  0  0  0
   -4.3208   -0.5833    4.8972 H   0  0  0  0  0  0  0  0  0  0  0  0
   -1.2917    0.3812    1.4712 N   0  0  0  0  0  0  0  0  0  0  0  0
   -0.4792   -0.3077    0.4393 C   0  0  2  0  0  0  0  0  0  0  0  0
   -0.1442   -1.8269    0.5271 C   0  0  0  0  0  0  0  0  0  0  0  0
    0.2638   -2.3750   -0.4897 O   0  0  0  0  0  0  0  0  0  0  0  0
    0.8367    0.4750    0.3715 C   0  0  0  0  0  0  0  0  0  0  0  0
   -2.1048    0.8619    1.0736 H   0  0  0  0  0  0  0  0  0  0  0  0
   -1.0053   -0.1857   -0.5130 H   0  0  0  0  0  0  0  0  0  0  0  0
    1.3951    0.3611    1.3065 H   0  0  0  0  0  0  0  0  0  0  0  0
    1.4587    0.1108   -0.4526 H   0  0  0  0  0  0  0  0  0  0  0  0
    0.6421    1.5396    0.2091 H   0  0  0  0  0  0  0  0  0  0  0  0
   -0.5637   -2.6483    1.5545 N   0  0  0  0  0  0  0  0  0  0  0  0
   -0.8305   -4.0869    1.4567 C   0  0  2  0  0  0  0  0  0  0  0  0
   -2.3420   -4.3875    1.3475 C   0  0  0  0  0  0  0  0  0  0  0  0
   -3.1766   -3.6407    1.8565 O   0  0  0  0  0  0  0  0  0  0  0  0
   -0.2420   -4.7477    2.7041 C   0  0  0  0  0  0  0  0  0  0  0  0
   -0.8450   -2.1680    2.4107 H   0  0  0  0  0  0  0  0  0  0  0  0
   -0.3342   -4.5076    0.5763 H   0  0  0  0  0  0  0  0  0  0  0  0
   -0.7197   -4.3550    3.6077 H   0  0  0  0  0  0  0  0  0  0  0  0
   -0.3936   -5.8308    2.6715 H   0  0  0  0  0  0  0  0  0  0  0  0
    0.8330   -4.5499    2.7647 H   0  0  0  0  0  0  0  0  0  0  0  0
   -2.7768   -5.5235    0.6903 N   0  0  0  0  0  0  0  0  0  0  0  0
   -4.1827   -5.8753    0.5321 C   0  0  0  0  0  0  0  0  0  0  0  0
   -2.0723   -6.1011    0.2393 H   0  0  0  0  0  0  0  0  0  0  0  0
   -4.6659   -5.9757    1.5098 H   0  0  0  0  0  0  0  0  0  0  0  0
   -4.7078   -5.1065   -0.0444 H   0  0  0  0  0  0  0  0  0  0  0  0
   -4.2768   -6.8289    0.0034 H   0  0  0  0  0  0  0  0  0  0  0  0
  1  2  2  0  0  0  0
  1  3  1  0  0  0  0
  1  7  1  0  0  0  0
  3  4  1  0  0  0  0
  3  5  1  0  0  0  0
  3  6  1  0  0  0  0
  7  8  1  0  0  0  0
  7 12  1  0  0  0  0
  8  9  1  0  0  0  0
  8 11  1  0  0  0  0
  8 13  1  0  0  0  0
  9 10  2  0  0  0  0
  9 17  1  0  0  0  0
 11 14  1  0  0  0  0
 11 15  1  0  0  0  0
 11 16  1  0  0  0  0
 17 18  1  0  0  0  0
 17 22  1  0  0  0  0
 18 19  1  0  0  0  0
 18 21  1  0  0  0  0
 18 23  1  0  0  0  0
 19 20  2  0  0  0  0
 19 27  1  0  0  0  0
 21 24  1  0  0  0  0
 21 25  1  0  0  0  0
 21 26  1  0  0  0  0
 27 28  1  0  0  0  0
 27 32  1  0  0  0  0
 28 29  1  0  0  0  0
 28 31  1  0  0  0  0
 28 33  1  0  0  0  0
 29 30  2  0  0  0  0
 29 37  1  0  0  0  0
 31 34  1  0  0  0  0
 31 35  1  0  0  0  0
 31 36  1  0  0  0  0
 37 38  1  0  0  0  0
 37 39  1  0  0  0  0
 38 40  1  0  0  0  0
 38 41  1  0  0  0  0
 38 42  1  0  0  0  0
M  END
$$$$

  -OEChem-05262215353D

 42 41  0     1  0  0  0  0  0999 V2000
   -4.2277   -0.3701    0.6990 C   0  0  0  0  0  0  0  0  0  0  0  0
   -3.9124    0.7859    0.4492 O   0  0  0  0  0  0  0  0  0  0  0  0
   -4.8562   -1.2422   -0.3703 C   0  0  0  0  0  0  0  0  0  0  0  0
   -5.1337   -0.6368   -1.2374 H   0  0  0  0  0  0  0  0  0  0  0  0
   -4.1475   -2.0120   -0.6859 H   0  0  0  0  0  0  0  0  0  0  0  0
   -5.7538   -1.7253    0.0231 H   0  0  0  0  0  0  0  0  0  0  0  0
   -3.9170   -0.9017    1.9322 N   0  0  0  0  0  0  0  0  0  0  0  0
   -3.1580   -0.1729    2.9605 C   0  0  2  0  0  0  0  0  0  0  0  0
   -1.6487   -0.1745    2.6284 C   0  0  0  0  0  0  0  0  0  0  0  0
   -0.8667   -0.8789    3.2532 O   0  0  0  0  0  0  0  0  0  0  0  0
   -3.4782   -0.8230    4.3114 C   0  0  0  0  0  0  0  0  0  0  0  0
   -3.9584   -1.9252    1.9943 H   0  0  0  0  0  0  0  0  0  0  0  0
   -3.4893    0.8701    3.0037 H   0  0  0  0  0  0  0  0  0  0  0  0
   -3.1833   -1.8775    4.3128 H   0  0  0  0  0  0  0  0  0  0  0  0
   -2.9406   -0.3113    5.1157 H   0  0  0  0  0  0  0  0  0  0  0  0
   -4.5508   -0.7612    4.5182 H   0  0  0  0  0  0  0  0  0  0  0  0
   -1.2151    0.4510    1.4740 N   0  0  0  0  0  0  0  0  0  0  0  0
   -0.3324   -0.1456    0.4405 C   0  0  2  0  0  0  0  0  0  0  0  0
   -0.0822   -1.6831    0.3858 C   0  0  0  0  0  0  0  0  0  0  0  0
    0.6340   -2.1382   -0.4977 O   0  0  0  0  0  0  0  0  0  0  0  0
    1.0099    0.5815    0.5870 C   0  0  0  0  0  0  0  0  0  0  0  0
   -1.9759    1.0037    1.0676 H   0  0  0  0  0  0  0  0  0  0  0  0
   -0.7607    0.1084   -0.5343 H   0  0  0  0  0  0  0  0  0  0  0  0
    1.4761    0.3277    1.5448 H   0  0  0  0  0  0  0  0  0  0  0  0
    1.6939    0.2975   -0.2191 H   0  0  0  0  0  0  0  0  0  0  0  0
    0.8650    1.6654    0.5464 H   0  0  0  0  0  0  0  0  0  0  0  0
   -0.8798   -2.5751    1.0734 N   0  0  0  0  0  0  0  0  0  0  0  0
   -1.0309   -4.0083    0.8156 C   0  0  2  0  0  0  0  0  0  0  0  0
   -2.4967   -4.4644    1.0005 C   0  0  0  0  0  0  0  0  0  0  0  0
   -3.3398   -3.7151    1.4933 O   0  0  0  0  0  0  0  0  0  0  0  0
   -0.0977   -4.7569    1.7699 C   0  0  0  0  0  0  0  0  0  0  0  0
   -1.3110   -2.2044    1.9201 H   0  0  0  0  0  0  0  0  0  0  0  0
   -0.7449   -4.2330   -0.2172 H   0  0  0  0  0  0  0  0  0  0  0  0
   -0.3724   -4.5552    2.8104 H   0  0  0  0  0  0  0  0  0  0  0  0
   -0.1511   -5.8356    1.5958 H   0  0  0  0  0  0  0  0  0  0  0  0
    0.9369   -4.4339    1.6153 H   0  0  0  0  0  0  0  0  0  0  0  0
   -2.8867   -5.7252    0.5888 N   0  0  0  0  0  0  0  0  0  0  0  0
   -4.2473   -6.2320    0.7215 C   0  0  0  0  0  0  0  0  0  0  0  0
   -2.1770   -6.3237    0.1750 H   0  0  0  0  0  0  0  0  0  0  0  0
   -4.5688   -6.2003    1.7679 H   0  0  0  0  0  0  0  0  0  0  0  0
   -4.9396   -5.6325    0.1213 H   0  0  0  0  0  0  0  0  0  0  0  0
   -4.2993   -7.2694    0.3768 H   0  0  0  0  0  0  0  0  0  0  0  0
  1  2  2  0  0  0  0
  1  3  1  0  0  0  0
  1  7  1  0  0  0  0
  3  4  1  0  0  0  0
  3  5  1  0  0  0  0
  3  6  1  0  0  0  0
  7  8  1  0  0  0  0
  7 12  1  0  0  0  0
  8  9  1  0  0  0  0
  8 11  1  0  0  0  0
  8 13  1  0  0  0  0
  9 10  2  0  0  0  0
  9 17  1  0  0  0  0
 11 14  1  0  0  0  0
 11 15  1  0  0  0  0
 11 16  1  0  0  0  0
 17 18  1  0  0  0  0
 17 22  1  0  0  0  0
 18 19  1  0  0  0  0
 18 21  1  0  0  0  0
 18 23  1  0  0  0  0
 19 20  2  0  0  0  0
 19 27  1  0  0  0  0
 21 24  1  0  0  0  0
 21 25  1  0  0  0  0
 21 26  1  0  0  0  0
 27 28  1  0  0  0  0
 27 32  1  0  0  0  0
 28 29  1  0  0  0  0
 28 31  1  0  0  0  0
 28 33  1  0  0  0  0
 29 30  2  0  0  0  0
 29 37  1  0  0  0  0
 31 34  1  0  0  0  0
 31 35  1  0  0  0  0
 31 36  1  0  0  0  0
 37 38  1  0  0  0  0
 37 39  1  0  0  0  0
 38 40  1  0  0  0  0
 38 41  1  0  0  0  0
 38 42  1  0  0  0  0
M  END
$$$$

  -OEChem-05262215353D

 42 41  0     1  0  0  0  0  0999 V2000
   -4.0936   -0.3506    0.5168 C   0  0  0  0  0  0  0  0  0  0  0  0
   -3.7305    0.8116    0.3962 O   0  0  0  0  0  0  0  0  0  0  0  0
   -4.7181   -1.0873   -0.6518 C   0  0  0  0  0  0  0  0  0  0  0  0
   -5.0337   -0.3771   -1.4210 H   0  0  0  0  0  0  0  0  0  0  0  0
   -3.9927   -1.7816   -1.0834 H   0  0  0  0  0  0  0  0  0  0  0  0
   -5.5904   -1.6524   -0.3141 H   0  0  0  0  0  0  0  0  0  0  0  0
   -3.8339   -1.0149    1.6965 N   0  0  0  0  0  0  0  0  0  0  0  0
   -3.1200   -0.4132    2.8346 C   0  0  2  0  0  0  0  0  0  0  0  0
   -1.5960   -0.3785    2.5759 C   0  0  0  0  0  0  0  0  0  0  0  0
   -0.8516   -1.1886    3.1102 O   0  0  0  0  0  0  0  0  0  0  0  0
   -3.4977   -1.2180    4.0837 C   0  0  0  0  0  0  0  0  0  0  0  0
   -3.9721   -2.0316    1.6820 H   0  0  0  0  0  0  0  0  0  0  0  0
   -3.4564    0.6184    2.9854 H   0  0  0  0  0  0  0  0  0  0  0  0
   -3.2054   -2.2673    3.9709 H   0  0  0  0  0  0  0  0  0  0  0  0
   -2.9927   -0.8104    4.9651 H   0  0  0  0  0  0  0  0  0  0  0  0
   -4.5778   -1.1739    4.2521 H   0  0  0  0  0  0  0  0  0  0  0  0
   -1.1042    0.4106    1.5504 N   0  0  0  0  0  0  0  0  0  0  0  0
   -0.1853   -0.0620    0.4853 C   0  0  2  0  0  0  0  0  0  0  0  0
   -0.0023   -1.5932    0.2647 C   0  0  0  0  0  0  0  0  0  0  0  0
    0.9555   -2.0353   -0.3585 O   0  0  0  0  0  0  0  0  0  0  0  0
    1.1654    0.6051    0.7770 C   0  0  0  0  0  0  0  0  0  0  0  0
   -1.8391    1.0274    1.1922 H   0  0  0  0  0  0  0  0  0  0  0  0
   -0.5618    0.3240   -0.4670 H   0  0  0  0  0  0  0  0  0  0  0  0
    1.5929    0.2060    1.7025 H   0  0  0  0  0  0  0  0  0  0  0  0
    1.8717    0.4226   -0.0390 H   0  0  0  0  0  0  0  0  0  0  0  0
    1.0430    1.6868    0.8870 H   0  0  0  0  0  0  0  0  0  0  0  0
   -1.0435   -2.4567    0.5458 N   0  0  0  0  0  0  0  0  0  0  0  0
   -1.0413   -3.9105    0.3807 C   0  0  2  0  0  0  0  0  0  0  0  0
   -2.4805   -4.4673    0.4641 C   0  0  0  0  0  0  0  0  0  0  0  0
   -3.3947   -3.7807    0.9217 O   0  0  0  0  0  0  0  0  0  0  0  0
   -0.1724   -4.5324    1.4802 C   0  0  0  0  0  0  0  0  0  0  0  0
   -1.7521   -2.0823    1.1712 H   0  0  0  0  0  0  0  0  0  0  0  0
   -0.6294   -4.1656   -0.6013 H   0  0  0  0  0  0  0  0  0  0  0  0
   -0.5563   -4.2606    2.4691 H   0  0  0  0  0  0  0  0  0  0  0  0
   -0.1647   -5.6229    1.3950 H   0  0  0  0  0  0  0  0  0  0  0  0
    0.8594   -4.1758    1.4011 H   0  0  0  0  0  0  0  0  0  0  0  0
   -2.7618   -5.7426    0.0116 N   0  0  0  0  0  0  0  0  0  0  0  0
   -4.0917   -6.3389    0.0570 C   0  0  0  0  0  0  0  0  0  0  0  0
   -1.9886   -6.2914   -0.3547 H   0  0  0  0  0  0  0  0  0  0  0  0
   -4.4489   -6.4013    1.0904 H   0  0  0  0  0  0  0  0  0  0  0  0
   -4.8005   -5.7420   -0.5268 H   0  0  0  0  0  0  0  0  0  0  0  0
   -4.0670   -7.3501   -0.3607 H   0  0  0  0  0  0  0  0  0  0  0  0
  1  2  2  0  0  0  0
  1  3  1  0  0  0  0
  1  7  1  0  0  0  0
  3  4  1  0  0  0  0
  3  5  1  0  0  0  0
  3  6  1  0  0  0  0
  7  8  1  0  0  0  0
  7 12  1  0  0  0  0
  8  9  1  0  0  0  0
  8 11  1  0  0  0  0
  8 13  1  0  0  0  0
  9 10  2  0  0  0  0
  9 17  1  0  0  0  0
 11 14  1  0  0  0  0
 11 15  1  0  0  0  0
 11 16  1  0  0  0  0
 17 18  1  0  0  0  0
 17 22  1  0  0  0  0
 18 19  1  0  0  0  0
 18 21  1  0  0  0  0
 18 23  1  0  0  0  0
 19 20  2  0  0  0  0
 19 27  1  0  0  0  0
 21 24  1  0  0  0  0
 21 25  1  0  0  0  0
 21 26  1  0  0  0  0
 27 28  1  0  0  0  0
 27 32  1  0  0  0  0
 28 29  1  0  0  0  0
 28 31  1  0  0  0  0
 28 33  1  0  0  0  0
 29 30  2  0  0  0  0
 29 37  1  0  0  0  0
 31 34  1  0  0  0  0
 31 35  1  0  0  0  0
 31 36  1  0  0  0  0
 37 38  1  0  0  0  0
 37 39  1  0  0  0  0
 38 40  1  0  0  0  0
 38 41  1  0  0  0  0
 38 42  1  0  0  0  0
M  END
$$$$

  -OEChem-05262215353D

 42 41  0     1  0  0  0  0  0999 V2000
   -4.1268   -0.4228    0.4790 C   0  0  0  0  0  0  0  0  0  0  0  0
   -3.8357    0.7642    0.5184 O   0  0  0  0  0  0  0  0  0  0  0  0
   -4.7893   -1.0126   -0.7507 C   0  0  0  0  0  0  0  0  0  0  0  0
   -5.6861   -1.5662   -0.4622 H   0  0  0  0  0  0  0  0  0  0  0  0
   -5.0742   -0.2182   -1.4456 H   0  0  0  0  0  0  0  0  0  0  0  0
   -4.1004   -1.6935   -1.2564 H   0  0  0  0  0  0  0  0  0  0  0  0
   -3.7488   -1.2369    1.5253 N   0  0  0  0  0  0  0  0  0  0  0  0
   -3.0691   -0.7590    2.7423 C   0  0  2  0  0  0  0  0  0  0  0  0
   -1.5567   -0.5405    2.5006 C   0  0  0  0  0  0  0  0  0  0  0  0
   -0.7234   -1.2787    3.0071 O   0  0  0  0  0  0  0  0  0  0  0  0
   -3.3574   -1.7797    3.8496 C   0  0  0  0  0  0  0  0  0  0  0  0
   -3.8454   -2.2472    1.3759 H   0  0  0  0  0  0  0  0  0  0  0  0
   -3.4947    0.2011    3.0537 H   0  0  0  0  0  0  0  0  0  0  0  0
   -2.9690   -2.7661    3.5753 H   0  0  0  0  0  0  0  0  0  0  0  0
   -2.8833   -1.4686    4.7860 H   0  0  0  0  0  0  0  0  0  0  0  0
   -4.4351   -1.8634    4.0192 H   0  0  0  0  0  0  0  0  0  0  0  0
   -1.1602    0.3677    1.5327 N   0  0  0  0  0  0  0  0  0  0  0  0
   -0.1719    0.0682    0.4705 C   0  0  2  0  0  0  0  0  0  0  0  0
    0.1673   -1.4293    0.2280 C   0  0  0  0  0  0  0  0  0  0  0  0
    1.2765   -1.8030   -0.1340 O   0  0  0  0  0  0  0  0  0  0  0  0
    1.0854    0.8772    0.8128 C   0  0  0  0  0  0  0  0  0  0  0  0
   -1.9552    0.9260    1.2072 H   0  0  0  0  0  0  0  0  0  0  0  0
   -0.5723    0.4406   -0.4770 H   0  0  0  0  0  0  0  0  0  0  0  0
    1.5388    0.5000    1.7353 H   0  0  0  0  0  0  0  0  0  0  0  0
    1.8224    0.8028    0.0070 H   0  0  0  0  0  0  0  0  0  0  0  0
    0.8357    1.9332    0.9527 H   0  0  0  0  0  0  0  0  0  0  0  0
   -0.8827   -2.3276    0.1757 N   0  0  0  0  0  0  0  0  0  0  0  0
   -0.7651   -3.7851    0.0795 C   0  0  2  0  0  0  0  0  0  0  0  0
   -2.1640   -4.4269   -0.0490 C   0  0  0  0  0  0  0  0  0  0  0  0
   -3.1665   -3.8151    0.3215 O   0  0  0  0  0  0  0  0  0  0  0  0
   -0.0732   -4.3348    1.3346 C   0  0  0  0  0  0  0  0  0  0  0  0
   -1.7627   -1.9788    0.5466 H   0  0  0  0  0  0  0  0  0  0  0  0
   -0.1773   -4.0428   -0.8074 H   0  0  0  0  0  0  0  0  0  0  0  0
   -0.6341   -4.0563    2.2326 H   0  0  0  0  0  0  0  0  0  0  0  0
   -0.0053   -5.4256    1.2899 H   0  0  0  0  0  0  0  0  0  0  0  0
    0.9411   -3.9346    1.4248 H   0  0  0  0  0  0  0  0  0  0  0  0
   -2.3059   -5.6959   -0.5776 N   0  0  0  0  0  0  0  0  0  0  0  0
   -3.5906   -6.3707   -0.7196 C   0  0  0  0  0  0  0  0  0  0  0  0
   -1.4604   -6.1819   -0.8643 H   0  0  0  0  0  0  0  0  0  0  0  0
   -4.0639   -6.5050    0.2586 H   0  0  0  0  0  0  0  0  0  0  0  0
   -4.2622   -5.7882   -1.3593 H   0  0  0  0  0  0  0  0  0  0  0  0
   -3.4514   -7.3567   -1.1736 H   0  0  0  0  0  0  0  0  0  0  0  0
  1  2  2  0  0  0  0
  1  3  1  0  0  0  0
  1  7  1  0  0  0  0
  3  4  1  0  0  0  0
  3  5  1  0  0  0  0
  3  6  1  0  0  0  0
  7  8  1  0  0  0  0
  7 12  1  0  0  0  0
  8  9  1  0  0  0  0
  8 11  1  0  0  0  0
  8 13  1  0  0  0  0
  9 10  2  0  0  0  0
  9 17  1  0  0  0  0
 11 14  1  0  0  0  0
 11 15  1  0  0  0  0
 11 16  1  0  0  0  0
 17 18  1  0  0  0  0
 17 22  1  0  0  0  0
 18 19  1  0  0  0  0
 18 21  1  0  0  0  0
 18 23  1  0  0  0  0
 19 20  2  0  0  0  0
 19 27  1  0  0  0  0
 21 24  1  0  0  0  0
 21 25  1  0  0  0  0
 21 26  1  0  0  0  0
 27 28  1  0  0  0  0
 27 32  1  0  0  0  0
 28 29  1  0  0  0  0
 28 31  1  0  0  0  0
 28 33  1  0  0  0  0
 29 30  2  0  0  0  0
 29 37  1  0  0  0  0
 31 34  1  0  0  0  0
 31 35  1  0  0  0  0
 31 36  1  0  0  0  0
 37 38  1  0  0  0  0
 37 39  1  0  0  0  0
 38 40  1  0  0  0  0
 38 41  1  0  0  0  0
 38 42  1  0  0  0  0
M  END
$$$$

  -OEChem-05262215353D

 42 41  0     1  0  0  0  0  0999 V2000
   -5.5994   -0.6900    1.7282 C   0  0  0  0  0  0  0  0  0  0  0  0
   -5.8620    0.3227    1.0990 O   0  0  0  0  0  0  0  0  0  0  0  0
   -6.5952   -1.8332    1.7787 C   0  0  0  0  0  0  0  0  0  0  0  0
   -6.9928   -1.9358    2.7911 H   0  0  0  0  0  0  0  0  0  0  0  0
   -7.4238   -1.6419    1.0911 H   0  0  0  0  0  0  0  0  0  0  0  0
   -6.1079   -2.7674    1.4892 H   0  0  0  0  0  0  0  0  0  0  0  0
   -4.3951   -0.8039    2.3909 N   0  0  0  0  0  0  0  0  0  0  0  0
   -3.2682    0.1233    2.2169 C   0  0  2  0  0  0  0  0  0  0  0  0
   -1.9807   -0.6212    1.8059 C   0  0  0  0  0  0  0  0  0  0  0  0
   -1.8604   -1.8025    2.0990 O   0  0  0  0  0  0  0  0  0  0  0  0
   -3.0618    0.8636    3.5402 C   0  0  0  0  0  0  0  0  0  0  0  0
   -4.1641   -1.7292    2.7499 H   0  0  0  0  0  0  0  0  0  0  0  0
   -3.4897    0.8546    1.4325 H   0  0  0  0  0  0  0  0  0  0  0  0
   -2.8259    0.1567    4.3422 H   0  0  0  0  0  0  0  0  0  0  0  0
   -2.2398    1.5806    3.4557 H   0  0  0  0  0  0  0  0  0  0  0  0
   -3.9706    1.4096    3.8128 H   0  0  0  0  0  0  0  0  0  0  0  0
   -0.9789    0.0685    1.1386 N   0  0  0  0  0  0  0  0  0  0  0  0
    0.3289   -0.4342    0.6589 C   0  0  2  0  0  0  0  0  0  0  0  0
    0.5552   -1.9709    0.5748 C   0  0  0  0  0  0  0  0  0  0  0  0
    1.5531   -2.5005    1.0527 O   0  0  0  0  0  0  0  0  0  0  0  0
    1.3843    0.2427    1.5460 C   0  0  0  0  0  0  0  0  0  0  0  0
   -1.1813    1.0482    0.9605 H   0  0  0  0  0  0  0  0  0  0  0  0
    0.4641   -0.0740   -0.3653 H   0  0  0  0  0  0  0  0  0  0  0  0
    1.2992   -0.1138    2.5780 H   0  0  0  0  0  0  0  0  0  0  0  0
    2.3921    0.0154    1.1833 H   0  0  0  0  0  0  0  0  0  0  0  0
    1.2566    1.3292    1.5390 H   0  0  0  0  0  0  0  0  0  0  0  0
   -0.2646   -2.7329   -0.2361 N   0  0  0  0  0  0  0  0  0  0  0  0
   -0.1601   -4.1862   -0.4091 C   0  0  2  0  0  0  0  0  0  0  0  0
   -0.8673   -4.6605   -1.6957 C   0  0  0  0  0  0  0  0  0  0  0  0
   -1.6987   -3.9483   -2.2492 O   0  0  0  0  0  0  0  0  0  0  0  0
   -0.7791   -4.8697    0.8159 C   0  0  0  0  0  0  0  0  0  0  0  0
   -1.1178   -2.2911   -0.5721 H   0  0  0  0  0  0  0  0  0  0  0  0
    0.8949   -4.4679   -0.4876 H   0  0  0  0  0  0  0  0  0  0  0  0
   -1.8355   -4.5983    0.9107 H   0  0  0  0  0  0  0  0  0  0  0  0
   -0.7038   -5.9577    0.7303 H   0  0  0  0  0  0  0  0  0  0  0  0
   -0.2604   -4.5595    1.7286 H   0  0  0  0  0  0  0  0  0  0  0  0
   -0.5729   -5.8987   -2.2373 N   0  0  0  0  0  0  0  0  0  0  0  0
   -1.1917   -6.4082   -3.4551 C   0  0  0  0  0  0  0  0  0  0  0  0
    0.1338   -6.4597   -1.7705 H   0  0  0  0  0  0  0  0  0  0  0  0
   -2.2808   -6.4434   -3.3458 H   0  0  0  0  0  0  0  0  0  0  0  0
   -0.9438   -5.7675   -4.3077 H   0  0  0  0  0  0  0  0  0  0  0  0
   -0.8343   -7.4205   -3.6672 H   0  0  0  0  0  0  0  0  0  0  0  0
  1  2  2  0  0  0  0
  1  3  1  0  0  0  0
  1  7  1  0  0  0  0
  3  4  1  0  0  0  0
  3  5  1  0  0  0  0
  3  6  1  0  0  0  0
  7  8  1  0  0  0  0
  7 12  1  0  0  0  0
  8  9  1  0  0  0  0
  8 11  1  0  0  0  0
  8 13  1  0  0  0  0
  9 10  2  0  0  0  0
  9 17  1  0  0  0  0
 11 14  1  0  0  0  0
 11 15  1  0  0  0  0
 11 16  1  0  0  0  0
 17 18  1  0  0  0  0
 17 22  1  0  0  0  0
 18 19  1  0  0  0  0
 18 21  1  0  0  0  0
 18 23  1  0  0  0  0
 19 20  2  0  0  0  0
 19 27  1  0  0  0  0
 21 24  1  0  0  0  0
 21 25  1  0  0  0  0
 21 26  1  0  0  0  0
 27 28  1  0  0  0  0
 27 32  1  0  0  0  0
 28 29  1  0  0  0  0
 28 31  1  0  0  0  0
 28 33  1  0  0  0  0
 29 30  2  0  0  0  0
 29 37  1  0  0  0  0
 31 34  1  0  0  0  0
 31 35  1  0  0  0  0
 31 36  1  0  0  0  0
 37 38  1  0  0  0  0
 37 39  1  0  0  0  0
 38 40  1  0  0  0  0
 38 41  1  0  0  0  0
 38 42  1  0  0  0  0
M  END
$$$$

  -OEChem-05262215353D

 42 41  0     1  0  0  0  0  0999 V2000
   -5.5951   -0.7154    1.7306 C   0  0  0  0  0  0  0  0  0  0  0  0
   -5.8384    0.2510    1.0253 O   0  0  0  0  0  0  0  0  0  0  0  0
   -6.5945   -1.8526    1.8316 C   0  0  0  0  0  0  0  0  0  0  0  0
   -6.9343   -1.9592    2.8646 H   0  0  0  0  0  0  0  0  0  0  0  0
   -7.4604   -1.6521    1.1943 H   0  0  0  0  0  0  0  0  0  0  0  0
   -6.1298   -2.7878    1.5095 H   0  0  0  0  0  0  0  0  0  0  0  0
   -4.4105   -0.7862    2.4336 N   0  0  0  0  0  0  0  0  0  0  0  0
   -3.2715    0.1178    2.2184 C   0  0  2  0  0  0  0  0  0  0  0  0
   -2.0182   -0.6466    1.7417 C   0  0  0  0  0  0  0  0  0  0  0  0
   -1.9264   -1.8429    1.9802 O   0  0  0  0  0  0  0  0  0  0  0  0
   -2.9906    0.8362    3.5403 C   0  0  0  0  0  0  0  0  0  0  0  0
   -4.1882   -1.6948    2.8371 H   0  0  0  0  0  0  0  0  0  0  0  0
   -3.5111    0.8664    1.4563 H   0  0  0  0  0  0  0  0  0  0  0  0
   -2.7304    0.1148    4.3218 H   0  0  0  0  0  0  0  0  0  0  0  0
   -2.1605    1.5401    3.4270 H   0  0  0  0  0  0  0  0  0  0  0  0
   -3.8757    1.3945    3.8618 H   0  0  0  0  0  0  0  0  0  0  0  0
   -1.0229    0.0411    1.0622 N   0  0  0  0  0  0  0  0  0  0  0  0
    0.2972   -0.4565    0.6160 C   0  0  2  0  0  0  0  0  0  0  0  0
    0.5353   -1.9918    0.5953 C   0  0  0  0  0  0  0  0  0  0  0  0
    1.3770   -2.5246    1.3114 O   0  0  0  0  0  0  0  0  0  0  0  0
    1.3360    0.2607    1.4899 C   0  0  0  0  0  0  0  0  0  0  0  0
   -1.2020    1.0325    0.9318 H   0  0  0  0  0  0  0  0  0  0  0  0
    0.4435   -0.1301   -0.4181 H   0  0  0  0  0  0  0  0  0  0  0  0
    1.2304   -0.0459    2.5360 H   0  0  0  0  0  0  0  0  0  0  0  0
    2.3493    0.0131    1.1571 H   0  0  0  0  0  0  0  0  0  0  0  0
    1.2106    1.3457    1.4286 H   0  0  0  0  0  0  0  0  0  0  0  0
   -0.0445   -2.7444   -0.4079 N   0  0  0  0  0  0  0  0  0  0  0  0
    0.1251   -4.1914   -0.5767 C   0  0  2  0  0  0  0  0  0  0  0  0
   -0.1549   -4.6350   -2.0274 C   0  0  0  0  0  0  0  0  0  0  0  0
   -0.7737   -3.9038   -2.7938 O   0  0  0  0  0  0  0  0  0  0  0  0
   -0.8241   -4.9042    0.3921 C   0  0  0  0  0  0  0  0  0  0  0  0
   -0.7437   -2.2893   -0.9909 H   0  0  0  0  0  0  0  0  0  0  0  0
    1.1580   -4.4674   -0.3412 H   0  0  0  0  0  0  0  0  0  0  0  0
   -1.8628   -4.6347    0.1755 H   0  0  0  0  0  0  0  0  0  0  0  0
   -0.7185   -5.9896    0.3069 H   0  0  0  0  0  0  0  0  0  0  0  0
   -0.6004   -4.6158    1.4244 H   0  0  0  0  0  0  0  0  0  0  0  0
    0.2953   -5.8620   -2.4800 N   0  0  0  0  0  0  0  0  0  0  0  0
    0.1012   -6.3314   -3.8465 C   0  0  0  0  0  0  0  0  0  0  0  0
    0.8237   -6.4371   -1.8303 H   0  0  0  0  0  0  0  0  0  0  0  0
   -0.9650   -6.3582   -4.0952 H   0  0  0  0  0  0  0  0  0  0  0  0
    0.6116   -5.6700   -4.5544 H   0  0  0  0  0  0  0  0  0  0  0  0
    0.5072   -7.3410   -3.9613 H   0  0  0  0  0  0  0  0  0  0  0  0
  1  2  2  0  0  0  0
  1  3  1  0  0  0  0
  1  7  1  0  0  0  0
  3  4  1  0  0  0  0
  3  5  1  0  0  0  0
  3  6  1  0  0  0  0
  7  8  1  0  0  0  0
  7 12  1  0  0  0  0
  8  9  1  0  0  0  0
  8 11  1  0  0  0  0
  8 13  1  0  0  0  0
  9 10  2  0  0  0  0
  9 17  1  0  0  0  0
 11 14  1  0  0  0  0
 11 15  1  0  0  0  0
 11 16  1  0  0  0  0
 17 18  1  0  0  0  0
 17 22  1  0  0  0  0
 18 19  1  0  0  0  0
 18 21  1  0  0  0  0
 18 23  1  0  0  0  0
 19 20  2  0  0  0  0
 19 27  1  0  0  0  0
 21 24  1  0  0  0  0
 21 25  1  0  0  0  0
 21 26  1  0  0  0  0
 27 28  1  0  0  0  0
 27 32  1  0  0  0  0
 28 29  1  0  0  0  0
 28 31  1  0  0  0  0
 28 33  1  0  0  0  0
 29 30  2  0  0  0  0
 29 37  1  0  0  0  0
 31 34  1  0  0  0  0
 31 35  1  0  0  0  0
 31 36  1  0  0  0  0
 37 38  1  0  0  0  0
 37 39  1  0  0  0  0
 38 40  1  0  0  0  0
 38 41  1  0  0  0  0
 38 42  1  0  0  0  0
M  END
$$$$

  -OEChem-05262215353D

 42 41  0     1  0  0  0  0  0999 V2000
   -5.6373   -0.6752    1.7706 C   0  0  0  0  0  0  0  0  0  0  0  0
   -5.8892    0.3341    1.1312 O   0  0  0  0  0  0  0  0  0  0  0  0
   -6.6544   -1.7986    1.8461 C   0  0  0  0  0  0  0  0  0  0  0  0
   -6.9951   -1.9237    2.8767 H   0  0  0  0  0  0  0  0  0  0  0  0
   -7.5171   -1.5694    1.2142 H   0  0  0  0  0  0  0  0  0  0  0  0
   -6.2055   -2.7337    1.5021 H   0  0  0  0  0  0  0  0  0  0  0  0
   -4.4284   -0.8065    2.4215 N   0  0  0  0  0  0  0  0  0  0  0  0
   -3.2808    0.0864    2.2067 C   0  0  2  0  0  0  0  0  0  0  0  0
   -2.0557   -0.6816    1.6665 C   0  0  0  0  0  0  0  0  0  0  0  0
   -1.9992   -1.8935    1.8238 O   0  0  0  0  0  0  0  0  0  0  0  0
   -2.9493    0.7537    3.5434 C   0  0  0  0  0  0  0  0  0  0  0  0
   -4.2055   -1.7426    2.7568 H   0  0  0  0  0  0  0  0  0  0  0  0
   -3.5284    0.8643    1.4773 H   0  0  0  0  0  0  0  0  0  0  0  0
   -2.6804    0.0010    4.2917 H   0  0  0  0  0  0  0  0  0  0  0  0
   -2.1097    1.4463    3.4299 H   0  0  0  0  0  0  0  0  0  0  0  0
   -3.8146    1.3159    3.9090 H   0  0  0  0  0  0  0  0  0  0  0  0
   -1.0651    0.0149    0.9889 N   0  0  0  0  0  0  0  0  0  0  0  0
    0.2710   -0.4675    0.5763 C   0  0  2  0  0  0  0  0  0  0  0  0
    0.5365   -1.9978    0.5955 C   0  0  0  0  0  0  0  0  0  0  0  0
    1.1850   -2.5245    1.4942 O   0  0  0  0  0  0  0  0  0  0  0  0
    1.2876    0.2825    1.4483 C   0  0  0  0  0  0  0  0  0  0  0  0
   -1.2258    1.0151    0.9169 H   0  0  0  0  0  0  0  0  0  0  0  0
    0.4287   -0.1579   -0.4611 H   0  0  0  0  0  0  0  0  0  0  0  0
    1.1529    0.0219    2.5033 H   0  0  0  0  0  0  0  0  0  0  0  0
    2.3086    0.0176    1.1552 H   0  0  0  0  0  0  0  0  0  0  0  0
    1.1676    1.3643    1.3374 H   0  0  0  0  0  0  0  0  0  0  0  0
    0.2664   -2.7404   -0.5380 N   0  0  0  0  0  0  0  0  0  0  0  0
    0.5209   -4.1778   -0.6788 C   0  0  2  0  0  0  0  0  0  0  0  0
    0.6328   -4.5959   -2.1593 C   0  0  0  0  0  0  0  0  0  0  0  0
    0.2286   -3.8528   -3.0479 O   0  0  0  0  0  0  0  0  0  0  0  0
   -0.6197   -4.9380    0.0058 C   0  0  0  0  0  0  0  0  0  0  0  0
   -0.2353   -2.2834   -1.2969 H   0  0  0  0  0  0  0  0  0  0  0  0
    1.4685   -4.4299   -0.1913 H   0  0  0  0  0  0  0  0  0  0  0  0
   -1.5774   -4.6985   -0.4678 H   0  0  0  0  0  0  0  0  0  0  0  0
   -0.4570   -6.0176   -0.0595 H   0  0  0  0  0  0  0  0  0  0  0  0
   -0.6783   -4.6618    1.0637 H   0  0  0  0  0  0  0  0  0  0  0  0
    1.1991   -5.8110   -2.4979 N   0  0  0  0  0  0  0  0  0  0  0  0
    1.3729   -6.2592   -3.8741 C   0  0  0  0  0  0  0  0  0  0  0  0
    1.5502   -6.3913   -1.7414 H   0  0  0  0  0  0  0  0  0  0  0  0
    0.4113   -6.2755   -4.3977 H   0  0  0  0  0  0  0  0  0  0  0  0
    2.0551   -5.5918   -4.4111 H   0  0  0  0  0  0  0  0  0  0  0  0
    1.7915   -7.2700   -3.8922 H   0  0  0  0  0  0  0  0  0  0  0  0
  1  2  2  0  0  0  0
  1  3  1  0  0  0  0
  1  7  1  0  0  0  0
  3  4  1  0  0  0  0
  3  5  1  0  0  0  0
  3  6  1  0  0  0  0
  7  8  1  0  0  0  0
  7 12  1  0  0  0  0
  8  9  1  0  0  0  0
  8 11  1  0  0  0  0
  8 13  1  0  0  0  0
  9 10  2  0  0  0  0
  9 17  1  0  0  0  0
 11 14  1  0  0  0  0
 11 15  1  0  0  0  0
 11 16  1  0  0  0  0
 17 18  1  0  0  0  0
 17 22  1  0  0  0  0
 18 19  1  0  0  0  0
 18 21  1  0  0  0  0
 18 23  1  0  0  0  0
 19 20  2  0  0  0  0
 19 27  1  0  0  0  0
 21 24  1  0  0  0  0
 21 25  1  0  0  0  0
 21 26  1  0  0  0  0
 27 28  1  0  0  0  0
 27 32  1  0  0  0  0
 28 29  1  0  0  0  0
 28 31  1  0  0  0  0
 28 33  1  0  0  0  0
 29 30  2  0  0  0  0
 29 37  1  0  0  0  0
 31 34  1  0  0  0  0
 31 35  1  0  0  0  0
 31 36  1  0  0  0  0
 37 38  1  0  0  0  0
 37 39  1  0  0  0  0
 38 40  1  0  0  0  0
 38 41  1  0  0  0  0
 38 42  1  0  0  0  0
M  END
$$$$

  -OEChem-05262215353D

 42 41  0     1  0  0  0  0  0999 V2000
   -5.7604   -0.5097    1.9164 C   0  0  0  0  0  0  0  0  0  0  0  0
   -6.0202    0.6395    1.5951 O   0  0  0  0  0  0  0  0  0  0  0  0
   -6.8471   -1.5683    1.8954 C   0  0  0  0  0  0  0  0  0  0  0  0
   -7.0357   -1.9281    2.9098 H   0  0  0  0  0  0  0  0  0  0  0  0
   -7.7738   -1.1514    1.4903 H   0  0  0  0  0  0  0  0  0  0  0  0
   -6.5371   -2.4087    1.2693 H   0  0  0  0  0  0  0  0  0  0  0  0
   -4.4778   -0.8540    2.2877 N   0  0  0  0  0  0  0  0  0  0  0  0
   -3.3083    0.0202    2.1280 C   0  0  2  0  0  0  0  0  0  0  0  0
   -2.1089   -0.7419    1.5246 C   0  0  0  0  0  0  0  0  0  0  0  0
   -2.1052   -1.9650    1.5589 O   0  0  0  0  0  0  0  0  0  0  0  0
   -2.9481    0.5855    3.5040 C   0  0  0  0  0  0  0  0  0  0  0  0
   -4.2819   -1.8494    2.3905 H   0  0  0  0  0  0  0  0  0  0  0  0
   -3.5448    0.8475    1.4506 H   0  0  0  0  0  0  0  0  0  0  0  0
   -2.7019   -0.2252    4.1977 H   0  0  0  0  0  0  0  0  0  0  0  0
   -2.0864    1.2559    3.4320 H   0  0  0  0  0  0  0  0  0  0  0  0
   -3.7921    1.1503    3.9128 H   0  0  0  0  0  0  0  0  0  0  0  0
   -1.1140   -0.0337    0.8664 N   0  0  0  0  0  0  0  0  0  0  0  0
    0.2474   -0.4993    0.5223 C   0  0  2  0  0  0  0  0  0  0  0  0
    0.5542   -2.0207    0.5962 C   0  0  0  0  0  0  0  0  0  0  0  0
    0.9811   -2.5268    1.6292 O   0  0  0  0  0  0  0  0  0  0  0  0
    1.2163    0.2924    1.4109 C   0  0  0  0  0  0  0  0  0  0  0  0
   -1.2509    0.9727    0.8704 H   0  0  0  0  0  0  0  0  0  0  0  0
    0.4358   -0.2117   -0.5164 H   0  0  0  0  0  0  0  0  0  0  0  0
    1.0479    0.0582    2.4673 H   0  0  0  0  0  0  0  0  0  0  0  0
    2.2519    0.0390    1.1625 H   0  0  0  0  0  0  0  0  0  0  0  0
    1.0811    1.3683    1.2657 H   0  0  0  0  0  0  0  0  0  0  0  0
    0.6565   -2.7524   -0.5722 N   0  0  0  0  0  0  0  0  0  0  0  0
    1.0459   -4.1653   -0.6498 C   0  0  2  0  0  0  0  0  0  0  0  0
    1.4809   -4.5503   -2.0796 C   0  0  0  0  0  0  0  0  0  0  0  0
    1.2298   -3.8081   -3.0239 O   0  0  0  0  0  0  0  0  0  0  0  0
   -0.1413   -5.0278   -0.2022 C   0  0  0  0  0  0  0  0  0  0  0  0
    0.3594   -2.3095   -1.4399 H   0  0  0  0  0  0  0  0  0  0  0  0
    1.8963   -4.3453    0.0163 H   0  0  0  0  0  0  0  0  0  0  0  0
   -1.0071   -4.8514   -0.8484 H   0  0  0  0  0  0  0  0  0  0  0  0
    0.1147   -6.0904   -0.2436 H   0  0  0  0  0  0  0  0  0  0  0  0
   -0.4236   -4.7840    0.8273 H   0  0  0  0  0  0  0  0  0  0  0  0
    2.1643   -5.7302   -2.3109 N   0  0  0  0  0  0  0  0  0  0  0  0
    2.5945   -6.1612   -3.6358 C   0  0  0  0  0  0  0  0  0  0  0  0
    2.3631   -6.3233   -1.5104 H   0  0  0  0  0  0  0  0  0  0  0  0
    1.7298   -6.2970   -4.2936 H   0  0  0  0  0  0  0  0  0  0  0  0
    3.2639   -5.4191   -4.0833 H   0  0  0  0  0  0  0  0  0  0  0  0
    3.1309   -7.1126   -3.5691 H   0  0  0  0  0  0  0  0  0  0  0  0
  1  2  2  0  0  0  0
  1  3  1  0  0  0  0
  1  7  1  0  0  0  0
  3  4  1  0  0  0  0
  3  5  1  0  0  0  0
  3  6  1  0  0  0  0
  7  8  1  0  0  0  0
  7 12  1  0  0  0  0
  8  9  1  0  0  0  0
  8 11  1  0  0  0  0
  8 13  1  0  0  0  0
  9 10  2  0  0  0  0
  9 17  1  0  0  0  0
 11 14  1  0  0  0  0
 11 15  1  0  0  0  0
 11 16  1  0  0  0  0
 17 18  1  0  0  0  0
 17 22  1  0  0  0  0
 18 19  1  0  0  0  0
 18 21  1  0  0  0  0
 18 23  1  0  0  0  0
 19 20  2  0  0  0  0
 19 27  1  0  0  0  0
 21 24  1  0  0  0  0
 21 25  1  0  0  0  0
 21 26  1  0  0  0  0
 27 28  1  0  0  0  0
 27 32  1  0  0  0  0
 28 29  1  0  0  0  0
 28 31  1  0  0  0  0
 28 33  1  0  0  0  0
 29 30  2  0  0  0  0
 29 37  1  0  0  0  0
 31 34  1  0  0  0  0
 31 35  1  0  0  0  0
 31 36  1  0  0  0  0
 37 38  1  0  0  0  0
 37 39  1  0  0  0  0
 38 40  1  0  0  0  0
 38 41  1  0  0  0  0
 38 42  1  0  0  0  0
M  END
$$$$

  -OEChem-05262215353D

 42 41  0     1  0  0  0  0  0999 V2000
   -5.8312   -0.3814    2.1456 C   0  0  0  0  0  0  0  0  0  0  0  0
   -6.0411    0.8206    2.0982 O   0  0  0  0  0  0  0  0  0  0  0  0
   -6.9928   -1.3560    2.1803 C   0  0  0  0  0  0  0  0  0  0  0  0
   -6.9119   -2.0019    3.0580 H   0  0  0  0  0  0  0  0  0  0  0  0
   -7.9400   -0.8115    2.2299 H   0  0  0  0  0  0  0  0  0  0  0  0
   -6.9873   -1.9741    1.2792 H   0  0  0  0  0  0  0  0  0  0  0  0
   -4.5371   -0.8553    2.1552 N   0  0  0  0  0  0  0  0  0  0  0  0
   -3.3480   -0.0170    1.9618 C   0  0  2  0  0  0  0  0  0  0  0  0
   -2.2177   -0.7836    1.2431 C   0  0  0  0  0  0  0  0  0  0  0  0
   -2.3245   -1.9913    1.0738 O   0  0  0  0  0  0  0  0  0  0  0  0
   -2.8733    0.4712    3.3338 C   0  0  0  0  0  0  0  0  0  0  0  0
   -4.4038   -1.8620    2.0597 H   0  0  0  0  0  0  0  0  0  0  0  0
   -3.6044    0.8466    1.3388 H   0  0  0  0  0  0  0  0  0  0  0  0
   -2.6000   -0.3789    3.9677 H   0  0  0  0  0  0  0  0  0  0  0  0
   -2.0011    1.1235    3.2309 H   0  0  0  0  0  0  0  0  0  0  0  0
   -3.6686    1.0355    3.8312 H   0  0  0  0  0  0  0  0  0  0  0  0
   -1.1737   -0.0751    0.6682 N   0  0  0  0  0  0  0  0  0  0  0  0
    0.2019   -0.5678    0.4430 C   0  0  2  0  0  0  0  0  0  0  0  0
    0.4806   -2.0919    0.5456 C   0  0  0  0  0  0  0  0  0  0  0  0
    0.5905   -2.6292    1.6431 O   0  0  0  0  0  0  0  0  0  0  0  0
    1.1069    0.1963    1.4182 C   0  0  0  0  0  0  0  0  0  0  0  0
   -1.2556    0.9292    0.7928 H   0  0  0  0  0  0  0  0  0  0  0  0
    0.4829   -0.2806   -0.5743 H   0  0  0  0  0  0  0  0  0  0  0  0
    0.8352   -0.0329    2.4542 H   0  0  0  0  0  0  0  0  0  0  0  0
    2.1535   -0.0870    1.2658 H   0  0  0  0  0  0  0  0  0  0  0  0
    1.0163    1.2756    1.2633 H   0  0  0  0  0  0  0  0  0  0  0  0
    0.9747   -2.7710   -0.5524 N   0  0  0  0  0  0  0  0  0  0  0  0
    1.4551   -4.1578   -0.5402 C   0  0  2  0  0  0  0  0  0  0  0  0
    2.3284   -4.4602   -1.7764 C   0  0  0  0  0  0  0  0  0  0  0  0
    2.3663   -3.6697   -2.7141 O   0  0  0  0  0  0  0  0  0  0  0  0
    0.2437   -5.0976   -0.5005 C   0  0  0  0  0  0  0  0  0  0  0  0
    0.9847   -2.2897   -1.4501 H   0  0  0  0  0  0  0  0  0  0  0  0
    2.0717   -4.3207    0.3501 H   0  0  0  0  0  0  0  0  0  0  0  0
   -0.3868   -4.9450   -1.3821 H   0  0  0  0  0  0  0  0  0  0  0  0
    0.5667   -6.1424   -0.4782 H   0  0  0  0  0  0  0  0  0  0  0  0
   -0.3595   -4.9068    0.3930 H   0  0  0  0  0  0  0  0  0  0  0  0
    3.0808   -5.6189   -1.8392 N   0  0  0  0  0  0  0  0  0  0  0  0
    3.9075   -5.9761   -2.9859 C   0  0  0  0  0  0  0  0  0  0  0  0
    3.0296   -6.2566   -1.0500 H   0  0  0  0  0  0  0  0  0  0  0  0
    3.2892   -6.0913   -3.8823 H   0  0  0  0  0  0  0  0  0  0  0  0
    4.6595   -5.2027   -3.1743 H   0  0  0  0  0  0  0  0  0  0  0  0
    4.4254   -6.9216   -2.7989 H   0  0  0  0  0  0  0  0  0  0  0  0
  1  2  2  0  0  0  0
  1  3  1  0  0  0  0
  1  7  1  0  0  0  0
  3  4  1  0  0  0  0
  3  5  1  0  0  0  0
  3  6  1  0  0  0  0
  7  8  1  0  0  0  0
  7 12  1  0  0  0  0
  8  9  1  0  0  0  0
  8 11  1  0  0  0  0
  8 13  1  0  0  0  0
  9 10  2  0  0  0  0
  9 17  1  0  0  0  0
 11 14  1  0  0  0  0
 11 15  1  0  0  0  0
 11 16  1  0  0  0  0
 17 18  1  0  0  0  0
 17 22  1  0  0  0  0
 18 19  1  0  0  0  0
 18 21  1  0  0  0  0
 18 23  1  0  0  0  0
 19 20  2  0  0  0  0
 19 27  1  0  0  0  0
 21 24  1  0  0  0  0
 21 25  1  0  0  0  0
 21 26  1  0  0  0  0
 27 28  1  0  0  0  0
 27 32  1  0  0  0  0
 28 29  1  0  0  0  0
 28 31  1  0  0  0  0
 28 33  1  0  0  0  0
 29 30  2  0  0  0  0
 29 37  1  0  0  0  0
 31 34  1  0  0  0  0
 31 35  1  0  0  0  0
 31 36  1  0  0  0  0
 37 38  1  0  0  0  0
 37 39  1  0  0  0  0
 38 40  1  0  0  0  0
 38 41  1  0  0  0  0
 38 42  1  0  0  0  0
M  END
$$$$

  -OEChem-05262215353D

 42 41  0     1  0  0  0  0  0999 V2000
   -5.8201   -0.2770    2.1293 C   0  0  0  0  0  0  0  0  0  0  0  0
   -5.9633    0.9359    2.1417 O   0  0  0  0  0  0  0  0  0  0  0  0
   -7.0313   -1.1872    2.0520 C   0  0  0  0  0  0  0  0  0  0  0  0
   -7.0818   -1.8164    2.9438 H   0  0  0  0  0  0  0  0  0  0  0  0
   -7.9468   -0.5927    1.9867 H   0  0  0  0  0  0  0  0  0  0  0  0
   -6.9614   -1.8252    1.1675 H   0  0  0  0  0  0  0  0  0  0  0  0
   -4.5558   -0.8248    2.1640 N   0  0  0  0  0  0  0  0  0  0  0  0
   -3.3157   -0.0523    2.0191 C   0  0  2  0  0  0  0  0  0  0  0  0
   -2.2599   -0.8203    1.1954 C   0  0  0  0  0  0  0  0  0  0  0  0
   -2.4380   -2.0050    0.9424 O   0  0  0  0  0  0  0  0  0  0  0  0
   -2.7771    0.2609    3.4175 C   0  0  0  0  0  0  0  0  0  0  0  0
   -4.4810   -1.8293    2.0030 H   0  0  0  0  0  0  0  0  0  0  0  0
   -3.5215    0.8862    1.4938 H   0  0  0  0  0  0  0  0  0  0  0  0
   -2.5527   -0.6655    3.9567 H   0  0  0  0  0  0  0  0  0  0  0  0
   -1.8617    0.8567    3.3528 H   0  0  0  0  0  0  0  0  0  0  0  0
   -3.5184    0.8274    3.9903 H   0  0  0  0  0  0  0  0  0  0  0  0
   -1.2256   -0.1277    0.5862 N   0  0  0  0  0  0  0  0  0  0  0  0
    0.1448   -0.6382    0.3651 C   0  0  2  0  0  0  0  0  0  0  0  0
    0.4301   -2.1577    0.5137 C   0  0  0  0  0  0  0  0  0  0  0  0
    0.3563   -2.6946    1.6142 O   0  0  0  0  0  0  0  0  0  0  0  0
    1.0637    0.1440    1.3112 C   0  0  0  0  0  0  0  0  0  0  0  0
   -1.2824    0.8746    0.7367 H   0  0  0  0  0  0  0  0  0  0  0  0
    0.4144   -0.3828   -0.6639 H   0  0  0  0  0  0  0  0  0  0  0  0
    0.8046   -0.0630    2.3549 H   0  0  0  0  0  0  0  0  0  0  0  0
    2.1075   -0.1450    1.1515 H   0  0  0  0  0  0  0  0  0  0  0  0
    0.9743    1.2199    1.1345 H   0  0  0  0  0  0  0  0  0  0  0  0
    1.1949   -2.7952   -0.4464 N   0  0  0  0  0  0  0  0  0  0  0  0
    1.7864   -4.1321   -0.3117 C   0  0  2  0  0  0  0  0  0  0  0  0
    2.9361   -4.3374   -1.3215 C   0  0  0  0  0  0  0  0  0  0  0  0
    3.1283   -3.5166   -2.2133 O   0  0  0  0  0  0  0  0  0  0  0  0
    0.6870   -5.1802   -0.5242 C   0  0  0  0  0  0  0  0  0  0  0  0
    1.4070   -2.2877   -1.3041 H   0  0  0  0  0  0  0  0  0  0  0  0
    2.2061   -4.2464    0.6933 H   0  0  0  0  0  0  0  0  0  0  0  0
    0.2495   -5.0781   -1.5225 H   0  0  0  0  0  0  0  0  0  0  0  0
    1.0920   -6.1913   -0.4214 H   0  0  0  0  0  0  0  0  0  0  0  0
   -0.1085   -5.0533    0.2175 H   0  0  0  0  0  0  0  0  0  0  0  0
    3.7711   -5.4355   -1.2235 N   0  0  0  0  0  0  0  0  0  0  0  0
    4.8673   -5.6945   -2.1498 C   0  0  0  0  0  0  0  0  0  0  0  0
    3.5872   -6.1006   -0.4778 H   0  0  0  0  0  0  0  0  0  0  0  0
    4.4819   -5.8688   -3.1599 H   0  0  0  0  0  0  0  0  0  0  0  0
    5.5564   -4.8435   -2.1778 H   0  0  0  0  0  0  0  0  0  0  0  0
    5.4276   -6.5802   -1.8351 H   0  0  0  0  0  0  0  0  0  0  0  0
  1  2  2  0  0  0  0
  1  3  1  0  0  0  0
  1  7  1  0  0  0  0
  3  4  1  0  0  0  0
  3  5  1  0  0  0  0
  3  6  1  0  0  0  0
  7  8  1  0  0  0  0
  7 12  1  0  0  0  0
  8  9  1  0  0  0  0
  8 11  1  0  0  0  0
  8 13  1  0  0  0  0
  9 10  2  0  0  0  0
  9 17  1  0  0  0  0
 11 14  1  0  0  0  0
 11 15  1  0  0  0  0
 11 16  1  0  0  0  0
 17 18  1  0  0  0  0
 17 22  1  0  0  0  0
 18 19  1  0  0  0  0
 18 21  1  0  0  0  0
 18 23  1  0  0  0  0
 19 20  2  0  0  0  0
 19 27  1  0  0  0  0
 21 24  1  0  0  0  0
 21 25  1  0  0  0  0
 21 26  1  0  0  0  0
 27 28  1  0  0  0  0
 27 32  1  0  0  0  0
 28 29  1  0  0  0  0
 28 31  1  0  0  0  0
 28 33  1  0  0  0  0
 29 30  2  0  0  0  0
 29 37  1  0  0  0  0
 31 34  1  0  0  0  0
 31 35  1  0  0  0  0
 31 36  1  0  0  0  0
 37 38  1  0  0  0  0
 37 39  1  0  0  0  0
 38 40  1  0  0  0  0
 38 41  1  0  0  0  0
 38 42  1  0  0  0  0
M  END
$$$$

  -OEChem-05262215353D

 42 41  0     1  0  0  0  0  0999 V2000
   -5.7890   -0.1829    2.1677 C   0  0  0  0  0  0  0  0  0  0  0  0
   -5.8413    1.0304    2.2992 O   0  0  0  0  0  0  0  0  0  0  0  0
   -7.0691   -0.9921    2.0769 C   0  0  0  0  0  0  0  0  0  0  0  0
   -7.1394   -1.6740    2.9279 H   0  0  0  0  0  0  0  0  0  0  0  0
   -7.9371   -0.3268    2.0846 H   0  0  0  0  0  0  0  0  0  0  0  0
   -7.0794   -1.5728    1.1514 H   0  0  0  0  0  0  0  0  0  0  0  0
   -4.5680   -0.8187    2.0953 N   0  0  0  0  0  0  0  0  0  0  0  0
   -3.2787   -0.1241    1.9923 C   0  0  2  0  0  0  0  0  0  0  0  0
   -2.3028   -0.8625    1.0519 C   0  0  0  0  0  0  0  0  0  0  0  0
   -2.5705   -1.9925    0.6628 O   0  0  0  0  0  0  0  0  0  0  0  0
   -2.6808   -0.0130    3.3970 C   0  0  0  0  0  0  0  0  0  0  0  0
   -4.5707   -1.8061    1.8391 H   0  0  0  0  0  0  0  0  0  0  0  0
   -3.4294    0.8809    1.5844 H   0  0  0  0  0  0  0  0  0  0  0  0
   -2.5096   -1.0089    3.8189 H   0  0  0  0  0  0  0  0  0  0  0  0
   -1.7265    0.5209    3.3683 H   0  0  0  0  0  0  0  0  0  0  0  0
   -3.3632    0.5331    4.0562 H   0  0  0  0  0  0  0  0  0  0  0  0
   -1.2550   -0.1749    0.4630 N   0  0  0  0  0  0  0  0  0  0  0  0
    0.1135   -0.7055    0.2827 C   0  0  2  0  0  0  0  0  0  0  0  0
    0.3904   -2.2246    0.4485 C   0  0  0  0  0  0  0  0  0  0  0  0
    0.0891   -2.8013    1.4877 O   0  0  0  0  0  0  0  0  0  0  0  0
    1.0107    0.0683    1.2558 C   0  0  0  0  0  0  0  0  0  0  0  0
   -1.2835    0.8170    0.6756 H   0  0  0  0  0  0  0  0  0  0  0  0
    0.4130   -0.4581   -0.7400 H   0  0  0  0  0  0  0  0  0  0  0  0
    0.7335   -0.1567    2.2912 H   0  0  0  0  0  0  0  0  0  0  0  0
    2.0597   -0.2101    1.1117 H   0  0  0  0  0  0  0  0  0  0  0  0
    0.9174    1.1464    1.0935 H   0  0  0  0  0  0  0  0  0  0  0  0
    1.4118   -2.7917   -0.2925 N   0  0  0  0  0  0  0  0  0  0  0  0
    2.0447   -4.0884   -0.0197 C   0  0  2  0  0  0  0  0  0  0  0  0
    3.4352   -4.1781   -0.6835 C   0  0  0  0  0  0  0  0  0  0  0  0
    3.8053   -3.3022   -1.4594 O   0  0  0  0  0  0  0  0  0  0  0  0
    1.1275   -5.2022   -0.5370 C   0  0  0  0  0  0  0  0  0  0  0  0
    1.8325   -2.2300   -1.0314 H   0  0  0  0  0  0  0  0  0  0  0  0
    2.1867   -4.2074    1.0596 H   0  0  0  0  0  0  0  0  0  0  0  0
    0.9773   -5.1021   -1.6165 H   0  0  0  0  0  0  0  0  0  0  0  0
    1.5615   -6.1855   -0.3339 H   0  0  0  0  0  0  0  0  0  0  0  0
    0.1515   -5.1506   -0.0437 H   0  0  0  0  0  0  0  0  0  0  0  0
    4.2815   -5.2354   -0.4041 N   0  0  0  0  0  0  0  0  0  0  0  0
    5.5915   -5.3960   -1.0233 C   0  0  0  0  0  0  0  0  0  0  0  0
    3.9444   -5.9533    0.2309 H   0  0  0  0  0  0  0  0  0  0  0  0
    5.4878   -5.5352   -2.1045 H   0  0  0  0  0  0  0  0  0  0  0  0
    6.2143   -4.5141   -0.8395 H   0  0  0  0  0  0  0  0  0  0  0  0
    6.1022   -6.2704   -0.6085 H   0  0  0  0  0  0  0  0  0  0  0  0
  1  2  2  0  0  0  0
  1  3  1  0  0  0  0
  1  7  1  0  0  0  0
  3  4  1  0  0  0  0
  3  5  1  0  0  0  0
  3  6  1  0  0  0  0
  7  8  1  0  0  0  0
  7 12  1  0  0  0  0
  8  9  1  0  0  0  0
  8 11  1  0  0  0  0
  8 13  1  0  0  0  0
  9 10  2  0  0  0  0
  9 17  1  0  0  0  0
 11 14  1  0  0  0  0
 11 15  1  0  0  0  0
 11 16  1  0  0  0  0
 17 18  1  0  0  0  0
 17 22  1  0  0  0  0
 18 19  1  0  0  0  0
 18 21  1  0  0  0  0
 18 23  1  0  0  0  0
 19 20  2  0  0  0  0
 19 27  1  0  0  0  0
 21 24  1  0  0  0  0
 21 25  1  0  0  0  0
 21 26  1  0  0  0  0
 27 28  1  0  0  0  0
 27 32  1  0  0  0  0
 28 29  1  0  0  0  0
 28 31  1  0  0  0  0
 28 33  1  0  0  0  0
 29 30  2  0  0  0  0
 29 37  1  0  0  0  0
 31 34  1  0  0  0  0
 31 35  1  0  0  0  0
 31 36  1  0  0  0  0
 37 38  1  0  0  0  0
 37 39  1  0  0  0  0
 38 40  1  0  0  0  0
 38 41  1  0  0  0  0
 38 42  1  0  0  0  0
M  END
$$$$

  -OEChem-05262215353D

 42 41  0     1  0  0  0  0  0999 V2000
   -5.1665   -1.4486    1.7505 C   0  0  0  0  0  0  0  0  0  0  0  0
   -5.6283   -0.8129    0.8149 O   0  0  0  0  0  0  0  0  0  0  0  0
   -5.8378   -2.7312    2.2045 C   0  0  0  0  0  0  0  0  0  0  0  0
   -6.1759   -2.6303    3.2387 H   0  0  0  0  0  0  0  0  0  0  0  0
   -6.7015   -2.9505    1.5706 H   0  0  0  0  0  0  0  0  0  0  0  0
   -5.1323   -3.5631    2.1384 H   0  0  0  0  0  0  0  0  0  0  0  0
   -4.0296   -1.0074    2.3923 N   0  0  0  0  0  0  0  0  0  0  0  0
   -3.1783    0.0836    1.9054 C   0  0  2  0  0  0  0  0  0  0  0  0
   -1.6920   -0.2307    2.1657 C   0  0  0  0  0  0  0  0  0  0  0  0
   -1.3736   -0.8937    3.1465 O   0  0  0  0  0  0  0  0  0  0  0  0
   -3.5960    1.3758    2.6115 C   0  0  0  0  0  0  0  0  0  0  0  0
   -3.6056   -1.6385    3.0727 H   0  0  0  0  0  0  0  0  0  0  0  0
   -3.3053    0.2022    0.8243 H   0  0  0  0  0  0  0  0  0  0  0  0
   -3.4719    1.2761    3.6946 H   0  0  0  0  0  0  0  0  0  0  0  0
   -2.9872    2.2168    2.2670 H   0  0  0  0  0  0  0  0  0  0  0  0
   -4.6465    1.5986    2.3997 H   0  0  0  0  0  0  0  0  0  0  0  0
   -0.6933    0.3822    1.4290 N   0  0  0  0  0  0  0  0  0  0  0  0
    0.5059   -0.3221    0.9201 C   0  0  2  0  0  0  0  0  0  0  0  0
    0.5694   -1.8790    0.8672 C   0  0  0  0  0  0  0  0  0  0  0  0
   -0.4004   -2.5985    1.0684 O   0  0  0  0  0  0  0  0  0  0  0  0
    1.6735    0.1867    1.7739 C   0  0  0  0  0  0  0  0  0  0  0  0
   -1.0678    1.0718    0.7852 H   0  0  0  0  0  0  0  0  0  0  0  0
    0.6588    0.0094   -0.1111 H   0  0  0  0  0  0  0  0  0  0  0  0
    1.5554   -0.1461    2.8109 H   0  0  0  0  0  0  0  0  0  0  0  0
    2.6291   -0.1891    1.3954 H   0  0  0  0  0  0  0  0  0  0  0  0
    1.7078    1.2806    1.7634 H   0  0  0  0  0  0  0  0  0  0  0  0
    1.5749   -2.4451    0.1030 N   0  0  0  0  0  0  0  0  0  0  0  0
    1.7564   -3.8904   -0.0917 C   0  0  2  0  0  0  0  0  0  0  0  0
    3.2466   -4.2785   -0.0005 C   0  0  0  0  0  0  0  0  0  0  0  0
    4.1110   -3.4093   -0.0582 O   0  0  0  0  0  0  0  0  0  0  0  0
    1.1803   -4.2655   -1.4597 C   0  0  0  0  0  0  0  0  0  0  0  0
    2.4102   -1.8779   -0.0369 H   0  0  0  0  0  0  0  0  0  0  0  0
    1.2268   -4.4479    0.6885 H   0  0  0  0  0  0  0  0  0  0  0  0
    1.7109   -3.7356   -2.2571 H   0  0  0  0  0  0  0  0  0  0  0  0
    1.2726   -5.3415   -1.6341 H   0  0  0  0  0  0  0  0  0  0  0  0
    0.1200   -3.9978   -1.5085 H   0  0  0  0  0  0  0  0  0  0  0  0
    3.6198   -5.6002    0.1579 N   0  0  0  0  0  0  0  0  0  0  0  0
    5.0068   -6.0305    0.2871 C   0  0  0  0  0  0  0  0  0  0  0  0
    2.8796   -6.2919    0.2359 H   0  0  0  0  0  0  0  0  0  0  0  0
    5.5786   -5.7523   -0.6043 H   0  0  0  0  0  0  0  0  0  0  0  0
    5.4724   -5.5674    1.1634 H   0  0  0  0  0  0  0  0  0  0  0  0
    5.0568   -7.1174    0.4038 H   0  0  0  0  0  0  0  0  0  0  0  0
  1  2  2  0  0  0  0
  1  3  1  0  0  0  0
  1  7  1  0  0  0  0
  3  4  1  0  0  0  0
  3  5  1  0  0  0  0
  3  6  1  0  0  0  0
  7  8  1  0  0  0  0
  7 12  1  0  0  0  0
  8  9  1  0  0  0  0
  8 11  1  0  0  0  0
  8 13  1  0  0  0  0
  9 10  2  0  0  0  0
  9 17  1  0  0  0  0
 11 14  1  0  0  0  0
 11 15  1  0  0  0  0
 11 16  1  0  0  0  0
 17 18  1  0  0  0  0
 17 22  1  0  0  0  0
 18 19  1  0  0  0  0
 18 21  1  0  0  0  0
 18 23  1  0  0  0  0
 19 20  2  0  0  0  0
 19 27  1  0  0  0  0
 21 24  1  0  0  0  0
 21 25  1  0  0  0  0
 21 26  1  0  0  0  0
 27 28  1  0  0  0  0
 27 32  1  0  0  0  0
 28 29  1  0  0  0  0
 28 31  1  0  0  0  0
 28 33  1  0  0  0  0
 29 30  2  0  0  0  0
 29 37  1  0  0  0  0
 31 34  1  0  0  0  0
 31 35  1  0  0  0  0
 31 36  1  0  0  0  0
 37 38  1  0  0  0  0
 37 39  1  0  0  0  0
 38 40  1  0  0  0  0
 38 41  1  0  0  0  0
 38 42  1  0  0  0  0
M  END
$$$$

  -OEChem-05262215353D

 42 41  0     1  0  0  0  0  0999 V2000
   -5.1688   -1.3806    1.7524 C   0  0  0  0  0  0  0  0  0  0  0  0
   -5.7015   -0.5938    0.9849 O   0  0  0  0  0  0  0  0  0  0  0  0
   -5.8202   -2.7196    2.0421 C   0  0  0  0  0  0  0  0  0  0  0  0
   -5.9796   -2.8328    3.1171 H   0  0  0  0  0  0  0  0  0  0  0  0
   -6.7857   -2.7875    1.5329 H   0  0  0  0  0  0  0  0  0  0  0  0
   -5.1773   -3.5296    1.6884 H   0  0  0  0  0  0  0  0  0  0  0  0
   -3.9675   -1.0618    2.3477 N   0  0  0  0  0  0  0  0  0  0  0  0
   -3.1360    0.0821    1.9569 C   0  0  2  0  0  0  0  0  0  0  0  0
   -1.6386   -0.2733    2.0446 C   0  0  0  0  0  0  0  0  0  0  0  0
   -1.2549   -1.0986    2.8682 O   0  0  0  0  0  0  0  0  0  0  0  0
   -3.4674    1.2634    2.8719 C   0  0  0  0  0  0  0  0  0  0  0  0
   -3.4985   -1.8016    2.8699 H   0  0  0  0  0  0  0  0  0  0  0  0
   -3.3487    0.3570    0.9184 H   0  0  0  0  0  0  0  0  0  0  0  0
   -3.2473    1.0137    3.9149 H   0  0  0  0  0  0  0  0  0  0  0  0
   -2.8785    2.1416    2.5912 H   0  0  0  0  0  0  0  0  0  0  0  0
   -4.5288    1.5181    2.7910 H   0  0  0  0  0  0  0  0  0  0  0  0
   -0.7047    0.3977    1.2704 N   0  0  0  0  0  0  0  0  0  0  0  0
    0.5265   -0.2474    0.7646 C   0  0  2  0  0  0  0  0  0  0  0  0
    0.4729   -1.7742    0.4662 C   0  0  0  0  0  0  0  0  0  0  0  0
   -0.5932   -2.3390    0.2441 O   0  0  0  0  0  0  0  0  0  0  0  0
    1.6376    0.0593    1.7788 C   0  0  0  0  0  0  0  0  0  0  0  0
   -1.1245    1.0777    0.6443 H   0  0  0  0  0  0  0  0  0  0  0  0
    0.7877    0.2324   -0.1832 H   0  0  0  0  0  0  0  0  0  0  0  0
    1.4475   -0.4608    2.7236 H   0  0  0  0  0  0  0  0  0  0  0  0
    2.6132   -0.2574    1.3982 H   0  0  0  0  0  0  0  0  0  0  0  0
    1.6836    1.1342    1.9792 H   0  0  0  0  0  0  0  0  0  0  0  0
    1.6091   -2.4090   -0.0031 N   0  0  0  0  0  0  0  0  0  0  0  0
    1.6721   -3.8387   -0.3341 C   0  0  2  0  0  0  0  0  0  0  0  0
    3.0240   -4.4494    0.0887 C   0  0  0  0  0  0  0  0  0  0  0  0
    3.9633   -3.7165    0.3818 O   0  0  0  0  0  0  0  0  0  0  0  0
    1.4527   -3.9956   -1.8413 C   0  0  0  0  0  0  0  0  0  0  0  0
    2.5017   -1.9687    0.2179 H   0  0  0  0  0  0  0  0  0  0  0  0
    0.8871   -4.3808    0.2044 H   0  0  0  0  0  0  0  0  0  0  0  0
    2.2397   -3.4769   -2.3978 H   0  0  0  0  0  0  0  0  0  0  0  0
    1.4629   -5.0525   -2.1237 H   0  0  0  0  0  0  0  0  0  0  0  0
    0.4852   -3.5716   -2.1288 H   0  0  0  0  0  0  0  0  0  0  0  0
    3.1855   -5.8210    0.1531 N   0  0  0  0  0  0  0  0  0  0  0  0
    4.4223   -6.4622    0.5828 C   0  0  0  0  0  0  0  0  0  0  0  0
    2.3765   -6.4000   -0.0531 H   0  0  0  0  0  0  0  0  0  0  0  0
    5.2596   -6.1434   -0.0471 H   0  0  0  0  0  0  0  0  0  0  0  0
    4.6459   -6.2045    1.6235 H   0  0  0  0  0  0  0  0  0  0  0  0
    4.3307   -7.5500    0.5071 H   0  0  0  0  0  0  0  0  0  0  0  0
  1  2  2  0  0  0  0
  1  3  1  0  0  0  0
  1  7  1  0  0  0  0
  3  4  1  0  0  0  0
  3  5  1  0  0  0  0
  3  6  1  0  0  0  0
  7  8  1  0  0  0  0
  7 12  1  0  0  0  0
  8  9  1  0  0  0  0
  8 11  1  0  0  0  0
  8 13  1  0  0  0  0
  9 10  2  0  0  0  0
  9 17  1  0  0  0  0
 11 14  1  0  0  0  0
 11 15  1  0  0  0  0
 11 16  1  0  0  0  0
 17 18  1  0  0  0  0
 17 22  1  0  0  0  0
 18 19  1  0  0  0  0
 18 21  1  0  0  0  0
 18 23  1  0  0  0  0
 19 20  2  0  0  0  0
 19 27  1  0  0  0  0
 21 24  1  0  0  0  0
 21 25  1  0  0  0  0
 21 26  1  0  0  0  0
 27 28  1  0  0  0  0
 27 32  1  0  0  0  0
 28 29  1  0  0  0  0
 28 31  1  0  0  0  0
 28 33  1  0  0  0  0
 29 30  2  0  0  0  0
 29 37  1  0  0  0  0
 31 34  1  0  0  0  0
 31 35  1  0  0  0  0
 31 36  1  0  0  0  0
 37 38  1  0  0  0  0
 37 39  1  0  0  0  0
 38 40  1  0  0  0  0
 38 41  1  0  0  0  0
 38 42  1  0  0  0  0
M  END
$$$$

  -OEChem-05262215353D

 42 41  0     1  0  0  0  0  0999 V2000
   -5.2367   -1.2604    1.7696 C   0  0  0  0  0  0  0  0  0  0  0  0
   -5.7650   -0.3819    1.1056 O   0  0  0  0  0  0  0  0  0  0  0  0
   -5.9510   -2.5804    1.9893 C   0  0  0  0  0  0  0  0  0  0  0  0
   -6.0746   -2.7656    3.0591 H   0  0  0  0  0  0  0  0  0  0  0  0
   -6.9381   -2.5574    1.5186 H   0  0  0  0  0  0  0  0  0  0  0  0
   -5.3693   -3.3942    1.5495 H   0  0  0  0  0  0  0  0  0  0  0  0
   -3.9864   -1.0590    2.3136 N   0  0  0  0  0  0  0  0  0  0  0  0
   -3.1252    0.0862    1.9977 C   0  0  2  0  0  0  0  0  0  0  0  0
   -1.6403   -0.3274    1.9895 C   0  0  0  0  0  0  0  0  0  0  0  0
   -1.2515   -1.2089    2.7498 O   0  0  0  0  0  0  0  0  0  0  0  0
   -3.3758    1.1831    3.0361 C   0  0  0  0  0  0  0  0  0  0  0  0
   -3.5351   -1.8584    2.7576 H   0  0  0  0  0  0  0  0  0  0  0  0
   -3.3668    0.4684    1.0001 H   0  0  0  0  0  0  0  0  0  0  0  0
   -3.1380    0.8192    4.0410 H   0  0  0  0  0  0  0  0  0  0  0  0
   -2.7553    2.0593    2.8265 H   0  0  0  0  0  0  0  0  0  0  0  0
   -4.4262    1.4905    3.0159 H   0  0  0  0  0  0  0  0  0  0  0  0
   -0.7256    0.3548    1.2018 N   0  0  0  0  0  0  0  0  0  0  0  0
    0.5168   -0.2595    0.6880 C   0  0  2  0  0  0  0  0  0  0  0  0
    0.4788   -1.7887    0.4079 C   0  0  0  0  0  0  0  0  0  0  0  0
   -0.5550   -2.3224    0.0185 O   0  0  0  0  0  0  0  0  0  0  0  0
    1.6264    0.0889    1.6913 C   0  0  0  0  0  0  0  0  0  0  0  0
   -1.1520    1.0528    0.6004 H   0  0  0  0  0  0  0  0  0  0  0  0
    0.7585    0.2142   -0.2681 H   0  0  0  0  0  0  0  0  0  0  0  0
    1.4688   -0.4438    2.6353 H   0  0  0  0  0  0  0  0  0  0  0  0
    2.6101   -0.1827    1.2970 H   0  0  0  0  0  0  0  0  0  0  0  0
    1.6298    1.1637    1.8971 H   0  0  0  0  0  0  0  0  0  0  0  0
    1.6565   -2.4917    0.2319 N   0  0  0  0  0  0  0  0  0  0  0  0
    1.7179   -3.9459    0.0431 C   0  0  2  0  0  0  0  0  0  0  0  0
    2.9282   -4.5466    0.7882 C   0  0  0  0  0  0  0  0  0  0  0  0
    3.8239   -3.8131    1.1950 O   0  0  0  0  0  0  0  0  0  0  0  0
    1.8017   -4.2385   -1.4573 C   0  0  0  0  0  0  0  0  0  0  0  0
    2.4982   -2.0654    0.6180 H   0  0  0  0  0  0  0  0  0  0  0  0
    0.8163   -4.4134    0.4538 H   0  0  0  0  0  0  0  0  0  0  0  0
    2.7039   -3.7897   -1.8850 H   0  0  0  0  0  0  0  0  0  0  0  0
    1.8280   -5.3171   -1.6383 H   0  0  0  0  0  0  0  0  0  0  0  0
    0.9286   -3.8241   -1.9712 H   0  0  0  0  0  0  0  0  0  0  0  0
    3.0070   -5.9071    1.0206 N   0  0  0  0  0  0  0  0  0  0  0  0
    4.0975   -6.5289    1.7625 C   0  0  0  0  0  0  0  0  0  0  0  0
    2.2279   -6.4826    0.7140 H   0  0  0  0  0  0  0  0  0  0  0  0
    5.0575   -6.3231    1.2772 H   0  0  0  0  0  0  0  0  0  0  0  0
    4.1315   -6.1449    2.7876 H   0  0  0  0  0  0  0  0  0  0  0  0
    3.9572   -7.6134    1.8039 H   0  0  0  0  0  0  0  0  0  0  0  0
  1  2  2  0  0  0  0
  1  3  1  0  0  0  0
  1  7  1  0  0  0  0
  3  4  1  0  0  0  0
  3  5  1  0  0  0  0
  3  6  1  0  0  0  0
  7  8  1  0  0  0  0
  7 12  1  0  0  0  0
  8  9  1  0  0  0  0
  8 11  1  0  0  0  0
  8 13  1  0  0  0  0
  9 10  2  0  0  0  0
  9 17  1  0  0  0  0
 11 14  1  0  0  0  0
 11 15  1  0  0  0  0
 11 16  1  0  0  0  0
 17 18  1  0  0  0  0
 17 22  1  0  0  0  0
 18 19  1  0  0  0  0
 18 21  1  0  0  0  0
 18 23  1  0  0  0  0
 19 20  2  0  0  0  0
 19 27  1  0  0  0  0
 21 24  1  0  0  0  0
 21 25  1  0  0  0  0
 21 26  1  0  0  0  0
 27 28  1  0  0  0  0
 27 32  1  0  0  0  0
 28 29  1  0  0  0  0
 28 31  1  0  0  0  0
 28 33  1  0  0  0  0
 29 30  2  0  0  0  0
 29 37  1  0  0  0  0
 31 34  1  0  0  0  0
 31 35  1  0  0  0  0
 31 36  1  0  0  0  0
 37 38  1  0  0  0  0
 37 39  1  0  0  0  0
 38 40  1  0  0  0  0
 38 41  1  0  0  0  0
 38 42  1  0  0  0  0
M  END
$$$$

  -OEChem-05262215353D

 42 41  0     1  0  0  0  0  0999 V2000
   -5.2223   -1.3036    1.7940 C   0  0  0  0  0  0  0  0  0  0  0  0
   -5.7516   -0.4929    1.0496 O   0  0  0  0  0  0  0  0  0  0  0  0
   -5.9252   -2.6072    2.1231 C   0  0  0  0  0  0  0  0  0  0  0  0
   -6.0827   -2.6837    3.2016 H   0  0  0  0  0  0  0  0  0  0  0  0
   -6.8957   -2.6498    1.6211 H   0  0  0  0  0  0  0  0  0  0  0  0
   -5.3185   -3.4525    1.7887 H   0  0  0  0  0  0  0  0  0  0  0  0
   -3.9822   -1.0399    2.3348 N   0  0  0  0  0  0  0  0  0  0  0  0
   -3.1242    0.0774    1.9235 C   0  0  2  0  0  0  0  0  0  0  0  0
   -1.6353   -0.3229    1.9701 C   0  0  0  0  0  0  0  0  0  0  0  0
   -1.2710   -1.2289    2.7142 O   0  0  0  0  0  0  0  0  0  0  0  0
   -3.3987    1.2671    2.8473 C   0  0  0  0  0  0  0  0  0  0  0  0
   -3.5260   -1.7958    2.8450 H   0  0  0  0  0  0  0  0  0  0  0  0
   -3.3552    0.3595    0.8907 H   0  0  0  0  0  0  0  0  0  0  0  0
   -3.1681    1.0064    3.8852 H   0  0  0  0  0  0  0  0  0  0  0  0
   -2.7875    2.1273    2.5587 H   0  0  0  0  0  0  0  0  0  0  0  0
   -4.4525    1.5569    2.7867 H   0  0  0  0  0  0  0  0  0  0  0  0
   -0.6969    0.3770    1.2270 N   0  0  0  0  0  0  0  0  0  0  0  0
    0.5657   -0.2244    0.7496 C   0  0  2  0  0  0  0  0  0  0  0  0
    0.5191   -1.7496    0.4533 C   0  0  0  0  0  0  0  0  0  0  0  0
   -0.4474   -2.2204   -0.1374 O   0  0  0  0  0  0  0  0  0  0  0  0
    1.6421    0.1219    1.7896 C   0  0  0  0  0  0  0  0  0  0  0  0
   -1.1022    1.0875    0.6252 H   0  0  0  0  0  0  0  0  0  0  0  0
    0.8380    0.2556   -0.1949 H   0  0  0  0  0  0  0  0  0  0  0  0
    1.4483   -0.4041    2.7306 H   0  0  0  0  0  0  0  0  0  0  0  0
    2.6370   -0.1578    1.4296 H   0  0  0  0  0  0  0  0  0  0  0  0
    1.6451    1.1978    1.9898 H   0  0  0  0  0  0  0  0  0  0  0  0
    1.6391   -2.5461    0.6032 N   0  0  0  0  0  0  0  0  0  0  0  0
    1.6328   -4.0049    0.4445 C   0  0  2  0  0  0  0  0  0  0  0  0
    2.6179   -4.6703    1.4280 C   0  0  0  0  0  0  0  0  0  0  0  0
    3.4800   -3.9968    1.9838 O   0  0  0  0  0  0  0  0  0  0  0  0
    2.0016   -4.3426   -1.0031 C   0  0  0  0  0  0  0  0  0  0  0  0
    2.3919   -2.1675    1.1772 H   0  0  0  0  0  0  0  0  0  0  0  0
    0.6337   -4.3965    0.6645 H   0  0  0  0  0  0  0  0  0  0  0  0
    3.0032   -3.9701   -1.2400 H   0  0  0  0  0  0  0  0  0  0  0  0
    1.9849   -5.4250   -1.1612 H   0  0  0  0  0  0  0  0  0  0  0  0
    1.2866   -3.8829   -1.6929 H   0  0  0  0  0  0  0  0  0  0  0  0
    2.5323   -6.0228    1.7027 N   0  0  0  0  0  0  0  0  0  0  0  0
    3.4049   -6.7026    2.6527 C   0  0  0  0  0  0  0  0  0  0  0  0
    1.7830   -6.5467    1.2598 H   0  0  0  0  0  0  0  0  0  0  0  0
    4.4495   -6.6318    2.3315 H   0  0  0  0  0  0  0  0  0  0  0  0
    3.3113   -6.2557    3.6483 H   0  0  0  0  0  0  0  0  0  0  0  0
    3.1362   -7.7611    2.7235 H   0  0  0  0  0  0  0  0  0  0  0  0
  1  2  2  0  0  0  0
  1  3  1  0  0  0  0
  1  7  1  0  0  0  0
  3  4  1  0  0  0  0
  3  5  1  0  0  0  0
  3  6  1  0  0  0  0
  7  8  1  0  0  0  0
  7 12  1  0  0  0  0
  8  9  1  0  0  0  0
  8 11  1  0  0  0  0
  8 13  1  0  0  0  0
  9 10  2  0  0  0  0
  9 17  1  0  0  0  0
 11 14  1  0  0  0  0
 11 15  1  0  0  0  0
 11 16  1  0  0  0  0
 17 18  1  0  0  0  0
 17 22  1  0  0  0  0
 18 19  1  0  0  0  0
 18 21  1  0  0  0  0
 18 23  1  0  0  0  0
 19 20  2  0  0  0  0
 19 27  1  0  0  0  0
 21 24  1  0  0  0  0
 21 25  1  0  0  0  0
 21 26  1  0  0  0  0
 27 28  1  0  0  0  0
 27 32  1  0  0  0  0
 28 29  1  0  0  0  0
 28 31  1  0  0  0  0
 28 33  1  0  0  0  0
 29 30  2  0  0  0  0
 29 37  1  0  0  0  0
 31 34  1  0  0  0  0
 31 35  1  0  0  0  0
 31 36  1  0  0  0  0
 37 38  1  0  0  0  0
 37 39  1  0  0  0  0
 38 40  1  0  0  0  0
 38 41  1  0  0  0  0
 38 42  1  0  0  0  0
M  END
$$$$

  -OEChem-05262215353D

 42 41  0     1  0  0  0  0  0999 V2000
   -5.2917   -1.2486    1.8451 C   0  0  0  0  0  0  0  0  0  0  0  0
   -5.8117   -0.4411    1.0907 O   0  0  0  0  0  0  0  0  0  0  0  0
   -6.0385   -2.5069    2.2464 C   0  0  0  0  0  0  0  0  0  0  0  0
   -6.2234   -2.5025    3.3232 H   0  0  0  0  0  0  0  0  0  0  0  0
   -6.9977   -2.5596    1.7238 H   0  0  0  0  0  0  0  0  0  0  0  0
   -5.4486   -3.3898    1.9880 H   0  0  0  0  0  0  0  0  0  0  0  0
   -4.0222   -1.0219    2.3322 N   0  0  0  0  0  0  0  0  0  0  0  0
   -3.1378    0.0535    1.8671 C   0  0  2  0  0  0  0  0  0  0  0  0
   -1.6573   -0.3791    1.9140 C   0  0  0  0  0  0  0  0  0  0  0  0
   -1.3211   -1.3253    2.6199 O   0  0  0  0  0  0  0  0  0  0  0  0
   -3.3729    1.2879    2.7428 C   0  0  0  0  0  0  0  0  0  0  0  0
   -3.5805   -1.7773    2.8556 H   0  0  0  0  0  0  0  0  0  0  0  0
   -3.3720    0.2987    0.8257 H   0  0  0  0  0  0  0  0  0  0  0  0
   -3.1455    1.0631    3.7898 H   0  0  0  0  0  0  0  0  0  0  0  0
   -2.7383    2.1179    2.4182 H   0  0  0  0  0  0  0  0  0  0  0  0
   -4.4181    1.6061    2.6737 H   0  0  0  0  0  0  0  0  0  0  0  0
   -0.6977    0.3375    1.2148 N   0  0  0  0  0  0  0  0  0  0  0  0
    0.5918   -0.2352    0.7775 C   0  0  2  0  0  0  0  0  0  0  0  0
    0.5709   -1.7564    0.4649 C   0  0  0  0  0  0  0  0  0  0  0  0
   -0.2688   -2.1889   -0.3172 O   0  0  0  0  0  0  0  0  0  0  0  0
    1.6270    0.1231    1.8540 C   0  0  0  0  0  0  0  0  0  0  0  0
   -1.0794    1.0734    0.6281 H   0  0  0  0  0  0  0  0  0  0  0  0
    0.8879    0.2554   -0.1546 H   0  0  0  0  0  0  0  0  0  0  0  0
    1.3914   -0.3822    2.7969 H   0  0  0  0  0  0  0  0  0  0  0  0
    2.6324   -0.1720    1.5381 H   0  0  0  0  0  0  0  0  0  0  0  0
    1.6301    1.2027    2.0327 H   0  0  0  0  0  0  0  0  0  0  0  0
    1.5605   -2.6112    0.9144 N   0  0  0  0  0  0  0  0  0  0  0  0
    1.4999   -4.0714    0.7863 C   0  0  2  0  0  0  0  0  0  0  0  0
    2.1870   -4.7629    1.9823 C   0  0  0  0  0  0  0  0  0  0  0  0
    2.9622   -4.1337    2.6954 O   0  0  0  0  0  0  0  0  0  0  0  0
    2.1732   -4.4762   -0.5282 C   0  0  0  0  0  0  0  0  0  0  0  0
    2.1617   -2.2565    1.6576 H   0  0  0  0  0  0  0  0  0  0  0  0
    0.4540   -4.3970    0.7749 H   0  0  0  0  0  0  0  0  0  0  0  0
    3.2198   -4.1554   -0.5365 H   0  0  0  0  0  0  0  0  0  0  0  0
    2.1398   -5.5618   -0.6588 H   0  0  0  0  0  0  0  0  0  0  0  0
    1.6595   -4.0116   -1.3757 H   0  0  0  0  0  0  0  0  0  0  0  0
    1.9345   -6.0929    2.2641 N   0  0  0  0  0  0  0  0  0  0  0  0
    2.5317   -6.7984    3.3914 C   0  0  0  0  0  0  0  0  0  0  0  0
    1.2627   -6.5787    1.6770 H   0  0  0  0  0  0  0  0  0  0  0  0
    3.6208   -6.8368    3.2849 H   0  0  0  0  0  0  0  0  0  0  0  0
    2.2871   -6.2945    4.3325 H   0  0  0  0  0  0  0  0  0  0  0  0
    2.1525   -7.8236    3.4406 H   0  0  0  0  0  0  0  0  0  0  0  0
  1  2  2  0  0  0  0
  1  3  1  0  0  0  0
  1  7  1  0  0  0  0
  3  4  1  0  0  0  0
  3  5  1  0  0  0  0
  3  6  1  0  0  0  0
  7  8  1  0  0  0  0
  7 12  1  0  0  0  0
  8  9  1  0  0  0  0
  8 11  1  0  0  0  0
  8 13  1  0  0  0  0
  9 10  2  0  0  0  0
  9 17  1  0  0  0  0
 11 14  1  0  0  0  0
 11 15  1  0  0  0  0
 11 16  1  0  0  0  0
 17 18  1  0  0  0  0
 17 22  1  0  0  0  0
 18 19  1  0  0  0  0
 18 21  1  0  0  0  0
 18 23  1  0  0  0  0
 19 20  2  0  0  0  0
 19 27  1  0  0  0  0
 21 24  1  0  0  0  0
 21 25  1  0  0  0  0
 21 26  1  0  0  0  0
 27 28  1  0  0  0  0
 27 32  1  0  0  0  0
 28 29  1  0  0  0  0
 28 31  1  0  0  0  0
 28 33  1  0  0  0  0
 29 30  2  0  0  0  0
 29 37  1  0  0  0  0
 31 34  1  0  0  0  0
 31 35  1  0  0  0  0
 31 36  1  0  0  0  0
 37 38  1  0  0  0  0
 37 39  1  0  0  0  0
 38 40  1  0  0  0  0
 38 41  1  0  0  0  0
 38 42  1  0  0  0  0
M  END
$$$$

  -OEChem-05262215353D

 42 41  0     1  0  0  0  0  0999 V2000
   -5.3133   -1.1884    1.8204 C   0  0  0  0  0  0  0  0  0  0  0  0
   -5.8195   -0.3325    1.1117 O   0  0  0  0  0  0  0  0  0  0  0  0
   -6.0841   -2.4492    2.1626 C   0  0  0  0  0  0  0  0  0  0  0  0
   -6.1668   -2.5525    3.2471 H   0  0  0  0  0  0  0  0  0  0  0  0
   -7.0896   -2.4052    1.7348 H   0  0  0  0  0  0  0  0  0  0  0  0
   -5.5667   -3.3228    1.7582 H   0  0  0  0  0  0  0  0  0  0  0  0
   -4.0327   -1.0195    2.3011 N   0  0  0  0  0  0  0  0  0  0  0  0
   -3.1273    0.0571    1.8817 C   0  0  2  0  0  0  0  0  0  0  0  0
   -1.6570   -0.4102    1.8909 C   0  0  0  0  0  0  0  0  0  0  0  0
   -1.3359   -1.3876    2.5598 O   0  0  0  0  0  0  0  0  0  0  0  0
   -3.3201    1.2487    2.8241 C   0  0  0  0  0  0  0  0  0  0  0  0
   -3.6073   -1.8085    2.7870 H   0  0  0  0  0  0  0  0  0  0  0  0
   -3.3680    0.3619    0.8575 H   0  0  0  0  0  0  0  0  0  0  0  0
   -3.0794    0.9651    3.8538 H   0  0  0  0  0  0  0  0  0  0  0  0
   -2.6721    2.0800    2.5307 H   0  0  0  0  0  0  0  0  0  0  0  0
   -4.3587    1.5930    2.7909 H   0  0  0  0  0  0  0  0  0  0  0  0
   -0.6931    0.3063    1.1978 N   0  0  0  0  0  0  0  0  0  0  0  0
    0.6063   -0.2520    0.7727 C   0  0  2  0  0  0  0  0  0  0  0  0
    0.5979   -1.7733    0.4667 C   0  0  0  0  0  0  0  0  0  0  0  0
   -0.1063   -2.1842   -0.4487 O   0  0  0  0  0  0  0  0  0  0  0  0
    1.6317    0.1228    1.8526 C   0  0  0  0  0  0  0  0  0  0  0  0
   -1.0626    1.0651    0.6326 H   0  0  0  0  0  0  0  0  0  0  0  0
    0.9040    0.2362   -0.1604 H   0  0  0  0  0  0  0  0  0  0  0  0
    1.3780   -0.3516    2.8067 H   0  0  0  0  0  0  0  0  0  0  0  0
    2.6365   -0.1955    1.5572 H   0  0  0  0  0  0  0  0  0  0  0  0
    1.6468    1.2069    2.0006 H   0  0  0  0  0  0  0  0  0  0  0  0
    1.3947   -2.6684    1.1561 N   0  0  0  0  0  0  0  0  0  0  0  0
    1.2270   -4.1236    1.0860 C   0  0  2  0  0  0  0  0  0  0  0  0
    1.6133   -4.7928    2.4216 C   0  0  0  0  0  0  0  0  0  0  0  0
    2.2934   -4.1861    3.2430 O   0  0  0  0  0  0  0  0  0  0  0  0
    2.0921   -4.6642   -0.0562 C   0  0  0  0  0  0  0  0  0  0  0  0
    1.8248   -2.3164    2.0110 H   0  0  0  0  0  0  0  0  0  0  0  0
    0.1754   -4.3616    0.8925 H   0  0  0  0  0  0  0  0  0  0  0  0
    3.1471   -4.4355    0.1241 H   0  0  0  0  0  0  0  0  0  0  0  0
    1.9792   -5.7487   -0.1441 H   0  0  0  0  0  0  0  0  0  0  0  0
    1.7939   -4.2090   -1.0057 H   0  0  0  0  0  0  0  0  0  0  0  0
    1.1986   -6.0812    2.7051 N   0  0  0  0  0  0  0  0  0  0  0  0
    1.5021   -6.7605    3.9590 C   0  0  0  0  0  0  0  0  0  0  0  0
    0.6057   -6.5448    2.0229 H   0  0  0  0  0  0  0  0  0  0  0  0
    2.5853   -6.8460    4.0958 H   0  0  0  0  0  0  0  0  0  0  0  0
    1.0830   -6.2072    4.8060 H   0  0  0  0  0  0  0  0  0  0  0  0
    1.0735   -7.7673    3.9579 H   0  0  0  0  0  0  0  0  0  0  0  0
  1  2  2  0  0  0  0
  1  3  1  0  0  0  0
  1  7  1  0  0  0  0
  3  4  1  0  0  0  0
  3  5  1  0  0  0  0
  3  6  1  0  0  0  0
  7  8  1  0  0  0  0
  7 12  1  0  0  0  0
  8  9  1  0  0  0  0
  8 11  1  0  0  0  0
  8 13  1  0  0  0  0
  9 10  2  0  0  0  0
  9 17  1  0  0  0  0
 11 14  1  0  0  0  0
 11 15  1  0  0  0  0
 11 16  1  0  0  0  0
 17 18  1  0  0  0  0
 17 22  1  0  0  0  0
 18 19  1  0  0  0  0
 18 21  1  0  0  0  0
 18 23  1  0  0  0  0
 19 20  2  0  0  0  0
 19 27  1  0  0  0  0
 21 24  1  0  0  0  0
 21 25  1  0  0  0  0
 21 26  1  0  0  0  0
 27 28  1  0  0  0  0
 27 32  1  0  0  0  0
 28 29  1  0  0  0  0
 28 31  1  0  0  0  0
 28 33  1  0  0  0  0
 29 30  2  0  0  0  0
 29 37  1  0  0  0  0
 31 34  1  0  0  0  0
 31 35  1  0  0  0  0
 31 36  1  0  0  0  0
 37 38  1  0  0  0  0
 37 39  1  0  0  0  0
 38 40  1  0  0  0  0
 38 41  1  0  0  0  0
 38 42  1  0  0  0  0
M  END
$$$$

  -OEChem-05262215353D

 42 41  0     1  0  0  0  0  0999 V2000
   -5.3908   -1.0853    1.8292 C   0  0  0  0  0  0  0  0  0  0  0  0
   -5.8663   -0.2203    1.1105 O   0  0  0  0  0  0  0  0  0  0  0  0
   -6.2088   -2.3104    2.1926 C   0  0  0  0  0  0  0  0  0  0  0  0
   -6.3207   -2.3766    3.2775 H   0  0  0  0  0  0  0  0  0  0  0  0
   -7.2018   -2.2490    1.7387 H   0  0  0  0  0  0  0  0  0  0  0  0
   -5.7106   -3.2126    1.8292 H   0  0  0  0  0  0  0  0  0  0  0  0
   -4.1025   -0.9581    2.3024 N   0  0  0  0  0  0  0  0  0  0  0  0
   -3.1600    0.0824    1.8730 C   0  0  2  0  0  0  0  0  0  0  0  0
   -1.7095   -0.4445    1.8635 C   0  0  0  0  0  0  0  0  0  0  0  0
   -1.4270   -1.4505    2.5055 O   0  0  0  0  0  0  0  0  0  0  0  0
   -3.2962    1.2789    2.8196 C   0  0  0  0  0  0  0  0  0  0  0  0
   -3.7048   -1.7557    2.7979 H   0  0  0  0  0  0  0  0  0  0  0  0
   -3.3995    0.3992    0.8522 H   0  0  0  0  0  0  0  0  0  0  0  0
   -3.0539    0.9841    3.8457 H   0  0  0  0  0  0  0  0  0  0  0  0
   -2.6217    2.0865    2.5197 H   0  0  0  0  0  0  0  0  0  0  0  0
   -4.3217    1.6617    2.8003 H   0  0  0  0  0  0  0  0  0  0  0  0
   -0.7231    0.2477    1.1784 N   0  0  0  0  0  0  0  0  0  0  0  0
    0.5870   -0.3097    0.7864 C   0  0  2  0  0  0  0  0  0  0  0  0
    0.6096   -1.8344    0.5008 C   0  0  0  0  0  0  0  0  0  0  0  0
    0.1297   -2.2405   -0.5510 O   0  0  0  0  0  0  0  0  0  0  0  0
    1.5910    0.0867    1.8780 C   0  0  0  0  0  0  0  0  0  0  0  0
   -1.0598    1.0363    0.6337 H   0  0  0  0  0  0  0  0  0  0  0  0
    0.8982    0.1686   -0.1476 H   0  0  0  0  0  0  0  0  0  0  0  0
    1.3035   -0.3412    2.8442 H   0  0  0  0  0  0  0  0  0  0  0  0
    2.5948   -0.2675    1.6221 H   0  0  0  0  0  0  0  0  0  0  0  0
    1.6273    1.1755    1.9816 H   0  0  0  0  0  0  0  0  0  0  0  0
    1.1565   -2.7421    1.3891 N   0  0  0  0  0  0  0  0  0  0  0  0
    0.9700   -4.1936    1.2887 C   0  0  2  0  0  0  0  0  0  0  0  0
    0.9841   -4.8541    2.6831 C   0  0  0  0  0  0  0  0  0  0  0  0
    1.5048   -4.2806    3.6343 O   0  0  0  0  0  0  0  0  0  0  0  0
    2.0807   -4.7757    0.4089 C   0  0  0  0  0  0  0  0  0  0  0  0
    1.3397   -2.3863    2.3276 H   0  0  0  0  0  0  0  0  0  0  0  0
   -0.0031   -4.4068    0.8338 H   0  0  0  0  0  0  0  0  0  0  0  0
    3.0628   -4.5711    0.8473 H   0  0  0  0  0  0  0  0  0  0  0  0
    1.9615   -5.8586    0.3076 H   0  0  0  0  0  0  0  0  0  0  0  0
    2.0453   -4.3307   -0.5906 H   0  0  0  0  0  0  0  0  0  0  0  0
    0.4192   -6.1020    2.8744 N   0  0  0  0  0  0  0  0  0  0  0  0
    0.3782   -6.7676    4.1709 C   0  0  0  0  0  0  0  0  0  0  0  0
   -0.0345   -6.5406    2.0785 H   0  0  0  0  0  0  0  0  0  0  0  0
    1.3933   -6.9413    4.5433 H   0  0  0  0  0  0  0  0  0  0  0  0
   -0.1642   -6.1547    4.8988 H   0  0  0  0  0  0  0  0  0  0  0  0
   -0.1283   -7.7338    4.0864 H   0  0  0  0  0  0  0  0  0  0  0  0
  1  2  2  0  0  0  0
  1  3  1  0  0  0  0
  1  7  1  0  0  0  0
  3  4  1  0  0  0  0
  3  5  1  0  0  0  0
  3  6  1  0  0  0  0
  7  8  1  0  0  0  0
  7 12  1  0  0  0  0
  8  9  1  0  0  0  0
  8 11  1  0  0  0  0
  8 13  1  0  0  0  0
  9 10  2  0  0  0  0
  9 17  1  0  0  0  0
 11 14  1  0  0  0  0
 11 15  1  0  0  0  0
 11 16  1  0  0  0  0
 17 18  1  0  0  0  0
 17 22  1  0  0  0  0
 18 19  1  0  0  0  0
 18 21  1  0  0  0  0
 18 23  1  0  0  0  0
 19 20  2  0  0  0  0
 19 27  1  0  0  0  0
 21 24  1  0  0  0  0
 21 25  1  0  0  0  0
 21 26  1  0  0  0  0
 27 28  1  0  0  0  0
 27 32  1  0  0  0  0
 28 29  1  0  0  0  0
 28 31  1  0  0  0  0
 28 33  1  0  0  0  0
 29 30  2  0  0  0  0
 29 37  1  0  0  0  0
 31 34  1  0  0  0  0
 31 35  1  0  0  0  0
 31 36  1  0  0  0  0
 37 38  1  0  0  0  0
 37 39  1  0  0  0  0
 38 40  1  0  0  0  0
 38 41  1  0  0  0  0
 38 42  1  0  0  0  0
M  END
$$$$

  -OEChem-05262215353D

 42 41  0     1  0  0  0  0  0999 V2000
   -5.4452   -0.9542    1.8392 C   0  0  0  0  0  0  0  0  0  0  0  0
   -5.8748   -0.1854    0.9936 O   0  0  0  0  0  0  0  0  0  0  0  0
   -6.2794   -2.1401    2.2863 C   0  0  0  0  0  0  0  0  0  0  0  0
   -6.5161   -2.0505    3.3492 H   0  0  0  0  0  0  0  0  0  0  0  0
   -7.2133   -2.1800    1.7183 H   0  0  0  0  0  0  0  0  0  0  0  0
   -5.7267   -3.0680    2.1201 H   0  0  0  0  0  0  0  0  0  0  0  0
   -4.1910   -0.7611    2.3774 N   0  0  0  0  0  0  0  0  0  0  0  0
   -3.2111    0.2036    1.8626 C   0  0  2  0  0  0  0  0  0  0  0  0
   -1.7850   -0.3851    1.8814 C   0  0  0  0  0  0  0  0  0  0  0  0
   -1.5480   -1.3762    2.5615 O   0  0  0  0  0  0  0  0  0  0  0  0
   -3.2906    1.4697    2.7197 C   0  0  0  0  0  0  0  0  0  0  0  0
   -3.8242   -1.5048    2.9712 H   0  0  0  0  0  0  0  0  0  0  0  0
   -3.4452    0.4563    0.8228 H   0  0  0  0  0  0  0  0  0  0  0  0
   -3.0461    1.2420    3.7622 H   0  0  0  0  0  0  0  0  0  0  0  0
   -2.5907    2.2271    2.3545 H   0  0  0  0  0  0  0  0  0  0  0  0
   -4.3016    1.8878    2.6820 H   0  0  0  0  0  0  0  0  0  0  0  0
   -0.7627    0.2377    1.1848 N   0  0  0  0  0  0  0  0  0  0  0  0
    0.5301   -0.3774    0.8205 C   0  0  2  0  0  0  0  0  0  0  0  0
    0.5315   -1.9097    0.5752 C   0  0  0  0  0  0  0  0  0  0  0  0
    0.3593   -2.3165   -0.5673 O   0  0  0  0  0  0  0  0  0  0  0  0
    1.5362    0.0079    1.9128 C   0  0  0  0  0  0  0  0  0  0  0  0
   -1.0546    1.0355    0.6275 H   0  0  0  0  0  0  0  0  0  0  0  0
    0.8654    0.0720   -0.1199 H   0  0  0  0  0  0  0  0  0  0  0  0
    1.2252   -0.3885    2.8851 H   0  0  0  0  0  0  0  0  0  0  0  0
    2.5282   -0.3893    1.6745 H   0  0  0  0  0  0  0  0  0  0  0  0
    1.6111    1.0968    1.9927 H   0  0  0  0  0  0  0  0  0  0  0  0
    0.7645   -2.8226    1.5870 N   0  0  0  0  0  0  0  0  0  0  0  0
    0.6321   -4.2753    1.4250 C   0  0  2  0  0  0  0  0  0  0  0  0
    0.2611   -4.9665    2.7542 C   0  0  0  0  0  0  0  0  0  0  0  0
    0.4788   -4.4151    3.8272 O   0  0  0  0  0  0  0  0  0  0  0  0
    1.9543   -4.8336    0.8893 C   0  0  0  0  0  0  0  0  0  0  0  0
    0.6102   -2.4653    2.5322 H   0  0  0  0  0  0  0  0  0  0  0  0
   -0.1685   -4.4906    0.7096 H   0  0  0  0  0  0  0  0  0  0  0  0
    2.7671   -4.6291    1.5933 H   0  0  0  0  0  0  0  0  0  0  0  0
    1.8829   -5.9153    0.7423 H   0  0  0  0  0  0  0  0  0  0  0  0
    2.2010   -4.3720   -0.0718 H   0  0  0  0  0  0  0  0  0  0  0  0
   -0.3069   -6.2279    2.7495 N   0  0  0  0  0  0  0  0  0  0  0  0
   -0.6784   -6.9430    3.9646 C   0  0  0  0  0  0  0  0  0  0  0  0
   -0.4907   -6.6575    1.8478 H   0  0  0  0  0  0  0  0  0  0  0  0
    0.2013   -7.1098    4.5951 H   0  0  0  0  0  0  0  0  0  0  0  0
   -1.4173   -6.3708    4.5355 H   0  0  0  0  0  0  0  0  0  0  0  0
   -1.1129   -7.9155    3.7142 H   0  0  0  0  0  0  0  0  0  0  0  0
  1  2  2  0  0  0  0
  1  3  1  0  0  0  0
  1  7  1  0  0  0  0
  3  4  1  0  0  0  0
  3  5  1  0  0  0  0
  3  6  1  0  0  0  0
  7  8  1  0  0  0  0
  7 12  1  0  0  0  0
  8  9  1  0  0  0  0
  8 11  1  0  0  0  0
  8 13  1  0  0  0  0
  9 10  2  0  0  0  0
  9 17  1  0  0  0  0
 11 14  1  0  0  0  0
 11 15  1  0  0  0  0
 11 16  1  0  0  0  0
 17 18  1  0  0  0  0
 17 22  1  0  0  0  0
 18 19  1  0  0  0  0
 18 21  1  0  0  0  0
 18 23  1  0  0  0  0
 19 20  2  0  0  0  0
 19 27  1  0  0  0  0
 21 24  1  0  0  0  0
 21 25  1  0  0  0  0
 21 26  1  0  0  0  0
 27 28  1  0  0  0  0
 27 32  1  0  0  0  0
 28 29  1  0  0  0  0
 28 31  1  0  0  0  0
 28 33  1  0  0  0  0
 29 30  2  0  0  0  0
 29 37  1  0  0  0  0
 31 34  1  0  0  0  0
 31 35  1  0  0  0  0
 31 36  1  0  0  0  0
 37 38  1  0  0  0  0
 37 39  1  0  0  0  0
 38 40  1  0  0  0  0
 38 41  1  0  0  0  0
 38 42  1  0  0  0  0
M  END
$$$$

  -OEChem-05262215353D

 42 41  0     1  0  0  0  0  0999 V2000
   -5.3239   -0.9397    1.7332 C   0  0  0  0  0  0  0  0  0  0  0  0
   -5.5847   -0.3800    0.6800 O   0  0  0  0  0  0  0  0  0  0  0  0
   -6.1511   -2.1284    2.1850 C   0  0  0  0  0  0  0  0  0  0  0  0
   -6.6045   -1.9202    3.1570 H   0  0  0  0  0  0  0  0  0  0  0  0
   -6.9459   -2.3319    1.4619 H   0  0  0  0  0  0  0  0  0  0  0  0
   -5.5161   -3.0141    2.2688 H   0  0  0  0  0  0  0  0  0  0  0  0
   -4.2662   -0.5123    2.5084 N   0  0  0  0  0  0  0  0  0  0  0  0
   -3.2343    0.4235    2.0390 C   0  0  2  0  0  0  0  0  0  0  0  0
   -1.8552   -0.2628    1.9606 C   0  0  0  0  0  0  0  0  0  0  0  0
   -1.6152   -1.2107    2.6959 O   0  0  0  0  0  0  0  0  0  0  0  0
   -3.1946    1.6017    3.0141 C   0  0  0  0  0  0  0  0  0  0  0  0
   -3.9862   -1.1439    3.2577 H   0  0  0  0  0  0  0  0  0  0  0  0
   -3.4759    0.8018    1.0403 H   0  0  0  0  0  0  0  0  0  0  0  0
   -2.9395    1.2577    4.0218 H   0  0  0  0  0  0  0  0  0  0  0  0
   -2.4477    2.3361    2.6977 H   0  0  0  0  0  0  0  0  0  0  0  0
   -4.1713    2.0946    3.0506 H   0  0  0  0  0  0  0  0  0  0  0  0
   -0.8548    0.2554    1.1556 N   0  0  0  0  0  0  0  0  0  0  0  0
    0.3745   -0.4444    0.7220 C   0  0  2  0  0  0  0  0  0  0  0  0
    0.3262   -1.9866    0.5433 C   0  0  0  0  0  0  0  0  0  0  0  0
    0.4178   -2.4361   -0.5926 O   0  0  0  0  0  0  0  0  0  0  0  0
    1.4822   -0.0718    1.7148 C   0  0  0  0  0  0  0  0  0  0  0  0
   -1.1445    1.0429    0.5822 H   0  0  0  0  0  0  0  0  0  0  0  0
    0.6523   -0.0429   -0.2582 H   0  0  0  0  0  0  0  0  0  0  0  0
    1.2371   -0.4284    2.7206 H   0  0  0  0  0  0  0  0  0  0  0  0
    2.4329   -0.5205    1.4089 H   0  0  0  0  0  0  0  0  0  0  0  0
    1.6104    1.0141    1.7539 H   0  0  0  0  0  0  0  0  0  0  0  0
    0.3148   -2.8694    1.6074 N   0  0  0  0  0  0  0  0  0  0  0  0
    0.2488   -4.3295    1.4597 C   0  0  2  0  0  0  0  0  0  0  0  0
   -0.5389   -5.0085    2.5999 C   0  0  0  0  0  0  0  0  0  0  0  0
   -0.6670   -4.4650    3.6901 O   0  0  0  0  0  0  0  0  0  0  0  0
    1.6820   -4.8683    1.4151 C   0  0  0  0  0  0  0  0  0  0  0  0
   -0.0642   -2.4802    2.4782 H   0  0  0  0  0  0  0  0  0  0  0  0
   -0.2615   -4.5810    0.5242 H   0  0  0  0  0  0  0  0  0  0  0  0
    2.2067   -4.6300    2.3462 H   0  0  0  0  0  0  0  0  0  0  0  0
    1.6814   -5.9545    1.2831 H   0  0  0  0  0  0  0  0  0  0  0  0
    2.2307   -4.4198    0.5806 H   0  0  0  0  0  0  0  0  0  0  0  0
   -1.0888   -6.2631    2.4074 N   0  0  0  0  0  0  0  0  0  0  0  0
   -1.8225   -6.9845    3.4402 C   0  0  0  0  0  0  0  0  0  0  0  0
   -0.9702   -6.6924    1.4947 H   0  0  0  0  0  0  0  0  0  0  0  0
   -1.1823   -7.1646    4.3102 H   0  0  0  0  0  0  0  0  0  0  0  0
   -2.6986   -6.4113    3.7609 H   0  0  0  0  0  0  0  0  0  0  0  0
   -2.1635   -7.9509    3.0567 H   0  0  0  0  0  0  0  0  0  0  0  0
  1  2  2  0  0  0  0
  1  3  1  0  0  0  0
  1  7  1  0  0  0  0
  3  4  1  0  0  0  0
  3  5  1  0  0  0  0
  3  6  1  0  0  0  0
  7  8  1  0  0  0  0
  7 12  1  0  0  0  0
  8  9  1  0  0  0  0
  8 11  1  0  0  0  0
  8 13  1  0  0  0  0
  9 10  2  0  0  0  0
  9 17  1  0  0  0  0
 11 14  1  0  0  0  0
 11 15  1  0  0  0  0
 11 16  1  0  0  0  0
 17 18  1  0  0  0  0
 17 22  1  0  0  0  0
 18 19  1  0  0  0  0
 18 21  1  0  0  0  0
 18 23  1  0  0  0  0
 19 20  2  0  0  0  0
 19 27  1  0  0  0  0
 21 24  1  0  0  0  0
 21 25  1  0  0  0  0
 21 26  1  0  0  0  0
 27 28  1  0  0  0  0
 27 32  1  0  0  0  0
 28 29  1  0  0  0  0
 28 31  1  0  0  0  0
 28 33  1  0  0  0  0
 29 30  2  0  0  0  0
 29 37  1  0  0  0  0
 31 34  1  0  0  0  0
 31 35  1  0  0  0  0
 31 36  1  0  0  0  0
 37 38  1  0  0  0  0
 37 39  1  0  0  0  0
 38 40  1  0  0  0  0
 38 41  1  0  0  0  0
 38 42  1  0  0  0  0
M  END
$$$$

  -OEChem-05262215353D

 42 41  0     1  0  0  0  0  0999 V2000
   -4.1994   -1.0584    1.2980 C   0  0  0  0  0  0  0  0  0  0  0  0
   -4.1892   -0.0248    0.6416 O   0  0  0  0  0  0  0  0  0  0  0  0
   -4.7309   -2.3441    0.6965 C   0  0  0  0  0  0  0  0  0  0  0  0
   -5.2938   -2.1307   -0.2162 H   0  0  0  0  0  0  0  0  0  0  0  0
   -3.8980   -3.0091    0.4522 H   0  0  0  0  0  0  0  0  0  0  0  0
   -5.3899   -2.8450    1.4097 H   0  0  0  0  0  0  0  0  0  0  0  0
   -3.6009   -1.0779    2.5392 N   0  0  0  0  0  0  0  0  0  0  0  0
   -2.7870    0.0300    3.0554 C   0  0  2  0  0  0  0  0  0  0  0  0
   -1.4027    0.0394    2.3691 C   0  0  0  0  0  0  0  0  0  0  0  0
   -0.3747   -0.2416    2.9772 O   0  0  0  0  0  0  0  0  0  0  0  0
   -2.7032   -0.1399    4.5764 C   0  0  0  0  0  0  0  0  0  0  0  0
   -3.3848   -2.0138    2.9009 H   0  0  0  0  0  0  0  0  0  0  0  0
   -3.2746    0.9881    2.8470 H   0  0  0  0  0  0  0  0  0  0  0  0
   -2.2319   -1.0950    4.8314 H   0  0  0  0  0  0  0  0  0  0  0  0
   -2.1116    0.6682    5.0176 H   0  0  0  0  0  0  0  0  0  0  0  0
   -3.7047   -0.1175    5.0168 H   0  0  0  0  0  0  0  0  0  0  0  0
   -1.3294    0.2596    1.0051 N   0  0  0  0  0  0  0  0  0  0  0  0
   -0.5976   -0.6265    0.0754 C   0  0  2  0  0  0  0  0  0  0  0  0
   -0.5101   -2.1307    0.4473 C   0  0  0  0  0  0  0  0  0  0  0  0
   -1.0082   -2.9560   -0.3098 O   0  0  0  0  0  0  0  0  0  0  0  0
    0.8107   -0.0511   -0.1072 C   0  0  0  0  0  0  0  0  0  0  0  0
   -2.2498    0.5316    0.6452 H   0  0  0  0  0  0  0  0  0  0  0  0
   -1.1084   -0.5808   -0.8922 H   0  0  0  0  0  0  0  0  0  0  0  0
    1.3631   -0.0679    0.8378 H   0  0  0  0  0  0  0  0  0  0  0  0
    1.3678   -0.6351   -0.8466 H   0  0  0  0  0  0  0  0  0  0  0  0
    0.7535    0.9847   -0.4561 H   0  0  0  0  0  0  0  0  0  0  0  0
    0.0742   -2.5909    1.6108 N   0  0  0  0  0  0  0  0  0  0  0  0
   -0.0981   -3.9690    2.0849 C   0  0  2  0  0  0  0  0  0  0  0  0
   -1.5655   -4.3328    2.4197 C   0  0  0  0  0  0  0  0  0  0  0  0
   -2.2943   -3.5586    3.0352 O   0  0  0  0  0  0  0  0  0  0  0  0
    0.7811   -4.1408    3.3249 C   0  0  0  0  0  0  0  0  0  0  0  0
    0.2443   -1.8620    2.3109 H   0  0  0  0  0  0  0  0  0  0  0  0
    0.2554   -4.6546    1.3080 H   0  0  0  0  0  0  0  0  0  0  0  0
    0.4612   -3.4569    4.1183 H   0  0  0  0  0  0  0  0  0  0  0  0
    0.7141   -5.1661    3.7015 H   0  0  0  0  0  0  0  0  0  0  0  0
    1.8270   -3.9281    3.0821 H   0  0  0  0  0  0  0  0  0  0  0  0
   -2.0699   -5.5668    2.0531 N   0  0  0  0  0  0  0  0  0  0  0  0
   -3.4524   -5.9684    2.2823 C   0  0  0  0  0  0  0  0  0  0  0  0
   -1.4970   -6.1284    1.4293 H   0  0  0  0  0  0  0  0  0  0  0  0
   -3.6992   -5.9066    3.3476 H   0  0  0  0  0  0  0  0  0  0  0  0
   -4.1368   -5.3227    1.7228 H   0  0  0  0  0  0  0  0  0  0  0  0
   -3.6045   -7.0012    1.9546 H   0  0  0  0  0  0  0  0  0  0  0  0
  1  2  2  0  0  0  0
  1  3  1  0  0  0  0
  1  7  1  0  0  0  0
  3  4  1  0  0  0  0
  3  5  1  0  0  0  0
  3  6  1  0  0  0  0
  7  8  1  0  0  0  0
  7 12  1  0  0  0  0
  8  9  1  0  0  0  0
  8 11  1  0  0  0  0
  8 13  1  0  0  0  0
  9 10  2  0  0  0  0
  9 17  1  0  0  0  0
 11 14  1  0  0  0  0
 11 15  1  0  0  0  0
 11 16  1  0  0  0  0
 17 18  1  0  0  0  0
 17 22  1  0  0  0  0
 18 19  1  0  0  0  0
 18 21  1  0  0  0  0
 18 23  1  0  0  0  0
 19 20  2  0  0  0  0
 19 27  1  0  0  0  0
 21 24  1  0  0  0  0
 21 25  1  0  0  0  0
 21 26  1  0  0  0  0
 27 28  1  0  0  0  0
 27 32  1  0  0  0  0
 28 29  1  0  0  0  0
 28 31  1  0  0  0  0
 28 33  1  0  0  0  0
 29 30  2  0  0  0  0
 29 37  1  0  0  0  0
 31 34  1  0  0  0  0
 31 35  1  0  0  0  0
 31 36  1  0  0  0  0
 37 38  1  0  0  0  0
 37 39  1  0  0  0  0
 38 40  1  0  0  0  0
 38 41  1  0  0  0  0
 38 42  1  0  0  0  0
M  END
$$$$

  -OEChem-05262215353D

 42 41  0     1  0  0  0  0  0999 V2000
   -4.3130   -0.8497    1.2431 C   0  0  0  0  0  0  0  0  0  0  0  0
   -4.2184    0.2123    0.6420 O   0  0  0  0  0  0  0  0  0  0  0  0
   -4.9378   -2.0550    0.5691 C   0  0  0  0  0  0  0  0  0  0  0  0
   -5.5095   -2.6371    1.2961 H   0  0  0  0  0  0  0  0  0  0  0  0
   -5.6084   -1.7344   -0.2326 H   0  0  0  0  0  0  0  0  0  0  0  0
   -4.1527   -2.6869    0.1459 H   0  0  0  0  0  0  0  0  0  0  0  0
   -3.7113   -0.9836    2.4757 N   0  0  0  0  0  0  0  0  0  0  0  0
   -2.8387    0.0420    3.0653 C   0  0  2  0  0  0  0  0  0  0  0  0
   -1.4437    0.0144    2.3995 C   0  0  0  0  0  0  0  0  0  0  0  0
   -0.4364   -0.3012    3.0237 O   0  0  0  0  0  0  0  0  0  0  0  0
   -2.7901   -0.2173    4.5754 C   0  0  0  0  0  0  0  0  0  0  0  0
   -3.5753   -1.9515    2.7893 H   0  0  0  0  0  0  0  0  0  0  0  0
   -3.2666    1.0378    2.9071 H   0  0  0  0  0  0  0  0  0  0  0  0
   -2.3800   -1.2114    4.7830 H   0  0  0  0  0  0  0  0  0  0  0  0
   -2.1596    0.5288    5.0691 H   0  0  0  0  0  0  0  0  0  0  0  0
   -3.7957   -0.1589    5.0028 H   0  0  0  0  0  0  0  0  0  0  0  0
   -1.3474    0.2325    1.0369 N   0  0  0  0  0  0  0  0  0  0  0  0
   -0.6104   -0.6351    0.0905 C   0  0  2  0  0  0  0  0  0  0  0  0
   -0.5002   -2.1533    0.4025 C   0  0  0  0  0  0  0  0  0  0  0  0
   -0.8099   -2.9544   -0.4718 O   0  0  0  0  0  0  0  0  0  0  0  0
    0.7982   -0.0542   -0.0624 C   0  0  0  0  0  0  0  0  0  0  0  0
   -2.2500    0.5477    0.6665 H   0  0  0  0  0  0  0  0  0  0  0  0
   -1.1156   -0.5600   -0.8784 H   0  0  0  0  0  0  0  0  0  0  0  0
    1.3488   -0.1214    0.8814 H   0  0  0  0  0  0  0  0  0  0  0  0
    1.3537   -0.6030   -0.8295 H   0  0  0  0  0  0  0  0  0  0  0  0
    0.7458    0.9977   -0.3594 H   0  0  0  0  0  0  0  0  0  0  0  0
   -0.1875   -2.6628    1.6472 N   0  0  0  0  0  0  0  0  0  0  0  0
   -0.4561   -4.0509    2.0350 C   0  0  2  0  0  0  0  0  0  0  0  0
   -1.9677   -4.3745    2.0910 C   0  0  0  0  0  0  0  0  0  0  0  0
   -2.7470   -3.6625    2.7207 O   0  0  0  0  0  0  0  0  0  0  0  0
    0.1912   -4.2839    3.4021 C   0  0  0  0  0  0  0  0  0  0  0  0
   -0.0780   -1.9647    2.3883 H   0  0  0  0  0  0  0  0  0  0  0  0
    0.0142   -4.7218    1.3087 H   0  0  0  0  0  0  0  0  0  0  0  0
   -0.2482   -3.6193    4.1535 H   0  0  0  0  0  0  0  0  0  0  0  0
    0.0412   -5.3190    3.7236 H   0  0  0  0  0  0  0  0  0  0  0  0
    1.2669   -4.0890    3.3521 H   0  0  0  0  0  0  0  0  0  0  0  0
   -2.4575   -5.4928    1.4426 N   0  0  0  0  0  0  0  0  0  0  0  0
   -3.8744   -5.8302    1.3827 C   0  0  0  0  0  0  0  0  0  0  0  0
   -1.8222   -5.9562    0.7981 H   0  0  0  0  0  0  0  0  0  0  0  0
   -4.3056   -5.8644    2.3888 H   0  0  0  0  0  0  0  0  0  0  0  0
   -4.4201   -5.0901    0.7896 H   0  0  0  0  0  0  0  0  0  0  0  0
   -4.0094   -6.8125    0.9197 H   0  0  0  0  0  0  0  0  0  0  0  0
  1  2  2  0  0  0  0
  1  3  1  0  0  0  0
  1  7  1  0  0  0  0
  3  4  1  0  0  0  0
  3  5  1  0  0  0  0
  3  6  1  0  0  0  0
  7  8  1  0  0  0  0
  7 12  1  0  0  0  0
  8  9  1  0  0  0  0
  8 11  1  0  0  0  0
  8 13  1  0  0  0  0
  9 10  2  0  0  0  0
  9 17  1  0  0  0  0
 11 14  1  0  0  0  0
 11 15  1  0  0  0  0
 11 16  1  0  0  0  0
 17 18  1  0  0  0  0
 17 22  1  0  0  0  0
 18 19  1  0  0  0  0
 18 21  1  0  0  0  0
 18 23  1  0  0  0  0
 19 20  2  0  0  0  0
 19 27  1  0  0  0  0
 21 24  1  0  0  0  0
 21 25  1  0  0  0  0
 21 26  1  0  0  0  0
 27 28  1  0  0  0  0
 27 32  1  0  0  0  0
 28 29  1  0  0  0  0
 28 31  1  0  0  0  0
 28 33  1  0  0  0  0
 29 30  2  0  0  0  0
 29 37  1  0  0  0  0
 31 34  1  0  0  0  0
 31 35  1  0  0  0  0
 31 36  1  0  0  0  0
 37 38  1  0  0  0  0
 37 39  1  0  0  0  0
 38 40  1  0  0  0  0
 38 41  1  0  0  0  0
 38 42  1  0  0  0  0
M  END
$$$$

  -OEChem-05262215353D

 42 41  0     1  0  0  0  0  0999 V2000
   -4.4309   -0.6966    1.2427 C   0  0  0  0  0  0  0  0  0  0  0  0
   -4.2851    0.4232    0.7718 O   0  0  0  0  0  0  0  0  0  0  0  0
   -5.1466   -1.7696    0.4474 C   0  0  0  0  0  0  0  0  0  0  0  0
   -5.7038   -2.4272    1.1195 H   0  0  0  0  0  0  0  0  0  0  0  0
   -5.8457   -1.3133   -0.2582 H   0  0  0  0  0  0  0  0  0  0  0  0
   -4.4156   -2.3637   -0.1062 H   0  0  0  0  0  0  0  0  0  0  0  0
   -3.8149   -1.0109    2.4348 N   0  0  0  0  0  0  0  0  0  0  0  0
   -2.9222   -0.0915    3.1583 C   0  0  2  0  0  0  0  0  0  0  0  0
   -1.5200   -0.0519    2.5062 C   0  0  0  0  0  0  0  0  0  0  0  0
   -0.5193   -0.4147    3.1142 O   0  0  0  0  0  0  0  0  0  0  0  0
   -2.8917   -0.5494    4.6215 C   0  0  0  0  0  0  0  0  0  0  0  0
   -3.7340   -2.0145    2.6335 H   0  0  0  0  0  0  0  0  0  0  0  0
   -3.3296    0.9249    3.1316 H   0  0  0  0  0  0  0  0  0  0  0  0
   -2.4981   -1.5682    4.6983 H   0  0  0  0  0  0  0  0  0  0  0  0
   -2.2552    0.1144    5.2150 H   0  0  0  0  0  0  0  0  0  0  0  0
   -3.8999   -0.5322    5.0463 H   0  0  0  0  0  0  0  0  0  0  0  0
   -1.4158    0.2536    1.1612 N   0  0  0  0  0  0  0  0  0  0  0  0
   -0.6425   -0.5127    0.1554 C   0  0  2  0  0  0  0  0  0  0  0  0
   -0.4627   -2.0468    0.3367 C   0  0  0  0  0  0  0  0  0  0  0  0
   -0.5527   -2.7639   -0.6531 O   0  0  0  0  0  0  0  0  0  0  0  0
    0.7424    0.1341    0.0603 C   0  0  0  0  0  0  0  0  0  0  0  0
   -2.3124    0.6002    0.8045 H   0  0  0  0  0  0  0  0  0  0  0  0
   -1.1475   -0.3808   -0.8075 H   0  0  0  0  0  0  0  0  0  0  0  0
    1.2897    0.0137    1.0008 H   0  0  0  0  0  0  0  0  0  0  0  0
    1.3241   -0.3298   -0.7426 H   0  0  0  0  0  0  0  0  0  0  0  0
    0.6499    1.2031   -0.1539 H   0  0  0  0  0  0  0  0  0  0  0  0
   -0.4210   -2.6775    1.5638 N   0  0  0  0  0  0  0  0  0  0  0  0
   -0.7407   -4.0913    1.7682 C   0  0  2  0  0  0  0  0  0  0  0  0
   -2.2447   -4.3801    1.5601 C   0  0  0  0  0  0  0  0  0  0  0  0
   -3.0989   -3.7910    2.2201 O   0  0  0  0  0  0  0  0  0  0  0  0
   -0.3082   -4.4644    3.1882 C   0  0  0  0  0  0  0  0  0  0  0  0
   -0.3941   -2.0604    2.3790 H   0  0  0  0  0  0  0  0  0  0  0  0
   -0.1662   -4.6992    1.0616 H   0  0  0  0  0  0  0  0  0  0  0  0
   -0.8530   -3.8665    3.9266 H   0  0  0  0  0  0  0  0  0  0  0  0
   -0.5089   -5.5227    3.3815 H   0  0  0  0  0  0  0  0  0  0  0  0
    0.7636   -4.2850    3.3185 H   0  0  0  0  0  0  0  0  0  0  0  0
   -2.6390   -5.3185    0.6255 N   0  0  0  0  0  0  0  0  0  0  0  0
   -4.0318   -5.6120    0.3119 C   0  0  0  0  0  0  0  0  0  0  0  0
   -1.9213   -5.6352   -0.0220 H   0  0  0  0  0  0  0  0  0  0  0  0
   -4.6078   -5.7823    1.2277 H   0  0  0  0  0  0  0  0  0  0  0  0
   -4.4833   -4.7829   -0.2415 H   0  0  0  0  0  0  0  0  0  0  0  0
   -4.0958   -6.5152   -0.3027 H   0  0  0  0  0  0  0  0  0  0  0  0
  1  2  2  0  0  0  0
  1  3  1  0  0  0  0
  1  7  1  0  0  0  0
  3  4  1  0  0  0  0
  3  5  1  0  0  0  0
  3  6  1  0  0  0  0
  7  8  1  0  0  0  0
  7 12  1  0  0  0  0
  8  9  1  0  0  0  0
  8 11  1  0  0  0  0
  8 13  1  0  0  0  0
  9 10  2  0  0  0  0
  9 17  1  0  0  0  0
 11 14  1  0  0  0  0
 11 15  1  0  0  0  0
 11 16  1  0  0  0  0
 17 18  1  0  0  0  0
 17 22  1  0  0  0  0
 18 19  1  0  0  0  0
 18 21  1  0  0  0  0
 18 23  1  0  0  0  0
 19 20  2  0  0  0  0
 19 27  1  0  0  0  0
 21 24  1  0  0  0  0
 21 25  1  0  0  0  0
 21 26  1  0  0  0  0
 27 28  1  0  0  0  0
 27 32  1  0  0  0  0
 28 29  1  0  0  0  0
 28 31  1  0  0  0  0
 28 33  1  0  0  0  0
 29 30  2  0  0  0  0
 29 37  1  0  0  0  0
 31 34  1  0  0  0  0
 31 35  1  0  0  0  0
 31 36  1  0  0  0  0
 37 38  1  0  0  0  0
 37 39  1  0  0  0  0
 38 40  1  0  0  0  0
 38 41  1  0  0  0  0
 38 42  1  0  0  0  0
M  END
$$$$

  -OEChem-05262215353D

 42 41  0     1  0  0  0  0  0999 V2000
   -4.4002   -0.4277    1.0919 C   0  0  0  0  0  0  0  0  0  0  0  0
   -4.1317    0.7221    0.7713 O   0  0  0  0  0  0  0  0  0  0  0  0
   -5.1649   -1.3268    0.1399 C   0  0  0  0  0  0  0  0  0  0  0  0
   -5.9089   -1.9077    0.6906 H   0  0  0  0  0  0  0  0  0  0  0  0
   -5.6761   -0.7271   -0.6180 H   0  0  0  0  0  0  0  0  0  0  0  0
   -4.4747   -2.0135   -0.3562 H   0  0  0  0  0  0  0  0  0  0  0  0
   -3.8947   -0.9339    2.2699 N   0  0  0  0  0  0  0  0  0  0  0  0
   -2.9861   -0.1887    3.1563 C   0  0  2  0  0  0  0  0  0  0  0  0
   -1.5416   -0.1930    2.6032 C   0  0  0  0  0  0  0  0  0  0  0  0
   -0.6300   -0.7537    3.1997 O   0  0  0  0  0  0  0  0  0  0  0  0
   -3.0977   -0.8199    4.5493 C   0  0  0  0  0  0  0  0  0  0  0  0
   -3.8990   -1.9576    2.3391 H   0  0  0  0  0  0  0  0  0  0  0  0
   -3.3094    0.8550    3.2319 H   0  0  0  0  0  0  0  0  0  0  0  0
   -2.7909   -1.8708    4.5220 H   0  0  0  0  0  0  0  0  0  0  0  0
   -2.4560   -0.2889    5.2596 H   0  0  0  0  0  0  0  0  0  0  0  0
   -4.1298   -0.7675    4.9092 H   0  0  0  0  0  0  0  0  0  0  0  0
   -1.3209    0.2892    1.3264 N   0  0  0  0  0  0  0  0  0  0  0  0
   -0.4792   -0.3363    0.2792 C   0  0  2  0  0  0  0  0  0  0  0  0
   -0.3160   -1.8830    0.2318 C   0  0  0  0  0  0  0  0  0  0  0  0
   -0.1100   -2.4038   -0.8574 O   0  0  0  0  0  0  0  0  0  0  0  0
    0.9110    0.2961    0.3979 C   0  0  0  0  0  0  0  0  0  0  0  0
   -2.1640    0.7436    0.9607 H   0  0  0  0  0  0  0  0  0  0  0  0
   -0.9045   -0.0517   -0.6887 H   0  0  0  0  0  0  0  0  0  0  0  0
    1.3770    0.0224    1.3501 H   0  0  0  0  0  0  0  0  0  0  0  0
    1.5572   -0.0470   -0.4165 H   0  0  0  0  0  0  0  0  0  0  0  0
    0.8404    1.3868    0.3456 H   0  0  0  0  0  0  0  0  0  0  0  0
   -0.6563   -2.7209    1.2747 N   0  0  0  0  0  0  0  0  0  0  0  0
   -1.0213   -4.1341    1.1488 C   0  0  2  0  0  0  0  0  0  0  0  0
   -2.5454   -4.3187    0.9848 C   0  0  0  0  0  0  0  0  0  0  0  0
   -3.3357   -3.6830    1.6799 O   0  0  0  0  0  0  0  0  0  0  0  0
   -0.5264   -4.8508    2.4061 C   0  0  0  0  0  0  0  0  0  0  0  0
   -0.7898   -2.2654    2.1796 H   0  0  0  0  0  0  0  0  0  0  0  0
   -0.5207   -4.5770    0.2817 H   0  0  0  0  0  0  0  0  0  0  0  0
   -1.0030   -4.4335    3.2993 H   0  0  0  0  0  0  0  0  0  0  0  0
   -0.7601   -5.9185    2.3538 H   0  0  0  0  0  0  0  0  0  0  0  0
    0.5577   -4.7370    2.5050 H   0  0  0  0  0  0  0  0  0  0  0  0
   -3.0423   -5.2263    0.0686 N   0  0  0  0  0  0  0  0  0  0  0  0
   -4.4659   -5.4495   -0.1537 C   0  0  0  0  0  0  0  0  0  0  0  0
   -2.3721   -5.6749   -0.5507 H   0  0  0  0  0  0  0  0  0  0  0  0
   -4.9537   -5.7681    0.7738 H   0  0  0  0  0  0  0  0  0  0  0  0
   -4.9486   -4.5335   -0.5095 H   0  0  0  0  0  0  0  0  0  0  0  0
   -4.6121   -6.2314   -0.9054 H   0  0  0  0  0  0  0  0  0  0  0  0
  1  2  2  0  0  0  0
  1  3  1  0  0  0  0
  1  7  1  0  0  0  0
  3  4  1  0  0  0  0
  3  5  1  0  0  0  0
  3  6  1  0  0  0  0
  7  8  1  0  0  0  0
  7 12  1  0  0  0  0
  8  9  1  0  0  0  0
  8 11  1  0  0  0  0
  8 13  1  0  0  0  0
  9 10  2  0  0  0  0
  9 17  1  0  0  0  0
 11 14  1  0  0  0  0
 11 15  1  0  0  0  0
 11 16  1  0  0  0  0
 17 18  1  0  0  0  0
 17 22  1  0  0  0  0
 18 19  1  0  0  0  0
 18 21  1  0  0  0  0
 18 23  1  0  0  0  0
 19 20  2  0  0  0  0
 19 27  1  0  0  0  0
 21 24  1  0  0  0  0
 21 25  1  0  0  0  0
 21 26  1  0  0  0  0
 27 28  1  0  0  0  0
 27 32  1  0  0  0  0
 28 29  1  0  0  0  0
 28 31  1  0  0  0  0
 28 33  1  0  0  0  0
 29 30  2  0  0  0  0
 29 37  1  0  0  0  0
 31 34  1  0  0  0  0
 31 35  1  0  0  0  0
 31 36  1  0  0  0  0
 37 38  1  0  0  0  0
 37 39  1  0  0  0  0
 38 40  1  0  0  0  0
 38 41  1  0  0  0  0
 38 42  1  0  0  0  0
M  END
$$$$

  -OEChem-05262215353D

 42 41  0     1  0  0  0  0  0999 V2000
   -4.3076   -0.1703    0.7557 C   0  0  0  0  0  0  0  0  0  0  0  0
   -3.9420    0.9825    0.5685 O   0  0  0  0  0  0  0  0  0  0  0  0
   -5.0254   -0.9347   -0.3397 C   0  0  0  0  0  0  0  0  0  0  0  0
   -5.8882   -1.4602    0.0770 H   0  0  0  0  0  0  0  0  0  0  0  0
   -5.3717   -0.2476   -1.1164 H   0  0  0  0  0  0  0  0  0  0  0  0
   -4.3481   -1.6656   -0.7887 H   0  0  0  0  0  0  0  0  0  0  0  0
   -3.9626   -0.8050    1.9294 N   0  0  0  0  0  0  0  0  0  0  0  0
   -3.1089   -0.1990    2.9639 C   0  0  2  0  0  0  0  0  0  0  0  0
   -1.6194   -0.2583    2.5531 C   0  0  0  0  0  0  0  0  0  0  0  0
   -0.8342   -1.0052    3.1232 O   0  0  0  0  0  0  0  0  0  0  0  0
   -3.4019   -0.9339    4.2776 C   0  0  0  0  0  0  0  0  0  0  0  0
   -4.0478   -1.8275    1.9133 H   0  0  0  0  0  0  0  0  0  0  0  0
   -3.3744    0.8548    3.1014 H   0  0  0  0  0  0  0  0  0  0  0  0
   -3.1708   -2.0002    4.1828 H   0  0  0  0  0  0  0  0  0  0  0  0
   -2.7966   -0.5184    5.0897 H   0  0  0  0  0  0  0  0  0  0  0  0
   -4.4582   -0.8289    4.5443 H   0  0  0  0  0  0  0  0  0  0  0  0
   -1.2316    0.3673    1.3825 N   0  0  0  0  0  0  0  0  0  0  0  0
   -0.2970   -0.1725    0.3667 C   0  0  2  0  0  0  0  0  0  0  0  0
   -0.1969   -1.7106    0.1462 C   0  0  0  0  0  0  0  0  0  0  0  0
    0.3743   -2.1203   -0.8567 O   0  0  0  0  0  0  0  0  0  0  0  0
    1.0903    0.3747    0.7210 C   0  0  0  0  0  0  0  0  0  0  0  0
   -1.9989    0.9227    0.9906 H   0  0  0  0  0  0  0  0  0  0  0  0
   -0.5950    0.2436   -0.6007 H   0  0  0  0  0  0  0  0  0  0  0  0
    1.4339   -0.0414    1.6736 H   0  0  0  0  0  0  0  0  0  0  0  0
    1.8158    0.1111   -0.0552 H   0  0  0  0  0  0  0  0  0  0  0  0
    1.0603    1.4651    0.8077 H   0  0  0  0  0  0  0  0  0  0  0  0
   -0.9496   -2.6166    0.8668 N   0  0  0  0  0  0  0  0  0  0  0  0
   -1.2528   -4.0031    0.5001 C   0  0  2  0  0  0  0  0  0  0  0  0
   -2.7682   -4.2999    0.5728 C   0  0  0  0  0  0  0  0  0  0  0  0
   -3.5347   -3.5613    1.1895 O   0  0  0  0  0  0  0  0  0  0  0  0
   -0.4739   -4.9139    1.4515 C   0  0  0  0  0  0  0  0  0  0  0  0
   -1.2773   -2.2835    1.7743 H   0  0  0  0  0  0  0  0  0  0  0  0
   -0.9288   -4.2015   -0.5266 H   0  0  0  0  0  0  0  0  0  0  0  0
   -0.7791   -4.7368    2.4881 H   0  0  0  0  0  0  0  0  0  0  0  0
   -0.6517   -5.9659    1.2096 H   0  0  0  0  0  0  0  0  0  0  0  0
    0.5996   -4.7165    1.3669 H   0  0  0  0  0  0  0  0  0  0  0  0
   -3.2876   -5.4062   -0.0734 N   0  0  0  0  0  0  0  0  0  0  0  0
   -4.7066   -5.7416   -0.0862 C   0  0  0  0  0  0  0  0  0  0  0  0
   -2.6398   -5.9899   -0.5958 H   0  0  0  0  0  0  0  0  0  0  0  0
   -5.0837   -5.8590    0.9352 H   0  0  0  0  0  0  0  0  0  0  0  0
   -5.2819   -4.9557   -0.5866 H   0  0  0  0  0  0  0  0  0  0  0  0
   -4.8670   -6.6819   -0.6225 H   0  0  0  0  0  0  0  0  0  0  0  0
  1  2  2  0  0  0  0
  1  3  1  0  0  0  0
  1  7  1  0  0  0  0
  3  4  1  0  0  0  0
  3  5  1  0  0  0  0
  3  6  1  0  0  0  0
  7  8  1  0  0  0  0
  7 12  1  0  0  0  0
  8  9  1  0  0  0  0
  8 11  1  0  0  0  0
  8 13  1  0  0  0  0
  9 10  2  0  0  0  0
  9 17  1  0  0  0  0
 11 14  1  0  0  0  0
 11 15  1  0  0  0  0
 11 16  1  0  0  0  0
 17 18  1  0  0  0  0
 17 22  1  0  0  0  0
 18 19  1  0  0  0  0
 18 21  1  0  0  0  0
 18 23  1  0  0  0  0
 19 20  2  0  0  0  0
 19 27  1  0  0  0  0
 21 24  1  0  0  0  0
 21 25  1  0  0  0  0
 21 26  1  0  0  0  0
 27 28  1  0  0  0  0
 27 32  1  0  0  0  0
 28 29  1  0  0  0  0
 28 31  1  0  0  0  0
 28 33  1  0  0  0  0
 29 30  2  0  0  0  0
 29 37  1  0  0  0  0
 31 34  1  0  0  0  0
 31 35  1  0  0  0  0
 31 36  1  0  0  0  0
 37 38  1  0  0  0  0
 37 39  1  0  0  0  0
 38 40  1  0  0  0  0
 38 41  1  0  0  0  0
 38 42  1  0  0  0  0
M  END
$$$$

  -OEChem-05262215353D

 42 41  0     1  0  0  0  0  0999 V2000
   -4.1935   -0.0298    0.6117 C   0  0  0  0  0  0  0  0  0  0  0  0
   -3.7579    1.1134    0.5890 O   0  0  0  0  0  0  0  0  0  0  0  0
   -4.9011   -0.6053   -0.5999 C   0  0  0  0  0  0  0  0  0  0  0  0
   -5.1584    0.1916   -1.3031 H   0  0  0  0  0  0  0  0  0  0  0  0
   -4.2512   -1.3258   -1.1026 H   0  0  0  0  0  0  0  0  0  0  0  0
   -5.8186   -1.1117   -0.2903 H   0  0  0  0  0  0  0  0  0  0  0  0
   -3.9433   -0.8229    1.7113 N   0  0  0  0  0  0  0  0  0  0  0  0
   -3.1310   -0.3923    2.8609 C   0  0  2  0  0  0  0  0  0  0  0  0
   -1.6233   -0.4572    2.5253 C   0  0  0  0  0  0  0  0  0  0  0  0
   -0.9259   -1.3684    2.9497 O   0  0  0  0  0  0  0  0  0  0  0  0
   -3.5204   -1.2790    4.0496 C   0  0  0  0  0  0  0  0  0  0  0  0
   -4.1165   -1.8262    1.5848 H   0  0  0  0  0  0  0  0  0  0  0  0
   -3.3695    0.6442    3.1228 H   0  0  0  0  0  0  0  0  0  0  0  0
   -3.3242   -2.3333    3.8275 H   0  0  0  0  0  0  0  0  0  0  0  0
   -2.9436   -0.9988    4.9366 H   0  0  0  0  0  0  0  0  0  0  0  0
   -4.5845   -1.1635    4.2770 H   0  0  0  0  0  0  0  0  0  0  0  0
   -1.1280    0.3603    1.5242 N   0  0  0  0  0  0  0  0  0  0  0  0
   -0.1540   -0.0497    0.4836 C   0  0  2  0  0  0  0  0  0  0  0  0
   -0.1527   -1.5316    0.0075 C   0  0  0  0  0  0  0  0  0  0  0  0
    0.6675   -1.9109   -0.8195 O   0  0  0  0  0  0  0  0  0  0  0  0
    1.2336    0.3303    1.0153 C   0  0  0  0  0  0  0  0  0  0  0  0
   -1.8431    1.0156    1.1932 H   0  0  0  0  0  0  0  0  0  0  0  0
   -0.3566    0.5471   -0.4110 H   0  0  0  0  0  0  0  0  0  0  0  0
    1.4913   -0.2840    1.8841 H   0  0  0  0  0  0  0  0  0  0  0  0
    1.9959    0.1779    0.2448 H   0  0  0  0  0  0  0  0  0  0  0  0
    1.2528    1.3825    1.3143 H   0  0  0  0  0  0  0  0  0  0  0  0
   -1.2121   -2.3682    0.2982 N   0  0  0  0  0  0  0  0  0  0  0  0
   -1.3932   -3.7452   -0.1640 C   0  0  2  0  0  0  0  0  0  0  0  0
   -2.8605   -4.1985    0.0197 C   0  0  0  0  0  0  0  0  0  0  0  0
   -3.6566   -3.5166    0.6655 O   0  0  0  0  0  0  0  0  0  0  0  0
   -0.4486   -4.6565    0.6284 C   0  0  0  0  0  0  0  0  0  0  0  0
   -1.7498   -2.0965    1.1185 H   0  0  0  0  0  0  0  0  0  0  0  0
   -1.1505   -3.8059   -1.2300 H   0  0  0  0  0  0  0  0  0  0  0  0
   -0.6566   -4.5819    1.7009 H   0  0  0  0  0  0  0  0  0  0  0  0
   -0.5680   -5.6991    0.3200 H   0  0  0  0  0  0  0  0  0  0  0  0
    0.5932   -4.3673    0.4575 H   0  0  0  0  0  0  0  0  0  0  0  0
   -3.3059   -5.3729   -0.5581 N   0  0  0  0  0  0  0  0  0  0  0  0
   -4.6656   -5.8779   -0.4076 C   0  0  0  0  0  0  0  0  0  0  0  0
   -2.6296   -5.9278   -1.0757 H   0  0  0  0  0  0  0  0  0  0  0  0
   -4.8847   -6.0795    0.6464 H   0  0  0  0  0  0  0  0  0  0  0  0
   -5.3899   -5.1484   -0.7852 H   0  0  0  0  0  0  0  0  0  0  0  0
   -4.7884   -6.8084   -0.9705 H   0  0  0  0  0  0  0  0  0  0  0  0
  1  2  2  0  0  0  0
  1  3  1  0  0  0  0
  1  7  1  0  0  0  0
  3  4  1  0  0  0  0
  3  5  1  0  0  0  0
  3  6  1  0  0  0  0
  7  8  1  0  0  0  0
  7 12  1  0  0  0  0
  8  9  1  0  0  0  0
  8 11  1  0  0  0  0
  8 13  1  0  0  0  0
  9 10  2  0  0  0  0
  9 17  1  0  0  0  0
 11 14  1  0  0  0  0
 11 15  1  0  0  0  0
 11 16  1  0  0  0  0
 17 18  1  0  0  0  0
 17 22  1  0  0  0  0
 18 19  1  0  0  0  0
 18 21  1  0  0  0  0
 18 23  1  0  0  0  0
 19 20  2  0  0  0  0
 19 27  1  0  0  0  0
 21 24  1  0  0  0  0
 21 25  1  0  0  0  0
 21 26  1  0  0  0  0
 27 28  1  0  0  0  0
 27 32  1  0  0  0  0
 28 29  1  0  0  0  0
 28 31  1  0  0  0  0
 28 33  1  0  0  0  0
 29 30  2  0  0  0  0
 29 37  1  0  0  0  0
 31 34  1  0  0  0  0
 31 35  1  0  0  0  0
 31 36  1  0  0  0  0
 37 38  1  0  0  0  0
 37 39  1  0  0  0  0
 38 40  1  0  0  0  0
 38 41  1  0  0  0  0
 38 42  1  0  0  0  0
M  END
$$$$

  -OEChem-05262215353D

 42 41  0     1  0  0  0  0  0999 V2000
   -4.2031   -0.0281    0.5562 C   0  0  0  0  0  0  0  0  0  0  0  0
   -3.7861    1.1124    0.7007 O   0  0  0  0  0  0  0  0  0  0  0  0
   -4.9670   -0.4146   -0.6951 C   0  0  0  0  0  0  0  0  0  0  0  0
   -5.8760   -0.9575   -0.4245 H   0  0  0  0  0  0  0  0  0  0  0  0
   -5.2457    0.4795   -1.2594 H   0  0  0  0  0  0  0  0  0  0  0  0
   -4.3473   -1.0547   -1.3281 H   0  0  0  0  0  0  0  0  0  0  0  0
   -3.8775   -0.9818    1.4971 N   0  0  0  0  0  0  0  0  0  0  0  0
   -3.0968   -0.7101    2.7168 C   0  0  2  0  0  0  0  0  0  0  0  0
   -1.5817   -0.6298    2.4153 C   0  0  0  0  0  0  0  0  0  0  0  0
   -0.8138   -1.5028    2.7960 O   0  0  0  0  0  0  0  0  0  0  0  0
   -3.4479   -1.8066    3.7292 C   0  0  0  0  0  0  0  0  0  0  0  0
   -4.0748   -1.9561    1.2434 H   0  0  0  0  0  0  0  0  0  0  0  0
   -3.3990    0.2516    3.1453 H   0  0  0  0  0  0  0  0  0  0  0  0
   -3.1797   -2.7931    3.3366 H   0  0  0  0  0  0  0  0  0  0  0  0
   -2.9042   -1.6467    4.6658 H   0  0  0  0  0  0  0  0  0  0  0  0
   -4.5204   -1.7970    3.9463 H   0  0  0  0  0  0  0  0  0  0  0  0
   -1.1352    0.3188    1.5101 N   0  0  0  0  0  0  0  0  0  0  0  0
   -0.0998    0.0718    0.4803 C   0  0  2  0  0  0  0  0  0  0  0  0
   -0.0087   -1.3777   -0.0747 C   0  0  0  0  0  0  0  0  0  0  0  0
    1.0028   -1.7935   -0.6271 O   0  0  0  0  0  0  0  0  0  0  0  0
    1.2397    0.5180    1.0811 C   0  0  0  0  0  0  0  0  0  0  0  0
   -1.8827    0.9611    1.2282 H   0  0  0  0  0  0  0  0  0  0  0  0
   -0.3203    0.7104   -0.3800 H   0  0  0  0  0  0  0  0  0  0  0  0
    1.5219   -0.1375    1.9113 H   0  0  0  0  0  0  0  0  0  0  0  0
    2.0308    0.4810    0.3258 H   0  0  0  0  0  0  0  0  0  0  0  0
    1.1691    1.5436    1.4553 H   0  0  0  0  0  0  0  0  0  0  0  0
   -1.1511   -2.1554   -0.1213 N   0  0  0  0  0  0  0  0  0  0  0  0
   -1.2013   -3.5822   -0.4522 C   0  0  2  0  0  0  0  0  0  0  0  0
   -2.6635   -4.0713   -0.5442 C   0  0  0  0  0  0  0  0  0  0  0  0
   -3.5715   -3.4299   -0.0154 O   0  0  0  0  0  0  0  0  0  0  0  0
   -0.4685   -4.3823    0.6337 C   0  0  0  0  0  0  0  0  0  0  0  0
   -1.9364   -1.7948    0.4141 H   0  0  0  0  0  0  0  0  0  0  0  0
   -0.7171   -3.7465   -1.4203 H   0  0  0  0  0  0  0  0  0  0  0  0
   -0.9231   -4.2021    1.6137 H   0  0  0  0  0  0  0  0  0  0  0  0
   -0.5143   -5.4540    0.4193 H   0  0  0  0  0  0  0  0  0  0  0  0
    0.5849   -4.0904    0.6847 H   0  0  0  0  0  0  0  0  0  0  0  0
   -2.9677   -5.2426   -1.2125 N   0  0  0  0  0  0  0  0  0  0  0  0
   -4.3183   -5.7816   -1.3189 C   0  0  0  0  0  0  0  0  0  0  0  0
   -2.1965   -5.7628   -1.6226 H   0  0  0  0  0  0  0  0  0  0  0  0
   -4.7191   -6.0100   -0.3257 H   0  0  0  0  0  0  0  0  0  0  0  0
   -4.9811   -5.0617   -1.8103 H   0  0  0  0  0  0  0  0  0  0  0  0
   -4.3130   -6.7031   -1.9093 H   0  0  0  0  0  0  0  0  0  0  0  0
  1  2  2  0  0  0  0
  1  3  1  0  0  0  0
  1  7  1  0  0  0  0
  3  4  1  0  0  0  0
  3  5  1  0  0  0  0
  3  6  1  0  0  0  0
  7  8  1  0  0  0  0
  7 12  1  0  0  0  0
  8  9  1  0  0  0  0
  8 11  1  0  0  0  0
  8 13  1  0  0  0  0
  9 10  2  0  0  0  0
  9 17  1  0  0  0  0
 11 14  1  0  0  0  0
 11 15  1  0  0  0  0
 11 16  1  0  0  0  0
 17 18  1  0  0  0  0
 17 22  1  0  0  0  0
 18 19  1  0  0  0  0
 18 21  1  0  0  0  0
 18 23  1  0  0  0  0
 19 20  2  0  0  0  0
 19 27  1  0  0  0  0
 21 24  1  0  0  0  0
 21 25  1  0  0  0  0
 21 26  1  0  0  0  0
 27 28  1  0  0  0  0
 27 32  1  0  0  0  0
 28 29  1  0  0  0  0
 28 31  1  0  0  0  0
 28 33  1  0  0  0  0
 29 30  2  0  0  0  0
 29 37  1  0  0  0  0
 31 34  1  0  0  0  0
 31 35  1  0  0  0  0
 31 36  1  0  0  0  0
 37 38  1  0  0  0  0
 37 39  1  0  0  0  0
 38 40  1  0  0  0  0
 38 41  1  0  0  0  0
 38 42  1  0  0  0  0
M  END
$$$$

  -OEChem-05262215353D

 42 41  0     1  0  0  0  0  0999 V2000
   -5.5951   -0.6919    1.7885 C   0  0  0  0  0  0  0  0  0  0  0  0
   -5.9030    0.3831    1.2984 O   0  0  0  0  0  0  0  0  0  0  0  0
   -6.5850   -1.8414    1.7891 C   0  0  0  0  0  0  0  0  0  0  0  0
   -6.8756   -2.0827    2.8144 H   0  0  0  0  0  0  0  0  0  0  0  0
   -7.4800   -1.5691    1.2229 H   0  0  0  0  0  0  0  0  0  0  0  0
   -6.1331   -2.7233    1.3282 H   0  0  0  0  0  0  0  0  0  0  0  0
   -4.3427   -0.8685    2.3380 N   0  0  0  0  0  0  0  0  0  0  0  0
   -3.2376    0.0885    2.1989 C   0  0  2  0  0  0  0  0  0  0  0  0
   -1.9227   -0.6222    1.8181 C   0  0  0  0  0  0  0  0  0  0  0  0
   -1.7744   -1.8020    2.1065 O   0  0  0  0  0  0  0  0  0  0  0  0
   -3.0819    0.8310    3.5276 C   0  0  0  0  0  0  0  0  0  0  0  0
   -4.0883   -1.8185    2.6059 H   0  0  0  0  0  0  0  0  0  0  0  0
   -3.4606    0.8126    1.4080 H   0  0  0  0  0  0  0  0  0  0  0  0
   -2.8458    0.1281    4.3333 H   0  0  0  0  0  0  0  0  0  0  0  0
   -2.2776    1.5700    3.4627 H   0  0  0  0  0  0  0  0  0  0  0  0
   -4.0112    1.3519    3.7797 H   0  0  0  0  0  0  0  0  0  0  0  0
   -0.9175    0.0864    1.1779 N   0  0  0  0  0  0  0  0  0  0  0  0
    0.3824   -0.4301    0.6937 C   0  0  2  0  0  0  0  0  0  0  0  0
    0.4453   -1.9154    0.2389 C   0  0  0  0  0  0  0  0  0  0  0  0
    1.4525   -2.5925    0.4138 O   0  0  0  0  0  0  0  0  0  0  0  0
    1.3966   -0.1410    1.8106 C   0  0  0  0  0  0  0  0  0  0  0  0
   -1.1195    1.0670    1.0037 H   0  0  0  0  0  0  0  0  0  0  0  0
    0.6668    0.1523   -0.1878 H   0  0  0  0  0  0  0  0  0  0  0  0
    1.1701   -0.7444    2.6960 H   0  0  0  0  0  0  0  0  0  0  0  0
    2.4122   -0.3807    1.4795 H   0  0  0  0  0  0  0  0  0  0  0  0
    1.3700    0.9161    2.0915 H   0  0  0  0  0  0  0  0  0  0  0  0
   -0.5536   -2.4266   -0.5680 N   0  0  0  0  0  0  0  0  0  0  0  0
   -0.6130   -3.8044   -1.0682 C   0  0  2  0  0  0  0  0  0  0  0  0
   -1.6029   -3.9369   -2.2442 C   0  0  0  0  0  0  0  0  0  0  0  0
   -2.4333   -3.0599   -2.4607 O   0  0  0  0  0  0  0  0  0  0  0  0
   -1.0339   -4.7303    0.0799 C   0  0  0  0  0  0  0  0  0  0  0  0
   -1.3940   -1.8622   -0.6749 H   0  0  0  0  0  0  0  0  0  0  0  0
    0.3770   -4.1004   -1.4302 H   0  0  0  0  0  0  0  0  0  0  0  0
   -2.0200   -4.4438    0.4595 H   0  0  0  0  0  0  0  0  0  0  0  0
   -1.0773   -5.7692   -0.2597 H   0  0  0  0  0  0  0  0  0  0  0  0
   -0.3161   -4.6686    0.9040 H   0  0  0  0  0  0  0  0  0  0  0  0
   -1.5647   -5.0482   -3.0665 N   0  0  0  0  0  0  0  0  0  0  0  0
   -2.4500   -5.2293   -4.2108 C   0  0  0  0  0  0  0  0  0  0  0  0
   -0.8539   -5.7488   -2.8763 H   0  0  0  0  0  0  0  0  0  0  0  0
   -3.4977   -5.1515   -3.9021 H   0  0  0  0  0  0  0  0  0  0  0  0
   -2.2502   -4.4693   -4.9731 H   0  0  0  0  0  0  0  0  0  0  0  0
   -2.2960   -6.2164   -4.6568 H   0  0  0  0  0  0  0  0  0  0  0  0
  1  2  2  0  0  0  0
  1  3  1  0  0  0  0
  1  7  1  0  0  0  0
  3  4  1  0  0  0  0
  3  5  1  0  0  0  0
  3  6  1  0  0  0  0
  7  8  1  0  0  0  0
  7 12  1  0  0  0  0
  8  9  1  0  0  0  0
  8 11  1  0  0  0  0
  8 13  1  0  0  0  0
  9 10  2  0  0  0  0
  9 17  1  0  0  0  0
 11 14  1  0  0  0  0
 11 15  1  0  0  0  0
 11 16  1  0  0  0  0
 17 18  1  0  0  0  0
 17 22  1  0  0  0  0
 18 19  1  0  0  0  0
 18 21  1  0  0  0  0
 18 23  1  0  0  0  0
 19 20  2  0  0  0  0
 19 27  1  0  0  0  0
 21 24  1  0  0  0  0
 21 25  1  0  0  0  0
 21 26  1  0  0  0  0
 27 28  1  0  0  0  0
 27 32  1  0  0  0  0
 28 29  1  0  0  0  0
 28 31  1  0  0  0  0
 28 33  1  0  0  0  0
 29 30  2  0  0  0  0
 29 37  1  0  0  0  0
 31 34  1  0  0  0  0
 31 35  1  0  0  0  0
 31 36  1  0  0  0  0
 37 38  1  0  0  0  0
 37 39  1  0  0  0  0
 38 40  1  0  0  0  0
 38 41  1  0  0  0  0
 38 42  1  0  0  0  0
M  END
$$$$

  -OEChem-05262215353D

 42 41  0     1  0  0  0  0  0999 V2000
   -5.6319   -0.7413    1.8454 C   0  0  0  0  0  0  0  0  0  0  0  0
   -5.9676    0.3499    1.4128 O   0  0  0  0  0  0  0  0  0  0  0  0
   -6.6389   -1.8734    1.9194 C   0  0  0  0  0  0  0  0  0  0  0  0
   -6.7719   -2.1857    2.9581 H   0  0  0  0  0  0  0  0  0  0  0  0
   -7.6044   -1.5460    1.5233 H   0  0  0  0  0  0  0  0  0  0  0  0
   -6.2884   -2.7253    1.3315 H   0  0  0  0  0  0  0  0  0  0  0  0
   -4.3349   -0.9480    2.2651 N   0  0  0  0  0  0  0  0  0  0  0  0
   -3.2438    0.0189    2.0885 C   0  0  2  0  0  0  0  0  0  0  0  0
   -1.9180   -0.6808    1.7241 C   0  0  0  0  0  0  0  0  0  0  0  0
   -1.7796   -1.8696    1.9789 O   0  0  0  0  0  0  0  0  0  0  0  0
   -3.0955    0.8128    3.3889 C   0  0  0  0  0  0  0  0  0  0  0  0
   -4.0656   -1.9039    2.4961 H   0  0  0  0  0  0  0  0  0  0  0  0
   -3.4839    0.7075    1.2713 H   0  0  0  0  0  0  0  0  0  0  0  0
   -2.8488    0.1431    4.2192 H   0  0  0  0  0  0  0  0  0  0  0  0
   -2.3020    1.5604    3.2961 H   0  0  0  0  0  0  0  0  0  0  0  0
   -4.0312    1.3301    3.6240 H   0  0  0  0  0  0  0  0  0  0  0  0
   -0.9064    0.0446    1.1120 N   0  0  0  0  0  0  0  0  0  0  0  0
    0.4223   -0.4480    0.6868 C   0  0  2  0  0  0  0  0  0  0  0  0
    0.5095   -1.9399    0.2654 C   0  0  0  0  0  0  0  0  0  0  0  0
    1.3812   -2.6859    0.6983 O   0  0  0  0  0  0  0  0  0  0  0  0
    1.3928   -0.1208    1.8311 C   0  0  0  0  0  0  0  0  0  0  0  0
   -1.1029    1.0313    0.9698 H   0  0  0  0  0  0  0  0  0  0  0  0
    0.7301    0.1222   -0.1947 H   0  0  0  0  0  0  0  0  0  0  0  0
    1.1370   -0.7011    2.7241 H   0  0  0  0  0  0  0  0  0  0  0  0
    2.4205   -0.3648    1.5429 H   0  0  0  0  0  0  0  0  0  0  0  0
    1.3505    0.9437    2.0809 H   0  0  0  0  0  0  0  0  0  0  0  0
   -0.2649   -2.3780   -0.7915 N   0  0  0  0  0  0  0  0  0  0  0  0
   -0.3072   -3.7581   -1.2852 C   0  0  2  0  0  0  0  0  0  0  0  0
   -0.9420   -3.8346   -2.6892 C   0  0  0  0  0  0  0  0  0  0  0  0
   -1.6110   -2.9004   -3.1196 O   0  0  0  0  0  0  0  0  0  0  0  0
   -1.1146   -4.6075   -0.2963 C   0  0  0  0  0  0  0  0  0  0  0  0
   -0.9831   -1.7447   -1.1373 H   0  0  0  0  0  0  0  0  0  0  0  0
    0.7125   -4.1511   -1.3555 H   0  0  0  0  0  0  0  0  0  0  0  0
   -2.1346   -4.2207   -0.2062 H   0  0  0  0  0  0  0  0  0  0  0  0
   -1.1626   -5.6475   -0.6312 H   0  0  0  0  0  0  0  0  0  0  0  0
   -0.6495   -4.5871    0.6943 H   0  0  0  0  0  0  0  0  0  0  0  0
   -0.7689   -4.9602   -3.4736 N   0  0  0  0  0  0  0  0  0  0  0  0
   -1.3477   -5.1074   -4.8033 C   0  0  0  0  0  0  0  0  0  0  0  0
   -0.2105   -5.7180   -3.0918 H   0  0  0  0  0  0  0  0  0  0  0  0
   -2.4411   -5.0844   -4.7496 H   0  0  0  0  0  0  0  0  0  0  0  0
   -1.0101   -4.2987   -5.4602 H   0  0  0  0  0  0  0  0  0  0  0  0
   -1.0430   -6.0612   -5.2449 H   0  0  0  0  0  0  0  0  0  0  0  0
  1  2  2  0  0  0  0
  1  3  1  0  0  0  0
  1  7  1  0  0  0  0
  3  4  1  0  0  0  0
  3  5  1  0  0  0  0
  3  6  1  0  0  0  0
  7  8  1  0  0  0  0
  7 12  1  0  0  0  0
  8  9  1  0  0  0  0
  8 11  1  0  0  0  0
  8 13  1  0  0  0  0
  9 10  2  0  0  0  0
  9 17  1  0  0  0  0
 11 14  1  0  0  0  0
 11 15  1  0  0  0  0
 11 16  1  0  0  0  0
 17 18  1  0  0  0  0
 17 22  1  0  0  0  0
 18 19  1  0  0  0  0
 18 21  1  0  0  0  0
 18 23  1  0  0  0  0
 19 20  2  0  0  0  0
 19 27  1  0  0  0  0
 21 24  1  0  0  0  0
 21 25  1  0  0  0  0
 21 26  1  0  0  0  0
 27 28  1  0  0  0  0
 27 32  1  0  0  0  0
 28 29  1  0  0  0  0
 28 31  1  0  0  0  0
 28 33  1  0  0  0  0
 29 30  2  0  0  0  0
 29 37  1  0  0  0  0
 31 34  1  0  0  0  0
 31 35  1  0  0  0  0
 31 36  1  0  0  0  0
 37 38  1  0  0  0  0
 37 39  1  0  0  0  0
 38 40  1  0  0  0  0
 38 41  1  0  0  0  0
 38 42  1  0  0  0  0
M  END
$$$$

  -OEChem-05262215353D

 42 41  0     1  0  0  0  0  0999 V2000
   -5.5642   -0.7714    1.7657 C   0  0  0  0  0  0  0  0  0  0  0  0
   -5.8467    0.2159    1.1051 O   0  0  0  0  0  0  0  0  0  0  0  0
   -6.5382   -1.9313    1.8512 C   0  0  0  0  0  0  0  0  0  0  0  0
   -6.8568   -2.0740    2.8866 H   0  0  0  0  0  0  0  0  0  0  0  0
   -7.4193   -1.7303    1.2354 H   0  0  0  0  0  0  0  0  0  0  0  0
   -6.0613   -2.8473    1.4937 H   0  0  0  0  0  0  0  0  0  0  0  0
   -4.3575   -0.8444    2.4294 N   0  0  0  0  0  0  0  0  0  0  0  0
   -3.2441    0.0905    2.2142 C   0  0  2  0  0  0  0  0  0  0  0  0
   -1.9671   -0.6453    1.7572 C   0  0  0  0  0  0  0  0  0  0  0  0
   -1.8393   -1.8330    2.0200 O   0  0  0  0  0  0  0  0  0  0  0  0
   -2.9946    0.8321    3.5289 C   0  0  0  0  0  0  0  0  0  0  0  0
   -4.1067   -1.7594    2.8018 H   0  0  0  0  0  0  0  0  0  0  0  0
   -3.4981    0.8208    1.4391 H   0  0  0  0  0  0  0  0  0  0  0  0
   -2.7237    0.1268    4.3215 H   0  0  0  0  0  0  0  0  0  0  0  0
   -2.1816    1.5553    3.4132 H   0  0  0  0  0  0  0  0  0  0  0  0
   -3.8970    1.3709    3.8350 H   0  0  0  0  0  0  0  0  0  0  0  0
   -0.9828    0.0520    1.0724 N   0  0  0  0  0  0  0  0  0  0  0  0
    0.3295   -0.4579    0.6201 C   0  0  2  0  0  0  0  0  0  0  0  0
    0.4101   -1.9685    0.2670 C   0  0  0  0  0  0  0  0  0  0  0  0
    1.1459   -2.7381    0.8757 O   0  0  0  0  0  0  0  0  0  0  0  0
    1.3403   -0.0737    1.7109 C   0  0  0  0  0  0  0  0  0  0  0  0
   -1.1713    1.0398    0.9273 H   0  0  0  0  0  0  0  0  0  0  0  0
    0.6041    0.0725   -0.2965 H   0  0  0  0  0  0  0  0  0  0  0  0
    1.1055   -0.5905    2.6477 H   0  0  0  0  0  0  0  0  0  0  0  0
    2.3545   -0.3522    1.4072 H   0  0  0  0  0  0  0  0  0  0  0  0
    1.3208    1.0049    1.8922 H   0  0  0  0  0  0  0  0  0  0  0  0
   -0.1492   -2.4054   -0.9190 N   0  0  0  0  0  0  0  0  0  0  0  0
   -0.0725   -3.7787   -1.4292 C   0  0  2  0  0  0  0  0  0  0  0  0
   -0.2462   -3.8268   -2.9612 C   0  0  0  0  0  0  0  0  0  0  0  0
   -0.7111   -2.8640   -3.5628 O   0  0  0  0  0  0  0  0  0  0  0  0
   -1.1602   -4.6103   -0.7401 C   0  0  0  0  0  0  0  0  0  0  0  0
   -0.7004   -1.7408   -1.4587 H   0  0  0  0  0  0  0  0  0  0  0  0
    0.9096   -4.2027   -1.1953 H   0  0  0  0  0  0  0  0  0  0  0  0
   -2.1519   -4.2079   -0.9701 H   0  0  0  0  0  0  0  0  0  0  0  0
   -1.1189   -5.6513   -1.0743 H   0  0  0  0  0  0  0  0  0  0  0  0
   -1.0227   -4.5917    0.3463 H   0  0  0  0  0  0  0  0  0  0  0  0
    0.1249   -4.9542   -3.6710 N   0  0  0  0  0  0  0  0  0  0  0  0
    0.0108   -5.0639   -5.1204 C   0  0  0  0  0  0  0  0  0  0  0  0
    0.5328   -5.7243   -3.1486 H   0  0  0  0  0  0  0  0  0  0  0  0
   -1.0251   -4.9046   -5.4382 H   0  0  0  0  0  0  0  0  0  0  0  0
    0.6485   -4.3218   -5.6120 H   0  0  0  0  0  0  0  0  0  0  0  0
    0.3222   -6.0599   -5.4498 H   0  0  0  0  0  0  0  0  0  0  0  0
  1  2  2  0  0  0  0
  1  3  1  0  0  0  0
  1  7  1  0  0  0  0
  3  4  1  0  0  0  0
  3  5  1  0  0  0  0
  3  6  1  0  0  0  0
  7  8  1  0  0  0  0
  7 12  1  0  0  0  0
  8  9  1  0  0  0  0
  8 11  1  0  0  0  0
  8 13  1  0  0  0  0
  9 10  2  0  0  0  0
  9 17  1  0  0  0  0
 11 14  1  0  0  0  0
 11 15  1  0  0  0  0
 11 16  1  0  0  0  0
 17 18  1  0  0  0  0
 17 22  1  0  0  0  0
 18 19  1  0  0  0  0
 18 21  1  0  0  0  0
 18 23  1  0  0  0  0
 19 20  2  0  0  0  0
 19 27  1  0  0  0  0
 21 24  1  0  0  0  0
 21 25  1  0  0  0  0
 21 26  1  0  0  0  0
 27 28  1  0  0  0  0
 27 32  1  0  0  0  0
 28 29  1  0  0  0  0
 28 31  1  0  0  0  0
 28 33  1  0  0  0  0
 29 30  2  0  0  0  0
 29 37  1  0  0  0  0
 31 34  1  0  0  0  0
 31 35  1  0  0  0  0
 31 36  1  0  0  0  0
 37 38  1  0  0  0  0
 37 39  1  0  0  0  0
 38 40  1  0  0  0  0
 38 41  1  0  0  0  0
 38 42  1  0  0  0  0
M  END
$$$$

  -OEChem-05262215353D

 42 41  0     1  0  0  0  0  0999 V2000
   -5.5749   -0.7368    1.7502 C   0  0  0  0  0  0  0  0  0  0  0  0
   -5.8222    0.2134    1.0242 O   0  0  0  0  0  0  0  0  0  0  0  0
   -6.5611   -1.8842    1.8610 C   0  0  0  0  0  0  0  0  0  0  0  0
   -6.8853   -1.9985    2.8983 H   0  0  0  0  0  0  0  0  0  0  0  0
   -7.4378   -1.6904    1.2368 H   0  0  0  0  0  0  0  0  0  0  0  0
   -6.0908   -2.8128    1.5287 H   0  0  0  0  0  0  0  0  0  0  0  0
   -4.3961   -0.7837    2.4648 N   0  0  0  0  0  0  0  0  0  0  0  0
   -3.2612    0.1211    2.2321 C   0  0  2  0  0  0  0  0  0  0  0  0
   -2.0159   -0.6488    1.7441 C   0  0  0  0  0  0  0  0  0  0  0  0
   -1.9173   -1.8406    1.9980 O   0  0  0  0  0  0  0  0  0  0  0  0
   -2.9628    0.8443    3.5474 C   0  0  0  0  0  0  0  0  0  0  0  0
   -4.1648   -1.6885    2.8729 H   0  0  0  0  0  0  0  0  0  0  0  0
   -3.5098    0.8673    1.4702 H   0  0  0  0  0  0  0  0  0  0  0  0
   -2.6915    0.1257    4.3278 H   0  0  0  0  0  0  0  0  0  0  0  0
   -2.1344    1.5477    3.4198 H   0  0  0  0  0  0  0  0  0  0  0  0
   -3.8437    1.4032    3.8789 H   0  0  0  0  0  0  0  0  0  0  0  0
   -1.0325    0.0244    1.0353 N   0  0  0  0  0  0  0  0  0  0  0  0
    0.2768   -0.4975    0.5895 C   0  0  2  0  0  0  0  0  0  0  0  0
    0.3707   -2.0164    0.2740 C   0  0  0  0  0  0  0  0  0  0  0  0
    0.9369   -2.8001    1.0287 O   0  0  0  0  0  0  0  0  0  0  0  0
    1.2961   -0.0868    1.6613 C   0  0  0  0  0  0  0  0  0  0  0  0
   -1.2069    1.0145    0.8913 H   0  0  0  0  0  0  0  0  0  0  0  0
    0.5436    0.0150   -0.3396 H   0  0  0  0  0  0  0  0  0  0  0  0
    1.0641   -0.5724    2.6152 H   0  0  0  0  0  0  0  0  0  0  0  0
    2.3056   -0.3835    1.3592 H   0  0  0  0  0  0  0  0  0  0  0  0
    1.2849    0.9969    1.8097 H   0  0  0  0  0  0  0  0  0  0  0  0
    0.1022   -2.4443   -1.0127 N   0  0  0  0  0  0  0  0  0  0  0  0
    0.3117   -3.8094   -1.5084 C   0  0  2  0  0  0  0  0  0  0  0  0
    0.5359   -3.8306   -3.0344 C   0  0  0  0  0  0  0  0  0  0  0  0
    0.2790   -2.8406   -3.7122 O   0  0  0  0  0  0  0  0  0  0  0  0
   -0.9136   -4.6487   -1.1316 C   0  0  0  0  0  0  0  0  0  0  0  0
   -0.2569   -1.7616   -1.6774 H   0  0  0  0  0  0  0  0  0  0  0  0
    1.2039   -4.2388   -1.0404 H   0  0  0  0  0  0  0  0  0  0  0  0
   -1.8147   -4.2399   -1.5997 H   0  0  0  0  0  0  0  0  0  0  0  0
   -0.7880   -5.6842   -1.4607 H   0  0  0  0  0  0  0  0  0  0  0  0
   -1.0551   -4.6468   -0.0458 H   0  0  0  0  0  0  0  0  0  0  0  0
    1.0380   -4.9621   -3.6505 N   0  0  0  0  0  0  0  0  0  0  0  0
    1.3068   -5.0430   -5.0809 C   0  0  0  0  0  0  0  0  0  0  0  0
    1.2682   -5.7554   -3.0589 H   0  0  0  0  0  0  0  0  0  0  0  0
    0.4000   -4.8260   -5.6551 H   0  0  0  0  0  0  0  0  0  0  0  0
    2.0839   -4.3259   -5.3653 H   0  0  0  0  0  0  0  0  0  0  0  0
    1.6493   -6.0480   -5.3449 H   0  0  0  0  0  0  0  0  0  0  0  0
  1  2  2  0  0  0  0
  1  3  1  0  0  0  0
  1  7  1  0  0  0  0
  3  4  1  0  0  0  0
  3  5  1  0  0  0  0
  3  6  1  0  0  0  0
  7  8  1  0  0  0  0
  7 12  1  0  0  0  0
  8  9  1  0  0  0  0
  8 11  1  0  0  0  0
  8 13  1  0  0  0  0
  9 10  2  0  0  0  0
  9 17  1  0  0  0  0
 11 14  1  0  0  0  0
 11 15  1  0  0  0  0
 11 16  1  0  0  0  0
 17 18  1  0  0  0  0
 17 22  1  0  0  0  0
 18 19  1  0  0  0  0
 18 21  1  0  0  0  0
 18 23  1  0  0  0  0
 19 20  2  0  0  0  0
 19 27  1  0  0  0  0
 21 24  1  0  0  0  0
 21 25  1  0  0  0  0
 21 26  1  0  0  0  0
 27 28  1  0  0  0  0
 27 32  1  0  0  0  0
 28 29  1  0  0  0  0
 28 31  1  0  0  0  0
 28 33  1  0  0  0  0
 29 30  2  0  0  0  0
 29 37  1  0  0  0  0
 31 34  1  0  0  0  0
 31 35  1  0  0  0  0
 31 36  1  0  0  0  0
 37 38  1  0  0  0  0
 37 39  1  0  0  0  0
 38 40  1  0  0  0  0
 38 41  1  0  0  0  0
 38 42  1  0  0  0  0
M  END
$$$$

  -OEChem-05262215353D

 42 41  0     1  0  0  0  0  0999 V2000
   -5.6014   -0.6585    1.7478 C   0  0  0  0  0  0  0  0  0  0  0  0
   -5.8099    0.2677    0.9795 O   0  0  0  0  0  0  0  0  0  0  0  0
   -6.6120   -1.7834    1.8723 C   0  0  0  0  0  0  0  0  0  0  0  0
   -6.9848   -1.8385    2.8979 H   0  0  0  0  0  0  0  0  0  0  0  0
   -7.4561   -1.6096    1.1991 H   0  0  0  0  0  0  0  0  0  0  0  0
   -6.1436   -2.7356    1.6107 H   0  0  0  0  0  0  0  0  0  0  0  0
   -4.4415   -0.7037    2.4928 N   0  0  0  0  0  0  0  0  0  0  0  0
   -3.2776    0.1585    2.2437 C   0  0  2  0  0  0  0  0  0  0  0  0
   -2.0656   -0.6575    1.7449 C   0  0  0  0  0  0  0  0  0  0  0  0
   -2.0071   -1.8491    2.0077 O   0  0  0  0  0  0  0  0  0  0  0  0
   -2.9398    0.8733    3.5537 C   0  0  0  0  0  0  0  0  0  0  0  0
   -4.2394   -1.6007    2.9319 H   0  0  0  0  0  0  0  0  0  0  0  0
   -3.5085    0.9118    1.4836 H   0  0  0  0  0  0  0  0  0  0  0  0
   -2.6873    0.1464    4.3326 H   0  0  0  0  0  0  0  0  0  0  0  0
   -2.0876    1.5456    3.4161 H   0  0  0  0  0  0  0  0  0  0  0  0
   -3.7965    1.4645    3.8925 H   0  0  0  0  0  0  0  0  0  0  0  0
   -1.0748   -0.0245    1.0100 N   0  0  0  0  0  0  0  0  0  0  0  0
    0.2218   -0.5768    0.5609 C   0  0  2  0  0  0  0  0  0  0  0  0
    0.3137   -2.1024    0.2732 C   0  0  0  0  0  0  0  0  0  0  0  0
    0.6996   -2.8971    1.1237 O   0  0  0  0  0  0  0  0  0  0  0  0
    1.2606   -0.1621    1.6117 C   0  0  0  0  0  0  0  0  0  0  0  0
   -1.2269    0.9676    0.8558 H   0  0  0  0  0  0  0  0  0  0  0  0
    0.4836   -0.0812   -0.3785 H   0  0  0  0  0  0  0  0  0  0  0  0
    1.0270   -0.6156    2.5811 H   0  0  0  0  0  0  0  0  0  0  0  0
    2.2597   -0.4914    1.3082 H   0  0  0  0  0  0  0  0  0  0  0  0
    1.2758    0.9255    1.7295 H   0  0  0  0  0  0  0  0  0  0  0  0
    0.3464   -2.5252   -1.0436 N   0  0  0  0  0  0  0  0  0  0  0  0
    0.7120   -3.8747   -1.4908 C   0  0  2  0  0  0  0  0  0  0  0  0
    1.2989   -3.8549   -2.9176 C   0  0  0  0  0  0  0  0  0  0  0  0
    1.2078   -2.8451   -3.6088 O   0  0  0  0  0  0  0  0  0  0  0  0
   -0.5399   -4.7556   -1.4300 C   0  0  0  0  0  0  0  0  0  0  0  0
    0.1914   -1.8295   -1.7711 H   0  0  0  0  0  0  0  0  0  0  0  0
    1.4784   -4.2899   -0.8277 H   0  0  0  0  0  0  0  0  0  0  0  0
   -1.3157   -4.3639   -2.0957 H   0  0  0  0  0  0  0  0  0  0  0  0
   -0.3052   -5.7806   -1.7316 H   0  0  0  0  0  0  0  0  0  0  0  0
   -0.9369   -4.7795   -0.4095 H   0  0  0  0  0  0  0  0  0  0  0  0
    1.9470   -4.9665   -3.4238 N   0  0  0  0  0  0  0  0  0  0  0  0
    2.5641   -5.0029   -4.7441 C   0  0  0  0  0  0  0  0  0  0  0  0
    2.0437   -5.7720   -2.8123 H   0  0  0  0  0  0  0  0  0  0  0  0
    1.8445   -4.7051   -5.5142 H   0  0  0  0  0  0  0  0  0  0  0  0
    3.4230   -4.3249   -4.7835 H   0  0  0  0  0  0  0  0  0  0  0  0
    2.9100   -6.0156   -4.9719 H   0  0  0  0  0  0  0  0  0  0  0  0
  1  2  2  0  0  0  0
  1  3  1  0  0  0  0
  1  7  1  0  0  0  0
  3  4  1  0  0  0  0
  3  5  1  0  0  0  0
  3  6  1  0  0  0  0
  7  8  1  0  0  0  0
  7 12  1  0  0  0  0
  8  9  1  0  0  0  0
  8 11  1  0  0  0  0
  8 13  1  0  0  0  0
  9 10  2  0  0  0  0
  9 17  1  0  0  0  0
 11 14  1  0  0  0  0
 11 15  1  0  0  0  0
 11 16  1  0  0  0  0
 17 18  1  0  0  0  0
 17 22  1  0  0  0  0
 18 19  1  0  0  0  0
 18 21  1  0  0  0  0
 18 23  1  0  0  0  0
 19 20  2  0  0  0  0
 19 27  1  0  0  0  0
 21 24  1  0  0  0  0
 21 25  1  0  0  0  0
 21 26  1  0  0  0  0
 27 28  1  0  0  0  0
 27 32  1  0  0  0  0
 28 29  1  0  0  0  0
 28 31  1  0  0  0  0
 28 33  1  0  0  0  0
 29 30  2  0  0  0  0
 29 37  1  0  0  0  0
 31 34  1  0  0  0  0
 31 35  1  0  0  0  0
 31 36  1  0  0  0  0
 37 38  1  0  0  0  0
 37 39  1  0  0  0  0
 38 40  1  0  0  0  0
 38 41  1  0  0  0  0
 38 42  1  0  0  0  0
M  END
$$$$

  -OEChem-05262215353D

 42 41  0     1  0  0  0  0  0999 V2000
   -5.6885   -0.4807    1.7826 C   0  0  0  0  0  0  0  0  0  0  0  0
   -5.8734    0.5377    1.1343 O   0  0  0  0  0  0  0  0  0  0  0  0
   -6.7699   -1.5428    1.8509 C   0  0  0  0  0  0  0  0  0  0  0  0
   -7.1117   -1.6604    2.8822 H   0  0  0  0  0  0  0  0  0  0  0  0
   -7.6212   -1.2555    1.2272 H   0  0  0  0  0  0  0  0  0  0  0  0
   -6.3781   -2.4982    1.4927 H   0  0  0  0  0  0  0  0  0  0  0  0
   -4.4955   -0.6810    2.4451 N   0  0  0  0  0  0  0  0  0  0  0  0
   -3.2897    0.1296    2.2227 C   0  0  2  0  0  0  0  0  0  0  0  0
   -2.1275   -0.7232    1.6714 C   0  0  0  0  0  0  0  0  0  0  0  0
   -2.1433   -1.9298    1.8577 O   0  0  0  0  0  0  0  0  0  0  0  0
   -2.8988    0.7621    3.5601 C   0  0  0  0  0  0  0  0  0  0  0  0
   -4.3326   -1.6289    2.7824 H   0  0  0  0  0  0  0  0  0  0  0  0
   -3.4875    0.9275    1.4997 H   0  0  0  0  0  0  0  0  0  0  0  0
   -2.6761   -0.0141    4.2996 H   0  0  0  0  0  0  0  0  0  0  0  0
   -2.0133    1.3940    3.4423 H   0  0  0  0  0  0  0  0  0  0  0  0
   -3.7181    1.3809    3.9396 H   0  0  0  0  0  0  0  0  0  0  0  0
   -1.1154   -0.1034    0.9551 N   0  0  0  0  0  0  0  0  0  0  0  0
    0.1925   -0.6572    0.5428 C   0  0  2  0  0  0  0  0  0  0  0  0
    0.3230   -2.1826    0.2671 C   0  0  0  0  0  0  0  0  0  0  0  0
    0.5081   -2.9851    1.1750 O   0  0  0  0  0  0  0  0  0  0  0  0
    1.1977   -0.2352    1.6234 C   0  0  0  0  0  0  0  0  0  0  0  0
   -1.2271    0.9013    0.8606 H   0  0  0  0  0  0  0  0  0  0  0  0
    0.4736   -0.1601   -0.3900 H   0  0  0  0  0  0  0  0  0  0  0  0
    0.9361   -0.6879    2.5861 H   0  0  0  0  0  0  0  0  0  0  0  0
    2.2073   -0.5606    1.3524 H   0  0  0  0  0  0  0  0  0  0  0  0
    1.2052    0.8527    1.7406 H   0  0  0  0  0  0  0  0  0  0  0  0
    0.7112   -2.5894   -0.9972 N   0  0  0  0  0  0  0  0  0  0  0  0
    1.1904   -3.9320   -1.3498 C   0  0  2  0  0  0  0  0  0  0  0  0
    2.0281   -3.9015   -2.6451 C   0  0  0  0  0  0  0  0  0  0  0  0
    2.0218   -2.9046   -3.3609 O   0  0  0  0  0  0  0  0  0  0  0  0
   -0.0190   -4.8601   -1.5096 C   0  0  0  0  0  0  0  0  0  0  0  0
    0.7200   -1.8932   -1.7408 H   0  0  0  0  0  0  0  0  0  0  0  0
    1.8350   -4.3133   -0.5509 H   0  0  0  0  0  0  0  0  0  0  0  0
   -0.6791   -4.4958   -2.3031 H   0  0  0  0  0  0  0  0  0  0  0  0
    0.3046   -5.8741   -1.7617 H   0  0  0  0  0  0  0  0  0  0  0  0
   -0.5894   -4.9046   -0.5760 H   0  0  0  0  0  0  0  0  0  0  0  0
    2.8093   -4.9854   -3.0012 N   0  0  0  0  0  0  0  0  0  0  0  0
    3.6383   -5.0153   -4.2002 C   0  0  0  0  0  0  0  0  0  0  0  0
    2.8104   -5.7892   -2.3796 H   0  0  0  0  0  0  0  0  0  0  0  0
    3.0195   -4.9000   -5.0962 H   0  0  0  0  0  0  0  0  0  0  0  0
    4.3772   -4.2074   -4.1761 H   0  0  0  0  0  0  0  0  0  0  0  0
    4.1716   -5.9683   -4.2693 H   0  0  0  0  0  0  0  0  0  0  0  0
  1  2  2  0  0  0  0
  1  3  1  0  0  0  0
  1  7  1  0  0  0  0
  3  4  1  0  0  0  0
  3  5  1  0  0  0  0
  3  6  1  0  0  0  0
  7  8  1  0  0  0  0
  7 12  1  0  0  0  0
  8  9  1  0  0  0  0
  8 11  1  0  0  0  0
  8 13  1  0  0  0  0
  9 10  2  0  0  0  0
  9 17  1  0  0  0  0
 11 14  1  0  0  0  0
 11 15  1  0  0  0  0
 11 16  1  0  0  0  0
 17 18  1  0  0  0  0
 17 22  1  0  0  0  0
 18 19  1  0  0  0  0
 18 21  1  0  0  0  0
 18 23  1  0  0  0  0
 19 20  2  0  0  0  0
 19 27  1  0  0  0  0
 21 24  1  0  0  0  0
 21 25  1  0  0  0  0
 21 26  1  0  0  0  0
 27 28  1  0  0  0  0
 27 32  1  0  0  0  0
 28 29  1  0  0  0  0
 28 31  1  0  0  0  0
 28 33  1  0  0  0  0
 29 30  2  0  0  0  0
 29 37  1  0  0  0  0
 31 34  1  0  0  0  0
 31 35  1  0  0  0  0
 31 36  1  0  0  0  0
 37 38  1  0  0  0  0
 37 39  1  0  0  0  0
 38 40  1  0  0  0  0
 38 41  1  0  0  0  0
 38 42  1  0  0  0  0
M  END
$$$$

  -OEChem-05262215353D

 42 41  0     1  0  0  0  0  0999 V2000
   -5.4177   -0.8760    1.6266 C   0  0  0  0  0  0  0  0  0  0  0  0
   -5.5954   -0.1213    0.6827 O   0  0  0  0  0  0  0  0  0  0  0  0
   -6.3740   -2.0298    1.8635 C   0  0  0  0  0  0  0  0  0  0  0  0
   -6.8531   -1.9233    2.8400 H   0  0  0  0  0  0  0  0  0  0  0  0
   -7.1477   -2.0425    1.0906 H   0  0  0  0  0  0  0  0  0  0  0  0
   -5.8302   -2.9774    1.8326 H   0  0  0  0  0  0  0  0  0  0  0  0
   -4.3479   -0.6913    2.4775 N   0  0  0  0  0  0  0  0  0  0  0  0
   -3.2284    0.2191    2.1994 C   0  0  2  0  0  0  0  0  0  0  0  0
   -1.9058   -0.5574    2.0306 C   0  0  0  0  0  0  0  0  0  0  0  0
   -1.7381   -1.5666    2.6957 O   0  0  0  0  0  0  0  0  0  0  0  0
   -3.1297    1.2059    3.3649 C   0  0  0  0  0  0  0  0  0  0  0  0
   -4.1426   -1.4664    3.1071 H   0  0  0  0  0  0  0  0  0  0  0  0
   -3.4057    0.7827    1.2782 H   0  0  0  0  0  0  0  0  0  0  0  0
   -2.9387    0.6741    4.3028 H   0  0  0  0  0  0  0  0  0  0  0  0
   -2.3155    1.9172    3.1969 H   0  0  0  0  0  0  0  0  0  0  0  0
   -4.0646    1.7662    3.4657 H   0  0  0  0  0  0  0  0  0  0  0  0
   -0.8914   -0.0141    1.2571 N   0  0  0  0  0  0  0  0  0  0  0  0
    0.2913   -0.6951    0.6812 C   0  0  2  0  0  0  0  0  0  0  0  0
    0.2358   -2.1980    0.2765 C   0  0  0  0  0  0  0  0  0  0  0  0
   -0.0473   -3.1101    1.0376 O   0  0  0  0  0  0  0  0  0  0  0  0
    1.4257   -0.5136    1.6956 C   0  0  0  0  0  0  0  0  0  0  0  0
   -1.1447    0.8668    0.8203 H   0  0  0  0  0  0  0  0  0  0  0  0
    0.5585   -0.1496   -0.2282 H   0  0  0  0  0  0  0  0  0  0  0  0
    1.1908   -1.0427    2.6256 H   0  0  0  0  0  0  0  0  0  0  0  0
    2.3641   -0.9131    1.2981 H   0  0  0  0  0  0  0  0  0  0  0  0
    1.5711    0.5461    1.9254 H   0  0  0  0  0  0  0  0  0  0  0  0
    0.7796   -2.5539   -0.9461 N   0  0  0  0  0  0  0  0  0  0  0  0
    1.1549   -3.9222   -1.3299 C   0  0  2  0  0  0  0  0  0  0  0  0
    2.4812   -3.9269   -2.1179 C   0  0  0  0  0  0  0  0  0  0  0  0
    2.9251   -2.8790   -2.5777 O   0  0  0  0  0  0  0  0  0  0  0  0
    0.0186   -4.5154   -2.1667 C   0  0  0  0  0  0  0  0  0  0  0  0
    1.2172   -1.8112   -1.4896 H   0  0  0  0  0  0  0  0  0  0  0  0
    1.3056   -4.5412   -0.4388 H   0  0  0  0  0  0  0  0  0  0  0  0
   -0.1383   -3.9242   -3.0747 H   0  0  0  0  0  0  0  0  0  0  0  0
    0.2506   -5.5448   -2.4554 H   0  0  0  0  0  0  0  0  0  0  0  0
   -0.9112   -4.5211   -1.5890 H   0  0  0  0  0  0  0  0  0  0  0  0
    3.1927   -5.0995   -2.2913 N   0  0  0  0  0  0  0  0  0  0  0  0
    4.4827   -5.1594   -2.9680 C   0  0  0  0  0  0  0  0  0  0  0  0
    2.8252   -5.9409   -1.8559 H   0  0  0  0  0  0  0  0  0  0  0  0
    4.3956   -4.7879   -3.9946 H   0  0  0  0  0  0  0  0  0  0  0  0
    5.2226   -4.5531   -2.4350 H   0  0  0  0  0  0  0  0  0  0  0  0
    4.8434   -6.1919   -3.0044 H   0  0  0  0  0  0  0  0  0  0  0  0
  1  2  2  0  0  0  0
  1  3  1  0  0  0  0
  1  7  1  0  0  0  0
  3  4  1  0  0  0  0
  3  5  1  0  0  0  0
  3  6  1  0  0  0  0
  7  8  1  0  0  0  0
  7 12  1  0  0  0  0
  8  9  1  0  0  0  0
  8 11  1  0  0  0  0
  8 13  1  0  0  0  0
  9 10  2  0  0  0  0
  9 17  1  0  0  0  0
 11 14  1  0  0  0  0
 11 15  1  0  0  0  0
 11 16  1  0  0  0  0
 17 18  1  0  0  0  0
 17 22  1  0  0  0  0
 18 19  1  0  0  0  0
 18 21  1  0  0  0  0
 18 23  1  0  0  0  0
 19 20  2  0  0  0  0
 19 27  1  0  0  0  0
 21 24  1  0  0  0  0
 21 25  1  0  0  0  0
 21 26  1  0  0  0  0
 27 28  1  0  0  0  0
 27 32  1  0  0  0  0
 28 29  1  0  0  0  0
 28 31  1  0  0  0  0
 28 33  1  0  0  0  0
 29 30  2  0  0  0  0
 29 37  1  0  0  0  0
 31 34  1  0  0  0  0
 31 35  1  0  0  0  0
 31 36  1  0  0  0  0
 37 38  1  0  0  0  0
 37 39  1  0  0  0  0
 38 40  1  0  0  0  0
 38 41  1  0  0  0  0
 38 42  1  0  0  0  0
M  END
$$$$

  -OEChem-05262215353D

 42 41  0     1  0  0  0  0  0999 V2000
   -5.1967   -1.3850    1.7002 C   0  0  0  0  0  0  0  0  0  0  0  0
   -5.6551   -0.6530    0.8360 O   0  0  0  0  0  0  0  0  0  0  0  0
   -5.9044   -2.6778    2.0589 C   0  0  0  0  0  0  0  0  0  0  0  0
   -6.1939   -2.6651    3.1125 H   0  0  0  0  0  0  0  0  0  0  0  0
   -6.8029   -2.7987    1.4476 H   0  0  0  0  0  0  0  0  0  0  0  0
   -5.2398   -3.5269    1.8810 H   0  0  0  0  0  0  0  0  0  0  0  0
   -4.0300   -1.0443    2.3493 N   0  0  0  0  0  0  0  0  0  0  0  0
   -3.1486    0.0540    1.9379 C   0  0  2  0  0  0  0  0  0  0  0  0
   -1.6692   -0.3345    2.1299 C   0  0  0  0  0  0  0  0  0  0  0  0
   -1.3570   -1.1123    3.0246 O   0  0  0  0  0  0  0  0  0  0  0  0
   -3.4992    1.2942    2.7644 C   0  0  0  0  0  0  0  0  0  0  0  0
   -3.6115   -1.7536    2.9516 H   0  0  0  0  0  0  0  0  0  0  0  0
   -3.2962    0.2717    0.8748 H   0  0  0  0  0  0  0  0  0  0  0  0
   -3.3478    1.0975    3.8308 H   0  0  0  0  0  0  0  0  0  0  0  0
   -2.8709    2.1412    2.4733 H   0  0  0  0  0  0  0  0  0  0  0  0
   -4.5467    1.5696    2.6058 H   0  0  0  0  0  0  0  0  0  0  0  0
   -0.6713    0.3033    1.4114 N   0  0  0  0  0  0  0  0  0  0  0  0
    0.5235   -0.3888    0.8777 C   0  0  2  0  0  0  0  0  0  0  0  0
    0.4351   -1.8873    0.4591 C   0  0  0  0  0  0  0  0  0  0  0  0
   -0.5170   -2.6139    0.7103 O   0  0  0  0  0  0  0  0  0  0  0  0
    1.6359   -0.2347    1.9209 C   0  0  0  0  0  0  0  0  0  0  0  0
   -1.0402    1.0291    0.8052 H   0  0  0  0  0  0  0  0  0  0  0  0
    0.8253    0.1542   -0.0228 H   0  0  0  0  0  0  0  0  0  0  0  0
    1.3864   -0.7915    2.8303 H   0  0  0  0  0  0  0  0  0  0  0  0
    2.5857   -0.6147    1.5321 H   0  0  0  0  0  0  0  0  0  0  0  0
    1.7687    0.8186    2.1858 H   0  0  0  0  0  0  0  0  0  0  0  0
    1.2731   -2.3154   -0.5553 N   0  0  0  0  0  0  0  0  0  0  0  0
    1.3212   -3.6924   -1.0662 C   0  0  2  0  0  0  0  0  0  0  0  0
    2.7743   -4.1282   -1.3491 C   0  0  0  0  0  0  0  0  0  0  0  0
    3.6745   -3.2942   -1.3517 O   0  0  0  0  0  0  0  0  0  0  0  0
    0.4701   -3.7639   -2.3372 C   0  0  0  0  0  0  0  0  0  0  0  0
    2.1078   -1.7553   -0.7255 H   0  0  0  0  0  0  0  0  0  0  0  0
    0.9143   -4.3849   -0.3214 H   0  0  0  0  0  0  0  0  0  0  0  0
    0.8720   -3.0962   -3.1059 H   0  0  0  0  0  0  0  0  0  0  0  0
    0.4546   -4.7835   -2.7334 H   0  0  0  0  0  0  0  0  0  0  0  0
   -0.5599   -3.4642   -2.1181 H   0  0  0  0  0  0  0  0  0  0  0  0
    3.0781   -5.4572   -1.5806 N   0  0  0  0  0  0  0  0  0  0  0  0
    4.4364   -5.9436   -1.7937 C   0  0  0  0  0  0  0  0  0  0  0  0
    2.3188   -6.1298   -1.5205 H   0  0  0  0  0  0  0  0  0  0  0  0
    4.9227   -5.3888   -2.6035 H   0  0  0  0  0  0  0  0  0  0  0  0
    5.0312   -5.8289   -0.8812 H   0  0  0  0  0  0  0  0  0  0  0  0
    4.4198   -7.0032   -2.0670 H   0  0  0  0  0  0  0  0  0  0  0  0
  1  2  2  0  0  0  0
  1  3  1  0  0  0  0
  1  7  1  0  0  0  0
  3  4  1  0  0  0  0
  3  5  1  0  0  0  0
  3  6  1  0  0  0  0
  7  8  1  0  0  0  0
  7 12  1  0  0  0  0
  8  9  1  0  0  0  0
  8 11  1  0  0  0  0
  8 13  1  0  0  0  0
  9 10  2  0  0  0  0
  9 17  1  0  0  0  0
 11 14  1  0  0  0  0
 11 15  1  0  0  0  0
 11 16  1  0  0  0  0
 17 18  1  0  0  0  0
 17 22  1  0  0  0  0
 18 19  1  0  0  0  0
 18 21  1  0  0  0  0
 18 23  1  0  0  0  0
 19 20  2  0  0  0  0
 19 27  1  0  0  0  0
 21 24  1  0  0  0  0
 21 25  1  0  0  0  0
 21 26  1  0  0  0  0
 27 28  1  0  0  0  0
 27 32  1  0  0  0  0
 28 29  1  0  0  0  0
 28 31  1  0  0  0  0
 28 33  1  0  0  0  0
 29 30  2  0  0  0  0
 29 37  1  0  0  0  0
 31 34  1  0  0  0  0
 31 35  1  0  0  0  0
 31 36  1  0  0  0  0
 37 38  1  0  0  0  0
 37 39  1  0  0  0  0
 38 40  1  0  0  0  0
 38 41  1  0  0  0  0
 38 42  1  0  0  0  0
M  END
$$$$

  -OEChem-05262215353D

 42 41  0     1  0  0  0  0  0999 V2000
   -5.1502   -1.4284    1.7258 C   0  0  0  0  0  0  0  0  0  0  0  0
   -5.6594   -0.6902    0.8960 O   0  0  0  0  0  0  0  0  0  0  0  0
   -5.8002   -2.7570    2.0634 C   0  0  0  0  0  0  0  0  0  0  0  0
   -6.0162   -2.8062    3.1333 H   0  0  0  0  0  0  0  0  0  0  0  0
   -6.7356   -2.8712    1.5088 H   0  0  0  0  0  0  0  0  0  0  0  0
   -5.1295   -3.5775    1.7967 H   0  0  0  0  0  0  0  0  0  0  0  0
   -3.9788   -1.0633    2.3535 N   0  0  0  0  0  0  0  0  0  0  0  0
   -3.1430    0.0687    1.9390 C   0  0  2  0  0  0  0  0  0  0  0  0
   -1.6481   -0.2704    2.1010 C   0  0  0  0  0  0  0  0  0  0  0  0
   -1.2912   -1.0546    2.9746 O   0  0  0  0  0  0  0  0  0  0  0  0
   -3.5209    1.2903    2.7803 C   0  0  0  0  0  0  0  0  0  0  0  0
   -3.5202   -1.7728    2.9254 H   0  0  0  0  0  0  0  0  0  0  0  0
   -3.3164    0.2899    0.8808 H   0  0  0  0  0  0  0  0  0  0  0  0
   -3.3516    1.0897    3.8433 H   0  0  0  0  0  0  0  0  0  0  0  0
   -2.9214    2.1577    2.4888 H   0  0  0  0  0  0  0  0  0  0  0  0
   -4.5777    1.5362    2.6349 H   0  0  0  0  0  0  0  0  0  0  0  0
   -0.6870    0.3791    1.3429 N   0  0  0  0  0  0  0  0  0  0  0  0
    0.5262   -0.2967    0.8322 C   0  0  2  0  0  0  0  0  0  0  0  0
    0.4613   -1.8162    0.4962 C   0  0  0  0  0  0  0  0  0  0  0  0
   -0.5900   -2.4460    0.4917 O   0  0  0  0  0  0  0  0  0  0  0  0
    1.6412   -0.0474    1.8560 C   0  0  0  0  0  0  0  0  0  0  0  0
   -1.0877    1.0655    0.7112 H   0  0  0  0  0  0  0  0  0  0  0  0
    0.8041    0.2007   -0.1017 H   0  0  0  0  0  0  0  0  0  0  0  0
    1.4188   -0.5623    2.7966 H   0  0  0  0  0  0  0  0  0  0  0  0
    2.6027   -0.4114    1.4815 H   0  0  0  0  0  0  0  0  0  0  0  0
    1.7368    1.0232    2.0618 H   0  0  0  0  0  0  0  0  0  0  0  0
    1.4881   -2.3535   -0.2599 N   0  0  0  0  0  0  0  0  0  0  0  0
    1.5387   -3.7480   -0.7200 C   0  0  2  0  0  0  0  0  0  0  0  0
    2.9718   -4.3114   -0.6320 C   0  0  0  0  0  0  0  0  0  0  0  0
    3.9201   -3.5517   -0.4619 O   0  0  0  0  0  0  0  0  0  0  0  0
    1.0235   -3.7969   -2.1612 C   0  0  0  0  0  0  0  0  0  0  0  0
    2.3842   -1.8686   -0.2240 H   0  0  0  0  0  0  0  0  0  0  0  0
    0.9022   -4.3761   -0.0873 H   0  0  0  0  0  0  0  0  0  0  0  0
    1.6549   -3.1864   -2.8146 H   0  0  0  0  0  0  0  0  0  0  0  0
    1.0238   -4.8247   -2.5359 H   0  0  0  0  0  0  0  0  0  0  0  0
   -0.0010   -3.4138   -2.2091 H   0  0  0  0  0  0  0  0  0  0  0  0
    3.1979   -5.6716   -0.7317 N   0  0  0  0  0  0  0  0  0  0  0  0
    4.5204   -6.2741   -0.6179 C   0  0  0  0  0  0  0  0  0  0  0  0
    2.3883   -6.2768   -0.8337 H   0  0  0  0  0  0  0  0  0  0  0  0
    5.1989   -5.8556   -1.3687 H   0  0  0  0  0  0  0  0  0  0  0  0
    4.9401   -6.0912    0.3767 H   0  0  0  0  0  0  0  0  0  0  0  0
    4.4585   -7.3555   -0.7744 H   0  0  0  0  0  0  0  0  0  0  0  0
  1  2  2  0  0  0  0
  1  3  1  0  0  0  0
  1  7  1  0  0  0  0
  3  4  1  0  0  0  0
  3  5  1  0  0  0  0
  3  6  1  0  0  0  0
  7  8  1  0  0  0  0
  7 12  1  0  0  0  0
  8  9  1  0  0  0  0
  8 11  1  0  0  0  0
  8 13  1  0  0  0  0
  9 10  2  0  0  0  0
  9 17  1  0  0  0  0
 11 14  1  0  0  0  0
 11 15  1  0  0  0  0
 11 16  1  0  0  0  0
 17 18  1  0  0  0  0
 17 22  1  0  0  0  0
 18 19  1  0  0  0  0
 18 21  1  0  0  0  0
 18 23  1  0  0  0  0
 19 20  2  0  0  0  0
 19 27  1  0  0  0  0
 21 24  1  0  0  0  0
 21 25  1  0  0  0  0
 21 26  1  0  0  0  0
 27 28  1  0  0  0  0
 27 32  1  0  0  0  0
 28 29  1  0  0  0  0
 28 31  1  0  0  0  0
 28 33  1  0  0  0  0
 29 30  2  0  0  0  0
 29 37  1  0  0  0  0
 31 34  1  0  0  0  0
 31 35  1  0  0  0  0
 31 36  1  0  0  0  0
 37 38  1  0  0  0  0
 37 39  1  0  0  0  0
 38 40  1  0  0  0  0
 38 41  1  0  0  0  0
 38 42  1  0  0  0  0
M  END
$$$$

  -OEChem-05262215353D

 42 41  0     1  0  0  0  0  0999 V2000
   -5.2932   -1.2403    1.7764 C   0  0  0  0  0  0  0  0  0  0  0  0
   -5.8140   -0.3352    1.1429 O   0  0  0  0  0  0  0  0  0  0  0  0
   -6.0351   -2.5468    1.9886 C   0  0  0  0  0  0  0  0  0  0  0  0
   -6.1181   -2.7601    3.0572 H   0  0  0  0  0  0  0  0  0  0  0  0
   -7.0403   -2.4830    1.5624 H   0  0  0  0  0  0  0  0  0  0  0  0
   -5.4961   -3.3636    1.5018 H   0  0  0  0  0  0  0  0  0  0  0  0
   -4.0260   -1.0827    2.2945 N   0  0  0  0  0  0  0  0  0  0  0  0
   -3.1361    0.0379    1.9704 C   0  0  2  0  0  0  0  0  0  0  0  0
   -1.6623   -0.4150    1.9499 C   0  0  0  0  0  0  0  0  0  0  0  0
   -1.3187   -1.3904    2.6112 O   0  0  0  0  0  0  0  0  0  0  0  0
   -3.3459    1.1450    3.0065 C   0  0  0  0  0  0  0  0  0  0  0  0
   -3.5828   -1.9070    2.6996 H   0  0  0  0  0  0  0  0  0  0  0  0
   -3.3755    0.4226    0.9734 H   0  0  0  0  0  0  0  0  0  0  0  0
   -3.1114    0.7773    4.0106 H   0  0  0  0  0  0  0  0  0  0  0  0
   -2.6997    2.0006    2.7893 H   0  0  0  0  0  0  0  0  0  0  0  0
   -4.3867    1.4843    2.9923 H   0  0  0  0  0  0  0  0  0  0  0  0
   -0.7232    0.2991    1.2203 N   0  0  0  0  0  0  0  0  0  0  0  0
    0.5366   -0.2960    0.7295 C   0  0  2  0  0  0  0  0  0  0  0  0
    0.4085   -1.6949    0.0669 C   0  0  0  0  0  0  0  0  0  0  0  0
   -0.6755   -2.1186   -0.3202 O   0  0  0  0  0  0  0  0  0  0  0  0
    1.5561   -0.3178    1.8789 C   0  0  0  0  0  0  0  0  0  0  0  0
   -1.1222    1.0377    0.6491 H   0  0  0  0  0  0  0  0  0  0  0  0
    0.9298    0.3661   -0.0475 H   0  0  0  0  0  0  0  0  0  0  0  0
    1.2701   -1.0503    2.6402 H   0  0  0  0  0  0  0  0  0  0  0  0
    2.5517   -0.5786    1.5079 H   0  0  0  0  0  0  0  0  0  0  0  0
    1.6146    0.6671    2.3519 H   0  0  0  0  0  0  0  0  0  0  0  0
    1.5416   -2.3227   -0.4154 N   0  0  0  0  0  0  0  0  0  0  0  0
    1.5459   -3.6631   -1.0134 C   0  0  2  0  0  0  0  0  0  0  0  0
    2.8205   -4.4390   -0.6213 C   0  0  0  0  0  0  0  0  0  0  0  0
    3.7706   -3.8455   -0.1207 O   0  0  0  0  0  0  0  0  0  0  0  0
    1.4459   -3.5159   -2.5341 C   0  0  0  0  0  0  0  0  0  0  0  0
    2.4347   -2.0038   -0.0413 H   0  0  0  0  0  0  0  0  0  0  0  0
    0.6875   -4.2370   -0.6473 H   0  0  0  0  0  0  0  0  0  0  0  0
    2.3025   -2.9547   -2.9211 H   0  0  0  0  0  0  0  0  0  0  0  0
    1.4248   -4.4986   -3.0147 H   0  0  0  0  0  0  0  0  0  0  0  0
    0.5290   -2.9815   -2.8027 H   0  0  0  0  0  0  0  0  0  0  0  0
    2.9009   -5.8049   -0.8184 N   0  0  0  0  0  0  0  0  0  0  0  0
    4.0657   -6.6000   -0.4485 C   0  0  0  0  0  0  0  0  0  0  0  0
    2.0867   -6.2733   -1.2050 H   0  0  0  0  0  0  0  0  0  0  0  0
    4.9543   -6.2490   -0.9840 H   0  0  0  0  0  0  0  0  0  0  0  0
    4.2526   -6.5291    0.6284 H   0  0  0  0  0  0  0  0  0  0  0  0
    3.9017   -7.6518   -0.7028 H   0  0  0  0  0  0  0  0  0  0  0  0
  1  2  2  0  0  0  0
  1  3  1  0  0  0  0
  1  7  1  0  0  0  0
  3  4  1  0  0  0  0
  3  5  1  0  0  0  0
  3  6  1  0  0  0  0
  7  8  1  0  0  0  0
  7 12  1  0  0  0  0
  8  9  1  0  0  0  0
  8 11  1  0  0  0  0
  8 13  1  0  0  0  0
  9 10  2  0  0  0  0
  9 17  1  0  0  0  0
 11 14  1  0  0  0  0
 11 15  1  0  0  0  0
 11 16  1  0  0  0  0
 17 18  1  0  0  0  0
 17 22  1  0  0  0  0
 18 19  1  0  0  0  0
 18 21  1  0  0  0  0
 18 23  1  0  0  0  0
 19 20  2  0  0  0  0
 19 27  1  0  0  0  0
 21 24  1  0  0  0  0
 21 25  1  0  0  0  0
 21 26  1  0  0  0  0
 27 28  1  0  0  0  0
 27 32  1  0  0  0  0
 28 29  1  0  0  0  0
 28 31  1  0  0  0  0
 28 33  1  0  0  0  0
 29 30  2  0  0  0  0
 29 37  1  0  0  0  0
 31 34  1  0  0  0  0
 31 35  1  0  0  0  0
 31 36  1  0  0  0  0
 37 38  1  0  0  0  0
 37 39  1  0  0  0  0
 38 40  1  0  0  0  0
 38 41  1  0  0  0  0
 38 42  1  0  0  0  0
M  END
$$$$

  -OEChem-05262215353D

 42 41  0     1  0  0  0  0  0999 V2000
   -5.3044   -1.2278    1.8034 C   0  0  0  0  0  0  0  0  0  0  0  0
   -5.8245   -0.3230    1.1687 O   0  0  0  0  0  0  0  0  0  0  0  0
   -6.0613   -2.5210    2.0435 C   0  0  0  0  0  0  0  0  0  0  0  0
   -6.1556   -2.7060    3.1163 H   0  0  0  0  0  0  0  0  0  0  0  0
   -7.0622   -2.4590    1.6071 H   0  0  0  0  0  0  0  0  0  0  0  0
   -5.5275   -3.3556    1.5820 H   0  0  0  0  0  0  0  0  0  0  0  0
   -4.0239   -1.0824    2.2928 N   0  0  0  0  0  0  0  0  0  0  0  0
   -3.1274    0.0249    1.9401 C   0  0  2  0  0  0  0  0  0  0  0  0
   -1.6554   -0.4357    1.9080 C   0  0  0  0  0  0  0  0  0  0  0  0
   -1.3170   -1.4343    2.5369 O   0  0  0  0  0  0  0  0  0  0  0  0
   -3.3178    1.1506    2.9603 C   0  0  0  0  0  0  0  0  0  0  0  0
   -3.5855   -1.9053    2.7059 H   0  0  0  0  0  0  0  0  0  0  0  0
   -3.3768    0.3958    0.9401 H   0  0  0  0  0  0  0  0  0  0  0  0
   -3.0659    0.8012    3.9667 H   0  0  0  0  0  0  0  0  0  0  0  0
   -2.6775    2.0034    2.7161 H   0  0  0  0  0  0  0  0  0  0  0  0
   -4.3587    1.4891    2.9593 H   0  0  0  0  0  0  0  0  0  0  0  0
   -0.7128    0.2950    1.1997 N   0  0  0  0  0  0  0  0  0  0  0  0
    0.5682   -0.2764    0.7380 C   0  0  2  0  0  0  0  0  0  0  0  0
    0.4528   -1.6775    0.0786 C   0  0  0  0  0  0  0  0  0  0  0  0
   -0.5790   -2.0068   -0.4975 O   0  0  0  0  0  0  0  0  0  0  0  0
    1.5611   -0.2698    1.9117 C   0  0  0  0  0  0  0  0  0  0  0  0
   -1.1079    1.0346    0.6270 H   0  0  0  0  0  0  0  0  0  0  0  0
    0.9693    0.3856   -0.0351 H   0  0  0  0  0  0  0  0  0  0  0  0
    1.2740   -1.0037    2.6714 H   0  0  0  0  0  0  0  0  0  0  0  0
    2.5712   -0.5081    1.5657 H   0  0  0  0  0  0  0  0  0  0  0  0
    1.5863    0.7192    2.3792 H   0  0  0  0  0  0  0  0  0  0  0  0
    1.5770   -2.4587   -0.1141 N   0  0  0  0  0  0  0  0  0  0  0  0
    1.5416   -3.8272   -0.6433 C   0  0  2  0  0  0  0  0  0  0  0  0
    2.6232   -4.7052    0.0187 C   0  0  0  0  0  0  0  0  0  0  0  0
    3.5376   -4.1829    0.6485 O   0  0  0  0  0  0  0  0  0  0  0  0
    1.7451   -3.7703   -2.1599 C   0  0  0  0  0  0  0  0  0  0  0  0
    2.4002   -2.2184    0.4372 H   0  0  0  0  0  0  0  0  0  0  0  0
    0.5704   -4.2839   -0.4240 H   0  0  0  0  0  0  0  0  0  0  0  0
    2.7149   -3.3222   -2.3980 H   0  0  0  0  0  0  0  0  0  0  0  0
    1.7090   -4.7750   -2.5912 H   0  0  0  0  0  0  0  0  0  0  0  0
    0.9585   -3.1679   -2.6252 H   0  0  0  0  0  0  0  0  0  0  0  0
    2.5682   -6.0830   -0.0812 N   0  0  0  0  0  0  0  0  0  0  0  0
    3.5440   -6.9680    0.5425 C   0  0  0  0  0  0  0  0  0  0  0  0
    1.7846   -6.4886   -0.5846 H   0  0  0  0  0  0  0  0  0  0  0  0
    4.5459   -6.7724    0.1462 H   0  0  0  0  0  0  0  0  0  0  0  0
    3.5584   -6.8184    1.6273 H   0  0  0  0  0  0  0  0  0  0  0  0
    3.2908   -8.0133    0.3409 H   0  0  0  0  0  0  0  0  0  0  0  0
  1  2  2  0  0  0  0
  1  3  1  0  0  0  0
  1  7  1  0  0  0  0
  3  4  1  0  0  0  0
  3  5  1  0  0  0  0
  3  6  1  0  0  0  0
  7  8  1  0  0  0  0
  7 12  1  0  0  0  0
  8  9  1  0  0  0  0
  8 11  1  0  0  0  0
  8 13  1  0  0  0  0
  9 10  2  0  0  0  0
  9 17  1  0  0  0  0
 11 14  1  0  0  0  0
 11 15  1  0  0  0  0
 11 16  1  0  0  0  0
 17 18  1  0  0  0  0
 17 22  1  0  0  0  0
 18 19  1  0  0  0  0
 18 21  1  0  0  0  0
 18 23  1  0  0  0  0
 19 20  2  0  0  0  0
 19 27  1  0  0  0  0
 21 24  1  0  0  0  0
 21 25  1  0  0  0  0
 21 26  1  0  0  0  0
 27 28  1  0  0  0  0
 27 32  1  0  0  0  0
 28 29  1  0  0  0  0
 28 31  1  0  0  0  0
 28 33  1  0  0  0  0
 29 30  2  0  0  0  0
 29 37  1  0  0  0  0
 31 34  1  0  0  0  0
 31 35  1  0  0  0  0
 31 36  1  0  0  0  0
 37 38  1  0  0  0  0
 37 39  1  0  0  0  0
 38 40  1  0  0  0  0
 38 41  1  0  0  0  0
 38 42  1  0  0  0  0
M  END
$$$$

  -OEChem-05262215353D

 42 41  0     1  0  0  0  0  0999 V2000
   -5.2919   -1.2219    1.8072 C   0  0  0  0  0  0  0  0  0  0  0  0
   -5.8102   -0.3233    1.1629 O   0  0  0  0  0  0  0  0  0  0  0  0
   -6.0508   -2.5101    2.0634 C   0  0  0  0  0  0  0  0  0  0  0  0
   -6.1013   -2.7074    3.1368 H   0  0  0  0  0  0  0  0  0  0  0  0
   -7.0686   -2.4329    1.6709 H   0  0  0  0  0  0  0  0  0  0  0  0
   -5.5450   -3.3433    1.5696 H   0  0  0  0  0  0  0  0  0  0  0  0
   -4.0099   -1.0750    2.2916 N   0  0  0  0  0  0  0  0  0  0  0  0
   -3.1115    0.0246    1.9204 C   0  0  2  0  0  0  0  0  0  0  0  0
   -1.6406   -0.4393    1.8919 C   0  0  0  0  0  0  0  0  0  0  0  0
   -1.3115   -1.4563    2.4960 O   0  0  0  0  0  0  0  0  0  0  0  0
   -3.2980    1.1670    2.9225 C   0  0  0  0  0  0  0  0  0  0  0  0
   -3.5724   -1.8944    2.7124 H   0  0  0  0  0  0  0  0  0  0  0  0
   -3.3615    0.3798    0.9149 H   0  0  0  0  0  0  0  0  0  0  0  0
   -3.0437    0.8324    3.9333 H   0  0  0  0  0  0  0  0  0  0  0  0
   -2.6566    2.0145    2.6630 H   0  0  0  0  0  0  0  0  0  0  0  0
   -4.3381    1.5083    2.9194 H   0  0  0  0  0  0  0  0  0  0  0  0
   -0.6919    0.2962    1.1977 N   0  0  0  0  0  0  0  0  0  0  0  0
    0.5997   -0.2665    0.7580 C   0  0  2  0  0  0  0  0  0  0  0  0
    0.4852   -1.6687    0.1035 C   0  0  0  0  0  0  0  0  0  0  0  0
   -0.4602   -1.9151   -0.6383 O   0  0  0  0  0  0  0  0  0  0  0  0
    1.5747   -0.2472    1.9465 C   0  0  0  0  0  0  0  0  0  0  0  0
   -1.0773    1.0439    0.6283 H   0  0  0  0  0  0  0  0  0  0  0  0
    1.0097    0.3912   -0.0140 H   0  0  0  0  0  0  0  0  0  0  0  0
    1.2757   -0.9739    2.7088 H   0  0  0  0  0  0  0  0  0  0  0  0
    2.5902   -0.4878    1.6172 H   0  0  0  0  0  0  0  0  0  0  0  0
    1.5919    0.7464    2.4047 H   0  0  0  0  0  0  0  0  0  0  0  0
    1.5132   -2.5889    0.1877 N   0  0  0  0  0  0  0  0  0  0  0  0
    1.4074   -3.9767   -0.2774 C   0  0  2  0  0  0  0  0  0  0  0  0
    2.2471   -4.9229    0.6057 C   0  0  0  0  0  0  0  0  0  0  0  0
    3.0901   -4.4644    1.3702 O   0  0  0  0  0  0  0  0  0  0  0  0
    1.8718   -4.0439   -1.7354 C   0  0  0  0  0  0  0  0  0  0  0  0
    2.2238   -2.4130    0.8976 H   0  0  0  0  0  0  0  0  0  0  0  0
    0.3651   -4.3076   -0.2131 H   0  0  0  0  0  0  0  0  0  0  0  0
    2.9159   -3.7261   -1.8191 H   0  0  0  0  0  0  0  0  0  0  0  0
    1.7854   -5.0645   -2.1196 H   0  0  0  0  0  0  0  0  0  0  0  0
    1.2568   -3.3886   -2.3604 H   0  0  0  0  0  0  0  0  0  0  0  0
    2.0501   -6.2905    0.5550 N   0  0  0  0  0  0  0  0  0  0  0  0
    2.7809   -7.2339    1.3924 C   0  0  0  0  0  0  0  0  0  0  0  0
    1.3186   -6.6383   -0.0581 H   0  0  0  0  0  0  0  0  0  0  0  0
    3.8574   -7.1550    1.2078 H   0  0  0  0  0  0  0  0  0  0  0  0
    2.5898   -7.0339    2.4520 H   0  0  0  0  0  0  0  0  0  0  0  0
    2.4671   -8.2586    1.1717 H   0  0  0  0  0  0  0  0  0  0  0  0
  1  2  2  0  0  0  0
  1  3  1  0  0  0  0
  1  7  1  0  0  0  0
  3  4  1  0  0  0  0
  3  5  1  0  0  0  0
  3  6  1  0  0  0  0
  7  8  1  0  0  0  0
  7 12  1  0  0  0  0
  8  9  1  0  0  0  0
  8 11  1  0  0  0  0
  8 13  1  0  0  0  0
  9 10  2  0  0  0  0
  9 17  1  0  0  0  0
 11 14  1  0  0  0  0
 11 15  1  0  0  0  0
 11 16  1  0  0  0  0
 17 18  1  0  0  0  0
 17 22  1  0  0  0  0
 18 19  1  0  0  0  0
 18 21  1  0  0  0  0
 18 23  1  0  0  0  0
 19 20  2  0  0  0  0
 19 27  1  0  0  0  0
 21 24  1  0  0  0  0
 21 25  1  0  0  0  0
 21 26  1  0  0  0  0
 27 28  1  0  0  0  0
 27 32  1  0  0  0  0
 28 29  1  0  0  0  0
 28 31  1  0  0  0  0
 28 33  1  0  0  0  0
 29 30  2  0  0  0  0
 29 37  1  0  0  0  0
 31 34  1  0  0  0  0
 31 35  1  0  0  0  0
 31 36  1  0  0  0  0
 37 38  1  0  0  0  0
 37 39  1  0  0  0  0
 38 40  1  0  0  0  0
 38 41  1  0  0  0  0
 38 42  1  0  0  0  0
M  END
$$$$

  -OEChem-05262215353D

 42 41  0     1  0  0  0  0  0999 V2000
   -5.3292   -1.1730    1.8223 C   0  0  0  0  0  0  0  0  0  0  0  0
   -5.8364   -0.2530    1.1998 O   0  0  0  0  0  0  0  0  0  0  0  0
   -6.1242   -2.4357    2.0972 C   0  0  0  0  0  0  0  0  0  0  0  0
   -6.1956   -2.6036    3.1744 H   0  0  0  0  0  0  0  0  0  0  0  0
   -7.1338   -2.3431    1.6867 H   0  0  0  0  0  0  0  0  0  0  0  0
   -5.6327   -3.2943    1.6330 H   0  0  0  0  0  0  0  0  0  0  0  0
   -4.0301   -1.0707    2.2720 N   0  0  0  0  0  0  0  0  0  0  0  0
   -3.1112    0.0141    1.9054 C   0  0  2  0  0  0  0  0  0  0  0  0
   -1.6498   -0.4777    1.8542 C   0  0  0  0  0  0  0  0  0  0  0  0
   -1.3365   -1.5169    2.4277 O   0  0  0  0  0  0  0  0  0  0  0  0
   -3.2591    1.1473    2.9253 C   0  0  0  0  0  0  0  0  0  0  0  0
   -3.6105   -1.9025    2.6864 H   0  0  0  0  0  0  0  0  0  0  0  0
   -3.3657    0.3882    0.9078 H   0  0  0  0  0  0  0  0  0  0  0  0
   -2.9993    0.7954    3.9289 H   0  0  0  0  0  0  0  0  0  0  0  0
   -2.6020    1.9833    2.6680 H   0  0  0  0  0  0  0  0  0  0  0  0
   -4.2910    1.5121    2.9399 H   0  0  0  0  0  0  0  0  0  0  0  0
   -0.6911    0.2606    1.1772 N   0  0  0  0  0  0  0  0  0  0  0  0
    0.6156   -0.2864    0.7657 C   0  0  2  0  0  0  0  0  0  0  0  0
    0.5208   -1.6914    0.1152 C   0  0  0  0  0  0  0  0  0  0  0  0
   -0.2921   -1.8776   -0.7837 O   0  0  0  0  0  0  0  0  0  0  0  0
    1.5680   -0.2448    1.9717 C   0  0  0  0  0  0  0  0  0  0  0  0
   -1.0597    1.0286    0.6239 H   0  0  0  0  0  0  0  0  0  0  0  0
    1.0314    0.3707   -0.0042 H   0  0  0  0  0  0  0  0  0  0  0  0
    1.2429   -0.9407    2.7518 H   0  0  0  0  0  0  0  0  0  0  0  0
    2.5846   -0.5122    1.6677 H   0  0  0  0  0  0  0  0  0  0  0  0
    1.5934    0.7626    2.3980 H   0  0  0  0  0  0  0  0  0  0  0  0
    1.3870   -2.7140    0.4543 N   0  0  0  0  0  0  0  0  0  0  0  0
    1.2162   -4.1068    0.0260 C   0  0  2  0  0  0  0  0  0  0  0  0
    1.7582   -5.0842    1.0901 C   0  0  0  0  0  0  0  0  0  0  0  0
    2.5200   -4.6831    1.9642 O   0  0  0  0  0  0  0  0  0  0  0  0
    1.9429   -4.3048   -1.3073 C   0  0  0  0  0  0  0  0  0  0  0  0
    1.9431   -2.5749    1.2978 H   0  0  0  0  0  0  0  0  0  0  0  0
    0.1503   -4.3222   -0.1060 H   0  0  0  0  0  0  0  0  0  0  0  0
    3.0127   -4.1037   -1.1931 H   0  0  0  0  0  0  0  0  0  0  0  0
    1.8162   -5.3308   -1.6648 H   0  0  0  0  0  0  0  0  0  0  0  0
    1.5389   -3.6243   -2.0635 H   0  0  0  0  0  0  0  0  0  0  0  0
    1.3879   -6.4164    1.0735 N   0  0  0  0  0  0  0  0  0  0  0  0
    1.8395   -7.3838    2.0664 C   0  0  0  0  0  0  0  0  0  0  0  0
    0.7266   -6.7122    0.3614 H   0  0  0  0  0  0  0  0  0  0  0  0
    2.9298   -7.4821    2.0372 H   0  0  0  0  0  0  0  0  0  0  0  0
    1.5408   -7.0689    3.0720 H   0  0  0  0  0  0  0  0  0  0  0  0
    1.3987   -8.3653    1.8668 H   0  0  0  0  0  0  0  0  0  0  0  0
  1  2  2  0  0  0  0
  1  3  1  0  0  0  0
  1  7  1  0  0  0  0
  3  4  1  0  0  0  0
  3  5  1  0  0  0  0
  3  6  1  0  0  0  0
  7  8  1  0  0  0  0
  7 12  1  0  0  0  0
  8  9  1  0  0  0  0
  8 11  1  0  0  0  0
  8 13  1  0  0  0  0
  9 10  2  0  0  0  0
  9 17  1  0  0  0  0
 11 14  1  0  0  0  0
 11 15  1  0  0  0  0
 11 16  1  0  0  0  0
 17 18  1  0  0  0  0
 17 22  1  0  0  0  0
 18 19  1  0  0  0  0
 18 21  1  0  0  0  0
 18 23  1  0  0  0  0
 19 20  2  0  0  0  0
 19 27  1  0  0  0  0
 21 24  1  0  0  0  0
 21 25  1  0  0  0  0
 21 26  1  0  0  0  0
 27 28  1  0  0  0  0
 27 32  1  0  0  0  0
 28 29  1  0  0  0  0
 28 31  1  0  0  0  0
 28 33  1  0  0  0  0
 29 30  2  0  0  0  0
 29 37  1  0  0  0  0
 31 34  1  0  0  0  0
 31 35  1  0  0  0  0
 31 36  1  0  0  0  0
 37 38  1  0  0  0  0
 37 39  1  0  0  0  0
 38 40  1  0  0  0  0
 38 41  1  0  0  0  0
 38 42  1  0  0  0  0
M  END
$$$$

  -OEChem-05262215353D

 42 41  0     1  0  0  0  0  0999 V2000
   -5.3459   -1.1301    1.8213 C   0  0  0  0  0  0  0  0  0  0  0  0
   -5.8351   -0.2076    1.1885 O   0  0  0  0  0  0  0  0  0  0  0  0
   -6.1652   -2.3741    2.1097 C   0  0  0  0  0  0  0  0  0  0  0  0
   -6.1899   -2.5643    3.1854 H   0  0  0  0  0  0  0  0  0  0  0  0
   -7.1900   -2.2417    1.7517 H   0  0  0  0  0  0  0  0  0  0  0  0
   -5.7238   -3.2361    1.6037 H   0  0  0  0  0  0  0  0  0  0  0  0
   -4.0435   -1.0481    2.2655 N   0  0  0  0  0  0  0  0  0  0  0  0
   -3.1091    0.0241    1.9006 C   0  0  2  0  0  0  0  0  0  0  0  0
   -1.6549   -0.4887    1.8470 C   0  0  0  0  0  0  0  0  0  0  0  0
   -1.3591   -1.5378    2.4110 O   0  0  0  0  0  0  0  0  0  0  0  0
   -3.2432    1.1542    2.9253 C   0  0  0  0  0  0  0  0  0  0  0  0
   -3.6384   -1.8813    2.6914 H   0  0  0  0  0  0  0  0  0  0  0  0
   -3.3582    0.4059    0.9045 H   0  0  0  0  0  0  0  0  0  0  0  0
   -3.0028    0.7899    3.9294 H   0  0  0  0  0  0  0  0  0  0  0  0
   -2.5653    1.9775    2.6809 H   0  0  0  0  0  0  0  0  0  0  0  0
   -4.2675    1.5408    2.9304 H   0  0  0  0  0  0  0  0  0  0  0  0
   -0.6851    0.2360    1.1716 N   0  0  0  0  0  0  0  0  0  0  0  0
    0.6255   -0.3151    0.7803 C   0  0  2  0  0  0  0  0  0  0  0  0
    0.5335   -1.7264    0.1467 C   0  0  0  0  0  0  0  0  0  0  0  0
   -0.1071   -1.8670   -0.8888 O   0  0  0  0  0  0  0  0  0  0  0  0
    1.5671   -0.2593    1.9941 C   0  0  0  0  0  0  0  0  0  0  0  0
   -1.0375    1.0143    0.6218 H   0  0  0  0  0  0  0  0  0  0  0  0
    1.0504    0.3304    0.0054 H   0  0  0  0  0  0  0  0  0  0  0  0
    1.2086   -0.9070    2.8007 H   0  0  0  0  0  0  0  0  0  0  0  0
    2.5747   -0.5798    1.7113 H   0  0  0  0  0  0  0  0  0  0  0  0
    1.6283    0.7639    2.3769 H   0  0  0  0  0  0  0  0  0  0  0  0
    1.1700   -2.8211    0.7002 N   0  0  0  0  0  0  0  0  0  0  0  0
    0.9295   -4.2058    0.2815 C   0  0  2  0  0  0  0  0  0  0  0  0
    1.1364   -5.1850    1.4557 C   0  0  0  0  0  0  0  0  0  0  0  0
    1.7650   -4.8361    2.4497 O   0  0  0  0  0  0  0  0  0  0  0  0
    1.8776   -4.5427   -0.8731 C   0  0  0  0  0  0  0  0  0  0  0  0
    1.5230   -2.7006    1.6498 H   0  0  0  0  0  0  0  0  0  0  0  0
   -0.1072   -4.3115   -0.0559 H   0  0  0  0  0  0  0  0  0  0  0  0
    2.9194   -4.4333   -0.5554 H   0  0  0  0  0  0  0  0  0  0  0  0
    1.7210   -5.5713   -1.2110 H   0  0  0  0  0  0  0  0  0  0  0  0
    1.6986   -3.8712   -1.7188 H   0  0  0  0  0  0  0  0  0  0  0  0
    0.6175   -6.4654    1.3983 N   0  0  0  0  0  0  0  0  0  0  0  0
    0.7582   -7.4339    2.4787 C   0  0  0  0  0  0  0  0  0  0  0  0
    0.0767   -6.7176    0.5762 H   0  0  0  0  0  0  0  0  0  0  0  0
    1.8167   -7.6237    2.6869 H   0  0  0  0  0  0  0  0  0  0  0  0
    0.2799   -7.0623    3.3913 H   0  0  0  0  0  0  0  0  0  0  0  0
    0.2860   -8.3814    2.2015 H   0  0  0  0  0  0  0  0  0  0  0  0
  1  2  2  0  0  0  0
  1  3  1  0  0  0  0
  1  7  1  0  0  0  0
  3  4  1  0  0  0  0
  3  5  1  0  0  0  0
  3  6  1  0  0  0  0
  7  8  1  0  0  0  0
  7 12  1  0  0  0  0
  8  9  1  0  0  0  0
  8 11  1  0  0  0  0
  8 13  1  0  0  0  0
  9 10  2  0  0  0  0
  9 17  1  0  0  0  0
 11 14  1  0  0  0  0
 11 15  1  0  0  0  0
 11 16  1  0  0  0  0
 17 18  1  0  0  0  0
 17 22  1  0  0  0  0
 18 19  1  0  0  0  0
 18 21  1  0  0  0  0
 18 23  1  0  0  0  0
 19 20  2  0  0  0  0
 19 27  1  0  0  0  0
 21 24  1  0  0  0  0
 21 25  1  0  0  0  0
 21 26  1  0  0  0  0
 27 28  1  0  0  0  0
 27 32  1  0  0  0  0
 28 29  1  0  0  0  0
 28 31  1  0  0  0  0
 28 33  1  0  0  0  0
 29 30  2  0  0  0  0
 29 37  1  0  0  0  0
 31 34  1  0  0  0  0
 31 35  1  0  0  0  0
 31 36  1  0  0  0  0
 37 38  1  0  0  0  0
 37 39  1  0  0  0  0
 38 40  1  0  0  0  0
 38 41  1  0  0  0  0
 38 42  1  0  0  0  0
M  END
$$$$

  -OEChem-05262215353D

 42 41  0     1  0  0  0  0  0999 V2000
   -5.3964   -1.0532    1.8698 C   0  0  0  0  0  0  0  0  0  0  0  0
   -5.8657   -0.1641    1.1772 O   0  0  0  0  0  0  0  0  0  0  0  0
   -6.2298   -2.2737    2.2123 C   0  0  0  0  0  0  0  0  0  0  0  0
   -6.3189   -2.3717    3.2970 H   0  0  0  0  0  0  0  0  0  0  0  0
   -7.2312   -2.1803    1.7826 H   0  0  0  0  0  0  0  0  0  0  0  0
   -5.7566   -3.1724    1.8092 H   0  0  0  0  0  0  0  0  0  0  0  0
   -4.1005   -0.9593    2.3300 N   0  0  0  0  0  0  0  0  0  0  0  0
   -3.1421    0.0656    1.8978 C   0  0  2  0  0  0  0  0  0  0  0  0
   -1.7070   -0.4979    1.8345 C   0  0  0  0  0  0  0  0  0  0  0  0
   -1.4446   -1.5590    2.3909 O   0  0  0  0  0  0  0  0  0  0  0  0
   -3.2206    1.2427    2.8744 C   0  0  0  0  0  0  0  0  0  0  0  0
   -3.7103   -1.7792    2.7940 H   0  0  0  0  0  0  0  0  0  0  0  0
   -3.4008    0.4135    0.8918 H   0  0  0  0  0  0  0  0  0  0  0  0
   -2.9538    0.9189    3.8856 H   0  0  0  0  0  0  0  0  0  0  0  0
   -2.5364    2.0412    2.5717 H   0  0  0  0  0  0  0  0  0  0  0  0
   -4.2369    1.6494    2.8953 H   0  0  0  0  0  0  0  0  0  0  0  0
   -0.7129    0.1960    1.1638 N   0  0  0  0  0  0  0  0  0  0  0  0
    0.5999   -0.3695    0.8002 C   0  0  2  0  0  0  0  0  0  0  0  0
    0.5251   -1.7897    0.1849 C   0  0  0  0  0  0  0  0  0  0  0  0
    0.1333   -1.9087   -0.9697 O   0  0  0  0  0  0  0  0  0  0  0  0
    1.5209   -0.3065    2.0285 C   0  0  0  0  0  0  0  0  0  0  0  0
   -1.0275    1.0077    0.6398 H   0  0  0  0  0  0  0  0  0  0  0  0
    1.0418    0.2650    0.0256 H   0  0  0  0  0  0  0  0  0  0  0  0
    1.1234   -0.9097    2.8510 H   0  0  0  0  0  0  0  0  0  0  0  0
    2.5189   -0.6783    1.7754 H   0  0  0  0  0  0  0  0  0  0  0  0
    1.6164    0.7267    2.3757 H   0  0  0  0  0  0  0  0  0  0  0  0
    0.8828   -2.9186    0.8981 N   0  0  0  0  0  0  0  0  0  0  0  0
    0.6331   -4.2905    0.4424 C   0  0  2  0  0  0  0  0  0  0  0  0
    0.4532   -5.2551    1.6334 C   0  0  0  0  0  0  0  0  0  0  0  0
    0.8661   -4.9516    2.7475 O   0  0  0  0  0  0  0  0  0  0  0  0
    1.8059   -4.7399   -0.4347 C   0  0  0  0  0  0  0  0  0  0  0  0
    0.9592   -2.7940    1.9087 H   0  0  0  0  0  0  0  0  0  0  0  0
   -0.2910   -4.3175   -0.1444 H   0  0  0  0  0  0  0  0  0  0  0  0
    2.7391   -4.7207    0.1373 H   0  0  0  0  0  0  0  0  0  0  0  0
    1.6424   -5.7571   -0.8027 H   0  0  0  0  0  0  0  0  0  0  0  0
    1.9123   -4.0752   -1.2977 H   0  0  0  0  0  0  0  0  0  0  0  0
   -0.1695   -6.4771    1.4543 N   0  0  0  0  0  0  0  0  0  0  0  0
   -0.3894   -7.4295    2.5361 C   0  0  0  0  0  0  0  0  0  0  0  0
   -0.5183   -6.6956    0.5257 H   0  0  0  0  0  0  0  0  0  0  0  0
    0.5654   -7.7406    2.9731 H   0  0  0  0  0  0  0  0  0  0  0  0
   -1.0069   -6.9814    3.3219 H   0  0  0  0  0  0  0  0  0  0  0  0
   -0.9029   -8.3191    2.1587 H   0  0  0  0  0  0  0  0  0  0  0  0
  1  2  2  0  0  0  0
  1  3  1  0  0  0  0
  1  7  1  0  0  0  0
  3  4  1  0  0  0  0
  3  5  1  0  0  0  0
  3  6  1  0  0  0  0
  7  8  1  0  0  0  0
  7 12  1  0  0  0  0
  8  9  1  0  0  0  0
  8 11  1  0  0  0  0
  8 13  1  0  0  0  0
  9 10  2  0  0  0  0
  9 17  1  0  0  0  0
 11 14  1  0  0  0  0
 11 15  1  0  0  0  0
 11 16  1  0  0  0  0
 17 18  1  0  0  0  0
 17 22  1  0  0  0  0
 18 19  1  0  0  0  0
 18 21  1  0  0  0  0
 18 23  1  0  0  0  0
 19 20  2  0  0  0  0
 19 27  1  0  0  0  0
 21 24  1  0  0  0  0
 21 25  1  0  0  0  0
 21 26  1  0  0  0  0
 27 28  1  0  0  0  0
 27 32  1  0  0  0  0
 28 29  1  0  0  0  0
 28 31  1  0  0  0  0
 28 33  1  0  0  0  0
 29 30  2  0  0  0  0
 29 37  1  0  0  0  0
 31 34  1  0  0  0  0
 31 35  1  0  0  0  0
 31 36  1  0  0  0  0
 37 38  1  0  0  0  0
 37 39  1  0  0  0  0
 38 40  1  0  0  0  0
 38 41  1  0  0  0  0
 38 42  1  0  0  0  0
M  END
$$$$

  -OEChem-05262215353D

 42 41  0     1  0  0  0  0  0999 V2000
   -5.3585   -1.0039    1.8361 C   0  0  0  0  0  0  0  0  0  0  0  0
   -5.7900   -0.1584    1.0683 O   0  0  0  0  0  0  0  0  0  0  0  0
   -6.1826   -2.2378    2.1519 C   0  0  0  0  0  0  0  0  0  0  0  0
   -6.3878   -2.2843    3.2241 H   0  0  0  0  0  0  0  0  0  0  0  0
   -7.1328   -2.2054    1.6115 H   0  0  0  0  0  0  0  0  0  0  0  0
   -5.6375   -3.1366    1.8527 H   0  0  0  0  0  0  0  0  0  0  0  0
   -4.1134   -0.8506    2.4077 N   0  0  0  0  0  0  0  0  0  0  0  0
   -3.1414    0.1769    2.0126 C   0  0  2  0  0  0  0  0  0  0  0  0
   -1.7214   -0.4165    1.9100 C   0  0  0  0  0  0  0  0  0  0  0  0
   -1.4485   -1.4416    2.5239 O   0  0  0  0  0  0  0  0  0  0  0  0
   -3.1856    1.2997    3.0519 C   0  0  0  0  0  0  0  0  0  0  0  0
   -3.7436   -1.6471    2.9266 H   0  0  0  0  0  0  0  0  0  0  0  0
   -3.4002    0.5849    1.0297 H   0  0  0  0  0  0  0  0  0  0  0  0
   -2.9209    0.9149    4.0422 H   0  0  0  0  0  0  0  0  0  0  0  0
   -2.4832    2.0960    2.7883 H   0  0  0  0  0  0  0  0  0  0  0  0
   -4.1916    1.7286    3.1017 H   0  0  0  0  0  0  0  0  0  0  0  0
   -0.7457    0.2123    1.1541 N   0  0  0  0  0  0  0  0  0  0  0  0
    0.5261   -0.4117    0.7393 C   0  0  2  0  0  0  0  0  0  0  0  0
    0.3939   -1.8536    0.1857 C   0  0  0  0  0  0  0  0  0  0  0  0
    0.2611   -2.0062   -1.0223 O   0  0  0  0  0  0  0  0  0  0  0  0
    1.5206   -0.3389    1.9072 C   0  0  0  0  0  0  0  0  0  0  0  0
   -1.0661    1.0074    0.6082 H   0  0  0  0  0  0  0  0  0  0  0  0
    0.9402    0.1850   -0.0800 H   0  0  0  0  0  0  0  0  0  0  0  0
    1.1672   -0.9189    2.7653 H   0  0  0  0  0  0  0  0  0  0  0  0
    2.4941   -0.7339    1.6005 H   0  0  0  0  0  0  0  0  0  0  0  0
    1.6540    0.6992    2.2258 H   0  0  0  0  0  0  0  0  0  0  0  0
    0.4720   -2.9671    1.0011 N   0  0  0  0  0  0  0  0  0  0  0  0
    0.2476   -4.3408    0.5341 C   0  0  2  0  0  0  0  0  0  0  0  0
   -0.3416   -5.2421    1.6397 C   0  0  0  0  0  0  0  0  0  0  0  0
   -0.2340   -4.9360    2.8213 O   0  0  0  0  0  0  0  0  0  0  0  0
    1.5832   -4.9074    0.0424 C   0  0  0  0  0  0  0  0  0  0  0  0
    0.2698   -2.7885    1.9892 H   0  0  0  0  0  0  0  0  0  0  0  0
   -0.4694   -4.3334   -0.2934 H   0  0  0  0  0  0  0  0  0  0  0  0
    2.3125   -4.9265    0.8585 H   0  0  0  0  0  0  0  0  0  0  0  0
    1.4544   -5.9262   -0.3345 H   0  0  0  0  0  0  0  0  0  0  0  0
    1.9832   -4.2892   -0.7674 H   0  0  0  0  0  0  0  0  0  0  0  0
   -0.9929   -6.4166    1.3076 N   0  0  0  0  0  0  0  0  0  0  0  0
   -1.5685   -7.3195    2.2975 C   0  0  0  0  0  0  0  0  0  0  0  0
   -1.0726   -6.6486    0.3220 H   0  0  0  0  0  0  0  0  0  0  0  0
   -0.7939   -7.6815    2.9820 H   0  0  0  0  0  0  0  0  0  0  0  0
   -2.3418   -6.8073    2.8801 H   0  0  0  0  0  0  0  0  0  0  0  0
   -2.0236   -8.1834    1.8033 H   0  0  0  0  0  0  0  0  0  0  0  0
  1  2  2  0  0  0  0
  1  3  1  0  0  0  0
  1  7  1  0  0  0  0
  3  4  1  0  0  0  0
  3  5  1  0  0  0  0
  3  6  1  0  0  0  0
  7  8  1  0  0  0  0
  7 12  1  0  0  0  0
  8  9  1  0  0  0  0
  8 11  1  0  0  0  0
  8 13  1  0  0  0  0
  9 10  2  0  0  0  0
  9 17  1  0  0  0  0
 11 14  1  0  0  0  0
 11 15  1  0  0  0  0
 11 16  1  0  0  0  0
 17 18  1  0  0  0  0
 17 22  1  0  0  0  0
 18 19  1  0  0  0  0
 18 21  1  0  0  0  0
 18 23  1  0  0  0  0
 19 20  2  0  0  0  0
 19 27  1  0  0  0  0
 21 24  1  0  0  0  0
 21 25  1  0  0  0  0
 21 26  1  0  0  0  0
 27 28  1  0  0  0  0
 27 32  1  0  0  0  0
 28 29  1  0  0  0  0
 28 31  1  0  0  0  0
 28 33  1  0  0  0  0
 29 30  2  0  0  0  0
 29 37  1  0  0  0  0
 31 34  1  0  0  0  0
 31 35  1  0  0  0  0
 31 36  1  0  0  0  0
 37 38  1  0  0  0  0
 37 39  1  0  0  0  0
 38 40  1  0  0  0  0
 38 41  1  0  0  0  0
 38 42  1  0  0  0  0
M  END
$$$$

  -OEChem-05262215353D

 42 41  0     1  0  0  0  0  0999 V2000
   -4.1819   -1.1355    1.1954 C   0  0  0  0  0  0  0  0  0  0  0  0
   -4.1977   -0.0290    0.6717 O   0  0  0  0  0  0  0  0  0  0  0  0
   -4.7342   -2.3392    0.4582 C   0  0  0  0  0  0  0  0  0  0  0  0
   -5.3128   -2.0169   -0.4116 H   0  0  0  0  0  0  0  0  0  0  0  0
   -3.9113   -2.9744    0.1197 H   0  0  0  0  0  0  0  0  0  0  0  0
   -5.3832   -2.9174    1.1201 H   0  0  0  0  0  0  0  0  0  0  0  0
   -3.5415   -1.3018    2.4049 N   0  0  0  0  0  0  0  0  0  0  0  0
   -2.7152   -0.2553    3.0218 C   0  0  2  0  0  0  0  0  0  0  0  0
   -1.3471   -0.1729    2.3089 C   0  0  0  0  0  0  0  0  0  0  0  0
   -0.3205   -0.5847    2.8419 O   0  0  0  0  0  0  0  0  0  0  0  0
   -2.5974   -0.5839    4.5145 C   0  0  0  0  0  0  0  0  0  0  0  0
   -3.2949   -2.2722    2.6304 H   0  0  0  0  0  0  0  0  0  0  0  0
   -3.2044    0.7201    2.9283 H   0  0  0  0  0  0  0  0  0  0  0  0
   -2.1332   -1.5655    4.6574 H   0  0  0  0  0  0  0  0  0  0  0  0
   -1.9844    0.1677    5.0217 H   0  0  0  0  0  0  0  0  0  0  0  0
   -3.5876   -0.5958    4.9799 H   0  0  0  0  0  0  0  0  0  0  0  0
   -1.3162    0.2058    0.9762 N   0  0  0  0  0  0  0  0  0  0  0  0
   -0.4655   -0.4667   -0.0244 C   0  0  2  0  0  0  0  0  0  0  0  0
   -0.5121   -2.0126    0.0618 C   0  0  0  0  0  0  0  0  0  0  0  0
   -1.1312   -2.6464   -0.7850 O   0  0  0  0  0  0  0  0  0  0  0  0
    0.9722    0.0670    0.0467 C   0  0  0  0  0  0  0  0  0  0  0  0
   -2.2523    0.4527    0.6383 H   0  0  0  0  0  0  0  0  0  0  0  0
   -0.8566   -0.2045   -1.0130 H   0  0  0  0  0  0  0  0  0  0  0  0
    1.4465   -0.1854    0.9993 H   0  0  0  0  0  0  0  0  0  0  0  0
    1.5729   -0.3627   -0.7608 H   0  0  0  0  0  0  0  0  0  0  0  0
    0.9745    1.1558   -0.0614 H   0  0  0  0  0  0  0  0  0  0  0  0
    0.1362   -2.7065    1.0648 N   0  0  0  0  0  0  0  0  0  0  0  0
   -0.0819   -4.1413    1.2856 C   0  0  2  0  0  0  0  0  0  0  0  0
   -1.5345   -4.5070    1.6800 C   0  0  0  0  0  0  0  0  0  0  0  0
   -2.1885   -3.8096    2.4512 O   0  0  0  0  0  0  0  0  0  0  0  0
    0.8838   -4.5863    2.3852 C   0  0  0  0  0  0  0  0  0  0  0  0
    0.3542   -2.1281    1.8826 H   0  0  0  0  0  0  0  0  0  0  0  0
    0.1651   -4.6773    0.3634 H   0  0  0  0  0  0  0  0  0  0  0  0
    0.6618   -4.0648    3.3224 H   0  0  0  0  0  0  0  0  0  0  0  0
    0.7961   -5.6635    2.5571 H   0  0  0  0  0  0  0  0  0  0  0  0
    1.9162   -4.3639    2.0980 H   0  0  0  0  0  0  0  0  0  0  0  0
   -2.1057   -5.6679    1.1921 N   0  0  0  0  0  0  0  0  0  0  0  0
   -3.4774   -6.0722    1.4751 C   0  0  0  0  0  0  0  0  0  0  0  0
   -1.5888   -6.1679    0.4744 H   0  0  0  0  0  0  0  0  0  0  0  0
   -3.6447   -6.1369    2.5556 H   0  0  0  0  0  0  0  0  0  0  0  0
   -4.1848   -5.3532    1.0501 H   0  0  0  0  0  0  0  0  0  0  0  0
   -3.6783   -7.0548    1.0376 H   0  0  0  0  0  0  0  0  0  0  0  0
  1  2  2  0  0  0  0
  1  3  1  0  0  0  0
  1  7  1  0  0  0  0
  3  4  1  0  0  0  0
  3  5  1  0  0  0  0
  3  6  1  0  0  0  0
  7  8  1  0  0  0  0
  7 12  1  0  0  0  0
  8  9  1  0  0  0  0
  8 11  1  0  0  0  0
  8 13  1  0  0  0  0
  9 10  2  0  0  0  0
  9 17  1  0  0  0  0
 11 14  1  0  0  0  0
 11 15  1  0  0  0  0
 11 16  1  0  0  0  0
 17 18  1  0  0  0  0
 17 22  1  0  0  0  0
 18 19  1  0  0  0  0
 18 21  1  0  0  0  0
 18 23  1  0  0  0  0
 19 20  2  0  0  0  0
 19 27  1  0  0  0  0
 21 24  1  0  0  0  0
 21 25  1  0  0  0  0
 21 26  1  0  0  0  0
 27 28  1  0  0  0  0
 27 32  1  0  0  0  0
 28 29  1  0  0  0  0
 28 31  1  0  0  0  0
 28 33  1  0  0  0  0
 29 30  2  0  0  0  0
 29 37  1  0  0  0  0
 31 34  1  0  0  0  0
 31 35  1  0  0  0  0
 31 36  1  0  0  0  0
 37 38  1  0  0  0  0
 37 39  1  0  0  0  0
 38 40  1  0  0  0  0
 38 41  1  0  0  0  0
 38 42  1  0  0  0  0
M  END
$$$$

  -OEChem-05262215353D

 42 41  0     1  0  0  0  0  0999 V2000
   -4.3091   -0.8875    1.1855 C   0  0  0  0  0  0  0  0  0  0  0  0
   -4.2301    0.2424    0.7219 O   0  0  0  0  0  0  0  0  0  0  0  0
   -4.9581   -1.9969    0.3822 C   0  0  0  0  0  0  0  0  0  0  0  0
   -5.6171   -2.5873    1.0232 H   0  0  0  0  0  0  0  0  0  0  0  0
   -5.5462   -1.5760   -0.4378 H   0  0  0  0  0  0  0  0  0  0  0  0
   -4.1862   -2.6493   -0.0340 H   0  0  0  0  0  0  0  0  0  0  0  0
   -3.6765   -1.1747    2.3762 N   0  0  0  0  0  0  0  0  0  0  0  0
   -2.7784   -0.2323    3.0599 C   0  0  2  0  0  0  0  0  0  0  0  0
   -1.4009   -0.1951    2.3587 C   0  0  0  0  0  0  0  0  0  0  0  0
   -0.3942   -0.6433    2.8986 O   0  0  0  0  0  0  0  0  0  0  0  0
   -2.6955   -0.6650    4.5283 C   0  0  0  0  0  0  0  0  0  0  0  0
   -3.5240   -2.1741    2.5533 H   0  0  0  0  0  0  0  0  0  0  0  0
   -3.1979    0.7790    3.0294 H   0  0  0  0  0  0  0  0  0  0  0  0
   -2.2960   -1.6815    4.6082 H   0  0  0  0  0  0  0  0  0  0  0  0
   -2.0411    0.0110    5.0874 H   0  0  0  0  0  0  0  0  0  0  0  0
   -3.6885   -0.6440    4.9871 H   0  0  0  0  0  0  0  0  0  0  0  0
   -1.3486    0.1927    1.0300 N   0  0  0  0  0  0  0  0  0  0  0  0
   -0.5128   -0.4580   -0.0001 C   0  0  2  0  0  0  0  0  0  0  0  0
   -0.5484   -2.0078    0.0066 C   0  0  0  0  0  0  0  0  0  0  0  0
   -1.0028   -2.6048   -0.9622 O   0  0  0  0  0  0  0  0  0  0  0  0
    0.9302    0.0519    0.1030 C   0  0  0  0  0  0  0  0  0  0  0  0
   -2.2669    0.5047    0.6970 H   0  0  0  0  0  0  0  0  0  0  0  0
   -0.9004   -0.1469   -0.9761 H   0  0  0  0  0  0  0  0  0  0  0  0
    1.3968   -0.2652    1.0403 H   0  0  0  0  0  0  0  0  0  0  0  0
    1.5275   -0.3371   -0.7272 H   0  0  0  0  0  0  0  0  0  0  0  0
    0.9489    1.1450    0.0601 H   0  0  0  0  0  0  0  0  0  0  0  0
   -0.1565   -2.7497    1.1033 N   0  0  0  0  0  0  0  0  0  0  0  0
   -0.4533   -4.1786    1.2482 C   0  0  2  0  0  0  0  0  0  0  0  0
   -1.9606   -4.4788    1.4262 C   0  0  0  0  0  0  0  0  0  0  0  0
   -2.6531   -3.8327    2.2091 O   0  0  0  0  0  0  0  0  0  0  0  0
    0.3336   -4.6910    2.4557 C   0  0  0  0  0  0  0  0  0  0  0  0
    0.0062   -2.2001    1.9529 H   0  0  0  0  0  0  0  0  0  0  0  0
   -0.1021   -4.7057    0.3553 H   0  0  0  0  0  0  0  0  0  0  0  0
    0.0149   -4.1748    3.3674 H   0  0  0  0  0  0  0  0  0  0  0  0
    0.1711   -5.7649    2.5893 H   0  0  0  0  0  0  0  0  0  0  0  0
    1.4048   -4.5174    2.3134 H   0  0  0  0  0  0  0  0  0  0  0  0
   -2.5388   -5.5246    0.7308 N   0  0  0  0  0  0  0  0  0  0  0  0
   -3.9540   -5.8659    0.8132 C   0  0  0  0  0  0  0  0  0  0  0  0
   -1.9770   -5.9519   -0.0007 H   0  0  0  0  0  0  0  0  0  0  0  0
   -4.2587   -5.9985    1.8568 H   0  0  0  0  0  0  0  0  0  0  0  0
   -4.5659   -5.0778    0.3635 H   0  0  0  0  0  0  0  0  0  0  0  0
   -4.1478   -6.8015    0.2796 H   0  0  0  0  0  0  0  0  0  0  0  0
  1  2  2  0  0  0  0
  1  3  1  0  0  0  0
  1  7  1  0  0  0  0
  3  4  1  0  0  0  0
  3  5  1  0  0  0  0
  3  6  1  0  0  0  0
  7  8  1  0  0  0  0
  7 12  1  0  0  0  0
  8  9  1  0  0  0  0
  8 11  1  0  0  0  0
  8 13  1  0  0  0  0
  9 10  2  0  0  0  0
  9 17  1  0  0  0  0
 11 14  1  0  0  0  0
 11 15  1  0  0  0  0
 11 16  1  0  0  0  0
 17 18  1  0  0  0  0
 17 22  1  0  0  0  0
 18 19  1  0  0  0  0
 18 21  1  0  0  0  0
 18 23  1  0  0  0  0
 19 20  2  0  0  0  0
 19 27  1  0  0  0  0
 21 24  1  0  0  0  0
 21 25  1  0  0  0  0
 21 26  1  0  0  0  0
 27 28  1  0  0  0  0
 27 32  1  0  0  0  0
 28 29  1  0  0  0  0
 28 31  1  0  0  0  0
 28 33  1  0  0  0  0
 29 30  2  0  0  0  0
 29 37  1  0  0  0  0
 31 34  1  0  0  0  0
 31 35  1  0  0  0  0
 31 36  1  0  0  0  0
 37 38  1  0  0  0  0
 37 39  1  0  0  0  0
 38 40  1  0  0  0  0
 38 41  1  0  0  0  0
 38 42  1  0  0  0  0
M  END
$$$$

  -OEChem-05262215353D

 42 41  0     1  0  0  0  0  0999 V2000
   -4.4098   -0.6296    1.1464 C   0  0  0  0  0  0  0  0  0  0  0  0
   -4.2287    0.5178    0.7623 O   0  0  0  0  0  0  0  0  0  0  0  0
   -5.1586   -1.6156    0.2722 C   0  0  0  0  0  0  0  0  0  0  0  0
   -5.8008   -2.2502    0.8878 H   0  0  0  0  0  0  0  0  0  0  0  0
   -5.7794   -1.0825   -0.4526 H   0  0  0  0  0  0  0  0  0  0  0  0
   -4.4458   -2.2458   -0.2654 H   0  0  0  0  0  0  0  0  0  0  0  0
   -3.8024   -1.0558    2.3078 N   0  0  0  0  0  0  0  0  0  0  0  0
   -2.8530   -0.2338    3.0741 C   0  0  2  0  0  0  0  0  0  0  0  0
   -1.4588   -0.2444    2.4054 C   0  0  0  0  0  0  0  0  0  0  0  0
   -0.4914   -0.7628    2.9528 O   0  0  0  0  0  0  0  0  0  0  0  0
   -2.8380   -0.7748    4.5086 C   0  0  0  0  0  0  0  0  0  0  0  0
   -3.7292   -2.0747    2.4054 H   0  0  0  0  0  0  0  0  0  0  0  0
   -3.1974    0.8054    3.1102 H   0  0  0  0  0  0  0  0  0  0  0  0
   -2.5090   -1.8191    4.5226 H   0  0  0  0  0  0  0  0  0  0  0  0
   -2.1554   -0.1865    5.1299 H   0  0  0  0  0  0  0  0  0  0  0  0
   -3.8394   -0.7187    4.9459 H   0  0  0  0  0  0  0  0  0  0  0  0
   -1.3567    0.1829    1.0925 N   0  0  0  0  0  0  0  0  0  0  0  0
   -0.4959   -0.4153    0.0484 C   0  0  2  0  0  0  0  0  0  0  0  0
   -0.5017   -1.9638   -0.0495 C   0  0  0  0  0  0  0  0  0  0  0  0
   -0.7284   -2.4916   -1.1316 O   0  0  0  0  0  0  0  0  0  0  0  0
    0.9405    0.0872    0.2323 C   0  0  0  0  0  0  0  0  0  0  0  0
   -2.2460    0.5623    0.7510 H   0  0  0  0  0  0  0  0  0  0  0  0
   -0.8549   -0.0449   -0.9175 H   0  0  0  0  0  0  0  0  0  0  0  0
    1.3752   -0.2976    1.1597 H   0  0  0  0  0  0  0  0  0  0  0  0
    1.5654   -0.2428   -0.6035 H   0  0  0  0  0  0  0  0  0  0  0  0
    0.9582    1.1806    0.2684 H   0  0  0  0  0  0  0  0  0  0  0  0
   -0.4154   -2.7824    1.0588 N   0  0  0  0  0  0  0  0  0  0  0  0
   -0.7963   -4.1972    1.0577 C   0  0  2  0  0  0  0  0  0  0  0  0
   -2.3284   -4.3995    1.0401 C   0  0  0  0  0  0  0  0  0  0  0  0
   -3.0593   -3.7730    1.8046 O   0  0  0  0  0  0  0  0  0  0  0  0
   -0.1881   -4.8405    2.3052 C   0  0  0  0  0  0  0  0  0  0  0  0
   -0.3486   -2.2962    1.9574 H   0  0  0  0  0  0  0  0  0  0  0  0
   -0.3711   -4.6861    0.1749 H   0  0  0  0  0  0  0  0  0  0  0  0
   -0.5835   -4.3694    3.2114 H   0  0  0  0  0  0  0  0  0  0  0  0
   -0.4245   -5.9085    2.3365 H   0  0  0  0  0  0  0  0  0  0  0  0
    0.9003   -4.7260    2.2996 H   0  0  0  0  0  0  0  0  0  0  0  0
   -2.8917   -5.3285    0.1852 N   0  0  0  0  0  0  0  0  0  0  0  0
   -4.3269   -5.5624    0.0793 C   0  0  0  0  0  0  0  0  0  0  0  0
   -2.2795   -5.7307   -0.5199 H   0  0  0  0  0  0  0  0  0  0  0  0
   -4.7660   -5.7270    1.0691 H   0  0  0  0  0  0  0  0  0  0  0  0
   -4.8211   -4.7055   -0.3887 H   0  0  0  0  0  0  0  0  0  0  0  0
   -4.5198   -6.4503   -0.5307 H   0  0  0  0  0  0  0  0  0  0  0  0
  1  2  2  0  0  0  0
  1  3  1  0  0  0  0
  1  7  1  0  0  0  0
  3  4  1  0  0  0  0
  3  5  1  0  0  0  0
  3  6  1  0  0  0  0
  7  8  1  0  0  0  0
  7 12  1  0  0  0  0
  8  9  1  0  0  0  0
  8 11  1  0  0  0  0
  8 13  1  0  0  0  0
  9 10  2  0  0  0  0
  9 17  1  0  0  0  0
 11 14  1  0  0  0  0
 11 15  1  0  0  0  0
 11 16  1  0  0  0  0
 17 18  1  0  0  0  0
 17 22  1  0  0  0  0
 18 19  1  0  0  0  0
 18 21  1  0  0  0  0
 18 23  1  0  0  0  0
 19 20  2  0  0  0  0
 19 27  1  0  0  0  0
 21 24  1  0  0  0  0
 21 25  1  0  0  0  0
 21 26  1  0  0  0  0
 27 28  1  0  0  0  0
 27 32  1  0  0  0  0
 28 29  1  0  0  0  0
 28 31  1  0  0  0  0
 28 33  1  0  0  0  0
 29 30  2  0  0  0  0
 29 37  1  0  0  0  0
 31 34  1  0  0  0  0
 31 35  1  0  0  0  0
 31 36  1  0  0  0  0
 37 38  1  0  0  0  0
 37 39  1  0  0  0  0
 38 40  1  0  0  0  0
 38 41  1  0  0  0  0
 38 42  1  0  0  0  0
M  END
$$$$

  -OEChem-05262215353D

 42 41  0     1  0  0  0  0  0999 V2000
   -4.4362   -0.3847    1.0021 C   0  0  0  0  0  0  0  0  0  0  0  0
   -4.1479    0.7686    0.7138 O   0  0  0  0  0  0  0  0  0  0  0  0
   -5.2253   -1.2361    0.0274 C   0  0  0  0  0  0  0  0  0  0  0  0
   -5.9215   -1.8800    0.5702 H   0  0  0  0  0  0  0  0  0  0  0  0
   -5.7929   -0.5995   -0.6564 H   0  0  0  0  0  0  0  0  0  0  0  0
   -4.5423   -1.8612   -0.5526 H   0  0  0  0  0  0  0  0  0  0  0  0
   -3.9174   -0.9423    2.1512 N   0  0  0  0  0  0  0  0  0  0  0  0
   -2.9593   -0.2498    3.0291 C   0  0  2  0  0  0  0  0  0  0  0  0
   -1.5309   -0.3004    2.4376 C   0  0  0  0  0  0  0  0  0  0  0  0
   -0.6299   -0.9139    2.9983 O   0  0  0  0  0  0  0  0  0  0  0  0
   -3.0625   -0.8976    4.4152 C   0  0  0  0  0  0  0  0  0  0  0  0
   -3.9305   -1.9679    2.1749 H   0  0  0  0  0  0  0  0  0  0  0  0
   -3.2377    0.8047    3.1301 H   0  0  0  0  0  0  0  0  0  0  0  0
   -2.8066   -1.9609    4.3644 H   0  0  0  0  0  0  0  0  0  0  0  0
   -2.3783   -0.4085    5.1156 H   0  0  0  0  0  0  0  0  0  0  0  0
   -4.0808   -0.8022    4.8039 H   0  0  0  0  0  0  0  0  0  0  0  0
   -1.3361    0.1883    1.1574 N   0  0  0  0  0  0  0  0  0  0  0  0
   -0.4103   -0.3449    0.1327 C   0  0  2  0  0  0  0  0  0  0  0  0
   -0.3863   -1.8839   -0.0731 C   0  0  0  0  0  0  0  0  0  0  0  0
   -0.3276   -2.3229   -1.2150 O   0  0  0  0  0  0  0  0  0  0  0  0
    1.0059    0.1502    0.4455 C   0  0  0  0  0  0  0  0  0  0  0  0
   -2.1806    0.6387    0.7897 H   0  0  0  0  0  0  0  0  0  0  0  0
   -0.7104    0.0861   -0.8280 H   0  0  0  0  0  0  0  0  0  0  0  0
    1.3790   -0.2949    1.3730 H   0  0  0  0  0  0  0  0  0  0  0  0
    1.6885   -0.1209   -0.3661 H   0  0  0  0  0  0  0  0  0  0  0  0
    1.0132    1.2389    0.5544 H   0  0  0  0  0  0  0  0  0  0  0  0
   -0.6542   -2.7786    0.9437 N   0  0  0  0  0  0  0  0  0  0  0  0
   -1.0946   -4.1624    0.7500 C   0  0  2  0  0  0  0  0  0  0  0  0
   -2.6286   -4.2677    0.6043 C   0  0  0  0  0  0  0  0  0  0  0  0
   -3.3793   -3.6541    1.3608 O   0  0  0  0  0  0  0  0  0  0  0  0
   -0.6150   -4.9737    1.9548 C   0  0  0  0  0  0  0  0  0  0  0  0
   -0.7231   -2.3722    1.8798 H   0  0  0  0  0  0  0  0  0  0  0  0
   -0.6295   -4.5774   -0.1503 H   0  0  0  0  0  0  0  0  0  0  0  0
   -1.0581   -4.5876    2.8787 H   0  0  0  0  0  0  0  0  0  0  0  0
   -0.9002   -6.0244    1.8447 H   0  0  0  0  0  0  0  0  0  0  0  0
    0.4745   -4.9168    2.0407 H   0  0  0  0  0  0  0  0  0  0  0  0
   -3.1770   -5.0923   -0.3601 N   0  0  0  0  0  0  0  0  0  0  0  0
   -4.6110   -5.2446   -0.5738 C   0  0  0  0  0  0  0  0  0  0  0  0
   -2.5358   -5.5123   -1.0283 H   0  0  0  0  0  0  0  0  0  0  0  0
   -5.1041   -5.5740    0.3469 H   0  0  0  0  0  0  0  0  0  0  0  0
   -5.0553   -4.2966   -0.8933 H   0  0  0  0  0  0  0  0  0  0  0  0
   -4.7988   -5.9930   -1.3499 H   0  0  0  0  0  0  0  0  0  0  0  0
  1  2  2  0  0  0  0
  1  3  1  0  0  0  0
  1  7  1  0  0  0  0
  3  4  1  0  0  0  0
  3  5  1  0  0  0  0
  3  6  1  0  0  0  0
  7  8  1  0  0  0  0
  7 12  1  0  0  0  0
  8  9  1  0  0  0  0
  8 11  1  0  0  0  0
  8 13  1  0  0  0  0
  9 10  2  0  0  0  0
  9 17  1  0  0  0  0
 11 14  1  0  0  0  0
 11 15  1  0  0  0  0
 11 16  1  0  0  0  0
 17 18  1  0  0  0  0
 17 22  1  0  0  0  0
 18 19  1  0  0  0  0
 18 21  1  0  0  0  0
 18 23  1  0  0  0  0
 19 20  2  0  0  0  0
 19 27  1  0  0  0  0
 21 24  1  0  0  0  0
 21 25  1  0  0  0  0
 21 26  1  0  0  0  0
 27 28  1  0  0  0  0
 27 32  1  0  0  0  0
 28 29  1  0  0  0  0
 28 31  1  0  0  0  0
 28 33  1  0  0  0  0
 29 30  2  0  0  0  0
 29 37  1  0  0  0  0
 31 34  1  0  0  0  0
 31 35  1  0  0  0  0
 31 36  1  0  0  0  0
 37 38  1  0  0  0  0
 37 39  1  0  0  0  0
 38 40  1  0  0  0  0
 38 41  1  0  0  0  0
 38 42  1  0  0  0  0
M  END
$$$$

  -OEChem-05262215353D

 42 41  0     1  0  0  0  0  0999 V2000
   -4.3889   -0.1005    0.8567 C   0  0  0  0  0  0  0  0  0  0  0  0
   -4.0060    1.0544    0.7276 O   0  0  0  0  0  0  0  0  0  0  0  0
   -5.1838   -0.7694   -0.2484 C   0  0  0  0  0  0  0  0  0  0  0  0
   -6.0137   -1.3369    0.1798 H   0  0  0  0  0  0  0  0  0  0  0  0
   -5.5857   -0.0181   -0.9336 H   0  0  0  0  0  0  0  0  0  0  0  0
   -4.5400   -1.4518   -0.8087 H   0  0  0  0  0  0  0  0  0  0  0  0
   -3.9915   -0.8234    1.9612 N   0  0  0  0  0  0  0  0  0  0  0  0
   -3.0609   -0.3084    2.9789 C   0  0  2  0  0  0  0  0  0  0  0  0
   -1.6000   -0.3877    2.4789 C   0  0  0  0  0  0  0  0  0  0  0  0
   -0.8122   -1.1975    2.9526 O   0  0  0  0  0  0  0  0  0  0  0  0
   -3.3024   -1.1094    4.2644 C   0  0  0  0  0  0  0  0  0  0  0  0
   -4.0779   -1.8411    1.8647 H   0  0  0  0  0  0  0  0  0  0  0  0
   -3.2825    0.7428    3.1925 H   0  0  0  0  0  0  0  0  0  0  0  0
   -3.1095   -2.1744    4.0980 H   0  0  0  0  0  0  0  0  0  0  0  0
   -2.6401   -0.7573    5.0616 H   0  0  0  0  0  0  0  0  0  0  0  0
   -4.3381   -0.9910    4.5974 H   0  0  0  0  0  0  0  0  0  0  0  0
   -1.2645    0.2993    1.3253 N   0  0  0  0  0  0  0  0  0  0  0  0
   -0.2733   -0.1121    0.3045 C   0  0  2  0  0  0  0  0  0  0  0  0
   -0.2993   -1.5915   -0.1692 C   0  0  0  0  0  0  0  0  0  0  0  0
    0.1239   -1.8583   -1.2867 O   0  0  0  0  0  0  0  0  0  0  0  0
    1.1273    0.2337    0.8240 C   0  0  0  0  0  0  0  0  0  0  0  0
   -2.0428    0.8682    0.9766 H   0  0  0  0  0  0  0  0  0  0  0  0
   -0.4593    0.4921   -0.5893 H   0  0  0  0  0  0  0  0  0  0  0  0
    1.3864   -0.3858    1.6882 H   0  0  0  0  0  0  0  0  0  0  0  0
    1.8741    0.0634    0.0419 H   0  0  0  0  0  0  0  0  0  0  0  0
    1.1736    1.2850    1.1232 H   0  0  0  0  0  0  0  0  0  0  0  0
   -0.9751   -2.5775    0.5224 N   0  0  0  0  0  0  0  0  0  0  0  0
   -1.3808   -3.8897    0.0083 C   0  0  2  0  0  0  0  0  0  0  0  0
   -2.9030   -4.1245    0.1368 C   0  0  0  0  0  0  0  0  0  0  0  0
   -3.5860   -3.4713    0.9235 O   0  0  0  0  0  0  0  0  0  0  0  0
   -0.6051   -4.9489    0.7926 C   0  0  0  0  0  0  0  0  0  0  0  0
   -1.2154   -2.3460    1.4881 H   0  0  0  0  0  0  0  0  0  0  0  0
   -1.1234   -3.9757   -1.0523 H   0  0  0  0  0  0  0  0  0  0  0  0
   -0.8485   -4.8909    1.8585 H   0  0  0  0  0  0  0  0  0  0  0  0
   -0.8517   -5.9517    0.4318 H   0  0  0  0  0  0  0  0  0  0  0  0
    0.4717   -4.7931    0.6726 H   0  0  0  0  0  0  0  0  0  0  0  0
   -3.5229   -5.0842   -0.6421 N   0  0  0  0  0  0  0  0  0  0  0  0
   -4.9556   -5.3528   -0.6026 C   0  0  0  0  0  0  0  0  0  0  0  0
   -2.9455   -5.5941   -1.3054 H   0  0  0  0  0  0  0  0  0  0  0  0
   -5.2714   -5.6097    0.4142 H   0  0  0  0  0  0  0  0  0  0  0  0
   -5.5188   -4.4749   -0.9359 H   0  0  0  0  0  0  0  0  0  0  0  0
   -5.2013   -6.1921   -1.2605 H   0  0  0  0  0  0  0  0  0  0  0  0
  1  2  2  0  0  0  0
  1  3  1  0  0  0  0
  1  7  1  0  0  0  0
  3  4  1  0  0  0  0
  3  5  1  0  0  0  0
  3  6  1  0  0  0  0
  7  8  1  0  0  0  0
  7 12  1  0  0  0  0
  8  9  1  0  0  0  0
  8 11  1  0  0  0  0
  8 13  1  0  0  0  0
  9 10  2  0  0  0  0
  9 17  1  0  0  0  0
 11 14  1  0  0  0  0
 11 15  1  0  0  0  0
 11 16  1  0  0  0  0
 17 18  1  0  0  0  0
 17 22  1  0  0  0  0
 18 19  1  0  0  0  0
 18 21  1  0  0  0  0
 18 23  1  0  0  0  0
 19 20  2  0  0  0  0
 19 27  1  0  0  0  0
 21 24  1  0  0  0  0
 21 25  1  0  0  0  0
 21 26  1  0  0  0  0
 27 28  1  0  0  0  0
 27 32  1  0  0  0  0
 28 29  1  0  0  0  0
 28 31  1  0  0  0  0
 28 33  1  0  0  0  0
 29 30  2  0  0  0  0
 29 37  1  0  0  0  0
 31 34  1  0  0  0  0
 31 35  1  0  0  0  0
 31 36  1  0  0  0  0
 37 38  1  0  0  0  0
 37 39  1  0  0  0  0
 38 40  1  0  0  0  0
 38 41  1  0  0  0  0
 38 42  1  0  0  0  0
M  END
$$$$

  -OEChem-05262215353D

 42 41  0     1  0  0  0  0  0999 V2000
   -4.2578    0.1350    0.7604 C   0  0  0  0  0  0  0  0  0  0  0  0
   -3.7991    1.2682    0.8150 O   0  0  0  0  0  0  0  0  0  0  0  0
   -5.0155   -0.3244   -0.4702 C   0  0  0  0  0  0  0  0  0  0  0  0
   -5.3084    0.5365   -1.0772 H   0  0  0  0  0  0  0  0  0  0  0  0
   -4.3832   -0.9835   -1.0702 H   0  0  0  0  0  0  0  0  0  0  0  0
   -5.9151   -0.8693   -0.1738 H   0  0  0  0  0  0  0  0  0  0  0  0
   -3.9800   -0.7539    1.7772 N   0  0  0  0  0  0  0  0  0  0  0  0
   -3.0946   -0.4419    2.9115 C   0  0  2  0  0  0  0  0  0  0  0  0
   -1.6092   -0.5324    2.4906 C   0  0  0  0  0  0  0  0  0  0  0  0
   -0.9279   -1.4990    2.8067 O   0  0  0  0  0  0  0  0  0  0  0  0
   -3.4563   -1.4027    4.0504 C   0  0  0  0  0  0  0  0  0  0  0  0
   -4.1621   -1.7404    1.5614 H   0  0  0  0  0  0  0  0  0  0  0  0
   -3.2803    0.5791    3.2624 H   0  0  0  0  0  0  0  0  0  0  0  0
   -3.3051   -2.4428    3.7423 H   0  0  0  0  0  0  0  0  0  0  0  0
   -2.8300   -1.2050    4.9259 H   0  0  0  0  0  0  0  0  0  0  0  0
   -4.5042   -1.2741    4.3380 H   0  0  0  0  0  0  0  0  0  0  0  0
   -1.1559    0.3205    1.4987 N   0  0  0  0  0  0  0  0  0  0  0  0
   -0.1434   -0.0062    0.4673 C   0  0  2  0  0  0  0  0  0  0  0  0
   -0.2879   -1.3777   -0.2483 C   0  0  0  0  0  0  0  0  0  0  0  0
    0.3907   -1.6214   -1.2381 O   0  0  0  0  0  0  0  0  0  0  0  0
    1.2497    0.1168    1.0977 C   0  0  0  0  0  0  0  0  0  0  0  0
   -1.8724    0.9958    1.2130 H   0  0  0  0  0  0  0  0  0  0  0  0
   -0.2240    0.7500   -0.3196 H   0  0  0  0  0  0  0  0  0  0  0  0
    1.4064   -0.6620    1.8504 H   0  0  0  0  0  0  0  0  0  0  0  0
    2.0241    0.0143    0.3309 H   0  0  0  0  0  0  0  0  0  0  0  0
    1.3660    1.0933    1.5771 H   0  0  0  0  0  0  0  0  0  0  0  0
   -1.3129   -2.2466    0.0694 N   0  0  0  0  0  0  0  0  0  0  0  0
   -1.6303   -3.5044   -0.6093 C   0  0  2  0  0  0  0  0  0  0  0  0
   -3.1006   -3.9195   -0.3734 C   0  0  0  0  0  0  0  0  0  0  0  0
   -3.8027   -3.3306    0.4479 O   0  0  0  0  0  0  0  0  0  0  0  0
   -0.6773   -4.5860   -0.0905 C   0  0  0  0  0  0  0  0  0  0  0  0
   -1.7010   -2.1196    1.0035 H   0  0  0  0  0  0  0  0  0  0  0  0
   -1.4880   -3.3816   -1.6880 H   0  0  0  0  0  0  0  0  0  0  0  0
   -0.8003   -4.7162    0.9896 H   0  0  0  0  0  0  0  0  0  0  0  0
   -0.8734   -5.5429   -0.5827 H   0  0  0  0  0  0  0  0  0  0  0  0
    0.3617   -4.3050   -0.2897 H   0  0  0  0  0  0  0  0  0  0  0  0
   -3.6551   -4.9519   -1.1066 N   0  0  0  0  0  0  0  0  0  0  0  0
   -5.0299   -5.4086   -0.9434 C   0  0  0  0  0  0  0  0  0  0  0  0
   -3.0540   -5.4288   -1.7733 H   0  0  0  0  0  0  0  0  0  0  0  0
   -5.1990   -5.7589    0.0804 H   0  0  0  0  0  0  0  0  0  0  0  0
   -5.7316   -4.5961   -1.1595 H   0  0  0  0  0  0  0  0  0  0  0  0
   -5.2371   -6.2353   -1.6298 H   0  0  0  0  0  0  0  0  0  0  0  0
  1  2  2  0  0  0  0
  1  3  1  0  0  0  0
  1  7  1  0  0  0  0
  3  4  1  0  0  0  0
  3  5  1  0  0  0  0
  3  6  1  0  0  0  0
  7  8  1  0  0  0  0
  7 12  1  0  0  0  0
  8  9  1  0  0  0  0
  8 11  1  0  0  0  0
  8 13  1  0  0  0  0
  9 10  2  0  0  0  0
  9 17  1  0  0  0  0
 11 14  1  0  0  0  0
 11 15  1  0  0  0  0
 11 16  1  0  0  0  0
 17 18  1  0  0  0  0
 17 22  1  0  0  0  0
 18 19  1  0  0  0  0
 18 21  1  0  0  0  0
 18 23  1  0  0  0  0
 19 20  2  0  0  0  0
 19 27  1  0  0  0  0
 21 24  1  0  0  0  0
 21 25  1  0  0  0  0
 21 26  1  0  0  0  0
 27 28  1  0  0  0  0
 27 32  1  0  0  0  0
 28 29  1  0  0  0  0
 28 31  1  0  0  0  0
 28 33  1  0  0  0  0
 29 30  2  0  0  0  0
 29 37  1  0  0  0  0
 31 34  1  0  0  0  0
 31 35  1  0  0  0  0
 31 36  1  0  0  0  0
 37 38  1  0  0  0  0
 37 39  1  0  0  0  0
 38 40  1  0  0  0  0
 38 41  1  0  0  0  0
 38 42  1  0  0  0  0
M  END
$$$$

  -OEChem-05262215353D

 42 41  0     1  0  0  0  0  0999 V2000
   -4.2513    0.1714    0.6934 C   0  0  0  0  0  0  0  0  0  0  0  0
   -3.7815    1.2860    0.8747 O   0  0  0  0  0  0  0  0  0  0  0  0
   -5.0409   -0.1305   -0.5652 C   0  0  0  0  0  0  0  0  0  0  0  0
   -5.4033    0.7974   -1.0155 H   0  0  0  0  0  0  0  0  0  0  0  0
   -4.4059   -0.6513   -1.2861 H   0  0  0  0  0  0  0  0  0  0  0  0
   -5.8981   -0.7647   -0.3267 H   0  0  0  0  0  0  0  0  0  0  0  0
   -3.9511   -0.8352    1.5869 N   0  0  0  0  0  0  0  0  0  0  0  0
   -3.0964   -0.6565    2.7737 C   0  0  2  0  0  0  0  0  0  0  0  0
   -1.5976   -0.6639    2.3911 C   0  0  0  0  0  0  0  0  0  0  0  0
   -0.8867   -1.6241    2.6535 O   0  0  0  0  0  0  0  0  0  0  0  0
   -3.4683   -1.7596    3.7720 C   0  0  0  0  0  0  0  0  0  0  0  0
   -4.1736   -1.7880    1.2795 H   0  0  0  0  0  0  0  0  0  0  0  0
   -3.3119    0.3083    3.2455 H   0  0  0  0  0  0  0  0  0  0  0  0
   -3.2847   -2.7494    3.3409 H   0  0  0  0  0  0  0  0  0  0  0  0
   -2.8706   -1.6628    4.6838 H   0  0  0  0  0  0  0  0  0  0  0  0
   -4.5263   -1.6882    4.0423 H   0  0  0  0  0  0  0  0  0  0  0  0
   -1.1471    0.2945    1.4980 N   0  0  0  0  0  0  0  0  0  0  0  0
   -0.0771    0.0914    0.4955 C   0  0  2  0  0  0  0  0  0  0  0  0
   -0.1616   -1.2323   -0.3120 C   0  0  0  0  0  0  0  0  0  0  0  0
    0.7330   -1.5579   -1.0826 O   0  0  0  0  0  0  0  0  0  0  0  0
    1.2828    0.2280    1.1946 C   0  0  0  0  0  0  0  0  0  0  0  0
   -1.8707    0.9779    1.2520 H   0  0  0  0  0  0  0  0  0  0  0  0
   -0.1571    0.8966   -0.2406 H   0  0  0  0  0  0  0  0  0  0  0  0
    1.4469   -0.6005    1.8906 H   0  0  0  0  0  0  0  0  0  0  0  0
    2.0919    0.2227    0.4574 H   0  0  0  0  0  0  0  0  0  0  0  0
    1.3315    1.1675    1.7530 H   0  0  0  0  0  0  0  0  0  0  0  0
   -1.3274   -1.9747   -0.3043 N   0  0  0  0  0  0  0  0  0  0  0  0
   -1.5140   -3.2891   -0.9228 C   0  0  2  0  0  0  0  0  0  0  0  0
   -3.0050   -3.6914   -0.9173 C   0  0  0  0  0  0  0  0  0  0  0  0
   -3.7973   -3.1528   -0.1445 O   0  0  0  0  0  0  0  0  0  0  0  0
   -0.6965   -4.3303   -0.1475 C   0  0  0  0  0  0  0  0  0  0  0  0
   -1.9857   -1.7280    0.4302 H   0  0  0  0  0  0  0  0  0  0  0  0
   -1.1705   -3.2531   -1.9618 H   0  0  0  0  0  0  0  0  0  0  0  0
   -1.0005   -4.3487    0.9046 H   0  0  0  0  0  0  0  0  0  0  0  0
   -0.8428   -5.3283   -0.5712 H   0  0  0  0  0  0  0  0  0  0  0  0
    0.3710   -4.0932   -0.1937 H   0  0  0  0  0  0  0  0  0  0  0  0
   -3.4694   -4.6561   -1.7913 N   0  0  0  0  0  0  0  0  0  0  0  0
   -4.8620   -5.0826   -1.8536 C   0  0  0  0  0  0  0  0  0  0  0  0
   -2.7944   -5.0839   -2.4197 H   0  0  0  0  0  0  0  0  0  0  0  0
   -5.1782   -5.5006   -0.8922 H   0  0  0  0  0  0  0  0  0  0  0  0
   -5.5114   -4.2365   -2.1016 H   0  0  0  0  0  0  0  0  0  0  0  0
   -4.9881   -5.8508   -2.6225 H   0  0  0  0  0  0  0  0  0  0  0  0
  1  2  2  0  0  0  0
  1  3  1  0  0  0  0
  1  7  1  0  0  0  0
  3  4  1  0  0  0  0
  3  5  1  0  0  0  0
  3  6  1  0  0  0  0
  7  8  1  0  0  0  0
  7 12  1  0  0  0  0
  8  9  1  0  0  0  0
  8 11  1  0  0  0  0
  8 13  1  0  0  0  0
  9 10  2  0  0  0  0
  9 17  1  0  0  0  0
 11 14  1  0  0  0  0
 11 15  1  0  0  0  0
 11 16  1  0  0  0  0
 17 18  1  0  0  0  0
 17 22  1  0  0  0  0
 18 19  1  0  0  0  0
 18 21  1  0  0  0  0
 18 23  1  0  0  0  0
 19 20  2  0  0  0  0
 19 27  1  0  0  0  0
 21 24  1  0  0  0  0
 21 25  1  0  0  0  0
 21 26  1  0  0  0  0
 27 28  1  0  0  0  0
 27 32  1  0  0  0  0
 28 29  1  0  0  0  0
 28 31  1  0  0  0  0
 28 33  1  0  0  0  0
 29 30  2  0  0  0  0
 29 37  1  0  0  0  0
 31 34  1  0  0  0  0
 31 35  1  0  0  0  0
 31 36  1  0  0  0  0
 37 38  1  0  0  0  0
 37 39  1  0  0  0  0
 38 40  1  0  0  0  0
 38 41  1  0  0  0  0
 38 42  1  0  0  0  0
M  END
$$$$

  -OEChem-05262215353D

 42 41  0     1  0  0  0  0  0999 V2000
   -5.6181   -0.6181    1.9147 C   0  0  0  0  0  0  0  0  0  0  0  0
   -5.9347    0.5339    1.6627 O   0  0  0  0  0  0  0  0  0  0  0  0
   -6.6454   -1.7303    1.8205 C   0  0  0  0  0  0  0  0  0  0  0  0
   -6.8119   -2.1685    2.8075 H   0  0  0  0  0  0  0  0  0  0  0  0
   -7.5935   -1.3368    1.4433 H   0  0  0  0  0  0  0  0  0  0  0  0
   -6.2927   -2.5078    1.1381 H   0  0  0  0  0  0  0  0  0  0  0  0
   -4.3211   -0.9110    2.2792 N   0  0  0  0  0  0  0  0  0  0  0  0
   -3.2093    0.0452    2.2134 C   0  0  2  0  0  0  0  0  0  0  0  0
   -1.8998   -0.6462    1.7828 C   0  0  0  0  0  0  0  0  0  0  0  0
   -1.7611   -1.8485    1.9671 O   0  0  0  0  0  0  0  0  0  0  0  0
   -3.0483    0.6982    3.5885 C   0  0  0  0  0  0  0  0  0  0  0  0
   -4.0743   -1.8957    2.3733 H   0  0  0  0  0  0  0  0  0  0  0  0
   -3.4310    0.8201    1.4717 H   0  0  0  0  0  0  0  0  0  0  0  0
   -2.8163   -0.0570    4.3465 H   0  0  0  0  0  0  0  0  0  0  0  0
   -2.2400    1.4352    3.5711 H   0  0  0  0  0  0  0  0  0  0  0  0
   -3.9737    1.2080    3.8754 H   0  0  0  0  0  0  0  0  0  0  0  0
   -0.8951    0.0871    1.1714 N   0  0  0  0  0  0  0  0  0  0  0  0
    0.4040   -0.4324    0.6903 C   0  0  2  0  0  0  0  0  0  0  0  0
    0.3631   -1.7605   -0.1132 C   0  0  0  0  0  0  0  0  0  0  0  0
    1.3656   -2.4559   -0.2287 O   0  0  0  0  0  0  0  0  0  0  0  0
    1.3260   -0.5481    1.9135 C   0  0  0  0  0  0  0  0  0  0  0  0
   -1.0716    1.0828    1.0679 H   0  0  0  0  0  0  0  0  0  0  0  0
    0.8310    0.3082    0.0077 H   0  0  0  0  0  0  0  0  0  0  0  0
    0.9617   -1.3232    2.5958 H   0  0  0  0  0  0  0  0  0  0  0  0
    2.3428   -0.8112    1.6048 H   0  0  0  0  0  0  0  0  0  0  0  0
    1.3682    0.4021    2.4540 H   0  0  0  0  0  0  0  0  0  0  0  0
   -0.7482   -2.0798   -0.8688 N   0  0  0  0  0  0  0  0  0  0  0  0
   -0.9332   -3.3262   -1.6184 C   0  0  2  0  0  0  0  0  0  0  0  0
   -2.1211   -3.2162   -2.5968 C   0  0  0  0  0  0  0  0  0  0  0  0
   -2.9682   -2.3406   -2.4487 O   0  0  0  0  0  0  0  0  0  0  0  0
   -1.1800   -4.4706   -0.6270 C   0  0  0  0  0  0  0  0  0  0  0  0
   -1.5806   -1.5153   -0.7122 H   0  0  0  0  0  0  0  0  0  0  0  0
   -0.0312   -3.5353   -2.2026 H   0  0  0  0  0  0  0  0  0  0  0  0
   -2.0654   -4.2615   -0.0178 H   0  0  0  0  0  0  0  0  0  0  0  0
   -1.3357   -5.4142   -1.1579 H   0  0  0  0  0  0  0  0  0  0  0  0
   -0.3219   -4.5916    0.0415 H   0  0  0  0  0  0  0  0  0  0  0  0
   -2.2443   -4.1042   -3.6497 N   0  0  0  0  0  0  0  0  0  0  0  0
   -3.3235   -4.0399   -4.6275 C   0  0  0  0  0  0  0  0  0  0  0  0
   -1.5180   -4.8057   -3.7612 H   0  0  0  0  0  0  0  0  0  0  0  0
   -4.2966   -4.0960   -4.1284 H   0  0  0  0  0  0  0  0  0  0  0  0
   -3.2715   -3.1034   -5.1928 H   0  0  0  0  0  0  0  0  0  0  0  0
   -3.2489   -4.8751   -5.3307 H   0  0  0  0  0  0  0  0  0  0  0  0
  1  2  2  0  0  0  0
  1  3  1  0  0  0  0
  1  7  1  0  0  0  0
  3  4  1  0  0  0  0
  3  5  1  0  0  0  0
  3  6  1  0  0  0  0
  7  8  1  0  0  0  0
  7 12  1  0  0  0  0
  8  9  1  0  0  0  0
  8 11  1  0  0  0  0
  8 13  1  0  0  0  0
  9 10  2  0  0  0  0
  9 17  1  0  0  0  0
 11 14  1  0  0  0  0
 11 15  1  0  0  0  0
 11 16  1  0  0  0  0
 17 18  1  0  0  0  0
 17 22  1  0  0  0  0
 18 19  1  0  0  0  0
 18 21  1  0  0  0  0
 18 23  1  0  0  0  0
 19 20  2  0  0  0  0
 19 27  1  0  0  0  0
 21 24  1  0  0  0  0
 21 25  1  0  0  0  0
 21 26  1  0  0  0  0
 27 28  1  0  0  0  0
 27 32  1  0  0  0  0
 28 29  1  0  0  0  0
 28 31  1  0  0  0  0
 28 33  1  0  0  0  0
 29 30  2  0  0  0  0
 29 37  1  0  0  0  0
 31 34  1  0  0  0  0
 31 35  1  0  0  0  0
 31 36  1  0  0  0  0
 37 38  1  0  0  0  0
 37 39  1  0  0  0  0
 38 40  1  0  0  0  0
 38 41  1  0  0  0  0
 38 42  1  0  0  0  0
M  END
$$$$

  -OEChem-05262215353D

 42 41  0     1  0  0  0  0  0999 V2000
   -5.6505   -0.7192    1.9764 C   0  0  0  0  0  0  0  0  0  0  0  0
   -6.0018    0.4097    1.6720 O   0  0  0  0  0  0  0  0  0  0  0  0
   -6.6664   -1.8443    2.0401 C   0  0  0  0  0  0  0  0  0  0  0  0
   -6.7161   -2.2448    3.0556 H   0  0  0  0  0  0  0  0  0  0  0  0
   -7.6563   -1.4745    1.7580 H   0  0  0  0  0  0  0  0  0  0  0  0
   -6.3809   -2.6452    1.3535 H   0  0  0  0  0  0  0  0  0  0  0  0
   -4.3257   -0.9744    2.2595 N   0  0  0  0  0  0  0  0  0  0  0  0
   -3.2387   -0.0034    2.0837 C   0  0  2  0  0  0  0  0  0  0  0  0
   -1.9210   -0.6954    1.6760 C   0  0  0  0  0  0  0  0  0  0  0  0
   -1.7917   -1.9008    1.8477 O   0  0  0  0  0  0  0  0  0  0  0  0
   -3.0603    0.7655    3.3963 C   0  0  0  0  0  0  0  0  0  0  0  0
   -4.0536   -1.9473    2.3976 H   0  0  0  0  0  0  0  0  0  0  0  0
   -3.4995    0.7000    1.2856 H   0  0  0  0  0  0  0  0  0  0  0  0
   -2.7945    0.0801    4.2076 H   0  0  0  0  0  0  0  0  0  0  0  0
   -2.2696    1.5155    3.2997 H   0  0  0  0  0  0  0  0  0  0  0  0
   -3.9902    1.2779    3.6636 H   0  0  0  0  0  0  0  0  0  0  0  0
   -0.8980    0.0461    1.1048 N   0  0  0  0  0  0  0  0  0  0  0  0
    0.4289   -0.4632    0.6974 C   0  0  2  0  0  0  0  0  0  0  0  0
    0.4149   -1.8036   -0.0837 C   0  0  0  0  0  0  0  0  0  0  0  0
    1.3091   -2.6322    0.0449 O   0  0  0  0  0  0  0  0  0  0  0  0
    1.2951   -0.5486    1.9632 C   0  0  0  0  0  0  0  0  0  0  0  0
   -1.0641    1.0457    1.0270 H   0  0  0  0  0  0  0  0  0  0  0  0
    0.8823    0.2687    0.0225 H   0  0  0  0  0  0  0  0  0  0  0  0
    0.9095   -1.3191    2.6392 H   0  0  0  0  0  0  0  0  0  0  0  0
    2.3277   -0.8033    1.7036 H   0  0  0  0  0  0  0  0  0  0  0  0
    1.3001    0.4097    2.4910 H   0  0  0  0  0  0  0  0  0  0  0  0
   -0.5049   -1.9807   -1.0989 N   0  0  0  0  0  0  0  0  0  0  0  0
   -0.6703   -3.2111   -1.8796 C   0  0  2  0  0  0  0  0  0  0  0  0
   -1.5277   -2.9640   -3.1383 C   0  0  0  0  0  0  0  0  0  0  0  0
   -2.2220   -1.9561   -3.2266 O   0  0  0  0  0  0  0  0  0  0  0  0
   -1.3346   -4.2718   -0.9921 C   0  0  0  0  0  0  0  0  0  0  0  0
   -1.2382   -1.2800   -1.1866 H   0  0  0  0  0  0  0  0  0  0  0  0
    0.3117   -3.5699   -2.2054 H   0  0  0  0  0  0  0  0  0  0  0  0
   -2.3080   -3.9173   -0.6378 H   0  0  0  0  0  0  0  0  0  0  0  0
   -1.4818   -5.2025   -1.5478 H   0  0  0  0  0  0  0  0  0  0  0  0
   -0.7090   -4.4891   -0.1204 H   0  0  0  0  0  0  0  0  0  0  0  0
   -1.5262   -3.8768   -4.1770 N   0  0  0  0  0  0  0  0  0  0  0  0
   -2.3187   -3.7102   -5.3894 C   0  0  0  0  0  0  0  0  0  0  0  0
   -0.9349   -4.6975   -4.0813 H   0  0  0  0  0  0  0  0  0  0  0  0
   -3.3848   -3.6536   -5.1454 H   0  0  0  0  0  0  0  0  0  0  0  0
   -2.0285   -2.7940   -5.9144 H   0  0  0  0  0  0  0  0  0  0  0  0
   -2.1632   -4.5586   -6.0628 H   0  0  0  0  0  0  0  0  0  0  0  0
  1  2  2  0  0  0  0
  1  3  1  0  0  0  0
  1  7  1  0  0  0  0
  3  4  1  0  0  0  0
  3  5  1  0  0  0  0
  3  6  1  0  0  0  0
  7  8  1  0  0  0  0
  7 12  1  0  0  0  0
  8  9  1  0  0  0  0
  8 11  1  0  0  0  0
  8 13  1  0  0  0  0
  9 10  2  0  0  0  0
  9 17  1  0  0  0  0
 11 14  1  0  0  0  0
 11 15  1  0  0  0  0
 11 16  1  0  0  0  0
 17 18  1  0  0  0  0
 17 22  1  0  0  0  0
 18 19  1  0  0  0  0
 18 21  1  0  0  0  0
 18 23  1  0  0  0  0
 19 20  2  0  0  0  0
 19 27  1  0  0  0  0
 21 24  1  0  0  0  0
 21 25  1  0  0  0  0
 21 26  1  0  0  0  0
 27 28  1  0  0  0  0
 27 32  1  0  0  0  0
 28 29  1  0  0  0  0
 28 31  1  0  0  0  0
 28 33  1  0  0  0  0
 29 30  2  0  0  0  0
 29 37  1  0  0  0  0
 31 34  1  0  0  0  0
 31 35  1  0  0  0  0
 31 36  1  0  0  0  0
 37 38  1  0  0  0  0
 37 39  1  0  0  0  0
 38 40  1  0  0  0  0
 38 41  1  0  0  0  0
 38 42  1  0  0  0  0
M  END
$$$$

  -OEChem-05262215353D

 42 41  0     1  0  0  0  0  0999 V2000
   -5.6479   -0.7529    1.9388 C   0  0  0  0  0  0  0  0  0  0  0  0
   -6.0082    0.3462    1.5481 O   0  0  0  0  0  0  0  0  0  0  0  0
   -6.6473   -1.8889    2.0530 C   0  0  0  0  0  0  0  0  0  0  0  0
   -6.7050   -2.2309    3.0893 H   0  0  0  0  0  0  0  0  0  0  0  0
   -7.6392   -1.5535    1.7367 H   0  0  0  0  0  0  0  0  0  0  0  0
   -6.3384   -2.7232    1.4182 H   0  0  0  0  0  0  0  0  0  0  0  0
   -4.3275   -0.9670    2.2715 N   0  0  0  0  0  0  0  0  0  0  0  0
   -3.2475    0.0021    2.0479 C   0  0  2  0  0  0  0  0  0  0  0  0
   -1.9288   -0.7001    1.6620 C   0  0  0  0  0  0  0  0  0  0  0  0
   -1.8032   -1.9007    1.8643 O   0  0  0  0  0  0  0  0  0  0  0  0
   -3.0674    0.8226    3.3282 C   0  0  0  0  0  0  0  0  0  0  0  0
   -4.0451   -1.9269    2.4685 H   0  0  0  0  0  0  0  0  0  0  0  0
   -3.5145    0.6722    1.2235 H   0  0  0  0  0  0  0  0  0  0  0  0
   -2.7929    0.1713    4.1644 H   0  0  0  0  0  0  0  0  0  0  0  0
   -2.2822    1.5733    3.1987 H   0  0  0  0  0  0  0  0  0  0  0  0
   -3.9995    1.3387    3.5796 H   0  0  0  0  0  0  0  0  0  0  0  0
   -0.9037    0.0270    1.0772 N   0  0  0  0  0  0  0  0  0  0  0  0
    0.4268   -0.4907    0.6968 C   0  0  2  0  0  0  0  0  0  0  0  0
    0.4099   -1.8550   -0.0420 C   0  0  0  0  0  0  0  0  0  0  0  0
    1.1579   -2.7737    0.2735 O   0  0  0  0  0  0  0  0  0  0  0  0
    1.2830   -0.5359    1.9717 C   0  0  0  0  0  0  0  0  0  0  0  0
   -1.0702    1.0240    0.9734 H   0  0  0  0  0  0  0  0  0  0  0  0
    0.8880    0.2199    0.0045 H   0  0  0  0  0  0  0  0  0  0  0  0
    0.8844   -1.2755    2.6742 H   0  0  0  0  0  0  0  0  0  0  0  0
    2.3140   -0.8123    1.7290 H   0  0  0  0  0  0  0  0  0  0  0  0
    1.2951    0.4417    2.4625 H   0  0  0  0  0  0  0  0  0  0  0  0
   -0.2742   -1.9533   -1.2383 N   0  0  0  0  0  0  0  0  0  0  0  0
   -0.3545   -3.1608   -2.0675 C   0  0  2  0  0  0  0  0  0  0  0  0
   -0.8540   -2.8331   -3.4901 C   0  0  0  0  0  0  0  0  0  0  0  0
   -1.3718   -1.7465   -3.7288 O   0  0  0  0  0  0  0  0  0  0  0  0
   -1.3029   -4.1609   -1.3941 C   0  0  0  0  0  0  0  0  0  0  0  0
   -0.8582   -1.1657   -1.5131 H   0  0  0  0  0  0  0  0  0  0  0  0
    0.6417   -3.6064   -2.1562 H   0  0  0  0  0  0  0  0  0  0  0  0
   -2.3045   -3.7305   -1.2950 H   0  0  0  0  0  0  0  0  0  0  0  0
   -1.3739   -5.0803   -1.9823 H   0  0  0  0  0  0  0  0  0  0  0  0
   -0.9383   -4.4212   -0.3953 H   0  0  0  0  0  0  0  0  0  0  0  0
   -0.7306   -3.7615   -4.5076 N   0  0  0  0  0  0  0  0  0  0  0  0
   -1.2153   -3.5328   -5.8635 C   0  0  0  0  0  0  0  0  0  0  0  0
   -0.3010   -4.6539   -4.2808 H   0  0  0  0  0  0  0  0  0  0  0  0
   -2.2981   -3.3684   -5.8597 H   0  0  0  0  0  0  0  0  0  0  0  0
   -0.7275   -2.6565   -6.3036 H   0  0  0  0  0  0  0  0  0  0  0  0
   -0.9997   -4.4007   -6.4941 H   0  0  0  0  0  0  0  0  0  0  0  0
  1  2  2  0  0  0  0
  1  3  1  0  0  0  0
  1  7  1  0  0  0  0
  3  4  1  0  0  0  0
  3  5  1  0  0  0  0
  3  6  1  0  0  0  0
  7  8  1  0  0  0  0
  7 12  1  0  0  0  0
  8  9  1  0  0  0  0
  8 11  1  0  0  0  0
  8 13  1  0  0  0  0
  9 10  2  0  0  0  0
  9 17  1  0  0  0  0
 11 14  1  0  0  0  0
 11 15  1  0  0  0  0
 11 16  1  0  0  0  0
 17 18  1  0  0  0  0
 17 22  1  0  0  0  0
 18 19  1  0  0  0  0
 18 21  1  0  0  0  0
 18 23  1  0  0  0  0
 19 20  2  0  0  0  0
 19 27  1  0  0  0  0
 21 24  1  0  0  0  0
 21 25  1  0  0  0  0
 21 26  1  0  0  0  0
 27 28  1  0  0  0  0
 27 32  1  0  0  0  0
 28 29  1  0  0  0  0
 28 31  1  0  0  0  0
 28 33  1  0  0  0  0
 29 30  2  0  0  0  0
 29 37  1  0  0  0  0
 31 34  1  0  0  0  0
 31 35  1  0  0  0  0
 31 36  1  0  0  0  0
 37 38  1  0  0  0  0
 37 39  1  0  0  0  0
 38 40  1  0  0  0  0
 38 41  1  0  0  0  0
 38 42  1  0  0  0  0
M  END
$$$$

  -OEChem-05262215353D

 42 41  0     1  0  0  0  0  0999 V2000
   -5.5164   -0.8222    1.7639 C   0  0  0  0  0  0  0  0  0  0  0  0
   -5.7996    0.1316    1.0562 O   0  0  0  0  0  0  0  0  0  0  0  0
   -6.4707   -1.9968    1.8715 C   0  0  0  0  0  0  0  0  0  0  0  0
   -6.7424   -2.1623    2.9169 H   0  0  0  0  0  0  0  0  0  0  0  0
   -7.3809   -1.7969    1.2989 H   0  0  0  0  0  0  0  0  0  0  0  0
   -5.9975   -2.9000    1.4780 H   0  0  0  0  0  0  0  0  0  0  0  0
   -4.3259   -0.8469    2.4600 N   0  0  0  0  0  0  0  0  0  0  0  0
   -3.2234    0.0987    2.2355 C   0  0  2  0  0  0  0  0  0  0  0  0
   -1.9423   -0.6301    1.7800 C   0  0  0  0  0  0  0  0  0  0  0  0
   -1.7902   -1.8094    2.0664 O   0  0  0  0  0  0  0  0  0  0  0  0
   -2.9758    0.8504    3.5453 C   0  0  0  0  0  0  0  0  0  0  0  0
   -4.0650   -1.7471    2.8602 H   0  0  0  0  0  0  0  0  0  0  0  0
   -3.4863    0.8230    1.4578 H   0  0  0  0  0  0  0  0  0  0  0  0
   -2.6930    0.1528    4.3405 H   0  0  0  0  0  0  0  0  0  0  0  0
   -2.1715    1.5821    3.4228 H   0  0  0  0  0  0  0  0  0  0  0  0
   -3.8825    1.3810    3.8527 H   0  0  0  0  0  0  0  0  0  0  0  0
   -0.9690    0.0586    1.0738 N   0  0  0  0  0  0  0  0  0  0  0  0
    0.3246   -0.4838    0.6123 C   0  0  2  0  0  0  0  0  0  0  0  0
    0.2548   -1.8863   -0.0504 C   0  0  0  0  0  0  0  0  0  0  0  0
    0.8601   -2.8520    0.4012 O   0  0  0  0  0  0  0  0  0  0  0  0
    1.2856   -0.4603    1.8109 C   0  0  0  0  0  0  0  0  0  0  0  0
   -1.1621    1.0399    0.8949 H   0  0  0  0  0  0  0  0  0  0  0  0
    0.7262    0.1894   -0.1507 H   0  0  0  0  0  0  0  0  0  0  0  0
    0.9420   -1.1462    2.5926 H   0  0  0  0  0  0  0  0  0  0  0  0
    2.2887   -0.7685    1.4998 H   0  0  0  0  0  0  0  0  0  0  0  0
    1.3495    0.5463    2.2342 H   0  0  0  0  0  0  0  0  0  0  0  0
   -0.2527   -1.9852   -1.3325 N   0  0  0  0  0  0  0  0  0  0  0  0
   -0.1969   -3.1875   -2.1721 C   0  0  2  0  0  0  0  0  0  0  0  0
   -0.1857   -2.8324   -3.6733 C   0  0  0  0  0  0  0  0  0  0  0  0
   -0.4488   -1.6921   -4.0418 O   0  0  0  0  0  0  0  0  0  0  0  0
   -1.4049   -4.0671   -1.8321 C   0  0  0  0  0  0  0  0  0  0  0  0
   -0.6400   -1.1441   -1.7560 H   0  0  0  0  0  0  0  0  0  0  0  0
    0.7242   -3.7416   -1.9626 H   0  0  0  0  0  0  0  0  0  0  0  0
   -2.3378   -3.5363   -2.0475 H   0  0  0  0  0  0  0  0  0  0  0  0
   -1.3854   -4.9909   -2.4176 H   0  0  0  0  0  0  0  0  0  0  0  0
   -1.3941   -4.3328   -0.7698 H   0  0  0  0  0  0  0  0  0  0  0  0
    0.1371   -3.7923   -4.6150 N   0  0  0  0  0  0  0  0  0  0  0  0
    0.2026   -3.5221   -6.0458 C   0  0  0  0  0  0  0  0  0  0  0  0
    0.3790   -4.7194   -4.2770 H   0  0  0  0  0  0  0  0  0  0  0  0
   -0.7504   -3.1196   -6.4053 H   0  0  0  0  0  0  0  0  0  0  0  0
    0.9955   -2.7986   -6.2626 H   0  0  0  0  0  0  0  0  0  0  0  0
    0.4152   -4.4445   -6.5947 H   0  0  0  0  0  0  0  0  0  0  0  0
  1  2  2  0  0  0  0
  1  3  1  0  0  0  0
  1  7  1  0  0  0  0
  3  4  1  0  0  0  0
  3  5  1  0  0  0  0
  3  6  1  0  0  0  0
  7  8  1  0  0  0  0
  7 12  1  0  0  0  0
  8  9  1  0  0  0  0
  8 11  1  0  0  0  0
  8 13  1  0  0  0  0
  9 10  2  0  0  0  0
  9 17  1  0  0  0  0
 11 14  1  0  0  0  0
 11 15  1  0  0  0  0
 11 16  1  0  0  0  0
 17 18  1  0  0  0  0
 17 22  1  0  0  0  0
 18 19  1  0  0  0  0
 18 21  1  0  0  0  0
 18 23  1  0  0  0  0
 19 20  2  0  0  0  0
 19 27  1  0  0  0  0
 21 24  1  0  0  0  0
 21 25  1  0  0  0  0
 21 26  1  0  0  0  0
 27 28  1  0  0  0  0
 27 32  1  0  0  0  0
 28 29  1  0  0  0  0
 28 31  1  0  0  0  0
 28 33  1  0  0  0  0
 29 30  2  0  0  0  0
 29 37  1  0  0  0  0
 31 34  1  0  0  0  0
 31 35  1  0  0  0  0
 31 36  1  0  0  0  0
 37 38  1  0  0  0  0
 37 39  1  0  0  0  0
 38 40  1  0  0  0  0
 38 41  1  0  0  0  0
 38 42  1  0  0  0  0
M  END
$$$$

  -OEChem-05262215353D

 42 41  0     1  0  0  0  0  0999 V2000
   -5.4967   -0.8202    1.7378 C   0  0  0  0  0  0  0  0  0  0  0  0
   -5.7561    0.1016    0.9800 O   0  0  0  0  0  0  0  0  0  0  0  0
   -6.4560   -1.9883    1.8664 C   0  0  0  0  0  0  0  0  0  0  0  0
   -6.7716   -2.0981    2.9066 H   0  0  0  0  0  0  0  0  0  0  0  0
   -7.3407   -1.8200    1.2459 H   0  0  0  0  0  0  0  0  0  0  0  0
   -5.9673   -2.9102    1.5417 H   0  0  0  0  0  0  0  0  0  0  0  0
   -4.3306   -0.8125    2.4744 N   0  0  0  0  0  0  0  0  0  0  0  0
   -3.2216    0.1236    2.2432 C   0  0  2  0  0  0  0  0  0  0  0  0
   -1.9404   -0.6218    1.8148 C   0  0  0  0  0  0  0  0  0  0  0  0
   -1.7880   -1.7861    2.1543 O   0  0  0  0  0  0  0  0  0  0  0  0
   -2.9855    0.8979    3.5418 C   0  0  0  0  0  0  0  0  0  0  0  0
   -4.0787   -1.6972    2.9136 H   0  0  0  0  0  0  0  0  0  0  0  0
   -3.4735    0.8360    1.4509 H   0  0  0  0  0  0  0  0  0  0  0  0
   -2.7156    0.2134    4.3528 H   0  0  0  0  0  0  0  0  0  0  0  0
   -2.1765    1.6236    3.4150 H   0  0  0  0  0  0  0  0  0  0  0  0
   -3.8928    1.4386    3.8288 H   0  0  0  0  0  0  0  0  0  0  0  0
   -0.9713    0.0390    1.0766 N   0  0  0  0  0  0  0  0  0  0  0  0
    0.3037   -0.5246    0.5873 C   0  0  2  0  0  0  0  0  0  0  0  0
    0.2144   -1.9332   -0.0623 C   0  0  0  0  0  0  0  0  0  0  0  0
    0.6212   -2.9428    0.5009 O   0  0  0  0  0  0  0  0  0  0  0  0
    1.2996   -0.5039    1.7561 C   0  0  0  0  0  0  0  0  0  0  0  0
   -1.1776    1.0068    0.8470 H   0  0  0  0  0  0  0  0  0  0  0  0
    0.6938    0.1418   -0.1876 H   0  0  0  0  0  0  0  0  0  0  0  0
    0.9626   -1.1653    2.5613 H   0  0  0  0  0  0  0  0  0  0  0  0
    2.2844   -0.8444    1.4208 H   0  0  0  0  0  0  0  0  0  0  0  0
    1.4013    0.5091    2.1563 H   0  0  0  0  0  0  0  0  0  0  0  0
   -0.0178   -2.0131   -1.4231 N   0  0  0  0  0  0  0  0  0  0  0  0
    0.1342   -3.2252   -2.2368 C   0  0  2  0  0  0  0  0  0  0  0  0
    0.5409   -2.8830   -3.6844 C   0  0  0  0  0  0  0  0  0  0  0  0
    0.4581   -1.7287   -4.0924 O   0  0  0  0  0  0  0  0  0  0  0  0
   -1.1929   -3.9885   -2.2105 C   0  0  0  0  0  0  0  0  0  0  0  0
   -0.1884   -1.1443   -1.9261 H   0  0  0  0  0  0  0  0  0  0  0  0
    0.9238   -3.8583   -1.8182 H   0  0  0  0  0  0  0  0  0  0  0  0
   -1.9950   -3.3768   -2.6356 H   0  0  0  0  0  0  0  0  0  0  0  0
   -1.1161   -4.9144   -2.7878 H   0  0  0  0  0  0  0  0  0  0  0  0
   -1.4597   -4.2455   -1.1802 H   0  0  0  0  0  0  0  0  0  0  0  0
    1.0232   -3.8684   -4.5256 N   0  0  0  0  0  0  0  0  0  0  0  0
    1.4851   -3.6065   -5.8831 C   0  0  0  0  0  0  0  0  0  0  0  0
    1.1169   -4.8060   -4.1452 H   0  0  0  0  0  0  0  0  0  0  0  0
    0.6888   -3.1469   -6.4781 H   0  0  0  0  0  0  0  0  0  0  0  0
    2.3486   -2.9331   -5.8696 H   0  0  0  0  0  0  0  0  0  0  0  0
    1.7820   -4.5414   -6.3681 H   0  0  0  0  0  0  0  0  0  0  0  0
  1  2  2  0  0  0  0
  1  3  1  0  0  0  0
  1  7  1  0  0  0  0
  3  4  1  0  0  0  0
  3  5  1  0  0  0  0
  3  6  1  0  0  0  0
  7  8  1  0  0  0  0
  7 12  1  0  0  0  0
  8  9  1  0  0  0  0
  8 11  1  0  0  0  0
  8 13  1  0  0  0  0
  9 10  2  0  0  0  0
  9 17  1  0  0  0  0
 11 14  1  0  0  0  0
 11 15  1  0  0  0  0
 11 16  1  0  0  0  0
 17 18  1  0  0  0  0
 17 22  1  0  0  0  0
 18 19  1  0  0  0  0
 18 21  1  0  0  0  0
 18 23  1  0  0  0  0
 19 20  2  0  0  0  0
 19 27  1  0  0  0  0
 21 24  1  0  0  0  0
 21 25  1  0  0  0  0
 21 26  1  0  0  0  0
 27 28  1  0  0  0  0
 27 32  1  0  0  0  0
 28 29  1  0  0  0  0
 28 31  1  0  0  0  0
 28 33  1  0  0  0  0
 29 30  2  0  0  0  0
 29 37  1  0  0  0  0
 31 34  1  0  0  0  0
 31 35  1  0  0  0  0
 31 36  1  0  0  0  0
 37 38  1  0  0  0  0
 37 39  1  0  0  0  0
 38 40  1  0  0  0  0
 38 41  1  0  0  0  0
 38 42  1  0  0  0  0
M  END
$$$$

  -OEChem-05262215353D

 42 41  0     1  0  0  0  0  0999 V2000
   -5.4628   -0.8320    1.7100 C   0  0  0  0  0  0  0  0  0  0  0  0
   -5.7029    0.0454    0.8951 O   0  0  0  0  0  0  0  0  0  0  0  0
   -6.4092   -2.0089    1.8576 C   0  0  0  0  0  0  0  0  0  0  0  0
   -6.7696   -2.0715    2.8875 H   0  0  0  0  0  0  0  0  0  0  0  0
   -7.2675   -1.8894    1.1903 H   0  0  0  0  0  0  0  0  0  0  0  0
   -5.8920   -2.9374    1.6029 H   0  0  0  0  0  0  0  0  0  0  0  0
   -4.3265   -0.7701    2.4892 N   0  0  0  0  0  0  0  0  0  0  0  0
   -3.2137    0.1572    2.2403 C   0  0  2  0  0  0  0  0  0  0  0  0
   -1.9235   -0.6056    1.8738 C   0  0  0  0  0  0  0  0  0  0  0  0
   -1.7677   -1.7408    2.2971 O   0  0  0  0  0  0  0  0  0  0  0  0
   -3.0058    0.9897    3.5072 C   0  0  0  0  0  0  0  0  0  0  0  0
   -4.0833   -1.6290    2.9814 H   0  0  0  0  0  0  0  0  0  0  0  0
   -3.4488    0.8332    1.4118 H   0  0  0  0  0  0  0  0  0  0  0  0
   -2.7505    0.3432    4.3532 H   0  0  0  0  0  0  0  0  0  0  0  0
   -2.1955    1.7108    3.3638 H   0  0  0  0  0  0  0  0  0  0  0  0
   -3.9201    1.5396    3.7513 H   0  0  0  0  0  0  0  0  0  0  0  0
   -0.9468    0.0201    1.1153 N   0  0  0  0  0  0  0  0  0  0  0  0
    0.2959   -0.5808    0.5873 C   0  0  2  0  0  0  0  0  0  0  0  0
    0.1665   -1.9805   -0.0778 C   0  0  0  0  0  0  0  0  0  0  0  0
    0.3207   -3.0253    0.5419 O   0  0  0  0  0  0  0  0  0  0  0  0
    1.3172   -0.6133    1.7333 C   0  0  0  0  0  0  0  0  0  0  0  0
   -1.1734    0.9623    0.8114 H   0  0  0  0  0  0  0  0  0  0  0  0
    0.6898    0.0897   -0.1821 H   0  0  0  0  0  0  0  0  0  0  0  0
    0.9723   -1.2696    2.5394 H   0  0  0  0  0  0  0  0  0  0  0  0
    2.2801   -0.9887    1.3737 H   0  0  0  0  0  0  0  0  0  0  0  0
    1.4664    0.3899    2.1428 H   0  0  0  0  0  0  0  0  0  0  0  0
    0.2235   -2.0554   -1.4584 N   0  0  0  0  0  0  0  0  0  0  0  0
    0.4522   -3.2840   -2.2299 C   0  0  2  0  0  0  0  0  0  0  0  0
    1.2463   -2.9909   -3.5198 C   0  0  0  0  0  0  0  0  0  0  0  0
    1.3660   -1.8365   -3.9190 O   0  0  0  0  0  0  0  0  0  0  0  0
   -0.9086   -3.9060   -2.5564 C   0  0  0  0  0  0  0  0  0  0  0  0
    0.2955   -1.1805   -1.9750 H   0  0  0  0  0  0  0  0  0  0  0  0
    1.0413   -3.9938   -1.6393 H   0  0  0  0  0  0  0  0  0  0  0  0
   -1.5102   -3.2166   -3.1572 H   0  0  0  0  0  0  0  0  0  0  0  0
   -0.7822   -4.8377   -3.1157 H   0  0  0  0  0  0  0  0  0  0  0  0
   -1.4527   -4.1295   -1.6329 H   0  0  0  0  0  0  0  0  0  0  0  0
    1.8491   -4.0178   -4.2228 N   0  0  0  0  0  0  0  0  0  0  0  0
    2.6652   -3.8029   -5.4119 C   0  0  0  0  0  0  0  0  0  0  0  0
    1.7773   -4.9554   -3.8377 H   0  0  0  0  0  0  0  0  0  0  0  0
    2.1003   -3.2527   -6.1720 H   0  0  0  0  0  0  0  0  0  0  0  0
    3.5654   -3.2324   -5.1601 H   0  0  0  0  0  0  0  0  0  0  0  0
    2.9710   -4.7626   -5.8396 H   0  0  0  0  0  0  0  0  0  0  0  0
  1  2  2  0  0  0  0
  1  3  1  0  0  0  0
  1  7  1  0  0  0  0
  3  4  1  0  0  0  0
  3  5  1  0  0  0  0
  3  6  1  0  0  0  0
  7  8  1  0  0  0  0
  7 12  1  0  0  0  0
  8  9  1  0  0  0  0
  8 11  1  0  0  0  0
  8 13  1  0  0  0  0
  9 10  2  0  0  0  0
  9 17  1  0  0  0  0
 11 14  1  0  0  0  0
 11 15  1  0  0  0  0
 11 16  1  0  0  0  0
 17 18  1  0  0  0  0
 17 22  1  0  0  0  0
 18 19  1  0  0  0  0
 18 21  1  0  0  0  0
 18 23  1  0  0  0  0
 19 20  2  0  0  0  0
 19 27  1  0  0  0  0
 21 24  1  0  0  0  0
 21 25  1  0  0  0  0
 21 26  1  0  0  0  0
 27 28  1  0  0  0  0
 27 32  1  0  0  0  0
 28 29  1  0  0  0  0
 28 31  1  0  0  0  0
 28 33  1  0  0  0  0
 29 30  2  0  0  0  0
 29 37  1  0  0  0  0
 31 34  1  0  0  0  0
 31 35  1  0  0  0  0
 31 36  1  0  0  0  0
 37 38  1  0  0  0  0
 37 39  1  0  0  0  0
 38 40  1  0  0  0  0
 38 41  1  0  0  0  0
 38 42  1  0  0  0  0
M  END
$$$$

  -OEChem-05262215353D

 42 41  0     1  0  0  0  0  0999 V2000
   -5.3988   -0.9655    1.6616 C   0  0  0  0  0  0  0  0  0  0  0  0
   -5.6730   -0.1366    0.8074 O   0  0  0  0  0  0  0  0  0  0  0  0
   -6.3049   -2.1634    1.8744 C   0  0  0  0  0  0  0  0  0  0  0  0
   -6.7026   -2.1540    2.8922 H   0  0  0  0  0  0  0  0  0  0  0  0
   -7.1397   -2.1348    1.1687 H   0  0  0  0  0  0  0  0  0  0  0  0
   -5.7439   -3.0882    1.7185 H   0  0  0  0  0  0  0  0  0  0  0  0
   -4.2659   -0.8212    2.4342 N   0  0  0  0  0  0  0  0  0  0  0  0
   -3.1960    0.1452    2.1519 C   0  0  2  0  0  0  0  0  0  0  0  0
   -1.8387   -0.5656    1.9731 C   0  0  0  0  0  0  0  0  0  0  0  0
   -1.6412   -1.6139    2.5691 O   0  0  0  0  0  0  0  0  0  0  0  0
   -3.1364    1.1345    3.3177 C   0  0  0  0  0  0  0  0  0  0  0  0
   -3.9932   -1.6354    2.9845 H   0  0  0  0  0  0  0  0  0  0  0  0
   -3.4058    0.6968    1.2297 H   0  0  0  0  0  0  0  0  0  0  0  0
   -2.9116    0.6113    4.2529 H   0  0  0  0  0  0  0  0  0  0  0  0
   -2.3600    1.8859    3.1445 H   0  0  0  0  0  0  0  0  0  0  0  0
   -4.0971    1.6473    3.4268 H   0  0  0  0  0  0  0  0  0  0  0  0
   -0.8352    0.0481    1.2393 N   0  0  0  0  0  0  0  0  0  0  0  0
    0.3714   -0.5971    0.6779 C   0  0  2  0  0  0  0  0  0  0  0  0
    0.1867   -1.9549   -0.0567 C   0  0  0  0  0  0  0  0  0  0  0  0
   -0.0984   -3.0012    0.5073 O   0  0  0  0  0  0  0  0  0  0  0  0
    1.4004   -0.7555    1.8052 C   0  0  0  0  0  0  0  0  0  0  0  0
   -1.1130    0.9273    0.8140 H   0  0  0  0  0  0  0  0  0  0  0  0
    0.7957    0.0955   -0.0546 H   0  0  0  0  0  0  0  0  0  0  0  0
    1.0426   -1.4645    2.5592 H   0  0  0  0  0  0  0  0  0  0  0  0
    2.3478   -1.1301    1.4052 H   0  0  0  0  0  0  0  0  0  0  0  0
    1.5854    0.2060    2.2934 H   0  0  0  0  0  0  0  0  0  0  0  0
    0.5576   -2.0331   -1.3872 N   0  0  0  0  0  0  0  0  0  0  0  0
    0.7464   -3.2857   -2.1307 C   0  0  2  0  0  0  0  0  0  0  0  0
    1.8957   -3.1548   -3.1514 C   0  0  0  0  0  0  0  0  0  0  0  0
    2.3670   -2.0507   -3.4066 O   0  0  0  0  0  0  0  0  0  0  0  0
   -0.5699   -3.6355   -2.8307 C   0  0  0  0  0  0  0  0  0  0  0  0
    0.9775   -1.2033   -1.8037 H   0  0  0  0  0  0  0  0  0  0  0  0
    1.0155   -4.0943   -1.4426 H   0  0  0  0  0  0  0  0  0  0  0  0
   -0.8506   -2.8462   -3.5354 H   0  0  0  0  0  0  0  0  0  0  0  0
   -0.4757   -4.5769   -3.3800 H   0  0  0  0  0  0  0  0  0  0  0  0
   -1.3717   -3.7459   -2.0933 H   0  0  0  0  0  0  0  0  0  0  0  0
    2.4219   -4.2766   -3.7646 N   0  0  0  0  0  0  0  0  0  0  0  0
    3.5508   -4.2298   -4.6860 C   0  0  0  0  0  0  0  0  0  0  0  0
    2.0389   -5.1798   -3.4999 H   0  0  0  0  0  0  0  0  0  0  0  0
    3.3313   -3.5679   -5.5305 H   0  0  0  0  0  0  0  0  0  0  0  0
    4.4471   -3.8633   -4.1745 H   0  0  0  0  0  0  0  0  0  0  0  0
    3.7601   -5.2296   -5.0784 H   0  0  0  0  0  0  0  0  0  0  0  0
  1  2  2  0  0  0  0
  1  3  1  0  0  0  0
  1  7  1  0  0  0  0
  3  4  1  0  0  0  0
  3  5  1  0  0  0  0
  3  6  1  0  0  0  0
  7  8  1  0  0  0  0
  7 12  1  0  0  0  0
  8  9  1  0  0  0  0
  8 11  1  0  0  0  0
  8 13  1  0  0  0  0
  9 10  2  0  0  0  0
  9 17  1  0  0  0  0
 11 14  1  0  0  0  0
 11 15  1  0  0  0  0
 11 16  1  0  0  0  0
 17 18  1  0  0  0  0
 17 22  1  0  0  0  0
 18 19  1  0  0  0  0
 18 21  1  0  0  0  0
 18 23  1  0  0  0  0
 19 20  2  0  0  0  0
 19 27  1  0  0  0  0
 21 24  1  0  0  0  0
 21 25  1  0  0  0  0
 21 26  1  0  0  0  0
 27 28  1  0  0  0  0
 27 32  1  0  0  0  0
 28 29  1  0  0  0  0
 28 31  1  0  0  0  0
 28 33  1  0  0  0  0
 29 30  2  0  0  0  0
 29 37  1  0  0  0  0
 31 34  1  0  0  0  0
 31 35  1  0  0  0  0
 31 36  1  0  0  0  0
 37 38  1  0  0  0  0
 37 39  1  0  0  0  0
 38 40  1  0  0  0  0
 38 41  1  0  0  0  0
 38 42  1  0  0  0  0
M  END
$$$$

  -OEChem-05262215353D

 42 41  0     1  0  0  0  0  0999 V2000
   -5.3170   -1.2433    1.6967 C   0  0  0  0  0  0  0  0  0  0  0  0
   -5.7579   -0.3963    0.9347 O   0  0  0  0  0  0  0  0  0  0  0  0
   -6.1133   -2.5037    1.9769 C   0  0  0  0  0  0  0  0  0  0  0  0
   -6.3933   -2.5406    3.0324 H   0  0  0  0  0  0  0  0  0  0  0  0
   -7.0221   -2.5181    1.3690 H   0  0  0  0  0  0  0  0  0  0  0  0
   -5.5146   -3.3854    1.7353 H   0  0  0  0  0  0  0  0  0  0  0  0
   -4.0926   -1.0582    2.3015 N   0  0  0  0  0  0  0  0  0  0  0  0
   -3.1530    0.0133    1.9525 C   0  0  2  0  0  0  0  0  0  0  0  0
   -1.6942   -0.4768    2.0517 C   0  0  0  0  0  0  0  0  0  0  0  0
   -1.4196   -1.3886    2.8226 O   0  0  0  0  0  0  0  0  0  0  0  0
   -3.3933    1.1950    2.8953 C   0  0  0  0  0  0  0  0  0  0  0  0
   -3.7037   -1.8470    2.8188 H   0  0  0  0  0  0  0  0  0  0  0  0
   -3.3232    0.3328    0.9191 H   0  0  0  0  0  0  0  0  0  0  0  0
   -3.2232    0.8951    3.9345 H   0  0  0  0  0  0  0  0  0  0  0  0
   -2.7178    2.0215    2.6560 H   0  0  0  0  0  0  0  0  0  0  0  0
   -4.4238    1.5516    2.7991 H   0  0  0  0  0  0  0  0  0  0  0  0
   -0.6877    0.1880    1.3669 N   0  0  0  0  0  0  0  0  0  0  0  0
    0.5299   -0.4649    0.8374 C   0  0  2  0  0  0  0  0  0  0  0  0
    0.3568   -1.8088    0.0730 C   0  0  0  0  0  0  0  0  0  0  0  0
   -0.4987   -2.6406    0.3405 O   0  0  0  0  0  0  0  0  0  0  0  0
    1.5390   -0.6525    1.9770 C   0  0  0  0  0  0  0  0  0  0  0  0
   -1.0335    0.9687    0.8174 H   0  0  0  0  0  0  0  0  0  0  0  0
    0.9719    0.2373    0.1248 H   0  0  0  0  0  0  0  0  0  0  0  0
    1.1857   -1.4047    2.6894 H   0  0  0  0  0  0  0  0  0  0  0  0
    2.5038   -0.9830    1.5805 H   0  0  0  0  0  0  0  0  0  0  0  0
    1.6890    0.2894    2.5135 H   0  0  0  0  0  0  0  0  0  0  0  0
    1.0488   -1.9816   -1.1125 N   0  0  0  0  0  0  0  0  0  0  0  0
    1.0164   -3.2068   -1.9230 C   0  0  2  0  0  0  0  0  0  0  0  0
    2.3863   -3.4809   -2.5779 C   0  0  0  0  0  0  0  0  0  0  0  0
    3.2536   -2.6131   -2.5713 O   0  0  0  0  0  0  0  0  0  0  0  0
   -0.0726   -3.0519   -2.9888 C   0  0  0  0  0  0  0  0  0  0  0  0
    1.8311   -1.3527   -1.2903 H   0  0  0  0  0  0  0  0  0  0  0  0
    0.7819   -4.0685   -1.2887 H   0  0  0  0  0  0  0  0  0  0  0  0
    0.1504   -2.2038   -3.6440 H   0  0  0  0  0  0  0  0  0  0  0  0
   -0.1449   -3.9561   -3.6004 H   0  0  0  0  0  0  0  0  0  0  0  0
   -1.0439   -2.8801   -2.5140 H   0  0  0  0  0  0  0  0  0  0  0  0
    2.6531   -4.7055   -3.1619 N   0  0  0  0  0  0  0  0  0  0  0  0
    3.9352   -5.0421   -3.7694 C   0  0  0  0  0  0  0  0  0  0  0  0
    1.9254   -5.4136   -3.1230 H   0  0  0  0  0  0  0  0  0  0  0  0
    4.1776   -4.3358   -4.5705 H   0  0  0  0  0  0  0  0  0  0  0  0
    4.7341   -5.0138   -3.0209 H   0  0  0  0  0  0  0  0  0  0  0  0
    3.8977   -6.0484   -4.1976 H   0  0  0  0  0  0  0  0  0  0  0  0
  1  2  2  0  0  0  0
  1  3  1  0  0  0  0
  1  7  1  0  0  0  0
  3  4  1  0  0  0  0
  3  5  1  0  0  0  0
  3  6  1  0  0  0  0
  7  8  1  0  0  0  0
  7 12  1  0  0  0  0
  8  9  1  0  0  0  0
  8 11  1  0  0  0  0
  8 13  1  0  0  0  0
  9 10  2  0  0  0  0
  9 17  1  0  0  0  0
 11 14  1  0  0  0  0
 11 15  1  0  0  0  0
 11 16  1  0  0  0  0
 17 18  1  0  0  0  0
 17 22  1  0  0  0  0
 18 19  1  0  0  0  0
 18 21  1  0  0  0  0
 18 23  1  0  0  0  0
 19 20  2  0  0  0  0
 19 27  1  0  0  0  0
 21 24  1  0  0  0  0
 21 25  1  0  0  0  0
 21 26  1  0  0  0  0
 27 28  1  0  0  0  0
 27 32  1  0  0  0  0
 28 29  1  0  0  0  0
 28 31  1  0  0  0  0
 28 33  1  0  0  0  0
 29 30  2  0  0  0  0
 29 37  1  0  0  0  0
 31 34  1  0  0  0  0
 31 35  1  0  0  0  0
 31 36  1  0  0  0  0
 37 38  1  0  0  0  0
 37 39  1  0  0  0  0
 38 40  1  0  0  0  0
 38 41  1  0  0  0  0
 38 42  1  0  0  0  0
M  END
$$$$

  -OEChem-05262215353D

 42 41  0     1  0  0  0  0  0999 V2000
   -5.2802   -1.2923    1.7209 C   0  0  0  0  0  0  0  0  0  0  0  0
   -5.7697   -0.4410    0.9941 O   0  0  0  0  0  0  0  0  0  0  0  0
   -6.0209   -2.5908    1.9777 C   0  0  0  0  0  0  0  0  0  0  0  0
   -6.1755   -2.7258    3.0508 H   0  0  0  0  0  0  0  0  0  0  0  0
   -6.9948   -2.5756    1.4806 H   0  0  0  0  0  0  0  0  0  0  0  0
   -5.4401   -3.4319    1.5910 H   0  0  0  0  0  0  0  0  0  0  0  0
   -4.0494   -1.0819    2.3042 N   0  0  0  0  0  0  0  0  0  0  0  0
   -3.1516    0.0263    1.9599 C   0  0  2  0  0  0  0  0  0  0  0  0
   -1.6763   -0.4167    2.0399 C   0  0  0  0  0  0  0  0  0  0  0  0
   -1.3605   -1.3261    2.7997 O   0  0  0  0  0  0  0  0  0  0  0  0
   -3.4248    1.1896    2.9171 C   0  0  0  0  0  0  0  0  0  0  0  0
   -3.6226   -1.8724    2.7878 H   0  0  0  0  0  0  0  0  0  0  0  0
   -3.3428    0.3499    0.9314 H   0  0  0  0  0  0  0  0  0  0  0  0
   -3.2402    0.8844    3.9523 H   0  0  0  0  0  0  0  0  0  0  0  0
   -2.7774    2.0400    2.6832 H   0  0  0  0  0  0  0  0  0  0  0  0
   -4.4668    1.5135    2.8291 H   0  0  0  0  0  0  0  0  0  0  0  0
   -0.7010    0.2619    1.3235 N   0  0  0  0  0  0  0  0  0  0  0  0
    0.5281   -0.3792    0.8061 C   0  0  2  0  0  0  0  0  0  0  0  0
    0.3804   -1.7536    0.0921 C   0  0  0  0  0  0  0  0  0  0  0  0
   -0.6498   -2.4147    0.1210 O   0  0  0  0  0  0  0  0  0  0  0  0
    1.5553   -0.4941    1.9399 C   0  0  0  0  0  0  0  0  0  0  0  0
   -1.0794    1.0057    0.7453 H   0  0  0  0  0  0  0  0  0  0  0  0
    0.9423    0.3036    0.0583 H   0  0  0  0  0  0  0  0  0  0  0  0
    1.2295   -1.2233    2.6881 H   0  0  0  0  0  0  0  0  0  0  0  0
    2.5243   -0.8170    1.5472 H   0  0  0  0  0  0  0  0  0  0  0  0
    1.6876    0.4732    2.4336 H   0  0  0  0  0  0  0  0  0  0  0  0
    1.2908   -2.0720   -0.9000 N   0  0  0  0  0  0  0  0  0  0  0  0
    1.2684   -3.3182   -1.6787 C   0  0  2  0  0  0  0  0  0  0  0  0
    2.6973   -3.8279   -1.9605 C   0  0  0  0  0  0  0  0  0  0  0  0
    3.6614   -3.0978   -1.7531 O   0  0  0  0  0  0  0  0  0  0  0  0
    0.5189   -3.0565   -2.9887 C   0  0  0  0  0  0  0  0  0  0  0  0
    2.1812   -1.5755   -0.8848 H   0  0  0  0  0  0  0  0  0  0  0  0
    0.7491   -4.1017   -1.1162 H   0  0  0  0  0  0  0  0  0  0  0  0
    1.0285   -2.2850   -3.5747 H   0  0  0  0  0  0  0  0  0  0  0  0
    0.4619   -3.9696   -3.5887 H   0  0  0  0  0  0  0  0  0  0  0  0
   -0.5012   -2.7186   -2.7797 H   0  0  0  0  0  0  0  0  0  0  0  0
    2.9041   -5.1100   -2.4347 N   0  0  0  0  0  0  0  0  0  0  0  0
    4.2273   -5.6696   -2.6826 C   0  0  0  0  0  0  0  0  0  0  0  0
    2.0880   -5.7012   -2.5644 H   0  0  0  0  0  0  0  0  0  0  0  0
    4.7792   -5.0491   -3.3967 H   0  0  0  0  0  0  0  0  0  0  0  0
    4.7989   -5.7280   -1.7503 H   0  0  0  0  0  0  0  0  0  0  0  0
    4.1398   -6.6780   -3.0985 H   0  0  0  0  0  0  0  0  0  0  0  0
  1  2  2  0  0  0  0
  1  3  1  0  0  0  0
  1  7  1  0  0  0  0
  3  4  1  0  0  0  0
  3  5  1  0  0  0  0
  3  6  1  0  0  0  0
  7  8  1  0  0  0  0
  7 12  1  0  0  0  0
  8  9  1  0  0  0  0
  8 11  1  0  0  0  0
  8 13  1  0  0  0  0
  9 10  2  0  0  0  0
  9 17  1  0  0  0  0
 11 14  1  0  0  0  0
 11 15  1  0  0  0  0
 11 16  1  0  0  0  0
 17 18  1  0  0  0  0
 17 22  1  0  0  0  0
 18 19  1  0  0  0  0
 18 21  1  0  0  0  0
 18 23  1  0  0  0  0
 19 20  2  0  0  0  0
 19 27  1  0  0  0  0
 21 24  1  0  0  0  0
 21 25  1  0  0  0  0
 21 26  1  0  0  0  0
 27 28  1  0  0  0  0
 27 32  1  0  0  0  0
 28 29  1  0  0  0  0
 28 31  1  0  0  0  0
 28 33  1  0  0  0  0
 29 30  2  0  0  0  0
 29 37  1  0  0  0  0
 31 34  1  0  0  0  0
 31 35  1  0  0  0  0
 31 36  1  0  0  0  0
 37 38  1  0  0  0  0
 37 39  1  0  0  0  0
 38 40  1  0  0  0  0
 38 41  1  0  0  0  0
 38 42  1  0  0  0  0
M  END
$$$$

  -OEChem-05262215353D

 42 41  0     1  0  0  0  0  0999 V2000
   -5.2805   -1.2828    1.7517 C   0  0  0  0  0  0  0  0  0  0  0  0
   -5.7968   -0.4043    1.0779 O   0  0  0  0  0  0  0  0  0  0  0  0
   -6.0151   -2.5878    1.9938 C   0  0  0  0  0  0  0  0  0  0  0  0
   -6.1302   -2.7577    3.0670 H   0  0  0  0  0  0  0  0  0  0  0  0
   -7.0066   -2.5536    1.5339 H   0  0  0  0  0  0  0  0  0  0  0  0
   -5.4529   -3.4177    1.5587 H   0  0  0  0  0  0  0  0  0  0  0  0
   -4.0272   -1.0941    2.2927 N   0  0  0  0  0  0  0  0  0  0  0  0
   -3.1447    0.0288    1.9579 C   0  0  2  0  0  0  0  0  0  0  0  0
   -1.6651   -0.4030    1.9965 C   0  0  0  0  0  0  0  0  0  0  0  0
   -1.3253   -1.3388    2.7141 O   0  0  0  0  0  0  0  0  0  0  0  0
   -3.4024    1.1653    2.9508 C   0  0  0  0  0  0  0  0  0  0  0  0
   -3.5840   -1.8990    2.7355 H   0  0  0  0  0  0  0  0  0  0  0  0
   -3.3600    0.3773    0.9421 H   0  0  0  0  0  0  0  0  0  0  0  0
   -3.1890    0.8353    3.9727 H   0  0  0  0  0  0  0  0  0  0  0  0
   -2.7672    2.0263    2.7223 H   0  0  0  0  0  0  0  0  0  0  0  0
   -4.4485    1.4835    2.8986 H   0  0  0  0  0  0  0  0  0  0  0  0
   -0.7152    0.2953    1.2657 N   0  0  0  0  0  0  0  0  0  0  0  0
    0.5315   -0.3221    0.7669 C   0  0  2  0  0  0  0  0  0  0  0  0
    0.3989   -1.7167    0.0932 C   0  0  0  0  0  0  0  0  0  0  0  0
   -0.6905   -2.2440   -0.1021 O   0  0  0  0  0  0  0  0  0  0  0  0
    1.5606   -0.3723    1.9056 C   0  0  0  0  0  0  0  0  0  0  0  0
   -1.1133    1.0215    0.6786 H   0  0  0  0  0  0  0  0  0  0  0  0
    0.9289    0.3439   -0.0045 H   0  0  0  0  0  0  0  0  0  0  0  0
    1.2642   -1.0996    2.6680 H   0  0  0  0  0  0  0  0  0  0  0  0
    2.5445   -0.6597    1.5226 H   0  0  0  0  0  0  0  0  0  0  0  0
    1.6500    0.6096    2.3803 H   0  0  0  0  0  0  0  0  0  0  0  0
    1.4599   -2.1924   -0.6556 N   0  0  0  0  0  0  0  0  0  0  0  0
    1.4596   -3.4807   -1.3619 C   0  0  2  0  0  0  0  0  0  0  0  0
    2.8460   -4.1539   -1.2954 C   0  0  0  0  0  0  0  0  0  0  0  0
    3.8230   -3.5099   -0.9266 O   0  0  0  0  0  0  0  0  0  0  0  0
    1.0444   -3.2341   -2.8151 C   0  0  0  0  0  0  0  0  0  0  0  0
    2.3782   -1.7977   -0.4537 H   0  0  0  0  0  0  0  0  0  0  0  0
    0.7436   -4.1638   -0.8919 H   0  0  0  0  0  0  0  0  0  0  0  0
    1.7568   -2.5653   -3.3084 H   0  0  0  0  0  0  0  0  0  0  0  0
    1.0073   -4.1759   -3.3700 H   0  0  0  0  0  0  0  0  0  0  0  0
    0.0517   -2.7742   -2.8509 H   0  0  0  0  0  0  0  0  0  0  0  0
    2.9974   -5.4854   -1.6358 N   0  0  0  0  0  0  0  0  0  0  0  0
    4.2721   -6.1897   -1.5669 C   0  0  0  0  0  0  0  0  0  0  0  0
    2.1639   -6.0006   -1.9046 H   0  0  0  0  0  0  0  0  0  0  0  0
    5.0116   -5.7080   -2.2153 H   0  0  0  0  0  0  0  0  0  0  0  0
    4.6532   -6.1943   -0.5402 H   0  0  0  0  0  0  0  0  0  0  0  0
    4.1500   -7.2267   -1.8943 H   0  0  0  0  0  0  0  0  0  0  0  0
  1  2  2  0  0  0  0
  1  3  1  0  0  0  0
  1  7  1  0  0  0  0
  3  4  1  0  0  0  0
  3  5  1  0  0  0  0
  3  6  1  0  0  0  0
  7  8  1  0  0  0  0
  7 12  1  0  0  0  0
  8  9  1  0  0  0  0
  8 11  1  0  0  0  0
  8 13  1  0  0  0  0
  9 10  2  0  0  0  0
  9 17  1  0  0  0  0
 11 14  1  0  0  0  0
 11 15  1  0  0  0  0
 11 16  1  0  0  0  0
 17 18  1  0  0  0  0
 17 22  1  0  0  0  0
 18 19  1  0  0  0  0
 18 21  1  0  0  0  0
 18 23  1  0  0  0  0
 19 20  2  0  0  0  0
 19 27  1  0  0  0  0
 21 24  1  0  0  0  0
 21 25  1  0  0  0  0
 21 26  1  0  0  0  0
 27 28  1  0  0  0  0
 27 32  1  0  0  0  0
 28 29  1  0  0  0  0
 28 31  1  0  0  0  0
 28 33  1  0  0  0  0
 29 30  2  0  0  0  0
 29 37  1  0  0  0  0
 31 34  1  0  0  0  0
 31 35  1  0  0  0  0
 31 36  1  0  0  0  0
 37 38  1  0  0  0  0
 37 39  1  0  0  0  0
 38 40  1  0  0  0  0
 38 41  1  0  0  0  0
 38 42  1  0  0  0  0
M  END
$$$$

  -OEChem-05262215353D

 42 41  0     1  0  0  0  0  0999 V2000
   -5.3960   -1.1460    1.8277 C   0  0  0  0  0  0  0  0  0  0  0  0
   -5.8947   -0.1898    1.2544 O   0  0  0  0  0  0  0  0  0  0  0  0
   -6.2017   -2.4149    2.0346 C   0  0  0  0  0  0  0  0  0  0  0  0
   -6.2419   -2.6636    3.0979 H   0  0  0  0  0  0  0  0  0  0  0  0
   -7.2221   -2.2784    1.6656 H   0  0  0  0  0  0  0  0  0  0  0  0
   -5.7380   -3.2421    1.4913 H   0  0  0  0  0  0  0  0  0  0  0  0
   -4.0948   -1.0833    2.2773 N   0  0  0  0  0  0  0  0  0  0  0  0
   -3.1568   -0.0049    1.9439 C   0  0  2  0  0  0  0  0  0  0  0  0
   -1.7069   -0.5282    1.8735 C   0  0  0  0  0  0  0  0  0  0  0  0
   -1.4267   -1.6002    2.4008 O   0  0  0  0  0  0  0  0  0  0  0  0
   -3.2816    1.0970    3.0000 C   0  0  0  0  0  0  0  0  0  0  0  0
   -3.6806   -1.9478    2.6257 H   0  0  0  0  0  0  0  0  0  0  0  0
   -3.4050    0.4055    0.9592 H   0  0  0  0  0  0  0  0  0  0  0  0
   -3.0388    0.7040    3.9925 H   0  0  0  0  0  0  0  0  0  0  0  0
   -2.6011    1.9237    2.7755 H   0  0  0  0  0  0  0  0  0  0  0  0
   -4.3037    1.4882    3.0204 H   0  0  0  0  0  0  0  0  0  0  0  0
   -0.7395    0.2067    1.2038 N   0  0  0  0  0  0  0  0  0  0  0  0
    0.5483   -0.3551    0.7499 C   0  0  2  0  0  0  0  0  0  0  0  0
    0.4019   -1.5292   -0.2519 C   0  0  0  0  0  0  0  0  0  0  0  0
   -0.6731   -1.7714   -0.7902 O   0  0  0  0  0  0  0  0  0  0  0  0
    1.4477   -0.7231    1.9425 C   0  0  0  0  0  0  0  0  0  0  0  0
   -1.1057    0.9902    0.6712 H   0  0  0  0  0  0  0  0  0  0  0  0
    1.0637    0.4389    0.2015 H   0  0  0  0  0  0  0  0  0  0  0  0
    1.0985   -1.6348    2.4362 H   0  0  0  0  0  0  0  0  0  0  0  0
    2.4761   -0.8915    1.6094 H   0  0  0  0  0  0  0  0  0  0  0  0
    1.4542    0.0883    2.6766 H   0  0  0  0  0  0  0  0  0  0  0  0
    1.5311   -2.1477   -0.7535 N   0  0  0  0  0  0  0  0  0  0  0  0
    1.5039   -3.3128   -1.6460 C   0  0  2  0  0  0  0  0  0  0  0  0
    2.6903   -4.2557   -1.3575 C   0  0  0  0  0  0  0  0  0  0  0  0
    3.6339   -3.8639   -0.6781 O   0  0  0  0  0  0  0  0  0  0  0  0
    1.5438   -2.8191   -3.0951 C   0  0  0  0  0  0  0  0  0  0  0  0
    2.4002   -2.0024   -0.2403 H   0  0  0  0  0  0  0  0  0  0  0  0
    0.5832   -3.8837   -1.4838 H   0  0  0  0  0  0  0  0  0  0  0  0
    2.4620   -2.2530   -3.2817 H   0  0  0  0  0  0  0  0  0  0  0  0
    1.5064   -3.6634   -3.7899 H   0  0  0  0  0  0  0  0  0  0  0  0
    0.6862   -2.1694   -3.2971 H   0  0  0  0  0  0  0  0  0  0  0  0
    2.6962   -5.5487   -1.8466 N   0  0  0  0  0  0  0  0  0  0  0  0
    3.7718   -6.4979   -1.5871 C   0  0  0  0  0  0  0  0  0  0  0  0
    1.8855   -5.8554   -2.3764 H   0  0  0  0  0  0  0  0  0  0  0  0
    4.7202   -6.1202   -1.9833 H   0  0  0  0  0  0  0  0  0  0  0  0
    3.8828   -6.6679   -0.5110 H   0  0  0  0  0  0  0  0  0  0  0  0
    3.5543   -7.4568   -2.0673 H   0  0  0  0  0  0  0  0  0  0  0  0
  1  2  2  0  0  0  0
  1  3  1  0  0  0  0
  1  7  1  0  0  0  0
  3  4  1  0  0  0  0
  3  5  1  0  0  0  0
  3  6  1  0  0  0  0
  7  8  1  0  0  0  0
  7 12  1  0  0  0  0
  8  9  1  0  0  0  0
  8 11  1  0  0  0  0
  8 13  1  0  0  0  0
  9 10  2  0  0  0  0
  9 17  1  0  0  0  0
 11 14  1  0  0  0  0
 11 15  1  0  0  0  0
 11 16  1  0  0  0  0
 17 18  1  0  0  0  0
 17 22  1  0  0  0  0
 18 19  1  0  0  0  0
 18 21  1  0  0  0  0
 18 23  1  0  0  0  0
 19 20  2  0  0  0  0
 19 27  1  0  0  0  0
 21 24  1  0  0  0  0
 21 25  1  0  0  0  0
 21 26  1  0  0  0  0
 27 28  1  0  0  0  0
 27 32  1  0  0  0  0
 28 29  1  0  0  0  0
 28 31  1  0  0  0  0
 28 33  1  0  0  0  0
 29 30  2  0  0  0  0
 29 37  1  0  0  0  0
 31 34  1  0  0  0  0
 31 35  1  0  0  0  0
 31 36  1  0  0  0  0
 37 38  1  0  0  0  0
 37 39  1  0  0  0  0
 38 40  1  0  0  0  0
 38 41  1  0  0  0  0
 38 42  1  0  0  0  0
M  END
$$$$

  -OEChem-05262215353D

 42 41  0     1  0  0  0  0  0999 V2000
   -5.3944   -1.1351    1.8413 C   0  0  0  0  0  0  0  0  0  0  0  0
   -5.8927   -0.1784    1.2687 O   0  0  0  0  0  0  0  0  0  0  0  0
   -6.2074   -2.3961    2.0673 C   0  0  0  0  0  0  0  0  0  0  0  0
   -6.2283   -2.6417    3.1319 H   0  0  0  0  0  0  0  0  0  0  0  0
   -7.2337   -2.2508    1.7184 H   0  0  0  0  0  0  0  0  0  0  0  0
   -5.7624   -3.2289    1.5170 H   0  0  0  0  0  0  0  0  0  0  0  0
   -4.0870   -1.0793    2.2744 N   0  0  0  0  0  0  0  0  0  0  0  0
   -3.1466   -0.0081    1.9245 C   0  0  2  0  0  0  0  0  0  0  0  0
   -1.6991   -0.5368    1.8443 C   0  0  0  0  0  0  0  0  0  0  0  0
   -1.4227   -1.6231    2.3441 O   0  0  0  0  0  0  0  0  0  0  0  0
   -3.2570    1.1036    2.9721 C   0  0  0  0  0  0  0  0  0  0  0  0
   -3.6755   -1.9425    2.6287 H   0  0  0  0  0  0  0  0  0  0  0  0
   -3.4023    0.3954    0.9388 H   0  0  0  0  0  0  0  0  0  0  0  0
   -3.0019    0.7201    3.9651 H   0  0  0  0  0  0  0  0  0  0  0  0
   -2.5789    1.9277    2.7311 H   0  0  0  0  0  0  0  0  0  0  0  0
   -4.2785    1.4958    3.0018 H   0  0  0  0  0  0  0  0  0  0  0  0
   -0.7291    0.2042    1.1870 N   0  0  0  0  0  0  0  0  0  0  0  0
    0.5730   -0.3443    0.7614 C   0  0  2  0  0  0  0  0  0  0  0  0
    0.4417   -1.5264   -0.2319 C   0  0  0  0  0  0  0  0  0  0  0  0
   -0.5572   -1.6365   -0.9351 O   0  0  0  0  0  0  0  0  0  0  0  0
    1.4534   -0.6848    1.9766 C   0  0  0  0  0  0  0  0  0  0  0  0
   -1.0898    0.9891    0.6524 H   0  0  0  0  0  0  0  0  0  0  0  0
    1.0901    0.4475    0.2118 H   0  0  0  0  0  0  0  0  0  0  0  0
    1.1094   -1.5974    2.4724 H   0  0  0  0  0  0  0  0  0  0  0  0
    2.4916   -0.8364    1.6666 H   0  0  0  0  0  0  0  0  0  0  0  0
    1.4294    0.1337    2.7023 H   0  0  0  0  0  0  0  0  0  0  0  0
    1.5204   -2.3506   -0.4902 N   0  0  0  0  0  0  0  0  0  0  0  0
    1.4506   -3.5568   -1.3228 C   0  0  2  0  0  0  0  0  0  0  0  0
    2.4098   -4.6468   -0.8003 C   0  0  0  0  0  0  0  0  0  0  0  0
    3.2843   -4.3595    0.0110 O   0  0  0  0  0  0  0  0  0  0  0  0
    1.7965   -3.1778   -2.7657 C   0  0  0  0  0  0  0  0  0  0  0  0
    2.2948   -2.3121    0.1722 H   0  0  0  0  0  0  0  0  0  0  0  0
    0.4363   -3.9693   -1.2904 H   0  0  0  0  0  0  0  0  0  0  0  0
    2.8105   -2.7694   -2.8214 H   0  0  0  0  0  0  0  0  0  0  0  0
    1.7363   -4.0544   -3.4173 H   0  0  0  0  0  0  0  0  0  0  0  0
    1.0959   -2.4237   -3.1381 H   0  0  0  0  0  0  0  0  0  0  0  0
    2.2861   -5.9552   -1.2300 N   0  0  0  0  0  0  0  0  0  0  0  0
    3.1340   -7.0393   -0.7487 C   0  0  0  0  0  0  0  0  0  0  0  0
    1.5280   -6.1705   -1.8711 H   0  0  0  0  0  0  0  0  0  0  0  0
    4.1849   -6.8363   -0.9810 H   0  0  0  0  0  0  0  0  0  0  0  0
    3.0282   -7.1565    0.3352 H   0  0  0  0  0  0  0  0  0  0  0  0
    2.8510   -7.9818   -1.2276 H   0  0  0  0  0  0  0  0  0  0  0  0
  1  2  2  0  0  0  0
  1  3  1  0  0  0  0
  1  7  1  0  0  0  0
  3  4  1  0  0  0  0
  3  5  1  0  0  0  0
  3  6  1  0  0  0  0
  7  8  1  0  0  0  0
  7 12  1  0  0  0  0
  8  9  1  0  0  0  0
  8 11  1  0  0  0  0
  8 13  1  0  0  0  0
  9 10  2  0  0  0  0
  9 17  1  0  0  0  0
 11 14  1  0  0  0  0
 11 15  1  0  0  0  0
 11 16  1  0  0  0  0
 17 18  1  0  0  0  0
 17 22  1  0  0  0  0
 18 19  1  0  0  0  0
 18 21  1  0  0  0  0
 18 23  1  0  0  0  0
 19 20  2  0  0  0  0
 19 27  1  0  0  0  0
 21 24  1  0  0  0  0
 21 25  1  0  0  0  0
 21 26  1  0  0  0  0
 27 28  1  0  0  0  0
 27 32  1  0  0  0  0
 28 29  1  0  0  0  0
 28 31  1  0  0  0  0
 28 33  1  0  0  0  0
 29 30  2  0  0  0  0
 29 37  1  0  0  0  0
 31 34  1  0  0  0  0
 31 35  1  0  0  0  0
 31 36  1  0  0  0  0
 37 38  1  0  0  0  0
 37 39  1  0  0  0  0
 38 40  1  0  0  0  0
 38 41  1  0  0  0  0
 38 42  1  0  0  0  0
M  END
$$$$

  -OEChem-05262215353D

 42 41  0     1  0  0  0  0  0999 V2000
   -5.4157   -1.0905    1.8527 C   0  0  0  0  0  0  0  0  0  0  0  0
   -5.8969   -0.1130    1.3014 O   0  0  0  0  0  0  0  0  0  0  0  0
   -6.2624   -2.3279    2.0834 C   0  0  0  0  0  0  0  0  0  0  0  0
   -6.3217   -2.5451    3.1526 H   0  0  0  0  0  0  0  0  0  0  0  0
   -7.2742   -2.1708    1.6989 H   0  0  0  0  0  0  0  0  0  0  0  0
   -5.8188   -3.1834    1.5682 H   0  0  0  0  0  0  0  0  0  0  0  0
   -4.0987   -1.0773    2.2597 N   0  0  0  0  0  0  0  0  0  0  0  0
   -3.1409   -0.0164    1.9249 C   0  0  2  0  0  0  0  0  0  0  0  0
   -1.7056   -0.5680    1.7960 C   0  0  0  0  0  0  0  0  0  0  0  0
   -1.4378   -1.6745    2.2540 O   0  0  0  0  0  0  0  0  0  0  0  0
   -3.2046    1.0575    3.0151 C   0  0  0  0  0  0  0  0  0  0  0  0
   -3.7045   -1.9547    2.5981 H   0  0  0  0  0  0  0  0  0  0  0  0
   -3.4080    0.4280    0.9600 H   0  0  0  0  0  0  0  0  0  0  0  0
   -2.9336    0.6314    3.9866 H   0  0  0  0  0  0  0  0  0  0  0  0
   -2.5155    1.8767    2.7884 H   0  0  0  0  0  0  0  0  0  0  0  0
   -4.2172    1.4679    3.0843 H   0  0  0  0  0  0  0  0  0  0  0  0
   -0.7342    0.1774    1.1463 N   0  0  0  0  0  0  0  0  0  0  0  0
    0.5830   -0.3528    0.7480 C   0  0  2  0  0  0  0  0  0  0  0  0
    0.4732   -1.5467   -0.2327 C   0  0  0  0  0  0  0  0  0  0  0  0
   -0.4099   -1.5566   -1.0834 O   0  0  0  0  0  0  0  0  0  0  0  0
    1.4475   -0.6572    1.9849 C   0  0  0  0  0  0  0  0  0  0  0  0
   -1.0825    0.9813    0.6319 H   0  0  0  0  0  0  0  0  0  0  0  0
    1.0973    0.4371    0.1927 H   0  0  0  0  0  0  0  0  0  0  0  0
    1.0888   -1.5465    2.5121 H   0  0  0  0  0  0  0  0  0  0  0  0
    2.4875   -0.8298    1.6914 H   0  0  0  0  0  0  0  0  0  0  0  0
    1.4248    0.1886    2.6789 H   0  0  0  0  0  0  0  0  0  0  0  0
    1.4302   -2.5433   -0.2579 N   0  0  0  0  0  0  0  0  0  0  0  0
    1.3081   -3.7794   -1.0382 C   0  0  2  0  0  0  0  0  0  0  0  0
    1.9860   -4.9586   -0.3104 C   0  0  0  0  0  0  0  0  0  0  0  0
    2.7754   -4.7443    0.6041 O   0  0  0  0  0  0  0  0  0  0  0  0
    1.9433   -3.5548   -2.4133 C   0  0  0  0  0  0  0  0  0  0  0  0
    2.0687   -2.5819    0.5363 H   0  0  0  0  0  0  0  0  0  0  0  0
    0.2502   -4.0341   -1.1640 H   0  0  0  0  0  0  0  0  0  0  0  0
    3.0047   -3.3089   -2.3088 H   0  0  0  0  0  0  0  0  0  0  0  0
    1.8520   -4.4532   -3.0308 H   0  0  0  0  0  0  0  0  0  0  0  0
    1.4436   -2.7296   -2.9304 H   0  0  0  0  0  0  0  0  0  0  0  0
    1.7047   -6.2632   -0.6714 N   0  0  0  0  0  0  0  0  0  0  0  0
    2.2917   -7.4191   -0.0047 C   0  0  0  0  0  0  0  0  0  0  0  0
    1.0217   -6.4120   -1.4087 H   0  0  0  0  0  0  0  0  0  0  0  0
    3.3801   -7.4177   -0.1265 H   0  0  0  0  0  0  0  0  0  0  0  0
    2.0564   -7.4053    1.0650 H   0  0  0  0  0  0  0  0  0  0  0  0
    1.8966   -8.3453   -0.4330 H   0  0  0  0  0  0  0  0  0  0  0  0
  1  2  2  0  0  0  0
  1  3  1  0  0  0  0
  1  7  1  0  0  0  0
  3  4  1  0  0  0  0
  3  5  1  0  0  0  0
  3  6  1  0  0  0  0
  7  8  1  0  0  0  0
  7 12  1  0  0  0  0
  8  9  1  0  0  0  0
  8 11  1  0  0  0  0
  8 13  1  0  0  0  0
  9 10  2  0  0  0  0
  9 17  1  0  0  0  0
 11 14  1  0  0  0  0
 11 15  1  0  0  0  0
 11 16  1  0  0  0  0
 17 18  1  0  0  0  0
 17 22  1  0  0  0  0
 18 19  1  0  0  0  0
 18 21  1  0  0  0  0
 18 23  1  0  0  0  0
 19 20  2  0  0  0  0
 19 27  1  0  0  0  0
 21 24  1  0  0  0  0
 21 25  1  0  0  0  0
 21 26  1  0  0  0  0
 27 28  1  0  0  0  0
 27 32  1  0  0  0  0
 28 29  1  0  0  0  0
 28 31  1  0  0  0  0
 28 33  1  0  0  0  0
 29 30  2  0  0  0  0
 29 37  1  0  0  0  0
 31 34  1  0  0  0  0
 31 35  1  0  0  0  0
 31 36  1  0  0  0  0
 37 38  1  0  0  0  0
 37 39  1  0  0  0  0
 38 40  1  0  0  0  0
 38 41  1  0  0  0  0
 38 42  1  0  0  0  0
M  END
$$$$

  -OEChem-05262215353D

 42 41  0     1  0  0  0  0  0999 V2000
   -5.4138   -1.0716    1.8585 C   0  0  0  0  0  0  0  0  0  0  0  0
   -5.8941   -0.0986    1.2985 O   0  0  0  0  0  0  0  0  0  0  0  0
   -6.2601   -2.3076    2.0987 C   0  0  0  0  0  0  0  0  0  0  0  0
   -6.2998   -2.5307    3.1676 H   0  0  0  0  0  0  0  0  0  0  0  0
   -7.2781   -2.1437    1.7346 H   0  0  0  0  0  0  0  0  0  0  0  0
   -5.8303   -3.1623    1.5704 H   0  0  0  0  0  0  0  0  0  0  0  0
   -4.0969   -1.0560    2.2653 N   0  0  0  0  0  0  0  0  0  0  0  0
   -3.1351   -0.0042    1.9134 C   0  0  2  0  0  0  0  0  0  0  0  0
   -1.7040   -0.5699    1.7926 C   0  0  0  0  0  0  0  0  0  0  0  0
   -1.4517   -1.6856    2.2369 O   0  0  0  0  0  0  0  0  0  0  0  0
   -3.1953    1.0908    2.9831 C   0  0  0  0  0  0  0  0  0  0  0  0
   -3.7043   -1.9317    2.6105 H   0  0  0  0  0  0  0  0  0  0  0  0
   -3.3996    0.4255    0.9411 H   0  0  0  0  0  0  0  0  0  0  0  0
   -2.9246    0.6840    3.9628 H   0  0  0  0  0  0  0  0  0  0  0  0
   -2.5058    1.9047    2.7395 H   0  0  0  0  0  0  0  0  0  0  0  0
   -4.2068    1.5046    3.0455 H   0  0  0  0  0  0  0  0  0  0  0  0
   -0.7206    0.1633    1.1484 N   0  0  0  0  0  0  0  0  0  0  0  0
    0.6026   -0.3717    0.7788 C   0  0  2  0  0  0  0  0  0  0  0  0
    0.4972   -1.5783   -0.1857 C   0  0  0  0  0  0  0  0  0  0  0  0
   -0.2288   -1.4958   -1.1701 O   0  0  0  0  0  0  0  0  0  0  0  0
    1.4516   -0.6503    2.0321 C   0  0  0  0  0  0  0  0  0  0  0  0
   -1.0511    0.9770    0.6374 H   0  0  0  0  0  0  0  0  0  0  0  0
    1.1248    0.4074    0.2155 H   0  0  0  0  0  0  0  0  0  0  0  0
    1.0626   -1.5015    2.5987 H   0  0  0  0  0  0  0  0  0  0  0  0
    2.4856   -0.8699    1.7485 H   0  0  0  0  0  0  0  0  0  0  0  0
    1.4553    0.2264    2.6868 H   0  0  0  0  0  0  0  0  0  0  0  0
    1.2484   -2.7238   -0.0024 N   0  0  0  0  0  0  0  0  0  0  0  0
    1.0576   -3.9636   -0.7636 C   0  0  2  0  0  0  0  0  0  0  0  0
    1.4236   -5.1989    0.0852 C   0  0  0  0  0  0  0  0  0  0  0  0
    2.1169   -5.0721    1.0892 O   0  0  0  0  0  0  0  0  0  0  0  0
    1.9228   -3.9041   -2.0260 C   0  0  0  0  0  0  0  0  0  0  0  0
    1.7169   -2.8209    0.8983 H   0  0  0  0  0  0  0  0  0  0  0  0
    0.0048   -4.0605   -1.0494 H   0  0  0  0  0  0  0  0  0  0  0  0
    2.9807   -3.8111   -1.7600 H   0  0  0  0  0  0  0  0  0  0  0  0
    1.7909   -4.8100   -2.6250 H   0  0  0  0  0  0  0  0  0  0  0  0
    1.6406   -3.0425   -2.6393 H   0  0  0  0  0  0  0  0  0  0  0  0
    0.9732   -6.4562   -0.2732 N   0  0  0  0  0  0  0  0  0  0  0  0
    1.2661   -7.6596    0.4963 C   0  0  0  0  0  0  0  0  0  0  0  0
    0.3755   -6.5268   -1.0916 H   0  0  0  0  0  0  0  0  0  0  0  0
    2.3437   -7.8539    0.5072 H   0  0  0  0  0  0  0  0  0  0  0  0
    0.9181   -7.5494    1.5288 H   0  0  0  0  0  0  0  0  0  0  0  0
    0.7628   -8.5243    0.0532 H   0  0  0  0  0  0  0  0  0  0  0  0
  1  2  2  0  0  0  0
  1  3  1  0  0  0  0
  1  7  1  0  0  0  0
  3  4  1  0  0  0  0
  3  5  1  0  0  0  0
  3  6  1  0  0  0  0
  7  8  1  0  0  0  0
  7 12  1  0  0  0  0
  8  9  1  0  0  0  0
  8 11  1  0  0  0  0
  8 13  1  0  0  0  0
  9 10  2  0  0  0  0
  9 17  1  0  0  0  0
 11 14  1  0  0  0  0
 11 15  1  0  0  0  0
 11 16  1  0  0  0  0
 17 18  1  0  0  0  0
 17 22  1  0  0  0  0
 18 19  1  0  0  0  0
 18 21  1  0  0  0  0
 18 23  1  0  0  0  0
 19 20  2  0  0  0  0
 19 27  1  0  0  0  0
 21 24  1  0  0  0  0
 21 25  1  0  0  0  0
 21 26  1  0  0  0  0
 27 28  1  0  0  0  0
 27 32  1  0  0  0  0
 28 29  1  0  0  0  0
 28 31  1  0  0  0  0
 28 33  1  0  0  0  0
 29 30  2  0  0  0  0
 29 37  1  0  0  0  0
 31 34  1  0  0  0  0
 31 35  1  0  0  0  0
 31 36  1  0  0  0  0
 37 38  1  0  0  0  0
 37 39  1  0  0  0  0
 38 40  1  0  0  0  0
 38 41  1  0  0  0  0
 38 42  1  0  0  0  0
M  END
$$$$

  -OEChem-05262215353D

 42 41  0     1  0  0  0  0  0999 V2000
   -5.4220   -1.0350    1.8674 C   0  0  0  0  0  0  0  0  0  0  0  0
   -5.8865   -0.0606    1.2970 O   0  0  0  0  0  0  0  0  0  0  0  0
   -6.2863   -2.2570    2.1142 C   0  0  0  0  0  0  0  0  0  0  0  0
   -6.2981   -2.4971    3.1800 H   0  0  0  0  0  0  0  0  0  0  0  0
   -7.3114   -2.0669    1.7840 H   0  0  0  0  0  0  0  0  0  0  0  0
   -5.8901   -3.1109    1.5598 H   0  0  0  0  0  0  0  0  0  0  0  0
   -4.1048   -1.0341    2.2739 N   0  0  0  0  0  0  0  0  0  0  0  0
   -3.1302    0.0057    1.9195 C   0  0  2  0  0  0  0  0  0  0  0  0
   -1.7060   -0.5755    1.7918 C   0  0  0  0  0  0  0  0  0  0  0  0
   -1.4650   -1.6951    2.2312 O   0  0  0  0  0  0  0  0  0  0  0  0
   -3.1725    1.0974    2.9927 C   0  0  0  0  0  0  0  0  0  0  0  0
   -3.7253   -1.9098    2.6331 H   0  0  0  0  0  0  0  0  0  0  0  0
   -3.3935    0.4416    0.9496 H   0  0  0  0  0  0  0  0  0  0  0  0
   -2.9157    0.6808    3.9719 H   0  0  0  0  0  0  0  0  0  0  0  0
   -2.4637    1.8968    2.7572 H   0  0  0  0  0  0  0  0  0  0  0  0
   -4.1755    1.5325    3.0508 H   0  0  0  0  0  0  0  0  0  0  0  0
   -0.7165    0.1424    1.1400 N   0  0  0  0  0  0  0  0  0  0  0  0
    0.6082   -0.3984    0.7863 C   0  0  2  0  0  0  0  0  0  0  0  0
    0.5022   -1.6203   -0.1568 C   0  0  0  0  0  0  0  0  0  0  0  0
   -0.0292   -1.4791   -1.2520 O   0  0  0  0  0  0  0  0  0  0  0  0
    1.4542   -0.6559    2.0458 C   0  0  0  0  0  0  0  0  0  0  0  0
   -1.0303    0.9708    0.6421 H   0  0  0  0  0  0  0  0  0  0  0  0
    1.1338    0.3693    0.2102 H   0  0  0  0  0  0  0  0  0  0  0  0
    1.0394   -1.4669    2.6515 H   0  0  0  0  0  0  0  0  0  0  0  0
    2.4771   -0.9259    1.7647 H   0  0  0  0  0  0  0  0  0  0  0  0
    1.4943    0.2469    2.6626 H   0  0  0  0  0  0  0  0  0  0  0  0
    0.9992   -2.8604    0.1960 N   0  0  0  0  0  0  0  0  0  0  0  0
    0.7385   -4.0927   -0.5561 C   0  0  2  0  0  0  0  0  0  0  0  0
    0.7460   -5.3252    0.3717 C   0  0  0  0  0  0  0  0  0  0  0  0
    1.2601   -5.2607    1.4833 O   0  0  0  0  0  0  0  0  0  0  0  0
    1.8044   -4.2374   -1.6466 C   0  0  0  0  0  0  0  0  0  0  0  0
    1.2475   -2.9825    1.1784 H   0  0  0  0  0  0  0  0  0  0  0  0
   -0.2525   -4.0368   -1.0195 H   0  0  0  0  0  0  0  0  0  0  0  0
    2.8026   -4.2857   -1.1999 H   0  0  0  0  0  0  0  0  0  0  0  0
    1.6381   -5.1482   -2.2290 H   0  0  0  0  0  0  0  0  0  0  0  0
    1.7680   -3.3820   -2.3284 H   0  0  0  0  0  0  0  0  0  0  0  0
    0.1752   -6.5148   -0.0418 N   0  0  0  0  0  0  0  0  0  0  0  0
    0.1375   -7.7127    0.7878 C   0  0  0  0  0  0  0  0  0  0  0  0
   -0.2625   -6.5336   -0.9583 H   0  0  0  0  0  0  0  0  0  0  0  0
    1.1533   -8.0357    1.0396 H   0  0  0  0  0  0  0  0  0  0  0  0
   -0.4116   -7.5192    1.7155 H   0  0  0  0  0  0  0  0  0  0  0  0
   -0.3613   -8.5273    0.2542 H   0  0  0  0  0  0  0  0  0  0  0  0
  1  2  2  0  0  0  0
  1  3  1  0  0  0  0
  1  7  1  0  0  0  0
  3  4  1  0  0  0  0
  3  5  1  0  0  0  0
  3  6  1  0  0  0  0
  7  8  1  0  0  0  0
  7 12  1  0  0  0  0
  8  9  1  0  0  0  0
  8 11  1  0  0  0  0
  8 13  1  0  0  0  0
  9 10  2  0  0  0  0
  9 17  1  0  0  0  0
 11 14  1  0  0  0  0
 11 15  1  0  0  0  0
 11 16  1  0  0  0  0
 17 18  1  0  0  0  0
 17 22  1  0  0  0  0
 18 19  1  0  0  0  0
 18 21  1  0  0  0  0
 18 23  1  0  0  0  0
 19 20  2  0  0  0  0
 19 27  1  0  0  0  0
 21 24  1  0  0  0  0
 21 25  1  0  0  0  0
 21 26  1  0  0  0  0
 27 28  1  0  0  0  0
 27 32  1  0  0  0  0
 28 29  1  0  0  0  0
 28 31  1  0  0  0  0
 28 33  1  0  0  0  0
 29 30  2  0  0  0  0
 29 37  1  0  0  0  0
 31 34  1  0  0  0  0
 31 35  1  0  0  0  0
 31 36  1  0  0  0  0
 37 38  1  0  0  0  0
 37 39  1  0  0  0  0
 38 40  1  0  0  0  0
 38 41  1  0  0  0  0
 38 42  1  0  0  0  0
M  END
$$$$

  -OEChem-05262215353D

 42 41  0     1  0  0  0  0  0999 V2000
   -5.4391   -0.9867    1.8983 C   0  0  0  0  0  0  0  0  0  0  0  0
   -5.8891   -0.0228    1.2993 O   0  0  0  0  0  0  0  0  0  0  0  0
   -6.3195   -2.1914    2.1727 C   0  0  0  0  0  0  0  0  0  0  0  0
   -6.4080   -2.3516    3.2499 H   0  0  0  0  0  0  0  0  0  0  0  0
   -7.3180   -2.0305    1.7568 H   0  0  0  0  0  0  0  0  0  0  0  0
   -5.8859   -3.0828    1.7129 H   0  0  0  0  0  0  0  0  0  0  0  0
   -4.1256   -0.9872    2.3168 N   0  0  0  0  0  0  0  0  0  0  0  0
   -3.1387    0.0357    1.9470 C   0  0  2  0  0  0  0  0  0  0  0  0
   -1.7280   -0.5713    1.7977 C   0  0  0  0  0  0  0  0  0  0  0  0
   -1.4967   -1.6895    2.2452 O   0  0  0  0  0  0  0  0  0  0  0  0
   -3.1446    1.1259    3.0221 C   0  0  0  0  0  0  0  0  0  0  0  0
   -3.7568   -1.8589    2.6964 H   0  0  0  0  0  0  0  0  0  0  0  0
   -3.4078    0.4784    0.9817 H   0  0  0  0  0  0  0  0  0  0  0  0
   -2.8734    0.7048    3.9956 H   0  0  0  0  0  0  0  0  0  0  0  0
   -2.4299    1.9158    2.7722 H   0  0  0  0  0  0  0  0  0  0  0  0
   -4.1402    1.5742    3.1009 H   0  0  0  0  0  0  0  0  0  0  0  0
   -0.7361    0.1210    1.1224 N   0  0  0  0  0  0  0  0  0  0  0  0
    0.5827   -0.4364    0.7731 C   0  0  2  0  0  0  0  0  0  0  0  0
    0.4674   -1.6793   -0.1390 C   0  0  0  0  0  0  0  0  0  0  0  0
    0.1800   -1.5204   -1.3192 O   0  0  0  0  0  0  0  0  0  0  0  0
    1.4357   -0.6754    2.0309 C   0  0  0  0  0  0  0  0  0  0  0  0
   -1.0320    0.9653    0.6399 H   0  0  0  0  0  0  0  0  0  0  0  0
    1.1100    0.3154    0.1774 H   0  0  0  0  0  0  0  0  0  0  0  0
    1.0037   -1.4483    2.6730 H   0  0  0  0  0  0  0  0  0  0  0  0
    2.4442   -0.9914    1.7465 H   0  0  0  0  0  0  0  0  0  0  0  0
    1.5145    0.2483    2.6118 H   0  0  0  0  0  0  0  0  0  0  0  0
    0.6753   -2.9578    0.3425 N   0  0  0  0  0  0  0  0  0  0  0  0
    0.4038   -4.1770   -0.4274 C   0  0  2  0  0  0  0  0  0  0  0  0
    0.0233   -5.3575    0.4905 C   0  0  0  0  0  0  0  0  0  0  0  0
    0.3113   -5.3383    1.6819 O   0  0  0  0  0  0  0  0  0  0  0  0
    1.6466   -4.5228   -1.2534 C   0  0  0  0  0  0  0  0  0  0  0  0
    0.6578   -3.0556    1.3595 H   0  0  0  0  0  0  0  0  0  0  0  0
   -0.4413   -4.0019   -1.1014 H   0  0  0  0  0  0  0  0  0  0  0  0
    2.5048   -4.6995   -0.5972 H   0  0  0  0  0  0  0  0  0  0  0  0
    1.4722   -5.4227   -1.8505 H   0  0  0  0  0  0  0  0  0  0  0  0
    1.8909   -3.7007   -1.9334 H   0  0  0  0  0  0  0  0  0  0  0  0
   -0.6434   -6.4540   -0.0253 N   0  0  0  0  0  0  0  0  0  0  0  0
   -1.0428   -7.6005    0.7817 C   0  0  0  0  0  0  0  0  0  0  0  0
   -0.8808   -6.4386   -1.0127 H   0  0  0  0  0  0  0  0  0  0  0  0
   -0.1622   -8.0988    1.2009 H   0  0  0  0  0  0  0  0  0  0  0  0
   -1.6933   -7.2834    1.6039 H   0  0  0  0  0  0  0  0  0  0  0  0
   -1.5903   -8.3227    0.1683 H   0  0  0  0  0  0  0  0  0  0  0  0
  1  2  2  0  0  0  0
  1  3  1  0  0  0  0
  1  7  1  0  0  0  0
  3  4  1  0  0  0  0
  3  5  1  0  0  0  0
  3  6  1  0  0  0  0
  7  8  1  0  0  0  0
  7 12  1  0  0  0  0
  8  9  1  0  0  0  0
  8 11  1  0  0  0  0
  8 13  1  0  0  0  0
  9 10  2  0  0  0  0
  9 17  1  0  0  0  0
 11 14  1  0  0  0  0
 11 15  1  0  0  0  0
 11 16  1  0  0  0  0
 17 18  1  0  0  0  0
 17 22  1  0  0  0  0
 18 19  1  0  0  0  0
 18 21  1  0  0  0  0
 18 23  1  0  0  0  0
 19 20  2  0  0  0  0
 19 27  1  0  0  0  0
 21 24  1  0  0  0  0
 21 25  1  0  0  0  0
 21 26  1  0  0  0  0
 27 28  1  0  0  0  0
 27 32  1  0  0  0  0
 28 29  1  0  0  0  0
 28 31  1  0  0  0  0
 28 33  1  0  0  0  0
 29 30  2  0  0  0  0
 29 37  1  0  0  0  0
 31 34  1  0  0  0  0
 31 35  1  0  0  0  0
 31 36  1  0  0  0  0
 37 38  1  0  0  0  0
 37 39  1  0  0  0  0
 38 40  1  0  0  0  0
 38 41  1  0  0  0  0
 38 42  1  0  0  0  0
M  END
$$$$

  -OEChem-05262215353D

 42 41  0     1  0  0  0  0  0999 V2000
   -5.3470   -1.0133    1.8615 C   0  0  0  0  0  0  0  0  0  0  0  0
   -5.7833   -0.1007    1.1776 O   0  0  0  0  0  0  0  0  0  0  0  0
   -6.1788   -2.2616    2.0873 C   0  0  0  0  0  0  0  0  0  0  0  0
   -6.3164   -2.4300    3.1581 H   0  0  0  0  0  0  0  0  0  0  0  0
   -7.1606   -2.1508    1.6185 H   0  0  0  0  0  0  0  0  0  0  0  0
   -5.6753   -3.1280    1.6514 H   0  0  0  0  0  0  0  0  0  0  0  0
   -4.0882   -0.9232    2.4157 N   0  0  0  0  0  0  0  0  0  0  0  0
   -3.1090    0.1178    2.0772 C   0  0  2  0  0  0  0  0  0  0  0  0
   -1.7024   -0.4873    1.8948 C   0  0  0  0  0  0  0  0  0  0  0  0
   -1.4467   -1.5801    2.3882 O   0  0  0  0  0  0  0  0  0  0  0  0
   -3.1107    1.1592    3.1979 C   0  0  0  0  0  0  0  0  0  0  0  0
   -3.7144   -1.7713    2.8424 H   0  0  0  0  0  0  0  0  0  0  0  0
   -3.3828    0.6033    1.1344 H   0  0  0  0  0  0  0  0  0  0  0  0
   -2.8340    0.6960    4.1505 H   0  0  0  0  0  0  0  0  0  0  0  0
   -2.3988    1.9607    2.9791 H   0  0  0  0  0  0  0  0  0  0  0  0
   -4.1073    1.6006    3.3007 H   0  0  0  0  0  0  0  0  0  0  0  0
   -0.7439    0.1644    1.1357 N   0  0  0  0  0  0  0  0  0  0  0  0
    0.5345   -0.4379    0.7139 C   0  0  2  0  0  0  0  0  0  0  0  0
    0.3355   -1.7010   -0.1561 C   0  0  0  0  0  0  0  0  0  0  0  0
    0.3004   -1.5803   -1.3745 O   0  0  0  0  0  0  0  0  0  0  0  0
    1.4707   -0.6778    1.9100 C   0  0  0  0  0  0  0  0  0  0  0  0
   -1.0560    0.9972    0.6433 H   0  0  0  0  0  0  0  0  0  0  0  0
    1.0383    0.2894    0.0685 H   0  0  0  0  0  0  0  0  0  0  0  0
    1.0761   -1.4382    2.5896 H   0  0  0  0  0  0  0  0  0  0  0  0
    2.4503   -1.0137    1.5564 H   0  0  0  0  0  0  0  0  0  0  0  0
    1.6067    0.2499    2.4734 H   0  0  0  0  0  0  0  0  0  0  0  0
    0.2448   -2.9607    0.4057 N   0  0  0  0  0  0  0  0  0  0  0  0
   -0.0465   -4.1786   -0.3627 C   0  0  2  0  0  0  0  0  0  0  0  0
   -0.8587   -5.2122    0.4468 C   0  0  0  0  0  0  0  0  0  0  0  0
   -0.9609   -5.1184    1.6640 O   0  0  0  0  0  0  0  0  0  0  0  0
    1.2846   -4.7849   -0.8170 C   0  0  0  0  0  0  0  0  0  0  0  0
   -0.0178   -2.9717    1.3969 H   0  0  0  0  0  0  0  0  0  0  0  0
   -0.6452   -3.9216   -1.2428 H   0  0  0  0  0  0  0  0  0  0  0  0
    1.8908   -5.0662    0.0500 H   0  0  0  0  0  0  0  0  0  0  0  0
    1.1129   -5.6761   -1.4275 H   0  0  0  0  0  0  0  0  0  0  0  0
    1.8465   -4.0608   -1.4152 H   0  0  0  0  0  0  0  0  0  0  0  0
   -1.4767   -6.2691   -0.1976 N   0  0  0  0  0  0  0  0  0  0  0  0
   -2.2362   -7.3000    0.5001 C   0  0  0  0  0  0  0  0  0  0  0  0
   -1.3799   -6.3258   -1.2071 H   0  0  0  0  0  0  0  0  0  0  0  0
   -1.6041   -7.8112    1.2342 H   0  0  0  0  0  0  0  0  0  0  0  0
   -3.0935   -6.8591    1.0197 H   0  0  0  0  0  0  0  0  0  0  0  0
   -2.6087   -8.0435   -0.2115 H   0  0  0  0  0  0  0  0  0  0  0  0
  1  2  2  0  0  0  0
  1  3  1  0  0  0  0
  1  7  1  0  0  0  0
  3  4  1  0  0  0  0
  3  5  1  0  0  0  0
  3  6  1  0  0  0  0
  7  8  1  0  0  0  0
  7 12  1  0  0  0  0
  8  9  1  0  0  0  0
  8 11  1  0  0  0  0
  8 13  1  0  0  0  0
  9 10  2  0  0  0  0
  9 17  1  0  0  0  0
 11 14  1  0  0  0  0
 11 15  1  0  0  0  0
 11 16  1  0  0  0  0
 17 18  1  0  0  0  0
 17 22  1  0  0  0  0
 18 19  1  0  0  0  0
 18 21  1  0  0  0  0
 18 23  1  0  0  0  0
 19 20  2  0  0  0  0
 19 27  1  0  0  0  0
 21 24  1  0  0  0  0
 21 25  1  0  0  0  0
 21 26  1  0  0  0  0
 27 28  1  0  0  0  0
 27 32  1  0  0  0  0
 28 29  1  0  0  0  0
 28 31  1  0  0  0  0
 28 33  1  0  0  0  0
 29 30  2  0  0  0  0
 29 37  1  0  0  0  0
 31 34  1  0  0  0  0
 31 35  1  0  0  0  0
 31 36  1  0  0  0  0
 37 38  1  0  0  0  0
 37 39  1  0  0  0  0
 38 40  1  0  0  0  0
 38 41  1  0  0  0  0
 38 42  1  0  0  0  0
M  END
$$$$

  -OEChem-05262215353D

 42 41  0     1  0  0  0  0  0999 V2000
   -4.3087   -0.9695    1.1080 C   0  0  0  0  0  0  0  0  0  0  0  0
   -4.2787    0.2147    0.8008 O   0  0  0  0  0  0  0  0  0  0  0  0
   -4.9438   -1.9814    0.1752 C   0  0  0  0  0  0  0  0  0  0  0  0
   -5.6214   -1.4801   -0.5210 H   0  0  0  0  0  0  0  0  0  0  0  0
   -4.1653   -2.4953   -0.3950 H   0  0  0  0  0  0  0  0  0  0  0  0
   -5.5099   -2.7177    0.7506 H   0  0  0  0  0  0  0  0  0  0  0  0
   -3.6321   -1.3950    2.2314 N   0  0  0  0  0  0  0  0  0  0  0  0
   -2.7327   -0.5252    3.0042 C   0  0  2  0  0  0  0  0  0  0  0  0
   -1.3747   -0.3836    2.2793 C   0  0  0  0  0  0  0  0  0  0  0  0
   -0.3651   -0.9318    2.7116 O   0  0  0  0  0  0  0  0  0  0  0  0
   -2.6091   -1.1306    4.4074 C   0  0  0  0  0  0  0  0  0  0  0  0
   -3.4237   -2.3996    2.2458 H   0  0  0  0  0  0  0  0  0  0  0  0
   -3.1653    0.4758    3.1051 H   0  0  0  0  0  0  0  0  0  0  0  0
   -2.1915   -2.1417    4.3552 H   0  0  0  0  0  0  0  0  0  0  0  0
   -1.9527   -0.5153    5.0305 H   0  0  0  0  0  0  0  0  0  0  0  0
   -3.5920   -1.1837    4.8854 H   0  0  0  0  0  0  0  0  0  0  0  0
   -1.3749    0.1513    1.0004 N   0  0  0  0  0  0  0  0  0  0  0  0
   -0.4338   -0.2467   -0.0613 C   0  0  2  0  0  0  0  0  0  0  0  0
   -0.5614   -1.7525   -0.3820 C   0  0  0  0  0  0  0  0  0  0  0  0
   -1.1464   -2.1241   -1.3925 O   0  0  0  0  0  0  0  0  0  0  0  0
    1.0126    0.1821    0.2320 C   0  0  0  0  0  0  0  0  0  0  0  0
   -2.3078    0.4450    0.6925 H   0  0  0  0  0  0  0  0  0  0  0  0
   -0.7346    0.2855   -0.9697 H   0  0  0  0  0  0  0  0  0  0  0  0
    1.4446   -0.3800    1.0639 H   0  0  0  0  0  0  0  0  0  0  0  0
    1.6373    0.0130   -0.6503 H   0  0  0  0  0  0  0  0  0  0  0  0
    1.0453    1.2470    0.4807 H   0  0  0  0  0  0  0  0  0  0  0  0
   -0.0463   -2.6980    0.4829 N   0  0  0  0  0  0  0  0  0  0  0  0
   -0.3579   -4.1260    0.3579 C   0  0  2  0  0  0  0  0  0  0  0  0
   -1.8346   -4.4721    0.6670 C   0  0  0  0  0  0  0  0  0  0  0  0
   -2.4521   -3.9104    1.5685 O   0  0  0  0  0  0  0  0  0  0  0  0
    0.5712   -4.8823    1.3096 C   0  0  0  0  0  0  0  0  0  0  0  0
    0.1494   -2.3320    1.4202 H   0  0  0  0  0  0  0  0  0  0  0  0
   -0.1412   -4.4450   -0.6669 H   0  0  0  0  0  0  0  0  0  0  0  0
    0.3780   -4.5882    2.3468 H   0  0  0  0  0  0  0  0  0  0  0  0
    0.4152   -5.9617    1.2189 H   0  0  0  0  0  0  0  0  0  0  0  0
    1.6172   -4.6626    1.0737 H   0  0  0  0  0  0  0  0  0  0  0  0
   -2.4688   -5.4681   -0.0527 N   0  0  0  0  0  0  0  0  0  0  0  0
   -3.8668   -5.8365    0.1353 C   0  0  0  0  0  0  0  0  0  0  0  0
   -1.9737   -5.8364   -0.8600 H   0  0  0  0  0  0  0  0  0  0  0  0
   -4.0771   -6.0306    1.1924 H   0  0  0  0  0  0  0  0  0  0  0  0
   -4.5246   -5.0349   -0.2148 H   0  0  0  0  0  0  0  0  0  0  0  0
   -4.0954   -6.7451   -0.4302 H   0  0  0  0  0  0  0  0  0  0  0  0
  1  2  2  0  0  0  0
  1  3  1  0  0  0  0
  1  7  1  0  0  0  0
  3  4  1  0  0  0  0
  3  5  1  0  0  0  0
  3  6  1  0  0  0  0
  7  8  1  0  0  0  0
  7 12  1  0  0  0  0
  8  9  1  0  0  0  0
  8 11  1  0  0  0  0
  8 13  1  0  0  0  0
  9 10  2  0  0  0  0
  9 17  1  0  0  0  0
 11 14  1  0  0  0  0
 11 15  1  0  0  0  0
 11 16  1  0  0  0  0
 17 18  1  0  0  0  0
 17 22  1  0  0  0  0
 18 19  1  0  0  0  0
 18 21  1  0  0  0  0
 18 23  1  0  0  0  0
 19 20  2  0  0  0  0
 19 27  1  0  0  0  0
 21 24  1  0  0  0  0
 21 25  1  0  0  0  0
 21 26  1  0  0  0  0
 27 28  1  0  0  0  0
 27 32  1  0  0  0  0
 28 29  1  0  0  0  0
 28 31  1  0  0  0  0
 28 33  1  0  0  0  0
 29 30  2  0  0  0  0
 29 37  1  0  0  0  0
 31 34  1  0  0  0  0
 31 35  1  0  0  0  0
 31 36  1  0  0  0  0
 37 38  1  0  0  0  0
 37 39  1  0  0  0  0
 38 40  1  0  0  0  0
 38 41  1  0  0  0  0
 38 42  1  0  0  0  0
M  END
$$$$

  -OEChem-05262215353D

 42 41  0     1  0  0  0  0  0999 V2000
   -4.5107   -0.8707    1.1805 C   0  0  0  0  0  0  0  0  0  0  0  0
   -4.3378    0.2820    0.8102 O   0  0  0  0  0  0  0  0  0  0  0  0
   -5.4951   -1.7605    0.4483 C   0  0  0  0  0  0  0  0  0  0  0  0
   -5.3798   -2.7990    0.7684 H   0  0  0  0  0  0  0  0  0  0  0  0
   -6.5163   -1.4372    0.6656 H   0  0  0  0  0  0  0  0  0  0  0  0
   -5.3209   -1.6998   -0.6290 H   0  0  0  0  0  0  0  0  0  0  0  0
   -3.7587   -1.3617    2.2259 N   0  0  0  0  0  0  0  0  0  0  0  0
   -2.7577   -0.5645    2.9523 C   0  0  2  0  0  0  0  0  0  0  0  0
   -1.4191   -0.4985    2.1813 C   0  0  0  0  0  0  0  0  0  0  0  0
   -0.3965   -0.9844    2.6537 O   0  0  0  0  0  0  0  0  0  0  0  0
   -2.6185   -1.1849    4.3481 C   0  0  0  0  0  0  0  0  0  0  0  0
   -3.6780   -2.3831    2.2671 H   0  0  0  0  0  0  0  0  0  0  0  0
   -3.1166    0.4629    3.0756 H   0  0  0  0  0  0  0  0  0  0  0  0
   -2.2672   -2.2195    4.2760 H   0  0  0  0  0  0  0  0  0  0  0  0
   -1.9009   -0.6160    4.9474 H   0  0  0  0  0  0  0  0  0  0  0  0
   -3.5825   -1.1792    4.8653 H   0  0  0  0  0  0  0  0  0  0  0  0
   -1.4276   -0.0574    0.8668 N   0  0  0  0  0  0  0  0  0  0  0  0
   -0.4589   -0.4494   -0.1787 C   0  0  2  0  0  0  0  0  0  0  0  0
   -0.4601   -1.9733   -0.4377 C   0  0  0  0  0  0  0  0  0  0  0  0
   -0.8366   -2.4203   -1.5153 O   0  0  0  0  0  0  0  0  0  0  0  0
    0.9532    0.0777    0.1126 C   0  0  0  0  0  0  0  0  0  0  0  0
   -2.3549    0.2434    0.5495 H   0  0  0  0  0  0  0  0  0  0  0  0
   -0.7861    0.0228   -1.1109 H   0  0  0  0  0  0  0  0  0  0  0  0
    1.4061   -0.4337    0.9664 H   0  0  0  0  0  0  0  0  0  0  0  0
    1.5974   -0.0803   -0.7577 H   0  0  0  0  0  0  0  0  0  0  0  0
    0.9188    1.1498    0.3284 H   0  0  0  0  0  0  0  0  0  0  0  0
   -0.1565   -2.8548    0.5815 N   0  0  0  0  0  0  0  0  0  0  0  0
   -0.6187   -4.2447    0.5824 C   0  0  2  0  0  0  0  0  0  0  0  0
   -2.1583   -4.3589    0.4540 C   0  0  0  0  0  0  0  0  0  0  0  0
   -2.9075   -4.0164    1.3677 O   0  0  0  0  0  0  0  0  0  0  0  0
   -0.1272   -4.8911    1.8812 C   0  0  0  0  0  0  0  0  0  0  0  0
   -0.0199   -2.4038    1.4917 H   0  0  0  0  0  0  0  0  0  0  0  0
   -0.1629   -4.7738   -0.2606 H   0  0  0  0  0  0  0  0  0  0  0  0
   -0.5335   -4.3649    2.7516 H   0  0  0  0  0  0  0  0  0  0  0  0
   -0.4434   -5.9377    1.9292 H   0  0  0  0  0  0  0  0  0  0  0  0
    0.9655   -4.8564    1.9334 H   0  0  0  0  0  0  0  0  0  0  0  0
   -2.6927   -4.8363   -0.7278 N   0  0  0  0  0  0  0  0  0  0  0  0
   -4.1202   -4.8890   -1.0125 C   0  0  0  0  0  0  0  0  0  0  0  0
   -2.0534   -4.8258   -1.5207 H   0  0  0  0  0  0  0  0  0  0  0  0
   -4.6839   -5.2280   -0.1369 H   0  0  0  0  0  0  0  0  0  0  0  0
   -4.4844   -3.9013   -1.3093 H   0  0  0  0  0  0  0  0  0  0  0  0
   -4.3123   -5.5900   -1.8307 H   0  0  0  0  0  0  0  0  0  0  0  0
  1  2  2  0  0  0  0
  1  3  1  0  0  0  0
  1  7  1  0  0  0  0
  3  4  1  0  0  0  0
  3  5  1  0  0  0  0
  3  6  1  0  0  0  0
  7  8  1  0  0  0  0
  7 12  1  0  0  0  0
  8  9  1  0  0  0  0
  8 11  1  0  0  0  0
  8 13  1  0  0  0  0
  9 10  2  0  0  0  0
  9 17  1  0  0  0  0
 11 14  1  0  0  0  0
 11 15  1  0  0  0  0
 11 16  1  0  0  0  0
 17 18  1  0  0  0  0
 17 22  1  0  0  0  0
 18 19  1  0  0  0  0
 18 21  1  0  0  0  0
 18 23  1  0  0  0  0
 19 20  2  0  0  0  0
 19 27  1  0  0  0  0
 21 24  1  0  0  0  0
 21 25  1  0  0  0  0
 21 26  1  0  0  0  0
 27 28  1  0  0  0  0
 27 32  1  0  0  0  0
 28 29  1  0  0  0  0
 28 31  1  0  0  0  0
 28 33  1  0  0  0  0
 29 30  2  0  0  0  0
 29 37  1  0  0  0  0
 31 34  1  0  0  0  0
 31 35  1  0  0  0  0
 31 36  1  0  0  0  0
 37 38  1  0  0  0  0
 37 39  1  0  0  0  0
 38 40  1  0  0  0  0
 38 41  1  0  0  0  0
 38 42  1  0  0  0  0
M  END
$$$$

  -OEChem-05262215353D

 42 41  0     1  0  0  0  0  0999 V2000
   -4.5036   -0.4706    1.0753 C   0  0  0  0  0  0  0  0  0  0  0  0
   -4.2518    0.7100    0.8783 O   0  0  0  0  0  0  0  0  0  0  0  0
   -5.3580   -1.2355    0.0842 C   0  0  0  0  0  0  0  0  0  0  0  0
   -4.7390   -1.5708   -0.7515 H   0  0  0  0  0  0  0  0  0  0  0  0
   -5.8060   -2.1082    0.5662 H   0  0  0  0  0  0  0  0  0  0  0  0
   -6.1577   -0.5942   -0.2956 H   0  0  0  0  0  0  0  0  0  0  0  0
   -3.8877   -1.1275    2.1192 N   0  0  0  0  0  0  0  0  0  0  0  0
   -2.8814   -0.5009    2.9929 C   0  0  2  0  0  0  0  0  0  0  0  0
   -1.4927   -0.4770    2.3117 C   0  0  0  0  0  0  0  0  0  0  0  0
   -0.5504   -1.1148    2.7688 O   0  0  0  0  0  0  0  0  0  0  0  0
   -2.8899   -1.2704    4.3195 C   0  0  0  0  0  0  0  0  0  0  0  0
   -3.8655   -2.1489    2.0275 H   0  0  0  0  0  0  0  0  0  0  0  0
   -3.1628    0.5363    3.2044 H   0  0  0  0  0  0  0  0  0  0  0  0
   -2.6134   -2.3177    4.1595 H   0  0  0  0  0  0  0  0  0  0  0  0
   -2.1767   -0.8265    5.0212 H   0  0  0  0  0  0  0  0  0  0  0  0
   -3.8859   -1.2376    4.7712 H   0  0  0  0  0  0  0  0  0  0  0  0
   -1.3997    0.0788    1.0465 N   0  0  0  0  0  0  0  0  0  0  0  0
   -0.4121   -0.2529   -0.0021 C   0  0  2  0  0  0  0  0  0  0  0  0
   -0.4519   -1.7350   -0.4472 C   0  0  0  0  0  0  0  0  0  0  0  0
   -0.6026   -2.0138   -1.6304 O   0  0  0  0  0  0  0  0  0  0  0  0
    1.0062    0.1573    0.4161 C   0  0  0  0  0  0  0  0  0  0  0  0
   -2.2755    0.5093    0.7327 H   0  0  0  0  0  0  0  0  0  0  0  0
   -0.6708    0.3417   -0.8843 H   0  0  0  0  0  0  0  0  0  0  0  0
    1.3823   -0.4745    1.2259 H   0  0  0  0  0  0  0  0  0  0  0  0
    1.6892    0.0632   -0.4339 H   0  0  0  0  0  0  0  0  0  0  0  0
    1.0149    1.1980    0.7537 H   0  0  0  0  0  0  0  0  0  0  0  0
   -0.5265   -2.7542    0.4813 N   0  0  0  0  0  0  0  0  0  0  0  0
   -1.0180   -4.0998    0.1781 C   0  0  2  0  0  0  0  0  0  0  0  0
   -2.5585   -4.1499    0.0648 C   0  0  0  0  0  0  0  0  0  0  0  0
   -3.2740   -3.6842    0.9499 O   0  0  0  0  0  0  0  0  0  0  0  0
   -0.5304   -5.0318    1.2894 C   0  0  0  0  0  0  0  0  0  0  0  0
   -0.5094   -2.4511    1.4592 H   0  0  0  0  0  0  0  0  0  0  0  0
   -0.5869   -4.4399   -0.7693 H   0  0  0  0  0  0  0  0  0  0  0  0
   -0.9307   -4.7164    2.2586 H   0  0  0  0  0  0  0  0  0  0  0  0
   -0.8565   -6.0582    1.0961 H   0  0  0  0  0  0  0  0  0  0  0  0
    0.5626   -5.0198    1.3443 H   0  0  0  0  0  0  0  0  0  0  0  0
   -3.1480   -4.7652   -1.0237 N   0  0  0  0  0  0  0  0  0  0  0  0
   -4.5892   -4.8437   -1.2289 C   0  0  0  0  0  0  0  0  0  0  0  0
   -2.5333   -5.0090   -1.7963 H   0  0  0  0  0  0  0  0  0  0  0  0
   -5.0901   -5.2073   -0.3254 H   0  0  0  0  0  0  0  0  0  0  0  0
   -4.9941   -3.8603   -1.4860 H   0  0  0  0  0  0  0  0  0  0  0  0
   -4.8160   -5.5365   -2.0452 H   0  0  0  0  0  0  0  0  0  0  0  0
  1  2  2  0  0  0  0
  1  3  1  0  0  0  0
  1  7  1  0  0  0  0
  3  4  1  0  0  0  0
  3  5  1  0  0  0  0
  3  6  1  0  0  0  0
  7  8  1  0  0  0  0
  7 12  1  0  0  0  0
  8  9  1  0  0  0  0
  8 11  1  0  0  0  0
  8 13  1  0  0  0  0
  9 10  2  0  0  0  0
  9 17  1  0  0  0  0
 11 14  1  0  0  0  0
 11 15  1  0  0  0  0
 11 16  1  0  0  0  0
 17 18  1  0  0  0  0
 17 22  1  0  0  0  0
 18 19  1  0  0  0  0
 18 21  1  0  0  0  0
 18 23  1  0  0  0  0
 19 20  2  0  0  0  0
 19 27  1  0  0  0  0
 21 24  1  0  0  0  0
 21 25  1  0  0  0  0
 21 26  1  0  0  0  0
 27 28  1  0  0  0  0
 27 32  1  0  0  0  0
 28 29  1  0  0  0  0
 28 31  1  0  0  0  0
 28 33  1  0  0  0  0
 29 30  2  0  0  0  0
 29 37  1  0  0  0  0
 31 34  1  0  0  0  0
 31 35  1  0  0  0  0
 31 36  1  0  0  0  0
 37 38  1  0  0  0  0
 37 39  1  0  0  0  0
 38 40  1  0  0  0  0
 38 41  1  0  0  0  0
 38 42  1  0  0  0  0
M  END
$$$$

  -OEChem-05262215353D

 42 41  0     1  0  0  0  0  0999 V2000
   -4.4959   -0.1477    0.9704 C   0  0  0  0  0  0  0  0  0  0  0  0
   -4.1324    1.0170    0.8851 O   0  0  0  0  0  0  0  0  0  0  0  0
   -5.3696   -0.7492   -0.1127 C   0  0  0  0  0  0  0  0  0  0  0  0
   -4.7424   -1.2269   -0.8691 H   0  0  0  0  0  0  0  0  0  0  0  0
   -6.0394   -1.4981    0.3170 H   0  0  0  0  0  0  0  0  0  0  0  0
   -5.9713    0.0300   -0.5878 H   0  0  0  0  0  0  0  0  0  0  0  0
   -3.9941   -0.9399    1.9810 N   0  0  0  0  0  0  0  0  0  0  0  0
   -2.9840   -0.4769    2.9475 C   0  0  2  0  0  0  0  0  0  0  0  0
   -1.5648   -0.5288    2.3348 C   0  0  0  0  0  0  0  0  0  0  0  0
   -0.7160   -1.3023    2.7621 O   0  0  0  0  0  0  0  0  0  0  0  0
   -3.1315   -1.3385    4.2068 C   0  0  0  0  0  0  0  0  0  0  0  0
   -4.0488   -1.9476    1.7987 H   0  0  0  0  0  0  0  0  0  0  0  0
   -3.1827    0.5630    3.2283 H   0  0  0  0  0  0  0  0  0  0  0  0
   -2.9500   -2.3932    3.9755 H   0  0  0  0  0  0  0  0  0  0  0  0
   -2.4140   -1.0212    4.9701 H   0  0  0  0  0  0  0  0  0  0  0  0
   -4.1409   -1.2398    4.6178 H   0  0  0  0  0  0  0  0  0  0  0  0
   -1.3555    0.1256    1.1333 N   0  0  0  0  0  0  0  0  0  0  0  0
   -0.3029   -0.1360    0.1280 C   0  0  2  0  0  0  0  0  0  0  0  0
   -0.3215   -1.5648   -0.4702 C   0  0  0  0  0  0  0  0  0  0  0  0
   -0.1381   -1.7141   -1.6716 O   0  0  0  0  0  0  0  0  0  0  0  0
    1.0832    0.1911    0.6972 C   0  0  0  0  0  0  0  0  0  0  0  0
   -2.1690    0.6645    0.8204 H   0  0  0  0  0  0  0  0  0  0  0  0
   -0.4807    0.5485   -0.7079 H   0  0  0  0  0  0  0  0  0  0  0  0
    1.3716   -0.5238    1.4733 H   0  0  0  0  0  0  0  0  0  0  0  0
    1.8335    0.1521   -0.0987 H   0  0  0  0  0  0  0  0  0  0  0  0
    1.0881    1.1964    1.1292 H   0  0  0  0  0  0  0  0  0  0  0  0
   -0.7707   -2.6420    0.2682 N   0  0  0  0  0  0  0  0  0  0  0  0
   -1.2893   -3.8965   -0.2843 C   0  0  2  0  0  0  0  0  0  0  0  0
   -2.8327   -3.9157   -0.3324 C   0  0  0  0  0  0  0  0  0  0  0  0
   -3.5014   -3.3940    0.5580 O   0  0  0  0  0  0  0  0  0  0  0  0
   -0.7704   -5.0364    0.5936 C   0  0  0  0  0  0  0  0  0  0  0  0
   -0.9283   -2.4497    1.2604 H   0  0  0  0  0  0  0  0  0  0  0  0
   -0.9117   -4.0445   -1.3013 H   0  0  0  0  0  0  0  0  0  0  0  0
   -1.1301   -4.9228    1.6217 H   0  0  0  0  0  0  0  0  0  0  0  0
   -1.1138   -6.0017    0.2091 H   0  0  0  0  0  0  0  0  0  0  0  0
    0.3241   -5.0373    0.6057 H   0  0  0  0  0  0  0  0  0  0  0  0
   -3.4852   -4.5576   -1.3684 N   0  0  0  0  0  0  0  0  0  0  0  0
   -4.9362   -4.6020   -1.5020 C   0  0  0  0  0  0  0  0  0  0  0  0
   -2.9117   -4.9203   -2.1254 H   0  0  0  0  0  0  0  0  0  0  0  0
   -5.3938   -5.0156   -0.5970 H   0  0  0  0  0  0  0  0  0  0  0  0
   -5.3354   -3.5971   -1.6722 H   0  0  0  0  0  0  0  0  0  0  0  0
   -5.2188   -5.2350   -2.3488 H   0  0  0  0  0  0  0  0  0  0  0  0
  1  2  2  0  0  0  0
  1  3  1  0  0  0  0
  1  7  1  0  0  0  0
  3  4  1  0  0  0  0
  3  5  1  0  0  0  0
  3  6  1  0  0  0  0
  7  8  1  0  0  0  0
  7 12  1  0  0  0  0
  8  9  1  0  0  0  0
  8 11  1  0  0  0  0
  8 13  1  0  0  0  0
  9 10  2  0  0  0  0
  9 17  1  0  0  0  0
 11 14  1  0  0  0  0
 11 15  1  0  0  0  0
 11 16  1  0  0  0  0
 17 18  1  0  0  0  0
 17 22  1  0  0  0  0
 18 19  1  0  0  0  0
 18 21  1  0  0  0  0
 18 23  1  0  0  0  0
 19 20  2  0  0  0  0
 19 27  1  0  0  0  0
 21 24  1  0  0  0  0
 21 25  1  0  0  0  0
 21 26  1  0  0  0  0
 27 28  1  0  0  0  0
 27 32  1  0  0  0  0
 28 29  1  0  0  0  0
 28 31  1  0  0  0  0
 28 33  1  0  0  0  0
 29 30  2  0  0  0  0
 29 37  1  0  0  0  0
 31 34  1  0  0  0  0
 31 35  1  0  0  0  0
 31 36  1  0  0  0  0
 37 38  1  0  0  0  0
 37 39  1  0  0  0  0
 38 40  1  0  0  0  0
 38 41  1  0  0  0  0
 38 42  1  0  0  0  0
M  END
$$$$

  -OEChem-05262215353D

 42 41  0     1  0  0  0  0  0999 V2000
   -4.3346    0.1943    0.8430 C   0  0  0  0  0  0  0  0  0  0  0  0
   -3.8555    1.3178    0.9158 O   0  0  0  0  0  0  0  0  0  0  0  0
   -5.1879   -0.1946   -0.3489 C   0  0  0  0  0  0  0  0  0  0  0  0
   -5.5450    0.7002   -0.8660 H   0  0  0  0  0  0  0  0  0  0  0  0
   -4.6005   -0.7968   -1.0464 H   0  0  0  0  0  0  0  0  0  0  0  0
   -6.0510   -0.7769   -0.0166 H   0  0  0  0  0  0  0  0  0  0  0  0
   -4.0048   -0.7437    1.7984 N   0  0  0  0  0  0  0  0  0  0  0  0
   -3.0516   -0.4892    2.8918 C   0  0  2  0  0  0  0  0  0  0  0  0
   -1.5937   -0.5980    2.3883 C   0  0  0  0  0  0  0  0  0  0  0  0
   -0.9090   -1.5754    2.6618 O   0  0  0  0  0  0  0  0  0  0  0  0
   -3.3741   -1.4769    4.0198 C   0  0  0  0  0  0  0  0  0  0  0  0
   -4.1753   -1.7177    1.5267 H   0  0  0  0  0  0  0  0  0  0  0  0
   -3.1921    0.5240    3.2838 H   0  0  0  0  0  0  0  0  0  0  0  0
   -3.2682   -2.5097    3.6712 H   0  0  0  0  0  0  0  0  0  0  0  0
   -2.6939   -1.3242    4.8638 H   0  0  0  0  0  0  0  0  0  0  0  0
   -4.4003   -1.3311    4.3706 H   0  0  0  0  0  0  0  0  0  0  0  0
   -1.1927    0.2503    1.3701 N   0  0  0  0  0  0  0  0  0  0  0  0
   -0.1043    0.0158    0.3948 C   0  0  2  0  0  0  0  0  0  0  0  0
   -0.2926   -1.2448   -0.4866 C   0  0  0  0  0  0  0  0  0  0  0  0
    0.2514   -1.3121   -1.5810 O   0  0  0  0  0  0  0  0  0  0  0  0
    1.2611   -0.0077    1.0952 C   0  0  0  0  0  0  0  0  0  0  0  0
   -1.9141    0.9275    1.1011 H   0  0  0  0  0  0  0  0  0  0  0  0
   -0.1015    0.8671   -0.2931 H   0  0  0  0  0  0  0  0  0  0  0  0
    1.3706   -0.8996    1.7189 H   0  0  0  0  0  0  0  0  0  0  0  0
    2.0640   -0.0125    0.3515 H   0  0  0  0  0  0  0  0  0  0  0  0
    1.3796    0.8774    1.7271 H   0  0  0  0  0  0  0  0  0  0  0  0
   -1.2151   -2.2133   -0.1448 N   0  0  0  0  0  0  0  0  0  0  0  0
   -1.6727   -3.3224   -0.9844 C   0  0  2  0  0  0  0  0  0  0  0  0
   -3.1590   -3.6618   -0.7267 C   0  0  0  0  0  0  0  0  0  0  0  0
   -3.7717   -3.1670    0.2185 O   0  0  0  0  0  0  0  0  0  0  0  0
   -0.7776   -4.5317   -0.7001 C   0  0  0  0  0  0  0  0  0  0  0  0
   -1.5294   -2.1914    0.8266 H   0  0  0  0  0  0  0  0  0  0  0  0
   -1.5783   -3.0454   -2.0396 H   0  0  0  0  0  0  0  0  0  0  0  0
   -0.8618   -4.8312    0.3497 H   0  0  0  0  0  0  0  0  0  0  0  0
   -1.0614   -5.3800   -1.3298 H   0  0  0  0  0  0  0  0  0  0  0  0
    0.2683   -4.2837   -0.9083 H   0  0  0  0  0  0  0  0  0  0  0  0
   -3.8344   -4.5090   -1.5854 N   0  0  0  0  0  0  0  0  0  0  0  0
   -5.2359   -4.8754   -1.4198 C   0  0  0  0  0  0  0  0  0  0  0  0
   -3.3110   -4.9051   -2.3615 H   0  0  0  0  0  0  0  0  0  0  0  0
   -5.3908   -5.3750   -0.4577 H   0  0  0  0  0  0  0  0  0  0  0  0
   -5.8728   -3.9856   -1.4621 H   0  0  0  0  0  0  0  0  0  0  0  0
   -5.5446   -5.5589   -2.2167 H   0  0  0  0  0  0  0  0  0  0  0  0
  1  2  2  0  0  0  0
  1  3  1  0  0  0  0
  1  7  1  0  0  0  0
  3  4  1  0  0  0  0
  3  5  1  0  0  0  0
  3  6  1  0  0  0  0
  7  8  1  0  0  0  0
  7 12  1  0  0  0  0
  8  9  1  0  0  0  0
  8 11  1  0  0  0  0
  8 13  1  0  0  0  0
  9 10  2  0  0  0  0
  9 17  1  0  0  0  0
 11 14  1  0  0  0  0
 11 15  1  0  0  0  0
 11 16  1  0  0  0  0
 17 18  1  0  0  0  0
 17 22  1  0  0  0  0
 18 19  1  0  0  0  0
 18 21  1  0  0  0  0
 18 23  1  0  0  0  0
 19 20  2  0  0  0  0
 19 27  1  0  0  0  0
 21 24  1  0  0  0  0
 21 25  1  0  0  0  0
 21 26  1  0  0  0  0
 27 28  1  0  0  0  0
 27 32  1  0  0  0  0
 28 29  1  0  0  0  0
 28 31  1  0  0  0  0
 28 33  1  0  0  0  0
 29 30  2  0  0  0  0
 29 37  1  0  0  0  0
 31 34  1  0  0  0  0
 31 35  1  0  0  0  0
 31 36  1  0  0  0  0
 37 38  1  0  0  0  0
 37 39  1  0  0  0  0
 38 40  1  0  0  0  0
 38 41  1  0  0  0  0
 38 42  1  0  0  0  0
M  END
$$$$

  -OEChem-05262215353D

 42 41  0     1  0  0  0  0  0999 V2000
   -4.2866    0.3133    0.8111 C   0  0  0  0  0  0  0  0  0  0  0  0
   -3.7818    1.4042    1.0379 O   0  0  0  0  0  0  0  0  0  0  0  0
   -5.1288    0.1075   -0.4329 C   0  0  0  0  0  0  0  0  0  0  0  0
   -5.4678    1.0712   -0.8227 H   0  0  0  0  0  0  0  0  0  0  0  0
   -4.5402   -0.3991   -1.2015 H   0  0  0  0  0  0  0  0  0  0  0  0
   -6.0031   -0.5035   -0.1952 H   0  0  0  0  0  0  0  0  0  0  0  0
   -3.9936   -0.7475    1.6425 N   0  0  0  0  0  0  0  0  0  0  0  0
   -3.0926   -0.6520    2.8055 C   0  0  2  0  0  0  0  0  0  0  0  0
   -1.6102   -0.7096    2.3675 C   0  0  0  0  0  0  0  0  0  0  0  0
   -0.9444   -1.7193    2.5487 O   0  0  0  0  0  0  0  0  0  0  0  0
   -3.4779   -1.7732    3.7784 C   0  0  0  0  0  0  0  0  0  0  0  0
   -4.2191   -1.6764    1.2717 H   0  0  0  0  0  0  0  0  0  0  0  0
   -3.2475    0.3026    3.3203 H   0  0  0  0  0  0  0  0  0  0  0  0
   -3.3567   -2.7539    3.3064 H   0  0  0  0  0  0  0  0  0  0  0  0
   -2.8436   -1.7367    4.6698 H   0  0  0  0  0  0  0  0  0  0  0  0
   -4.5205   -1.6633    4.0918 H   0  0  0  0  0  0  0  0  0  0  0  0
   -1.1645    0.2473    1.4713 N   0  0  0  0  0  0  0  0  0  0  0  0
   -0.0409    0.1027    0.5188 C   0  0  2  0  0  0  0  0  0  0  0  0
   -0.2267   -1.0521   -0.4977 C   0  0  0  0  0  0  0  0  0  0  0  0
    0.5510   -1.1926   -1.4326 O   0  0  0  0  0  0  0  0  0  0  0  0
    1.2974   -0.0166    1.2620 C   0  0  0  0  0  0  0  0  0  0  0  0
   -1.8656    0.9643    1.2574 H   0  0  0  0  0  0  0  0  0  0  0  0
   -0.0013    1.0217   -0.0738 H   0  0  0  0  0  0  0  0  0  0  0  0
    1.3802   -0.9789    1.7754 H   0  0  0  0  0  0  0  0  0  0  0  0
    2.1284    0.0623    0.5541 H   0  0  0  0  0  0  0  0  0  0  0  0
    1.3951    0.7838    2.0013 H   0  0  0  0  0  0  0  0  0  0  0  0
   -1.3645   -1.8338   -0.4534 N   0  0  0  0  0  0  0  0  0  0  0  0
   -1.6836   -2.9578   -1.3354 C   0  0  2  0  0  0  0  0  0  0  0  0
   -3.1822   -3.3237   -1.2451 C   0  0  0  0  0  0  0  0  0  0  0  0
   -3.8704   -2.9343   -0.3017 O   0  0  0  0  0  0  0  0  0  0  0  0
   -0.8235   -4.1616   -0.9346 C   0  0  0  0  0  0  0  0  0  0  0  0
   -1.8825   -1.7805    0.4213 H   0  0  0  0  0  0  0  0  0  0  0  0
   -1.4626   -2.6798   -2.3712 H   0  0  0  0  0  0  0  0  0  0  0  0
   -1.0130   -4.4354    0.1085 H   0  0  0  0  0  0  0  0  0  0  0  0
   -1.0483   -5.0241   -1.5689 H   0  0  0  0  0  0  0  0  0  0  0  0
    0.2396   -3.9247   -1.0428 H   0  0  0  0  0  0  0  0  0  0  0  0
   -3.7733   -4.0807   -2.2394 N   0  0  0  0  0  0  0  0  0  0  0  0
   -5.1802   -4.4630   -2.2324 C   0  0  0  0  0  0  0  0  0  0  0  0
   -3.1832   -4.3897   -3.0073 H   0  0  0  0  0  0  0  0  0  0  0  0
   -5.4044   -5.0835   -1.3584 H   0  0  0  0  0  0  0  0  0  0  0  0
   -5.8196   -3.5743   -2.2087 H   0  0  0  0  0  0  0  0  0  0  0  0
   -5.4205   -5.0358   -3.1333 H   0  0  0  0  0  0  0  0  0  0  0  0
  1  2  2  0  0  0  0
  1  3  1  0  0  0  0
  1  7  1  0  0  0  0
  3  4  1  0  0  0  0
  3  5  1  0  0  0  0
  3  6  1  0  0  0  0
  7  8  1  0  0  0  0
  7 12  1  0  0  0  0
  8  9  1  0  0  0  0
  8 11  1  0  0  0  0
  8 13  1  0  0  0  0
  9 10  2  0  0  0  0
  9 17  1  0  0  0  0
 11 14  1  0  0  0  0
 11 15  1  0  0  0  0
 11 16  1  0  0  0  0
 17 18  1  0  0  0  0
 17 22  1  0  0  0  0
 18 19  1  0  0  0  0
 18 21  1  0  0  0  0
 18 23  1  0  0  0  0
 19 20  2  0  0  0  0
 19 27  1  0  0  0  0
 21 24  1  0  0  0  0
 21 25  1  0  0  0  0
 21 26  1  0  0  0  0
 27 28  1  0  0  0  0
 27 32  1  0  0  0  0
 28 29  1  0  0  0  0
 28 31  1  0  0  0  0
 28 33  1  0  0  0  0
 29 30  2  0  0  0  0
 29 37  1  0  0  0  0
 31 34  1  0  0  0  0
 31 35  1  0  0  0  0
 31 36  1  0  0  0  0
 37 38  1  0  0  0  0
 37 39  1  0  0  0  0
 38 40  1  0  0  0  0
 38 41  1  0  0  0  0
 38 42  1  0  0  0  0
M  END
$$$$

  -OEChem-05262215353D

 42 41  0     1  0  0  0  0  0999 V2000
   -5.6354   -0.4950    2.0619 C   0  0  0  0  0  0  0  0  0  0  0  0
   -5.9078    0.6928    1.9835 O   0  0  0  0  0  0  0  0  0  0  0  0
   -6.7208   -1.5400    1.8854 C   0  0  0  0  0  0  0  0  0  0  0  0
   -6.8384   -2.1145    2.8072 H   0  0  0  0  0  0  0  0  0  0  0  0
   -7.6723   -1.0572    1.6461 H   0  0  0  0  0  0  0  0  0  0  0  0
   -6.4570   -2.2195    1.0711 H   0  0  0  0  0  0  0  0  0  0  0  0
   -4.3377   -0.8879    2.3124 N   0  0  0  0  0  0  0  0  0  0  0  0
   -3.1870    0.0237    2.3179 C   0  0  2  0  0  0  0  0  0  0  0  0
   -1.9213   -0.6670    1.7723 C   0  0  0  0  0  0  0  0  0  0  0  0
   -1.8246   -1.8867    1.8202 O   0  0  0  0  0  0  0  0  0  0  0  0
   -2.9578    0.5117    3.7503 C   0  0  0  0  0  0  0  0  0  0  0  0
   -4.1337   -1.8857    2.2635 H   0  0  0  0  0  0  0  0  0  0  0  0
   -3.3960    0.8847    1.6741 H   0  0  0  0  0  0  0  0  0  0  0  0
   -2.7395   -0.3329    4.4118 H   0  0  0  0  0  0  0  0  0  0  0  0
   -2.1177    1.2116    3.7886 H   0  0  0  0  0  0  0  0  0  0  0  0
   -3.8510    1.0242    4.1218 H   0  0  0  0  0  0  0  0  0  0  0  0
   -0.9303    0.0794    1.1555 N   0  0  0  0  0  0  0  0  0  0  0  0
    0.3679   -0.4345    0.6665 C   0  0  2  0  0  0  0  0  0  0  0  0
    0.2760   -1.5394   -0.4165 C   0  0  0  0  0  0  0  0  0  0  0  0
    1.2871   -2.1189   -0.7946 O   0  0  0  0  0  0  0  0  0  0  0  0
    1.2134   -0.8930    1.8648 C   0  0  0  0  0  0  0  0  0  0  0  0
   -1.0749    1.0856    1.1413 H   0  0  0  0  0  0  0  0  0  0  0  0
    0.8928    0.3985    0.1893 H   0  0  0  0  0  0  0  0  0  0  0  0
    0.7822   -1.7864    2.3272 H   0  0  0  0  0  0  0  0  0  0  0  0
    2.2309   -1.1340    1.5411 H   0  0  0  0  0  0  0  0  0  0  0  0
    1.2706   -0.1019    2.6182 H   0  0  0  0  0  0  0  0  0  0  0  0
   -0.9100   -1.7712   -1.0844 N   0  0  0  0  0  0  0  0  0  0  0  0
   -1.1329   -2.8208   -2.0829 C   0  0  2  0  0  0  0  0  0  0  0  0
   -2.4500   -2.5856   -2.8522 C   0  0  0  0  0  0  0  0  0  0  0  0
   -3.3118   -1.8401   -2.3962 O   0  0  0  0  0  0  0  0  0  0  0  0
   -1.1804   -4.1813   -1.3759 C   0  0  0  0  0  0  0  0  0  0  0  0
   -1.7410   -1.3386   -0.6847 H   0  0  0  0  0  0  0  0  0  0  0  0
   -0.3109   -2.8125   -2.8061 H   0  0  0  0  0  0  0  0  0  0  0  0
   -1.9806   -4.1945   -0.6284 H   0  0  0  0  0  0  0  0  0  0  0  0
   -1.3623   -4.9833   -2.0974 H   0  0  0  0  0  0  0  0  0  0  0  0
   -0.2315   -4.3851   -0.8700 H   0  0  0  0  0  0  0  0  0  0  0  0
   -2.6755   -3.2173   -4.0614 N   0  0  0  0  0  0  0  0  0  0  0  0
   -3.8839   -3.0213   -4.8531 C   0  0  0  0  0  0  0  0  0  0  0  0
   -1.9407   -3.8189   -4.4224 H   0  0  0  0  0  0  0  0  0  0  0  0
   -4.7714   -3.2950   -4.2725 H   0  0  0  0  0  0  0  0  0  0  0  0
   -3.9735   -1.9742   -5.1613 H   0  0  0  0  0  0  0  0  0  0  0  0
   -3.8533   -3.6451   -5.7516 H   0  0  0  0  0  0  0  0  0  0  0  0
  1  2  2  0  0  0  0
  1  3  1  0  0  0  0
  1  7  1  0  0  0  0
  3  4  1  0  0  0  0
  3  5  1  0  0  0  0
  3  6  1  0  0  0  0
  7  8  1  0  0  0  0
  7 12  1  0  0  0  0
  8  9  1  0  0  0  0
  8 11  1  0  0  0  0
  8 13  1  0  0  0  0
  9 10  2  0  0  0  0
  9 17  1  0  0  0  0
 11 14  1  0  0  0  0
 11 15  1  0  0  0  0
 11 16  1  0  0  0  0
 17 18  1  0  0  0  0
 17 22  1  0  0  0  0
 18 19  1  0  0  0  0
 18 21  1  0  0  0  0
 18 23  1  0  0  0  0
 19 20  2  0  0  0  0
 19 27  1  0  0  0  0
 21 24  1  0  0  0  0
 21 25  1  0  0  0  0
 21 26  1  0  0  0  0
 27 28  1  0  0  0  0
 27 32  1  0  0  0  0
 28 29  1  0  0  0  0
 28 31  1  0  0  0  0
 28 33  1  0  0  0  0
 29 30  2  0  0  0  0
 29 37  1  0  0  0  0
 31 34  1  0  0  0  0
 31 35  1  0  0  0  0
 31 36  1  0  0  0  0
 37 38  1  0  0  0  0
 37 39  1  0  0  0  0
 38 40  1  0  0  0  0
 38 41  1  0  0  0  0
 38 42  1  0  0  0  0
M  END
$$$$

  -OEChem-05262215353D

 42 41  0     1  0  0  0  0  0999 V2000
   -5.6650   -0.6645    2.1457 C   0  0  0  0  0  0  0  0  0  0  0  0
   -5.9975    0.4996    1.9876 O   0  0  0  0  0  0  0  0  0  0  0  0
   -6.7096   -1.7653    2.1341 C   0  0  0  0  0  0  0  0  0  0  0  0
   -6.7441   -2.2574    3.1091 H   0  0  0  0  0  0  0  0  0  0  0  0
   -7.6960   -1.3468    1.9144 H   0  0  0  0  0  0  0  0  0  0  0  0
   -6.4638   -2.5058    1.3689 H   0  0  0  0  0  0  0  0  0  0  0  0
   -4.3354   -0.9811    2.3273 N   0  0  0  0  0  0  0  0  0  0  0  0
   -3.2308   -0.0244    2.1859 C   0  0  2  0  0  0  0  0  0  0  0  0
   -1.9543   -0.7063    1.6523 C   0  0  0  0  0  0  0  0  0  0  0  0
   -1.8509   -1.9259    1.6979 O   0  0  0  0  0  0  0  0  0  0  0  0
   -2.9641    0.6148    3.5515 C   0  0  0  0  0  0  0  0  0  0  0  0
   -4.0862   -1.9697    2.3464 H   0  0  0  0  0  0  0  0  0  0  0  0
   -3.5105    0.7556    1.4695 H   0  0  0  0  0  0  0  0  0  0  0  0
   -2.6789   -0.1497    4.2817 H   0  0  0  0  0  0  0  0  0  0  0  0
   -2.1566    1.3499    3.4823 H   0  0  0  0  0  0  0  0  0  0  0  0
   -3.8632    1.1243    3.9128 H   0  0  0  0  0  0  0  0  0  0  0  0
   -0.9475    0.0532    1.0772 N   0  0  0  0  0  0  0  0  0  0  0  0
    0.3772   -0.4550    0.6613 C   0  0  2  0  0  0  0  0  0  0  0  0
    0.3192   -1.5724   -0.4102 C   0  0  0  0  0  0  0  0  0  0  0  0
    1.2534   -2.3493   -0.5682 O   0  0  0  0  0  0  0  0  0  0  0  0
    1.1700   -0.8844    1.9061 C   0  0  0  0  0  0  0  0  0  0  0  0
   -1.0829    1.0605    1.0970 H   0  0  0  0  0  0  0  0  0  0  0  0
    0.9193    0.3721    0.1932 H   0  0  0  0  0  0  0  0  0  0  0  0
    0.7356   -1.7843    2.3528 H   0  0  0  0  0  0  0  0  0  0  0  0
    2.2081   -1.1043    1.6373 H   0  0  0  0  0  0  0  0  0  0  0  0
    1.1697   -0.0867    2.6545 H   0  0  0  0  0  0  0  0  0  0  0  0
   -0.7232   -1.5946   -1.3153 N   0  0  0  0  0  0  0  0  0  0  0  0
   -0.9402   -2.6256   -2.3341 C   0  0  2  0  0  0  0  0  0  0  0  0
   -1.9484   -2.1495   -3.4007 C   0  0  0  0  0  0  0  0  0  0  0  0
   -2.6877   -1.1971   -3.1721 O   0  0  0  0  0  0  0  0  0  0  0  0
   -1.4606   -3.8937   -1.6461 C   0  0  0  0  0  0  0  0  0  0  0  0
   -1.4907   -0.9473   -1.1463 H   0  0  0  0  0  0  0  0  0  0  0  0
    0.0068   -2.8452   -2.8376 H   0  0  0  0  0  0  0  0  0  0  0  0
   -2.3920   -3.6814   -1.1111 H   0  0  0  0  0  0  0  0  0  0  0  0
   -1.6510   -4.6810   -2.3813 H   0  0  0  0  0  0  0  0  0  0  0  0
   -0.7260   -4.2676   -0.9257 H   0  0  0  0  0  0  0  0  0  0  0  0
   -2.0294   -2.7886   -4.6243 N   0  0  0  0  0  0  0  0  0  0  0  0
   -2.9481   -2.3798   -5.6802 C   0  0  0  0  0  0  0  0  0  0  0  0
   -1.3936   -3.5626   -4.7944 H   0  0  0  0  0  0  0  0  0  0  0  0
   -3.9845   -2.4397   -5.3313 H   0  0  0  0  0  0  0  0  0  0  0  0
   -2.7398   -1.3505   -5.9910 H   0  0  0  0  0  0  0  0  0  0  0  0
   -2.8395   -3.0330   -6.5513 H   0  0  0  0  0  0  0  0  0  0  0  0
  1  2  2  0  0  0  0
  1  3  1  0  0  0  0
  1  7  1  0  0  0  0
  3  4  1  0  0  0  0
  3  5  1  0  0  0  0
  3  6  1  0  0  0  0
  7  8  1  0  0  0  0
  7 12  1  0  0  0  0
  8  9  1  0  0  0  0
  8 11  1  0  0  0  0
  8 13  1  0  0  0  0
  9 10  2  0  0  0  0
  9 17  1  0  0  0  0
 11 14  1  0  0  0  0
 11 15  1  0  0  0  0
 11 16  1  0  0  0  0
 17 18  1  0  0  0  0
 17 22  1  0  0  0  0
 18 19  1  0  0  0  0
 18 21  1  0  0  0  0
 18 23  1  0  0  0  0
 19 20  2  0  0  0  0
 19 27  1  0  0  0  0
 21 24  1  0  0  0  0
 21 25  1  0  0  0  0
 21 26  1  0  0  0  0
 27 28  1  0  0  0  0
 27 32  1  0  0  0  0
 28 29  1  0  0  0  0
 28 31  1  0  0  0  0
 28 33  1  0  0  0  0
 29 30  2  0  0  0  0
 29 37  1  0  0  0  0
 31 34  1  0  0  0  0
 31 35  1  0  0  0  0
 31 36  1  0  0  0  0
 37 38  1  0  0  0  0
 37 39  1  0  0  0  0
 38 40  1  0  0  0  0
 38 41  1  0  0  0  0
 38 42  1  0  0  0  0
M  END
$$$$

  -OEChem-05262215353D

 42 41  0     1  0  0  0  0  0999 V2000
   -5.6527   -0.7294    2.0788 C   0  0  0  0  0  0  0  0  0  0  0  0
   -6.0081    0.4055    1.8027 O   0  0  0  0  0  0  0  0  0  0  0  0
   -6.6650   -1.8585    2.1164 C   0  0  0  0  0  0  0  0  0  0  0  0
   -6.7118   -2.2828    3.1223 H   0  0  0  0  0  0  0  0  0  0  0  0
   -7.6563   -1.4855    1.8438 H   0  0  0  0  0  0  0  0  0  0  0  0
   -6.3772   -2.6416    1.4104 H   0  0  0  0  0  0  0  0  0  0  0  0
   -4.3262   -0.9912    2.3468 N   0  0  0  0  0  0  0  0  0  0  0  0
   -3.2381   -0.0243    2.1568 C   0  0  2  0  0  0  0  0  0  0  0  0
   -1.9562   -0.7122    1.6439 C   0  0  0  0  0  0  0  0  0  0  0  0
   -1.8429   -1.9286    1.7295 O   0  0  0  0  0  0  0  0  0  0  0  0
   -2.9788    0.6752    3.4937 C   0  0  0  0  0  0  0  0  0  0  0  0
   -4.0544   -1.9698    2.4383 H   0  0  0  0  0  0  0  0  0  0  0  0
   -3.5294    0.7212    1.4090 H   0  0  0  0  0  0  0  0  0  0  0  0
   -2.6748   -0.0524    4.2531 H   0  0  0  0  0  0  0  0  0  0  0  0
   -2.1874    1.4233    3.3902 H   0  0  0  0  0  0  0  0  0  0  0  0
   -3.8870    1.1798    3.8387 H   0  0  0  0  0  0  0  0  0  0  0  0
   -0.9543    0.0399    1.0517 N   0  0  0  0  0  0  0  0  0  0  0  0
    0.3737   -0.4700    0.6548 C   0  0  2  0  0  0  0  0  0  0  0  0
    0.3131   -1.6165   -0.3855 C   0  0  0  0  0  0  0  0  0  0  0  0
    1.1239   -2.5354   -0.3787 O   0  0  0  0  0  0  0  0  0  0  0  0
    1.1659   -0.8563    1.9146 C   0  0  0  0  0  0  0  0  0  0  0  0
   -1.0986    1.0459    1.0420 H   0  0  0  0  0  0  0  0  0  0  0  0
    0.9130    0.3456    0.1641 H   0  0  0  0  0  0  0  0  0  0  0  0
    0.7324   -1.7414    2.3912 H   0  0  0  0  0  0  0  0  0  0  0  0
    2.2040   -1.0840    1.6529 H   0  0  0  0  0  0  0  0  0  0  0  0
    1.1640   -0.0347    2.6366 H   0  0  0  0  0  0  0  0  0  0  0  0
   -0.5374   -1.4968   -1.4675 N   0  0  0  0  0  0  0  0  0  0  0  0
   -0.6891   -2.4868   -2.5387 C   0  0  2  0  0  0  0  0  0  0  0  0
   -1.3535   -1.8693   -3.7867 C   0  0  0  0  0  0  0  0  0  0  0  0
   -1.9295   -0.7885   -3.7106 O   0  0  0  0  0  0  0  0  0  0  0  0
   -1.5341   -3.6522   -2.0105 C   0  0  0  0  0  0  0  0  0  0  0  0
   -1.1809   -0.7078   -1.4720 H   0  0  0  0  0  0  0  0  0  0  0  0
    0.2982   -2.8562   -2.8349 H   0  0  0  0  0  0  0  0  0  0  0  0
   -2.5215   -3.2973   -1.6983 H   0  0  0  0  0  0  0  0  0  0  0  0
   -1.6651   -4.4146   -2.7838 H   0  0  0  0  0  0  0  0  0  0  0  0
   -1.0457   -4.1180   -1.1486 H   0  0  0  0  0  0  0  0  0  0  0  0
   -1.3055   -2.5275   -5.0018 N   0  0  0  0  0  0  0  0  0  0  0  0
   -1.9141   -2.0066   -6.2197 C   0  0  0  0  0  0  0  0  0  0  0  0
   -0.8151   -3.4166   -5.0363 H   0  0  0  0  0  0  0  0  0  0  0  0
   -2.9929   -1.8765   -6.0833 H   0  0  0  0  0  0  0  0  0  0  0  0
   -1.4733   -1.0401   -6.4856 H   0  0  0  0  0  0  0  0  0  0  0  0
   -1.7524   -2.7004   -7.0502 H   0  0  0  0  0  0  0  0  0  0  0  0
  1  2  2  0  0  0  0
  1  3  1  0  0  0  0
  1  7  1  0  0  0  0
  3  4  1  0  0  0  0
  3  5  1  0  0  0  0
  3  6  1  0  0  0  0
  7  8  1  0  0  0  0
  7 12  1  0  0  0  0
  8  9  1  0  0  0  0
  8 11  1  0  0  0  0
  8 13  1  0  0  0  0
  9 10  2  0  0  0  0
  9 17  1  0  0  0  0
 11 14  1  0  0  0  0
 11 15  1  0  0  0  0
 11 16  1  0  0  0  0
 17 18  1  0  0  0  0
 17 22  1  0  0  0  0
 18 19  1  0  0  0  0
 18 21  1  0  0  0  0
 18 23  1  0  0  0  0
 19 20  2  0  0  0  0
 19 27  1  0  0  0  0
 21 24  1  0  0  0  0
 21 25  1  0  0  0  0
 21 26  1  0  0  0  0
 27 28  1  0  0  0  0
 27 32  1  0  0  0  0
 28 29  1  0  0  0  0
 28 31  1  0  0  0  0
 28 33  1  0  0  0  0
 29 30  2  0  0  0  0
 29 37  1  0  0  0  0
 31 34  1  0  0  0  0
 31 35  1  0  0  0  0
 31 36  1  0  0  0  0
 37 38  1  0  0  0  0
 37 39  1  0  0  0  0
 38 40  1  0  0  0  0
 38 41  1  0  0  0  0
 38 42  1  0  0  0  0
M  END
$$$$

  -OEChem-05262215353D

 42 41  0     1  0  0  0  0  0999 V2000
   -5.6653   -0.7140    2.0401 C   0  0  0  0  0  0  0  0  0  0  0  0
   -6.0089    0.4199    1.7455 O   0  0  0  0  0  0  0  0  0  0  0  0
   -6.6912   -1.8299    2.0957 C   0  0  0  0  0  0  0  0  0  0  0  0
   -6.8151   -2.1712    3.1261 H   0  0  0  0  0  0  0  0  0  0  0  0
   -7.6556   -1.4737    1.7229 H   0  0  0  0  0  0  0  0  0  0  0  0
   -6.3644   -2.6697    1.4778 H   0  0  0  0  0  0  0  0  0  0  0  0
   -4.3410   -0.9841    2.3119 N   0  0  0  0  0  0  0  0  0  0  0  0
   -3.2468   -0.0252    2.1150 C   0  0  2  0  0  0  0  0  0  0  0  0
   -1.9560   -0.7249    1.6408 C   0  0  0  0  0  0  0  0  0  0  0  0
   -1.8404   -1.9364    1.7706 O   0  0  0  0  0  0  0  0  0  0  0  0
   -3.0079    0.7116    3.4358 C   0  0  0  0  0  0  0  0  0  0  0  0
   -4.0762   -1.9629    2.4207 H   0  0  0  0  0  0  0  0  0  0  0  0
   -3.5258    0.7003    1.3435 H   0  0  0  0  0  0  0  0  0  0  0  0
   -2.7226    0.0050    4.2220 H   0  0  0  0  0  0  0  0  0  0  0  0
   -2.2100    1.4518    3.3252 H   0  0  0  0  0  0  0  0  0  0  0  0
   -3.9193    1.2315    3.7484 H   0  0  0  0  0  0  0  0  0  0  0  0
   -0.9542    0.0114    1.0288 N   0  0  0  0  0  0  0  0  0  0  0  0
    0.3768   -0.5000    0.6451 C   0  0  2  0  0  0  0  0  0  0  0  0
    0.3205   -1.6744   -0.3649 C   0  0  0  0  0  0  0  0  0  0  0  0
    0.9853   -2.6926   -0.2132 O   0  0  0  0  0  0  0  0  0  0  0  0
    1.1751   -0.8415    1.9144 C   0  0  0  0  0  0  0  0  0  0  0  0
   -1.1063    1.0151    0.9846 H   0  0  0  0  0  0  0  0  0  0  0  0
    0.9116    0.3051    0.1325 H   0  0  0  0  0  0  0  0  0  0  0  0
    0.7291   -1.6928    2.4383 H   0  0  0  0  0  0  0  0  0  0  0  0
    2.2056   -1.1035    1.6542 H   0  0  0  0  0  0  0  0  0  0  0  0
    1.1979    0.0147    2.5948 H   0  0  0  0  0  0  0  0  0  0  0  0
   -0.2797   -1.4655   -1.5918 N   0  0  0  0  0  0  0  0  0  0  0  0
   -0.3180   -2.4309   -2.6959 C   0  0  2  0  0  0  0  0  0  0  0  0
   -0.6764   -1.7377   -4.0273 C   0  0  0  0  0  0  0  0  0  0  0  0
   -1.1137   -0.5911   -4.0280 O   0  0  0  0  0  0  0  0  0  0  0  0
   -1.3499   -3.5168   -2.3673 C   0  0  0  0  0  0  0  0  0  0  0  0
   -0.7772   -0.5878   -1.7310 H   0  0  0  0  0  0  0  0  0  0  0  0
    0.6693   -2.8901   -2.8127 H   0  0  0  0  0  0  0  0  0  0  0  0
   -2.3429   -3.0741   -2.2404 H   0  0  0  0  0  0  0  0  0  0  0  0
   -1.3978   -4.2585   -3.1698 H   0  0  0  0  0  0  0  0  0  0  0  0
   -1.0799   -4.0330   -1.4405 H   0  0  0  0  0  0  0  0  0  0  0  0
   -0.5031   -2.3956   -5.2311 N   0  0  0  0  0  0  0  0  0  0  0  0
   -0.8265   -1.8011   -6.5224 C   0  0  0  0  0  0  0  0  0  0  0  0
   -0.1359   -3.3423   -5.2018 H   0  0  0  0  0  0  0  0  0  0  0  0
   -1.8889   -1.5391   -6.5683 H   0  0  0  0  0  0  0  0  0  0  0  0
   -0.2330   -0.8956   -6.6873 H   0  0  0  0  0  0  0  0  0  0  0  0
   -0.6103   -2.5078   -7.3293 H   0  0  0  0  0  0  0  0  0  0  0  0
  1  2  2  0  0  0  0
  1  3  1  0  0  0  0
  1  7  1  0  0  0  0
  3  4  1  0  0  0  0
  3  5  1  0  0  0  0
  3  6  1  0  0  0  0
  7  8  1  0  0  0  0
  7 12  1  0  0  0  0
  8  9  1  0  0  0  0
  8 11  1  0  0  0  0
  8 13  1  0  0  0  0
  9 10  2  0  0  0  0
  9 17  1  0  0  0  0
 11 14  1  0  0  0  0
 11 15  1  0  0  0  0
 11 16  1  0  0  0  0
 17 18  1  0  0  0  0
 17 22  1  0  0  0  0
 18 19  1  0  0  0  0
 18 21  1  0  0  0  0
 18 23  1  0  0  0  0
 19 20  2  0  0  0  0
 19 27  1  0  0  0  0
 21 24  1  0  0  0  0
 21 25  1  0  0  0  0
 21 26  1  0  0  0  0
 27 28  1  0  0  0  0
 27 32  1  0  0  0  0
 28 29  1  0  0  0  0
 28 31  1  0  0  0  0
 28 33  1  0  0  0  0
 29 30  2  0  0  0  0
 29 37  1  0  0  0  0
 31 34  1  0  0  0  0
 31 35  1  0  0  0  0
 31 36  1  0  0  0  0
 37 38  1  0  0  0  0
 37 39  1  0  0  0  0
 38 40  1  0  0  0  0
 38 41  1  0  0  0  0
 38 42  1  0  0  0  0
M  END
$$$$

  -OEChem-05262215353D

 42 41  0     1  0  0  0  0  0999 V2000
   -5.5189   -0.8337    1.8040 C   0  0  0  0  0  0  0  0  0  0  0  0
   -5.8153    0.1547    1.1513 O   0  0  0  0  0  0  0  0  0  0  0  0
   -6.4813   -2.0035    1.8874 C   0  0  0  0  0  0  0  0  0  0  0  0
   -6.7393   -2.2011    2.9307 H   0  0  0  0  0  0  0  0  0  0  0  0
   -7.3980   -1.7789    1.3350 H   0  0  0  0  0  0  0  0  0  0  0  0
   -6.0210   -2.8964    1.4574 H   0  0  0  0  0  0  0  0  0  0  0  0
   -4.3089   -0.8983    2.4624 N   0  0  0  0  0  0  0  0  0  0  0  0
   -3.2098    0.0552    2.2568 C   0  0  2  0  0  0  0  0  0  0  0  0
   -1.9293   -0.6574    1.7750 C   0  0  0  0  0  0  0  0  0  0  0  0
   -1.7751   -1.8458    2.0202 O   0  0  0  0  0  0  0  0  0  0  0  0
   -2.9611    0.7748    3.5840 C   0  0  0  0  0  0  0  0  0  0  0  0
   -4.0412   -1.8173    2.8126 H   0  0  0  0  0  0  0  0  0  0  0  0
   -3.4780    0.7974    1.4981 H   0  0  0  0  0  0  0  0  0  0  0  0
   -2.6747    0.0585    4.3611 H   0  0  0  0  0  0  0  0  0  0  0  0
   -2.1599    1.5123    3.4776 H   0  0  0  0  0  0  0  0  0  0  0  0
   -3.8688    1.2948    3.9066 H   0  0  0  0  0  0  0  0  0  0  0  0
   -0.9722    0.0463    1.0616 N   0  0  0  0  0  0  0  0  0  0  0  0
    0.3214   -0.4848    0.5883 C   0  0  2  0  0  0  0  0  0  0  0  0
    0.1824   -1.6893   -0.3781 C   0  0  0  0  0  0  0  0  0  0  0  0
    0.6380   -2.7961   -0.1159 O   0  0  0  0  0  0  0  0  0  0  0  0
    1.2221   -0.7933    1.7954 C   0  0  0  0  0  0  0  0  0  0  0  0
   -1.1692    1.0304    0.9038 H   0  0  0  0  0  0  0  0  0  0  0  0
    0.8171    0.3033    0.0140 H   0  0  0  0  0  0  0  0  0  0  0  0
    0.8195   -1.6238    2.3840 H   0  0  0  0  0  0  0  0  0  0  0  0
    2.2244   -1.0719    1.4558 H   0  0  0  0  0  0  0  0  0  0  0  0
    1.3065    0.0840    2.4430 H   0  0  0  0  0  0  0  0  0  0  0  0
   -0.2249   -1.4489   -1.6768 N   0  0  0  0  0  0  0  0  0  0  0  0
   -0.1872   -2.4289   -2.7680 C   0  0  2  0  0  0  0  0  0  0  0  0
    0.0065   -1.7388   -4.1339 C   0  0  0  0  0  0  0  0  0  0  0  0
   -0.1144   -0.5216   -4.2330 O   0  0  0  0  0  0  0  0  0  0  0  0
   -1.4945   -3.2263   -2.7406 C   0  0  0  0  0  0  0  0  0  0  0  0
   -0.4588   -0.4905   -1.9302 H   0  0  0  0  0  0  0  0  0  0  0  0
    0.6569   -3.1118   -2.6240 H   0  0  0  0  0  0  0  0  0  0  0  0
   -2.3516   -2.5615   -2.8881 H   0  0  0  0  0  0  0  0  0  0  0  0
   -1.5004   -3.9842   -3.5292 H   0  0  0  0  0  0  0  0  0  0  0  0
   -1.6084   -3.7318   -1.7761 H   0  0  0  0  0  0  0  0  0  0  0  0
    0.3401   -2.4808   -5.2519 N   0  0  0  0  0  0  0  0  0  0  0  0
    0.5912   -1.8892   -6.5603 C   0  0  0  0  0  0  0  0  0  0  0  0
    0.4635   -3.4821   -5.1316 H   0  0  0  0  0  0  0  0  0  0  0  0
   -0.2773   -1.3119   -6.8946 H   0  0  0  0  0  0  0  0  0  0  0  0
    1.4608   -1.2250   -6.5185 H   0  0  0  0  0  0  0  0  0  0  0  0
    0.7887   -2.6726   -7.2984 H   0  0  0  0  0  0  0  0  0  0  0  0
  1  2  2  0  0  0  0
  1  3  1  0  0  0  0
  1  7  1  0  0  0  0
  3  4  1  0  0  0  0
  3  5  1  0  0  0  0
  3  6  1  0  0  0  0
  7  8  1  0  0  0  0
  7 12  1  0  0  0  0
  8  9  1  0  0  0  0
  8 11  1  0  0  0  0
  8 13  1  0  0  0  0
  9 10  2  0  0  0  0
  9 17  1  0  0  0  0
 11 14  1  0  0  0  0
 11 15  1  0  0  0  0
 11 16  1  0  0  0  0
 17 18  1  0  0  0  0
 17 22  1  0  0  0  0
 18 19  1  0  0  0  0
 18 21  1  0  0  0  0
 18 23  1  0  0  0  0
 19 20  2  0  0  0  0
 19 27  1  0  0  0  0
 21 24  1  0  0  0  0
 21 25  1  0  0  0  0
 21 26  1  0  0  0  0
 27 28  1  0  0  0  0
 27 32  1  0  0  0  0
 28 29  1  0  0  0  0
 28 31  1  0  0  0  0
 28 33  1  0  0  0  0
 29 30  2  0  0  0  0
 29 37  1  0  0  0  0
 31 34  1  0  0  0  0
 31 35  1  0  0  0  0
 31 36  1  0  0  0  0
 37 38  1  0  0  0  0
 37 39  1  0  0  0  0
 38 40  1  0  0  0  0
 38 41  1  0  0  0  0
 38 42  1  0  0  0  0
M  END
$$$$

  -OEChem-05262215353D

 42 41  0     1  0  0  0  0  0999 V2000
   -5.4929   -0.8543    1.7784 C   0  0  0  0  0  0  0  0  0  0  0  0
   -5.7928    0.1160    1.1003 O   0  0  0  0  0  0  0  0  0  0  0  0
   -6.4341   -2.0411    1.8630 C   0  0  0  0  0  0  0  0  0  0  0  0
   -6.7031   -2.2313    2.9049 H   0  0  0  0  0  0  0  0  0  0  0  0
   -7.3465   -1.8400    1.2948 H   0  0  0  0  0  0  0  0  0  0  0  0
   -5.9509   -2.9301    1.4505 H   0  0  0  0  0  0  0  0  0  0  0  0
   -4.2947   -0.8855    2.4602 N   0  0  0  0  0  0  0  0  0  0  0  0
   -3.2028    0.0743    2.2468 C   0  0  2  0  0  0  0  0  0  0  0  0
   -1.9052   -0.6426    1.8201 C   0  0  0  0  0  0  0  0  0  0  0  0
   -1.7395   -1.8113    2.1387 O   0  0  0  0  0  0  0  0  0  0  0  0
   -2.9889    0.8415    3.5534 C   0  0  0  0  0  0  0  0  0  0  0  0
   -4.0194   -1.7930    2.8344 H   0  0  0  0  0  0  0  0  0  0  0  0
   -3.4627    0.7862    1.4569 H   0  0  0  0  0  0  0  0  0  0  0  0
   -2.7118    0.1549    4.3601 H   0  0  0  0  0  0  0  0  0  0  0  0
   -2.1922    1.5825    3.4377 H   0  0  0  0  0  0  0  0  0  0  0  0
   -3.9075    1.3633    3.8397 H   0  0  0  0  0  0  0  0  0  0  0  0
   -0.9456    0.0420    1.0912 N   0  0  0  0  0  0  0  0  0  0  0  0
    0.3269   -0.5076    0.5820 C   0  0  2  0  0  0  0  0  0  0  0  0
    0.1547   -1.6992   -0.3959 C   0  0  0  0  0  0  0  0  0  0  0  0
    0.3467   -2.8607   -0.0598 O   0  0  0  0  0  0  0  0  0  0  0  0
    1.2538   -0.8519    1.7593 C   0  0  0  0  0  0  0  0  0  0  0  0
   -1.1768    1.0014    0.8511 H   0  0  0  0  0  0  0  0  0  0  0  0
    0.8240    0.2830    0.0125 H   0  0  0  0  0  0  0  0  0  0  0  0
    0.8486   -1.6791    2.3507 H   0  0  0  0  0  0  0  0  0  0  0  0
    2.2387   -1.1512    1.3878 H   0  0  0  0  0  0  0  0  0  0  0  0
    1.3782    0.0153    2.4141 H   0  0  0  0  0  0  0  0  0  0  0  0
    0.0376   -1.4341   -1.7481 N   0  0  0  0  0  0  0  0  0  0  0  0
    0.1288   -2.4407   -2.8127 C   0  0  2  0  0  0  0  0  0  0  0  0
    0.7266   -1.8419   -4.1022 C   0  0  0  0  0  0  0  0  0  0  0  0
    0.8156   -0.6249   -4.2331 O   0  0  0  0  0  0  0  0  0  0  0  0
   -1.2746   -2.9957   -3.0717 C   0  0  0  0  0  0  0  0  0  0  0  0
    0.0480   -0.4593   -2.0429 H   0  0  0  0  0  0  0  0  0  0  0  0
    0.7871   -3.2574   -2.4977 H   0  0  0  0  0  0  0  0  0  0  0  0
   -1.9496   -2.1962   -3.3934 H   0  0  0  0  0  0  0  0  0  0  0  0
   -1.2477   -3.7643   -3.8497 H   0  0  0  0  0  0  0  0  0  0  0  0
   -1.6772   -3.4451   -2.1583 H   0  0  0  0  0  0  0  0  0  0  0  0
    1.1889   -2.6698   -5.1083 N   0  0  0  0  0  0  0  0  0  0  0  0
    1.8176   -2.1751   -6.3269 C   0  0  0  0  0  0  0  0  0  0  0  0
    1.1388   -3.6726   -4.9518 H   0  0  0  0  0  0  0  0  0  0  0  0
    1.1396   -1.5033   -6.8638 H   0  0  0  0  0  0  0  0  0  0  0  0
    2.7375   -1.6309   -6.0888 H   0  0  0  0  0  0  0  0  0  0  0  0
    2.0706   -3.0096   -6.9880 H   0  0  0  0  0  0  0  0  0  0  0  0
  1  2  2  0  0  0  0
  1  3  1  0  0  0  0
  1  7  1  0  0  0  0
  3  4  1  0  0  0  0
  3  5  1  0  0  0  0
  3  6  1  0  0  0  0
  7  8  1  0  0  0  0
  7 12  1  0  0  0  0
  8  9  1  0  0  0  0
  8 11  1  0  0  0  0
  8 13  1  0  0  0  0
  9 10  2  0  0  0  0
  9 17  1  0  0  0  0
 11 14  1  0  0  0  0
 11 15  1  0  0  0  0
 11 16  1  0  0  0  0
 17 18  1  0  0  0  0
 17 22  1  0  0  0  0
 18 19  1  0  0  0  0
 18 21  1  0  0  0  0
 18 23  1  0  0  0  0
 19 20  2  0  0  0  0
 19 27  1  0  0  0  0
 21 24  1  0  0  0  0
 21 25  1  0  0  0  0
 21 26  1  0  0  0  0
 27 28  1  0  0  0  0
 27 32  1  0  0  0  0
 28 29  1  0  0  0  0
 28 31  1  0  0  0  0
 28 33  1  0  0  0  0
 29 30  2  0  0  0  0
 29 37  1  0  0  0  0
 31 34  1  0  0  0  0
 31 35  1  0  0  0  0
 31 36  1  0  0  0  0
 37 38  1  0  0  0  0
 37 39  1  0  0  0  0
 38 40  1  0  0  0  0
 38 41  1  0  0  0  0
 38 42  1  0  0  0  0
M  END
$$$$

  -OEChem-05262215353D

 42 41  0     1  0  0  0  0  0999 V2000
   -5.4540   -0.9040    1.7534 C   0  0  0  0  0  0  0  0  0  0  0  0
   -5.7741    0.0501    1.0613 O   0  0  0  0  0  0  0  0  0  0  0  0
   -6.3609   -2.1173    1.8381 C   0  0  0  0  0  0  0  0  0  0  0  0
   -6.5755   -2.3524    2.8834 H   0  0  0  0  0  0  0  0  0  0  0  0
   -7.3043   -1.9199    1.3213 H   0  0  0  0  0  0  0  0  0  0  0  0
   -5.8752   -2.9776    1.3708 H   0  0  0  0  0  0  0  0  0  0  0  0
   -4.2610   -0.8957    2.4447 N   0  0  0  0  0  0  0  0  0  0  0  0
   -3.1897    0.0847    2.2232 C   0  0  2  0  0  0  0  0  0  0  0  0
   -1.8584   -0.6175    1.8869 C   0  0  0  0  0  0  0  0  0  0  0  0
   -1.6642   -1.7471    2.3118 O   0  0  0  0  0  0  0  0  0  0  0  0
   -3.0454    0.9263    3.4929 C   0  0  0  0  0  0  0  0  0  0  0  0
   -3.9672   -1.7890    2.8393 H   0  0  0  0  0  0  0  0  0  0  0  0
   -3.4382    0.7445    1.3857 H   0  0  0  0  0  0  0  0  0  0  0  0
   -2.7829    0.2909    4.3454 H   0  0  0  0  0  0  0  0  0  0  0  0
   -2.2621    1.6800    3.3663 H   0  0  0  0  0  0  0  0  0  0  0  0
   -3.9869    1.4384    3.7154 H   0  0  0  0  0  0  0  0  0  0  0  0
   -0.8963    0.0535    1.1480 N   0  0  0  0  0  0  0  0  0  0  0  0
    0.3464   -0.5205    0.5927 C   0  0  2  0  0  0  0  0  0  0  0  0
    0.1342   -1.6844   -0.4111 C   0  0  0  0  0  0  0  0  0  0  0  0
   -0.0235   -2.8454   -0.0597 O   0  0  0  0  0  0  0  0  0  0  0  0
    1.3005   -0.9278    1.7259 C   0  0  0  0  0  0  0  0  0  0  0  0
   -1.1694    0.9755    0.8215 H   0  0  0  0  0  0  0  0  0  0  0  0
    0.8486    0.2774    0.0381 H   0  0  0  0  0  0  0  0  0  0  0  0
    0.9042   -1.7767    2.2913 H   0  0  0  0  0  0  0  0  0  0  0  0
    2.2707   -1.2201    1.3128 H   0  0  0  0  0  0  0  0  0  0  0  0
    1.4534   -0.0927    2.4156 H   0  0  0  0  0  0  0  0  0  0  0  0
    0.3128   -1.4401   -1.7607 N   0  0  0  0  0  0  0  0  0  0  0  0
    0.4268   -2.4827   -2.7887 C   0  0  2  0  0  0  0  0  0  0  0  0
    1.4136   -2.0630   -3.8972 C   0  0  0  0  0  0  0  0  0  0  0  0
    1.7913   -0.8978   -3.9747 O   0  0  0  0  0  0  0  0  0  0  0  0
   -0.9661   -2.7437   -3.3680 C   0  0  0  0  0  0  0  0  0  0  0  0
    0.6273   -0.5095   -2.0316 H   0  0  0  0  0  0  0  0  0  0  0  0
    0.8116   -3.4076   -2.3453 H   0  0  0  0  0  0  0  0  0  0  0  0
   -1.3682   -1.8328   -3.8228 H   0  0  0  0  0  0  0  0  0  0  0  0
   -0.9254   -3.5266   -4.1312 H   0  0  0  0  0  0  0  0  0  0  0  0
   -1.6487   -3.0695   -2.5764 H   0  0  0  0  0  0  0  0  0  0  0  0
    1.9030   -2.9974   -4.7904 N   0  0  0  0  0  0  0  0  0  0  0  0
    2.8911   -2.6823   -5.8146 C   0  0  0  0  0  0  0  0  0  0  0  0
    1.6049   -3.9617   -4.6725 H   0  0  0  0  0  0  0  0  0  0  0  0
    2.5089   -1.9119   -6.4926 H   0  0  0  0  0  0  0  0  0  0  0  0
    3.8165   -2.3192   -5.3550 H   0  0  0  0  0  0  0  0  0  0  0  0
    3.1245   -3.5750   -6.4026 H   0  0  0  0  0  0  0  0  0  0  0  0
  1  2  2  0  0  0  0
  1  3  1  0  0  0  0
  1  7  1  0  0  0  0
  3  4  1  0  0  0  0
  3  5  1  0  0  0  0
  3  6  1  0  0  0  0
  7  8  1  0  0  0  0
  7 12  1  0  0  0  0
  8  9  1  0  0  0  0
  8 11  1  0  0  0  0
  8 13  1  0  0  0  0
  9 10  2  0  0  0  0
  9 17  1  0  0  0  0
 11 14  1  0  0  0  0
 11 15  1  0  0  0  0
 11 16  1  0  0  0  0
 17 18  1  0  0  0  0
 17 22  1  0  0  0  0
 18 19  1  0  0  0  0
 18 21  1  0  0  0  0
 18 23  1  0  0  0  0
 19 20  2  0  0  0  0
 19 27  1  0  0  0  0
 21 24  1  0  0  0  0
 21 25  1  0  0  0  0
 21 26  1  0  0  0  0
 27 28  1  0  0  0  0
 27 32  1  0  0  0  0
 28 29  1  0  0  0  0
 28 31  1  0  0  0  0
 28 33  1  0  0  0  0
 29 30  2  0  0  0  0
 29 37  1  0  0  0  0
 31 34  1  0  0  0  0
 31 35  1  0  0  0  0
 31 36  1  0  0  0  0
 37 38  1  0  0  0  0
 37 39  1  0  0  0  0
 38 40  1  0  0  0  0
 38 41  1  0  0  0  0
 38 42  1  0  0  0  0
M  END
$$$$

  -OEChem-05262215353D

 42 41  0     1  0  0  0  0  0999 V2000
   -5.4336   -1.0584    1.7339 C   0  0  0  0  0  0  0  0  0  0  0  0
   -5.8394   -0.1058    1.0858 O   0  0  0  0  0  0  0  0  0  0  0  0
   -6.3126   -2.2802    1.9237 C   0  0  0  0  0  0  0  0  0  0  0  0
   -6.5355   -2.4158    2.9847 H   0  0  0  0  0  0  0  0  0  0  0  0
   -7.2525   -2.1580    1.3781 H   0  0  0  0  0  0  0  0  0  0  0  0
   -5.8013   -3.1704    1.5489 H   0  0  0  0  0  0  0  0  0  0  0  0
   -4.1748   -1.0281    2.2941 N   0  0  0  0  0  0  0  0  0  0  0  0
   -3.1724    0.0089    2.0226 C   0  0  2  0  0  0  0  0  0  0  0  0
   -1.7551   -0.5951    1.9445 C   0  0  0  0  0  0  0  0  0  0  0  0
   -1.5235   -1.6391    2.5401 O   0  0  0  0  0  0  0  0  0  0  0  0
   -3.2520    1.0588    3.1337 C   0  0  0  0  0  0  0  0  0  0  0  0
   -3.8259   -1.8957    2.7022 H   0  0  0  0  0  0  0  0  0  0  0  0
   -3.3806    0.4856    1.0591 H   0  0  0  0  0  0  0  0  0  0  0  0
   -3.0413    0.6022    4.1063 H   0  0  0  0  0  0  0  0  0  0  0  0
   -2.5262    1.8585    2.9593 H   0  0  0  0  0  0  0  0  0  0  0  0
   -4.2530    1.5009    3.1652 H   0  0  0  0  0  0  0  0  0  0  0  0
   -0.7561    0.0862    1.2634 N   0  0  0  0  0  0  0  0  0  0  0  0
    0.4878   -0.5148    0.7368 C   0  0  2  0  0  0  0  0  0  0  0  0
    0.2819   -1.6403   -0.3110 C   0  0  0  0  0  0  0  0  0  0  0  0
   -0.3828   -2.6430   -0.0931 O   0  0  0  0  0  0  0  0  0  0  0  0
    1.3986   -0.9964    1.8750 C   0  0  0  0  0  0  0  0  0  0  0  0
   -1.0752    0.9334    0.8037 H   0  0  0  0  0  0  0  0  0  0  0  0
    1.0279    0.2887    0.2276 H   0  0  0  0  0  0  0  0  0  0  0  0
    0.9955   -1.8958    2.3504 H   0  0  0  0  0  0  0  0  0  0  0  0
    2.3928   -1.2366    1.4864 H   0  0  0  0  0  0  0  0  0  0  0  0
    1.5014   -0.2171    2.6359 H   0  0  0  0  0  0  0  0  0  0  0  0
    0.8122   -1.4819   -1.5783 N   0  0  0  0  0  0  0  0  0  0  0  0
    0.7902   -2.5130   -2.6239 C   0  0  2  0  0  0  0  0  0  0  0  0
    2.0367   -2.4128   -3.5275 C   0  0  0  0  0  0  0  0  0  0  0  0
    2.7747   -1.4356   -3.4466 O   0  0  0  0  0  0  0  0  0  0  0  0
   -0.4932   -2.3480   -3.4437 C   0  0  0  0  0  0  0  0  0  0  0  0
    1.4727   -0.7181   -1.7192 H   0  0  0  0  0  0  0  0  0  0  0  0
    0.7993   -3.5078   -2.1658 H   0  0  0  0  0  0  0  0  0  0  0  0
   -0.5182   -1.3644   -3.9234 H   0  0  0  0  0  0  0  0  0  0  0  0
   -0.5565   -3.1169   -4.2194 H   0  0  0  0  0  0  0  0  0  0  0  0
   -1.3703   -2.4419   -2.7952 H   0  0  0  0  0  0  0  0  0  0  0  0
    2.3456   -3.4266   -4.4155 N   0  0  0  0  0  0  0  0  0  0  0  0
    3.5384   -3.4182   -5.2541 C   0  0  0  0  0  0  0  0  0  0  0  0
    1.7411   -4.2434   -4.4267 H   0  0  0  0  0  0  0  0  0  0  0  0
    3.5970   -2.4894   -5.8317 H   0  0  0  0  0  0  0  0  0  0  0  0
    4.4389   -3.5069   -4.6371 H   0  0  0  0  0  0  0  0  0  0  0  0
    3.5134   -4.2568   -5.9567 H   0  0  0  0  0  0  0  0  0  0  0  0
  1  2  2  0  0  0  0
  1  3  1  0  0  0  0
  1  7  1  0  0  0  0
  3  4  1  0  0  0  0
  3  5  1  0  0  0  0
  3  6  1  0  0  0  0
  7  8  1  0  0  0  0
  7 12  1  0  0  0  0
  8  9  1  0  0  0  0
  8 11  1  0  0  0  0
  8 13  1  0  0  0  0
  9 10  2  0  0  0  0
  9 17  1  0  0  0  0
 11 14  1  0  0  0  0
 11 15  1  0  0  0  0
 11 16  1  0  0  0  0
 17 18  1  0  0  0  0
 17 22  1  0  0  0  0
 18 19  1  0  0  0  0
 18 21  1  0  0  0  0
 18 23  1  0  0  0  0
 19 20  2  0  0  0  0
 19 27  1  0  0  0  0
 21 24  1  0  0  0  0
 21 25  1  0  0  0  0
 21 26  1  0  0  0  0
 27 28  1  0  0  0  0
 27 32  1  0  0  0  0
 28 29  1  0  0  0  0
 28 31  1  0  0  0  0
 28 33  1  0  0  0  0
 29 30  2  0  0  0  0
 29 37  1  0  0  0  0
 31 34  1  0  0  0  0
 31 35  1  0  0  0  0
 31 36  1  0  0  0  0
 37 38  1  0  0  0  0
 37 39  1  0  0  0  0
 38 40  1  0  0  0  0
 38 41  1  0  0  0  0
 38 42  1  0  0  0  0
M  END
$$$$

  -OEChem-05262215353D

 42 41  0     1  0  0  0  0  0999 V2000
   -5.4046   -1.1233    1.7514 C   0  0  0  0  0  0  0  0  0  0  0  0
   -5.8554   -0.1621    1.1472 O   0  0  0  0  0  0  0  0  0  0  0  0
   -6.2410   -2.3774    1.9201 C   0  0  0  0  0  0  0  0  0  0  0  0
   -6.3723   -2.5977    2.9823 H   0  0  0  0  0  0  0  0  0  0  0  0
   -7.2251   -2.2384    1.4639 H   0  0  0  0  0  0  0  0  0  0  0  0
   -5.7447   -3.2234    1.4379 H   0  0  0  0  0  0  0  0  0  0  0  0
   -4.1312   -1.0755    2.2755 N   0  0  0  0  0  0  0  0  0  0  0  0
   -3.1667   -0.0034    2.0068 C   0  0  2  0  0  0  0  0  0  0  0  0
   -1.7256   -0.5519    1.9613 C   0  0  0  0  0  0  0  0  0  0  0  0
   -1.4573   -1.5742    2.5813 O   0  0  0  0  0  0  0  0  0  0  0  0
   -3.3057    1.0598    3.0995 C   0  0  0  0  0  0  0  0  0  0  0  0
   -3.7484   -1.9421    2.6537 H   0  0  0  0  0  0  0  0  0  0  0  0
   -3.3794    0.4476    1.0318 H   0  0  0  0  0  0  0  0  0  0  0  0
   -3.0948    0.6261    4.0824 H   0  0  0  0  0  0  0  0  0  0  0  0
   -2.6085    1.8845    2.9247 H   0  0  0  0  0  0  0  0  0  0  0  0
   -4.3232    1.4632    3.1079 H   0  0  0  0  0  0  0  0  0  0  0  0
   -0.7450    0.1479    1.2723 N   0  0  0  0  0  0  0  0  0  0  0  0
    0.5027   -0.4458    0.7466 C   0  0  2  0  0  0  0  0  0  0  0  0
    0.3147   -1.5838   -0.2919 C   0  0  0  0  0  0  0  0  0  0  0  0
   -0.6180   -2.3748   -0.2484 O   0  0  0  0  0  0  0  0  0  0  0  0
    1.4317   -0.9028    1.8800 C   0  0  0  0  0  0  0  0  0  0  0  0
   -1.0969    0.9601    0.7753 H   0  0  0  0  0  0  0  0  0  0  0  0
    1.0237    0.3619    0.2245 H   0  0  0  0  0  0  0  0  0  0  0  0
    1.0563   -1.8140    2.3552 H   0  0  0  0  0  0  0  0  0  0  0  0
    2.4310   -1.1141    1.4881 H   0  0  0  0  0  0  0  0  0  0  0  0
    1.5160   -0.1219    2.6418 H   0  0  0  0  0  0  0  0  0  0  0  0
    1.0941   -1.5803   -1.4345 N   0  0  0  0  0  0  0  0  0  0  0  0
    1.0609   -2.6299   -2.4623 C   0  0  2  0  0  0  0  0  0  0  0  0
    2.4648   -2.8743   -3.0548 C   0  0  0  0  0  0  0  0  0  0  0  0
    3.3749   -2.0859   -2.8185 O   0  0  0  0  0  0  0  0  0  0  0  0
    0.0753   -2.2068   -3.5552 C   0  0  0  0  0  0  0  0  0  0  0  0
    1.9247   -0.9888   -1.4298 H   0  0  0  0  0  0  0  0  0  0  0  0
    0.7251   -3.5743   -2.0202 H   0  0  0  0  0  0  0  0  0  0  0  0
    0.3969   -1.2694   -4.0197 H   0  0  0  0  0  0  0  0  0  0  0  0
    0.0070   -2.9753   -4.3305 H   0  0  0  0  0  0  0  0  0  0  0  0
   -0.9217   -2.0606   -3.1280 H   0  0  0  0  0  0  0  0  0  0  0  0
    2.7159   -3.9847   -3.8397 N   0  0  0  0  0  0  0  0  0  0  0  0
    4.0277   -4.2896   -4.3987 C   0  0  0  0  0  0  0  0  0  0  0  0
    1.9521   -4.6376   -3.9904 H   0  0  0  0  0  0  0  0  0  0  0  0
    4.3744   -3.4679   -5.0343 H   0  0  0  0  0  0  0  0  0  0  0  0
    4.7580   -4.4477   -3.5980 H   0  0  0  0  0  0  0  0  0  0  0  0
    3.9785   -5.1983   -5.0066 H   0  0  0  0  0  0  0  0  0  0  0  0
  1  2  2  0  0  0  0
  1  3  1  0  0  0  0
  1  7  1  0  0  0  0
  3  4  1  0  0  0  0
  3  5  1  0  0  0  0
  3  6  1  0  0  0  0
  7  8  1  0  0  0  0
  7 12  1  0  0  0  0
  8  9  1  0  0  0  0
  8 11  1  0  0  0  0
  8 13  1  0  0  0  0
  9 10  2  0  0  0  0
  9 17  1  0  0  0  0
 11 14  1  0  0  0  0
 11 15  1  0  0  0  0
 11 16  1  0  0  0  0
 17 18  1  0  0  0  0
 17 22  1  0  0  0  0
 18 19  1  0  0  0  0
 18 21  1  0  0  0  0
 18 23  1  0  0  0  0
 19 20  2  0  0  0  0
 19 27  1  0  0  0  0
 21 24  1  0  0  0  0
 21 25  1  0  0  0  0
 21 26  1  0  0  0  0
 27 28  1  0  0  0  0
 27 32  1  0  0  0  0
 28 29  1  0  0  0  0
 28 31  1  0  0  0  0
 28 33  1  0  0  0  0
 29 30  2  0  0  0  0
 29 37  1  0  0  0  0
 31 34  1  0  0  0  0
 31 35  1  0  0  0  0
 31 36  1  0  0  0  0
 37 38  1  0  0  0  0
 37 39  1  0  0  0  0
 38 40  1  0  0  0  0
 38 41  1  0  0  0  0
 38 42  1  0  0  0  0
M  END
$$$$

  -OEChem-05262215353D

 42 41  0     1  0  0  0  0  0999 V2000
   -5.4008   -1.1389    1.7822 C   0  0  0  0  0  0  0  0  0  0  0  0
   -5.8777   -0.1712    1.2092 O   0  0  0  0  0  0  0  0  0  0  0  0
   -6.2159   -2.4088    1.9392 C   0  0  0  0  0  0  0  0  0  0  0  0
   -6.3031   -2.6691    2.9968 H   0  0  0  0  0  0  0  0  0  0  0  0
   -7.2188   -2.2666    1.5269 H   0  0  0  0  0  0  0  0  0  0  0  0
   -5.7293   -3.2308    1.4083 H   0  0  0  0  0  0  0  0  0  0  0  0
   -4.1167   -1.0852    2.2797 N   0  0  0  0  0  0  0  0  0  0  0  0
   -3.1684   -0.0002    2.0028 C   0  0  2  0  0  0  0  0  0  0  0  0
   -1.7201   -0.5294    1.9406 C   0  0  0  0  0  0  0  0  0  0  0  0
   -1.4330   -1.5613    2.5379 O   0  0  0  0  0  0  0  0  0  0  0  0
   -3.3116    1.0621    3.0966 C   0  0  0  0  0  0  0  0  0  0  0  0
   -3.7168   -1.9534    2.6357 H   0  0  0  0  0  0  0  0  0  0  0  0
   -3.3969    0.4477    1.0298 H   0  0  0  0  0  0  0  0  0  0  0  0
   -3.0794    0.6349    4.0776 H   0  0  0  0  0  0  0  0  0  0  0  0
   -2.6323    1.8993    2.9109 H   0  0  0  0  0  0  0  0  0  0  0  0
   -4.3361    1.4472    3.1179 H   0  0  0  0  0  0  0  0  0  0  0  0
   -0.7553    0.1840    1.2430 N   0  0  0  0  0  0  0  0  0  0  0  0
    0.5044   -0.3980    0.7336 C   0  0  2  0  0  0  0  0  0  0  0  0
    0.3396   -1.5585   -0.2829 C   0  0  0  0  0  0  0  0  0  0  0  0
   -0.7249   -2.1435   -0.4408 O   0  0  0  0  0  0  0  0  0  0  0  0
    1.4401   -0.8110    1.8793 C   0  0  0  0  0  0  0  0  0  0  0  0
   -1.1266    0.9737    0.7239 H   0  0  0  0  0  0  0  0  0  0  0  0
    1.0100    0.4057    0.1906 H   0  0  0  0  0  0  0  0  0  0  0  0
    1.0891   -1.7269    2.3644 H   0  0  0  0  0  0  0  0  0  0  0  0
    2.4487   -0.9956    1.4971 H   0  0  0  0  0  0  0  0  0  0  0  0
    1.4946   -0.0180    2.6314 H   0  0  0  0  0  0  0  0  0  0  0  0
    1.3149   -1.7443   -1.2458 N   0  0  0  0  0  0  0  0  0  0  0  0
    1.3000   -2.8309   -2.2346 C   0  0  2  0  0  0  0  0  0  0  0  0
    2.7251   -3.3546   -2.5104 C   0  0  0  0  0  0  0  0  0  0  0  0
    3.6974   -2.7243   -2.1069 O   0  0  0  0  0  0  0  0  0  0  0  0
    0.6555   -2.3073   -3.5216 C   0  0  0  0  0  0  0  0  0  0  0  0
    2.2254   -1.3208   -1.0676 H   0  0  0  0  0  0  0  0  0  0  0  0
    0.7123   -3.6728   -1.8530 H   0  0  0  0  0  0  0  0  0  0  0  0
    1.2415   -1.4803   -3.9352 H   0  0  0  0  0  0  0  0  0  0  0  0
    0.5941   -3.1011   -4.2721 H   0  0  0  0  0  0  0  0  0  0  0  0
   -0.3582   -1.9485   -3.3166 H   0  0  0  0  0  0  0  0  0  0  0  0
    2.9201   -4.5378   -3.1989 N   0  0  0  0  0  0  0  0  0  0  0  0
    4.2387   -5.0986   -3.4687 C   0  0  0  0  0  0  0  0  0  0  0  0
    2.0955   -5.0526   -3.4950 H   0  0  0  0  0  0  0  0  0  0  0  0
    4.8426   -4.3956   -4.0521 H   0  0  0  0  0  0  0  0  0  0  0  0
    4.7607   -5.3177   -2.5313 H   0  0  0  0  0  0  0  0  0  0  0  0
    4.1461   -6.0284   -4.0385 H   0  0  0  0  0  0  0  0  0  0  0  0
  1  2  2  0  0  0  0
  1  3  1  0  0  0  0
  1  7  1  0  0  0  0
  3  4  1  0  0  0  0
  3  5  1  0  0  0  0
  3  6  1  0  0  0  0
  7  8  1  0  0  0  0
  7 12  1  0  0  0  0
  8  9  1  0  0  0  0
  8 11  1  0  0  0  0
  8 13  1  0  0  0  0
  9 10  2  0  0  0  0
  9 17  1  0  0  0  0
 11 14  1  0  0  0  0
 11 15  1  0  0  0  0
 11 16  1  0  0  0  0
 17 18  1  0  0  0  0
 17 22  1  0  0  0  0
 18 19  1  0  0  0  0
 18 21  1  0  0  0  0
 18 23  1  0  0  0  0
 19 20  2  0  0  0  0
 19 27  1  0  0  0  0
 21 24  1  0  0  0  0
 21 25  1  0  0  0  0
 21 26  1  0  0  0  0
 27 28  1  0  0  0  0
 27 32  1  0  0  0  0
 28 29  1  0  0  0  0
 28 31  1  0  0  0  0
 28 33  1  0  0  0  0
 29 30  2  0  0  0  0
 29 37  1  0  0  0  0
 31 34  1  0  0  0  0
 31 35  1  0  0  0  0
 31 36  1  0  0  0  0
 37 38  1  0  0  0  0
 37 39  1  0  0  0  0
 38 40  1  0  0  0  0
 38 41  1  0  0  0  0
 38 42  1  0  0  0  0
M  END
$$$$

  -OEChem-05262215353D

 42 41  0     1  0  0  0  0  0999 V2000
   -5.4018   -1.1411    1.8032 C   0  0  0  0  0  0  0  0  0  0  0  0
   -5.8878   -0.1717    1.2410 O   0  0  0  0  0  0  0  0  0  0  0  0
   -6.2200   -2.4061    1.9826 C   0  0  0  0  0  0  0  0  0  0  0  0
   -6.3008   -2.6520    3.0441 H   0  0  0  0  0  0  0  0  0  0  0  0
   -7.2254   -2.2654    1.5764 H   0  0  0  0  0  0  0  0  0  0  0  0
   -5.7409   -3.2368    1.4586 H   0  0  0  0  0  0  0  0  0  0  0  0
   -4.1064   -1.0910    2.2713 N   0  0  0  0  0  0  0  0  0  0  0  0
   -3.1641   -0.0043    1.9797 C   0  0  2  0  0  0  0  0  0  0  0  0
   -1.7142   -0.5273    1.9046 C   0  0  0  0  0  0  0  0  0  0  0  0
   -1.4250   -1.5779    2.4682 O   0  0  0  0  0  0  0  0  0  0  0  0
   -3.2994    1.0622    3.0702 C   0  0  0  0  0  0  0  0  0  0  0  0
   -3.6998   -1.9597    2.6176 H   0  0  0  0  0  0  0  0  0  0  0  0
   -3.4038    0.4381    1.0069 H   0  0  0  0  0  0  0  0  0  0  0  0
   -3.0632    0.6371    4.0510 H   0  0  0  0  0  0  0  0  0  0  0  0
   -2.6194    1.8977    2.8785 H   0  0  0  0  0  0  0  0  0  0  0  0
   -4.3231    1.4491    3.0951 H   0  0  0  0  0  0  0  0  0  0  0  0
   -0.7536    0.1976    1.2136 N   0  0  0  0  0  0  0  0  0  0  0  0
    0.5217   -0.3716    0.7305 C   0  0  2  0  0  0  0  0  0  0  0  0
    0.3719   -1.5457   -0.2717 C   0  0  0  0  0  0  0  0  0  0  0  0
   -0.7281   -1.9574   -0.6225 O   0  0  0  0  0  0  0  0  0  0  0  0
    1.4449   -0.7509    1.8998 C   0  0  0  0  0  0  0  0  0  0  0  0
   -1.1285    0.9786    0.6836 H   0  0  0  0  0  0  0  0  0  0  0  0
    1.0259    0.4268    0.1783 H   0  0  0  0  0  0  0  0  0  0  0  0
    1.0955   -1.6577    2.4022 H   0  0  0  0  0  0  0  0  0  0  0  0
    2.4615   -0.9354    1.5402 H   0  0  0  0  0  0  0  0  0  0  0  0
    1.4808    0.0606    2.6329 H   0  0  0  0  0  0  0  0  0  0  0  0
    1.4685   -1.9424   -1.0141 N   0  0  0  0  0  0  0  0  0  0  0  0
    1.4585   -3.0647   -1.9611 C   0  0  2  0  0  0  0  0  0  0  0  0
    2.8073   -3.8137   -1.9491 C   0  0  0  0  0  0  0  0  0  0  0  0
    3.7889   -3.2997   -1.4225 O   0  0  0  0  0  0  0  0  0  0  0  0
    1.1553   -2.5189   -3.3597 C   0  0  0  0  0  0  0  0  0  0  0  0
    2.3858   -1.6574   -0.6719 H   0  0  0  0  0  0  0  0  0  0  0  0
    0.6821   -3.7836   -1.6771 H   0  0  0  0  0  0  0  0  0  0  0  0
    1.9281   -1.8081   -3.6696 H   0  0  0  0  0  0  0  0  0  0  0  0
    1.1161   -3.3328   -4.0898 H   0  0  0  0  0  0  0  0  0  0  0  0
    0.1880   -2.0061   -3.3646 H   0  0  0  0  0  0  0  0  0  0  0  0
    2.9195   -5.0710   -2.5129 N   0  0  0  0  0  0  0  0  0  0  0  0
    4.1550   -5.8453   -2.5052 C   0  0  0  0  0  0  0  0  0  0  0  0
    2.0815   -5.4846   -2.9114 H   0  0  0  0  0  0  0  0  0  0  0  0
    4.9426   -5.3156   -3.0516 H   0  0  0  0  0  0  0  0  0  0  0  0
    4.4938   -6.0179   -1.4781 H   0  0  0  0  0  0  0  0  0  0  0  0
    3.9956   -6.8168   -2.9831 H   0  0  0  0  0  0  0  0  0  0  0  0
  1  2  2  0  0  0  0
  1  3  1  0  0  0  0
  1  7  1  0  0  0  0
  3  4  1  0  0  0  0
  3  5  1  0  0  0  0
  3  6  1  0  0  0  0
  7  8  1  0  0  0  0
  7 12  1  0  0  0  0
  8  9  1  0  0  0  0
  8 11  1  0  0  0  0
  8 13  1  0  0  0  0
  9 10  2  0  0  0  0
  9 17  1  0  0  0  0
 11 14  1  0  0  0  0
 11 15  1  0  0  0  0
 11 16  1  0  0  0  0
 17 18  1  0  0  0  0
 17 22  1  0  0  0  0
 18 19  1  0  0  0  0
 18 21  1  0  0  0  0
 18 23  1  0  0  0  0
 19 20  2  0  0  0  0
 19 27  1  0  0  0  0
 21 24  1  0  0  0  0
 21 25  1  0  0  0  0
 21 26  1  0  0  0  0
 27 28  1  0  0  0  0
 27 32  1  0  0  0  0
 28 29  1  0  0  0  0
 28 31  1  0  0  0  0
 28 33  1  0  0  0  0
 29 30  2  0  0  0  0
 29 37  1  0  0  0  0
 31 34  1  0  0  0  0
 31 35  1  0  0  0  0
 31 36  1  0  0  0  0
 37 38  1  0  0  0  0
 37 39  1  0  0  0  0
 38 40  1  0  0  0  0
 38 41  1  0  0  0  0
 38 42  1  0  0  0  0
M  END
$$$$

  -OEChem-05262215353D

 42 41  0     1  0  0  0  0  0999 V2000
   -5.4825   -1.0628    1.8949 C   0  0  0  0  0  0  0  0  0  0  0  0
   -5.9596   -0.0711    1.3656 O   0  0  0  0  0  0  0  0  0  0  0  0
   -6.3370   -2.2982    2.1080 C   0  0  0  0  0  0  0  0  0  0  0  0
   -6.2916   -2.6087    3.1547 H   0  0  0  0  0  0  0  0  0  0  0  0
   -7.3779   -2.0868    1.8479 H   0  0  0  0  0  0  0  0  0  0  0  0
   -5.9743   -3.1134    1.4770 H   0  0  0  0  0  0  0  0  0  0  0  0
   -4.1607   -1.0719    2.2846 N   0  0  0  0  0  0  0  0  0  0  0  0
   -3.1871   -0.0306    1.9336 C   0  0  2  0  0  0  0  0  0  0  0  0
   -1.7594   -0.6096    1.8334 C   0  0  0  0  0  0  0  0  0  0  0  0
   -1.5315   -1.7233    2.2940 O   0  0  0  0  0  0  0  0  0  0  0  0
   -3.2481    1.0760    2.9909 C   0  0  0  0  0  0  0  0  0  0  0  0
   -3.7746   -1.9604    2.6036 H   0  0  0  0  0  0  0  0  0  0  0  0
   -3.4396    0.3888    0.9535 H   0  0  0  0  0  0  0  0  0  0  0  0
   -2.9971    0.6750    3.9778 H   0  0  0  0  0  0  0  0  0  0  0  0
   -2.5440    1.8778    2.7505 H   0  0  0  0  0  0  0  0  0  0  0  0
   -4.2546    1.5039    3.0344 H   0  0  0  0  0  0  0  0  0  0  0  0
   -0.7695    0.1169    1.1892 N   0  0  0  0  0  0  0  0  0  0  0  0
    0.5336   -0.4247    0.7513 C   0  0  2  0  0  0  0  0  0  0  0  0
    0.4222   -1.3115   -0.5120 C   0  0  0  0  0  0  0  0  0  0  0  0
   -0.6192   -1.3554   -1.1578 O   0  0  0  0  0  0  0  0  0  0  0  0
    1.3189   -1.1156    1.8793 C   0  0  0  0  0  0  0  0  0  0  0  0
   -1.1148    0.9245    0.6784 H   0  0  0  0  0  0  0  0  0  0  0  0
    1.1358    0.4380    0.4527 H   0  0  0  0  0  0  0  0  0  0  0  0
    0.9361   -2.1229    2.0690 H   0  0  0  0  0  0  0  0  0  0  0  0
    2.3757   -1.2023    1.6101 H   0  0  0  0  0  0  0  0  0  0  0  0
    1.2466   -0.5334    2.8029 H   0  0  0  0  0  0  0  0  0  0  0  0
    1.5523   -1.8974   -1.0500 N   0  0  0  0  0  0  0  0  0  0  0  0
    1.5340   -2.8311   -2.1827 C   0  0  2  0  0  0  0  0  0  0  0  0
    2.6244   -3.9119   -2.0303 C   0  0  0  0  0  0  0  0  0  0  0  0
    3.4999   -3.7847   -1.1802 O   0  0  0  0  0  0  0  0  0  0  0  0
    1.7397   -2.0326   -3.4729 C   0  0  0  0  0  0  0  0  0  0  0  0
    2.3758   -1.9434   -0.4502 H   0  0  0  0  0  0  0  0  0  0  0  0
    0.5680   -3.3461   -2.2245 H   0  0  0  0  0  0  0  0  0  0  0  0
    2.7059   -1.5186   -3.4543 H   0  0  0  0  0  0  0  0  0  0  0  0
    1.7122   -2.6942   -4.3435 H   0  0  0  0  0  0  0  0  0  0  0  0
    0.9489   -1.2843   -3.5846 H   0  0  0  0  0  0  0  0  0  0  0  0
    2.6203   -5.0329   -2.8396 N   0  0  0  0  0  0  0  0  0  0  0  0
    3.6004   -6.1061   -2.7254 C   0  0  0  0  0  0  0  0  0  0  0  0
    1.8603   -5.1286   -3.5071 H   0  0  0  0  0  0  0  0  0  0  0  0
    4.6170   -5.7103   -2.8225 H   0  0  0  0  0  0  0  0  0  0  0  0
    3.5083   -6.6070   -1.7561 H   0  0  0  0  0  0  0  0  0  0  0  0
    3.4429   -6.8474   -3.5147 H   0  0  0  0  0  0  0  0  0  0  0  0
  1  2  2  0  0  0  0
  1  3  1  0  0  0  0
  1  7  1  0  0  0  0
  3  4  1  0  0  0  0
  3  5  1  0  0  0  0
  3  6  1  0  0  0  0
  7  8  1  0  0  0  0
  7 12  1  0  0  0  0
  8  9  1  0  0  0  0
  8 11  1  0  0  0  0
  8 13  1  0  0  0  0
  9 10  2  0  0  0  0
  9 17  1  0  0  0  0
 11 14  1  0  0  0  0
 11 15  1  0  0  0  0
 11 16  1  0  0  0  0
 17 18  1  0  0  0  0
 17 22  1  0  0  0  0
 18 19  1  0  0  0  0
 18 21  1  0  0  0  0
 18 23  1  0  0  0  0
 19 20  2  0  0  0  0
 19 27  1  0  0  0  0
 21 24  1  0  0  0  0
 21 25  1  0  0  0  0
 21 26  1  0  0  0  0
 27 28  1  0  0  0  0
 27 32  1  0  0  0  0
 28 29  1  0  0  0  0
 28 31  1  0  0  0  0
 28 33  1  0  0  0  0
 29 30  2  0  0  0  0
 29 37  1  0  0  0  0
 31 34  1  0  0  0  0
 31 35  1  0  0  0  0
 31 36  1  0  0  0  0
 37 38  1  0  0  0  0
 37 39  1  0  0  0  0
 38 40  1  0  0  0  0
 38 41  1  0  0  0  0
 38 42  1  0  0  0  0
M  END
$$$$

  -OEChem-05262215353D

 42 41  0     1  0  0  0  0  0999 V2000
   -5.4827   -1.0353    1.8881 C   0  0  0  0  0  0  0  0  0  0  0  0
   -5.9435   -0.0356    1.3594 O   0  0  0  0  0  0  0  0  0  0  0  0
   -6.3565   -2.2578    2.0978 C   0  0  0  0  0  0  0  0  0  0  0  0
   -6.3648   -2.5345    3.1548 H   0  0  0  0  0  0  0  0  0  0  0  0
   -7.3817   -2.0485    1.7801 H   0  0  0  0  0  0  0  0  0  0  0  0
   -5.9705   -3.0955    1.5117 H   0  0  0  0  0  0  0  0  0  0  0  0
   -4.1624   -1.0634    2.2828 N   0  0  0  0  0  0  0  0  0  0  0  0
   -3.1765   -0.0300    1.9427 C   0  0  2  0  0  0  0  0  0  0  0  0
   -1.7597   -0.6261    1.8023 C   0  0  0  0  0  0  0  0  0  0  0  0
   -1.5390   -1.7562    2.2248 O   0  0  0  0  0  0  0  0  0  0  0  0
   -3.1994    1.0456    3.0328 C   0  0  0  0  0  0  0  0  0  0  0  0
   -3.7883   -1.9583    2.5981 H   0  0  0  0  0  0  0  0  0  0  0  0
   -3.4376    0.4231    0.9799 H   0  0  0  0  0  0  0  0  0  0  0  0
   -2.9384    0.6120    4.0035 H   0  0  0  0  0  0  0  0  0  0  0  0
   -2.4850    1.8415    2.8026 H   0  0  0  0  0  0  0  0  0  0  0  0
   -4.1974    1.4892    3.1063 H   0  0  0  0  0  0  0  0  0  0  0  0
   -0.7692    0.1033    1.1634 N   0  0  0  0  0  0  0  0  0  0  0  0
    0.5461   -0.4251    0.7503 C   0  0  2  0  0  0  0  0  0  0  0  0
    0.4507   -1.3263   -0.5037 C   0  0  0  0  0  0  0  0  0  0  0  0
   -0.4973   -1.2164   -1.2737 O   0  0  0  0  0  0  0  0  0  0  0  0
    1.3212   -1.0860    1.9050 C   0  0  0  0  0  0  0  0  0  0  0  0
   -1.1058    0.9203    0.6612 H   0  0  0  0  0  0  0  0  0  0  0  0
    1.1428    0.4392    0.4445 H   0  0  0  0  0  0  0  0  0  0  0  0
    0.9478   -2.0948    2.1070 H   0  0  0  0  0  0  0  0  0  0  0  0
    2.3839   -1.1630    1.6559 H   0  0  0  0  0  0  0  0  0  0  0  0
    1.2254   -0.4891    2.8172 H   0  0  0  0  0  0  0  0  0  0  0  0
    1.4992   -2.1529   -0.8597 N   0  0  0  0  0  0  0  0  0  0  0  0
    1.4402   -3.1336   -1.9497 C   0  0  2  0  0  0  0  0  0  0  0  0
    2.2844   -4.3815   -1.6180 C   0  0  0  0  0  0  0  0  0  0  0  0
    3.1024   -4.3438   -0.7044 O   0  0  0  0  0  0  0  0  0  0  0  0
    1.9434   -2.4667   -3.2330 C   0  0  0  0  0  0  0  0  0  0  0  0
    2.2168   -2.3150   -0.1533 H   0  0  0  0  0  0  0  0  0  0  0  0
    0.4060   -3.4649   -2.0940 H   0  0  0  0  0  0  0  0  0  0  0  0
    2.9776   -2.1301   -3.1082 H   0  0  0  0  0  0  0  0  0  0  0  0
    1.9032   -3.1672   -4.0725 H   0  0  0  0  0  0  0  0  0  0  0  0
    1.3214   -1.5999   -3.4781 H   0  0  0  0  0  0  0  0  0  0  0  0
    2.1207   -5.5520   -2.3351 N   0  0  0  0  0  0  0  0  0  0  0  0
    2.8622   -6.7741   -2.0491 C   0  0  0  0  0  0  0  0  0  0  0  0
    1.4130   -5.5632   -3.0640 H   0  0  0  0  0  0  0  0  0  0  0  0
    3.9386   -6.6033   -2.1560 H   0  0  0  0  0  0  0  0  0  0  0  0
    2.6589   -7.1152   -1.0284 H   0  0  0  0  0  0  0  0  0  0  0  0
    2.5680   -7.5669   -2.7434 H   0  0  0  0  0  0  0  0  0  0  0  0
  1  2  2  0  0  0  0
  1  3  1  0  0  0  0
  1  7  1  0  0  0  0
  3  4  1  0  0  0  0
  3  5  1  0  0  0  0
  3  6  1  0  0  0  0
  7  8  1  0  0  0  0
  7 12  1  0  0  0  0
  8  9  1  0  0  0  0
  8 11  1  0  0  0  0
  8 13  1  0  0  0  0
  9 10  2  0  0  0  0
  9 17  1  0  0  0  0
 11 14  1  0  0  0  0
 11 15  1  0  0  0  0
 11 16  1  0  0  0  0
 17 18  1  0  0  0  0
 17 22  1  0  0  0  0
 18 19  1  0  0  0  0
 18 21  1  0  0  0  0
 18 23  1  0  0  0  0
 19 20  2  0  0  0  0
 19 27  1  0  0  0  0
 21 24  1  0  0  0  0
 21 25  1  0  0  0  0
 21 26  1  0  0  0  0
 27 28  1  0  0  0  0
 27 32  1  0  0  0  0
 28 29  1  0  0  0  0
 28 31  1  0  0  0  0
 28 33  1  0  0  0  0
 29 30  2  0  0  0  0
 29 37  1  0  0  0  0
 31 34  1  0  0  0  0
 31 35  1  0  0  0  0
 31 36  1  0  0  0  0
 37 38  1  0  0  0  0
 37 39  1  0  0  0  0
 38 40  1  0  0  0  0
 38 41  1  0  0  0  0
 38 42  1  0  0  0  0
M  END
$$$$

  -OEChem-05262215353D

 42 41  0     1  0  0  0  0  0999 V2000
   -5.4972   -1.0111    1.9013 C   0  0  0  0  0  0  0  0  0  0  0  0
   -5.9492   -0.0120    1.3642 O   0  0  0  0  0  0  0  0  0  0  0  0
   -6.3923   -2.2087    2.1599 C   0  0  0  0  0  0  0  0  0  0  0  0
   -6.4288   -2.4225    3.2308 H   0  0  0  0  0  0  0  0  0  0  0  0
   -7.4069   -2.0055    1.8060 H   0  0  0  0  0  0  0  0  0  0  0  0
   -6.0050   -3.0845    1.6337 H   0  0  0  0  0  0  0  0  0  0  0  0
   -4.1702   -1.0567    2.2715 N   0  0  0  0  0  0  0  0  0  0  0  0
   -3.1749   -0.0353    1.9220 C   0  0  2  0  0  0  0  0  0  0  0  0
   -1.7629   -0.6443    1.7835 C   0  0  0  0  0  0  0  0  0  0  0  0
   -1.5526   -1.7807    2.1937 O   0  0  0  0  0  0  0  0  0  0  0  0
   -3.1897    1.0490    3.0041 C   0  0  0  0  0  0  0  0  0  0  0  0
   -3.8066   -1.9501    2.6021 H   0  0  0  0  0  0  0  0  0  0  0  0
   -3.4329    0.4132    0.9564 H   0  0  0  0  0  0  0  0  0  0  0  0
   -2.9377    0.6194    3.9790 H   0  0  0  0  0  0  0  0  0  0  0  0
   -2.4660    1.8357    2.7714 H   0  0  0  0  0  0  0  0  0  0  0  0
   -4.1828    1.5046    3.0702 H   0  0  0  0  0  0  0  0  0  0  0  0
   -0.7642    0.0787    1.1515 N   0  0  0  0  0  0  0  0  0  0  0  0
    0.5632   -0.4423    0.7694 C   0  0  2  0  0  0  0  0  0  0  0  0
    0.4869   -1.3617   -0.4730 C   0  0  0  0  0  0  0  0  0  0  0  0
   -0.3248   -1.1170   -1.3589 O   0  0  0  0  0  0  0  0  0  0  0  0
    1.3255   -1.0668    1.9530 C   0  0  0  0  0  0  0  0  0  0  0  0
   -1.0888    0.9017    0.6510 H   0  0  0  0  0  0  0  0  0  0  0  0
    1.1569    0.4214    0.4550 H   0  0  0  0  0  0  0  0  0  0  0  0
    0.9394   -2.0604    2.1993 H   0  0  0  0  0  0  0  0  0  0  0  0
    2.3874   -1.1670    1.7091 H   0  0  0  0  0  0  0  0  0  0  0  0
    1.2358   -0.4303    2.8385 H   0  0  0  0  0  0  0  0  0  0  0  0
    1.3782   -2.4020   -0.6577 N   0  0  0  0  0  0  0  0  0  0  0  0
    1.2645   -3.4048   -1.7234 C   0  0  2  0  0  0  0  0  0  0  0  0
    1.7959   -4.7755   -1.2555 C   0  0  0  0  0  0  0  0  0  0  0  0
    2.5091   -4.8512   -0.2603 O   0  0  0  0  0  0  0  0  0  0  0  0
    2.0465   -2.9136   -2.9452 C   0  0  0  0  0  0  0  0  0  0  0  0
    1.9514   -2.6644    0.1442 H   0  0  0  0  0  0  0  0  0  0  0  0
    0.2115   -3.5360   -1.9951 H   0  0  0  0  0  0  0  0  0  0  0  0
    3.1029   -2.7768   -2.6930 H   0  0  0  0  0  0  0  0  0  0  0  0
    1.9739   -3.6354   -3.7641 H   0  0  0  0  0  0  0  0  0  0  0  0
    1.6435   -1.9572   -3.2927 H   0  0  0  0  0  0  0  0  0  0  0  0
    1.4695   -5.9279   -1.9462 N   0  0  0  0  0  0  0  0  0  0  0  0
    1.9213   -7.2552   -1.5460 C   0  0  0  0  0  0  0  0  0  0  0  0
    0.8532   -5.8376   -2.7488 H   0  0  0  0  0  0  0  0  0  0  0  0
    3.0138   -7.3168   -1.5893 H   0  0  0  0  0  0  0  0  0  0  0  0
    1.5961   -7.4802   -0.5245 H   0  0  0  0  0  0  0  0  0  0  0  0
    1.5054   -8.0145   -2.2155 H   0  0  0  0  0  0  0  0  0  0  0  0
  1  2  2  0  0  0  0
  1  3  1  0  0  0  0
  1  7  1  0  0  0  0
  3  4  1  0  0  0  0
  3  5  1  0  0  0  0
  3  6  1  0  0  0  0
  7  8  1  0  0  0  0
  7 12  1  0  0  0  0
  8  9  1  0  0  0  0
  8 11  1  0  0  0  0
  8 13  1  0  0  0  0
  9 10  2  0  0  0  0
  9 17  1  0  0  0  0
 11 14  1  0  0  0  0
 11 15  1  0  0  0  0
 11 16  1  0  0  0  0
 17 18  1  0  0  0  0
 17 22  1  0  0  0  0
 18 19  1  0  0  0  0
 18 21  1  0  0  0  0
 18 23  1  0  0  0  0
 19 20  2  0  0  0  0
 19 27  1  0  0  0  0
 21 24  1  0  0  0  0
 21 25  1  0  0  0  0
 21 26  1  0  0  0  0
 27 28  1  0  0  0  0
 27 32  1  0  0  0  0
 28 29  1  0  0  0  0
 28 31  1  0  0  0  0
 28 33  1  0  0  0  0
 29 30  2  0  0  0  0
 29 37  1  0  0  0  0
 31 34  1  0  0  0  0
 31 35  1  0  0  0  0
 31 36  1  0  0  0  0
 37 38  1  0  0  0  0
 37 39  1  0  0  0  0
 38 40  1  0  0  0  0
 38 41  1  0  0  0  0
 38 42  1  0  0  0  0
M  END
$$$$

  -OEChem-05262215353D

 42 41  0     1  0  0  0  0  0999 V2000
   -5.4987   -0.9809    1.9235 C   0  0  0  0  0  0  0  0  0  0  0  0
   -5.9460    0.0115    1.3705 O   0  0  0  0  0  0  0  0  0  0  0  0
   -6.3962   -2.1753    2.1876 C   0  0  0  0  0  0  0  0  0  0  0  0
   -6.3914   -2.4175    3.2531 H   0  0  0  0  0  0  0  0  0  0  0  0
   -7.4219   -1.9508    1.8820 H   0  0  0  0  0  0  0  0  0  0  0  0
   -6.0411   -3.0405    1.6224 H   0  0  0  0  0  0  0  0  0  0  0  0
   -4.1730   -1.0252    2.2981 N   0  0  0  0  0  0  0  0  0  0  0  0
   -3.1721   -0.0194    1.9198 C   0  0  2  0  0  0  0  0  0  0  0  0
   -1.7669   -0.6441    1.7818 C   0  0  0  0  0  0  0  0  0  0  0  0
   -1.5733   -1.7882    2.1778 O   0  0  0  0  0  0  0  0  0  0  0  0
   -3.1674    1.0886    2.9776 C   0  0  0  0  0  0  0  0  0  0  0  0
   -3.8129   -1.9182    2.6341 H   0  0  0  0  0  0  0  0  0  0  0  0
   -3.4352    0.4104    0.9470 H   0  0  0  0  0  0  0  0  0  0  0  0
   -2.9053    0.6794    3.9584 H   0  0  0  0  0  0  0  0  0  0  0  0
   -2.4421    1.8656    2.7181 H   0  0  0  0  0  0  0  0  0  0  0  0
   -4.1571    1.5513    3.0463 H   0  0  0  0  0  0  0  0  0  0  0  0
   -0.7574    0.0623    1.1486 N   0  0  0  0  0  0  0  0  0  0  0  0
    0.5717   -0.4709    0.7931 C   0  0  2  0  0  0  0  0  0  0  0  0
    0.4943   -1.4114   -0.4316 C   0  0  0  0  0  0  0  0  0  0  0  0
   -0.1376   -1.0532   -1.4191 O   0  0  0  0  0  0  0  0  0  0  0  0
    1.3243   -1.0656    1.9984 C   0  0  0  0  0  0  0  0  0  0  0  0
   -1.0576    0.9035    0.6630 H   0  0  0  0  0  0  0  0  0  0  0  0
    1.1723    0.3819    0.4626 H   0  0  0  0  0  0  0  0  0  0  0  0
    0.9070   -2.0310    2.2993 H   0  0  0  0  0  0  0  0  0  0  0  0
    2.3789   -1.2158    1.7473 H   0  0  0  0  0  0  0  0  0  0  0  0
    1.2683   -0.3829    2.8519 H   0  0  0  0  0  0  0  0  0  0  0  0
    1.1525   -2.6264   -0.4621 N   0  0  0  0  0  0  0  0  0  0  0  0
    0.9775   -3.6321   -1.5171 C   0  0  2  0  0  0  0  0  0  0  0  0
    1.1782   -5.0611   -0.9700 C   0  0  0  0  0  0  0  0  0  0  0  0
    1.7374   -5.2351    0.1077 O   0  0  0  0  0  0  0  0  0  0  0  0
    1.9779   -3.3433   -2.6404 C   0  0  0  0  0  0  0  0  0  0  0  0
    1.5271   -2.9656    0.4242 H   0  0  0  0  0  0  0  0  0  0  0  0
   -0.0415   -3.5730   -1.9144 H   0  0  0  0  0  0  0  0  0  0  0  0
    3.0036   -3.4016   -2.2626 H   0  0  0  0  0  0  0  0  0  0  0  0
    1.8631   -4.0676   -3.4521 H   0  0  0  0  0  0  0  0  0  0  0  0
    1.8128   -2.3408   -3.0477 H   0  0  0  0  0  0  0  0  0  0  0  0
    0.7255   -6.1566   -1.6827 N   0  0  0  0  0  0  0  0  0  0  0  0
    0.8530   -7.5290   -1.2066 C   0  0  0  0  0  0  0  0  0  0  0  0
    0.2400   -5.9817   -2.5577 H   0  0  0  0  0  0  0  0  0  0  0  0
    1.9077   -7.7930   -1.0751 H   0  0  0  0  0  0  0  0  0  0  0  0
    0.3365   -7.6517   -0.2486 H   0  0  0  0  0  0  0  0  0  0  0  0
    0.4112   -8.2231   -1.9280 H   0  0  0  0  0  0  0  0  0  0  0  0
  1  2  2  0  0  0  0
  1  3  1  0  0  0  0
  1  7  1  0  0  0  0
  3  4  1  0  0  0  0
  3  5  1  0  0  0  0
  3  6  1  0  0  0  0
  7  8  1  0  0  0  0
  7 12  1  0  0  0  0
  8  9  1  0  0  0  0
  8 11  1  0  0  0  0
  8 13  1  0  0  0  0
  9 10  2  0  0  0  0
  9 17  1  0  0  0  0
 11 14  1  0  0  0  0
 11 15  1  0  0  0  0
 11 16  1  0  0  0  0
 17 18  1  0  0  0  0
 17 22  1  0  0  0  0
 18 19  1  0  0  0  0
 18 21  1  0  0  0  0
 18 23  1  0  0  0  0
 19 20  2  0  0  0  0
 19 27  1  0  0  0  0
 21 24  1  0  0  0  0
 21 25  1  0  0  0  0
 21 26  1  0  0  0  0
 27 28  1  0  0  0  0
 27 32  1  0  0  0  0
 28 29  1  0  0  0  0
 28 31  1  0  0  0  0
 28 33  1  0  0  0  0
 29 30  2  0  0  0  0
 29 37  1  0  0  0  0
 31 34  1  0  0  0  0
 31 35  1  0  0  0  0
 31 36  1  0  0  0  0
 37 38  1  0  0  0  0
 37 39  1  0  0  0  0
 38 40  1  0  0  0  0
 38 41  1  0  0  0  0
 38 42  1  0  0  0  0
M  END
$$$$

  -OEChem-05262215353D

 42 41  0     1  0  0  0  0  0999 V2000
   -5.4987   -0.9373    1.9228 C   0  0  0  0  0  0  0  0  0  0  0  0
   -5.9298    0.0718    1.3874 O   0  0  0  0  0  0  0  0  0  0  0  0
   -6.4143   -2.1226    2.1634 C   0  0  0  0  0  0  0  0  0  0  0  0
   -6.4153   -2.3841    3.2242 H   0  0  0  0  0  0  0  0  0  0  0  0
   -7.4361   -1.8779    1.8601 H   0  0  0  0  0  0  0  0  0  0  0  0
   -6.0709   -2.9829    1.5837 H   0  0  0  0  0  0  0  0  0  0  0  0
   -4.1744   -1.0089    2.2984 N   0  0  0  0  0  0  0  0  0  0  0  0
   -3.1605   -0.0046    1.9535 C   0  0  2  0  0  0  0  0  0  0  0  0
   -1.7660   -0.6458    1.7860 C   0  0  0  0  0  0  0  0  0  0  0  0
   -1.5792   -1.7956    2.1683 O   0  0  0  0  0  0  0  0  0  0  0  0
   -3.1394    1.0626    3.0522 C   0  0  0  0  0  0  0  0  0  0  0  0
   -3.8283   -1.9117    2.6229 H   0  0  0  0  0  0  0  0  0  0  0  0
   -3.4199    0.4656    0.9987 H   0  0  0  0  0  0  0  0  0  0  0  0
   -2.8837    0.6137    4.0174 H   0  0  0  0  0  0  0  0  0  0  0  0
   -2.4034    1.8383    2.8212 H   0  0  0  0  0  0  0  0  0  0  0  0
   -4.1226    1.5366    3.1382 H   0  0  0  0  0  0  0  0  0  0  0  0
   -0.7597    0.0461    1.1327 N   0  0  0  0  0  0  0  0  0  0  0  0
    0.5678   -0.4917    0.7800 C   0  0  2  0  0  0  0  0  0  0  0  0
    0.4814   -1.4561   -0.4240 C   0  0  0  0  0  0  0  0  0  0  0  0
    0.0474   -1.0345   -1.4896 O   0  0  0  0  0  0  0  0  0  0  0  0
    1.3311   -1.0593    1.9915 C   0  0  0  0  0  0  0  0  0  0  0  0
   -1.0461    0.9061    0.6722 H   0  0  0  0  0  0  0  0  0  0  0  0
    1.1646    0.3548    0.4267 H   0  0  0  0  0  0  0  0  0  0  0  0
    0.8934   -1.9960    2.3470 H   0  0  0  0  0  0  0  0  0  0  0  0
    2.3731   -1.2550    1.7200 H   0  0  0  0  0  0  0  0  0  0  0  0
    1.3193   -0.3386    2.8148 H   0  0  0  0  0  0  0  0  0  0  0  0
    0.8726   -2.7785   -0.3319 N   0  0  0  0  0  0  0  0  0  0  0  0
    0.6379   -3.7832   -1.3758 C   0  0  2  0  0  0  0  0  0  0  0  0
    0.4864   -5.1959   -0.7740 C   0  0  0  0  0  0  0  0  0  0  0  0
    0.8827   -5.4290    0.3627 O   0  0  0  0  0  0  0  0  0  0  0  0
    1.8052   -3.7462   -2.3677 C   0  0  0  0  0  0  0  0  0  0  0  0
    1.0459   -3.1377    0.6076 H   0  0  0  0  0  0  0  0  0  0  0  0
   -0.2928   -3.5510   -1.9041 H   0  0  0  0  0  0  0  0  0  0  0  0
    2.7472   -3.9746   -1.8586 H   0  0  0  0  0  0  0  0  0  0  0  0
    1.6543   -4.4780   -3.1672 H   0  0  0  0  0  0  0  0  0  0  0  0
    1.8857   -2.7532   -2.8214 H   0  0  0  0  0  0  0  0  0  0  0  0
   -0.1019   -6.2101   -1.5075 N   0  0  0  0  0  0  0  0  0  0  0  0
   -0.3146   -7.5551   -0.9865 C   0  0  0  0  0  0  0  0  0  0  0  0
   -0.4580   -5.9773   -2.4298 H   0  0  0  0  0  0  0  0  0  0  0  0
    0.6364   -8.0037   -0.6807 H   0  0  0  0  0  0  0  0  0  0  0  0
   -0.9860   -7.5291   -0.1217 H   0  0  0  0  0  0  0  0  0  0  0  0
   -0.7639   -8.1918   -1.7547 H   0  0  0  0  0  0  0  0  0  0  0  0
  1  2  2  0  0  0  0
  1  3  1  0  0  0  0
  1  7  1  0  0  0  0
  3  4  1  0  0  0  0
  3  5  1  0  0  0  0
  3  6  1  0  0  0  0
  7  8  1  0  0  0  0
  7 12  1  0  0  0  0
  8  9  1  0  0  0  0
  8 11  1  0  0  0  0
  8 13  1  0  0  0  0
  9 10  2  0  0  0  0
  9 17  1  0  0  0  0
 11 14  1  0  0  0  0
 11 15  1  0  0  0  0
 11 16  1  0  0  0  0
 17 18  1  0  0  0  0
 17 22  1  0  0  0  0
 18 19  1  0  0  0  0
 18 21  1  0  0  0  0
 18 23  1  0  0  0  0
 19 20  2  0  0  0  0
 19 27  1  0  0  0  0
 21 24  1  0  0  0  0
 21 25  1  0  0  0  0
 21 26  1  0  0  0  0
 27 28  1  0  0  0  0
 27 32  1  0  0  0  0
 28 29  1  0  0  0  0
 28 31  1  0  0  0  0
 28 33  1  0  0  0  0
 29 30  2  0  0  0  0
 29 37  1  0  0  0  0
 31 34  1  0  0  0  0
 31 35  1  0  0  0  0
 31 36  1  0  0  0  0
 37 38  1  0  0  0  0
 37 39  1  0  0  0  0
 38 40  1  0  0  0  0
 38 41  1  0  0  0  0
 38 42  1  0  0  0  0
M  END
$$$$

  -OEChem-05262215353D

 42 41  0     1  0  0  0  0  0999 V2000
   -5.5264   -0.8845    2.0050 C   0  0  0  0  0  0  0  0  0  0  0  0
   -5.9531    0.1131    1.4449 O   0  0  0  0  0  0  0  0  0  0  0  0
   -6.4532   -2.0491    2.2994 C   0  0  0  0  0  0  0  0  0  0  0  0
   -6.5125   -2.2149    3.3778 H   0  0  0  0  0  0  0  0  0  0  0  0
   -7.4566   -1.8387    1.9184 H   0  0  0  0  0  0  0  0  0  0  0  0
   -6.0771   -2.9558    1.8193 H   0  0  0  0  0  0  0  0  0  0  0  0
   -4.1972   -0.9609    2.3625 N   0  0  0  0  0  0  0  0  0  0  0  0
   -3.1764    0.0175    1.9668 C   0  0  2  0  0  0  0  0  0  0  0  0
   -1.8013   -0.6534    1.7646 C   0  0  0  0  0  0  0  0  0  0  0  0
   -1.6330   -1.8141    2.1212 O   0  0  0  0  0  0  0  0  0  0  0  0
   -3.0991    1.1010    3.0469 C   0  0  0  0  0  0  0  0  0  0  0  0
   -3.8560   -1.8623    2.6963 H   0  0  0  0  0  0  0  0  0  0  0  0
   -3.4573    0.4778    1.0132 H   0  0  0  0  0  0  0  0  0  0  0  0
   -2.8150    0.6624    4.0090 H   0  0  0  0  0  0  0  0  0  0  0  0
   -2.3606    1.8621    2.7778 H   0  0  0  0  0  0  0  0  0  0  0  0
   -4.0714    1.5916    3.1605 H   0  0  0  0  0  0  0  0  0  0  0  0
   -0.7882    0.0225    1.1063 N   0  0  0  0  0  0  0  0  0  0  0  0
    0.5357   -0.5311    0.7700 C   0  0  2  0  0  0  0  0  0  0  0  0
    0.4461   -1.5123   -0.4182 C   0  0  0  0  0  0  0  0  0  0  0  0
    0.2880   -1.0628   -1.5467 O   0  0  0  0  0  0  0  0  0  0  0  0
    1.2909   -1.0901    1.9899 C   0  0  0  0  0  0  0  0  0  0  0  0
   -1.0437    0.9128    0.6873 H   0  0  0  0  0  0  0  0  0  0  0  0
    1.1418    0.3052    0.4081 H   0  0  0  0  0  0  0  0  0  0  0  0
    0.8356   -2.0087    2.3695 H   0  0  0  0  0  0  0  0  0  0  0  0
    2.3261   -1.3152    1.7158 H   0  0  0  0  0  0  0  0  0  0  0  0
    1.3006   -0.3518    2.7972 H   0  0  0  0  0  0  0  0  0  0  0  0
    0.5275   -2.8800   -0.2384 N   0  0  0  0  0  0  0  0  0  0  0  0
    0.2894   -3.8661   -1.2998 C   0  0  2  0  0  0  0  0  0  0  0  0
   -0.2539   -5.1951   -0.7342 C   0  0  0  0  0  0  0  0  0  0  0  0
   -0.1096   -5.4695    0.4517 O   0  0  0  0  0  0  0  0  0  0  0  0
    1.6052   -4.1044   -2.0474 C   0  0  0  0  0  0  0  0  0  0  0  0
    0.4317   -3.2146    0.7224 H   0  0  0  0  0  0  0  0  0  0  0  0
   -0.4603   -3.4781   -1.9975 H   0  0  0  0  0  0  0  0  0  0  0  0
    2.3678   -4.4890   -1.3624 H   0  0  0  0  0  0  0  0  0  0  0  0
    1.4643   -4.8289   -2.8552 H   0  0  0  0  0  0  0  0  0  0  0  0
    1.9685   -3.1687   -2.4841 H   0  0  0  0  0  0  0  0  0  0  0  0
   -0.9084   -6.0912   -1.5600 N   0  0  0  0  0  0  0  0  0  0  0  0
   -1.4654   -7.3536   -1.0884 C   0  0  0  0  0  0  0  0  0  0  0  0
   -1.0295   -5.8315   -2.5346 H   0  0  0  0  0  0  0  0  0  0  0  0
   -0.6709   -8.0048   -0.7093 H   0  0  0  0  0  0  0  0  0  0  0  0
   -2.1893   -7.1778   -0.2857 H   0  0  0  0  0  0  0  0  0  0  0  0
   -1.9764   -7.8708   -1.9060 H   0  0  0  0  0  0  0  0  0  0  0  0
  1  2  2  0  0  0  0
  1  3  1  0  0  0  0
  1  7  1  0  0  0  0
  3  4  1  0  0  0  0
  3  5  1  0  0  0  0
  3  6  1  0  0  0  0
  7  8  1  0  0  0  0
  7 12  1  0  0  0  0
  8  9  1  0  0  0  0
  8 11  1  0  0  0  0
  8 13  1  0  0  0  0
  9 10  2  0  0  0  0
  9 17  1  0  0  0  0
 11 14  1  0  0  0  0
 11 15  1  0  0  0  0
 11 16  1  0  0  0  0
 17 18  1  0  0  0  0
 17 22  1  0  0  0  0
 18 19  1  0  0  0  0
 18 21  1  0  0  0  0
 18 23  1  0  0  0  0
 19 20  2  0  0  0  0
 19 27  1  0  0  0  0
 21 24  1  0  0  0  0
 21 25  1  0  0  0  0
 21 26  1  0  0  0  0
 27 28  1  0  0  0  0
 27 32  1  0  0  0  0
 28 29  1  0  0  0  0
 28 31  1  0  0  0  0
 28 33  1  0  0  0  0
 29 30  2  0  0  0  0
 29 37  1  0  0  0  0
 31 34  1  0  0  0  0
 31 35  1  0  0  0  0
 31 36  1  0  0  0  0
 37 38  1  0  0  0  0
 37 39  1  0  0  0  0
 38 40  1  0  0  0  0
 38 41  1  0  0  0  0
 38 42  1  0  0  0  0
M  END
$$$$

  -OEChem-05262215353D

 42 41  0     1  0  0  0  0  0999 V2000
   -5.4097   -0.9585    1.8840 C   0  0  0  0  0  0  0  0  0  0  0  0
   -5.8320    0.0516    1.3432 O   0  0  0  0  0  0  0  0  0  0  0  0
   -6.2865   -2.1928    1.9830 C   0  0  0  0  0  0  0  0  0  0  0  0
   -6.4173   -2.4757    3.0302 H   0  0  0  0  0  0  0  0  0  0  0  0
   -7.2691   -1.9938    1.5462 H   0  0  0  0  0  0  0  0  0  0  0  0
   -5.8232   -3.0232    1.4440 H   0  0  0  0  0  0  0  0  0  0  0  0
   -4.1256   -0.9909    2.3847 N   0  0  0  0  0  0  0  0  0  0  0  0
   -3.1131    0.0412    2.1252 C   0  0  2  0  0  0  0  0  0  0  0  0
   -1.7391   -0.5961    1.8316 C   0  0  0  0  0  0  0  0  0  0  0  0
   -1.5180   -1.7478    2.1881 O   0  0  0  0  0  0  0  0  0  0  0  0
   -3.0368    0.9599    3.3467 C   0  0  0  0  0  0  0  0  0  0  0  0
   -3.7732   -1.9019    2.6796 H   0  0  0  0  0  0  0  0  0  0  0  0
   -3.3952    0.6332    1.2480 H   0  0  0  0  0  0  0  0  0  0  0  0
   -2.7467    0.3913    4.2362 H   0  0  0  0  0  0  0  0  0  0  0  0
   -2.3023    1.7545    3.1847 H   0  0  0  0  0  0  0  0  0  0  0  0
   -4.0113    1.4232    3.5317 H   0  0  0  0  0  0  0  0  0  0  0  0
   -0.7923    0.0809    1.0814 N   0  0  0  0  0  0  0  0  0  0  0  0
    0.5131   -0.4672    0.6710 C   0  0  2  0  0  0  0  0  0  0  0  0
    0.3476   -1.4873   -0.4742 C   0  0  0  0  0  0  0  0  0  0  0  0
    0.4088   -1.1012   -1.6350 O   0  0  0  0  0  0  0  0  0  0  0  0
    1.3661   -0.9839    1.8437 C   0  0  0  0  0  0  0  0  0  0  0  0
   -1.0800    0.9713    0.6839 H   0  0  0  0  0  0  0  0  0  0  0  0
    1.0799    0.3650    0.2416 H   0  0  0  0  0  0  0  0  0  0  0  0
    0.9646   -1.9076    2.2688 H   0  0  0  0  0  0  0  0  0  0  0  0
    2.3851   -1.1877    1.5006 H   0  0  0  0  0  0  0  0  0  0  0  0
    1.4123   -0.2306    2.6357 H   0  0  0  0  0  0  0  0  0  0  0  0
    0.1517   -2.8287   -0.2069 N   0  0  0  0  0  0  0  0  0  0  0  0
   -0.1720   -3.8258   -1.2363 C   0  0  2  0  0  0  0  0  0  0  0  0
   -1.1427   -4.9092   -0.7205 C   0  0  0  0  0  0  0  0  0  0  0  0
   -1.3600   -5.0373    0.4784 O   0  0  0  0  0  0  0  0  0  0  0  0
    1.1353   -4.4633   -1.7146 C   0  0  0  0  0  0  0  0  0  0  0  0
   -0.1596   -3.0401    0.7466 H   0  0  0  0  0  0  0  0  0  0  0  0
   -0.6638   -3.3349   -2.0828 H   0  0  0  0  0  0  0  0  0  0  0  0
    1.6340   -4.9773   -0.8868 H   0  0  0  0  0  0  0  0  0  0  0  0
    0.9412   -5.1888   -2.5100 H   0  0  0  0  0  0  0  0  0  0  0  0
    1.8096   -3.6952   -2.1060 H   0  0  0  0  0  0  0  0  0  0  0  0
   -1.7814   -5.7517   -1.6123 N   0  0  0  0  0  0  0  0  0  0  0  0
   -2.7041   -6.8016   -1.1985 C   0  0  0  0  0  0  0  0  0  0  0  0
   -1.5902   -5.6230   -2.6016 H   0  0  0  0  0  0  0  0  0  0  0  0
   -2.1941   -7.5276   -0.5564 H   0  0  0  0  0  0  0  0  0  0  0  0
   -3.5474   -6.3740   -0.6462 H   0  0  0  0  0  0  0  0  0  0  0  0
   -3.0963   -7.3285   -2.0736 H   0  0  0  0  0  0  0  0  0  0  0  0
  1  2  2  0  0  0  0
  1  3  1  0  0  0  0
  1  7  1  0  0  0  0
  3  4  1  0  0  0  0
  3  5  1  0  0  0  0
  3  6  1  0  0  0  0
  7  8  1  0  0  0  0
  7 12  1  0  0  0  0
  8  9  1  0  0  0  0
  8 11  1  0  0  0  0
  8 13  1  0  0  0  0
  9 10  2  0  0  0  0
  9 17  1  0  0  0  0
 11 14  1  0  0  0  0
 11 15  1  0  0  0  0
 11 16  1  0  0  0  0
 17 18  1  0  0  0  0
 17 22  1  0  0  0  0
 18 19  1  0  0  0  0
 18 21  1  0  0  0  0
 18 23  1  0  0  0  0
 19 20  2  0  0  0  0
 19 27  1  0  0  0  0
 21 24  1  0  0  0  0
 21 25  1  0  0  0  0
 21 26  1  0  0  0  0
 27 28  1  0  0  0  0
 27 32  1  0  0  0  0
 28 29  1  0  0  0  0
 28 31  1  0  0  0  0
 28 33  1  0  0  0  0
 29 30  2  0  0  0  0
 29 37  1  0  0  0  0
 31 34  1  0  0  0  0
 31 35  1  0  0  0  0
 31 36  1  0  0  0  0
 37 38  1  0  0  0  0
 37 39  1  0  0  0  0
 38 40  1  0  0  0  0
 38 41  1  0  0  0  0
 38 42  1  0  0  0  0
M  END
$$$$

  -OEChem-05262215353D

 42 41  0     1  0  0  0  0  0999 V2000
   -4.3847   -0.7056    0.8439 C   0  0  0  0  0  0  0  0  0  0  0  0
   -4.2598    0.5071    0.7409 O   0  0  0  0  0  0  0  0  0  0  0  0
   -5.0683   -1.4948   -0.2552 C   0  0  0  0  0  0  0  0  0  0  0  0
   -5.7669   -2.2136    0.1794 H   0  0  0  0  0  0  0  0  0  0  0  0
   -5.6200   -0.8217   -0.9169 H   0  0  0  0  0  0  0  0  0  0  0  0
   -4.3201   -2.0332   -0.8424 H   0  0  0  0  0  0  0  0  0  0  0  0
   -3.7723   -1.3642    1.8891 N   0  0  0  0  0  0  0  0  0  0  0  0
   -2.8519   -0.7006    2.8263 C   0  0  2  0  0  0  0  0  0  0  0  0
   -1.4511   -0.5501    2.1885 C   0  0  0  0  0  0  0  0  0  0  0  0
   -0.5012   -1.2209    2.5799 O   0  0  0  0  0  0  0  0  0  0  0  0
   -2.8425   -1.5265    4.1181 C   0  0  0  0  0  0  0  0  0  0  0  0
   -3.6093   -2.3625    1.7188 H   0  0  0  0  0  0  0  0  0  0  0  0
   -3.2175    0.3024    3.0706 H   0  0  0  0  0  0  0  0  0  0  0  0
   -2.4965   -2.5467    3.9211 H   0  0  0  0  0  0  0  0  0  0  0  0
   -2.1756   -1.0698    4.8558 H   0  0  0  0  0  0  0  0  0  0  0  0
   -3.8491   -1.5761    4.5438 H   0  0  0  0  0  0  0  0  0  0  0  0
   -1.3669    0.1180    0.9781 N   0  0  0  0  0  0  0  0  0  0  0  0
   -0.2857   -0.0323   -0.0092 C   0  0  2  0  0  0  0  0  0  0  0  0
   -0.4628   -1.3785   -0.7370 C   0  0  0  0  0  0  0  0  0  0  0  0
   -0.9537   -1.4329   -1.8580 O   0  0  0  0  0  0  0  0  0  0  0  0
    1.1331    0.1906    0.5415 C   0  0  0  0  0  0  0  0  0  0  0  0
   -2.2577    0.5059    0.6515 H   0  0  0  0  0  0  0  0  0  0  0  0
   -0.4398    0.7468   -0.7630 H   0  0  0  0  0  0  0  0  0  0  0  0
    1.4635   -0.6399    1.1706 H   0  0  0  0  0  0  0  0  0  0  0  0
    1.8417    0.2848   -0.2869 H   0  0  0  0  0  0  0  0  0  0  0  0
    1.1671    1.1102    1.1331 H   0  0  0  0  0  0  0  0  0  0  0  0
   -0.1344   -2.5443   -0.0726 N   0  0  0  0  0  0  0  0  0  0  0  0
   -0.5602   -3.8659   -0.5472 C   0  0  2  0  0  0  0  0  0  0  0  0
   -2.0431   -4.1866   -0.2423 C   0  0  0  0  0  0  0  0  0  0  0  0
   -2.6188   -3.7135    0.7344 O   0  0  0  0  0  0  0  0  0  0  0  0
    0.3523   -4.9031    0.1108 C   0  0  0  0  0  0  0  0  0  0  0  0
   -0.0195   -2.4180    0.9377 H   0  0  0  0  0  0  0  0  0  0  0  0
   -0.4190   -3.9202   -1.6318 H   0  0  0  0  0  0  0  0  0  0  0  0
    0.2415   -4.8754    1.1999 H   0  0  0  0  0  0  0  0  0  0  0  0
    0.1026   -5.9095   -0.2387 H   0  0  0  0  0  0  0  0  0  0  0  0
    1.3987   -4.7003   -0.1382 H   0  0  0  0  0  0  0  0  0  0  0  0
   -2.7368   -5.0656   -1.0538 N   0  0  0  0  0  0  0  0  0  0  0  0
   -4.1282   -5.4419   -0.8339 C   0  0  0  0  0  0  0  0  0  0  0  0
   -2.2667   -5.3944   -1.8926 H   0  0  0  0  0  0  0  0  0  0  0  0
   -4.2684   -5.8206    0.1843 H   0  0  0  0  0  0  0  0  0  0  0  0
   -4.7866   -4.5805   -0.9841 H   0  0  0  0  0  0  0  0  0  0  0  0
   -4.4220   -6.2292   -1.5350 H   0  0  0  0  0  0  0  0  0  0  0  0
  1  2  2  0  0  0  0
  1  3  1  0  0  0  0
  1  7  1  0  0  0  0
  3  4  1  0  0  0  0
  3  5  1  0  0  0  0
  3  6  1  0  0  0  0
  7  8  1  0  0  0  0
  7 12  1  0  0  0  0
  8  9  1  0  0  0  0
  8 11  1  0  0  0  0
  8 13  1  0  0  0  0
  9 10  2  0  0  0  0
  9 17  1  0  0  0  0
 11 14  1  0  0  0  0
 11 15  1  0  0  0  0
 11 16  1  0  0  0  0
 17 18  1  0  0  0  0
 17 22  1  0  0  0  0
 18 19  1  0  0  0  0
 18 21  1  0  0  0  0
 18 23  1  0  0  0  0
 19 20  2  0  0  0  0
 19 27  1  0  0  0  0
 21 24  1  0  0  0  0
 21 25  1  0  0  0  0
 21 26  1  0  0  0  0
 27 28  1  0  0  0  0
 27 32  1  0  0  0  0
 28 29  1  0  0  0  0
 28 31  1  0  0  0  0
 28 33  1  0  0  0  0
 29 30  2  0  0  0  0
 29 37  1  0  0  0  0
 31 34  1  0  0  0  0
 31 35  1  0  0  0  0
 31 36  1  0  0  0  0
 37 38  1  0  0  0  0
 37 39  1  0  0  0  0
 38 40  1  0  0  0  0
 38 41  1  0  0  0  0
 38 42  1  0  0  0  0
M  END
$$$$

  -OEChem-05262215353D

 42 41  0     1  0  0  0  0  0999 V2000
   -4.5876   -0.7338    1.0553 C   0  0  0  0  0  0  0  0  0  0  0  0
   -4.3508    0.4502    0.8621 O   0  0  0  0  0  0  0  0  0  0  0  0
   -5.6548   -1.4352    0.2390 C   0  0  0  0  0  0  0  0  0  0  0  0
   -5.4789   -2.5130    0.2300 H   0  0  0  0  0  0  0  0  0  0  0  0
   -6.6379   -1.2442    0.6754 H   0  0  0  0  0  0  0  0  0  0  0  0
   -5.6428   -1.0646   -0.7891 H   0  0  0  0  0  0  0  0  0  0  0  0
   -3.8471   -1.4252    1.9897 N   0  0  0  0  0  0  0  0  0  0  0  0
   -2.8031   -0.8038    2.8217 C   0  0  2  0  0  0  0  0  0  0  0  0
   -1.4613   -0.6828    2.0623 C   0  0  0  0  0  0  0  0  0  0  0  0
   -0.4617   -1.2769    2.4525 O   0  0  0  0  0  0  0  0  0  0  0  0
   -2.6977   -1.6393    4.1037 C   0  0  0  0  0  0  0  0  0  0  0  0
   -3.8114   -2.4401    1.8545 H   0  0  0  0  0  0  0  0  0  0  0  0
   -3.1083    0.2088    3.1063 H   0  0  0  0  0  0  0  0  0  0  0  0
   -2.3951   -2.6653    3.8703 H   0  0  0  0  0  0  0  0  0  0  0  0
   -1.9566   -1.2047    4.7818 H   0  0  0  0  0  0  0  0  0  0  0  0
   -3.6624   -1.6687    4.6194 H   0  0  0  0  0  0  0  0  0  0  0  0
   -1.4666   -0.1139    0.7990 N   0  0  0  0  0  0  0  0  0  0  0  0
   -0.4005   -0.2122   -0.2178 C   0  0  2  0  0  0  0  0  0  0  0  0
   -0.4213   -1.6160   -0.8526 C   0  0  0  0  0  0  0  0  0  0  0  0
   -0.7576   -1.7860   -2.0193 O   0  0  0  0  0  0  0  0  0  0  0  0
    0.9936    0.1945    0.2842 C   0  0  0  0  0  0  0  0  0  0  0  0
   -2.3745    0.2638    0.5104 H   0  0  0  0  0  0  0  0  0  0  0  0
   -0.6564    0.4934   -1.0149 H   0  0  0  0  0  0  0  0  0  0  0  0
    1.4146   -0.5525    0.9625 H   0  0  0  0  0  0  0  0  0  0  0  0
    1.6767    0.3009   -0.5639 H   0  0  0  0  0  0  0  0  0  0  0  0
    0.9413    1.1529    0.8091 H   0  0  0  0  0  0  0  0  0  0  0  0
   -0.2307   -2.7100   -0.0309 N   0  0  0  0  0  0  0  0  0  0  0  0
   -0.7868   -4.0270   -0.3467 C   0  0  2  0  0  0  0  0  0  0  0  0
   -2.3273   -3.9897   -0.5005 C   0  0  0  0  0  0  0  0  0  0  0  0
   -3.0680   -3.8405    0.4706 O   0  0  0  0  0  0  0  0  0  0  0  0
   -0.3664   -4.9865    0.7702 C   0  0  0  0  0  0  0  0  0  0  0  0
   -0.1426   -2.4649    0.9607 H   0  0  0  0  0  0  0  0  0  0  0  0
   -0.3549   -4.3838   -1.2874 H   0  0  0  0  0  0  0  0  0  0  0  0
   -0.7593   -4.6514    1.7359 H   0  0  0  0  0  0  0  0  0  0  0  0
   -0.7480   -5.9924    0.5703 H   0  0  0  0  0  0  0  0  0  0  0  0
    0.7247   -5.0363    0.8374 H   0  0  0  0  0  0  0  0  0  0  0  0
   -2.8692   -4.0986   -1.7668 N   0  0  0  0  0  0  0  0  0  0  0  0
   -4.2908   -3.9693   -2.0563 C   0  0  0  0  0  0  0  0  0  0  0  0
   -2.2137   -3.9243   -2.5273 H   0  0  0  0  0  0  0  0  0  0  0  0
   -4.8933   -4.4933   -1.3067 H   0  0  0  0  0  0  0  0  0  0  0  0
   -4.5790   -2.9143   -2.0710 H   0  0  0  0  0  0  0  0  0  0  0  0
   -4.5156   -4.4048   -3.0347 H   0  0  0  0  0  0  0  0  0  0  0  0
  1  2  2  0  0  0  0
  1  3  1  0  0  0  0
  1  7  1  0  0  0  0
  3  4  1  0  0  0  0
  3  5  1  0  0  0  0
  3  6  1  0  0  0  0
  7  8  1  0  0  0  0
  7 12  1  0  0  0  0
  8  9  1  0  0  0  0
  8 11  1  0  0  0  0
  8 13  1  0  0  0  0
  9 10  2  0  0  0  0
  9 17  1  0  0  0  0
 11 14  1  0  0  0  0
 11 15  1  0  0  0  0
 11 16  1  0  0  0  0
 17 18  1  0  0  0  0
 17 22  1  0  0  0  0
 18 19  1  0  0  0  0
 18 21  1  0  0  0  0
 18 23  1  0  0  0  0
 19 20  2  0  0  0  0
 19 27  1  0  0  0  0
 21 24  1  0  0  0  0
 21 25  1  0  0  0  0
 21 26  1  0  0  0  0
 27 28  1  0  0  0  0
 27 32  1  0  0  0  0
 28 29  1  0  0  0  0
 28 31  1  0  0  0  0
 28 33  1  0  0  0  0
 29 30  2  0  0  0  0
 29 37  1  0  0  0  0
 31 34  1  0  0  0  0
 31 35  1  0  0  0  0
 31 36  1  0  0  0  0
 37 38  1  0  0  0  0
 37 39  1  0  0  0  0
 38 40  1  0  0  0  0
 38 41  1  0  0  0  0
 38 42  1  0  0  0  0
M  END
$$$$

  -OEChem-05262215353D

 42 41  0     1  0  0  0  0  0999 V2000
   -4.6315   -0.4289    1.0334 C   0  0  0  0  0  0  0  0  0  0  0  0
   -4.2958    0.7421    0.9269 O   0  0  0  0  0  0  0  0  0  0  0  0
   -5.7203   -0.9856    0.1369 C   0  0  0  0  0  0  0  0  0  0  0  0
   -5.6560   -2.0750    0.0897 H   0  0  0  0  0  0  0  0  0  0  0  0
   -6.7006   -0.7086    0.5323 H   0  0  0  0  0  0  0  0  0  0  0  0
   -5.6145   -0.5809   -0.8729 H   0  0  0  0  0  0  0  0  0  0  0  0
   -3.9713   -1.2395    1.9322 N   0  0  0  0  0  0  0  0  0  0  0  0
   -2.8959   -0.7634    2.8204 C   0  0  2  0  0  0  0  0  0  0  0  0
   -1.5323   -0.7003    2.0922 C   0  0  0  0  0  0  0  0  0  0  0  0
   -0.5793   -1.3712    2.4722 O   0  0  0  0  0  0  0  0  0  0  0  0
   -2.8823   -1.6859    4.0457 C   0  0  0  0  0  0  0  0  0  0  0  0
   -4.0135   -2.2413    1.7243 H   0  0  0  0  0  0  0  0  0  0  0  0
   -3.1255    0.2493    3.1686 H   0  0  0  0  0  0  0  0  0  0  0  0
   -2.6489   -2.7146    3.7516 H   0  0  0  0  0  0  0  0  0  0  0  0
   -2.1284   -1.3504    4.7651 H   0  0  0  0  0  0  0  0  0  0  0  0
   -3.8589   -1.6769    4.5395 H   0  0  0  0  0  0  0  0  0  0  0  0
   -1.4827   -0.0914    0.8504 N   0  0  0  0  0  0  0  0  0  0  0  0
   -0.3915   -0.1378   -0.1445 C   0  0  2  0  0  0  0  0  0  0  0  0
   -0.3580   -1.5056   -0.8583 C   0  0  0  0  0  0  0  0  0  0  0  0
   -0.4928   -1.5810   -2.0741 O   0  0  0  0  0  0  0  0  0  0  0  0
    0.9776    0.2384    0.4396 C   0  0  0  0  0  0  0  0  0  0  0  0
   -2.3526    0.3784    0.5818 H   0  0  0  0  0  0  0  0  0  0  0  0
   -0.6221    0.6108   -0.9096 H   0  0  0  0  0  0  0  0  0  0  0  0
    1.3635   -0.5481    1.0943 H   0  0  0  0  0  0  0  0  0  0  0  0
    1.6995    0.3882   -0.3691 H   0  0  0  0  0  0  0  0  0  0  0  0
    0.9030    1.1666    1.0143 H   0  0  0  0  0  0  0  0  0  0  0  0
   -0.4768   -2.6540   -0.1000 N   0  0  0  0  0  0  0  0  0  0  0  0
   -1.0930   -3.8803   -0.6048 C   0  0  2  0  0  0  0  0  0  0  0  0
   -2.6170   -3.7061   -0.7938 C   0  0  0  0  0  0  0  0  0  0  0  0
   -3.3642   -3.5431    0.1699 O   0  0  0  0  0  0  0  0  0  0  0  0
   -0.7777   -5.0055    0.3845 C   0  0  0  0  0  0  0  0  0  0  0  0
   -0.5076   -2.4863    0.9100 H   0  0  0  0  0  0  0  0  0  0  0  0
   -0.6489   -4.1420   -1.5710 H   0  0  0  0  0  0  0  0  0  0  0  0
   -1.1867   -4.7761    1.3740 H   0  0  0  0  0  0  0  0  0  0  0  0
   -1.2122   -5.9486    0.0391 H   0  0  0  0  0  0  0  0  0  0  0  0
    0.3050   -5.1361    0.4780 H   0  0  0  0  0  0  0  0  0  0  0  0
   -3.1410   -3.7124   -2.0724 N   0  0  0  0  0  0  0  0  0  0  0  0
   -4.5458   -3.4755   -2.3775 C   0  0  0  0  0  0  0  0  0  0  0  0
   -2.4630   -3.6171   -2.8262 H   0  0  0  0  0  0  0  0  0  0  0  0
   -5.1938   -4.0263   -1.6872 H   0  0  0  0  0  0  0  0  0  0  0  0
   -4.7765   -2.4085   -2.3067 H   0  0  0  0  0  0  0  0  0  0  0  0
   -4.7701   -3.8128   -3.3941 H   0  0  0  0  0  0  0  0  0  0  0  0
  1  2  2  0  0  0  0
  1  3  1  0  0  0  0
  1  7  1  0  0  0  0
  3  4  1  0  0  0  0
  3  5  1  0  0  0  0
  3  6  1  0  0  0  0
  7  8  1  0  0  0  0
  7 12  1  0  0  0  0
  8  9  1  0  0  0  0
  8 11  1  0  0  0  0
  8 13  1  0  0  0  0
  9 10  2  0  0  0  0
  9 17  1  0  0  0  0
 11 14  1  0  0  0  0
 11 15  1  0  0  0  0
 11 16  1  0  0  0  0
 17 18  1  0  0  0  0
 17 22  1  0  0  0  0
 18 19  1  0  0  0  0
 18 21  1  0  0  0  0
 18 23  1  0  0  0  0
 19 20  2  0  0  0  0
 19 27  1  0  0  0  0
 21 24  1  0  0  0  0
 21 25  1  0  0  0  0
 21 26  1  0  0  0  0
 27 28  1  0  0  0  0
 27 32  1  0  0  0  0
 28 29  1  0  0  0  0
 28 31  1  0  0  0  0
 28 33  1  0  0  0  0
 29 30  2  0  0  0  0
 29 37  1  0  0  0  0
 31 34  1  0  0  0  0
 31 35  1  0  0  0  0
 31 36  1  0  0  0  0
 37 38  1  0  0  0  0
 37 39  1  0  0  0  0
 38 40  1  0  0  0  0
 38 41  1  0  0  0  0
 38 42  1  0  0  0  0
M  END
$$$$

  -OEChem-05262215353D

 42 41  0     1  0  0  0  0  0999 V2000
   -4.5178    0.0831    0.9894 C   0  0  0  0  0  0  0  0  0  0  0  0
   -4.0999    1.2218    1.1446 O   0  0  0  0  0  0  0  0  0  0  0  0
   -5.4259   -0.2373   -0.1814 C   0  0  0  0  0  0  0  0  0  0  0  0
   -6.1502   -1.0040    0.1040 H   0  0  0  0  0  0  0  0  0  0  0  0
   -5.9670    0.6597   -0.4940 H   0  0  0  0  0  0  0  0  0  0  0  0
   -4.8308   -0.6055   -1.0204 H   0  0  0  0  0  0  0  0  0  0  0  0
   -4.0439   -0.9265    1.7996 N   0  0  0  0  0  0  0  0  0  0  0  0
   -3.0170   -0.7217    2.8363 C   0  0  2  0  0  0  0  0  0  0  0  0
   -1.5961   -0.7004    2.2229 C   0  0  0  0  0  0  0  0  0  0  0  0
   -0.7679   -1.5545    2.5133 O   0  0  0  0  0  0  0  0  0  0  0  0
   -3.2073   -1.8305    3.8789 C   0  0  0  0  0  0  0  0  0  0  0  0
   -4.1259   -1.8656    1.3969 H   0  0  0  0  0  0  0  0  0  0  0  0
   -3.1742    0.2404    3.3356 H   0  0  0  0  0  0  0  0  0  0  0  0
   -3.0588   -2.8158    3.4245 H   0  0  0  0  0  0  0  0  0  0  0  0
   -2.4879   -1.7129    4.6954 H   0  0  0  0  0  0  0  0  0  0  0  0
   -4.2169   -1.7890    4.2989 H   0  0  0  0  0  0  0  0  0  0  0  0
   -1.3870    0.0857    1.1040 N   0  0  0  0  0  0  0  0  0  0  0  0
   -0.2299    0.0854    0.1846 C   0  0  2  0  0  0  0  0  0  0  0  0
   -0.2435   -1.1413   -0.7549 C   0  0  0  0  0  0  0  0  0  0  0  0
    0.0338   -1.0120   -1.9402 O   0  0  0  0  0  0  0  0  0  0  0  0
    1.1129    0.2228    0.9149 C   0  0  0  0  0  0  0  0  0  0  0  0
   -2.1669    0.7123    0.8841 H   0  0  0  0  0  0  0  0  0  0  0  0
   -0.3322    0.9668   -0.4567 H   0  0  0  0  0  0  0  0  0  0  0  0
    1.3644   -0.6898    1.4626 H   0  0  0  0  0  0  0  0  0  0  0  0
    1.9123    0.4140    0.1922 H   0  0  0  0  0  0  0  0  0  0  0  0
    1.0771    1.0575    1.6213 H   0  0  0  0  0  0  0  0  0  0  0  0
   -0.8086   -2.3232   -0.3157 N   0  0  0  0  0  0  0  0  0  0  0  0
   -1.3800   -3.3672   -1.1707 C   0  0  2  0  0  0  0  0  0  0  0  0
   -2.9249   -3.3429   -1.1601 C   0  0  0  0  0  0  0  0  0  0  0  0
   -3.5491   -2.9881   -0.1614 O   0  0  0  0  0  0  0  0  0  0  0  0
   -0.8630   -4.7144   -0.6623 C   0  0  0  0  0  0  0  0  0  0  0  0
   -1.0458   -2.3365    0.6791 H   0  0  0  0  0  0  0  0  0  0  0  0
   -1.0442   -3.2341   -2.2041 H   0  0  0  0  0  0  0  0  0  0  0  0
   -1.1830   -4.8839    0.3711 H   0  0  0  0  0  0  0  0  0  0  0  0
   -1.2448   -5.5302   -1.2835 H   0  0  0  0  0  0  0  0  0  0  0  0
    0.2310   -4.7362   -0.6958 H   0  0  0  0  0  0  0  0  0  0  0  0
   -3.6305   -3.7536   -2.2758 N   0  0  0  0  0  0  0  0  0  0  0  0
   -5.0862   -3.7519   -2.3585 C   0  0  0  0  0  0  0  0  0  0  0  0
   -3.0928   -3.9943   -3.1043 H   0  0  0  0  0  0  0  0  0  0  0  0
   -5.5206   -4.3059   -1.5196 H   0  0  0  0  0  0  0  0  0  0  0  0
   -5.4702   -2.7269   -2.3415 H   0  0  0  0  0  0  0  0  0  0  0  0
   -5.4120   -4.2285   -3.2881 H   0  0  0  0  0  0  0  0  0  0  0  0
  1  2  2  0  0  0  0
  1  3  1  0  0  0  0
  1  7  1  0  0  0  0
  3  4  1  0  0  0  0
  3  5  1  0  0  0  0
  3  6  1  0  0  0  0
  7  8  1  0  0  0  0
  7 12  1  0  0  0  0
  8  9  1  0  0  0  0
  8 11  1  0  0  0  0
  8 13  1  0  0  0  0
  9 10  2  0  0  0  0
  9 17  1  0  0  0  0
 11 14  1  0  0  0  0
 11 15  1  0  0  0  0
 11 16  1  0  0  0  0
 17 18  1  0  0  0  0
 17 22  1  0  0  0  0
 18 19  1  0  0  0  0
 18 21  1  0  0  0  0
 18 23  1  0  0  0  0
 19 20  2  0  0  0  0
 19 27  1  0  0  0  0
 21 24  1  0  0  0  0
 21 25  1  0  0  0  0
 21 26  1  0  0  0  0
 27 28  1  0  0  0  0
 27 32  1  0  0  0  0
 28 29  1  0  0  0  0
 28 31  1  0  0  0  0
 28 33  1  0  0  0  0
 29 30  2  0  0  0  0
 29 37  1  0  0  0  0
 31 34  1  0  0  0  0
 31 35  1  0  0  0  0
 31 36  1  0  0  0  0
 37 38  1  0  0  0  0
 37 39  1  0  0  0  0
 38 40  1  0  0  0  0
 38 41  1  0  0  0  0
 38 42  1  0  0  0  0
M  END
$$$$

  -OEChem-05262215353D

 42 41  0     1  0  0  0  0  0999 V2000
   -4.3623    0.3655    0.8758 C   0  0  0  0  0  0  0  0  0  0  0  0
   -3.8539    1.4523    1.1124 O   0  0  0  0  0  0  0  0  0  0  0  0
   -5.2511    0.1920   -0.3407 C   0  0  0  0  0  0  0  0  0  0  0  0
   -5.7011    1.1490   -0.6183 H   0  0  0  0  0  0  0  0  0  0  0  0
   -4.6611   -0.1818   -1.1809 H   0  0  0  0  0  0  0  0  0  0  0  0
   -6.0495   -0.5215   -0.1230 H   0  0  0  0  0  0  0  0  0  0  0  0
   -4.0243   -0.7206    1.6554 N   0  0  0  0  0  0  0  0  0  0  0  0
   -3.0624   -0.6584    2.7713 C   0  0  2  0  0  0  0  0  0  0  0  0
   -1.6022   -0.7177    2.2623 C   0  0  0  0  0  0  0  0  0  0  0  0
   -0.8907   -1.6835    2.5012 O   0  0  0  0  0  0  0  0  0  0  0  0
   -3.4117   -1.8013    3.7328 C   0  0  0  0  0  0  0  0  0  0  0  0
   -4.1997   -1.6328    1.2227 H   0  0  0  0  0  0  0  0  0  0  0  0
   -3.1818    0.2848    3.3153 H   0  0  0  0  0  0  0  0  0  0  0  0
   -3.3183   -2.7700    3.2307 H   0  0  0  0  0  0  0  0  0  0  0  0
   -2.7374   -1.7918    4.5951 H   0  0  0  0  0  0  0  0  0  0  0  0
   -4.4386   -1.6933    4.0951 H   0  0  0  0  0  0  0  0  0  0  0  0
   -1.2378    0.1539    1.2520 N   0  0  0  0  0  0  0  0  0  0  0  0
   -0.0341    0.1049    0.3939 C   0  0  2  0  0  0  0  0  0  0  0  0
   -0.1341   -1.0025   -0.6801 C   0  0  0  0  0  0  0  0  0  0  0  0
    0.4764   -0.9028   -1.7362 O   0  0  0  0  0  0  0  0  0  0  0  0
    1.2687   -0.0007    1.1989 C   0  0  0  0  0  0  0  0  0  0  0  0
   -1.9437    0.8660    1.0405 H   0  0  0  0  0  0  0  0  0  0  0  0
    0.0071    1.0538   -0.1497 H   0  0  0  0  0  0  0  0  0  0  0  0
    1.3832   -0.9939    1.6427 H   0  0  0  0  0  0  0  0  0  0  0  0
    2.1270    0.1763    0.5432 H   0  0  0  0  0  0  0  0  0  0  0  0
    1.2831    0.7456    1.9990 H   0  0  0  0  0  0  0  0  0  0  0  0
   -1.0946   -1.9847   -0.5460 N   0  0  0  0  0  0  0  0  0  0  0  0
   -1.6159   -2.8539   -1.6008 C   0  0  2  0  0  0  0  0  0  0  0  0
   -3.1499   -3.0026   -1.4898 C   0  0  0  0  0  0  0  0  0  0  0  0
   -3.7405   -2.7221   -0.4473 O   0  0  0  0  0  0  0  0  0  0  0  0
   -0.9248   -4.2137   -1.4801 C   0  0  0  0  0  0  0  0  0  0  0  0
   -1.5347   -2.0383    0.3728 H   0  0  0  0  0  0  0  0  0  0  0  0
   -1.3923   -2.4222   -2.5819 H   0  0  0  0  0  0  0  0  0  0  0  0
   -1.1372   -4.6665   -0.5061 H   0  0  0  0  0  0  0  0  0  0  0  0
   -1.2709   -4.8933   -2.2645 H   0  0  0  0  0  0  0  0  0  0  0  0
    0.1590   -4.0951   -1.5794 H   0  0  0  0  0  0  0  0  0  0  0  0
   -3.8881   -3.4243   -2.5795 N   0  0  0  0  0  0  0  0  0  0  0  0
   -5.3396   -3.5613   -2.5639 C   0  0  0  0  0  0  0  0  0  0  0  0
   -3.3833   -3.6316   -3.4371 H   0  0  0  0  0  0  0  0  0  0  0  0
   -5.6479   -4.2882   -1.8050 H   0  0  0  0  0  0  0  0  0  0  0  0
   -5.8135   -2.5989   -2.3437 H   0  0  0  0  0  0  0  0  0  0  0  0
   -5.6977   -3.9070   -3.5386 H   0  0  0  0  0  0  0  0  0  0  0  0
  1  2  2  0  0  0  0
  1  3  1  0  0  0  0
  1  7  1  0  0  0  0
  3  4  1  0  0  0  0
  3  5  1  0  0  0  0
  3  6  1  0  0  0  0
  7  8  1  0  0  0  0
  7 12  1  0  0  0  0
  8  9  1  0  0  0  0
  8 11  1  0  0  0  0
  8 13  1  0  0  0  0
  9 10  2  0  0  0  0
  9 17  1  0  0  0  0
 11 14  1  0  0  0  0
 11 15  1  0  0  0  0
 11 16  1  0  0  0  0
 17 18  1  0  0  0  0
 17 22  1  0  0  0  0
 18 19  1  0  0  0  0
 18 21  1  0  0  0  0
 18 23  1  0  0  0  0
 19 20  2  0  0  0  0
 19 27  1  0  0  0  0
 21 24  1  0  0  0  0
 21 25  1  0  0  0  0
 21 26  1  0  0  0  0
 27 28  1  0  0  0  0
 27 32  1  0  0  0  0
 28 29  1  0  0  0  0
 28 31  1  0  0  0  0
 28 33  1  0  0  0  0
 29 30  2  0  0  0  0
 29 37  1  0  0  0  0
 31 34  1  0  0  0  0
 31 35  1  0  0  0  0
 31 36  1  0  0  0  0
 37 38  1  0  0  0  0
 37 39  1  0  0  0  0
 38 40  1  0  0  0  0
 38 41  1  0  0  0  0
 38 42  1  0  0  0  0
M  END
$$$$

  -OEChem-05262215353D

 42 41  0     1  0  0  0  0  0999 V2000
   -5.6243   -0.4598    2.1966 C   0  0  0  0  0  0  0  0  0  0  0  0
   -5.8739    0.7355    2.1919 O   0  0  0  0  0  0  0  0  0  0  0  0
   -6.7284   -1.4724    1.9581 C   0  0  0  0  0  0  0  0  0  0  0  0
   -6.8458   -2.1108    2.8370 H   0  0  0  0  0  0  0  0  0  0  0  0
   -7.6750   -0.9603    1.7639 H   0  0  0  0  0  0  0  0  0  0  0  0
   -6.4821   -2.0945    1.0939 H   0  0  0  0  0  0  0  0  0  0  0  0
   -4.3326   -0.8928    2.4076 N   0  0  0  0  0  0  0  0  0  0  0  0
   -3.1613   -0.0082    2.4250 C   0  0  2  0  0  0  0  0  0  0  0  0
   -1.9350   -0.6963    1.7932 C   0  0  0  0  0  0  0  0  0  0  0  0
   -1.8680   -1.9187    1.7672 O   0  0  0  0  0  0  0  0  0  0  0  0
   -2.8692    0.3898    3.8737 C   0  0  0  0  0  0  0  0  0  0  0  0
   -4.1517   -1.8888    2.2857 H   0  0  0  0  0  0  0  0  0  0  0  0
   -3.3703    0.8938    1.8396 H   0  0  0  0  0  0  0  0  0  0  0  0
   -2.6543   -0.4970    4.4787 H   0  0  0  0  0  0  0  0  0  0  0  0
   -2.0070    1.0618    3.9214 H   0  0  0  0  0  0  0  0  0  0  0  0
   -3.7335    0.9052    4.3047 H   0  0  0  0  0  0  0  0  0  0  0  0
   -0.9789    0.0528    1.1284 N   0  0  0  0  0  0  0  0  0  0  0  0
    0.3222   -0.4429    0.6260 C   0  0  2  0  0  0  0  0  0  0  0  0
    0.2178   -1.3085   -0.6514 C   0  0  0  0  0  0  0  0  0  0  0  0
    1.2327   -1.6776   -1.2287 O   0  0  0  0  0  0  0  0  0  0  0  0
    1.1200   -1.1560    1.7293 C   0  0  0  0  0  0  0  0  0  0  0  0
   -1.1189    1.0598    1.1465 H   0  0  0  0  0  0  0  0  0  0  0  0
    0.9042    0.4358    0.3328 H   0  0  0  0  0  0  0  0  0  0  0  0
    0.6723   -2.1227    1.9783 H   0  0  0  0  0  0  0  0  0  0  0  0
    2.1461   -1.3365    1.3934 H   0  0  0  0  0  0  0  0  0  0  0  0
    1.1560   -0.5418    2.6339 H   0  0  0  0  0  0  0  0  0  0  0  0
   -1.0104   -1.5642   -1.2259 N   0  0  0  0  0  0  0  0  0  0  0  0
   -1.2444   -2.3479   -2.4415 C   0  0  2  0  0  0  0  0  0  0  0  0
   -2.6379   -2.0497   -3.0350 C   0  0  0  0  0  0  0  0  0  0  0  0
   -3.5044   -1.5159   -2.3492 O   0  0  0  0  0  0  0  0  0  0  0  0
   -1.1250   -3.8380   -2.1018 C   0  0  0  0  0  0  0  0  0  0  0  0
   -1.8286   -1.3127   -0.6722 H   0  0  0  0  0  0  0  0  0  0  0  0
   -0.4927   -2.0842   -3.1928 H   0  0  0  0  0  0  0  0  0  0  0  0
   -1.8615   -4.1156   -1.3407 H   0  0  0  0  0  0  0  0  0  0  0  0
   -1.2955   -4.4501   -2.9925 H   0  0  0  0  0  0  0  0  0  0  0  0
   -0.1259   -4.0641   -1.7161 H   0  0  0  0  0  0  0  0  0  0  0  0
   -2.9266   -2.3812   -4.3462 N   0  0  0  0  0  0  0  0  0  0  0  0
   -4.2124   -2.1042   -4.9758 C   0  0  0  0  0  0  0  0  0  0  0  0
   -2.1850   -2.7989   -4.9007 H   0  0  0  0  0  0  0  0  0  0  0  0
   -5.0263   -2.5667   -4.4073 H   0  0  0  0  0  0  0  0  0  0  0  0
   -4.3880   -1.0244   -5.0268 H   0  0  0  0  0  0  0  0  0  0  0  0
   -4.2312   -2.5074   -5.9928 H   0  0  0  0  0  0  0  0  0  0  0  0
  1  2  2  0  0  0  0
  1  3  1  0  0  0  0
  1  7  1  0  0  0  0
  3  4  1  0  0  0  0
  3  5  1  0  0  0  0
  3  6  1  0  0  0  0
  7  8  1  0  0  0  0
  7 12  1  0  0  0  0
  8  9  1  0  0  0  0
  8 11  1  0  0  0  0
  8 13  1  0  0  0  0
  9 10  2  0  0  0  0
  9 17  1  0  0  0  0
 11 14  1  0  0  0  0
 11 15  1  0  0  0  0
 11 16  1  0  0  0  0
 17 18  1  0  0  0  0
 17 22  1  0  0  0  0
 18 19  1  0  0  0  0
 18 21  1  0  0  0  0
 18 23  1  0  0  0  0
 19 20  2  0  0  0  0
 19 27  1  0  0  0  0
 21 24  1  0  0  0  0
 21 25  1  0  0  0  0
 21 26  1  0  0  0  0
 27 28  1  0  0  0  0
 27 32  1  0  0  0  0
 28 29  1  0  0  0  0
 28 31  1  0  0  0  0
 28 33  1  0  0  0  0
 29 30  2  0  0  0  0
 29 37  1  0  0  0  0
 31 34  1  0  0  0  0
 31 35  1  0  0  0  0
 31 36  1  0  0  0  0
 37 38  1  0  0  0  0
 37 39  1  0  0  0  0
 38 40  1  0  0  0  0
 38 41  1  0  0  0  0
 38 42  1  0  0  0  0
M  END
$$$$

  -OEChem-05262215353D

 42 41  0     1  0  0  0  0  0999 V2000
   -5.6900   -0.6162    2.3738 C   0  0  0  0  0  0  0  0  0  0  0  0
   -5.9941    0.5659    2.3446 O   0  0  0  0  0  0  0  0  0  0  0  0
   -6.7659   -1.6839    2.3087 C   0  0  0  0  0  0  0  0  0  0  0  0
   -6.7663   -2.2704    3.2306 H   0  0  0  0  0  0  0  0  0  0  0  0
   -7.7492   -1.2220    2.1833 H   0  0  0  0  0  0  0  0  0  0  0  0
   -6.5800   -2.3493    1.4621 H   0  0  0  0  0  0  0  0  0  0  0  0
   -4.3640   -0.9850    2.4521 N   0  0  0  0  0  0  0  0  0  0  0  0
   -3.2383   -0.0525    2.3172 C   0  0  2  0  0  0  0  0  0  0  0  0
   -2.0202   -0.7302    1.6565 C   0  0  0  0  0  0  0  0  0  0  0  0
   -1.9675   -1.9514    1.5790 O   0  0  0  0  0  0  0  0  0  0  0  0
   -2.8696    0.4724    3.7077 C   0  0  0  0  0  0  0  0  0  0  0  0
   -4.1497   -1.9773    2.3551 H   0  0  0  0  0  0  0  0  0  0  0  0
   -3.5322    0.7882    1.6791 H   0  0  0  0  0  0  0  0  0  0  0  0
   -2.5683   -0.3533    4.3605 H   0  0  0  0  0  0  0  0  0  0  0  0
   -2.0432    1.1863    3.6432 H   0  0  0  0  0  0  0  0  0  0  0  0
   -3.7275    0.9795    4.1607 H   0  0  0  0  0  0  0  0  0  0  0  0
   -1.0275    0.0375    1.0699 N   0  0  0  0  0  0  0  0  0  0  0  0
    0.2957   -0.4610    0.6342 C   0  0  2  0  0  0  0  0  0  0  0  0
    0.2496   -1.2925   -0.6693 C   0  0  0  0  0  0  0  0  0  0  0  0
    1.2424   -1.8923   -1.0632 O   0  0  0  0  0  0  0  0  0  0  0  0
    1.0203   -1.2001    1.7722 C   0  0  0  0  0  0  0  0  0  0  0  0
   -1.1370    1.0436    1.1674 H   0  0  0  0  0  0  0  0  0  0  0  0
    0.9019    0.4168    0.3913 H   0  0  0  0  0  0  0  0  0  0  0  0
    0.5575   -2.1716    1.9700 H   0  0  0  0  0  0  0  0  0  0  0  0
    2.0662   -1.3748    1.5005 H   0  0  0  0  0  0  0  0  0  0  0  0
    0.9969   -0.6067    2.6909 H   0  0  0  0  0  0  0  0  0  0  0  0
   -0.8716   -1.2567   -1.4735 N   0  0  0  0  0  0  0  0  0  0  0  0
   -1.0568   -2.0146   -2.7141 C   0  0  2  0  0  0  0  0  0  0  0  0
   -2.2014   -1.4236   -3.5640 C   0  0  0  0  0  0  0  0  0  0  0  0
   -3.0046   -0.6415   -3.0651 O   0  0  0  0  0  0  0  0  0  0  0  0
   -1.3617   -3.4738   -2.3545 C   0  0  0  0  0  0  0  0  0  0  0  0
   -1.6869   -0.7739   -1.0998 H   0  0  0  0  0  0  0  0  0  0  0  0
   -0.1388   -1.9686   -3.3091 H   0  0  0  0  0  0  0  0  0  0  0  0
   -2.2665   -3.5338   -1.7409 H   0  0  0  0  0  0  0  0  0  0  0  0
   -1.5121   -4.0710   -3.2586 H   0  0  0  0  0  0  0  0  0  0  0  0
   -0.5316   -3.9099   -1.7896 H   0  0  0  0  0  0  0  0  0  0  0  0
   -2.3308   -1.7651   -4.8977 N   0  0  0  0  0  0  0  0  0  0  0  0
   -3.3778   -1.2338   -5.7619 C   0  0  0  0  0  0  0  0  0  0  0  0
   -1.6425   -2.4013   -5.2894 H   0  0  0  0  0  0  0  0  0  0  0  0
   -4.3670   -1.4609   -5.3503 H   0  0  0  0  0  0  0  0  0  0  0  0
   -3.2781   -0.1477   -5.8608 H   0  0  0  0  0  0  0  0  0  0  0  0
   -3.3089   -1.6800   -6.7586 H   0  0  0  0  0  0  0  0  0  0  0  0
  1  2  2  0  0  0  0
  1  3  1  0  0  0  0
  1  7  1  0  0  0  0
  3  4  1  0  0  0  0
  3  5  1  0  0  0  0
  3  6  1  0  0  0  0
  7  8  1  0  0  0  0
  7 12  1  0  0  0  0
  8  9  1  0  0  0  0
  8 11  1  0  0  0  0
  8 13  1  0  0  0  0
  9 10  2  0  0  0  0
  9 17  1  0  0  0  0
 11 14  1  0  0  0  0
 11 15  1  0  0  0  0
 11 16  1  0  0  0  0
 17 18  1  0  0  0  0
 17 22  1  0  0  0  0
 18 19  1  0  0  0  0
 18 21  1  0  0  0  0
 18 23  1  0  0  0  0
 19 20  2  0  0  0  0
 19 27  1  0  0  0  0
 21 24  1  0  0  0  0
 21 25  1  0  0  0  0
 21 26  1  0  0  0  0
 27 28  1  0  0  0  0
 27 32  1  0  0  0  0
 28 29  1  0  0  0  0
 28 31  1  0  0  0  0
 28 33  1  0  0  0  0
 29 30  2  0  0  0  0
 29 37  1  0  0  0  0
 31 34  1  0  0  0  0
 31 35  1  0  0  0  0
 31 36  1  0  0  0  0
 37 38  1  0  0  0  0
 37 39  1  0  0  0  0
 38 40  1  0  0  0  0
 38 41  1  0  0  0  0
 38 42  1  0  0  0  0
M  END
$$$$

  -OEChem-05262215353D

 42 41  0     1  0  0  0  0  0999 V2000
   -5.7175   -0.6703    2.3583 C   0  0  0  0  0  0  0  0  0  0  0  0
   -6.0338    0.5079    2.3080 O   0  0  0  0  0  0  0  0  0  0  0  0
   -6.7855   -1.7470    2.3754 C   0  0  0  0  0  0  0  0  0  0  0  0
   -6.7287   -2.3137    3.3077 H   0  0  0  0  0  0  0  0  0  0  0  0
   -7.7781   -1.2953    2.2971 H   0  0  0  0  0  0  0  0  0  0  0  0
   -6.6420   -2.4281    1.5334 H   0  0  0  0  0  0  0  0  0  0  0  0
   -4.3860   -1.0249    2.3946 N   0  0  0  0  0  0  0  0  0  0  0  0
   -3.2729   -0.0807    2.2404 C   0  0  2  0  0  0  0  0  0  0  0  0
   -2.0461   -0.7486    1.5854 C   0  0  0  0  0  0  0  0  0  0  0  0
   -1.9756   -1.9698    1.5258 O   0  0  0  0  0  0  0  0  0  0  0  0
   -2.9072    0.4665    3.6235 C   0  0  0  0  0  0  0  0  0  0  0  0
   -4.1606   -2.0168    2.3224 H   0  0  0  0  0  0  0  0  0  0  0  0
   -3.5815    0.7471    1.5929 H   0  0  0  0  0  0  0  0  0  0  0  0
   -2.5910   -0.3473    4.2843 H   0  0  0  0  0  0  0  0  0  0  0  0
   -2.0915    1.1918    3.5475 H   0  0  0  0  0  0  0  0  0  0  0  0
   -3.7710    0.9655    4.0750 H   0  0  0  0  0  0  0  0  0  0  0  0
   -1.0549    0.0295    1.0096 N   0  0  0  0  0  0  0  0  0  0  0  0
    0.2865   -0.4550    0.6195 C   0  0  2  0  0  0  0  0  0  0  0  0
    0.2757   -1.3118   -0.6683 C   0  0  0  0  0  0  0  0  0  0  0  0
    1.1865   -2.0916   -0.9196 O   0  0  0  0  0  0  0  0  0  0  0  0
    0.9915   -1.1515    1.7962 C   0  0  0  0  0  0  0  0  0  0  0  0
   -1.1750    1.0338    1.1116 H   0  0  0  0  0  0  0  0  0  0  0  0
    0.8856    0.4260    0.3718 H   0  0  0  0  0  0  0  0  0  0  0  0
    0.5409   -2.1269    2.0027 H   0  0  0  0  0  0  0  0  0  0  0  0
    2.0485   -1.3115    1.5613 H   0  0  0  0  0  0  0  0  0  0  0  0
    0.9278   -0.5371    2.6991 H   0  0  0  0  0  0  0  0  0  0  0  0
   -0.6787   -1.0710   -1.6363 N   0  0  0  0  0  0  0  0  0  0  0  0
   -0.7943   -1.7775   -2.9159 C   0  0  2  0  0  0  0  0  0  0  0  0
   -1.6591   -0.9828   -3.9171 C   0  0  0  0  0  0  0  0  0  0  0  0
   -2.3328   -0.0313   -3.5343 O   0  0  0  0  0  0  0  0  0  0  0  0
   -1.4081   -3.1593   -2.6610 C   0  0  0  0  0  0  0  0  0  0  0  0
   -1.4142   -0.4055   -1.4056 H   0  0  0  0  0  0  0  0  0  0  0  0
    0.2010   -1.8969   -3.3560 H   0  0  0  0  0  0  0  0  0  0  0  0
   -2.3981   -3.0590   -2.2044 H   0  0  0  0  0  0  0  0  0  0  0  0
   -1.5098   -3.7157   -3.5973 H   0  0  0  0  0  0  0  0  0  0  0  0
   -0.7724   -3.7402   -1.9851 H   0  0  0  0  0  0  0  0  0  0  0  0
   -1.6745   -1.3261   -5.2566 N   0  0  0  0  0  0  0  0  0  0  0  0
   -2.4455   -0.6012   -6.2594 C   0  0  0  0  0  0  0  0  0  0  0  0
   -1.0935   -2.1065   -5.5493 H   0  0  0  0  0  0  0  0  0  0  0  0
   -3.5065   -0.5830   -5.9884 H   0  0  0  0  0  0  0  0  0  0  0  0
   -2.0862    0.4295   -6.3462 H   0  0  0  0  0  0  0  0  0  0  0  0
   -2.3480   -1.0855   -7.2357 H   0  0  0  0  0  0  0  0  0  0  0  0
  1  2  2  0  0  0  0
  1  3  1  0  0  0  0
  1  7  1  0  0  0  0
  3  4  1  0  0  0  0
  3  5  1  0  0  0  0
  3  6  1  0  0  0  0
  7  8  1  0  0  0  0
  7 12  1  0  0  0  0
  8  9  1  0  0  0  0
  8 11  1  0  0  0  0
  8 13  1  0  0  0  0
  9 10  2  0  0  0  0
  9 17  1  0  0  0  0
 11 14  1  0  0  0  0
 11 15  1  0  0  0  0
 11 16  1  0  0  0  0
 17 18  1  0  0  0  0
 17 22  1  0  0  0  0
 18 19  1  0  0  0  0
 18 21  1  0  0  0  0
 18 23  1  0  0  0  0
 19 20  2  0  0  0  0
 19 27  1  0  0  0  0
 21 24  1  0  0  0  0
 21 25  1  0  0  0  0
 21 26  1  0  0  0  0
 27 28  1  0  0  0  0
 27 32  1  0  0  0  0
 28 29  1  0  0  0  0
 28 31  1  0  0  0  0
 28 33  1  0  0  0  0
 29 30  2  0  0  0  0
 29 37  1  0  0  0  0
 31 34  1  0  0  0  0
 31 35  1  0  0  0  0
 31 36  1  0  0  0  0
 37 38  1  0  0  0  0
 37 39  1  0  0  0  0
 38 40  1  0  0  0  0
 38 41  1  0  0  0  0
 38 42  1  0  0  0  0
M  END
$$$$

  -OEChem-05262215353D

 42 41  0     1  0  0  0  0  0999 V2000
   -5.7241   -0.6851    2.2819 C   0  0  0  0  0  0  0  0  0  0  0  0
   -6.0437    0.4898    2.1912 O   0  0  0  0  0  0  0  0  0  0  0  0
   -6.7900   -1.7645    2.3150 C   0  0  0  0  0  0  0  0  0  0  0  0
   -6.7443   -2.3041    3.2641 H   0  0  0  0  0  0  0  0  0  0  0  0
   -7.7830   -1.3179    2.2107 H   0  0  0  0  0  0  0  0  0  0  0  0
   -6.6336   -2.4692    1.4945 H   0  0  0  0  0  0  0  0  0  0  0  0
   -4.3911   -1.0315    2.3481 N   0  0  0  0  0  0  0  0  0  0  0  0
   -3.2800   -0.0848    2.1895 C   0  0  2  0  0  0  0  0  0  0  0  0
   -2.0353   -0.7602    1.5762 C   0  0  0  0  0  0  0  0  0  0  0  0
   -1.9520   -1.9815    1.5595 O   0  0  0  0  0  0  0  0  0  0  0  0
   -2.9464    0.5039    3.5639 C   0  0  0  0  0  0  0  0  0  0  0  0
   -4.1585   -2.0239    2.3120 H   0  0  0  0  0  0  0  0  0  0  0  0
   -3.5811    0.7224    1.5131 H   0  0  0  0  0  0  0  0  0  0  0  0
   -2.6468   -0.2891    4.2568 H   0  0  0  0  0  0  0  0  0  0  0  0
   -2.1289    1.2269    3.4865 H   0  0  0  0  0  0  0  0  0  0  0  0
   -3.8204    1.0165    3.9784 H   0  0  0  0  0  0  0  0  0  0  0  0
   -1.0472    0.0111    0.9859 N   0  0  0  0  0  0  0  0  0  0  0  0
    0.2993   -0.4677    0.6091 C   0  0  2  0  0  0  0  0  0  0  0  0
    0.2912   -1.3512   -0.6613 C   0  0  0  0  0  0  0  0  0  0  0  0
    1.0731   -2.2843   -0.7984 O   0  0  0  0  0  0  0  0  0  0  0  0
    1.0130   -1.1264    1.8028 C   0  0  0  0  0  0  0  0  0  0  0  0
   -1.1797    1.0161    1.0595 H   0  0  0  0  0  0  0  0  0  0  0  0
    0.8904    0.4128    0.3416 H   0  0  0  0  0  0  0  0  0  0  0  0
    0.5678   -2.0967    2.0427 H   0  0  0  0  0  0  0  0  0  0  0  0
    2.0689   -1.2903    1.5654 H   0  0  0  0  0  0  0  0  0  0  0  0
    0.9536   -0.4849    2.6867 H   0  0  0  0  0  0  0  0  0  0  0  0
   -0.4491   -0.9492   -1.7561 N   0  0  0  0  0  0  0  0  0  0  0  0
   -0.4770   -1.6225   -3.0593 C   0  0  2  0  0  0  0  0  0  0  0  0
   -1.0254   -0.6892   -4.1596 C   0  0  0  0  0  0  0  0  0  0  0  0
   -1.5647    0.3709   -3.8581 O   0  0  0  0  0  0  0  0  0  0  0  0
   -1.3471   -2.8804   -2.9474 C   0  0  0  0  0  0  0  0  0  0  0  0
   -1.0535   -0.1375   -1.6420 H   0  0  0  0  0  0  0  0  0  0  0  0
    0.5416   -1.9094   -3.3413 H   0  0  0  0  0  0  0  0  0  0  0  0
   -2.3693   -2.6135   -2.6603 H   0  0  0  0  0  0  0  0  0  0  0  0
   -1.3801   -3.4129   -3.9024 H   0  0  0  0  0  0  0  0  0  0  0  0
   -0.9411   -3.5599   -2.1913 H   0  0  0  0  0  0  0  0  0  0  0  0
   -0.9110   -1.0343   -5.4938 N   0  0  0  0  0  0  0  0  0  0  0  0
   -1.4131   -0.2043   -6.5822 C   0  0  0  0  0  0  0  0  0  0  0  0
   -0.4538   -1.9143   -5.7143 H   0  0  0  0  0  0  0  0  0  0  0  0
   -2.4898   -0.0374   -6.4724 H   0  0  0  0  0  0  0  0  0  0  0  0
   -0.9054    0.7659   -6.5906 H   0  0  0  0  0  0  0  0  0  0  0  0
   -1.2369   -0.6949   -7.5442 H   0  0  0  0  0  0  0  0  0  0  0  0
  1  2  2  0  0  0  0
  1  3  1  0  0  0  0
  1  7  1  0  0  0  0
  3  4  1  0  0  0  0
  3  5  1  0  0  0  0
  3  6  1  0  0  0  0
  7  8  1  0  0  0  0
  7 12  1  0  0  0  0
  8  9  1  0  0  0  0
  8 11  1  0  0  0  0
  8 13  1  0  0  0  0
  9 10  2  0  0  0  0
  9 17  1  0  0  0  0
 11 14  1  0  0  0  0
 11 15  1  0  0  0  0
 11 16  1  0  0  0  0
 17 18  1  0  0  0  0
 17 22  1  0  0  0  0
 18 19  1  0  0  0  0
 18 21  1  0  0  0  0
 18 23  1  0  0  0  0
 19 20  2  0  0  0  0
 19 27  1  0  0  0  0
 21 24  1  0  0  0  0
 21 25  1  0  0  0  0
 21 26  1  0  0  0  0
 27 28  1  0  0  0  0
 27 32  1  0  0  0  0
 28 29  1  0  0  0  0
 28 31  1  0  0  0  0
 28 33  1  0  0  0  0
 29 30  2  0  0  0  0
 29 37  1  0  0  0  0
 31 34  1  0  0  0  0
 31 35  1  0  0  0  0
 31 36  1  0  0  0  0
 37 38  1  0  0  0  0
 37 39  1  0  0  0  0
 38 40  1  0  0  0  0
 38 41  1  0  0  0  0
 38 42  1  0  0  0  0
M  END
$$$$

  -OEChem-05262215353D

 42 41  0     1  0  0  0  0  0999 V2000
   -5.5832   -0.7939    1.9375 C   0  0  0  0  0  0  0  0  0  0  0  0
   -5.9103    0.2821    1.4620 O   0  0  0  0  0  0  0  0  0  0  0  0
   -6.5595   -1.9550    1.9347 C   0  0  0  0  0  0  0  0  0  0  0  0
   -6.8117   -2.2315    2.9613 H   0  0  0  0  0  0  0  0  0  0  0  0
   -7.4762   -1.6761    1.4077 H   0  0  0  0  0  0  0  0  0  0  0  0
   -6.1141   -2.8169    1.4316 H   0  0  0  0  0  0  0  0  0  0  0  0
   -4.3213   -0.9667    2.4656 N   0  0  0  0  0  0  0  0  0  0  0  0
   -3.2185   -0.0129    2.2854 C   0  0  2  0  0  0  0  0  0  0  0  0
   -1.9579   -0.7127    1.7363 C   0  0  0  0  0  0  0  0  0  0  0  0
   -1.8342   -1.9229    1.8709 O   0  0  0  0  0  0  0  0  0  0  0  0
   -2.9312    0.6399    3.6392 C   0  0  0  0  0  0  0  0  0  0  0  0
   -4.0497   -1.9272    2.6735 H   0  0  0  0  0  0  0  0  0  0  0  0
   -3.4981    0.7661    1.5685 H   0  0  0  0  0  0  0  0  0  0  0  0
   -2.6353   -0.1156    4.3743 H   0  0  0  0  0  0  0  0  0  0  0  0
   -2.1246    1.3738    3.5489 H   0  0  0  0  0  0  0  0  0  0  0  0
   -3.8256    1.1530    4.0074 H   0  0  0  0  0  0  0  0  0  0  0  0
   -1.0075    0.0199    1.0439 N   0  0  0  0  0  0  0  0  0  0  0  0
    0.3078   -0.4741    0.5879 C   0  0  2  0  0  0  0  0  0  0  0  0
    0.1969   -1.4060   -0.6433 C   0  0  0  0  0  0  0  0  0  0  0  0
    0.7659   -2.4895   -0.6937 O   0  0  0  0  0  0  0  0  0  0  0  0
    1.1187   -1.0818    1.7460 C   0  0  0  0  0  0  0  0  0  0  0  0
   -1.1815    1.0192    0.9857 H   0  0  0  0  0  0  0  0  0  0  0  0
    0.8748    0.3951    0.2425 H   0  0  0  0  0  0  0  0  0  0  0  0
    0.6952   -2.0386    2.0655 H   0  0  0  0  0  0  0  0  0  0  0  0
    2.1503   -1.2612    1.4278 H   0  0  0  0  0  0  0  0  0  0  0  0
    1.1343   -0.4012    2.6023 H   0  0  0  0  0  0  0  0  0  0  0  0
   -0.3646   -0.9088   -1.8038 N   0  0  0  0  0  0  0  0  0  0  0  0
   -0.3585   -1.5848   -3.1062 C   0  0  2  0  0  0  0  0  0  0  0  0
   -0.4028   -0.5672   -4.2654 C   0  0  0  0  0  0  0  0  0  0  0  0
   -0.6592    0.6116   -4.0406 O   0  0  0  0  0  0  0  0  0  0  0  0
   -1.5652   -2.5275   -3.1660 C   0  0  0  0  0  0  0  0  0  0  0  0
   -0.7311    0.0409   -1.7813 H   0  0  0  0  0  0  0  0  0  0  0  0
    0.5622   -2.1675   -3.2160 H   0  0  0  0  0  0  0  0  0  0  0  0
   -2.4974   -1.9617   -3.0680 H   0  0  0  0  0  0  0  0  0  0  0  0
   -1.5841   -3.0702   -4.1158 H   0  0  0  0  0  0  0  0  0  0  0  0
   -1.5156   -3.2597   -2.3533 H   0  0  0  0  0  0  0  0  0  0  0  0
   -0.1406   -0.9682   -5.5625 N   0  0  0  0  0  0  0  0  0  0  0  0
   -0.1454   -0.0554   -6.6993 C   0  0  0  0  0  0  0  0  0  0  0  0
    0.0942   -1.9449   -5.7147 H   0  0  0  0  0  0  0  0  0  0  0  0
   -1.1033    0.4714   -6.7646 H   0  0  0  0  0  0  0  0  0  0  0  0
    0.6569    0.6832   -6.6004 H   0  0  0  0  0  0  0  0  0  0  0  0
    0.0059   -0.6092   -7.6308 H   0  0  0  0  0  0  0  0  0  0  0  0
  1  2  2  0  0  0  0
  1  3  1  0  0  0  0
  1  7  1  0  0  0  0
  3  4  1  0  0  0  0
  3  5  1  0  0  0  0
  3  6  1  0  0  0  0
  7  8  1  0  0  0  0
  7 12  1  0  0  0  0
  8  9  1  0  0  0  0
  8 11  1  0  0  0  0
  8 13  1  0  0  0  0
  9 10  2  0  0  0  0
  9 17  1  0  0  0  0
 11 14  1  0  0  0  0
 11 15  1  0  0  0  0
 11 16  1  0  0  0  0
 17 18  1  0  0  0  0
 17 22  1  0  0  0  0
 18 19  1  0  0  0  0
 18 21  1  0  0  0  0
 18 23  1  0  0  0  0
 19 20  2  0  0  0  0
 19 27  1  0  0  0  0
 21 24  1  0  0  0  0
 21 25  1  0  0  0  0
 21 26  1  0  0  0  0
 27 28  1  0  0  0  0
 27 32  1  0  0  0  0
 28 29  1  0  0  0  0
 28 31  1  0  0  0  0
 28 33  1  0  0  0  0
 29 30  2  0  0  0  0
 29 37  1  0  0  0  0
 31 34  1  0  0  0  0
 31 35  1  0  0  0  0
 31 36  1  0  0  0  0
 37 38  1  0  0  0  0
 37 39  1  0  0  0  0
 38 40  1  0  0  0  0
 38 41  1  0  0  0  0
 38 42  1  0  0  0  0
M  END
$$$$

  -OEChem-05262215353D

 42 41  0     1  0  0  0  0  0999 V2000
   -5.5334   -0.8533    1.8374 C   0  0  0  0  0  0  0  0  0  0  0  0
   -5.8451    0.1630    1.2364 O   0  0  0  0  0  0  0  0  0  0  0  0
   -6.4866   -2.0331    1.8780 C   0  0  0  0  0  0  0  0  0  0  0  0
   -6.7120   -2.2958    2.9145 H   0  0  0  0  0  0  0  0  0  0  0  0
   -7.4205   -1.7816    1.3675 H   0  0  0  0  0  0  0  0  0  0  0  0
   -6.0348   -2.8954    1.3811 H   0  0  0  0  0  0  0  0  0  0  0  0
   -4.3107   -0.9433    2.4690 N   0  0  0  0  0  0  0  0  0  0  0  0
   -3.2122    0.0123    2.2697 C   0  0  2  0  0  0  0  0  0  0  0  0
   -1.9355   -0.6956    1.7708 C   0  0  0  0  0  0  0  0  0  0  0  0
   -1.7949   -1.8923    1.9824 O   0  0  0  0  0  0  0  0  0  0  0  0
   -2.9508    0.7147    3.6033 C   0  0  0  0  0  0  0  0  0  0  0  0
   -4.0367   -1.8758    2.7764 H   0  0  0  0  0  0  0  0  0  0  0  0
   -3.4850    0.7635    1.5214 H   0  0  0  0  0  0  0  0  0  0  0  0
   -2.6565   -0.0121    4.3676 H   0  0  0  0  0  0  0  0  0  0  0  0
   -2.1500    1.4530    3.4979 H   0  0  0  0  0  0  0  0  0  0  0  0
   -3.8554    1.2301    3.9418 H   0  0  0  0  0  0  0  0  0  0  0  0
   -0.9837    0.0214    1.0630 N   0  0  0  0  0  0  0  0  0  0  0  0
    0.3186   -0.4823    0.5802 C   0  0  2  0  0  0  0  0  0  0  0  0
    0.1749   -1.4071   -0.6533 C   0  0  0  0  0  0  0  0  0  0  0  0
    0.4787   -2.5929   -0.6240 O   0  0  0  0  0  0  0  0  0  0  0  0
    1.1487   -1.1075    1.7157 C   0  0  0  0  0  0  0  0  0  0  0  0
   -1.1918    1.0058    0.9211 H   0  0  0  0  0  0  0  0  0  0  0  0
    0.8897    0.3846    0.2353 H   0  0  0  0  0  0  0  0  0  0  0  0
    0.7242   -2.0615    2.0421 H   0  0  0  0  0  0  0  0  0  0  0  0
    2.1701   -1.2967    1.3715 H   0  0  0  0  0  0  0  0  0  0  0  0
    1.1904   -0.4324    2.5754 H   0  0  0  0  0  0  0  0  0  0  0  0
   -0.1043   -0.8373   -1.8813 N   0  0  0  0  0  0  0  0  0  0  0  0
   -0.0681   -1.5435   -3.1674 C   0  0  2  0  0  0  0  0  0  0  0  0
    0.3232   -0.5913   -4.3172 C   0  0  0  0  0  0  0  0  0  0  0  0
    0.3384    0.6220   -4.1328 O   0  0  0  0  0  0  0  0  0  0  0  0
   -1.4488   -2.1588   -3.4153 C   0  0  0  0  0  0  0  0  0  0  0  0
   -0.2085    0.1749   -1.9210 H   0  0  0  0  0  0  0  0  0  0  0  0
    0.6822   -2.3408   -3.1332 H   0  0  0  0  0  0  0  0  0  0  0  0
   -2.2135   -1.3765   -3.4616 H   0  0  0  0  0  0  0  0  0  0  0  0
   -1.4594   -2.7147   -4.3575 H   0  0  0  0  0  0  0  0  0  0  0  0
   -1.7061   -2.8495   -2.6054 H   0  0  0  0  0  0  0  0  0  0  0  0
    0.6818   -1.0940   -5.5545 N   0  0  0  0  0  0  0  0  0  0  0  0
    1.1227   -0.2548   -6.6622 C   0  0  0  0  0  0  0  0  0  0  0  0
    0.6896   -2.1038   -5.6674 H   0  0  0  0  0  0  0  0  0  0  0  0
    0.3487    0.4743   -6.9245 H   0  0  0  0  0  0  0  0  0  0  0  0
    2.0375    0.2835   -6.3927 H   0  0  0  0  0  0  0  0  0  0  0  0
    1.3295   -0.8696   -7.5435 H   0  0  0  0  0  0  0  0  0  0  0  0
  1  2  2  0  0  0  0
  1  3  1  0  0  0  0
  1  7  1  0  0  0  0
  3  4  1  0  0  0  0
  3  5  1  0  0  0  0
  3  6  1  0  0  0  0
  7  8  1  0  0  0  0
  7 12  1  0  0  0  0
  8  9  1  0  0  0  0
  8 11  1  0  0  0  0
  8 13  1  0  0  0  0
  9 10  2  0  0  0  0
  9 17  1  0  0  0  0
 11 14  1  0  0  0  0
 11 15  1  0  0  0  0
 11 16  1  0  0  0  0
 17 18  1  0  0  0  0
 17 22  1  0  0  0  0
 18 19  1  0  0  0  0
 18 21  1  0  0  0  0
 18 23  1  0  0  0  0
 19 20  2  0  0  0  0
 19 27  1  0  0  0  0
 21 24  1  0  0  0  0
 21 25  1  0  0  0  0
 21 26  1  0  0  0  0
 27 28  1  0  0  0  0
 27 32  1  0  0  0  0
 28 29  1  0  0  0  0
 28 31  1  0  0  0  0
 28 33  1  0  0  0  0
 29 30  2  0  0  0  0
 29 37  1  0  0  0  0
 31 34  1  0  0  0  0
 31 35  1  0  0  0  0
 31 36  1  0  0  0  0
 37 38  1  0  0  0  0
 37 39  1  0  0  0  0
 38 40  1  0  0  0  0
 38 41  1  0  0  0  0
 38 42  1  0  0  0  0
M  END
$$$$

  -OEChem-05262215353D

 42 41  0     1  0  0  0  0  0999 V2000
   -5.5097   -0.8837    1.8106 C   0  0  0  0  0  0  0  0  0  0  0  0
   -5.8390    0.1296    1.2137 O   0  0  0  0  0  0  0  0  0  0  0  0
   -6.4446   -2.0776    1.8541 C   0  0  0  0  0  0  0  0  0  0  0  0
   -6.6583   -2.3472    2.8914 H   0  0  0  0  0  0  0  0  0  0  0  0
   -7.3856   -1.8381    1.3509 H   0  0  0  0  0  0  0  0  0  0  0  0
   -5.9825   -2.9307    1.3509 H   0  0  0  0  0  0  0  0  0  0  0  0
   -4.2829   -0.9559    2.4358 N   0  0  0  0  0  0  0  0  0  0  0  0
   -3.2012    0.0184    2.2383 C   0  0  2  0  0  0  0  0  0  0  0  0
   -1.8905   -0.6809    1.8216 C   0  0  0  0  0  0  0  0  0  0  0  0
   -1.7239   -1.8546    2.1229 O   0  0  0  0  0  0  0  0  0  0  0  0
   -3.0102    0.7850    3.5486 C   0  0  0  0  0  0  0  0  0  0  0  0
   -3.9938   -1.8817    2.7509 H   0  0  0  0  0  0  0  0  0  0  0  0
   -3.4630    0.7277    1.4463 H   0  0  0  0  0  0  0  0  0  0  0  0
   -2.7346    0.0994    4.3565 H   0  0  0  0  0  0  0  0  0  0  0  0
   -2.2206    1.5350    3.4435 H   0  0  0  0  0  0  0  0  0  0  0  0
   -3.9380    1.2957    3.8254 H   0  0  0  0  0  0  0  0  0  0  0  0
   -0.9362    0.0252    1.1053 N   0  0  0  0  0  0  0  0  0  0  0  0
    0.3460   -0.4926    0.5850 C   0  0  2  0  0  0  0  0  0  0  0  0
    0.1702   -1.3923   -0.6630 C   0  0  0  0  0  0  0  0  0  0  0  0
    0.1460   -2.6139   -0.5954 O   0  0  0  0  0  0  0  0  0  0  0  0
    1.1952   -1.1609    1.6799 C   0  0  0  0  0  0  0  0  0  0  0  0
   -1.1904    0.9784    0.8639 H   0  0  0  0  0  0  0  0  0  0  0  0
    0.9242    0.3743    0.2522 H   0  0  0  0  0  0  0  0  0  0  0  0
    0.7758   -2.1263    1.9785 H   0  0  0  0  0  0  0  0  0  0  0  0
    2.2098   -1.3378    1.3103 H   0  0  0  0  0  0  0  0  0  0  0  0
    1.2534   -0.5187    2.5632 H   0  0  0  0  0  0  0  0  0  0  0  0
    0.1945   -0.8099   -1.9169 N   0  0  0  0  0  0  0  0  0  0  0  0
    0.2558   -1.5518   -3.1819 C   0  0  2  0  0  0  0  0  0  0  0  0
    1.0376   -0.7661   -4.2544 C   0  0  0  0  0  0  0  0  0  0  0  0
    1.2982    0.4201   -4.0789 O   0  0  0  0  0  0  0  0  0  0  0  0
   -1.1768   -1.8296   -3.6467 C   0  0  0  0  0  0  0  0  0  0  0  0
    0.3806    0.1902   -1.9707 H   0  0  0  0  0  0  0  0  0  0  0  0
    0.7779   -2.5026   -3.0303 H   0  0  0  0  0  0  0  0  0  0  0  0
   -1.7158   -0.8908   -3.8105 H   0  0  0  0  0  0  0  0  0  0  0  0
   -1.1747   -2.3987   -4.5810 H   0  0  0  0  0  0  0  0  0  0  0  0
   -1.7132   -2.4118   -2.8901 H   0  0  0  0  0  0  0  0  0  0  0  0
    1.4745   -1.3962   -5.4046 N   0  0  0  0  0  0  0  0  0  0  0  0
    2.2741   -0.7323   -6.4266 C   0  0  0  0  0  0  0  0  0  0  0  0
    1.2758   -2.3879   -5.5015 H   0  0  0  0  0  0  0  0  0  0  0  0
    1.7347    0.1273   -6.8378 H   0  0  0  0  0  0  0  0  0  0  0  0
    3.2223   -0.3842   -6.0036 H   0  0  0  0  0  0  0  0  0  0  0  0
    2.4941   -1.4250   -7.2445 H   0  0  0  0  0  0  0  0  0  0  0  0
  1  2  2  0  0  0  0
  1  3  1  0  0  0  0
  1  7  1  0  0  0  0
  3  4  1  0  0  0  0
  3  5  1  0  0  0  0
  3  6  1  0  0  0  0
  7  8  1  0  0  0  0
  7 12  1  0  0  0  0
  8  9  1  0  0  0  0
  8 11  1  0  0  0  0
  8 13  1  0  0  0  0
  9 10  2  0  0  0  0
  9 17  1  0  0  0  0
 11 14  1  0  0  0  0
 11 15  1  0  0  0  0
 11 16  1  0  0  0  0
 17 18  1  0  0  0  0
 17 22  1  0  0  0  0
 18 19  1  0  0  0  0
 18 21  1  0  0  0  0
 18 23  1  0  0  0  0
 19 20  2  0  0  0  0
 19 27  1  0  0  0  0
 21 24  1  0  0  0  0
 21 25  1  0  0  0  0
 21 26  1  0  0  0  0
 27 28  1  0  0  0  0
 27 32  1  0  0  0  0
 28 29  1  0  0  0  0
 28 31  1  0  0  0  0
 28 33  1  0  0  0  0
 29 30  2  0  0  0  0
 29 37  1  0  0  0  0
 31 34  1  0  0  0  0
 31 35  1  0  0  0  0
 31 36  1  0  0  0  0
 37 38  1  0  0  0  0
 37 39  1  0  0  0  0
 38 40  1  0  0  0  0
 38 41  1  0  0  0  0
 38 42  1  0  0  0  0
M  END
$$$$

  -OEChem-05262215353D

 42 41  0     1  0  0  0  0  0999 V2000
   -5.4891   -0.9235    1.7973 C   0  0  0  0  0  0  0  0  0  0  0  0
   -5.8505    0.0977    1.2333 O   0  0  0  0  0  0  0  0  0  0  0  0
   -6.4019   -2.1345    1.8376 C   0  0  0  0  0  0  0  0  0  0  0  0
   -6.5765   -2.4365    2.8728 H   0  0  0  0  0  0  0  0  0  0  0  0
   -7.3632   -1.8986    1.3731 H   0  0  0  0  0  0  0  0  0  0  0  0
   -5.9425   -2.9649    1.2959 H   0  0  0  0  0  0  0  0  0  0  0  0
   -4.2447   -0.9873    2.3869 N   0  0  0  0  0  0  0  0  0  0  0  0
   -3.1887    0.0149    2.1937 C   0  0  2  0  0  0  0  0  0  0  0  0
   -1.8388   -0.6572    1.8681 C   0  0  0  0  0  0  0  0  0  0  0  0
   -1.6388   -1.7971    2.2649 O   0  0  0  0  0  0  0  0  0  0  0  0
   -3.0798    0.8475    3.4730 C   0  0  0  0  0  0  0  0  0  0  0  0
   -3.9330   -1.9087    2.6940 H   0  0  0  0  0  0  0  0  0  0  0  0
   -3.4389    0.6752    1.3568 H   0  0  0  0  0  0  0  0  0  0  0  0
   -2.8182    0.2094    4.3235 H   0  0  0  0  0  0  0  0  0  0  0  0
   -2.3100    1.6176    3.3659 H   0  0  0  0  0  0  0  0  0  0  0  0
   -4.0344    1.3389    3.6860 H   0  0  0  0  0  0  0  0  0  0  0  0
   -0.8814    0.0465    1.1518 N   0  0  0  0  0  0  0  0  0  0  0  0
    0.3847   -0.4859    0.6056 C   0  0  2  0  0  0  0  0  0  0  0  0
    0.1871   -1.3599   -0.6570 C   0  0  0  0  0  0  0  0  0  0  0  0
   -0.2110   -2.5150   -0.6007 O   0  0  0  0  0  0  0  0  0  0  0  0
    1.2384   -1.2015    1.6652 C   0  0  0  0  0  0  0  0  0  0  0  0
   -1.1783    0.9613    0.8254 H   0  0  0  0  0  0  0  0  0  0  0  0
    0.9728    0.3806    0.2903 H   0  0  0  0  0  0  0  0  0  0  0  0
    0.8200   -2.1802    1.9192 H   0  0  0  0  0  0  0  0  0  0  0  0
    2.2526   -1.3596    1.2864 H   0  0  0  0  0  0  0  0  0  0  0  0
    1.2974   -0.5997    2.5770 H   0  0  0  0  0  0  0  0  0  0  0  0
    0.5173   -0.8414   -1.8955 N   0  0  0  0  0  0  0  0  0  0  0  0
    0.5797   -1.6256   -3.1352 C   0  0  2  0  0  0  0  0  0  0  0  0
    1.7008   -1.1084   -4.0602 C   0  0  0  0  0  0  0  0  0  0  0  0
    2.2330   -0.0265   -3.8313 O   0  0  0  0  0  0  0  0  0  0  0  0
   -0.7828   -1.5434   -3.8294 C   0  0  0  0  0  0  0  0  0  0  0  0
    0.9870    0.0629   -1.9154 H   0  0  0  0  0  0  0  0  0  0  0  0
    0.8045   -2.6725   -2.9046 H   0  0  0  0  0  0  0  0  0  0  0  0
   -1.0248   -0.5055   -4.0794 H   0  0  0  0  0  0  0  0  0  0  0  0
   -0.7807   -2.1332   -4.7506 H   0  0  0  0  0  0  0  0  0  0  0  0
   -1.5659   -1.9350   -3.1721 H   0  0  0  0  0  0  0  0  0  0  0  0
    2.1329   -1.8637   -5.1343 N   0  0  0  0  0  0  0  0  0  0  0  0
    3.2223   -1.4533   -6.0121 C   0  0  0  0  0  0  0  0  0  0  0  0
    1.6995   -2.7715   -5.2772 H   0  0  0  0  0  0  0  0  0  0  0  0
    2.9903   -0.4951   -6.4894 H   0  0  0  0  0  0  0  0  0  0  0  0
    4.1525   -1.3478   -5.4437 H   0  0  0  0  0  0  0  0  0  0  0  0
    3.3793   -2.2003   -6.7964 H   0  0  0  0  0  0  0  0  0  0  0  0
  1  2  2  0  0  0  0
  1  3  1  0  0  0  0
  1  7  1  0  0  0  0
  3  4  1  0  0  0  0
  3  5  1  0  0  0  0
  3  6  1  0  0  0  0
  7  8  1  0  0  0  0
  7 12  1  0  0  0  0
  8  9  1  0  0  0  0
  8 11  1  0  0  0  0
  8 13  1  0  0  0  0
  9 10  2  0  0  0  0
  9 17  1  0  0  0  0
 11 14  1  0  0  0  0
 11 15  1  0  0  0  0
 11 16  1  0  0  0  0
 17 18  1  0  0  0  0
 17 22  1  0  0  0  0
 18 19  1  0  0  0  0
 18 21  1  0  0  0  0
 18 23  1  0  0  0  0
 19 20  2  0  0  0  0
 19 27  1  0  0  0  0
 21 24  1  0  0  0  0
 21 25  1  0  0  0  0
 21 26  1  0  0  0  0
 27 28  1  0  0  0  0
 27 32  1  0  0  0  0
 28 29  1  0  0  0  0
 28 31  1  0  0  0  0
 28 33  1  0  0  0  0
 29 30  2  0  0  0  0
 29 37  1  0  0  0  0
 31 34  1  0  0  0  0
 31 35  1  0  0  0  0
 31 36  1  0  0  0  0
 37 38  1  0  0  0  0
 37 39  1  0  0  0  0
 38 40  1  0  0  0  0
 38 41  1  0  0  0  0
 38 42  1  0  0  0  0
M  END
$$$$

  -OEChem-05262215353D

 42 41  0     1  0  0  0  0  0999 V2000
   -5.4932   -0.9988    1.8052 C   0  0  0  0  0  0  0  0  0  0  0  0
   -5.9047    0.0359    1.3032 O   0  0  0  0  0  0  0  0  0  0  0  0
   -6.4048   -2.2067    1.9135 C   0  0  0  0  0  0  0  0  0  0  0  0
   -6.5516   -2.4699    2.9637 H   0  0  0  0  0  0  0  0  0  0  0  0
   -7.3779   -1.9862    1.4655 H   0  0  0  0  0  0  0  0  0  0  0  0
   -5.9608   -3.0575    1.3907 H   0  0  0  0  0  0  0  0  0  0  0  0
   -4.1975   -1.0727    2.2696 N   0  0  0  0  0  0  0  0  0  0  0  0
   -3.1819   -0.0347    2.0570 C   0  0  2  0  0  0  0  0  0  0  0  0
   -1.7768   -0.6505    1.8905 C   0  0  0  0  0  0  0  0  0  0  0  0
   -1.5496   -1.7469    2.3866 O   0  0  0  0  0  0  0  0  0  0  0  0
   -3.2133    0.9243    3.2502 C   0  0  0  0  0  0  0  0  0  0  0  0
   -3.8556   -1.9877    2.5638 H   0  0  0  0  0  0  0  0  0  0  0  0
   -3.4086    0.5202    1.1404 H   0  0  0  0  0  0  0  0  0  0  0  0
   -2.9891    0.3876    4.1776 H   0  0  0  0  0  0  0  0  0  0  0  0
   -2.4759    1.7221    3.1221 H   0  0  0  0  0  0  0  0  0  0  0  0
   -4.2039    1.3807    3.3424 H   0  0  0  0  0  0  0  0  0  0  0  0
   -0.7998    0.0624    1.2091 N   0  0  0  0  0  0  0  0  0  0  0  0
    0.4721   -0.4808    0.6867 C   0  0  2  0  0  0  0  0  0  0  0  0
    0.2974   -1.3335   -0.5930 C   0  0  0  0  0  0  0  0  0  0  0  0
   -0.4737   -2.2819   -0.6418 O   0  0  0  0  0  0  0  0  0  0  0  0
    1.2980   -1.2341    1.7401 C   0  0  0  0  0  0  0  0  0  0  0  0
   -1.1313    0.9249    0.7881 H   0  0  0  0  0  0  0  0  0  0  0  0
    1.0736    0.3871    0.4017 H   0  0  0  0  0  0  0  0  0  0  0  0
    0.8783   -2.2258    1.9356 H   0  0  0  0  0  0  0  0  0  0  0  0
    2.3250   -1.3685    1.3876 H   0  0  0  0  0  0  0  0  0  0  0  0
    1.3233   -0.6724    2.6788 H   0  0  0  0  0  0  0  0  0  0  0  0
    0.9397   -0.9541   -1.7571 N   0  0  0  0  0  0  0  0  0  0  0  0
    0.9319   -1.7378   -2.9990 C   0  0  2  0  0  0  0  0  0  0  0  0
    2.2620   -1.5791   -3.7640 C   0  0  0  0  0  0  0  0  0  0  0  0
    3.0504   -0.6946   -3.4452 O   0  0  0  0  0  0  0  0  0  0  0  0
   -0.2483   -1.2753   -3.8591 C   0  0  0  0  0  0  0  0  0  0  0  0
    1.6676   -0.2441   -1.6820 H   0  0  0  0  0  0  0  0  0  0  0  0
    0.8136   -2.8016   -2.7665 H   0  0  0  0  0  0  0  0  0  0  0  0
   -0.1438   -0.2165   -4.1168 H   0  0  0  0  0  0  0  0  0  0  0  0
   -0.2999   -1.8566   -4.7845 H   0  0  0  0  0  0  0  0  0  0  0  0
   -1.1891   -1.4106   -3.3157 H   0  0  0  0  0  0  0  0  0  0  0  0
    2.5857   -2.4390   -4.7969 N   0  0  0  0  0  0  0  0  0  0  0  0
    3.8387   -2.3635   -5.5384 C   0  0  0  0  0  0  0  0  0  0  0  0
    1.9265   -3.1802   -5.0169 H   0  0  0  0  0  0  0  0  0  0  0  0
    3.9284   -1.3948   -6.0413 H   0  0  0  0  0  0  0  0  0  0  0  0
    4.6922   -2.4912   -4.8642 H   0  0  0  0  0  0  0  0  0  0  0  0
    3.8774   -3.1511   -6.2971 H   0  0  0  0  0  0  0  0  0  0  0  0
  1  2  2  0  0  0  0
  1  3  1  0  0  0  0
  1  7  1  0  0  0  0
  3  4  1  0  0  0  0
  3  5  1  0  0  0  0
  3  6  1  0  0  0  0
  7  8  1  0  0  0  0
  7 12  1  0  0  0  0
  8  9  1  0  0  0  0
  8 11  1  0  0  0  0
  8 13  1  0  0  0  0
  9 10  2  0  0  0  0
  9 17  1  0  0  0  0
 11 14  1  0  0  0  0
 11 15  1  0  0  0  0
 11 16  1  0  0  0  0
 17 18  1  0  0  0  0
 17 22  1  0  0  0  0
 18 19  1  0  0  0  0
 18 21  1  0  0  0  0
 18 23  1  0  0  0  0
 19 20  2  0  0  0  0
 19 27  1  0  0  0  0
 21 24  1  0  0  0  0
 21 25  1  0  0  0  0
 21 26  1  0  0  0  0
 27 28  1  0  0  0  0
 27 32  1  0  0  0  0
 28 29  1  0  0  0  0
 28 31  1  0  0  0  0
 28 33  1  0  0  0  0
 29 30  2  0  0  0  0
 29 37  1  0  0  0  0
 31 34  1  0  0  0  0
 31 35  1  0  0  0  0
 31 36  1  0  0  0  0
 37 38  1  0  0  0  0
 37 39  1  0  0  0  0
 38 40  1  0  0  0  0
 38 41  1  0  0  0  0
 38 42  1  0  0  0  0
M  END
$$$$

  -OEChem-05262215353D

 42 41  0     1  0  0  0  0  0999 V2000
   -5.4824   -1.0530    1.8148 C   0  0  0  0  0  0  0  0  0  0  0  0
   -5.9232   -0.0400    1.2938 O   0  0  0  0  0  0  0  0  0  0  0  0
   -6.3602   -2.2824    1.9547 C   0  0  0  0  0  0  0  0  0  0  0  0
   -6.4473   -2.5611    3.0075 H   0  0  0  0  0  0  0  0  0  0  0  0
   -7.3594   -2.0797    1.5597 H   0  0  0  0  0  0  0  0  0  0  0  0
   -5.9238   -3.1160    1.3990 H   0  0  0  0  0  0  0  0  0  0  0  0
   -4.1815   -1.0867    2.2685 N   0  0  0  0  0  0  0  0  0  0  0  0
   -3.1877   -0.0390    2.0069 C   0  0  2  0  0  0  0  0  0  0  0  0
   -1.7669   -0.6297    1.8898 C   0  0  0  0  0  0  0  0  0  0  0  0
   -1.5342   -1.7202    2.3983 O   0  0  0  0  0  0  0  0  0  0  0  0
   -3.2521    0.9879    3.1409 C   0  0  0  0  0  0  0  0  0  0  0  0
   -3.8159   -1.9883    2.5752 H   0  0  0  0  0  0  0  0  0  0  0  0
   -3.4167    0.4548    1.0567 H   0  0  0  0  0  0  0  0  0  0  0  0
   -3.0225    0.5119    4.0998 H   0  0  0  0  0  0  0  0  0  0  0  0
   -2.5332    1.7949    2.9704 H   0  0  0  0  0  0  0  0  0  0  0  0
   -4.2542    1.4247    3.1994 H   0  0  0  0  0  0  0  0  0  0  0  0
   -0.7853    0.0896    1.2223 N   0  0  0  0  0  0  0  0  0  0  0  0
    0.4930   -0.4582    0.7208 C   0  0  2  0  0  0  0  0  0  0  0  0
    0.3375   -1.3152   -0.5591 C   0  0  0  0  0  0  0  0  0  0  0  0
   -0.6465   -2.0181   -0.7496 O   0  0  0  0  0  0  0  0  0  0  0  0
    1.3081   -1.2050    1.7870 C   0  0  0  0  0  0  0  0  0  0  0  0
   -1.1289    0.9272    0.7627 H   0  0  0  0  0  0  0  0  0  0  0  0
    1.0941    0.4105    0.4366 H   0  0  0  0  0  0  0  0  0  0  0  0
    0.8928   -2.1995    1.9760 H   0  0  0  0  0  0  0  0  0  0  0  0
    2.3417   -1.3322    1.4522 H   0  0  0  0  0  0  0  0  0  0  0  0
    1.3137   -0.6428    2.7258 H   0  0  0  0  0  0  0  0  0  0  0  0
    1.2202   -1.1390   -1.6083 N   0  0  0  0  0  0  0  0  0  0  0  0
    1.2056   -1.9386   -2.8404 C   0  0  2  0  0  0  0  0  0  0  0  0
    2.6344   -2.1568   -3.3796 C   0  0  0  0  0  0  0  0  0  0  0  0
    3.5675   -1.5025   -2.9250 O   0  0  0  0  0  0  0  0  0  0  0  0
    0.3389   -1.2178   -3.8775 C   0  0  0  0  0  0  0  0  0  0  0  0
    2.0889   -0.6432   -1.4092 H   0  0  0  0  0  0  0  0  0  0  0  0
    0.7791   -2.9271   -2.6376 H   0  0  0  0  0  0  0  0  0  0  0  0
    0.7583   -0.2335   -4.1091 H   0  0  0  0  0  0  0  0  0  0  0  0
    0.2811   -1.8000   -4.8021 H   0  0  0  0  0  0  0  0  0  0  0  0
   -0.6773   -1.0822   -3.4936 H   0  0  0  0  0  0  0  0  0  0  0  0
    2.8793   -3.0959   -4.3642 N   0  0  0  0  0  0  0  0  0  0  0  0
    4.2083   -3.3627   -4.9011 C   0  0  0  0  0  0  0  0  0  0  0  0
    2.0922   -3.6443   -4.6993 H   0  0  0  0  0  0  0  0  0  0  0  0
    4.6242   -2.4590   -5.3591 H   0  0  0  0  0  0  0  0  0  0  0  0
    4.8832   -3.6974   -4.1061 H   0  0  0  0  0  0  0  0  0  0  0  0
    4.1589   -4.1453   -5.6645 H   0  0  0  0  0  0  0  0  0  0  0  0
  1  2  2  0  0  0  0
  1  3  1  0  0  0  0
  1  7  1  0  0  0  0
  3  4  1  0  0  0  0
  3  5  1  0  0  0  0
  3  6  1  0  0  0  0
  7  8  1  0  0  0  0
  7 12  1  0  0  0  0
  8  9  1  0  0  0  0
  8 11  1  0  0  0  0
  8 13  1  0  0  0  0
  9 10  2  0  0  0  0
  9 17  1  0  0  0  0
 11 14  1  0  0  0  0
 11 15  1  0  0  0  0
 11 16  1  0  0  0  0
 17 18  1  0  0  0  0
 17 22  1  0  0  0  0
 18 19  1  0  0  0  0
 18 21  1  0  0  0  0
 18 23  1  0  0  0  0
 19 20  2  0  0  0  0
 19 27  1  0  0  0  0
 21 24  1  0  0  0  0
 21 25  1  0  0  0  0
 21 26  1  0  0  0  0
 27 28  1  0  0  0  0
 27 32  1  0  0  0  0
 28 29  1  0  0  0  0
 28 31  1  0  0  0  0
 28 33  1  0  0  0  0
 29 30  2  0  0  0  0
 29 37  1  0  0  0  0
 31 34  1  0  0  0  0
 31 35  1  0  0  0  0
 31 36  1  0  0  0  0
 37 38  1  0  0  0  0
 37 39  1  0  0  0  0
 38 40  1  0  0  0  0
 38 41  1  0  0  0  0
 38 42  1  0  0  0  0
M  END
$$$$

  -OEChem-05262215353D

 42 41  0     1  0  0  0  0  0999 V2000
   -5.4799   -1.0693    1.8349 C   0  0  0  0  0  0  0  0  0  0  0  0
   -5.9373   -0.0597    1.3219 O   0  0  0  0  0  0  0  0  0  0  0  0
   -6.3498   -2.3013    1.9973 C   0  0  0  0  0  0  0  0  0  0  0  0
   -6.3815   -2.6005    3.0476 H   0  0  0  0  0  0  0  0  0  0  0  0
   -7.3682   -2.0898    1.6601 H   0  0  0  0  0  0  0  0  0  0  0  0
   -5.9448   -3.1241    1.4030 H   0  0  0  0  0  0  0  0  0  0  0  0
   -4.1695   -1.0950    2.2610 N   0  0  0  0  0  0  0  0  0  0  0  0
   -3.1897   -0.0379    1.9842 C   0  0  2  0  0  0  0  0  0  0  0  0
   -1.7603   -0.6106    1.8781 C   0  0  0  0  0  0  0  0  0  0  0  0
   -1.5177   -1.7000    2.3855 O   0  0  0  0  0  0  0  0  0  0  0  0
   -3.2690    1.0057    3.1019 C   0  0  0  0  0  0  0  0  0  0  0  0
   -3.7926   -1.9921    2.5669 H   0  0  0  0  0  0  0  0  0  0  0  0
   -3.4260    0.4367    1.0256 H   0  0  0  0  0  0  0  0  0  0  0  0
   -3.0377    0.5473    4.0687 H   0  0  0  0  0  0  0  0  0  0  0  0
   -2.5580    1.8170    2.9209 H   0  0  0  0  0  0  0  0  0  0  0  0
   -4.2755    1.4331    3.1508 H   0  0  0  0  0  0  0  0  0  0  0  0
   -0.7828    0.1133    1.2093 N   0  0  0  0  0  0  0  0  0  0  0  0
    0.5035   -0.4321    0.7247 C   0  0  2  0  0  0  0  0  0  0  0  0
    0.3658   -1.3074   -0.5449 C   0  0  0  0  0  0  0  0  0  0  0  0
   -0.7128   -1.7779   -0.8857 O   0  0  0  0  0  0  0  0  0  0  0  0
    1.3211   -1.1522    1.8079 C   0  0  0  0  0  0  0  0  0  0  0  0
   -1.1382    0.9292    0.7202 H   0  0  0  0  0  0  0  0  0  0  0  0
    1.0975    0.4370    0.4270 H   0  0  0  0  0  0  0  0  0  0  0  0
    0.9190   -2.1498    2.0075 H   0  0  0  0  0  0  0  0  0  0  0  0
    2.3599   -1.2676    1.4846 H   0  0  0  0  0  0  0  0  0  0  0  0
    1.3104   -0.5771    2.7385 H   0  0  0  0  0  0  0  0  0  0  0  0
    1.4134   -1.3693   -1.4449 N   0  0  0  0  0  0  0  0  0  0  0  0
    1.4128   -2.2063   -2.6521 C   0  0  2  0  0  0  0  0  0  0  0  0
    2.8238   -2.7529   -2.9541 C   0  0  0  0  0  0  0  0  0  0  0  0
    3.7985   -2.2900   -2.3703 O   0  0  0  0  0  0  0  0  0  0  0  0
    0.8935   -1.3692   -3.8250 C   0  0  0  0  0  0  0  0  0  0  0  0
    2.3288   -1.0655   -1.1135 H   0  0  0  0  0  0  0  0  0  0  0  0
    0.7541   -3.0691   -2.5048 H   0  0  0  0  0  0  0  0  0  0  0  0
    1.5493   -0.5111   -4.0032 H   0  0  0  0  0  0  0  0  0  0  0  0
    0.8505   -1.9713   -4.7375 H   0  0  0  0  0  0  0  0  0  0  0  0
   -0.1142   -0.9995   -3.6099 H   0  0  0  0  0  0  0  0  0  0  0  0
    3.0012   -3.7750   -3.8683 N   0  0  0  0  0  0  0  0  0  0  0  0
    4.3012   -4.3617   -4.1718 C   0  0  0  0  0  0  0  0  0  0  0  0
    2.1715   -4.1620   -4.3090 H   0  0  0  0  0  0  0  0  0  0  0  0
    4.9939   -3.5951   -4.5353 H   0  0  0  0  0  0  0  0  0  0  0  0
    4.7289   -4.8279   -3.2779 H   0  0  0  0  0  0  0  0  0  0  0  0
    4.1990   -5.1279   -4.9464 H   0  0  0  0  0  0  0  0  0  0  0  0
  1  2  2  0  0  0  0
  1  3  1  0  0  0  0
  1  7  1  0  0  0  0
  3  4  1  0  0  0  0
  3  5  1  0  0  0  0
  3  6  1  0  0  0  0
  7  8  1  0  0  0  0
  7 12  1  0  0  0  0
  8  9  1  0  0  0  0
  8 11  1  0  0  0  0
  8 13  1  0  0  0  0
  9 10  2  0  0  0  0
  9 17  1  0  0  0  0
 11 14  1  0  0  0  0
 11 15  1  0  0  0  0
 11 16  1  0  0  0  0
 17 18  1  0  0  0  0
 17 22  1  0  0  0  0
 18 19  1  0  0  0  0
 18 21  1  0  0  0  0
 18 23  1  0  0  0  0
 19 20  2  0  0  0  0
 19 27  1  0  0  0  0
 21 24  1  0  0  0  0
 21 25  1  0  0  0  0
 21 26  1  0  0  0  0
 27 28  1  0  0  0  0
 27 32  1  0  0  0  0
 28 29  1  0  0  0  0
 28 31  1  0  0  0  0
 28 33  1  0  0  0  0
 29 30  2  0  0  0  0
 29 37  1  0  0  0  0
 31 34  1  0  0  0  0
 31 35  1  0  0  0  0
 31 36  1  0  0  0  0
 37 38  1  0  0  0  0
 37 39  1  0  0  0  0
 38 40  1  0  0  0  0
 38 41  1  0  0  0  0
 38 42  1  0  0  0  0
M  END
$$$$

  -OEChem-05262215353D

 42 41  0     1  0  0  0  0  0999 V2000
   -5.4901   -1.0585    1.8653 C   0  0  0  0  0  0  0  0  0  0  0  0
   -5.9531   -0.0558    1.3440 O   0  0  0  0  0  0  0  0  0  0  0  0
   -6.3574   -2.2885    2.0555 C   0  0  0  0  0  0  0  0  0  0  0  0
   -6.3867   -2.5646    3.1122 H   0  0  0  0  0  0  0  0  0  0  0  0
   -7.3771   -2.0884    1.7149 H   0  0  0  0  0  0  0  0  0  0  0  0
   -5.9502   -3.1227    1.4791 H   0  0  0  0  0  0  0  0  0  0  0  0
   -4.1751   -1.0816    2.2770 N   0  0  0  0  0  0  0  0  0  0  0  0
   -3.1913   -0.0373    1.9663 C   0  0  2  0  0  0  0  0  0  0  0  0
   -1.7676   -0.6219    1.8446 C   0  0  0  0  0  0  0  0  0  0  0  0
   -1.5352   -1.7315    2.3122 O   0  0  0  0  0  0  0  0  0  0  0  0
   -3.2433    1.0257    3.0679 C   0  0  0  0  0  0  0  0  0  0  0  0
   -3.7991   -1.9768    2.5888 H   0  0  0  0  0  0  0  0  0  0  0  0
   -3.4389    0.4243    1.0043 H   0  0  0  0  0  0  0  0  0  0  0  0
   -2.9935    0.5834    4.0377 H   0  0  0  0  0  0  0  0  0  0  0  0
   -2.5334    1.8315    2.8587 H   0  0  0  0  0  0  0  0  0  0  0  0
   -4.2471    1.4583    3.1301 H   0  0  0  0  0  0  0  0  0  0  0  0
   -0.7846    0.1077    1.1918 N   0  0  0  0  0  0  0  0  0  0  0  0
    0.5104   -0.4310    0.7258 C   0  0  2  0  0  0  0  0  0  0  0  0
    0.3879   -1.3045   -0.5461 C   0  0  0  0  0  0  0  0  0  0  0  0
   -0.7039   -1.5591   -1.0417 O   0  0  0  0  0  0  0  0  0  0  0  0
    1.3131   -1.1448    1.8269 C   0  0  0  0  0  0  0  0  0  0  0  0
   -1.1349    0.9247    0.7003 H   0  0  0  0  0  0  0  0  0  0  0  0
    1.1067    0.4380    0.4328 H   0  0  0  0  0  0  0  0  0  0  0  0
    0.9218   -2.1496    2.0126 H   0  0  0  0  0  0  0  0  0  0  0  0
    2.3621   -1.2429    1.5314 H   0  0  0  0  0  0  0  0  0  0  0  0
    1.2705   -0.5748    2.7600 H   0  0  0  0  0  0  0  0  0  0  0  0
    1.5215   -1.6189   -1.2713 N   0  0  0  0  0  0  0  0  0  0  0  0
    1.5294   -2.5071   -2.4406 C   0  0  2  0  0  0  0  0  0  0  0  0
    2.8285   -3.3373   -2.4988 C   0  0  0  0  0  0  0  0  0  0  0  0
    3.7855   -3.0287   -1.7957 O   0  0  0  0  0  0  0  0  0  0  0  0
    1.3731   -1.6515   -3.7010 C   0  0  0  0  0  0  0  0  0  0  0  0
    2.4197   -1.4847   -0.8075 H   0  0  0  0  0  0  0  0  0  0  0  0
    0.6941   -3.2129   -2.3774 H   0  0  0  0  0  0  0  0  0  0  0  0
    2.2082   -0.9500   -3.7928 H   0  0  0  0  0  0  0  0  0  0  0  0
    1.3466   -2.2828   -4.5941 H   0  0  0  0  0  0  0  0  0  0  0  0
    0.4408   -1.0795   -3.6571 H   0  0  0  0  0  0  0  0  0  0  0  0
    2.9206   -4.4416   -3.3254 N   0  0  0  0  0  0  0  0  0  0  0  0
    4.1088   -5.2824   -3.4082 C   0  0  0  0  0  0  0  0  0  0  0  0
    2.0998   -4.6927   -3.8691 H   0  0  0  0  0  0  0  0  0  0  0  0
    4.9722   -4.6945   -3.7372 H   0  0  0  0  0  0  0  0  0  0  0  0
    4.3347   -5.7242   -2.4320 H   0  0  0  0  0  0  0  0  0  0  0  0
    3.9499   -6.0928   -4.1260 H   0  0  0  0  0  0  0  0  0  0  0  0
  1  2  2  0  0  0  0
  1  3  1  0  0  0  0
  1  7  1  0  0  0  0
  3  4  1  0  0  0  0
  3  5  1  0  0  0  0
  3  6  1  0  0  0  0
  7  8  1  0  0  0  0
  7 12  1  0  0  0  0
  8  9  1  0  0  0  0
  8 11  1  0  0  0  0
  8 13  1  0  0  0  0
  9 10  2  0  0  0  0
  9 17  1  0  0  0  0
 11 14  1  0  0  0  0
 11 15  1  0  0  0  0
 11 16  1  0  0  0  0
 17 18  1  0  0  0  0
 17 22  1  0  0  0  0
 18 19  1  0  0  0  0
 18 21  1  0  0  0  0
 18 23  1  0  0  0  0
 19 20  2  0  0  0  0
 19 27  1  0  0  0  0
 21 24  1  0  0  0  0
 21 25  1  0  0  0  0
 21 26  1  0  0  0  0
 27 28  1  0  0  0  0
 27 32  1  0  0  0  0
 28 29  1  0  0  0  0
 28 31  1  0  0  0  0
 28 33  1  0  0  0  0
 29 30  2  0  0  0  0
 29 37  1  0  0  0  0
 31 34  1  0  0  0  0
 31 35  1  0  0  0  0
 31 36  1  0  0  0  0
 37 38  1  0  0  0  0
 37 39  1  0  0  0  0
 38 40  1  0  0  0  0
 38 41  1  0  0  0  0
 38 42  1  0  0  0  0
M  END
$$$$

  -OEChem-05262215353D

 42 41  0     1  0  0  0  0  0999 V2000
   -5.5433   -1.0138    1.9255 C   0  0  0  0  0  0  0  0  0  0  0  0
   -5.9858   -0.0131    1.3835 O   0  0  0  0  0  0  0  0  0  0  0  0
   -6.4471   -2.2068    2.1752 C   0  0  0  0  0  0  0  0  0  0  0  0
   -6.4637   -2.4455    3.2413 H   0  0  0  0  0  0  0  0  0  0  0  0
   -7.4665   -1.9829    1.8487 H   0  0  0  0  0  0  0  0  0  0  0  0
   -6.0816   -3.0744    1.6200 H   0  0  0  0  0  0  0  0  0  0  0  0
   -4.2191   -1.0682    2.3044 N   0  0  0  0  0  0  0  0  0  0  0  0
   -3.2099   -0.0659    1.9376 C   0  0  2  0  0  0  0  0  0  0  0  0
   -1.8046   -0.6953    1.8165 C   0  0  0  0  0  0  0  0  0  0  0  0
   -1.6216   -1.8265    2.2526 O   0  0  0  0  0  0  0  0  0  0  0  0
   -3.2153    1.0438    2.9944 C   0  0  0  0  0  0  0  0  0  0  0  0
   -3.8649   -1.9649    2.6368 H   0  0  0  0  0  0  0  0  0  0  0  0
   -3.4600    0.3632    0.9612 H   0  0  0  0  0  0  0  0  0  0  0  0
   -2.9623    0.6367    3.9786 H   0  0  0  0  0  0  0  0  0  0  0  0
   -2.4881    1.8208    2.7406 H   0  0  0  0  0  0  0  0  0  0  0  0
   -4.2056    1.5066    3.0531 H   0  0  0  0  0  0  0  0  0  0  0  0
   -0.7951    0.0166    1.1856 N   0  0  0  0  0  0  0  0  0  0  0  0
    0.5187   -0.5010    0.7435 C   0  0  2  0  0  0  0  0  0  0  0  0
    0.4741   -1.0417   -0.7049 C   0  0  0  0  0  0  0  0  0  0  0  0
   -0.5179   -0.8714   -1.4052 O   0  0  0  0  0  0  0  0  0  0  0  0
    1.1839   -1.4979    1.7083 C   0  0  0  0  0  0  0  0  0  0  0  0
   -1.1261    0.8428    0.6941 H   0  0  0  0  0  0  0  0  0  0  0  0
    1.1849    0.3662    0.7139 H   0  0  0  0  0  0  0  0  0  0  0  0
    0.7314   -2.4906    1.6201 H   0  0  0  0  0  0  0  0  0  0  0  0
    2.2509   -1.5920    1.4857 H   0  0  0  0  0  0  0  0  0  0  0  0
    1.0790   -1.1543    2.7420 H   0  0  0  0  0  0  0  0  0  0  0  0
    1.6099   -1.5681   -1.2893 N   0  0  0  0  0  0  0  0  0  0  0  0
    1.6361   -2.2094   -2.6097 C   0  0  2  0  0  0  0  0  0  0  0  0
    2.6457   -3.3759   -2.6374 C   0  0  0  0  0  0  0  0  0  0  0  0
    3.4717   -3.4930   -1.7377 O   0  0  0  0  0  0  0  0  0  0  0  0
    1.9989   -1.1528   -3.6569 C   0  0  0  0  0  0  0  0  0  0  0  0
    2.3823   -1.8029   -0.6659 H   0  0  0  0  0  0  0  0  0  0  0  0
    0.6491   -2.6238   -2.8422 H   0  0  0  0  0  0  0  0  0  0  0  0
    2.9880   -0.7318   -3.4500 H   0  0  0  0  0  0  0  0  0  0  0  0
    2.0088   -1.5918   -4.6590 H   0  0  0  0  0  0  0  0  0  0  0  0
    1.2646   -0.3411   -3.6439 H   0  0  0  0  0  0  0  0  0  0  0  0
    2.6207   -4.3034   -3.6623 N   0  0  0  0  0  0  0  0  0  0  0  0
    3.5278   -5.4427   -3.7321 C   0  0  0  0  0  0  0  0  0  0  0  0
    1.9049   -4.1986   -4.3757 H   0  0  0  0  0  0  0  0  0  0  0  0
    4.5670   -5.1015   -3.7877 H   0  0  0  0  0  0  0  0  0  0  0  0
    3.4132   -6.0805   -2.8491 H   0  0  0  0  0  0  0  0  0  0  0  0
    3.3126   -6.0434   -4.6210 H   0  0  0  0  0  0  0  0  0  0  0  0
  1  2  2  0  0  0  0
  1  3  1  0  0  0  0
  1  7  1  0  0  0  0
  3  4  1  0  0  0  0
  3  5  1  0  0  0  0
  3  6  1  0  0  0  0
  7  8  1  0  0  0  0
  7 12  1  0  0  0  0
  8  9  1  0  0  0  0
  8 11  1  0  0  0  0
  8 13  1  0  0  0  0
  9 10  2  0  0  0  0
  9 17  1  0  0  0  0
 11 14  1  0  0  0  0
 11 15  1  0  0  0  0
 11 16  1  0  0  0  0
 17 18  1  0  0  0  0
 17 22  1  0  0  0  0
 18 19  1  0  0  0  0
 18 21  1  0  0  0  0
 18 23  1  0  0  0  0
 19 20  2  0  0  0  0
 19 27  1  0  0  0  0
 21 24  1  0  0  0  0
 21 25  1  0  0  0  0
 21 26  1  0  0  0  0
 27 28  1  0  0  0  0
 27 32  1  0  0  0  0
 28 29  1  0  0  0  0
 28 31  1  0  0  0  0
 28 33  1  0  0  0  0
 29 30  2  0  0  0  0
 29 37  1  0  0  0  0
 31 34  1  0  0  0  0
 31 35  1  0  0  0  0
 31 36  1  0  0  0  0
 37 38  1  0  0  0  0
 37 39  1  0  0  0  0
 38 40  1  0  0  0  0
 38 41  1  0  0  0  0
 38 42  1  0  0  0  0
M  END
$$$$

  -OEChem-05262215353D

 42 41  0     1  0  0  0  0  0999 V2000
   -5.4863   -0.9771    1.8355 C   0  0  0  0  0  0  0  0  0  0  0  0
   -5.9010    0.0656    1.3545 O   0  0  0  0  0  0  0  0  0  0  0  0
   -6.3967   -2.1872    1.9252 C   0  0  0  0  0  0  0  0  0  0  0  0
   -6.4303   -2.5548    2.9534 H   0  0  0  0  0  0  0  0  0  0  0  0
   -7.4103   -1.9204    1.6132 H   0  0  0  0  0  0  0  0  0  0  0  0
   -6.0247   -2.9814    1.2732 H   0  0  0  0  0  0  0  0  0  0  0  0
   -4.1843   -1.0652    2.2795 N   0  0  0  0  0  0  0  0  0  0  0  0
   -3.1605   -0.0403    2.0412 C   0  0  2  0  0  0  0  0  0  0  0  0
   -1.7668   -0.6699    1.8363 C   0  0  0  0  0  0  0  0  0  0  0  0
   -1.5632   -1.8092    2.2404 O   0  0  0  0  0  0  0  0  0  0  0  0
   -3.1434    0.9174    3.2357 C   0  0  0  0  0  0  0  0  0  0  0  0
   -3.8467   -1.9864    2.5566 H   0  0  0  0  0  0  0  0  0  0  0  0
   -3.4036    0.5194    1.1316 H   0  0  0  0  0  0  0  0  0  0  0  0
   -2.8937    0.3775    4.1549 H   0  0  0  0  0  0  0  0  0  0  0  0
   -2.4023    1.7080    3.0831 H   0  0  0  0  0  0  0  0  0  0  0  0
   -4.1258    1.3840    3.3607 H   0  0  0  0  0  0  0  0  0  0  0  0
   -0.7933    0.0473    1.1586 N   0  0  0  0  0  0  0  0  0  0  0  0
    0.5279   -0.4420    0.7108 C   0  0  2  0  0  0  0  0  0  0  0  0
    0.4670   -1.0401   -0.7145 C   0  0  0  0  0  0  0  0  0  0  0  0
   -0.4500   -0.7399   -1.4711 O   0  0  0  0  0  0  0  0  0  0  0  0
    1.2453   -1.3628    1.7144 C   0  0  0  0  0  0  0  0  0  0  0  0
   -1.1437    0.8719    0.6775 H   0  0  0  0  0  0  0  0  0  0  0  0
    1.1624    0.4452    0.6264 H   0  0  0  0  0  0  0  0  0  0  0  0
    0.8327   -2.3762    1.6837 H   0  0  0  0  0  0  0  0  0  0  0  0
    2.3126   -1.4236    1.4813 H   0  0  0  0  0  0  0  0  0  0  0  0
    1.1397   -0.9716    2.7310 H   0  0  0  0  0  0  0  0  0  0  0  0
    1.4976   -1.8220   -1.1997 N   0  0  0  0  0  0  0  0  0  0  0  0
    1.4409   -2.5686   -2.4619 C   0  0  2  0  0  0  0  0  0  0  0  0
    2.1942   -3.9097   -2.3401 C   0  0  0  0  0  0  0  0  0  0  0  0
    2.9395   -4.1092   -1.3862 O   0  0  0  0  0  0  0  0  0  0  0  0
    2.0474   -1.6998   -3.5671 C   0  0  0  0  0  0  0  0  0  0  0  0
    2.1773   -2.1576   -0.5170 H   0  0  0  0  0  0  0  0  0  0  0  0
    0.3996   -2.7991   -2.7118 H   0  0  0  0  0  0  0  0  0  0  0  0
    3.0933   -1.4695   -3.3413 H   0  0  0  0  0  0  0  0  0  0  0  0
    2.0034   -2.2154   -4.5307 H   0  0  0  0  0  0  0  0  0  0  0  0
    1.4944   -0.7593   -3.6546 H   0  0  0  0  0  0  0  0  0  0  0  0
    2.0229   -4.9039   -3.2852 N   0  0  0  0  0  0  0  0  0  0  0  0
    2.6594   -6.2124   -3.1907 C   0  0  0  0  0  0  0  0  0  0  0  0
    1.3654   -4.7286   -4.0395 H   0  0  0  0  0  0  0  0  0  0  0  0
    3.7477   -6.1065   -3.1268 H   0  0  0  0  0  0  0  0  0  0  0  0
    2.3053   -6.7469   -2.3028 H   0  0  0  0  0  0  0  0  0  0  0  0
    2.4235   -6.8133   -4.0744 H   0  0  0  0  0  0  0  0  0  0  0  0
  1  2  2  0  0  0  0
  1  3  1  0  0  0  0
  1  7  1  0  0  0  0
  3  4  1  0  0  0  0
  3  5  1  0  0  0  0
  3  6  1  0  0  0  0
  7  8  1  0  0  0  0
  7 12  1  0  0  0  0
  8  9  1  0  0  0  0
  8 11  1  0  0  0  0
  8 13  1  0  0  0  0
  9 10  2  0  0  0  0
  9 17  1  0  0  0  0
 11 14  1  0  0  0  0
 11 15  1  0  0  0  0
 11 16  1  0  0  0  0
 17 18  1  0  0  0  0
 17 22  1  0  0  0  0
 18 19  1  0  0  0  0
 18 21  1  0  0  0  0
 18 23  1  0  0  0  0
 19 20  2  0  0  0  0
 19 27  1  0  0  0  0
 21 24  1  0  0  0  0
 21 25  1  0  0  0  0
 21 26  1  0  0  0  0
 27 28  1  0  0  0  0
 27 32  1  0  0  0  0
 28 29  1  0  0  0  0
 28 31  1  0  0  0  0
 28 33  1  0  0  0  0
 29 30  2  0  0  0  0
 29 37  1  0  0  0  0
 31 34  1  0  0  0  0
 31 35  1  0  0  0  0
 31 36  1  0  0  0  0
 37 38  1  0  0  0  0
 37 39  1  0  0  0  0
 38 40  1  0  0  0  0
 38 41  1  0  0  0  0
 38 42  1  0  0  0  0
M  END
$$$$

  -OEChem-05262215353D

 42 41  0     1  0  0  0  0  0999 V2000
   -5.5336   -0.9802    1.9333 C   0  0  0  0  0  0  0  0  0  0  0  0
   -5.9635    0.0099    1.3624 O   0  0  0  0  0  0  0  0  0  0  0  0
   -6.4530   -2.1516    2.2234 C   0  0  0  0  0  0  0  0  0  0  0  0
   -6.4710   -2.3556    3.2969 H   0  0  0  0  0  0  0  0  0  0  0  0
   -7.4700   -1.9246    1.8910 H   0  0  0  0  0  0  0  0  0  0  0  0
   -6.0996   -3.0413    1.6962 H   0  0  0  0  0  0  0  0  0  0  0  0
   -4.2084   -1.0434    2.3069 N   0  0  0  0  0  0  0  0  0  0  0  0
   -3.1909   -0.0550    1.9276 C   0  0  2  0  0  0  0  0  0  0  0  0
   -1.7894   -0.6947    1.8252 C   0  0  0  0  0  0  0  0  0  0  0  0
   -1.6155   -1.8242    2.2683 O   0  0  0  0  0  0  0  0  0  0  0  0
   -3.1940    1.0713    2.9656 C   0  0  0  0  0  0  0  0  0  0  0  0
   -3.8653   -1.9334    2.6679 H   0  0  0  0  0  0  0  0  0  0  0  0
   -3.4330    0.3596    0.9429 H   0  0  0  0  0  0  0  0  0  0  0  0
   -2.9544    0.6767    3.9580 H   0  0  0  0  0  0  0  0  0  0  0  0
   -2.4562    1.8363    2.7062 H   0  0  0  0  0  0  0  0  0  0  0  0
   -4.1799    1.5450    3.0070 H   0  0  0  0  0  0  0  0  0  0  0  0
   -0.7749   -0.0060    1.1788 N   0  0  0  0  0  0  0  0  0  0  0  0
    0.5515   -0.5270    0.7857 C   0  0  2  0  0  0  0  0  0  0  0  0
    0.5103   -1.1313   -0.6370 C   0  0  0  0  0  0  0  0  0  0  0  0
   -0.2234   -0.6300   -1.4821 O   0  0  0  0  0  0  0  0  0  0  0  0
    1.2193   -1.4471    1.8248 C   0  0  0  0  0  0  0  0  0  0  0  0
   -1.0928    0.8107    0.6620 H   0  0  0  0  0  0  0  0  0  0  0  0
    1.2084    0.3450    0.7109 H   0  0  0  0  0  0  0  0  0  0  0  0
    0.7750   -2.4472    1.8134 H   0  0  0  0  0  0  0  0  0  0  0  0
    2.2880   -1.5481    1.6123 H   0  0  0  0  0  0  0  0  0  0  0  0
    1.1087   -1.0270    2.8293 H   0  0  0  0  0  0  0  0  0  0  0  0
    1.3411   -2.1715   -1.0088 N   0  0  0  0  0  0  0  0  0  0  0  0
    1.2604   -2.8742   -2.2954 C   0  0  2  0  0  0  0  0  0  0  0  0
    1.6633   -4.3567   -2.1512 C   0  0  0  0  0  0  0  0  0  0  0  0
    2.2599   -4.7365   -1.1491 O   0  0  0  0  0  0  0  0  0  0  0  0
    2.1760   -2.1631   -3.2959 C   0  0  0  0  0  0  0  0  0  0  0  0
    1.8317   -2.6602   -0.2596 H   0  0  0  0  0  0  0  0  0  0  0  0
    0.2299   -2.8492   -2.6661 H   0  0  0  0  0  0  0  0  0  0  0  0
    3.2119   -2.1773   -2.9424 H   0  0  0  0  0  0  0  0  0  0  0  0
    2.1337   -2.6545   -4.2724 H   0  0  0  0  0  0  0  0  0  0  0  0
    1.8640   -1.1214   -3.4210 H   0  0  0  0  0  0  0  0  0  0  0  0
    1.3476   -5.2692   -3.1412 N   0  0  0  0  0  0  0  0  0  0  0  0
    1.6716   -6.6881   -3.0553 C   0  0  0  0  0  0  0  0  0  0  0  0
    0.8205   -4.9320   -3.9416 H   0  0  0  0  0  0  0  0  0  0  0  0
    2.7520   -6.8287   -2.9446 H   0  0  0  0  0  0  0  0  0  0  0  0
    1.1666   -7.1460   -2.1983 H   0  0  0  0  0  0  0  0  0  0  0  0
    1.3487   -7.2054   -3.9639 H   0  0  0  0  0  0  0  0  0  0  0  0
  1  2  2  0  0  0  0
  1  3  1  0  0  0  0
  1  7  1  0  0  0  0
  3  4  1  0  0  0  0
  3  5  1  0  0  0  0
  3  6  1  0  0  0  0
  7  8  1  0  0  0  0
  7 12  1  0  0  0  0
  8  9  1  0  0  0  0
  8 11  1  0  0  0  0
  8 13  1  0  0  0  0
  9 10  2  0  0  0  0
  9 17  1  0  0  0  0
 11 14  1  0  0  0  0
 11 15  1  0  0  0  0
 11 16  1  0  0  0  0
 17 18  1  0  0  0  0
 17 22  1  0  0  0  0
 18 19  1  0  0  0  0
 18 21  1  0  0  0  0
 18 23  1  0  0  0  0
 19 20  2  0  0  0  0
 19 27  1  0  0  0  0
 21 24  1  0  0  0  0
 21 25  1  0  0  0  0
 21 26  1  0  0  0  0
 27 28  1  0  0  0  0
 27 32  1  0  0  0  0
 28 29  1  0  0  0  0
 28 31  1  0  0  0  0
 28 33  1  0  0  0  0
 29 30  2  0  0  0  0
 29 37  1  0  0  0  0
 31 34  1  0  0  0  0
 31 35  1  0  0  0  0
 31 36  1  0  0  0  0
 37 38  1  0  0  0  0
 37 39  1  0  0  0  0
 38 40  1  0  0  0  0
 38 41  1  0  0  0  0
 38 42  1  0  0  0  0
M  END
$$$$

  -OEChem-05262215353D

 42 41  0     1  0  0  0  0  0999 V2000
   -5.5370   -0.9461    1.9527 C   0  0  0  0  0  0  0  0  0  0  0  0
   -5.9564    0.0357    1.3604 O   0  0  0  0  0  0  0  0  0  0  0  0
   -6.4613   -2.1132    2.2445 C   0  0  0  0  0  0  0  0  0  0  0  0
   -6.4652   -2.3277    3.3158 H   0  0  0  0  0  0  0  0  0  0  0  0
   -7.4809   -1.8750    1.9293 H   0  0  0  0  0  0  0  0  0  0  0  0
   -6.1228   -3.0002    1.7034 H   0  0  0  0  0  0  0  0  0  0  0  0
   -4.2172   -1.0063    2.3455 N   0  0  0  0  0  0  0  0  0  0  0  0
   -3.1878   -0.0380    1.9458 C   0  0  2  0  0  0  0  0  0  0  0  0
   -1.7985   -0.7034    1.8291 C   0  0  0  0  0  0  0  0  0  0  0  0
   -1.6437   -1.8416    2.2560 O   0  0  0  0  0  0  0  0  0  0  0  0
   -3.1614    1.0971    2.9743 C   0  0  0  0  0  0  0  0  0  0  0  0
   -3.8820   -1.8953    2.7158 H   0  0  0  0  0  0  0  0  0  0  0  0
   -3.4345    0.3742    0.9612 H   0  0  0  0  0  0  0  0  0  0  0  0
   -2.9171    0.7089    3.9684 H   0  0  0  0  0  0  0  0  0  0  0  0
   -2.4145    1.8480    2.6993 H   0  0  0  0  0  0  0  0  0  0  0  0
   -4.1395    1.5868    3.0225 H   0  0  0  0  0  0  0  0  0  0  0  0
   -0.7737   -0.0318    1.1815 N   0  0  0  0  0  0  0  0  0  0  0  0
    0.5520   -0.5625    0.8015 C   0  0  2  0  0  0  0  0  0  0  0  0
    0.5109   -1.1801   -0.6143 C   0  0  0  0  0  0  0  0  0  0  0  0
   -0.0433   -0.5602   -1.5150 O   0  0  0  0  0  0  0  0  0  0  0  0
    1.2134   -1.4690    1.8567 C   0  0  0  0  0  0  0  0  0  0  0  0
   -1.0673    0.8083    0.6888 H   0  0  0  0  0  0  0  0  0  0  0  0
    1.2128    0.3055    0.7155 H   0  0  0  0  0  0  0  0  0  0  0  0
    0.7467   -2.4582    1.8862 H   0  0  0  0  0  0  0  0  0  0  0  0
    2.2749   -1.6024    1.6266 H   0  0  0  0  0  0  0  0  0  0  0  0
    1.1312   -1.0158    2.8493 H   0  0  0  0  0  0  0  0  0  0  0  0
    1.0937   -2.3999   -0.9024 N   0  0  0  0  0  0  0  0  0  0  0  0
    0.9411   -3.1099   -2.1784 C   0  0  2  0  0  0  0  0  0  0  0  0
    1.0061   -4.6389   -1.9821 C   0  0  0  0  0  0  0  0  0  0  0  0
    1.4367   -5.1070   -0.9335 O   0  0  0  0  0  0  0  0  0  0  0  0
    2.0450   -2.6422   -3.1321 C   0  0  0  0  0  0  0  0  0  0  0  0
    1.4102   -2.9593   -0.1099 H   0  0  0  0  0  0  0  0  0  0  0  0
   -0.0368   -2.8780   -2.6139 H   0  0  0  0  0  0  0  0  0  0  0  0
    3.0317   -2.8638   -2.7131 H   0  0  0  0  0  0  0  0  0  0  0  0
    1.9558   -3.1451   -4.0996 H   0  0  0  0  0  0  0  0  0  0  0  0
    1.9710   -1.5627   -3.2976 H   0  0  0  0  0  0  0  0  0  0  0  0
    0.5715   -5.4926   -2.9793 N   0  0  0  0  0  0  0  0  0  0  0  0
    0.5699   -6.9442   -2.8451 C   0  0  0  0  0  0  0  0  0  0  0  0
    0.1910   -5.0753   -3.8237 H   0  0  0  0  0  0  0  0  0  0  0  0
    1.5818   -7.3126   -2.6461 H   0  0  0  0  0  0  0  0  0  0  0  0
   -0.0853   -7.2518   -2.0234 H   0  0  0  0  0  0  0  0  0  0  0  0
    0.2096   -7.4089   -3.7678 H   0  0  0  0  0  0  0  0  0  0  0  0
  1  2  2  0  0  0  0
  1  3  1  0  0  0  0
  1  7  1  0  0  0  0
  3  4  1  0  0  0  0
  3  5  1  0  0  0  0
  3  6  1  0  0  0  0
  7  8  1  0  0  0  0
  7 12  1  0  0  0  0
  8  9  1  0  0  0  0
  8 11  1  0  0  0  0
  8 13  1  0  0  0  0
  9 10  2  0  0  0  0
  9 17  1  0  0  0  0
 11 14  1  0  0  0  0
 11 15  1  0  0  0  0
 11 16  1  0  0  0  0
 17 18  1  0  0  0  0
 17 22  1  0  0  0  0
 18 19  1  0  0  0  0
 18 21  1  0  0  0  0
 18 23  1  0  0  0  0
 19 20  2  0  0  0  0
 19 27  1  0  0  0  0
 21 24  1  0  0  0  0
 21 25  1  0  0  0  0
 21 26  1  0  0  0  0
 27 28  1  0  0  0  0
 27 32  1  0  0  0  0
 28 29  1  0  0  0  0
 28 31  1  0  0  0  0
 28 33  1  0  0  0  0
 29 30  2  0  0  0  0
 29 37  1  0  0  0  0
 31 34  1  0  0  0  0
 31 35  1  0  0  0  0
 31 36  1  0  0  0  0
 37 38  1  0  0  0  0
 37 39  1  0  0  0  0
 38 40  1  0  0  0  0
 38 41  1  0  0  0  0
 38 42  1  0  0  0  0
M  END
$$$$

  -OEChem-05262215353D

 42 41  0     1  0  0  0  0  0999 V2000
   -5.5267   -0.9141    1.9371 C   0  0  0  0  0  0  0  0  0  0  0  0
   -5.9254    0.0898    1.3680 O   0  0  0  0  0  0  0  0  0  0  0  0
   -6.4696   -2.0780    2.1778 C   0  0  0  0  0  0  0  0  0  0  0  0
   -6.5309   -2.2936    3.2472 H   0  0  0  0  0  0  0  0  0  0  0  0
   -7.4701   -1.8347    1.8095 H   0  0  0  0  0  0  0  0  0  0  0  0
   -6.1072   -2.9660    1.6540 H   0  0  0  0  0  0  0  0  0  0  0  0
   -4.2139   -0.9995    2.3492 N   0  0  0  0  0  0  0  0  0  0  0  0
   -3.1719   -0.0261    1.9968 C   0  0  2  0  0  0  0  0  0  0  0  0
   -1.7965   -0.7061    1.8241 C   0  0  0  0  0  0  0  0  0  0  0  0
   -1.6439   -1.8563    2.2174 O   0  0  0  0  0  0  0  0  0  0  0  0
   -3.1137    1.0410    3.0935 C   0  0  0  0  0  0  0  0  0  0  0  0
   -3.8920   -1.9036    2.6948 H   0  0  0  0  0  0  0  0  0  0  0  0
   -3.4216    0.4512    1.0427 H   0  0  0  0  0  0  0  0  0  0  0  0
   -2.8630    0.5865    4.0572 H   0  0  0  0  0  0  0  0  0  0  0  0
   -2.3583    1.7961    2.8564 H   0  0  0  0  0  0  0  0  0  0  0  0
   -4.0833    1.5408    3.1854 H   0  0  0  0  0  0  0  0  0  0  0  0
   -0.7826   -0.0378    1.1572 N   0  0  0  0  0  0  0  0  0  0  0  0
    0.5429   -0.5660    0.7765 C   0  0  2  0  0  0  0  0  0  0  0  0
    0.4909   -1.2075   -0.6270 C   0  0  0  0  0  0  0  0  0  0  0  0
    0.1331   -0.5204   -1.5763 O   0  0  0  0  0  0  0  0  0  0  0  0
    1.2221   -1.4458    1.8430 C   0  0  0  0  0  0  0  0  0  0  0  0
   -1.0650    0.8279    0.7034 H   0  0  0  0  0  0  0  0  0  0  0  0
    1.1967    0.3051    0.6691 H   0  0  0  0  0  0  0  0  0  0  0  0
    0.7580   -2.4341    1.9096 H   0  0  0  0  0  0  0  0  0  0  0  0
    2.2785   -1.5862    1.5950 H   0  0  0  0  0  0  0  0  0  0  0  0
    1.1599   -0.9657    2.8244 H   0  0  0  0  0  0  0  0  0  0  0  0
    0.7988   -2.5380   -0.8387 N   0  0  0  0  0  0  0  0  0  0  0  0
    0.5744   -3.2491   -2.1031 C   0  0  2  0  0  0  0  0  0  0  0  0
    0.2746   -4.7429   -1.8618 C   0  0  0  0  0  0  0  0  0  0  0  0
    0.5544   -5.2618   -0.7867 O   0  0  0  0  0  0  0  0  0  0  0  0
    1.8186   -3.0897   -2.9820 C   0  0  0  0  0  0  0  0  0  0  0  0
    0.9143   -3.1196   -0.0079 H   0  0  0  0  0  0  0  0  0  0  0  0
   -0.2919   -2.8203   -2.6182 H   0  0  0  0  0  0  0  0  0  0  0  0
    2.6960   -3.5105   -2.4808 H   0  0  0  0  0  0  0  0  0  0  0  0
    1.6826   -3.6043   -3.9378 H   0  0  0  0  0  0  0  0  0  0  0  0
    2.0077   -2.0309   -3.1849 H   0  0  0  0  0  0  0  0  0  0  0  0
   -0.3109   -5.5094   -2.8524 N   0  0  0  0  0  0  0  0  0  0  0  0
   -0.6248   -6.9236   -2.6875 C   0  0  0  0  0  0  0  0  0  0  0  0
   -0.5555   -5.0476   -3.7236 H   0  0  0  0  0  0  0  0  0  0  0  0
    0.2878   -7.4987   -2.4984 H   0  0  0  0  0  0  0  0  0  0  0  0
   -1.3127   -7.0689   -1.8480 H   0  0  0  0  0  0  0  0  0  0  0  0
   -1.0986   -7.3147   -3.5930 H   0  0  0  0  0  0  0  0  0  0  0  0
  1  2  2  0  0  0  0
  1  3  1  0  0  0  0
  1  7  1  0  0  0  0
  3  4  1  0  0  0  0
  3  5  1  0  0  0  0
  3  6  1  0  0  0  0
  7  8  1  0  0  0  0
  7 12  1  0  0  0  0
  8  9  1  0  0  0  0
  8 11  1  0  0  0  0
  8 13  1  0  0  0  0
  9 10  2  0  0  0  0
  9 17  1  0  0  0  0
 11 14  1  0  0  0  0
 11 15  1  0  0  0  0
 11 16  1  0  0  0  0
 17 18  1  0  0  0  0
 17 22  1  0  0  0  0
 18 19  1  0  0  0  0
 18 21  1  0  0  0  0
 18 23  1  0  0  0  0
 19 20  2  0  0  0  0
 19 27  1  0  0  0  0
 21 24  1  0  0  0  0
 21 25  1  0  0  0  0
 21 26  1  0  0  0  0
 27 28  1  0  0  0  0
 27 32  1  0  0  0  0
 28 29  1  0  0  0  0
 28 31  1  0  0  0  0
 28 33  1  0  0  0  0
 29 30  2  0  0  0  0
 29 37  1  0  0  0  0
 31 34  1  0  0  0  0
 31 35  1  0  0  0  0
 31 36  1  0  0  0  0
 37 38  1  0  0  0  0
 37 39  1  0  0  0  0
 38 40  1  0  0  0  0
 38 41  1  0  0  0  0
 38 42  1  0  0  0  0
M  END
$$$$

  -OEChem-05262215353D

 42 41  0     1  0  0  0  0  0999 V2000
   -5.5389   -0.8800    2.0122 C   0  0  0  0  0  0  0  0  0  0  0  0
   -5.9390    0.1204    1.4377 O   0  0  0  0  0  0  0  0  0  0  0  0
   -6.4861   -2.0331    2.2845 C   0  0  0  0  0  0  0  0  0  0  0  0
   -6.5406   -2.2252    3.3588 H   0  0  0  0  0  0  0  0  0  0  0  0
   -7.4878   -1.7930    1.9177 H   0  0  0  0  0  0  0  0  0  0  0  0
   -6.1318   -2.9341    1.7780 H   0  0  0  0  0  0  0  0  0  0  0  0
   -4.2212   -0.9709    2.4062 N   0  0  0  0  0  0  0  0  0  0  0  0
   -3.1763   -0.0114    2.0261 C   0  0  2  0  0  0  0  0  0  0  0  0
   -1.8136   -0.7093    1.8262 C   0  0  0  0  0  0  0  0  0  0  0  0
   -1.6727   -1.8683    2.1969 O   0  0  0  0  0  0  0  0  0  0  0  0
   -3.0855    1.0612    3.1152 C   0  0  0  0  0  0  0  0  0  0  0  0
   -3.9006   -1.8775    2.7465 H   0  0  0  0  0  0  0  0  0  0  0  0
   -3.4399    0.4635    1.0748 H   0  0  0  0  0  0  0  0  0  0  0  0
   -2.8209    0.6098    4.0767 H   0  0  0  0  0  0  0  0  0  0  0  0
   -2.3275    1.8073    2.8588 H   0  0  0  0  0  0  0  0  0  0  0  0
   -4.0480    1.5716    3.2228 H   0  0  0  0  0  0  0  0  0  0  0  0
   -0.8008   -0.0544    1.1449 N   0  0  0  0  0  0  0  0  0  0  0  0
    0.5169   -0.5975    0.7609 C   0  0  2  0  0  0  0  0  0  0  0  0
    0.4461   -1.2527   -0.6334 C   0  0  0  0  0  0  0  0  0  0  0  0
    0.3466   -0.5336   -1.6200 O   0  0  0  0  0  0  0  0  0  0  0  0
    1.2017   -1.4721    1.8280 C   0  0  0  0  0  0  0  0  0  0  0  0
   -1.0581    0.8415    0.7378 H   0  0  0  0  0  0  0  0  0  0  0  0
    1.1773    0.2669    0.6389 H   0  0  0  0  0  0  0  0  0  0  0  0
    0.7220   -2.4499    1.9254 H   0  0  0  0  0  0  0  0  0  0  0  0
    2.2490   -1.6380    1.5581 H   0  0  0  0  0  0  0  0  0  0  0  0
    1.1710   -0.9729    2.8011 H   0  0  0  0  0  0  0  0  0  0  0  0
    0.4379   -2.6252   -0.7926 N   0  0  0  0  0  0  0  0  0  0  0  0
    0.1934   -3.3083   -2.0694 C   0  0  2  0  0  0  0  0  0  0  0  0
   -0.4747   -4.6840   -1.8632 C   0  0  0  0  0  0  0  0  0  0  0  0
   -0.4812   -5.2093   -0.7558 O   0  0  0  0  0  0  0  0  0  0  0  0
    1.5312   -3.4678   -2.7991 C   0  0  0  0  0  0  0  0  0  0  0  0
    0.3057   -3.1811    0.0541 H   0  0  0  0  0  0  0  0  0  0  0  0
   -0.4858   -2.7069   -2.6829 H   0  0  0  0  0  0  0  0  0  0  0  0
    2.2242   -4.0659   -2.1989 H   0  0  0  0  0  0  0  0  0  0  0  0
    1.3877   -3.9640   -3.7635 H   0  0  0  0  0  0  0  0  0  0  0  0
    1.9840   -2.4880   -2.9808 H   0  0  0  0  0  0  0  0  0  0  0  0
   -1.0786   -5.3351   -2.9236 N   0  0  0  0  0  0  0  0  0  0  0  0
   -1.7554   -6.6199   -2.7917 C   0  0  0  0  0  0  0  0  0  0  0  0
   -1.0817   -4.8662   -3.8248 H   0  0  0  0  0  0  0  0  0  0  0  0
   -1.0620   -7.3830   -2.4223 H   0  0  0  0  0  0  0  0  0  0  0  0
   -2.5955   -6.5397   -2.0936 H   0  0  0  0  0  0  0  0  0  0  0  0
   -2.1420   -6.9461   -3.7622 H   0  0  0  0  0  0  0  0  0  0  0  0
  1  2  2  0  0  0  0
  1  3  1  0  0  0  0
  1  7  1  0  0  0  0
  3  4  1  0  0  0  0
  3  5  1  0  0  0  0
  3  6  1  0  0  0  0
  7  8  1  0  0  0  0
  7 12  1  0  0  0  0
  8  9  1  0  0  0  0
  8 11  1  0  0  0  0
  8 13  1  0  0  0  0
  9 10  2  0  0  0  0
  9 17  1  0  0  0  0
 11 14  1  0  0  0  0
 11 15  1  0  0  0  0
 11 16  1  0  0  0  0
 17 18  1  0  0  0  0
 17 22  1  0  0  0  0
 18 19  1  0  0  0  0
 18 21  1  0  0  0  0
 18 23  1  0  0  0  0
 19 20  2  0  0  0  0
 19 27  1  0  0  0  0
 21 24  1  0  0  0  0
 21 25  1  0  0  0  0
 21 26  1  0  0  0  0
 27 28  1  0  0  0  0
 27 32  1  0  0  0  0
 28 29  1  0  0  0  0
 28 31  1  0  0  0  0
 28 33  1  0  0  0  0
 29 30  2  0  0  0  0
 29 37  1  0  0  0  0
 31 34  1  0  0  0  0
 31 35  1  0  0  0  0
 31 36  1  0  0  0  0
 37 38  1  0  0  0  0
 37 39  1  0  0  0  0
 38 40  1  0  0  0  0
 38 41  1  0  0  0  0
 38 42  1  0  0  0  0
M  END
$$$$

  -OEChem-05262215353D

 42 41  0     1  0  0  0  0  0999 V2000
   -5.4450   -0.9346    1.8555 C   0  0  0  0  0  0  0  0  0  0  0  0
   -5.8306    0.1065    1.3473 O   0  0  0  0  0  0  0  0  0  0  0  0
   -6.3603   -2.1436    1.8992 C   0  0  0  0  0  0  0  0  0  0  0  0
   -6.5175   -2.4559    2.9343 H   0  0  0  0  0  0  0  0  0  0  0  0
   -7.3287   -1.8996    1.4531 H   0  0  0  0  0  0  0  0  0  0  0  0
   -5.9132   -2.9698    1.3406 H   0  0  0  0  0  0  0  0  0  0  0  0
   -4.1693   -1.0229    2.3704 N   0  0  0  0  0  0  0  0  0  0  0  0
   -3.1241   -0.0138    2.1540 C   0  0  2  0  0  0  0  0  0  0  0  0
   -1.7697   -0.6778    1.8310 C   0  0  0  0  0  0  0  0  0  0  0  0
   -1.5811   -1.8453    2.1500 O   0  0  0  0  0  0  0  0  0  0  0  0
   -3.0169    0.8490    3.4129 C   0  0  0  0  0  0  0  0  0  0  0  0
   -3.8469   -1.9539    2.6348 H   0  0  0  0  0  0  0  0  0  0  0  0
   -3.3869    0.6246    1.3036 H   0  0  0  0  0  0  0  0  0  0  0  0
   -2.7451    0.2339    4.2768 H   0  0  0  0  0  0  0  0  0  0  0  0
   -2.2559    1.6243    3.2828 H   0  0  0  0  0  0  0  0  0  0  0  0
   -3.9752    1.3363    3.6188 H   0  0  0  0  0  0  0  0  0  0  0  0
   -0.8231    0.0028    1.0838 N   0  0  0  0  0  0  0  0  0  0  0  0
    0.4967   -0.5033    0.6611 C   0  0  2  0  0  0  0  0  0  0  0  0
    0.3835   -1.2082   -0.7036 C   0  0  0  0  0  0  0  0  0  0  0  0
    0.5077   -0.5548   -1.7319 O   0  0  0  0  0  0  0  0  0  0  0  0
    1.2667   -1.3193    1.7165 C   0  0  0  0  0  0  0  0  0  0  0  0
   -1.1064    0.9127    0.7288 H   0  0  0  0  0  0  0  0  0  0  0  0
    1.1157    0.3818    0.4815 H   0  0  0  0  0  0  0  0  0  0  0  0
    0.8419   -2.3176    1.8530 H   0  0  0  0  0  0  0  0  0  0  0  0
    2.3089   -1.4396    1.4044 H   0  0  0  0  0  0  0  0  0  0  0  0
    1.2521   -0.8017    2.6804 H   0  0  0  0  0  0  0  0  0  0  0  0
    0.1105   -2.5603   -0.7777 N   0  0  0  0  0  0  0  0  0  0  0  0
   -0.2170   -3.2630   -2.0252 C   0  0  2  0  0  0  0  0  0  0  0  0
   -1.2850   -4.3562   -1.8090 C   0  0  0  0  0  0  0  0  0  0  0  0
   -1.5664   -4.7379   -0.6790 O   0  0  0  0  0  0  0  0  0  0  0  0
    1.0734   -3.8686   -2.5849 C   0  0  0  0  0  0  0  0  0  0  0  0
   -0.2190   -2.9935    0.0891 H   0  0  0  0  0  0  0  0  0  0  0  0
   -0.6273   -2.5552   -2.7533 H   0  0  0  0  0  0  0  0  0  0  0  0
    1.4966   -4.5879   -1.8765 H   0  0  0  0  0  0  0  0  0  0  0  0
    0.8795   -4.3831   -3.5308 H   0  0  0  0  0  0  0  0  0  0  0  0
    1.8123   -3.0816   -2.7664 H   0  0  0  0  0  0  0  0  0  0  0  0
   -1.9474   -4.9079   -2.8905 N   0  0  0  0  0  0  0  0  0  0  0  0
   -2.9866   -5.9227   -2.7611 C   0  0  0  0  0  0  0  0  0  0  0  0
   -1.7148   -4.5557   -3.8143 H   0  0  0  0  0  0  0  0  0  0  0  0
   -2.5876   -6.8204   -2.2768 H   0  0  0  0  0  0  0  0  0  0  0  0
   -3.8225   -5.5423   -2.1644 H   0  0  0  0  0  0  0  0  0  0  0  0
   -3.3670   -6.2024   -3.7483 H   0  0  0  0  0  0  0  0  0  0  0  0
  1  2  2  0  0  0  0
  1  3  1  0  0  0  0
  1  7  1  0  0  0  0
  3  4  1  0  0  0  0
  3  5  1  0  0  0  0
  3  6  1  0  0  0  0
  7  8  1  0  0  0  0
  7 12  1  0  0  0  0
  8  9  1  0  0  0  0
  8 11  1  0  0  0  0
  8 13  1  0  0  0  0
  9 10  2  0  0  0  0
  9 17  1  0  0  0  0
 11 14  1  0  0  0  0
 11 15  1  0  0  0  0
 11 16  1  0  0  0  0
 17 18  1  0  0  0  0
 17 22  1  0  0  0  0
 18 19  1  0  0  0  0
 18 21  1  0  0  0  0
 18 23  1  0  0  0  0
 19 20  2  0  0  0  0
 19 27  1  0  0  0  0
 21 24  1  0  0  0  0
 21 25  1  0  0  0  0
 21 26  1  0  0  0  0
 27 28  1  0  0  0  0
 27 32  1  0  0  0  0
 28 29  1  0  0  0  0
 28 31  1  0  0  0  0
 28 33  1  0  0  0  0
 29 30  2  0  0  0  0
 29 37  1  0  0  0  0
 31 34  1  0  0  0  0
 31 35  1  0  0  0  0
 31 36  1  0  0  0  0
 37 38  1  0  0  0  0
 37 39  1  0  0  0  0
 38 40  1  0  0  0  0
 38 41  1  0  0  0  0
 38 42  1  0  0  0  0
M  END
$$$$

  -OEChem-05262215353D

 42 41  0     1  0  0  0  0  0999 V2000
   -4.4016   -0.4782    0.7284 C   0  0  0  0  0  0  0  0  0  0  0  0
   -4.2323    0.7296    0.8160 O   0  0  0  0  0  0  0  0  0  0  0  0
   -5.1301   -1.0527   -0.4700 C   0  0  0  0  0  0  0  0  0  0  0  0
   -5.7137   -1.9265   -0.1708 H   0  0  0  0  0  0  0  0  0  0  0  0
   -5.8065   -0.3053   -0.8931 H   0  0  0  0  0  0  0  0  0  0  0  0
   -4.4065   -1.3498   -1.2332 H   0  0  0  0  0  0  0  0  0  0  0  0
   -3.7989   -1.3146    1.6443 N   0  0  0  0  0  0  0  0  0  0  0  0
   -2.8761   -0.8329    2.6868 C   0  0  2  0  0  0  0  0  0  0  0  0
   -1.4549   -0.6354    2.1083 C   0  0  0  0  0  0  0  0  0  0  0  0
   -0.5164   -1.3257    2.4891 O   0  0  0  0  0  0  0  0  0  0  0  0
   -2.9274   -1.8425    3.8401 C   0  0  0  0  0  0  0  0  0  0  0  0
   -3.6554   -2.2724    1.3074 H   0  0  0  0  0  0  0  0  0  0  0  0
   -3.2126    0.1349    3.0738 H   0  0  0  0  0  0  0  0  0  0  0  0
   -2.6038   -2.8320    3.5009 H   0  0  0  0  0  0  0  0  0  0  0  0
   -2.2703   -1.5225    4.6549 H   0  0  0  0  0  0  0  0  0  0  0  0
   -3.9470   -1.9231    4.2289 H   0  0  0  0  0  0  0  0  0  0  0  0
   -1.3398    0.0905    0.9356 N   0  0  0  0  0  0  0  0  0  0  0  0
   -0.1834    0.1366    0.0265 C   0  0  2  0  0  0  0  0  0  0  0  0
   -0.3736   -0.9901   -1.0011 C   0  0  0  0  0  0  0  0  0  0  0  0
   -0.8225   -0.7720   -2.1195 O   0  0  0  0  0  0  0  0  0  0  0  0
    1.2100    0.1589    0.6784 C   0  0  0  0  0  0  0  0  0  0  0  0
   -2.2090    0.5354    0.6264 H   0  0  0  0  0  0  0  0  0  0  0  0
   -0.2616    1.0778   -0.5273 H   0  0  0  0  0  0  0  0  0  0  0  0
    1.4835   -0.8162    1.0907 H   0  0  0  0  0  0  0  0  0  0  0  0
    1.9637    0.4296   -0.0673 H   0  0  0  0  0  0  0  0  0  0  0  0
    1.2375    0.8990    1.4838 H   0  0  0  0  0  0  0  0  0  0  0  0
   -0.1442   -2.2872   -0.5849 N   0  0  0  0  0  0  0  0  0  0  0  0
   -0.6637   -3.4451   -1.3194 C   0  0  2  0  0  0  0  0  0  0  0  0
   -2.1771   -3.6829   -1.1048 C   0  0  0  0  0  0  0  0  0  0  0  0
   -2.7292   -3.4005   -0.0436 O   0  0  0  0  0  0  0  0  0  0  0  0
    0.1290   -4.6709   -0.8623 C   0  0  0  0  0  0  0  0  0  0  0  0
   -0.0517   -2.3776    0.4294 H   0  0  0  0  0  0  0  0  0  0  0  0
   -0.4894   -3.2994   -2.3906 H   0  0  0  0  0  0  0  0  0  0  0  0
   -0.0269   -4.8510    0.2067 H   0  0  0  0  0  0  0  0  0  0  0  0
   -0.1900   -5.5603   -1.4145 H   0  0  0  0  0  0  0  0  0  0  0  0
    1.1986   -4.5192   -1.0384 H   0  0  0  0  0  0  0  0  0  0  0  0
   -2.9213   -4.2856   -2.1022 N   0  0  0  0  0  0  0  0  0  0  0  0
   -4.3422   -4.5884   -1.9836 C   0  0  0  0  0  0  0  0  0  0  0  0
   -2.4588   -4.4491   -2.9923 H   0  0  0  0  0  0  0  0  0  0  0  0
   -4.5395   -5.1601   -1.0705 H   0  0  0  0  0  0  0  0  0  0  0  0
   -4.9308   -3.6665   -1.9578 H   0  0  0  0  0  0  0  0  0  0  0  0
   -4.6729   -5.1855   -2.8389 H   0  0  0  0  0  0  0  0  0  0  0  0
  1  2  2  0  0  0  0
  1  3  1  0  0  0  0
  1  7  1  0  0  0  0
  3  4  1  0  0  0  0
  3  5  1  0  0  0  0
  3  6  1  0  0  0  0
  7  8  1  0  0  0  0
  7 12  1  0  0  0  0
  8  9  1  0  0  0  0
  8 11  1  0  0  0  0
  8 13  1  0  0  0  0
  9 10  2  0  0  0  0
  9 17  1  0  0  0  0
 11 14  1  0  0  0  0
 11 15  1  0  0  0  0
 11 16  1  0  0  0  0
 17 18  1  0  0  0  0
 17 22  1  0  0  0  0
 18 19  1  0  0  0  0
 18 21  1  0  0  0  0
 18 23  1  0  0  0  0
 19 20  2  0  0  0  0
 19 27  1  0  0  0  0
 21 24  1  0  0  0  0
 21 25  1  0  0  0  0
 21 26  1  0  0  0  0
 27 28  1  0  0  0  0
 27 32  1  0  0  0  0
 28 29  1  0  0  0  0
 28 31  1  0  0  0  0
 28 33  1  0  0  0  0
 29 30  2  0  0  0  0
 29 37  1  0  0  0  0
 31 34  1  0  0  0  0
 31 35  1  0  0  0  0
 31 36  1  0  0  0  0
 37 38  1  0  0  0  0
 37 39  1  0  0  0  0
 38 40  1  0  0  0  0
 38 41  1  0  0  0  0
 38 42  1  0  0  0  0
M  END
$$$$

  -OEChem-05262215353D

 42 41  0     1  0  0  0  0  0999 V2000
   -4.6695   -0.8032    0.7927 C   0  0  0  0  0  0  0  0  0  0  0  0
   -4.3499    0.3289    0.4554 O   0  0  0  0  0  0  0  0  0  0  0  0
   -5.8572   -1.4944    0.1502 C   0  0  0  0  0  0  0  0  0  0  0  0
   -5.5808   -2.5024   -0.1668 H   0  0  0  0  0  0  0  0  0  0  0  0
   -6.6777   -1.5638    0.8683 H   0  0  0  0  0  0  0  0  0  0  0  0
   -6.1980   -0.9293   -0.7212 H   0  0  0  0  0  0  0  0  0  0  0  0
   -3.9639   -1.4308    1.7963 N   0  0  0  0  0  0  0  0  0  0  0  0
   -2.8878   -0.7914    2.5694 C   0  0  2  0  0  0  0  0  0  0  0  0
   -1.5423   -0.7847    1.8078 C   0  0  0  0  0  0  0  0  0  0  0  0
   -0.6058   -1.4854    2.1757 O   0  0  0  0  0  0  0  0  0  0  0  0
   -2.8085   -1.5155    3.9196 C   0  0  0  0  0  0  0  0  0  0  0  0
   -4.0790   -2.4409    1.8629 H   0  0  0  0  0  0  0  0  0  0  0  0
   -3.1504    0.2533    2.7680 H   0  0  0  0  0  0  0  0  0  0  0  0
   -2.5586   -2.5720    3.7775 H   0  0  0  0  0  0  0  0  0  0  0  0
   -2.0386   -1.0597    4.5502 H   0  0  0  0  0  0  0  0  0  0  0  0
   -3.7670   -1.4504    4.4434 H   0  0  0  0  0  0  0  0  0  0  0  0
   -1.4688   -0.1688    0.5705 N   0  0  0  0  0  0  0  0  0  0  0  0
   -0.2813   -0.0745   -0.3035 C   0  0  2  0  0  0  0  0  0  0  0  0
   -0.2726   -1.3043   -1.2233 C   0  0  0  0  0  0  0  0  0  0  0  0
   -0.4871   -1.2145   -2.4275 O   0  0  0  0  0  0  0  0  0  0  0  0
    1.0608    0.1621    0.4080 C   0  0  0  0  0  0  0  0  0  0  0  0
   -2.3431    0.2639    0.2540 H   0  0  0  0  0  0  0  0  0  0  0  0
   -0.4349    0.7973   -0.9481 H   0  0  0  0  0  0  0  0  0  0  0  0
    1.4186   -0.7419    0.9087 H   0  0  0  0  0  0  0  0  0  0  0  0
    1.8193    0.4624   -0.3213 H   0  0  0  0  0  0  0  0  0  0  0  0
    0.9600    0.9586    1.1512 H   0  0  0  0  0  0  0  0  0  0  0  0
   -0.2178   -2.5424   -0.6112 N   0  0  0  0  0  0  0  0  0  0  0  0
   -0.8702   -3.7176   -1.1958 C   0  0  2  0  0  0  0  0  0  0  0  0
   -2.3901   -3.4882   -1.3940 C   0  0  0  0  0  0  0  0  0  0  0  0
   -3.2042   -3.7177   -0.5026 O   0  0  0  0  0  0  0  0  0  0  0  0
   -0.5875   -4.9093   -0.2749 C   0  0  0  0  0  0  0  0  0  0  0  0
   -0.2174   -2.4800    0.4117 H   0  0  0  0  0  0  0  0  0  0  0  0
   -0.4288   -3.9291   -2.1754 H   0  0  0  0  0  0  0  0  0  0  0  0
   -0.9827   -4.7247    0.7295 H   0  0  0  0  0  0  0  0  0  0  0  0
   -1.0573   -5.8146   -0.6713 H   0  0  0  0  0  0  0  0  0  0  0  0
    0.4902   -5.0824   -0.1977 H   0  0  0  0  0  0  0  0  0  0  0  0
   -2.8175   -2.9351   -2.5856 N   0  0  0  0  0  0  0  0  0  0  0  0
   -4.1836   -2.4956   -2.8302 C   0  0  0  0  0  0  0  0  0  0  0  0
   -2.0735   -2.4813   -3.1211 H   0  0  0  0  0  0  0  0  0  0  0  0
   -4.9027   -3.2501   -2.4941 H   0  0  0  0  0  0  0  0  0  0  0  0
   -4.3782   -1.5559   -2.3048 H   0  0  0  0  0  0  0  0  0  0  0  0
   -4.3384   -2.3329   -3.9012 H   0  0  0  0  0  0  0  0  0  0  0  0
  1  2  2  0  0  0  0
  1  3  1  0  0  0  0
  1  7  1  0  0  0  0
  3  4  1  0  0  0  0
  3  5  1  0  0  0  0
  3  6  1  0  0  0  0
  7  8  1  0  0  0  0
  7 12  1  0  0  0  0
  8  9  1  0  0  0  0
  8 11  1  0  0  0  0
  8 13  1  0  0  0  0
  9 10  2  0  0  0  0
  9 17  1  0  0  0  0
 11 14  1  0  0  0  0
 11 15  1  0  0  0  0
 11 16  1  0  0  0  0
 17 18  1  0  0  0  0
 17 22  1  0  0  0  0
 18 19  1  0  0  0  0
 18 21  1  0  0  0  0
 18 23  1  0  0  0  0
 19 20  2  0  0  0  0
 19 27  1  0  0  0  0
 21 24  1  0  0  0  0
 21 25  1  0  0  0  0
 21 26  1  0  0  0  0
 27 28  1  0  0  0  0
 27 32  1  0  0  0  0
 28 29  1  0  0  0  0
 28 31  1  0  0  0  0
 28 33  1  0  0  0  0
 29 30  2  0  0  0  0
 29 37  1  0  0  0  0
 31 34  1  0  0  0  0
 31 35  1  0  0  0  0
 31 36  1  0  0  0  0
 37 38  1  0  0  0  0
 37 39  1  0  0  0  0
 38 40  1  0  0  0  0
 38 41  1  0  0  0  0
 38 42  1  0  0  0  0
M  END
$$$$

  -OEChem-05262215353D

 42 41  0     1  0  0  0  0  0999 V2000
   -4.7319   -0.5677    0.7919 C   0  0  0  0  0  0  0  0  0  0  0  0
   -4.3242    0.5560    0.5305 O   0  0  0  0  0  0  0  0  0  0  0  0
   -5.9779   -1.1111    0.1172 C   0  0  0  0  0  0  0  0  0  0  0  0
   -5.7826   -2.1028   -0.2970 H   0  0  0  0  0  0  0  0  0  0  0  0
   -6.7894   -1.1863    0.8452 H   0  0  0  0  0  0  0  0  0  0  0  0
   -6.2906   -0.4458   -0.6921 H   0  0  0  0  0  0  0  0  0  0  0  0
   -4.0684   -1.3203    1.7375 N   0  0  0  0  0  0  0  0  0  0  0  0
   -2.9510   -0.8238    2.5581 C   0  0  2  0  0  0  0  0  0  0  0  0
   -1.6025   -0.8323    1.7993 C   0  0  0  0  0  0  0  0  0  0  0  0
   -0.6823   -1.5648    2.1431 O   0  0  0  0  0  0  0  0  0  0  0  0
   -2.9212   -1.6694    3.8379 C   0  0  0  0  0  0  0  0  0  0  0  0
   -4.2852   -2.3152    1.7556 H   0  0  0  0  0  0  0  0  0  0  0  0
   -3.1472    0.2136    2.8496 H   0  0  0  0  0  0  0  0  0  0  0  0
   -2.7350   -2.7221    3.6010 H   0  0  0  0  0  0  0  0  0  0  0  0
   -2.1274   -1.3195    4.5057 H   0  0  0  0  0  0  0  0  0  0  0  0
   -3.8758   -1.5935    4.3674 H   0  0  0  0  0  0  0  0  0  0  0  0
   -1.5170   -0.1923    0.5768 N   0  0  0  0  0  0  0  0  0  0  0  0
   -0.3239   -0.0249   -0.2811 C   0  0  2  0  0  0  0  0  0  0  0  0
   -0.2231   -1.2224   -1.2418 C   0  0  0  0  0  0  0  0  0  0  0  0
   -0.2853   -1.0657   -2.4567 O   0  0  0  0  0  0  0  0  0  0  0  0
    0.9884    0.2314    0.4747 C   0  0  0  0  0  0  0  0  0  0  0  0
   -2.3739    0.2997    0.3024 H   0  0  0  0  0  0  0  0  0  0  0  0
   -0.5000    0.8617   -0.8993 H   0  0  0  0  0  0  0  0  0  0  0  0
    1.3514   -0.6752    0.9673 H   0  0  0  0  0  0  0  0  0  0  0  0
    1.7612    0.5647   -0.2248 H   0  0  0  0  0  0  0  0  0  0  0  0
    0.8458    1.0088    1.2312 H   0  0  0  0  0  0  0  0  0  0  0  0
   -0.4229   -2.4783   -0.6995 N   0  0  0  0  0  0  0  0  0  0  0  0
   -1.1613   -3.5260   -1.4086 C   0  0  2  0  0  0  0  0  0  0  0  0
   -2.6329   -3.1023   -1.6338 C   0  0  0  0  0  0  0  0  0  0  0  0
   -3.5174   -3.3759   -0.8264 O   0  0  0  0  0  0  0  0  0  0  0  0
   -1.0429   -4.8144   -0.5875 C   0  0  0  0  0  0  0  0  0  0  0  0
   -0.5096   -2.4629    0.3211 H   0  0  0  0  0  0  0  0  0  0  0  0
   -0.7047   -3.7033   -2.3881 H   0  0  0  0  0  0  0  0  0  0  0  0
   -1.4550   -4.6730    0.4170 H   0  0  0  0  0  0  0  0  0  0  0  0
   -1.5896   -5.6268   -1.0759 H   0  0  0  0  0  0  0  0  0  0  0  0
    0.0067   -5.1094   -0.4939 H   0  0  0  0  0  0  0  0  0  0  0  0
   -2.9229   -2.3020   -2.7216 N   0  0  0  0  0  0  0  0  0  0  0  0
   -4.2089   -1.6536   -2.9325 C   0  0  0  0  0  0  0  0  0  0  0  0
   -2.1016   -1.8901   -3.1721 H   0  0  0  0  0  0  0  0  0  0  0  0
   -5.0328   -2.3519   -2.7524 H   0  0  0  0  0  0  0  0  0  0  0  0
   -4.3146   -0.7954   -2.2621 H   0  0  0  0  0  0  0  0  0  0  0  0
   -4.2842   -1.2992   -3.9648 H   0  0  0  0  0  0  0  0  0  0  0  0
  1  2  2  0  0  0  0
  1  3  1  0  0  0  0
  1  7  1  0  0  0  0
  3  4  1  0  0  0  0
  3  5  1  0  0  0  0
  3  6  1  0  0  0  0
  7  8  1  0  0  0  0
  7 12  1  0  0  0  0
  8  9  1  0  0  0  0
  8 11  1  0  0  0  0
  8 13  1  0  0  0  0
  9 10  2  0  0  0  0
  9 17  1  0  0  0  0
 11 14  1  0  0  0  0
 11 15  1  0  0  0  0
 11 16  1  0  0  0  0
 17 18  1  0  0  0  0
 17 22  1  0  0  0  0
 18 19  1  0  0  0  0
 18 21  1  0  0  0  0
 18 23  1  0  0  0  0
 19 20  2  0  0  0  0
 19 27  1  0  0  0  0
 21 24  1  0  0  0  0
 21 25  1  0  0  0  0
 21 26  1  0  0  0  0
 27 28  1  0  0  0  0
 27 32  1  0  0  0  0
 28 29  1  0  0  0  0
 28 31  1  0  0  0  0
 28 33  1  0  0  0  0
 29 30  2  0  0  0  0
 29 37  1  0  0  0  0
 31 34  1  0  0  0  0
 31 35  1  0  0  0  0
 31 36  1  0  0  0  0
 37 38  1  0  0  0  0
 37 39  1  0  0  0  0
 38 40  1  0  0  0  0
 38 41  1  0  0  0  0
 38 42  1  0  0  0  0
M  END
$$$$

  -OEChem-05262215353D

 42 41  0     1  0  0  0  0  0999 V2000
   -4.4006    0.3711    0.9356 C   0  0  0  0  0  0  0  0  0  0  0  0
   -3.9012    1.4461    1.2355 O   0  0  0  0  0  0  0  0  0  0  0  0
   -5.3178    0.2716   -0.2675 C   0  0  0  0  0  0  0  0  0  0  0  0
   -5.8223    1.2269   -0.4360 H   0  0  0  0  0  0  0  0  0  0  0  0
   -4.7360    0.0135   -1.1555 H   0  0  0  0  0  0  0  0  0  0  0  0
   -6.0734   -0.5000   -0.1009 H   0  0  0  0  0  0  0  0  0  0  0  0
   -4.0204   -0.7637    1.6202 N   0  0  0  0  0  0  0  0  0  0  0  0
   -3.0213   -0.7610    2.7042 C   0  0  2  0  0  0  0  0  0  0  0  0
   -1.5794   -0.7805    2.1428 C   0  0  0  0  0  0  0  0  0  0  0  0
   -0.8232   -1.7154    2.3681 O   0  0  0  0  0  0  0  0  0  0  0  0
   -3.3341   -1.9571    3.6109 C   0  0  0  0  0  0  0  0  0  0  0  0
   -4.1576   -1.6372    1.1037 H   0  0  0  0  0  0  0  0  0  0  0  0
   -3.1247    0.1484    3.3058 H   0  0  0  0  0  0  0  0  0  0  0  0
   -3.2447   -2.8961    3.0549 H   0  0  0  0  0  0  0  0  0  0  0  0
   -2.6382   -1.9857    4.4555 H   0  0  0  0  0  0  0  0  0  0  0  0
   -4.3521   -1.8794    4.0047 H   0  0  0  0  0  0  0  0  0  0  0  0
   -1.2785    0.0994    1.1196 N   0  0  0  0  0  0  0  0  0  0  0  0
   -0.0356    0.2136    0.3279 C   0  0  2  0  0  0  0  0  0  0  0  0
   -0.1156   -0.6947   -0.9153 C   0  0  0  0  0  0  0  0  0  0  0  0
    0.3106   -0.3165   -1.9984 O   0  0  0  0  0  0  0  0  0  0  0  0
    1.2572   -0.0112    1.1248 C   0  0  0  0  0  0  0  0  0  0  0  0
   -2.0054    0.8021    0.9547 H   0  0  0  0  0  0  0  0  0  0  0  0
    0.0066    1.2429   -0.0429 H   0  0  0  0  0  0  0  0  0  0  0  0
    1.3948   -1.0683    1.3693 H   0  0  0  0  0  0  0  0  0  0  0  0
    2.1198    0.3122    0.5341 H   0  0  0  0  0  0  0  0  0  0  0  0
    1.2371    0.5661    2.0540 H   0  0  0  0  0  0  0  0  0  0  0  0
   -0.8650   -1.8528   -0.8330 N   0  0  0  0  0  0  0  0  0  0  0  0
   -1.4884   -2.5477   -1.9624 C   0  0  2  0  0  0  0  0  0  0  0  0
   -3.0231   -2.6424   -1.8016 C   0  0  0  0  0  0  0  0  0  0  0  0
   -3.5600   -2.4884   -0.7054 O   0  0  0  0  0  0  0  0  0  0  0  0
   -0.8686   -3.9436   -2.0479 C   0  0  0  0  0  0  0  0  0  0  0  0
   -1.2313   -2.0519    0.0996 H   0  0  0  0  0  0  0  0  0  0  0  0
   -1.2845   -2.0118   -2.8953 H   0  0  0  0  0  0  0  0  0  0  0  0
   -1.0623   -4.5061   -1.1287 H   0  0  0  0  0  0  0  0  0  0  0  0
   -1.2875   -4.4993   -2.8920 H   0  0  0  0  0  0  0  0  0  0  0  0
    0.2144   -3.8669   -2.1875 H   0  0  0  0  0  0  0  0  0  0  0  0
   -3.8188   -2.9052   -2.9016 N   0  0  0  0  0  0  0  0  0  0  0  0
   -5.2690   -3.0432   -2.8364 C   0  0  0  0  0  0  0  0  0  0  0  0
   -3.3543   -3.0230   -3.7982 H   0  0  0  0  0  0  0  0  0  0  0  0
   -5.5462   -3.8646   -2.1673 H   0  0  0  0  0  0  0  0  0  0  0  0
   -5.7276   -2.1190   -2.4701 H   0  0  0  0  0  0  0  0  0  0  0  0
   -5.6730   -3.2574   -3.8306 H   0  0  0  0  0  0  0  0  0  0  0  0
  1  2  2  0  0  0  0
  1  3  1  0  0  0  0
  1  7  1  0  0  0  0
  3  4  1  0  0  0  0
  3  5  1  0  0  0  0
  3  6  1  0  0  0  0
  7  8  1  0  0  0  0
  7 12  1  0  0  0  0
  8  9  1  0  0  0  0
  8 11  1  0  0  0  0
  8 13  1  0  0  0  0
  9 10  2  0  0  0  0
  9 17  1  0  0  0  0
 11 14  1  0  0  0  0
 11 15  1  0  0  0  0
 11 16  1  0  0  0  0
 17 18  1  0  0  0  0
 17 22  1  0  0  0  0
 18 19  1  0  0  0  0
 18 21  1  0  0  0  0
 18 23  1  0  0  0  0
 19 20  2  0  0  0  0
 19 27  1  0  0  0  0
 21 24  1  0  0  0  0
 21 25  1  0  0  0  0
 21 26  1  0  0  0  0
 27 28  1  0  0  0  0
 27 32  1  0  0  0  0
 28 29  1  0  0  0  0
 28 31  1  0  0  0  0
 28 33  1  0  0  0  0
 29 30  2  0  0  0  0
 29 37  1  0  0  0  0
 31 34  1  0  0  0  0
 31 35  1  0  0  0  0
 31 36  1  0  0  0  0
 37 38  1  0  0  0  0
 37 39  1  0  0  0  0
 38 40  1  0  0  0  0
 38 41  1  0  0  0  0
 38 42  1  0  0  0  0
M  END
$$$$

  -OEChem-05262215353D

 42 41  0     1  0  0  0  0  0999 V2000
   -5.6661   -0.5230    2.4508 C   0  0  0  0  0  0  0  0  0  0  0  0
   -5.9180    0.6716    2.4803 O   0  0  0  0  0  0  0  0  0  0  0  0
   -6.7872   -1.5368    2.3189 C   0  0  0  0  0  0  0  0  0  0  0  0
   -6.7824   -2.2142    3.1763 H   0  0  0  0  0  0  0  0  0  0  0  0
   -7.7538   -1.0268    2.2770 H   0  0  0  0  0  0  0  0  0  0  0  0
   -6.6559   -2.1183    1.4029 H   0  0  0  0  0  0  0  0  0  0  0  0
   -4.3583   -0.9535    2.5259 N   0  0  0  0  0  0  0  0  0  0  0  0
   -3.1933   -0.0647    2.4373 C   0  0  2  0  0  0  0  0  0  0  0  0
   -2.0052   -0.7621    1.7437 C   0  0  0  0  0  0  0  0  0  0  0  0
   -1.9744   -1.9839    1.6675 O   0  0  0  0  0  0  0  0  0  0  0  0
   -2.8043    0.3787    3.8501 C   0  0  0  0  0  0  0  0  0  0  0  0
   -4.1869   -1.9478    2.3778 H   0  0  0  0  0  0  0  0  0  0  0  0
   -3.4501    0.8177    1.8411 H   0  0  0  0  0  0  0  0  0  0  0  0
   -2.5412   -0.4879    4.4649 H   0  0  0  0  0  0  0  0  0  0  0  0
   -1.9468    1.0569    3.8169 H   0  0  0  0  0  0  0  0  0  0  0  0
   -3.6394    0.9027    4.3258 H   0  0  0  0  0  0  0  0  0  0  0  0
   -1.0495   -0.0127    1.0793 N   0  0  0  0  0  0  0  0  0  0  0  0
    0.2705   -0.4849    0.6015 C   0  0  2  0  0  0  0  0  0  0  0  0
    0.2263   -1.0471   -0.8349 C   0  0  0  0  0  0  0  0  0  0  0  0
    1.2548   -1.1383   -1.4924 O   0  0  0  0  0  0  0  0  0  0  0  0
    0.9656   -1.4569    1.5681 C   0  0  0  0  0  0  0  0  0  0  0  0
   -1.1855    0.9940    1.1230 H   0  0  0  0  0  0  0  0  0  0  0  0
    0.9131    0.3994    0.5470 H   0  0  0  0  0  0  0  0  0  0  0  0
    0.5027   -2.4475    1.5346 H   0  0  0  0  0  0  0  0  0  0  0  0
    2.0181   -1.5701    1.2902 H   0  0  0  0  0  0  0  0  0  0  0  0
    0.9172   -1.0791    2.5935 H   0  0  0  0  0  0  0  0  0  0  0  0
   -0.9835   -1.3624   -1.4188 N   0  0  0  0  0  0  0  0  0  0  0  0
   -1.1793   -1.8215   -2.7969 C   0  0  2  0  0  0  0  0  0  0  0  0
   -2.6125   -1.5296   -3.2913 C   0  0  0  0  0  0  0  0  0  0  0  0
   -3.4924   -1.2104   -2.4982 O   0  0  0  0  0  0  0  0  0  0  0  0
   -0.8869   -3.3244   -2.8570 C   0  0  0  0  0  0  0  0  0  0  0  0
   -1.8071   -1.3086   -0.8185 H   0  0  0  0  0  0  0  0  0  0  0  0
   -0.4863   -1.2908   -3.4579 H   0  0  0  0  0  0  0  0  0  0  0  0
   -1.5639   -3.8719   -2.1933 H   0  0  0  0  0  0  0  0  0  0  0  0
   -1.0152   -3.7018   -3.8756 H   0  0  0  0  0  0  0  0  0  0  0  0
    0.1429   -3.5242   -2.5443 H   0  0  0  0  0  0  0  0  0  0  0  0
   -2.9176   -1.6157   -4.6375 N   0  0  0  0  0  0  0  0  0  0  0  0
   -4.2462   -1.3507   -5.1761 C   0  0  0  0  0  0  0  0  0  0  0  0
   -2.1706   -1.8787   -5.2736 H   0  0  0  0  0  0  0  0  0  0  0  0
   -4.9754   -2.0534   -4.7594 H   0  0  0  0  0  0  0  0  0  0  0  0
   -4.5619   -0.3303   -4.9341 H   0  0  0  0  0  0  0  0  0  0  0  0
   -4.2423   -1.4614   -6.2648 H   0  0  0  0  0  0  0  0  0  0  0  0
  1  2  2  0  0  0  0
  1  3  1  0  0  0  0
  1  7  1  0  0  0  0
  3  4  1  0  0  0  0
  3  5  1  0  0  0  0
  3  6  1  0  0  0  0
  7  8  1  0  0  0  0
  7 12  1  0  0  0  0
  8  9  1  0  0  0  0
  8 11  1  0  0  0  0
  8 13  1  0  0  0  0
  9 10  2  0  0  0  0
  9 17  1  0  0  0  0
 11 14  1  0  0  0  0
 11 15  1  0  0  0  0
 11 16  1  0  0  0  0
 17 18  1  0  0  0  0
 17 22  1  0  0  0  0
 18 19  1  0  0  0  0
 18 21  1  0  0  0  0
 18 23  1  0  0  0  0
 19 20  2  0  0  0  0
 19 27  1  0  0  0  0
 21 24  1  0  0  0  0
 21 25  1  0  0  0  0
 21 26  1  0  0  0  0
 27 28  1  0  0  0  0
 27 32  1  0  0  0  0
 28 29  1  0  0  0  0
 28 31  1  0  0  0  0
 28 33  1  0  0  0  0
 29 30  2  0  0  0  0
 29 37  1  0  0  0  0
 31 34  1  0  0  0  0
 31 35  1  0  0  0  0
 31 36  1  0  0  0  0
 37 38  1  0  0  0  0
 37 39  1  0  0  0  0
 38 40  1  0  0  0  0
 38 41  1  0  0  0  0
 38 42  1  0  0  0  0
M  END
$$$$

  -OEChem-05262215353D

 42 41  0     1  0  0  0  0  0999 V2000
   -5.6879   -0.6980    2.4524 C   0  0  0  0  0  0  0  0  0  0  0  0
   -6.0065    0.4789    2.3883 O   0  0  0  0  0  0  0  0  0  0  0  0
   -6.7530   -1.7786    2.4340 C   0  0  0  0  0  0  0  0  0  0  0  0
   -6.7314   -2.3392    3.3716 H   0  0  0  0  0  0  0  0  0  0  0  0
   -7.7430   -1.3300    2.3128 H   0  0  0  0  0  0  0  0  0  0  0  0
   -6.5751   -2.4653    1.6026 H   0  0  0  0  0  0  0  0  0  0  0  0
   -4.3569   -1.0484    2.5313 N   0  0  0  0  0  0  0  0  0  0  0  0
   -3.2430   -0.1062    2.3671 C   0  0  2  0  0  0  0  0  0  0  0  0
   -2.0185   -0.7893    1.7227 C   0  0  0  0  0  0  0  0  0  0  0  0
   -1.9474   -2.0113    1.7041 O   0  0  0  0  0  0  0  0  0  0  0  0
   -2.8799    0.4634    3.7416 C   0  0  0  0  0  0  0  0  0  0  0  0
   -4.1300   -2.0406    2.4676 H   0  0  0  0  0  0  0  0  0  0  0  0
   -3.5495    0.7120    1.7062 H   0  0  0  0  0  0  0  0  0  0  0  0
   -2.5680   -0.3393    4.4177 H   0  0  0  0  0  0  0  0  0  0  0  0
   -2.0622    1.1852    3.6560 H   0  0  0  0  0  0  0  0  0  0  0  0
   -3.7439    0.9732    4.1805 H   0  0  0  0  0  0  0  0  0  0  0  0
   -1.0682   -0.0298    1.0596 N   0  0  0  0  0  0  0  0  0  0  0  0
    0.2622   -0.4864    0.5922 C   0  0  2  0  0  0  0  0  0  0  0  0
    0.2369   -1.0569   -0.8426 C   0  0  0  0  0  0  0  0  0  0  0  0
    1.2763   -1.3814   -1.4022 O   0  0  0  0  0  0  0  0  0  0  0  0
    0.9713   -1.4325    1.5758 C   0  0  0  0  0  0  0  0  0  0  0  0
   -1.2276    0.9744    1.0795 H   0  0  0  0  0  0  0  0  0  0  0  0
    0.8884    0.4088    0.5319 H   0  0  0  0  0  0  0  0  0  0  0  0
    0.5329   -2.4344    1.5466 H   0  0  0  0  0  0  0  0  0  0  0  0
    2.0294   -1.5234    1.3106 H   0  0  0  0  0  0  0  0  0  0  0  0
    0.9030   -1.0463    2.5970 H   0  0  0  0  0  0  0  0  0  0  0  0
   -0.9488   -1.1017   -1.5466 N   0  0  0  0  0  0  0  0  0  0  0  0
   -1.1013   -1.4869   -2.9520 C   0  0  2  0  0  0  0  0  0  0  0  0
   -2.3186   -0.7854   -3.5920 C   0  0  0  0  0  0  0  0  0  0  0  0
   -3.1272   -0.1854   -2.8907 O   0  0  0  0  0  0  0  0  0  0  0  0
   -1.2525   -3.0101   -3.0204 C   0  0  0  0  0  0  0  0  0  0  0  0
   -1.7842   -0.7861   -1.0561 H   0  0  0  0  0  0  0  0  0  0  0  0
   -0.2116   -1.1851   -3.5147 H   0  0  0  0  0  0  0  0  0  0  0  0
   -2.1384   -3.3325   -2.4636 H   0  0  0  0  0  0  0  0  0  0  0  0
   -1.3521   -3.3418   -4.0581 H   0  0  0  0  0  0  0  0  0  0  0  0
   -0.3736   -3.4975   -2.5861 H   0  0  0  0  0  0  0  0  0  0  0  0
   -2.5019   -0.8109   -4.9623 N   0  0  0  0  0  0  0  0  0  0  0  0
   -3.6118   -0.1454   -5.6341 C   0  0  0  0  0  0  0  0  0  0  0  0
   -1.8047   -1.2940   -5.5213 H   0  0  0  0  0  0  0  0  0  0  0  0
   -4.5692   -0.5077   -5.2451 H   0  0  0  0  0  0  0  0  0  0  0  0
   -3.5578    0.9377   -5.4825 H   0  0  0  0  0  0  0  0  0  0  0  0
   -3.5786   -0.3463   -6.7091 H   0  0  0  0  0  0  0  0  0  0  0  0
  1  2  2  0  0  0  0
  1  3  1  0  0  0  0
  1  7  1  0  0  0  0
  3  4  1  0  0  0  0
  3  5  1  0  0  0  0
  3  6  1  0  0  0  0
  7  8  1  0  0  0  0
  7 12  1  0  0  0  0
  8  9  1  0  0  0  0
  8 11  1  0  0  0  0
  8 13  1  0  0  0  0
  9 10  2  0  0  0  0
  9 17  1  0  0  0  0
 11 14  1  0  0  0  0
 11 15  1  0  0  0  0
 11 16  1  0  0  0  0
 17 18  1  0  0  0  0
 17 22  1  0  0  0  0
 18 19  1  0  0  0  0
 18 21  1  0  0  0  0
 18 23  1  0  0  0  0
 19 20  2  0  0  0  0
 19 27  1  0  0  0  0
 21 24  1  0  0  0  0
 21 25  1  0  0  0  0
 21 26  1  0  0  0  0
 27 28  1  0  0  0  0
 27 32  1  0  0  0  0
 28 29  1  0  0  0  0
 28 31  1  0  0  0  0
 28 33  1  0  0  0  0
 29 30  2  0  0  0  0
 29 37  1  0  0  0  0
 31 34  1  0  0  0  0
 31 35  1  0  0  0  0
 31 36  1  0  0  0  0
 37 38  1  0  0  0  0
 37 39  1  0  0  0  0
 38 40  1  0  0  0  0
 38 41  1  0  0  0  0
 38 42  1  0  0  0  0
M  END
$$$$

  -OEChem-05262215353D

 42 41  0     1  0  0  0  0  0999 V2000
   -5.7293   -0.7507    2.5198 C   0  0  0  0  0  0  0  0  0  0  0  0
   -6.0568    0.4246    2.4778 O   0  0  0  0  0  0  0  0  0  0  0  0
   -6.7880   -1.8363    2.5634 C   0  0  0  0  0  0  0  0  0  0  0  0
   -6.7045   -2.4015    3.4949 H   0  0  0  0  0  0  0  0  0  0  0  0
   -7.7858   -1.3919    2.5085 H   0  0  0  0  0  0  0  0  0  0  0  0
   -6.6598   -2.5174    1.7185 H   0  0  0  0  0  0  0  0  0  0  0  0
   -4.3942   -1.0940    2.5212 N   0  0  0  0  0  0  0  0  0  0  0  0
   -3.2949   -0.1421    2.3204 C   0  0  2  0  0  0  0  0  0  0  0  0
   -2.0836   -0.8091    1.6345 C   0  0  0  0  0  0  0  0  0  0  0  0
   -2.0233   -2.0300    1.5629 O   0  0  0  0  0  0  0  0  0  0  0  0
   -2.8905    0.4272    3.6836 C   0  0  0  0  0  0  0  0  0  0  0  0
   -4.1643   -2.0838    2.4340 H   0  0  0  0  0  0  0  0  0  0  0  0
   -3.6317    0.6749    1.6729 H   0  0  0  0  0  0  0  0  0  0  0  0
   -2.5444   -0.3740    4.3447 H   0  0  0  0  0  0  0  0  0  0  0  0
   -2.0862    1.1603    3.5721 H   0  0  0  0  0  0  0  0  0  0  0  0
   -3.7444    0.9236    4.1557 H   0  0  0  0  0  0  0  0  0  0  0  0
   -1.1170   -0.0273    1.0223 N   0  0  0  0  0  0  0  0  0  0  0  0
    0.2265   -0.4758    0.5879 C   0  0  2  0  0  0  0  0  0  0  0  0
    0.2454   -1.0107   -0.8620 C   0  0  0  0  0  0  0  0  0  0  0  0
    1.2425   -1.5575   -1.3160 O   0  0  0  0  0  0  0  0  0  0  0  0
    0.9025   -1.4371    1.5820 C   0  0  0  0  0  0  0  0  0  0  0  0
   -1.2573    0.9758    1.1120 H   0  0  0  0  0  0  0  0  0  0  0  0
    0.8540    0.4201    0.5653 H   0  0  0  0  0  0  0  0  0  0  0  0
    0.4717   -2.4407    1.5163 H   0  0  0  0  0  0  0  0  0  0  0  0
    1.9706   -1.5173    1.3573 H   0  0  0  0  0  0  0  0  0  0  0  0
    0.7922   -1.0718    2.6072 H   0  0  0  0  0  0  0  0  0  0  0  0
   -0.8179   -0.7561   -1.7051 N   0  0  0  0  0  0  0  0  0  0  0  0
   -0.8881   -1.1120   -3.1256 C   0  0  2  0  0  0  0  0  0  0  0  0
   -1.8635   -0.1908   -3.8888 C   0  0  0  0  0  0  0  0  0  0  0  0
   -2.6120    0.5632   -3.2749 O   0  0  0  0  0  0  0  0  0  0  0  0
   -1.3285   -2.5754   -3.2383 C   0  0  0  0  0  0  0  0  0  0  0  0
   -1.6171   -0.2663   -1.3067 H   0  0  0  0  0  0  0  0  0  0  0  0
    0.1012   -0.9952   -3.5802 H   0  0  0  0  0  0  0  0  0  0  0  0
   -2.3158   -2.7133   -2.7856 H   0  0  0  0  0  0  0  0  0  0  0  0
   -1.3784   -2.8835   -4.2868 H   0  0  0  0  0  0  0  0  0  0  0  0
   -0.6159   -3.2271   -2.7228 H   0  0  0  0  0  0  0  0  0  0  0  0
   -1.8900   -0.1921   -5.2715 N   0  0  0  0  0  0  0  0  0  0  0  0
   -2.7620    0.6722   -6.0581 C   0  0  0  0  0  0  0  0  0  0  0  0
   -1.2444   -0.8108   -5.7536 H   0  0  0  0  0  0  0  0  0  0  0  0
   -3.8119    0.4951   -5.8011 H   0  0  0  0  0  0  0  0  0  0  0  0
   -2.5265    1.7255   -5.8722 H   0  0  0  0  0  0  0  0  0  0  0  0
   -2.6298    0.4719   -7.1259 H   0  0  0  0  0  0  0  0  0  0  0  0
  1  2  2  0  0  0  0
  1  3  1  0  0  0  0
  1  7  1  0  0  0  0
  3  4  1  0  0  0  0
  3  5  1  0  0  0  0
  3  6  1  0  0  0  0
  7  8  1  0  0  0  0
  7 12  1  0  0  0  0
  8  9  1  0  0  0  0
  8 11  1  0  0  0  0
  8 13  1  0  0  0  0
  9 10  2  0  0  0  0
  9 17  1  0  0  0  0
 11 14  1  0  0  0  0
 11 15  1  0  0  0  0
 11 16  1  0  0  0  0
 17 18  1  0  0  0  0
 17 22  1  0  0  0  0
 18 19  1  0  0  0  0
 18 21  1  0  0  0  0
 18 23  1  0  0  0  0
 19 20  2  0  0  0  0
 19 27  1  0  0  0  0
 21 24  1  0  0  0  0
 21 25  1  0  0  0  0
 21 26  1  0  0  0  0
 27 28  1  0  0  0  0
 27 32  1  0  0  0  0
 28 29  1  0  0  0  0
 28 31  1  0  0  0  0
 28 33  1  0  0  0  0
 29 30  2  0  0  0  0
 29 37  1  0  0  0  0
 31 34  1  0  0  0  0
 31 35  1  0  0  0  0
 31 36  1  0  0  0  0
 37 38  1  0  0  0  0
 37 39  1  0  0  0  0
 38 40  1  0  0  0  0
 38 41  1  0  0  0  0
 38 42  1  0  0  0  0
M  END
$$$$

  -OEChem-05262215353D

 42 41  0     1  0  0  0  0  0999 V2000
   -5.7246   -0.7697    2.3688 C   0  0  0  0  0  0  0  0  0  0  0  0
   -6.0607    0.3992    2.2624 O   0  0  0  0  0  0  0  0  0  0  0  0
   -6.7747   -1.8637    2.4076 C   0  0  0  0  0  0  0  0  0  0  0  0
   -6.7113   -2.4089    3.3522 H   0  0  0  0  0  0  0  0  0  0  0  0
   -7.7740   -1.4290    2.3175 H   0  0  0  0  0  0  0  0  0  0  0  0
   -6.6185   -2.5607    1.5810 H   0  0  0  0  0  0  0  0  0  0  0  0
   -4.3876   -1.0970    2.4452 N   0  0  0  0  0  0  0  0  0  0  0  0
   -3.2895   -0.1406    2.2583 C   0  0  2  0  0  0  0  0  0  0  0  0
   -2.0538   -0.8102    1.6199 C   0  0  0  0  0  0  0  0  0  0  0  0
   -1.9767   -2.0317    1.5928 O   0  0  0  0  0  0  0  0  0  0  0  0
   -2.9334    0.4546    3.6235 C   0  0  0  0  0  0  0  0  0  0  0  0
   -4.1433   -2.0864    2.4097 H   0  0  0  0  0  0  0  0  0  0  0  0
   -3.6122    0.6621    1.5863 H   0  0  0  0  0  0  0  0  0  0  0  0
   -2.6069   -0.3334    4.3099 H   0  0  0  0  0  0  0  0  0  0  0  0
   -2.1283    1.1892    3.5264 H   0  0  0  0  0  0  0  0  0  0  0  0
   -3.8056    0.9546    4.0571 H   0  0  0  0  0  0  0  0  0  0  0  0
   -1.0843   -0.0317    1.0077 N   0  0  0  0  0  0  0  0  0  0  0  0
    0.2628   -0.4789    0.5849 C   0  0  2  0  0  0  0  0  0  0  0  0
    0.2842   -1.0230   -0.8623 C   0  0  0  0  0  0  0  0  0  0  0  0
    1.1708   -1.7754   -1.2468 O   0  0  0  0  0  0  0  0  0  0  0  0
    0.9411   -1.4228    1.5947 C   0  0  0  0  0  0  0  0  0  0  0  0
   -1.2329    0.9715    1.0806 H   0  0  0  0  0  0  0  0  0  0  0  0
    0.8865    0.4192    0.5558 H   0  0  0  0  0  0  0  0  0  0  0  0
    0.5164   -2.4297    1.5404 H   0  0  0  0  0  0  0  0  0  0  0  0
    2.0108   -1.4998    1.3756 H   0  0  0  0  0  0  0  0  0  0  0  0
    0.8240   -1.0443    2.6143 H   0  0  0  0  0  0  0  0  0  0  0  0
   -0.6093   -0.5249   -1.7901 N   0  0  0  0  0  0  0  0  0  0  0  0
   -0.6349   -0.8605   -3.2174 C   0  0  2  0  0  0  0  0  0  0  0  0
   -1.3165    0.2521   -4.0417 C   0  0  0  0  0  0  0  0  0  0  0  0
   -1.9563    1.1341   -3.4773 O   0  0  0  0  0  0  0  0  0  0  0  0
   -1.3795   -2.1890   -3.3875 C   0  0  0  0  0  0  0  0  0  0  0  0
   -1.3071    0.1373   -1.4570 H   0  0  0  0  0  0  0  0  0  0  0  0
    0.3901   -0.9683   -3.5875 H   0  0  0  0  0  0  0  0  0  0  0  0
   -2.4116   -2.0962   -3.0340 H   0  0  0  0  0  0  0  0  0  0  0  0
   -1.3960   -2.4905   -4.4389 H   0  0  0  0  0  0  0  0  0  0  0  0
   -0.8852   -2.9783   -2.8117 H   0  0  0  0  0  0  0  0  0  0  0  0
   -1.2091    0.2707   -5.4202 N   0  0  0  0  0  0  0  0  0  0  0  0
   -1.8382    1.2832   -6.2599 C   0  0  0  0  0  0  0  0  0  0  0  0
   -0.6677   -0.4676   -5.8605 H   0  0  0  0  0  0  0  0  0  0  0  0
   -2.9257    1.2655   -6.1319 H   0  0  0  0  0  0  0  0  0  0  0  0
   -1.4692    2.2813   -6.0008 H   0  0  0  0  0  0  0  0  0  0  0  0
   -1.6114    1.0943   -7.3137 H   0  0  0  0  0  0  0  0  0  0  0  0
  1  2  2  0  0  0  0
  1  3  1  0  0  0  0
  1  7  1  0  0  0  0
  3  4  1  0  0  0  0
  3  5  1  0  0  0  0
  3  6  1  0  0  0  0
  7  8  1  0  0  0  0
  7 12  1  0  0  0  0
  8  9  1  0  0  0  0
  8 11  1  0  0  0  0
  8 13  1  0  0  0  0
  9 10  2  0  0  0  0
  9 17  1  0  0  0  0
 11 14  1  0  0  0  0
 11 15  1  0  0  0  0
 11 16  1  0  0  0  0
 17 18  1  0  0  0  0
 17 22  1  0  0  0  0
 18 19  1  0  0  0  0
 18 21  1  0  0  0  0
 18 23  1  0  0  0  0
 19 20  2  0  0  0  0
 19 27  1  0  0  0  0
 21 24  1  0  0  0  0
 21 25  1  0  0  0  0
 21 26  1  0  0  0  0
 27 28  1  0  0  0  0
 27 32  1  0  0  0  0
 28 29  1  0  0  0  0
 28 31  1  0  0  0  0
 28 33  1  0  0  0  0
 29 30  2  0  0  0  0
 29 37  1  0  0  0  0
 31 34  1  0  0  0  0
 31 35  1  0  0  0  0
 31 36  1  0  0  0  0
 37 38  1  0  0  0  0
 37 39  1  0  0  0  0
 38 40  1  0  0  0  0
 38 41  1  0  0  0  0
 38 42  1  0  0  0  0
M  END
$$$$

  -OEChem-05262215353D

 42 41  0     1  0  0  0  0  0999 V2000
   -5.7233   -0.7351    2.2770 C   0  0  0  0  0  0  0  0  0  0  0  0
   -6.0446    0.4382    2.1718 O   0  0  0  0  0  0  0  0  0  0  0  0
   -6.7847   -1.8187    2.2764 C   0  0  0  0  0  0  0  0  0  0  0  0
   -6.7867   -2.3384    3.2376 H   0  0  0  0  0  0  0  0  0  0  0  0
   -7.7723   -1.3792    2.1101 H   0  0  0  0  0  0  0  0  0  0  0  0
   -6.5821   -2.5392    1.4802 H   0  0  0  0  0  0  0  0  0  0  0  0
   -4.3924   -1.0784    2.3827 N   0  0  0  0  0  0  0  0  0  0  0  0
   -3.2795   -0.1339    2.2253 C   0  0  2  0  0  0  0  0  0  0  0  0
   -2.0390   -0.8132    1.6080 C   0  0  0  0  0  0  0  0  0  0  0  0
   -1.9566   -2.0345    1.6093 O   0  0  0  0  0  0  0  0  0  0  0  0
   -2.9426    0.4505    3.6001 C   0  0  0  0  0  0  0  0  0  0  0  0
   -4.1595   -2.0708    2.3486 H   0  0  0  0  0  0  0  0  0  0  0  0
   -3.5784    0.6765    1.5515 H   0  0  0  0  0  0  0  0  0  0  0  0
   -2.6331   -0.3434    4.2875 H   0  0  0  0  0  0  0  0  0  0  0  0
   -2.1311    1.1798    3.5208 H   0  0  0  0  0  0  0  0  0  0  0  0
   -3.8183    0.9544    4.0217 H   0  0  0  0  0  0  0  0  0  0  0  0
   -1.0710   -0.0391    0.9880 N   0  0  0  0  0  0  0  0  0  0  0  0
    0.2819   -0.4784    0.5790 C   0  0  2  0  0  0  0  0  0  0  0  0
    0.3095   -1.0441   -0.8605 C   0  0  0  0  0  0  0  0  0  0  0  0
    1.0496   -1.9680   -1.1746 O   0  0  0  0  0  0  0  0  0  0  0  0
    0.9629   -1.3966    1.6105 C   0  0  0  0  0  0  0  0  0  0  0  0
   -1.2331    0.9630    1.0366 H   0  0  0  0  0  0  0  0  0  0  0  0
    0.8984    0.4246    0.5391 H   0  0  0  0  0  0  0  0  0  0  0  0
    0.5379   -2.4044    1.5840 H   0  0  0  0  0  0  0  0  0  0  0  0
    2.0316   -1.4792    1.3897 H   0  0  0  0  0  0  0  0  0  0  0  0
    0.8488   -0.9921    2.6203 H   0  0  0  0  0  0  0  0  0  0  0  0
   -0.3561   -0.3681   -1.8648 N   0  0  0  0  0  0  0  0  0  0  0  0
   -0.2953   -0.6942   -3.2939 C   0  0  2  0  0  0  0  0  0  0  0  0
   -0.6715    0.5263   -4.1607 C   0  0  0  0  0  0  0  0  0  0  0  0
   -1.1642    1.5230   -3.6410 O   0  0  0  0  0  0  0  0  0  0  0  0
   -1.2453   -1.8653   -3.5707 C   0  0  0  0  0  0  0  0  0  0  0  0
   -0.9073    0.4462   -1.6007 H   0  0  0  0  0  0  0  0  0  0  0  0
    0.7268   -0.9860   -3.5581 H   0  0  0  0  0  0  0  0  0  0  0  0
   -2.2742   -1.5922   -3.3154 H   0  0  0  0  0  0  0  0  0  0  0  0
   -1.2106   -2.1488   -4.6267 H   0  0  0  0  0  0  0  0  0  0  0  0
   -0.9590   -2.7366   -2.9730 H   0  0  0  0  0  0  0  0  0  0  0  0
   -0.4482    0.5145   -5.5253 N   0  0  0  0  0  0  0  0  0  0  0  0
   -0.7966    1.6249   -6.4038 C   0  0  0  0  0  0  0  0  0  0  0  0
   -0.0385   -0.3235   -5.9280 H   0  0  0  0  0  0  0  0  0  0  0  0
   -1.8766    1.8048   -6.3829 H   0  0  0  0  0  0  0  0  0  0  0  0
   -0.2811    2.5391   -6.0911 H   0  0  0  0  0  0  0  0  0  0  0  0
   -0.5033    1.3994   -7.4336 H   0  0  0  0  0  0  0  0  0  0  0  0
  1  2  2  0  0  0  0
  1  3  1  0  0  0  0
  1  7  1  0  0  0  0
  3  4  1  0  0  0  0
  3  5  1  0  0  0  0
  3  6  1  0  0  0  0
  7  8  1  0  0  0  0
  7 12  1  0  0  0  0
  8  9  1  0  0  0  0
  8 11  1  0  0  0  0
  8 13  1  0  0  0  0
  9 10  2  0  0  0  0
  9 17  1  0  0  0  0
 11 14  1  0  0  0  0
 11 15  1  0  0  0  0
 11 16  1  0  0  0  0
 17 18  1  0  0  0  0
 17 22  1  0  0  0  0
 18 19  1  0  0  0  0
 18 21  1  0  0  0  0
 18 23  1  0  0  0  0
 19 20  2  0  0  0  0
 19 27  1  0  0  0  0
 21 24  1  0  0  0  0
 21 25  1  0  0  0  0
 21 26  1  0  0  0  0
 27 28  1  0  0  0  0
 27 32  1  0  0  0  0
 28 29  1  0  0  0  0
 28 31  1  0  0  0  0
 28 33  1  0  0  0  0
 29 30  2  0  0  0  0
 29 37  1  0  0  0  0
 31 34  1  0  0  0  0
 31 35  1  0  0  0  0
 31 36  1  0  0  0  0
 37 38  1  0  0  0  0
 37 39  1  0  0  0  0
 38 40  1  0  0  0  0
 38 41  1  0  0  0  0
 38 42  1  0  0  0  0
M  END
$$$$

  -OEChem-05262215353D

 42 41  0     1  0  0  0  0  0999 V2000
   -5.5622   -0.8568    1.8798 C   0  0  0  0  0  0  0  0  0  0  0  0
   -5.8758    0.1866    1.3282 O   0  0  0  0  0  0  0  0  0  0  0  0
   -6.5289   -2.0256    1.9027 C   0  0  0  0  0  0  0  0  0  0  0  0
   -6.7691   -2.2909    2.9349 H   0  0  0  0  0  0  0  0  0  0  0  0
   -7.4536   -1.7610    1.3826 H   0  0  0  0  0  0  0  0  0  0  0  0
   -6.0809   -2.8903    1.4067 H   0  0  0  0  0  0  0  0  0  0  0  0
   -4.3239   -0.9880    2.4718 N   0  0  0  0  0  0  0  0  0  0  0  0
   -3.2195   -0.0370    2.2859 C   0  0  2  0  0  0  0  0  0  0  0  0
   -1.9493   -0.7461    1.7715 C   0  0  0  0  0  0  0  0  0  0  0  0
   -1.8245   -1.9492    1.9573 O   0  0  0  0  0  0  0  0  0  0  0  0
   -2.9514    0.6412    3.6306 C   0  0  0  0  0  0  0  0  0  0  0  0
   -4.0552   -1.9344    2.7394 H   0  0  0  0  0  0  0  0  0  0  0  0
   -3.4896    0.7280    1.5506 H   0  0  0  0  0  0  0  0  0  0  0  0
   -2.6647   -0.1006    4.3831 H   0  0  0  0  0  0  0  0  0  0  0  0
   -2.1440    1.3737    3.5377 H   0  0  0  0  0  0  0  0  0  0  0  0
   -3.8509    1.1599    3.9772 H   0  0  0  0  0  0  0  0  0  0  0  0
   -0.9999   -0.0217    1.0670 N   0  0  0  0  0  0  0  0  0  0  0  0
    0.3139   -0.4956    0.5769 C   0  0  2  0  0  0  0  0  0  0  0  0
    0.2191   -1.0907   -0.8481 C   0  0  0  0  0  0  0  0  0  0  0  0
    0.6618   -2.1980   -1.1258 O   0  0  0  0  0  0  0  0  0  0  0  0
    1.0570   -1.4060    1.5722 C   0  0  0  0  0  0  0  0  0  0  0  0
   -1.2151    0.9638    0.9447 H   0  0  0  0  0  0  0  0  0  0  0  0
    0.9435    0.3934    0.4763 H   0  0  0  0  0  0  0  0  0  0  0  0
    0.6156   -2.4070    1.6008 H   0  0  0  0  0  0  0  0  0  0  0  0
    2.1034   -1.5122    1.2702 H   0  0  0  0  0  0  0  0  0  0  0  0
    1.0279   -0.9801    2.5794 H   0  0  0  0  0  0  0  0  0  0  0  0
   -0.2286   -0.2863   -1.8787 N   0  0  0  0  0  0  0  0  0  0  0  0
   -0.1910   -0.6392   -3.3022 C   0  0  2  0  0  0  0  0  0  0  0  0
   -0.0185    0.6170   -4.1812 C   0  0  0  0  0  0  0  0  0  0  0  0
   -0.1527    1.7339   -3.6903 O   0  0  0  0  0  0  0  0  0  0  0  0
   -1.4888   -1.3745   -3.6501 C   0  0  0  0  0  0  0  0  0  0  0  0
   -0.4572    0.6806   -1.6568 H   0  0  0  0  0  0  0  0  0  0  0  0
    0.6619   -1.2971   -3.5000 H   0  0  0  0  0  0  0  0  0  0  0  0
   -2.3547   -0.7306   -3.4662 H   0  0  0  0  0  0  0  0  0  0  0  0
   -1.4924   -1.6723   -4.7026 H   0  0  0  0  0  0  0  0  0  0  0  0
   -1.5892   -2.2758   -3.0366 H   0  0  0  0  0  0  0  0  0  0  0  0
    0.3119    0.4982   -5.5185 N   0  0  0  0  0  0  0  0  0  0  0  0
    0.5378    1.6438   -6.3918 C   0  0  0  0  0  0  0  0  0  0  0  0
    0.4464   -0.4384   -5.8890 H   0  0  0  0  0  0  0  0  0  0  0  0
   -0.3454    2.2912   -6.4123 H   0  0  0  0  0  0  0  0  0  0  0  0
    1.3952    2.2283   -6.0418 H   0  0  0  0  0  0  0  0  0  0  0  0
    0.7421    1.3080   -7.4130 H   0  0  0  0  0  0  0  0  0  0  0  0
  1  2  2  0  0  0  0
  1  3  1  0  0  0  0
  1  7  1  0  0  0  0
  3  4  1  0  0  0  0
  3  5  1  0  0  0  0
  3  6  1  0  0  0  0
  7  8  1  0  0  0  0
  7 12  1  0  0  0  0
  8  9  1  0  0  0  0
  8 11  1  0  0  0  0
  8 13  1  0  0  0  0
  9 10  2  0  0  0  0
  9 17  1  0  0  0  0
 11 14  1  0  0  0  0
 11 15  1  0  0  0  0
 11 16  1  0  0  0  0
 17 18  1  0  0  0  0
 17 22  1  0  0  0  0
 18 19  1  0  0  0  0
 18 21  1  0  0  0  0
 18 23  1  0  0  0  0
 19 20  2  0  0  0  0
 19 27  1  0  0  0  0
 21 24  1  0  0  0  0
 21 25  1  0  0  0  0
 21 26  1  0  0  0  0
 27 28  1  0  0  0  0
 27 32  1  0  0  0  0
 28 29  1  0  0  0  0
 28 31  1  0  0  0  0
 28 33  1  0  0  0  0
 29 30  2  0  0  0  0
 29 37  1  0  0  0  0
 31 34  1  0  0  0  0
 31 35  1  0  0  0  0
 31 36  1  0  0  0  0
 37 38  1  0  0  0  0
 37 39  1  0  0  0  0
 38 40  1  0  0  0  0
 38 41  1  0  0  0  0
 38 42  1  0  0  0  0
M  END
$$$$

  -OEChem-05262215353D

 42 41  0     1  0  0  0  0  0999 V2000
   -5.5429   -0.8843    1.8409 C   0  0  0  0  0  0  0  0  0  0  0  0
   -5.8677    0.1492    1.2771 O   0  0  0  0  0  0  0  0  0  0  0  0
   -6.4948   -2.0653    1.8699 C   0  0  0  0  0  0  0  0  0  0  0  0
   -6.7075   -2.3472    2.9039 H   0  0  0  0  0  0  0  0  0  0  0  0
   -7.4348   -1.8048    1.3754 H   0  0  0  0  0  0  0  0  0  0  0  0
   -6.0480   -2.9175    1.3514 H   0  0  0  0  0  0  0  0  0  0  0  0
   -4.3058   -0.9914    2.4405 N   0  0  0  0  0  0  0  0  0  0  0  0
   -3.2127   -0.0289    2.2462 C   0  0  2  0  0  0  0  0  0  0  0  0
   -1.9158   -0.7360    1.7995 C   0  0  0  0  0  0  0  0  0  0  0  0
   -1.7723   -1.9238    2.0557 O   0  0  0  0  0  0  0  0  0  0  0  0
   -2.9935    0.7119    3.5667 C   0  0  0  0  0  0  0  0  0  0  0  0
   -4.0261   -1.9292    2.7269 H   0  0  0  0  0  0  0  0  0  0  0  0
   -3.4748    0.6974    1.4697 H   0  0  0  0  0  0  0  0  0  0  0  0
   -2.7145    0.0084    4.3581 H   0  0  0  0  0  0  0  0  0  0  0  0
   -2.1963    1.4544    3.4630 H   0  0  0  0  0  0  0  0  0  0  0  0
   -3.9111    1.2285    3.8657 H   0  0  0  0  0  0  0  0  0  0  0  0
   -0.9620   -0.0208    1.0906 N   0  0  0  0  0  0  0  0  0  0  0  0
    0.3421   -0.5014    0.5819 C   0  0  2  0  0  0  0  0  0  0  0  0
    0.2207   -1.0807   -0.8476 C   0  0  0  0  0  0  0  0  0  0  0  0
    0.3657   -2.2721   -1.0876 O   0  0  0  0  0  0  0  0  0  0  0  0
    1.0899   -1.4335    1.5529 C   0  0  0  0  0  0  0  0  0  0  0  0
   -1.2094    0.9451    0.8954 H   0  0  0  0  0  0  0  0  0  0  0  0
    0.9812    0.3816    0.4890 H   0  0  0  0  0  0  0  0  0  0  0  0
    0.6313   -2.4265    1.5864 H   0  0  0  0  0  0  0  0  0  0  0  0
    2.1271   -1.5574    1.2274 H   0  0  0  0  0  0  0  0  0  0  0  0
    1.0898   -1.0132    2.5627 H   0  0  0  0  0  0  0  0  0  0  0  0
    0.0750   -0.2108   -1.9124 N   0  0  0  0  0  0  0  0  0  0  0  0
    0.1427   -0.5982   -3.3266 C   0  0  2  0  0  0  0  0  0  0  0  0
    0.7275    0.5408   -4.1876 C   0  0  0  0  0  0  0  0  0  0  0  0
    0.8552    1.6653   -3.7129 O   0  0  0  0  0  0  0  0  0  0  0  0
   -1.2686   -0.9661   -3.7942 C   0  0  0  0  0  0  0  0  0  0  0  0
    0.1171    0.7878   -1.7159 H   0  0  0  0  0  0  0  0  0  0  0  0
    0.7997   -1.4668   -3.4439 H   0  0  0  0  0  0  0  0  0  0  0  0
   -1.9415   -0.1082   -3.6952 H   0  0  0  0  0  0  0  0  0  0  0  0
   -1.2563   -1.2817   -4.8415 H   0  0  0  0  0  0  0  0  0  0  0  0
   -1.6640   -1.7901   -3.1913 H   0  0  0  0  0  0  0  0  0  0  0  0
    1.1327    0.3012   -5.4876 N   0  0  0  0  0  0  0  0  0  0  0  0
    1.7429    1.3175   -6.3365 C   0  0  0  0  0  0  0  0  0  0  0  0
    1.0445   -0.6477   -5.8404 H   0  0  0  0  0  0  0  0  0  0  0  0
    1.0745    2.1779   -6.4483 H   0  0  0  0  0  0  0  0  0  0  0  0
    2.6887    1.6600   -5.9034 H   0  0  0  0  0  0  0  0  0  0  0  0
    1.9455    0.9076   -7.3307 H   0  0  0  0  0  0  0  0  0  0  0  0
  1  2  2  0  0  0  0
  1  3  1  0  0  0  0
  1  7  1  0  0  0  0
  3  4  1  0  0  0  0
  3  5  1  0  0  0  0
  3  6  1  0  0  0  0
  7  8  1  0  0  0  0
  7 12  1  0  0  0  0
  8  9  1  0  0  0  0
  8 11  1  0  0  0  0
  8 13  1  0  0  0  0
  9 10  2  0  0  0  0
  9 17  1  0  0  0  0
 11 14  1  0  0  0  0
 11 15  1  0  0  0  0
 11 16  1  0  0  0  0
 17 18  1  0  0  0  0
 17 22  1  0  0  0  0
 18 19  1  0  0  0  0
 18 21  1  0  0  0  0
 18 23  1  0  0  0  0
 19 20  2  0  0  0  0
 19 27  1  0  0  0  0
 21 24  1  0  0  0  0
 21 25  1  0  0  0  0
 21 26  1  0  0  0  0
 27 28  1  0  0  0  0
 27 32  1  0  0  0  0
 28 29  1  0  0  0  0
 28 31  1  0  0  0  0
 28 33  1  0  0  0  0
 29 30  2  0  0  0  0
 29 37  1  0  0  0  0
 31 34  1  0  0  0  0
 31 35  1  0  0  0  0
 31 36  1  0  0  0  0
 37 38  1  0  0  0  0
 37 39  1  0  0  0  0
 38 40  1  0  0  0  0
 38 41  1  0  0  0  0
 38 42  1  0  0  0  0
M  END
$$$$

  -OEChem-05262215353D

 42 41  0     1  0  0  0  0  0999 V2000
   -5.5320   -0.9070    1.8279 C   0  0  0  0  0  0  0  0  0  0  0  0
   -5.8811    0.1358    1.2966 O   0  0  0  0  0  0  0  0  0  0  0  0
   -6.4716   -2.0980    1.8583 C   0  0  0  0  0  0  0  0  0  0  0  0
   -6.6604   -2.3972    2.8920 H   0  0  0  0  0  0  0  0  0  0  0  0
   -7.4237   -1.8398    1.3866 H   0  0  0  0  0  0  0  0  0  0  0  0
   -6.0279   -2.9384    1.3185 H   0  0  0  0  0  0  0  0  0  0  0  0
   -4.2784   -1.0132    2.3916 N   0  0  0  0  0  0  0  0  0  0  0  0
   -3.2035   -0.0299    2.2052 C   0  0  2  0  0  0  0  0  0  0  0  0
   -1.8743   -0.7190    1.8311 C   0  0  0  0  0  0  0  0  0  0  0  0
   -1.7057   -1.8861    2.1580 O   0  0  0  0  0  0  0  0  0  0  0  0
   -3.0527    0.7606    3.5064 C   0  0  0  0  0  0  0  0  0  0  0  0
   -3.9829   -1.9487    2.6701 H   0  0  0  0  0  0  0  0  0  0  0  0
   -3.4562    0.6604    1.3936 H   0  0  0  0  0  0  0  0  0  0  0  0
   -2.7881    0.0915    4.3316 H   0  0  0  0  0  0  0  0  0  0  0  0
   -2.2697    1.5183    3.4070 H   0  0  0  0  0  0  0  0  0  0  0  0
   -3.9929    1.2640    3.7536 H   0  0  0  0  0  0  0  0  0  0  0  0
   -0.9172   -0.0057    1.1238 N   0  0  0  0  0  0  0  0  0  0  0  0
    0.3761   -0.4942    0.5961 C   0  0  2  0  0  0  0  0  0  0  0  0
    0.2392   -1.0500   -0.8409 C   0  0  0  0  0  0  0  0  0  0  0  0
    0.0377   -2.2355   -1.0666 O   0  0  0  0  0  0  0  0  0  0  0  0
    1.1212   -1.4633    1.5308 C   0  0  0  0  0  0  0  0  0  0  0  0
   -1.1973    0.9346    0.8604 H   0  0  0  0  0  0  0  0  0  0  0  0
    1.0263    0.3823    0.5217 H   0  0  0  0  0  0  0  0  0  0  0  0
    0.6517   -2.4518    1.5370 H   0  0  0  0  0  0  0  0  0  0  0  0
    2.1545   -1.5881    1.1935 H   0  0  0  0  0  0  0  0  0  0  0  0
    1.1327   -1.0754    2.5538 H   0  0  0  0  0  0  0  0  0  0  0  0
    0.4106   -0.1967   -1.9152 N   0  0  0  0  0  0  0  0  0  0  0  0
    0.4893   -0.6270   -3.3167 C   0  0  2  0  0  0  0  0  0  0  0  0
    1.4382    0.2817   -4.1253 C   0  0  0  0  0  0  0  0  0  0  0  0
    1.8192    1.3470   -3.6501 O   0  0  0  0  0  0  0  0  0  0  0  0
   -0.9224   -0.6059   -3.9109 C   0  0  0  0  0  0  0  0  0  0  0  0
    0.7300    0.7507   -1.7184 H   0  0  0  0  0  0  0  0  0  0  0  0
    0.8877   -1.6457   -3.3720 H   0  0  0  0  0  0  0  0  0  0  0  0
   -1.3384    0.4062   -3.8765 H   0  0  0  0  0  0  0  0  0  0  0  0
   -0.9062   -0.9415   -4.9522 H   0  0  0  0  0  0  0  0  0  0  0  0
   -1.5812   -1.2729   -3.3451 H   0  0  0  0  0  0  0  0  0  0  0  0
    1.8844   -0.1045   -5.3754 N   0  0  0  0  0  0  0  0  0  0  0  0
    2.8173    0.6833   -6.1719 C   0  0  0  0  0  0  0  0  0  0  0  0
    1.5755   -1.0062   -5.7275 H   0  0  0  0  0  0  0  0  0  0  0  0
    2.4014    1.6740   -6.3834 H   0  0  0  0  0  0  0  0  0  0  0  0
    3.7664    0.8054   -5.6393 H   0  0  0  0  0  0  0  0  0  0  0  0
    3.0169    0.1833   -7.1246 H   0  0  0  0  0  0  0  0  0  0  0  0
  1  2  2  0  0  0  0
  1  3  1  0  0  0  0
  1  7  1  0  0  0  0
  3  4  1  0  0  0  0
  3  5  1  0  0  0  0
  3  6  1  0  0  0  0
  7  8  1  0  0  0  0
  7 12  1  0  0  0  0
  8  9  1  0  0  0  0
  8 11  1  0  0  0  0
  8 13  1  0  0  0  0
  9 10  2  0  0  0  0
  9 17  1  0  0  0  0
 11 14  1  0  0  0  0
 11 15  1  0  0  0  0
 11 16  1  0  0  0  0
 17 18  1  0  0  0  0
 17 22  1  0  0  0  0
 18 19  1  0  0  0  0
 18 21  1  0  0  0  0
 18 23  1  0  0  0  0
 19 20  2  0  0  0  0
 19 27  1  0  0  0  0
 21 24  1  0  0  0  0
 21 25  1  0  0  0  0
 21 26  1  0  0  0  0
 27 28  1  0  0  0  0
 27 32  1  0  0  0  0
 28 29  1  0  0  0  0
 28 31  1  0  0  0  0
 28 33  1  0  0  0  0
 29 30  2  0  0  0  0
 29 37  1  0  0  0  0
 31 34  1  0  0  0  0
 31 35  1  0  0  0  0
 31 36  1  0  0  0  0
 37 38  1  0  0  0  0
 37 39  1  0  0  0  0
 38 40  1  0  0  0  0
 38 41  1  0  0  0  0
 38 42  1  0  0  0  0
M  END
$$$$

  -OEChem-05262215353D

 42 41  0     1  0  0  0  0  0999 V2000
   -5.5262   -0.9324    1.8263 C   0  0  0  0  0  0  0  0  0  0  0  0
   -5.9010    0.1206    1.3340 O   0  0  0  0  0  0  0  0  0  0  0  0
   -6.4559   -2.1310    1.8598 C   0  0  0  0  0  0  0  0  0  0  0  0
   -6.6046   -2.4599    2.8911 H   0  0  0  0  0  0  0  0  0  0  0  0
   -7.4267   -1.8681    1.4301 H   0  0  0  0  0  0  0  0  0  0  0  0
   -6.0252   -2.9523    1.2816 H   0  0  0  0  0  0  0  0  0  0  0  0
   -4.2527   -1.0410    2.3424 N   0  0  0  0  0  0  0  0  0  0  0  0
   -3.1983   -0.0358    2.1596 C   0  0  2  0  0  0  0  0  0  0  0  0
   -1.8408   -0.7012    1.8502 C   0  0  0  0  0  0  0  0  0  0  0  0
   -1.6498   -1.8474    2.2353 O   0  0  0  0  0  0  0  0  0  0  0  0
   -3.1090    0.8014    3.4378 C   0  0  0  0  0  0  0  0  0  0  0  0
   -3.9401   -1.9756    2.6051 H   0  0  0  0  0  0  0  0  0  0  0  0
   -3.4446    0.6184    1.3166 H   0  0  0  0  0  0  0  0  0  0  0  0
   -2.8557    0.1664    4.2930 H   0  0  0  0  0  0  0  0  0  0  0  0
   -2.3417    1.5749    3.3385 H   0  0  0  0  0  0  0  0  0  0  0  0
   -4.0682    1.2894    3.6374 H   0  0  0  0  0  0  0  0  0  0  0  0
   -0.8791    0.0166    1.1527 N   0  0  0  0  0  0  0  0  0  0  0  0
    0.4104   -0.4768    0.6201 C   0  0  2  0  0  0  0  0  0  0  0  0
    0.2785   -1.0147   -0.8237 C   0  0  0  0  0  0  0  0  0  0  0  0
   -0.2600   -2.0859   -1.0665 O   0  0  0  0  0  0  0  0  0  0  0  0
    1.1461   -1.4770    1.5271 C   0  0  0  0  0  0  0  0  0  0  0  0
   -1.1900    0.9261    0.8242 H   0  0  0  0  0  0  0  0  0  0  0  0
    1.0665    0.3968    0.5666 H   0  0  0  0  0  0  0  0  0  0  0  0
    0.6699   -2.4620    1.4979 H   0  0  0  0  0  0  0  0  0  0  0  0
    2.1811   -1.5965    1.1933 H   0  0  0  0  0  0  0  0  0  0  0  0
    1.1535   -1.1216    2.5618 H   0  0  0  0  0  0  0  0  0  0  0  0
    0.7572   -0.2637   -1.8813 N   0  0  0  0  0  0  0  0  0  0  0  0
    0.8314   -0.7384   -3.2691 C   0  0  2  0  0  0  0  0  0  0  0  0
    2.0574   -0.1430   -3.9924 C   0  0  0  0  0  0  0  0  0  0  0  0
    2.6712    0.7925   -3.4884 O   0  0  0  0  0  0  0  0  0  0  0  0
   -0.4662   -0.3514   -3.9849 C   0  0  0  0  0  0  0  0  0  0  0  0
    1.3211    0.5561   -1.6589 H   0  0  0  0  0  0  0  0  0  0  0  0
    0.9408   -1.8283   -3.2851 H   0  0  0  0  0  0  0  0  0  0  0  0
   -0.5934    0.7357   -3.9874 H   0  0  0  0  0  0  0  0  0  0  0  0
   -0.4550   -0.7039   -5.0203 H   0  0  0  0  0  0  0  0  0  0  0  0
   -1.3258   -0.8015   -3.4781 H   0  0  0  0  0  0  0  0  0  0  0  0
    2.4905   -0.6711   -5.1945 N   0  0  0  0  0  0  0  0  0  0  0  0
    3.6748   -0.1936   -5.8984 C   0  0  0  0  0  0  0  0  0  0  0  0
    1.9865   -1.4714   -5.5659 H   0  0  0  0  0  0  0  0  0  0  0  0
    3.5806    0.8731   -6.1282 H   0  0  0  0  0  0  0  0  0  0  0  0
    4.5711   -0.3449   -5.2876 H   0  0  0  0  0  0  0  0  0  0  0  0
    3.8017   -0.7391   -6.8387 H   0  0  0  0  0  0  0  0  0  0  0  0
  1  2  2  0  0  0  0
  1  3  1  0  0  0  0
  1  7  1  0  0  0  0
  3  4  1  0  0  0  0
  3  5  1  0  0  0  0
  3  6  1  0  0  0  0
  7  8  1  0  0  0  0
  7 12  1  0  0  0  0
  8  9  1  0  0  0  0
  8 11  1  0  0  0  0
  8 13  1  0  0  0  0
  9 10  2  0  0  0  0
  9 17  1  0  0  0  0
 11 14  1  0  0  0  0
 11 15  1  0  0  0  0
 11 16  1  0  0  0  0
 17 18  1  0  0  0  0
 17 22  1  0  0  0  0
 18 19  1  0  0  0  0
 18 21  1  0  0  0  0
 18 23  1  0  0  0  0
 19 20  2  0  0  0  0
 19 27  1  0  0  0  0
 21 24  1  0  0  0  0
 21 25  1  0  0  0  0
 21 26  1  0  0  0  0
 27 28  1  0  0  0  0
 27 32  1  0  0  0  0
 28 29  1  0  0  0  0
 28 31  1  0  0  0  0
 28 33  1  0  0  0  0
 29 30  2  0  0  0  0
 29 37  1  0  0  0  0
 31 34  1  0  0  0  0
 31 35  1  0  0  0  0
 31 36  1  0  0  0  0
 37 38  1  0  0  0  0
 37 39  1  0  0  0  0
 38 40  1  0  0  0  0
 38 41  1  0  0  0  0
 38 42  1  0  0  0  0
M  END
$$$$

  -OEChem-05262215353D

 42 41  0     1  0  0  0  0  0999 V2000
   -5.5397   -0.9772    1.8454 C   0  0  0  0  0  0  0  0  0  0  0  0
   -5.9427    0.0786    1.3820 O   0  0  0  0  0  0  0  0  0  0  0  0
   -6.4769   -2.1646    1.9605 C   0  0  0  0  0  0  0  0  0  0  0  0
   -6.5690   -2.4678    3.0063 H   0  0  0  0  0  0  0  0  0  0  0  0
   -7.4681   -1.8999    1.5818 H   0  0  0  0  0  0  0  0  0  0  0  0
   -6.0889   -3.0034    1.3771 H   0  0  0  0  0  0  0  0  0  0  0  0
   -4.2301   -1.0942    2.2591 N   0  0  0  0  0  0  0  0  0  0  0  0
   -3.1991   -0.0731    2.0387 C   0  0  2  0  0  0  0  0  0  0  0  0
   -1.8043   -0.7066    1.8528 C   0  0  0  0  0  0  0  0  0  0  0  0
   -1.6013   -1.8264    2.3054 O   0  0  0  0  0  0  0  0  0  0  0  0
   -3.2002    0.8813    3.2362 C   0  0  0  0  0  0  0  0  0  0  0  0
   -3.9013   -2.0227    2.5235 H   0  0  0  0  0  0  0  0  0  0  0  0
   -3.4290    0.4886    1.1270 H   0  0  0  0  0  0  0  0  0  0  0  0
   -2.9741    0.3363    4.1586 H   0  0  0  0  0  0  0  0  0  0  0  0
   -2.4510    1.6674    3.1026 H   0  0  0  0  0  0  0  0  0  0  0  0
   -4.1820    1.3540    3.3427 H   0  0  0  0  0  0  0  0  0  0  0  0
   -0.8239    0.0133    1.1838 N   0  0  0  0  0  0  0  0  0  0  0  0
    0.4727   -0.4901    0.6784 C   0  0  2  0  0  0  0  0  0  0  0  0
    0.3666   -1.0153   -0.7712 C   0  0  0  0  0  0  0  0  0  0  0  0
   -0.4631   -1.8591   -1.0827 O   0  0  0  0  0  0  0  0  0  0  0  0
    1.1802   -1.5141    1.5787 C   0  0  0  0  0  0  0  0  0  0  0  0
   -1.1538    0.8870    0.7846 H   0  0  0  0  0  0  0  0  0  0  0  0
    1.1360    0.3792    0.6495 H   0  0  0  0  0  0  0  0  0  0  0  0
    0.6946   -2.4930    1.5145 H   0  0  0  0  0  0  0  0  0  0  0  0
    2.2219   -1.6347    1.2664 H   0  0  0  0  0  0  0  0  0  0  0  0
    1.1665   -1.1818    2.6213 H   0  0  0  0  0  0  0  0  0  0  0  0
    1.1305   -0.4430   -1.7713 N   0  0  0  0  0  0  0  0  0  0  0  0
    1.1677   -0.9198   -3.1601 C   0  0  2  0  0  0  0  0  0  0  0  0
    2.5613   -0.7049   -3.7868 C   0  0  0  0  0  0  0  0  0  0  0  0
    3.3767    0.0243   -3.2312 O   0  0  0  0  0  0  0  0  0  0  0  0
    0.0928   -0.1749   -3.9575 C   0  0  0  0  0  0  0  0  0  0  0  0
    1.8888    0.1776   -1.4892 H   0  0  0  0  0  0  0  0  0  0  0  0
    0.9597   -1.9950   -3.1892 H   0  0  0  0  0  0  0  0  0  0  0  0
    0.2910    0.9016   -3.9551 H   0  0  0  0  0  0  0  0  0  0  0  0
    0.0715   -0.5238   -4.9941 H   0  0  0  0  0  0  0  0  0  0  0  0
   -0.8939   -0.3487   -3.5164 H   0  0  0  0  0  0  0  0  0  0  0  0
    2.9101   -1.3438   -4.9624 N   0  0  0  0  0  0  0  0  0  0  0  0
    4.2235   -1.2176   -5.5828 C   0  0  0  0  0  0  0  0  0  0  0  0
    2.2261   -1.9683   -5.3802 H   0  0  0  0  0  0  0  0  0  0  0  0
    4.4385   -0.1697   -5.8169 H   0  0  0  0  0  0  0  0  0  0  0  0
    5.0021   -1.5957   -4.9121 H   0  0  0  0  0  0  0  0  0  0  0  0
    4.2592   -1.7928   -6.5130 H   0  0  0  0  0  0  0  0  0  0  0  0
  1  2  2  0  0  0  0
  1  3  1  0  0  0  0
  1  7  1  0  0  0  0
  3  4  1  0  0  0  0
  3  5  1  0  0  0  0
  3  6  1  0  0  0  0
  7  8  1  0  0  0  0
  7 12  1  0  0  0  0
  8  9  1  0  0  0  0
  8 11  1  0  0  0  0
  8 13  1  0  0  0  0
  9 10  2  0  0  0  0
  9 17  1  0  0  0  0
 11 14  1  0  0  0  0
 11 15  1  0  0  0  0
 11 16  1  0  0  0  0
 17 18  1  0  0  0  0
 17 22  1  0  0  0  0
 18 19  1  0  0  0  0
 18 21  1  0  0  0  0
 18 23  1  0  0  0  0
 19 20  2  0  0  0  0
 19 27  1  0  0  0  0
 21 24  1  0  0  0  0
 21 25  1  0  0  0  0
 21 26  1  0  0  0  0
 27 28  1  0  0  0  0
 27 32  1  0  0  0  0
 28 29  1  0  0  0  0
 28 31  1  0  0  0  0
 28 33  1  0  0  0  0
 29 30  2  0  0  0  0
 29 37  1  0  0  0  0
 31 34  1  0  0  0  0
 31 35  1  0  0  0  0
 31 36  1  0  0  0  0
 37 38  1  0  0  0  0
 37 39  1  0  0  0  0
 38 40  1  0  0  0  0
 38 41  1  0  0  0  0
 38 42  1  0  0  0  0
M  END
$$$$

  -OEChem-05262215353D

 42 41  0     1  0  0  0  0  0999 V2000
   -5.5173   -0.9732    1.8324 C   0  0  0  0  0  0  0  0  0  0  0  0
   -5.9328    0.0872    1.3916 O   0  0  0  0  0  0  0  0  0  0  0  0
   -6.4272   -2.1861    1.8818 C   0  0  0  0  0  0  0  0  0  0  0  0
   -6.4864   -2.5668    2.9042 H   0  0  0  0  0  0  0  0  0  0  0  0
   -7.4332   -1.9180    1.5466 H   0  0  0  0  0  0  0  0  0  0  0  0
   -6.0362   -2.9713    1.2301 H   0  0  0  0  0  0  0  0  0  0  0  0
   -4.2174   -1.0754    2.2789 N   0  0  0  0  0  0  0  0  0  0  0  0
   -3.1945   -0.0396    2.0932 C   0  0  2  0  0  0  0  0  0  0  0  0
   -1.8022   -0.6640    1.8618 C   0  0  0  0  0  0  0  0  0  0  0  0
   -1.5818   -1.7865    2.3013 O   0  0  0  0  0  0  0  0  0  0  0  0
   -3.1824    0.8548    3.3357 C   0  0  0  0  0  0  0  0  0  0  0  0
   -3.8790   -2.0062    2.5218 H   0  0  0  0  0  0  0  0  0  0  0  0
   -3.4364    0.5650    1.2125 H   0  0  0  0  0  0  0  0  0  0  0  0
   -2.9386    0.2666    4.2264 H   0  0  0  0  0  0  0  0  0  0  0  0
   -2.4397    1.6509    3.2292 H   0  0  0  0  0  0  0  0  0  0  0  0
   -4.1649    1.3154    3.4800 H   0  0  0  0  0  0  0  0  0  0  0  0
   -0.8413    0.0613    1.1711 N   0  0  0  0  0  0  0  0  0  0  0  0
    0.4541   -0.4356    0.6556 C   0  0  2  0  0  0  0  0  0  0  0  0
    0.3548   -0.9861   -0.7851 C   0  0  0  0  0  0  0  0  0  0  0  0
   -0.6279   -1.6106   -1.1631 O   0  0  0  0  0  0  0  0  0  0  0  0
    1.1892   -1.4320    1.5642 C   0  0  0  0  0  0  0  0  0  0  0  0
   -1.1906    0.9202    0.7565 H   0  0  0  0  0  0  0  0  0  0  0  0
    1.1011    0.4451    0.6034 H   0  0  0  0  0  0  0  0  0  0  0  0
    0.7214   -2.4206    1.5218 H   0  0  0  0  0  0  0  0  0  0  0  0
    2.2294   -1.5390    1.2426 H   0  0  0  0  0  0  0  0  0  0  0  0
    1.1808   -1.0822    2.6010 H   0  0  0  0  0  0  0  0  0  0  0  0
    1.3154   -0.6421   -1.7172 N   0  0  0  0  0  0  0  0  0  0  0  0
    1.3861   -1.2032   -3.0723 C   0  0  2  0  0  0  0  0  0  0  0  0
    2.8521   -1.3698   -3.5248 C   0  0  0  0  0  0  0  0  0  0  0  0
    3.7553   -0.8506   -2.8763 O   0  0  0  0  0  0  0  0  0  0  0  0
    0.6221   -0.2769   -4.0234 C   0  0  0  0  0  0  0  0  0  0  0  0
    2.1776   -0.2273   -1.3635 H   0  0  0  0  0  0  0  0  0  0  0  0
    0.9253   -2.1970   -3.0885 H   0  0  0  0  0  0  0  0  0  0  0  0
    1.0718    0.7212   -4.0299 H   0  0  0  0  0  0  0  0  0  0  0  0
    0.6382   -0.6741   -5.0427 H   0  0  0  0  0  0  0  0  0  0  0  0
   -0.4219   -0.1868   -3.7064 H   0  0  0  0  0  0  0  0  0  0  0  0
    3.1642   -2.1223   -4.6419 N   0  0  0  0  0  0  0  0  0  0  0  0
    4.5317   -2.3689   -5.0846 C   0  0  0  0  0  0  0  0  0  0  0  0
    2.3993   -2.5786   -5.1309 H   0  0  0  0  0  0  0  0  0  0  0  0
    5.0628   -1.4236   -5.2392 H   0  0  0  0  0  0  0  0  0  0  0  0
    5.0746   -2.9600   -4.3395 H   0  0  0  0  0  0  0  0  0  0  0  0
    4.5298   -2.9203   -6.0299 H   0  0  0  0  0  0  0  0  0  0  0  0
  1  2  2  0  0  0  0
  1  3  1  0  0  0  0
  1  7  1  0  0  0  0
  3  4  1  0  0  0  0
  3  5  1  0  0  0  0
  3  6  1  0  0  0  0
  7  8  1  0  0  0  0
  7 12  1  0  0  0  0
  8  9  1  0  0  0  0
  8 11  1  0  0  0  0
  8 13  1  0  0  0  0
  9 10  2  0  0  0  0
  9 17  1  0  0  0  0
 11 14  1  0  0  0  0
 11 15  1  0  0  0  0
 11 16  1  0  0  0  0
 17 18  1  0  0  0  0
 17 22  1  0  0  0  0
 18 19  1  0  0  0  0
 18 21  1  0  0  0  0
 18 23  1  0  0  0  0
 19 20  2  0  0  0  0
 19 27  1  0  0  0  0
 21 24  1  0  0  0  0
 21 25  1  0  0  0  0
 21 26  1  0  0  0  0
 27 28  1  0  0  0  0
 27 32  1  0  0  0  0
 28 29  1  0  0  0  0
 28 31  1  0  0  0  0
 28 33  1  0  0  0  0
 29 30  2  0  0  0  0
 29 37  1  0  0  0  0
 31 34  1  0  0  0  0
 31 35  1  0  0  0  0
 31 36  1  0  0  0  0
 37 38  1  0  0  0  0
 37 39  1  0  0  0  0
 38 40  1  0  0  0  0
 38 41  1  0  0  0  0
 38 42  1  0  0  0  0
M  END
$$$$

  -OEChem-05262215353D

 42 41  0     1  0  0  0  0  0999 V2000
   -5.5321   -1.0208    1.8832 C   0  0  0  0  0  0  0  0  0  0  0  0
   -5.9686    0.0112    1.3973 O   0  0  0  0  0  0  0  0  0  0  0  0
   -6.4395   -2.2248    2.0525 C   0  0  0  0  0  0  0  0  0  0  0  0
   -6.4393   -2.5497    3.0958 H   0  0  0  0  0  0  0  0  0  0  0  0
   -7.4626   -1.9684    1.7637 H   0  0  0  0  0  0  0  0  0  0  0  0
   -6.0900   -3.0457    1.4214 H   0  0  0  0  0  0  0  0  0  0  0  0
   -4.2114   -1.0980    2.2703 N   0  0  0  0  0  0  0  0  0  0  0  0
   -3.2040   -0.0693    1.9838 C   0  0  2  0  0  0  0  0  0  0  0  0
   -1.7913   -0.6788    1.8580 C   0  0  0  0  0  0  0  0  0  0  0  0
   -1.5837   -1.7936    2.3237 O   0  0  0  0  0  0  0  0  0  0  0  0
   -3.2417    0.9777    3.1011 C   0  0  0  0  0  0  0  0  0  0  0  0
   -3.8583   -2.0102    2.5592 H   0  0  0  0  0  0  0  0  0  0  0  0
   -3.4375    0.4118    1.0278 H   0  0  0  0  0  0  0  0  0  0  0  0
   -3.0224    0.5131    4.0676 H   0  0  0  0  0  0  0  0  0  0  0  0
   -2.5044    1.7644    2.9162 H   0  0  0  0  0  0  0  0  0  0  0  0
   -4.2325    1.4399    3.1535 H   0  0  0  0  0  0  0  0  0  0  0  0
   -0.8047    0.0425    1.2006 N   0  0  0  0  0  0  0  0  0  0  0  0
    0.4941   -0.4709    0.7105 C   0  0  2  0  0  0  0  0  0  0  0  0
    0.4126   -1.0001   -0.7396 C   0  0  0  0  0  0  0  0  0  0  0  0
   -0.6607   -1.3147   -1.2397 O   0  0  0  0  0  0  0  0  0  0  0  0
    1.1938   -1.4885    1.6244 C   0  0  0  0  0  0  0  0  0  0  0  0
   -1.1540    0.8752    0.7350 H   0  0  0  0  0  0  0  0  0  0  0  0
    1.1555    0.3998    0.6785 H   0  0  0  0  0  0  0  0  0  0  0  0
    0.7172   -2.4713    1.5523 H   0  0  0  0  0  0  0  0  0  0  0  0
    2.2428   -1.6007    1.3343 H   0  0  0  0  0  0  0  0  0  0  0  0
    1.1581   -1.1546    2.6659 H   0  0  0  0  0  0  0  0  0  0  0  0
    1.5238   -0.9350   -1.5587 N   0  0  0  0  0  0  0  0  0  0  0  0
    1.5786   -1.5048   -2.9115 C   0  0  2  0  0  0  0  0  0  0  0  0
    2.9763   -2.0832   -3.2167 C   0  0  0  0  0  0  0  0  0  0  0  0
    3.9113   -1.8617   -2.4538 O   0  0  0  0  0  0  0  0  0  0  0  0
    1.2100   -0.4087   -3.9156 C   0  0  0  0  0  0  0  0  0  0  0  0
    2.4244   -0.7805   -1.1052 H   0  0  0  0  0  0  0  0  0  0  0  0
    0.8616   -2.3285   -2.9981 H   0  0  0  0  0  0  0  0  0  0  0  0
    1.9178    0.4238   -3.8505 H   0  0  0  0  0  0  0  0  0  0  0  0
    1.2241   -0.8013   -4.9367 H   0  0  0  0  0  0  0  0  0  0  0  0
    0.2044   -0.0295   -3.7081 H   0  0  0  0  0  0  0  0  0  0  0  0
    3.1835   -2.8679   -4.3360 N   0  0  0  0  0  0  0  0  0  0  0  0
    4.4701   -3.4698   -4.6645 C   0  0  0  0  0  0  0  0  0  0  0  0
    2.3836   -3.0581   -4.9329 H   0  0  0  0  0  0  0  0  0  0  0  0
    5.2417   -2.6986   -4.7622 H   0  0  0  0  0  0  0  0  0  0  0  0
    4.7732   -4.1745   -3.8831 H   0  0  0  0  0  0  0  0  0  0  0  0
    4.4032   -4.0121   -5.6125 H   0  0  0  0  0  0  0  0  0  0  0  0
  1  2  2  0  0  0  0
  1  3  1  0  0  0  0
  1  7  1  0  0  0  0
  3  4  1  0  0  0  0
  3  5  1  0  0  0  0
  3  6  1  0  0  0  0
  7  8  1  0  0  0  0
  7 12  1  0  0  0  0
  8  9  1  0  0  0  0
  8 11  1  0  0  0  0
  8 13  1  0  0  0  0
  9 10  2  0  0  0  0
  9 17  1  0  0  0  0
 11 14  1  0  0  0  0
 11 15  1  0  0  0  0
 11 16  1  0  0  0  0
 17 18  1  0  0  0  0
 17 22  1  0  0  0  0
 18 19  1  0  0  0  0
 18 21  1  0  0  0  0
 18 23  1  0  0  0  0
 19 20  2  0  0  0  0
 19 27  1  0  0  0  0
 21 24  1  0  0  0  0
 21 25  1  0  0  0  0
 21 26  1  0  0  0  0
 27 28  1  0  0  0  0
 27 32  1  0  0  0  0
 28 29  1  0  0  0  0
 28 31  1  0  0  0  0
 28 33  1  0  0  0  0
 29 30  2  0  0  0  0
 29 37  1  0  0  0  0
 31 34  1  0  0  0  0
 31 35  1  0  0  0  0
 31 36  1  0  0  0  0
 37 38  1  0  0  0  0
 37 39  1  0  0  0  0
 38 40  1  0  0  0  0
 38 41  1  0  0  0  0
 38 42  1  0  0  0  0
M  END
$$$$

  -OEChem-05262215353D

 42 41  0     1  0  0  0  0  0999 V2000
   -5.5058   -0.9772    1.8459 C   0  0  0  0  0  0  0  0  0  0  0  0
   -5.9282    0.0826    1.4105 O   0  0  0  0  0  0  0  0  0  0  0  0
   -6.4172   -2.1883    1.9147 C   0  0  0  0  0  0  0  0  0  0  0  0
   -6.4575   -2.5682    2.9385 H   0  0  0  0  0  0  0  0  0  0  0  0
   -7.4289   -1.9177    1.5992 H   0  0  0  0  0  0  0  0  0  0  0  0
   -6.0411   -2.9749    1.2557 H   0  0  0  0  0  0  0  0  0  0  0  0
   -4.1972   -1.0803    2.2660 N   0  0  0  0  0  0  0  0  0  0  0  0
   -3.1803   -0.0414    2.0643 C   0  0  2  0  0  0  0  0  0  0  0  0
   -1.7816   -0.6578    1.8527 C   0  0  0  0  0  0  0  0  0  0  0  0
   -1.5587   -1.7822    2.2870 O   0  0  0  0  0  0  0  0  0  0  0  0
   -3.1789    0.8821    3.2857 C   0  0  0  0  0  0  0  0  0  0  0  0
   -3.8544   -2.0095    2.5089 H   0  0  0  0  0  0  0  0  0  0  0  0
   -3.4230    0.5414    1.1692 H   0  0  0  0  0  0  0  0  0  0  0  0
   -2.9301    0.3178    4.1902 H   0  0  0  0  0  0  0  0  0  0  0  0
   -2.4438    1.6827    3.1607 H   0  0  0  0  0  0  0  0  0  0  0  0
   -4.1658    1.3367    3.4185 H   0  0  0  0  0  0  0  0  0  0  0  0
   -0.8230    0.0656    1.1588 N   0  0  0  0  0  0  0  0  0  0  0  0
    0.4837   -0.4256    0.6679 C   0  0  2  0  0  0  0  0  0  0  0  0
    0.4057   -1.0067   -0.7628 C   0  0  0  0  0  0  0  0  0  0  0  0
   -0.6683   -1.1354   -1.3389 O   0  0  0  0  0  0  0  0  0  0  0  0
    1.2213   -1.3828    1.6186 C   0  0  0  0  0  0  0  0  0  0  0  0
   -1.1909    0.8890    0.6902 H   0  0  0  0  0  0  0  0  0  0  0  0
    1.1191    0.4617    0.5928 H   0  0  0  0  0  0  0  0  0  0  0  0
    0.7833   -2.3854    1.5840 H   0  0  0  0  0  0  0  0  0  0  0  0
    2.2744   -1.4662    1.3341 H   0  0  0  0  0  0  0  0  0  0  0  0
    1.1712   -1.0120    2.6469 H   0  0  0  0  0  0  0  0  0  0  0  0
    1.5673   -1.2195   -1.4798 N   0  0  0  0  0  0  0  0  0  0  0  0
    1.6175   -1.8759   -2.7919 C   0  0  2  0  0  0  0  0  0  0  0  0
    2.8901   -2.7382   -2.9265 C   0  0  0  0  0  0  0  0  0  0  0  0
    3.7999   -2.6163   -2.1124 O   0  0  0  0  0  0  0  0  0  0  0  0
    1.5707   -0.7958   -3.8764 C   0  0  0  0  0  0  0  0  0  0  0  0
    2.4412   -1.2130   -0.9537 H   0  0  0  0  0  0  0  0  0  0  0  0
    0.7562   -2.5425   -2.9086 H   0  0  0  0  0  0  0  0  0  0  0  0
    2.4330   -0.1271   -3.7888 H   0  0  0  0  0  0  0  0  0  0  0  0
    1.5802   -1.2495   -4.8719 H   0  0  0  0  0  0  0  0  0  0  0  0
    0.6568   -0.2010   -3.7780 H   0  0  0  0  0  0  0  0  0  0  0  0
    3.0090   -3.6690   -3.9419 N   0  0  0  0  0  0  0  0  0  0  0  0
    4.1562   -4.5590   -4.0778 C   0  0  0  0  0  0  0  0  0  0  0  0
    2.2197   -3.7831   -4.5713 H   0  0  0  0  0  0  0  0  0  0  0  0
    5.0848   -3.9822   -4.1434 H   0  0  0  0  0  0  0  0  0  0  0  0
    4.2216   -5.2338   -3.2178 H   0  0  0  0  0  0  0  0  0  0  0  0
    4.0619   -5.1629   -4.9854 H   0  0  0  0  0  0  0  0  0  0  0  0
  1  2  2  0  0  0  0
  1  3  1  0  0  0  0
  1  7  1  0  0  0  0
  3  4  1  0  0  0  0
  3  5  1  0  0  0  0
  3  6  1  0  0  0  0
  7  8  1  0  0  0  0
  7 12  1  0  0  0  0
  8  9  1  0  0  0  0
  8 11  1  0  0  0  0
  8 13  1  0  0  0  0
  9 10  2  0  0  0  0
  9 17  1  0  0  0  0
 11 14  1  0  0  0  0
 11 15  1  0  0  0  0
 11 16  1  0  0  0  0
 17 18  1  0  0  0  0
 17 22  1  0  0  0  0
 18 19  1  0  0  0  0
 18 21  1  0  0  0  0
 18 23  1  0  0  0  0
 19 20  2  0  0  0  0
 19 27  1  0  0  0  0
 21 24  1  0  0  0  0
 21 25  1  0  0  0  0
 21 26  1  0  0  0  0
 27 28  1  0  0  0  0
 27 32  1  0  0  0  0
 28 29  1  0  0  0  0
 28 31  1  0  0  0  0
 28 33  1  0  0  0  0
 29 30  2  0  0  0  0
 29 37  1  0  0  0  0
 31 34  1  0  0  0  0
 31 35  1  0  0  0  0
 31 36  1  0  0  0  0
 37 38  1  0  0  0  0
 37 39  1  0  0  0  0
 38 40  1  0  0  0  0
 38 41  1  0  0  0  0
 38 42  1  0  0  0  0
M  END
$$$$

  -OEChem-05262215353D

 42 41  0     1  0  0  0  0  0999 V2000
   -5.5567   -1.0218    1.9174 C   0  0  0  0  0  0  0  0  0  0  0  0
   -5.9790   -0.0587    1.2972 O   0  0  0  0  0  0  0  0  0  0  0  0
   -6.4744   -2.1897    2.2266 C   0  0  0  0  0  0  0  0  0  0  0  0
   -6.5294   -2.3461    3.3066 H   0  0  0  0  0  0  0  0  0  0  0  0
   -7.4804   -1.9893    1.8476 H   0  0  0  0  0  0  0  0  0  0  0  0
   -6.0933   -3.0978    1.7531 H   0  0  0  0  0  0  0  0  0  0  0  0
   -4.2416   -1.0587    2.3280 N   0  0  0  0  0  0  0  0  0  0  0  0
   -3.2168   -0.0905    1.9169 C   0  0  2  0  0  0  0  0  0  0  0  0
   -1.8187   -0.7435    1.8409 C   0  0  0  0  0  0  0  0  0  0  0  0
   -1.6615   -1.8566    2.3299 O   0  0  0  0  0  0  0  0  0  0  0  0
   -3.2185    1.0710    2.9159 C   0  0  0  0  0  0  0  0  0  0  0  0
   -3.9015   -1.9332    2.7271 H   0  0  0  0  0  0  0  0  0  0  0  0
   -3.4531    0.2922    0.9178 H   0  0  0  0  0  0  0  0  0  0  0  0
   -2.9740    0.7114    3.9207 H   0  0  0  0  0  0  0  0  0  0  0  0
   -2.4834    1.8281    2.6276 H   0  0  0  0  0  0  0  0  0  0  0  0
   -4.2054    1.5440    2.9451 H   0  0  0  0  0  0  0  0  0  0  0  0
   -0.7918   -0.0582    1.2075 N   0  0  0  0  0  0  0  0  0  0  0  0
    0.5260   -0.5671    0.7599 C   0  0  2  0  0  0  0  0  0  0  0  0
    0.5594   -0.7456   -0.7762 C   0  0  0  0  0  0  0  0  0  0  0  0
   -0.3681   -0.3377   -1.4672 O   0  0  0  0  0  0  0  0  0  0  0  0
    1.0484   -1.8261    1.4735 C   0  0  0  0  0  0  0  0  0  0  0  0
   -1.1203    0.7547    0.6901 H   0  0  0  0  0  0  0  0  0  0  0  0
    1.2472    0.2232    0.9881 H   0  0  0  0  0  0  0  0  0  0  0  0
    0.4716   -2.7081    1.1773 H   0  0  0  0  0  0  0  0  0  0  0  0
    2.0979   -2.0055    1.2224 H   0  0  0  0  0  0  0  0  0  0  0  0
    0.9780   -1.7053    2.5589 H   0  0  0  0  0  0  0  0  0  0  0  0
    1.6966   -1.2127   -1.4067 N   0  0  0  0  0  0  0  0  0  0  0  0
    1.7833   -1.5161   -2.8402 C   0  0  2  0  0  0  0  0  0  0  0  0
    2.7010   -2.7305   -3.0919 C   0  0  0  0  0  0  0  0  0  0  0  0
    3.4375   -3.1364   -2.1986 O   0  0  0  0  0  0  0  0  0  0  0  0
    2.3129   -0.2764   -3.5665 C   0  0  0  0  0  0  0  0  0  0  0  0
    2.4081   -1.6445   -0.8169 H   0  0  0  0  0  0  0  0  0  0  0  0
    0.7908   -1.7680   -3.2294 H   0  0  0  0  0  0  0  0  0  0  0  0
    3.3105   -0.0148   -3.1990 H   0  0  0  0  0  0  0  0  0  0  0  0
    2.3744   -0.4581   -4.6436 H   0  0  0  0  0  0  0  0  0  0  0  0
    1.6450    0.5745   -3.3984 H   0  0  0  0  0  0  0  0  0  0  0  0
    2.6932   -3.3794   -4.3125 N   0  0  0  0  0  0  0  0  0  0  0  0
    3.5230   -4.5424   -4.6047 C   0  0  0  0  0  0  0  0  0  0  0  0
    2.0543   -3.0376   -5.0248 H   0  0  0  0  0  0  0  0  0  0  0  0
    4.5846   -4.2854   -4.5246 H   0  0  0  0  0  0  0  0  0  0  0  0
    3.3044   -5.3565   -3.9054 H   0  0  0  0  0  0  0  0  0  0  0  0
    3.3294   -4.8994   -5.6208 H   0  0  0  0  0  0  0  0  0  0  0  0
  1  2  2  0  0  0  0
  1  3  1  0  0  0  0
  1  7  1  0  0  0  0
  3  4  1  0  0  0  0
  3  5  1  0  0  0  0
  3  6  1  0  0  0  0
  7  8  1  0  0  0  0
  7 12  1  0  0  0  0
  8  9  1  0  0  0  0
  8 11  1  0  0  0  0
  8 13  1  0  0  0  0
  9 10  2  0  0  0  0
  9 17  1  0  0  0  0
 11 14  1  0  0  0  0
 11 15  1  0  0  0  0
 11 16  1  0  0  0  0
 17 18  1  0  0  0  0
 17 22  1  0  0  0  0
 18 19  1  0  0  0  0
 18 21  1  0  0  0  0
 18 23  1  0  0  0  0
 19 20  2  0  0  0  0
 19 27  1  0  0  0  0
 21 24  1  0  0  0  0
 21 25  1  0  0  0  0
 21 26  1  0  0  0  0
 27 28  1  0  0  0  0
 27 32  1  0  0  0  0
 28 29  1  0  0  0  0
 28 31  1  0  0  0  0
 28 33  1  0  0  0  0
 29 30  2  0  0  0  0
 29 37  1  0  0  0  0
 31 34  1  0  0  0  0
 31 35  1  0  0  0  0
 31 36  1  0  0  0  0
 37 38  1  0  0  0  0
 37 39  1  0  0  0  0
 38 40  1  0  0  0  0
 38 41  1  0  0  0  0
 38 42  1  0  0  0  0
M  END
$$$$

  -OEChem-05262215353D

 42 41  0     1  0  0  0  0  0999 V2000
   -5.4991   -0.9703    1.8107 C   0  0  0  0  0  0  0  0  0  0  0  0
   -5.8885    0.0656    1.2950 O   0  0  0  0  0  0  0  0  0  0  0  0
   -6.4344   -2.1593    1.9279 C   0  0  0  0  0  0  0  0  0  0  0  0
   -6.5096   -2.4750    2.9711 H   0  0  0  0  0  0  0  0  0  0  0  0
   -7.4319   -1.8915    1.5680 H   0  0  0  0  0  0  0  0  0  0  0  0
   -6.0555   -2.9913    1.3292 H   0  0  0  0  0  0  0  0  0  0  0  0
   -4.2033   -1.0703    2.2708 N   0  0  0  0  0  0  0  0  0  0  0  0
   -3.1591   -0.0666    2.0282 C   0  0  2  0  0  0  0  0  0  0  0  0
   -1.7696   -0.7193    1.8678 C   0  0  0  0  0  0  0  0  0  0  0  0
   -1.5929   -1.8480    2.3115 O   0  0  0  0  0  0  0  0  0  0  0  0
   -3.1532    0.9210    3.1985 C   0  0  0  0  0  0  0  0  0  0  0  0
   -3.8874   -1.9873    2.5855 H   0  0  0  0  0  0  0  0  0  0  0  0
   -3.3755    0.4738    1.1001 H   0  0  0  0  0  0  0  0  0  0  0  0
   -2.9337    0.4010    4.1366 H   0  0  0  0  0  0  0  0  0  0  0  0
   -2.3953    1.6949    3.0441 H   0  0  0  0  0  0  0  0  0  0  0  0
   -4.1299    1.4071    3.2888 H   0  0  0  0  0  0  0  0  0  0  0  0
   -0.7778   -0.0234    1.1931 N   0  0  0  0  0  0  0  0  0  0  0  0
    0.5522   -0.4963    0.7462 C   0  0  2  0  0  0  0  0  0  0  0  0
    0.5638   -0.7334   -0.7826 C   0  0  0  0  0  0  0  0  0  0  0  0
   -0.2853   -0.2017   -1.4901 O   0  0  0  0  0  0  0  0  0  0  0  0
    1.1397   -1.6891    1.5214 C   0  0  0  0  0  0  0  0  0  0  0  0
   -1.1238    0.7943    0.6946 H   0  0  0  0  0  0  0  0  0  0  0  0
    1.2422    0.3338    0.9240 H   0  0  0  0  0  0  0  0  0  0  0  0
    0.6153   -2.6160    1.2672 H   0  0  0  0  0  0  0  0  0  0  0  0
    2.1999   -1.8175    1.2829 H   0  0  0  0  0  0  0  0  0  0  0  0
    1.0551   -1.5211    2.5996 H   0  0  0  0  0  0  0  0  0  0  0  0
    1.5730   -1.4567   -1.3891 N   0  0  0  0  0  0  0  0  0  0  0  0
    1.5480   -1.8876   -2.7924 C   0  0  2  0  0  0  0  0  0  0  0  0
    2.2002   -3.2770   -2.9528 C   0  0  0  0  0  0  0  0  0  0  0  0
    2.8601   -3.7527   -2.0345 O   0  0  0  0  0  0  0  0  0  0  0  0
    2.2788   -0.8399   -3.6369 C   0  0  0  0  0  0  0  0  0  0  0  0
    2.1872   -1.9905   -0.7737 H   0  0  0  0  0  0  0  0  0  0  0  0
    0.5119   -1.9715   -3.1381 H   0  0  0  0  0  0  0  0  0  0  0  0
    3.3221   -0.7513   -3.3175 H   0  0  0  0  0  0  0  0  0  0  0  0
    2.2601   -1.1161   -4.6955 H   0  0  0  0  0  0  0  0  0  0  0  0
    1.7962    0.1367   -3.5279 H   0  0  0  0  0  0  0  0  0  0  0  0
    2.0251   -4.0093   -4.1124 N   0  0  0  0  0  0  0  0  0  0  0  0
    2.5626   -5.3523   -4.2962 C   0  0  0  0  0  0  0  0  0  0  0  0
    1.4391   -3.6087   -4.8393 H   0  0  0  0  0  0  0  0  0  0  0  0
    3.6526   -5.3472   -4.1898 H   0  0  0  0  0  0  0  0  0  0  0  0
    2.1395   -6.0393   -3.5555 H   0  0  0  0  0  0  0  0  0  0  0  0
    2.3155   -5.7253   -5.2947 H   0  0  0  0  0  0  0  0  0  0  0  0
  1  2  2  0  0  0  0
  1  3  1  0  0  0  0
  1  7  1  0  0  0  0
  3  4  1  0  0  0  0
  3  5  1  0  0  0  0
  3  6  1  0  0  0  0
  7  8  1  0  0  0  0
  7 12  1  0  0  0  0
  8  9  1  0  0  0  0
  8 11  1  0  0  0  0
  8 13  1  0  0  0  0
  9 10  2  0  0  0  0
  9 17  1  0  0  0  0
 11 14  1  0  0  0  0
 11 15  1  0  0  0  0
 11 16  1  0  0  0  0
 17 18  1  0  0  0  0
 17 22  1  0  0  0  0
 18 19  1  0  0  0  0
 18 21  1  0  0  0  0
 18 23  1  0  0  0  0
 19 20  2  0  0  0  0
 19 27  1  0  0  0  0
 21 24  1  0  0  0  0
 21 25  1  0  0  0  0
 21 26  1  0  0  0  0
 27 28  1  0  0  0  0
 27 32  1  0  0  0  0
 28 29  1  0  0  0  0
 28 31  1  0  0  0  0
 28 33  1  0  0  0  0
 29 30  2  0  0  0  0
 29 37  1  0  0  0  0
 31 34  1  0  0  0  0
 31 35  1  0  0  0  0
 31 36  1  0  0  0  0
 37 38  1  0  0  0  0
 37 39  1  0  0  0  0
 38 40  1  0  0  0  0
 38 41  1  0  0  0  0
 38 42  1  0  0  0  0
M  END
$$$$

  -OEChem-05262215353D

 42 41  0     1  0  0  0  0  0999 V2000
   -5.5224   -0.9863    1.8757 C   0  0  0  0  0  0  0  0  0  0  0  0
   -5.9184   -0.0084    1.2614 O   0  0  0  0  0  0  0  0  0  0  0  0
   -6.4613   -2.1476    2.1426 C   0  0  0  0  0  0  0  0  0  0  0  0
   -6.5195   -2.3429    3.2160 H   0  0  0  0  0  0  0  0  0  0  0  0
   -7.4634   -1.9142    1.7724 H   0  0  0  0  0  0  0  0  0  0  0  0
   -6.0979   -3.0446    1.6354 H   0  0  0  0  0  0  0  0  0  0  0  0
   -4.2178   -1.0456    2.3165 N   0  0  0  0  0  0  0  0  0  0  0  0
   -3.1770   -0.0727    1.9608 C   0  0  2  0  0  0  0  0  0  0  0  0
   -1.7872   -0.7384    1.8648 C   0  0  0  0  0  0  0  0  0  0  0  0
   -1.6308   -1.8536    2.3480 O   0  0  0  0  0  0  0  0  0  0  0  0
   -3.1705    1.0375    3.0158 C   0  0  0  0  0  0  0  0  0  0  0  0
   -3.8968   -1.9294    2.7110 H   0  0  0  0  0  0  0  0  0  0  0  0
   -3.3990    0.3625    0.9802 H   0  0  0  0  0  0  0  0  0  0  0  0
   -2.9453    0.6245    4.0043 H   0  0  0  0  0  0  0  0  0  0  0  0
   -2.4182    1.7943    2.7742 H   0  0  0  0  0  0  0  0  0  0  0  0
   -4.1490    1.5264    3.0568 H   0  0  0  0  0  0  0  0  0  0  0  0
   -0.7685   -0.0715    1.2012 N   0  0  0  0  0  0  0  0  0  0  0  0
    0.5597   -0.5750    0.7858 C   0  0  2  0  0  0  0  0  0  0  0  0
    0.5789   -0.8245   -0.7401 C   0  0  0  0  0  0  0  0  0  0  0  0
   -0.0910   -0.1039   -1.4722 O   0  0  0  0  0  0  0  0  0  0  0  0
    1.1145   -1.7654    1.5894 C   0  0  0  0  0  0  0  0  0  0  0  0
   -1.0864    0.7469    0.6848 H   0  0  0  0  0  0  0  0  0  0  0  0
    1.2637    0.2440    0.9606 H   0  0  0  0  0  0  0  0  0  0  0  0
    0.5701   -2.6858    1.3538 H   0  0  0  0  0  0  0  0  0  0  0  0
    2.1723   -1.9232    1.3577 H   0  0  0  0  0  0  0  0  0  0  0  0
    1.0297   -1.5718    2.6633 H   0  0  0  0  0  0  0  0  0  0  0  0
    1.3723   -1.8012   -1.3117 N   0  0  0  0  0  0  0  0  0  0  0  0
    1.3100   -2.1964   -2.7242 C   0  0  2  0  0  0  0  0  0  0  0  0
    1.6035   -3.7018   -2.8969 C   0  0  0  0  0  0  0  0  0  0  0  0
    2.0963   -4.3395   -1.9724 O   0  0  0  0  0  0  0  0  0  0  0  0
    2.3219   -1.3548   -3.5065 C   0  0  0  0  0  0  0  0  0  0  0  0
    1.8055   -2.4727   -0.6776 H   0  0  0  0  0  0  0  0  0  0  0  0
    0.3047   -2.0118   -3.1176 H   0  0  0  0  0  0  0  0  0  0  0  0
    3.3355   -1.5311   -3.1320 H   0  0  0  0  0  0  0  0  0  0  0  0
    2.2929   -1.6096   -4.5701 H   0  0  0  0  0  0  0  0  0  0  0  0
    2.0915   -0.2897   -3.4011 H   0  0  0  0  0  0  0  0  0  0  0  0
    1.3016   -4.3471   -4.0821 N   0  0  0  0  0  0  0  0  0  0  0  0
    1.5152   -5.7744   -4.2925 C   0  0  0  0  0  0  0  0  0  0  0  0
    0.8591   -3.8018   -4.8164 H   0  0  0  0  0  0  0  0  0  0  0  0
    2.5690   -6.0317   -4.1419 H   0  0  0  0  0  0  0  0  0  0  0  0
    0.9068   -6.3602   -3.5953 H   0  0  0  0  0  0  0  0  0  0  0  0
    1.2357   -6.0523   -5.3132 H   0  0  0  0  0  0  0  0  0  0  0  0
  1  2  2  0  0  0  0
  1  3  1  0  0  0  0
  1  7  1  0  0  0  0
  3  4  1  0  0  0  0
  3  5  1  0  0  0  0
  3  6  1  0  0  0  0
  7  8  1  0  0  0  0
  7 12  1  0  0  0  0
  8  9  1  0  0  0  0
  8 11  1  0  0  0  0
  8 13  1  0  0  0  0
  9 10  2  0  0  0  0
  9 17  1  0  0  0  0
 11 14  1  0  0  0  0
 11 15  1  0  0  0  0
 11 16  1  0  0  0  0
 17 18  1  0  0  0  0
 17 22  1  0  0  0  0
 18 19  1  0  0  0  0
 18 21  1  0  0  0  0
 18 23  1  0  0  0  0
 19 20  2  0  0  0  0
 19 27  1  0  0  0  0
 21 24  1  0  0  0  0
 21 25  1  0  0  0  0
 21 26  1  0  0  0  0
 27 28  1  0  0  0  0
 27 32  1  0  0  0  0
 28 29  1  0  0  0  0
 28 31  1  0  0  0  0
 28 33  1  0  0  0  0
 29 30  2  0  0  0  0
 29 37  1  0  0  0  0
 31 34  1  0  0  0  0
 31 35  1  0  0  0  0
 31 36  1  0  0  0  0
 37 38  1  0  0  0  0
 37 39  1  0  0  0  0
 38 40  1  0  0  0  0
 38 41  1  0  0  0  0
 38 42  1  0  0  0  0
M  END
$$$$

  -OEChem-05262215353D

 42 41  0     1  0  0  0  0  0999 V2000
   -5.4841   -0.9518    1.8057 C   0  0  0  0  0  0  0  0  0  0  0  0
   -5.8602    0.0822    1.2766 O   0  0  0  0  0  0  0  0  0  0  0  0
   -6.4287   -2.1327    1.9278 C   0  0  0  0  0  0  0  0  0  0  0  0
   -6.5211   -2.4310    2.9747 H   0  0  0  0  0  0  0  0  0  0  0  0
   -7.4190   -1.8645    1.5496 H   0  0  0  0  0  0  0  0  0  0  0  0
   -6.0465   -2.9764    1.3480 H   0  0  0  0  0  0  0  0  0  0  0  0
   -4.1919   -1.0587    2.2737 N   0  0  0  0  0  0  0  0  0  0  0  0
   -3.1367   -0.0676    2.0270 C   0  0  2  0  0  0  0  0  0  0  0  0
   -1.7571   -0.7409    1.8651 C   0  0  0  0  0  0  0  0  0  0  0  0
   -1.6019   -1.8789    2.2919 O   0  0  0  0  0  0  0  0  0  0  0  0
   -3.1175    0.9223    3.1945 C   0  0  0  0  0  0  0  0  0  0  0  0
   -3.8851   -1.9770    2.5935 H   0  0  0  0  0  0  0  0  0  0  0  0
   -3.3481    0.4742    1.0986 H   0  0  0  0  0  0  0  0  0  0  0  0
   -2.9074    0.4012    4.1341 H   0  0  0  0  0  0  0  0  0  0  0  0
   -2.3491    1.6856    3.0388 H   0  0  0  0  0  0  0  0  0  0  0  0
   -4.0875    1.4220    3.2817 H   0  0  0  0  0  0  0  0  0  0  0  0
   -0.7528   -0.0665    1.1874 N   0  0  0  0  0  0  0  0  0  0  0  0
    0.5791   -0.5548    0.7665 C   0  0  2  0  0  0  0  0  0  0  0  0
    0.5854   -0.8183   -0.7562 C   0  0  0  0  0  0  0  0  0  0  0  0
    0.0628    0.0014   -1.5030 O   0  0  0  0  0  0  0  0  0  0  0  0
    1.1616   -1.7218    1.5854 C   0  0  0  0  0  0  0  0  0  0  0  0
   -1.0619    0.7860    0.7238 H   0  0  0  0  0  0  0  0  0  0  0  0
    1.2715    0.2782    0.9220 H   0  0  0  0  0  0  0  0  0  0  0  0
    0.6282   -2.6555    1.3803 H   0  0  0  0  0  0  0  0  0  0  0  0
    2.2171   -1.8697    1.3372 H   0  0  0  0  0  0  0  0  0  0  0  0
    1.0898   -1.5066    2.6561 H   0  0  0  0  0  0  0  0  0  0  0  0
    1.1369   -1.9634   -1.2983 N   0  0  0  0  0  0  0  0  0  0  0  0
    0.9447   -2.3963   -2.6875 C   0  0  2  0  0  0  0  0  0  0  0  0
    0.8890   -3.9356   -2.7805 C   0  0  0  0  0  0  0  0  0  0  0  0
    1.2459   -4.6209   -1.8278 O   0  0  0  0  0  0  0  0  0  0  0  0
    2.0922   -1.8389   -3.5340 C   0  0  0  0  0  0  0  0  0  0  0  0
    1.4063   -2.6944   -0.6389 H   0  0  0  0  0  0  0  0  0  0  0  0
   -0.0066   -2.0111   -3.0701 H   0  0  0  0  0  0  0  0  0  0  0  0
    3.0539   -2.2108   -3.1667 H   0  0  0  0  0  0  0  0  0  0  0  0
    1.9792   -2.1368   -4.5806 H   0  0  0  0  0  0  0  0  0  0  0  0
    2.0998   -0.7453   -3.4862 H   0  0  0  0  0  0  0  0  0  0  0  0
    0.4170   -4.5571   -3.9218 N   0  0  0  0  0  0  0  0  0  0  0  0
    0.2841   -6.0040   -4.0436 C   0  0  0  0  0  0  0  0  0  0  0  0
    0.0901   -3.9660   -4.6805 H   0  0  0  0  0  0  0  0  0  0  0  0
    1.2493   -6.4934   -3.8752 H   0  0  0  0  0  0  0  0  0  0  0  0
   -0.4360   -6.3848   -3.3115 H   0  0  0  0  0  0  0  0  0  0  0  0
   -0.0668   -6.2696   -5.0455 H   0  0  0  0  0  0  0  0  0  0  0  0
  1  2  2  0  0  0  0
  1  3  1  0  0  0  0
  1  7  1  0  0  0  0
  3  4  1  0  0  0  0
  3  5  1  0  0  0  0
  3  6  1  0  0  0  0
  7  8  1  0  0  0  0
  7 12  1  0  0  0  0
  8  9  1  0  0  0  0
  8 11  1  0  0  0  0
  8 13  1  0  0  0  0
  9 10  2  0  0  0  0
  9 17  1  0  0  0  0
 11 14  1  0  0  0  0
 11 15  1  0  0  0  0
 11 16  1  0  0  0  0
 17 18  1  0  0  0  0
 17 22  1  0  0  0  0
 18 19  1  0  0  0  0
 18 21  1  0  0  0  0
 18 23  1  0  0  0  0
 19 20  2  0  0  0  0
 19 27  1  0  0  0  0
 21 24  1  0  0  0  0
 21 25  1  0  0  0  0
 21 26  1  0  0  0  0
 27 28  1  0  0  0  0
 27 32  1  0  0  0  0
 28 29  1  0  0  0  0
 28 31  1  0  0  0  0
 28 33  1  0  0  0  0
 29 30  2  0  0  0  0
 29 37  1  0  0  0  0
 31 34  1  0  0  0  0
 31 35  1  0  0  0  0
 31 36  1  0  0  0  0
 37 38  1  0  0  0  0
 37 39  1  0  0  0  0
 38 40  1  0  0  0  0
 38 41  1  0  0  0  0
 38 42  1  0  0  0  0
M  END
$$$$

  -OEChem-05262215353D

 42 41  0     1  0  0  0  0  0999 V2000
   -5.5248   -0.9497    1.9310 C   0  0  0  0  0  0  0  0  0  0  0  0
   -5.9031    0.0090    1.2765 O   0  0  0  0  0  0  0  0  0  0  0  0
   -6.4810   -2.0881    2.2351 C   0  0  0  0  0  0  0  0  0  0  0  0
   -6.5547   -2.2359    3.3153 H   0  0  0  0  0  0  0  0  0  0  0  0
   -7.4759   -1.8596    1.8425 H   0  0  0  0  0  0  0  0  0  0  0  0
   -6.1226   -3.0107    1.7717 H   0  0  0  0  0  0  0  0  0  0  0  0
   -4.2242   -1.0078    2.3840 N   0  0  0  0  0  0  0  0  0  0  0  0
   -3.1677   -0.0679    1.9871 C   0  0  2  0  0  0  0  0  0  0  0  0
   -1.7961   -0.7694    1.8786 C   0  0  0  0  0  0  0  0  0  0  0  0
   -1.6668   -1.8957    2.3431 O   0  0  0  0  0  0  0  0  0  0  0  0
   -3.1213    1.0689    3.0126 C   0  0  0  0  0  0  0  0  0  0  0  0
   -3.9161   -1.8850    2.8032 H   0  0  0  0  0  0  0  0  0  0  0  0
   -3.3963    0.3485    1.0000 H   0  0  0  0  0  0  0  0  0  0  0  0
   -2.8928    0.6773    4.0089 H   0  0  0  0  0  0  0  0  0  0  0  0
   -2.3556    1.8018    2.7415 H   0  0  0  0  0  0  0  0  0  0  0  0
   -4.0883    1.5806    3.0525 H   0  0  0  0  0  0  0  0  0  0  0  0
   -0.7652   -0.1316    1.2056 N   0  0  0  0  0  0  0  0  0  0  0  0
    0.5546   -0.6601    0.7976 C   0  0  2  0  0  0  0  0  0  0  0  0
    0.5565   -0.9276   -0.7229 C   0  0  0  0  0  0  0  0  0  0  0  0
    0.2775   -0.0043   -1.4787 O   0  0  0  0  0  0  0  0  0  0  0  0
    1.1019   -1.8420    1.6198 C   0  0  0  0  0  0  0  0  0  0  0  0
   -1.0406    0.7317    0.7408 H   0  0  0  0  0  0  0  0  0  0  0  0
    1.2709    0.1524    0.9544 H   0  0  0  0  0  0  0  0  0  0  0  0
    0.5243   -2.7545    1.4424 H   0  0  0  0  0  0  0  0  0  0  0  0
    2.1433   -2.0400    1.3479 H   0  0  0  0  0  0  0  0  0  0  0  0
    1.0657   -1.6089    2.6886 H   0  0  0  0  0  0  0  0  0  0  0  0
    0.7840   -2.1834   -1.2533 N   0  0  0  0  0  0  0  0  0  0  0  0
    0.5850   -2.5375   -2.6642 C   0  0  2  0  0  0  0  0  0  0  0  0
    0.1839   -4.0194   -2.8206 C   0  0  0  0  0  0  0  0  0  0  0  0
    0.3144   -4.7946   -1.8795 O   0  0  0  0  0  0  0  0  0  0  0  0
    1.8812   -2.2469   -3.4265 C   0  0  0  0  0  0  0  0  0  0  0  0
    0.8328   -2.9614   -0.5942 H   0  0  0  0  0  0  0  0  0  0  0  0
   -0.2257   -1.9333   -3.0853 H   0  0  0  0  0  0  0  0  0  0  0  0
    2.7067   -2.8359   -3.0143 H   0  0  0  0  0  0  0  0  0  0  0  0
    1.7689   -2.4966   -4.4857 H   0  0  0  0  0  0  0  0  0  0  0  0
    2.1370   -1.1855   -3.3486 H   0  0  0  0  0  0  0  0  0  0  0  0
   -0.3393   -4.4846   -4.0131 N   0  0  0  0  0  0  0  0  0  0  0  0
   -0.7851   -5.8594   -4.2061 C   0  0  0  0  0  0  0  0  0  0  0  0
   -0.4737   -3.8129   -4.7634 H   0  0  0  0  0  0  0  0  0  0  0  0
    0.0352   -6.5597   -4.0158 H   0  0  0  0  0  0  0  0  0  0  0  0
   -1.6115   -6.0925   -3.5263 H   0  0  0  0  0  0  0  0  0  0  0  0
   -1.1309   -6.0050   -5.2340 H   0  0  0  0  0  0  0  0  0  0  0  0
  1  2  2  0  0  0  0
  1  3  1  0  0  0  0
  1  7  1  0  0  0  0
  3  4  1  0  0  0  0
  3  5  1  0  0  0  0
  3  6  1  0  0  0  0
  7  8  1  0  0  0  0
  7 12  1  0  0  0  0
  8  9  1  0  0  0  0
  8 11  1  0  0  0  0
  8 13  1  0  0  0  0
  9 10  2  0  0  0  0
  9 17  1  0  0  0  0
 11 14  1  0  0  0  0
 11 15  1  0  0  0  0
 11 16  1  0  0  0  0
 17 18  1  0  0  0  0
 17 22  1  0  0  0  0
 18 19  1  0  0  0  0
 18 21  1  0  0  0  0
 18 23  1  0  0  0  0
 19 20  2  0  0  0  0
 19 27  1  0  0  0  0
 21 24  1  0  0  0  0
 21 25  1  0  0  0  0
 21 26  1  0  0  0  0
 27 28  1  0  0  0  0
 27 32  1  0  0  0  0
 28 29  1  0  0  0  0
 28 31  1  0  0  0  0
 28 33  1  0  0  0  0
 29 30  2  0  0  0  0
 29 37  1  0  0  0  0
 31 34  1  0  0  0  0
 31 35  1  0  0  0  0
 31 36  1  0  0  0  0
 37 38  1  0  0  0  0
 37 39  1  0  0  0  0
 38 40  1  0  0  0  0
 38 41  1  0  0  0  0
 38 42  1  0  0  0  0
M  END
$$$$

  -OEChem-05262215353D

 42 41  0     1  0  0  0  0  0999 V2000
   -5.4744   -0.9349    1.7973 C   0  0  0  0  0  0  0  0  0  0  0  0
   -5.8248    0.0881    1.2305 O   0  0  0  0  0  0  0  0  0  0  0  0
   -6.4241   -2.1138    1.8929 C   0  0  0  0  0  0  0  0  0  0  0  0
   -6.5798   -2.3848    2.9398 H   0  0  0  0  0  0  0  0  0  0  0  0
   -7.3897   -1.8569    1.4488 H   0  0  0  0  0  0  0  0  0  0  0  0
   -6.0080   -2.9716    1.3588 H   0  0  0  0  0  0  0  0  0  0  0  0
   -4.2076   -1.0309    2.3327 N   0  0  0  0  0  0  0  0  0  0  0  0
   -3.1361   -0.0541    2.0969 C   0  0  2  0  0  0  0  0  0  0  0  0
   -1.7813   -0.7518    1.8535 C   0  0  0  0  0  0  0  0  0  0  0  0
   -1.6270   -1.8996    2.2513 O   0  0  0  0  0  0  0  0  0  0  0  0
   -3.0540    0.8704    3.3138 C   0  0  0  0  0  0  0  0  0  0  0  0
   -3.9150   -1.9505    2.6621 H   0  0  0  0  0  0  0  0  0  0  0  0
   -3.3620    0.5433    1.2069 H   0  0  0  0  0  0  0  0  0  0  0  0
   -2.8191    0.2959    4.2157 H   0  0  0  0  0  0  0  0  0  0  0  0
   -2.2766    1.6270    3.1697 H   0  0  0  0  0  0  0  0  0  0  0  0
   -4.0103    1.3815    3.4650 H   0  0  0  0  0  0  0  0  0  0  0  0
   -0.7958   -0.0905    1.1370 N   0  0  0  0  0  0  0  0  0  0  0  0
    0.5341   -0.5780    0.7134 C   0  0  2  0  0  0  0  0  0  0  0  0
    0.5175   -0.8945   -0.7955 C   0  0  0  0  0  0  0  0  0  0  0  0
    0.4398    0.0321   -1.5927 O   0  0  0  0  0  0  0  0  0  0  0  0
    1.1513   -1.7062    1.5607 C   0  0  0  0  0  0  0  0  0  0  0  0
   -1.0809    0.8036    0.7431 H   0  0  0  0  0  0  0  0  0  0  0  0
    1.2190    0.2681    0.8288 H   0  0  0  0  0  0  0  0  0  0  0  0
    0.6144   -2.6503    1.4283 H   0  0  0  0  0  0  0  0  0  0  0  0
    2.1940   -1.8671    1.2697 H   0  0  0  0  0  0  0  0  0  0  0  0
    1.1278   -1.4380    2.6217 H   0  0  0  0  0  0  0  0  0  0  0  0
    0.4833   -2.1942   -1.2628 N   0  0  0  0  0  0  0  0  0  0  0  0
    0.2022   -2.5658   -2.6549 C   0  0  2  0  0  0  0  0  0  0  0  0
   -0.5879   -3.8886   -2.7339 C   0  0  0  0  0  0  0  0  0  0  0  0
   -0.6525   -4.6274   -1.7576 O   0  0  0  0  0  0  0  0  0  0  0  0
    1.5333   -2.6831   -3.4021 C   0  0  0  0  0  0  0  0  0  0  0  0
    0.3372   -2.9243   -0.5639 H   0  0  0  0  0  0  0  0  0  0  0  0
   -0.4109   -1.7928   -3.1304 H   0  0  0  0  0  0  0  0  0  0  0  0
    2.1640   -3.4509   -2.9426 H   0  0  0  0  0  0  0  0  0  0  0  0
    1.3646   -2.9509   -4.4493 H   0  0  0  0  0  0  0  0  0  0  0  0
    2.0685   -1.7287   -3.3725 H   0  0  0  0  0  0  0  0  0  0  0  0
   -1.2497   -4.2416   -3.8954 N   0  0  0  0  0  0  0  0  0  0  0  0
   -2.0721   -5.4397   -4.0126 C   0  0  0  0  0  0  0  0  0  0  0  0
   -1.2135   -3.5904   -4.6742 H   0  0  0  0  0  0  0  0  0  0  0  0
   -1.4788   -6.3354   -3.8001 H   0  0  0  0  0  0  0  0  0  0  0  0
   -2.9108   -5.3978   -3.3096 H   0  0  0  0  0  0  0  0  0  0  0  0
   -2.4744   -5.5251   -5.0266 H   0  0  0  0  0  0  0  0  0  0  0  0
  1  2  2  0  0  0  0
  1  3  1  0  0  0  0
  1  7  1  0  0  0  0
  3  4  1  0  0  0  0
  3  5  1  0  0  0  0
  3  6  1  0  0  0  0
  7  8  1  0  0  0  0
  7 12  1  0  0  0  0
  8  9  1  0  0  0  0
  8 11  1  0  0  0  0
  8 13  1  0  0  0  0
  9 10  2  0  0  0  0
  9 17  1  0  0  0  0
 11 14  1  0  0  0  0
 11 15  1  0  0  0  0
 11 16  1  0  0  0  0
 17 18  1  0  0  0  0
 17 22  1  0  0  0  0
 18 19  1  0  0  0  0
 18 21  1  0  0  0  0
 18 23  1  0  0  0  0
 19 20  2  0  0  0  0
 19 27  1  0  0  0  0
 21 24  1  0  0  0  0
 21 25  1  0  0  0  0
 21 26  1  0  0  0  0
 27 28  1  0  0  0  0
 27 32  1  0  0  0  0
 28 29  1  0  0  0  0
 28 31  1  0  0  0  0
 28 33  1  0  0  0  0
 29 30  2  0  0  0  0
 29 37  1  0  0  0  0
 31 34  1  0  0  0  0
 31 35  1  0  0  0  0
 31 36  1  0  0  0  0
 37 38  1  0  0  0  0
 37 39  1  0  0  0  0
 38 40  1  0  0  0  0
 38 41  1  0  0  0  0
 38 42  1  0  0  0  0
M  END
$$$$

  -OEChem-05262215353D

 42 41  0     1  0  0  0  0  0999 V2000
   -5.4657   -0.9355    1.7923 C   0  0  0  0  0  0  0  0  0  0  0  0
   -5.8128    0.0978    1.2420 O   0  0  0  0  0  0  0  0  0  0  0  0
   -6.4114   -2.1208    1.8487 C   0  0  0  0  0  0  0  0  0  0  0  0
   -6.5978   -2.4013    2.8882 H   0  0  0  0  0  0  0  0  0  0  0  0
   -7.3645   -1.8656    1.3769 H   0  0  0  0  0  0  0  0  0  0  0  0
   -5.9740   -2.9722    1.3209 H   0  0  0  0  0  0  0  0  0  0  0  0
   -4.2084   -1.0357    2.3497 N   0  0  0  0  0  0  0  0  0  0  0  0
   -3.1349   -0.0537    2.1446 C   0  0  2  0  0  0  0  0  0  0  0  0
   -1.7896   -0.7471    1.8438 C   0  0  0  0  0  0  0  0  0  0  0  0
   -1.6242   -1.9044    2.2078 O   0  0  0  0  0  0  0  0  0  0  0  0
   -3.0274    0.8087    3.4041 C   0  0  0  0  0  0  0  0  0  0  0  0
   -3.9174   -1.9632    2.6577 H   0  0  0  0  0  0  0  0  0  0  0  0
   -3.3705    0.5893    1.2899 H   0  0  0  0  0  0  0  0  0  0  0  0
   -2.7811    0.1893    4.2727 H   0  0  0  0  0  0  0  0  0  0  0  0
   -2.2481    1.5676    3.2847 H   0  0  0  0  0  0  0  0  0  0  0  0
   -3.9783    1.3161    3.5961 H   0  0  0  0  0  0  0  0  0  0  0  0
   -0.8279   -0.0784    1.1026 N   0  0  0  0  0  0  0  0  0  0  0  0
    0.5022   -0.5541    0.6668 C   0  0  2  0  0  0  0  0  0  0  0  0
    0.4701   -0.8948   -0.8347 C   0  0  0  0  0  0  0  0  0  0  0  0
    0.6516   -0.0047   -1.6555 O   0  0  0  0  0  0  0  0  0  0  0  0
    1.1507   -1.6654    1.5119 C   0  0  0  0  0  0  0  0  0  0  0  0
   -1.1093    0.8365    0.7573 H   0  0  0  0  0  0  0  0  0  0  0  0
    1.1764    0.3031    0.7624 H   0  0  0  0  0  0  0  0  0  0  0  0
    0.6326   -2.6210    1.3903 H   0  0  0  0  0  0  0  0  0  0  0  0
    2.1920   -1.8073    1.2073 H   0  0  0  0  0  0  0  0  0  0  0  0
    1.1355   -1.3928    2.5716 H   0  0  0  0  0  0  0  0  0  0  0  0
    0.1409   -2.1652   -1.2660 N   0  0  0  0  0  0  0  0  0  0  0  0
   -0.1663   -2.5104   -2.6596 C   0  0  2  0  0  0  0  0  0  0  0  0
   -1.2993   -3.5541   -2.7489 C   0  0  0  0  0  0  0  0  0  0  0  0
   -1.6310   -4.1934   -1.7569 O   0  0  0  0  0  0  0  0  0  0  0  0
    1.1127   -3.0390   -3.3142 C   0  0  0  0  0  0  0  0  0  0  0  0
   -0.2121   -2.8055   -0.5519 H   0  0  0  0  0  0  0  0  0  0  0  0
   -0.5058   -1.6199   -3.1991 H   0  0  0  0  0  0  0  0  0  0  0  0
    1.4691   -3.9317   -2.7901 H   0  0  0  0  0  0  0  0  0  0  0  0
    0.9307   -3.2979   -4.3615 H   0  0  0  0  0  0  0  0  0  0  0  0
    1.8977   -2.2768   -3.2790 H   0  0  0  0  0  0  0  0  0  0  0  0
   -1.9662   -3.7640   -3.9419 N   0  0  0  0  0  0  0  0  0  0  0  0
   -3.0805   -4.6942   -4.0812 C   0  0  0  0  0  0  0  0  0  0  0  0
   -1.6950   -3.1966   -4.7396 H   0  0  0  0  0  0  0  0  0  0  0  0
   -2.7645   -5.7120   -3.8294 H   0  0  0  0  0  0  0  0  0  0  0  0
   -3.9042   -4.4076   -3.4186 H   0  0  0  0  0  0  0  0  0  0  0  0
   -3.4488   -4.6923   -5.1117 H   0  0  0  0  0  0  0  0  0  0  0  0
  1  2  2  0  0  0  0
  1  3  1  0  0  0  0
  1  7  1  0  0  0  0
  3  4  1  0  0  0  0
  3  5  1  0  0  0  0
  3  6  1  0  0  0  0
  7  8  1  0  0  0  0
  7 12  1  0  0  0  0
  8  9  1  0  0  0  0
  8 11  1  0  0  0  0
  8 13  1  0  0  0  0
  9 10  2  0  0  0  0
  9 17  1  0  0  0  0
 11 14  1  0  0  0  0
 11 15  1  0  0  0  0
 11 16  1  0  0  0  0
 17 18  1  0  0  0  0
 17 22  1  0  0  0  0
 18 19  1  0  0  0  0
 18 21  1  0  0  0  0
 18 23  1  0  0  0  0
 19 20  2  0  0  0  0
 19 27  1  0  0  0  0
 21 24  1  0  0  0  0
 21 25  1  0  0  0  0
 21 26  1  0  0  0  0
 27 28  1  0  0  0  0
 27 32  1  0  0  0  0
 28 29  1  0  0  0  0
 28 31  1  0  0  0  0
 28 33  1  0  0  0  0
 29 30  2  0  0  0  0
 29 37  1  0  0  0  0
 31 34  1  0  0  0  0
 31 35  1  0  0  0  0
 31 36  1  0  0  0  0
 37 38  1  0  0  0  0
 37 39  1  0  0  0  0
 38 40  1  0  0  0  0
 38 41  1  0  0  0  0
 38 42  1  0  0  0  0
M  END
$$$$

  -OEChem-05262215353D

 42 41  0     1  0  0  0  0  0999 V2000
   -5.4603   -0.9451    1.7932 C   0  0  0  0  0  0  0  0  0  0  0  0
   -5.8319    0.1402    1.3741 O   0  0  0  0  0  0  0  0  0  0  0  0
   -6.3976   -2.1371    1.7595 C   0  0  0  0  0  0  0  0  0  0  0  0
   -6.5654   -2.5085    2.7733 H   0  0  0  0  0  0  0  0  0  0  0  0
   -7.3589   -1.8494    1.3247 H   0  0  0  0  0  0  0  0  0  0  0  0
   -5.9617   -2.9356    1.1537 H   0  0  0  0  0  0  0  0  0  0  0  0
   -4.1839   -1.0947    2.2918 N   0  0  0  0  0  0  0  0  0  0  0  0
   -3.1244   -0.0878    2.1555 C   0  0  2  0  0  0  0  0  0  0  0  0
   -1.7701   -0.7490    1.8266 C   0  0  0  0  0  0  0  0  0  0  0  0
   -1.5777   -1.9115    2.1605 O   0  0  0  0  0  0  0  0  0  0  0  0
   -3.0380    0.7049    3.4612 C   0  0  0  0  0  0  0  0  0  0  0  0
   -3.8781   -2.0469    2.4912 H   0  0  0  0  0  0  0  0  0  0  0  0
   -3.3637    0.5972    1.3352 H   0  0  0  0  0  0  0  0  0  0  0  0
   -2.7973    0.0403    4.2972 H   0  0  0  0  0  0  0  0  0  0  0  0
   -2.2636    1.4746    3.3919 H   0  0  0  0  0  0  0  0  0  0  0  0
   -3.9945    1.1949    3.6689 H   0  0  0  0  0  0  0  0  0  0  0  0
   -0.8398   -0.0592    1.0651 N   0  0  0  0  0  0  0  0  0  0  0  0
    0.4998   -0.5023    0.6230 C   0  0  2  0  0  0  0  0  0  0  0  0
    0.4534   -0.8658   -0.8708 C   0  0  0  0  0  0  0  0  0  0  0  0
    0.8743   -0.0769   -1.7066 O   0  0  0  0  0  0  0  0  0  0  0  0
    1.1831   -1.5958    1.4618 C   0  0  0  0  0  0  0  0  0  0  0  0
   -1.1374    0.8607    0.7486 H   0  0  0  0  0  0  0  0  0  0  0  0
    1.1534    0.3726    0.7052 H   0  0  0  0  0  0  0  0  0  0  0  0
    0.7034   -2.5689    1.3198 H   0  0  0  0  0  0  0  0  0  0  0  0
    2.2325   -1.6919    1.1668 H   0  0  0  0  0  0  0  0  0  0  0  0
    1.1459   -1.3386    2.5247 H   0  0  0  0  0  0  0  0  0  0  0  0
   -0.1419   -2.0472   -1.2685 N   0  0  0  0  0  0  0  0  0  0  0  0
   -0.5054   -2.3603   -2.6562 C   0  0  2  0  0  0  0  0  0  0  0  0
   -1.9168   -2.9789   -2.7561 C   0  0  0  0  0  0  0  0  0  0  0  0
   -2.5126   -3.3361   -1.7456 O   0  0  0  0  0  0  0  0  0  0  0  0
    0.5518   -3.3157   -3.2143 C   0  0  0  0  0  0  0  0  0  0  0  0
   -0.6605   -2.5440   -0.5406 H   0  0  0  0  0  0  0  0  0  0  0  0
   -0.5146   -1.4458   -3.2585 H   0  0  0  0  0  0  0  0  0  0  0  0
    0.5651   -4.2484   -2.6414 H   0  0  0  0  0  0  0  0  0  0  0  0
    0.3434   -3.5517   -4.2620 H   0  0  0  0  0  0  0  0  0  0  0  0
    1.5432   -2.8555   -3.1552 H   0  0  0  0  0  0  0  0  0  0  0  0
   -2.5296   -3.1229   -3.9875 N   0  0  0  0  0  0  0  0  0  0  0  0
   -3.8675   -3.6768   -4.1580 C   0  0  0  0  0  0  0  0  0  0  0  0
   -2.0252   -2.7933   -4.8053 H   0  0  0  0  0  0  0  0  0  0  0  0
   -3.9183   -4.6910   -3.7483 H   0  0  0  0  0  0  0  0  0  0  0  0
   -4.6085   -3.0526   -3.6476 H   0  0  0  0  0  0  0  0  0  0  0  0
   -4.1254   -3.7219   -5.2205 H   0  0  0  0  0  0  0  0  0  0  0  0
  1  2  2  0  0  0  0
  1  3  1  0  0  0  0
  1  7  1  0  0  0  0
  3  4  1  0  0  0  0
  3  5  1  0  0  0  0
  3  6  1  0  0  0  0
  7  8  1  0  0  0  0
  7 12  1  0  0  0  0
  8  9  1  0  0  0  0
  8 11  1  0  0  0  0
  8 13  1  0  0  0  0
  9 10  2  0  0  0  0
  9 17  1  0  0  0  0
 11 14  1  0  0  0  0
 11 15  1  0  0  0  0
 11 16  1  0  0  0  0
 17 18  1  0  0  0  0
 17 22  1  0  0  0  0
 18 19  1  0  0  0  0
 18 21  1  0  0  0  0
 18 23  1  0  0  0  0
 19 20  2  0  0  0  0
 19 27  1  0  0  0  0
 21 24  1  0  0  0  0
 21 25  1  0  0  0  0
 21 26  1  0  0  0  0
 27 28  1  0  0  0  0
 27 32  1  0  0  0  0
 28 29  1  0  0  0  0
 28 31  1  0  0  0  0
 28 33  1  0  0  0  0
 29 30  2  0  0  0  0
 29 37  1  0  0  0  0
 31 34  1  0  0  0  0
 31 35  1  0  0  0  0
 31 36  1  0  0  0  0
 37 38  1  0  0  0  0
 37 39  1  0  0  0  0
 38 40  1  0  0  0  0
 38 41  1  0  0  0  0
 38 42  1  0  0  0  0
M  END
$$$$

  -OEChem-05262215353D

 42 41  0     1  0  0  0  0  0999 V2000
   -4.6010   -0.7491    0.5886 C   0  0  0  0  0  0  0  0  0  0  0  0
   -4.2344    0.3546    0.2080 O   0  0  0  0  0  0  0  0  0  0  0  0
   -5.7683   -1.4513   -0.0792 C   0  0  0  0  0  0  0  0  0  0  0  0
   -6.5926   -1.5600    0.6294 H   0  0  0  0  0  0  0  0  0  0  0  0
   -6.1185   -0.8725   -0.9376 H   0  0  0  0  0  0  0  0  0  0  0  0
   -5.4638   -2.4427   -0.4225 H   0  0  0  0  0  0  0  0  0  0  0  0
   -3.9756   -1.3293    1.6725 N   0  0  0  0  0  0  0  0  0  0  0  0
   -2.9449   -0.6687    2.4889 C   0  0  2  0  0  0  0  0  0  0  0  0
   -1.5526   -0.6807    1.8127 C   0  0  0  0  0  0  0  0  0  0  0  0
   -0.6510   -1.3891    2.2414 O   0  0  0  0  0  0  0  0  0  0  0  0
   -2.9496   -1.3529    3.8625 C   0  0  0  0  0  0  0  0  0  0  0  0
   -4.2297   -2.2895    1.8895 H   0  0  0  0  0  0  0  0  0  0  0  0
   -3.2188    0.3809    2.6411 H   0  0  0  0  0  0  0  0  0  0  0  0
   -2.6875   -2.4119    3.7680 H   0  0  0  0  0  0  0  0  0  0  0  0
   -2.2230   -0.8752    4.5275 H   0  0  0  0  0  0  0  0  0  0  0  0
   -3.9395   -1.2774    4.3228 H   0  0  0  0  0  0  0  0  0  0  0  0
   -1.3947   -0.0226    0.6057 N   0  0  0  0  0  0  0  0  0  0  0  0
   -0.1646    0.1671   -0.1928 C   0  0  2  0  0  0  0  0  0  0  0  0
   -0.2239   -0.7873   -1.3925 C   0  0  0  0  0  0  0  0  0  0  0  0
   -0.3519   -0.3735   -2.5396 O   0  0  0  0  0  0  0  0  0  0  0  0
    1.1743    0.0751    0.5565 C   0  0  0  0  0  0  0  0  0  0  0  0
   -2.2583    0.4010    0.2485 H   0  0  0  0  0  0  0  0  0  0  0  0
   -0.2096    1.1840   -0.5967 H   0  0  0  0  0  0  0  0  0  0  0  0
    1.4007   -0.9557    0.8446 H   0  0  0  0  0  0  0  0  0  0  0  0
    1.9863    0.4309   -0.0851 H   0  0  0  0  0  0  0  0  0  0  0  0
    1.1489    0.6950    1.4577 H   0  0  0  0  0  0  0  0  0  0  0  0
   -0.3081   -2.1403   -1.1250 N   0  0  0  0  0  0  0  0  0  0  0  0
   -0.9101   -3.0886   -2.0674 C   0  0  2  0  0  0  0  0  0  0  0  0
   -2.4157   -2.7947   -2.2769 C   0  0  0  0  0  0  0  0  0  0  0  0
   -3.2785   -3.3474   -1.6019 O   0  0  0  0  0  0  0  0  0  0  0  0
   -0.6611   -4.5007   -1.5268 C   0  0  0  0  0  0  0  0  0  0  0  0
   -0.3713   -2.3619   -0.1305 H   0  0  0  0  0  0  0  0  0  0  0  0
   -0.4127   -3.0045   -3.0395 H   0  0  0  0  0  0  0  0  0  0  0  0
   -1.1181   -4.6233   -0.5395 H   0  0  0  0  0  0  0  0  0  0  0  0
   -1.0909   -5.2465   -2.2026 H   0  0  0  0  0  0  0  0  0  0  0  0
    0.4130   -4.6898   -1.4395 H   0  0  0  0  0  0  0  0  0  0  0  0
   -2.7781   -1.8242   -3.1908 N   0  0  0  0  0  0  0  0  0  0  0  0
   -4.1320   -1.3059   -3.3286 C   0  0  0  0  0  0  0  0  0  0  0  0
   -2.0067   -1.2233   -3.4928 H   0  0  0  0  0  0  0  0  0  0  0  0
   -4.8721   -2.1088   -3.2466 H   0  0  0  0  0  0  0  0  0  0  0  0
   -4.3307   -0.5590   -2.5542 H   0  0  0  0  0  0  0  0  0  0  0  0
   -4.2529   -0.8330   -4.3078 H   0  0  0  0  0  0  0  0  0  0  0  0
  1  2  2  0  0  0  0
  1  3  1  0  0  0  0
  1  7  1  0  0  0  0
  3  4  1  0  0  0  0
  3  5  1  0  0  0  0
  3  6  1  0  0  0  0
  7  8  1  0  0  0  0
  7 12  1  0  0  0  0
  8  9  1  0  0  0  0
  8 11  1  0  0  0  0
  8 13  1  0  0  0  0
  9 10  2  0  0  0  0
  9 17  1  0  0  0  0
 11 14  1  0  0  0  0
 11 15  1  0  0  0  0
 11 16  1  0  0  0  0
 17 18  1  0  0  0  0
 17 22  1  0  0  0  0
 18 19  1  0  0  0  0
 18 21  1  0  0  0  0
 18 23  1  0  0  0  0
 19 20  2  0  0  0  0
 19 27  1  0  0  0  0
 21 24  1  0  0  0  0
 21 25  1  0  0  0  0
 21 26  1  0  0  0  0
 27 28  1  0  0  0  0
 27 32  1  0  0  0  0
 28 29  1  0  0  0  0
 28 31  1  0  0  0  0
 28 33  1  0  0  0  0
 29 30  2  0  0  0  0
 29 37  1  0  0  0  0
 31 34  1  0  0  0  0
 31 35  1  0  0  0  0
 31 36  1  0  0  0  0
 37 38  1  0  0  0  0
 37 39  1  0  0  0  0
 38 40  1  0  0  0  0
 38 41  1  0  0  0  0
 38 42  1  0  0  0  0
M  END
$$$$

  -OEChem-05262215353D

 42 41  0     1  0  0  0  0  0999 V2000
   -5.4080   -1.2194    1.4226 C   0  0  0  0  0  0  0  0  0  0  0  0
   -5.8773   -0.1325    1.1200 O   0  0  0  0  0  0  0  0  0  0  0  0
   -6.2366   -2.4780    1.2471 C   0  0  0  0  0  0  0  0  0  0  0  0
   -6.2625   -3.0430    2.1820 H   0  0  0  0  0  0  0  0  0  0  0  0
   -7.2606   -2.2189    0.9642 H   0  0  0  0  0  0  0  0  0  0  0  0
   -5.8005   -3.1016    0.4627 H   0  0  0  0  0  0  0  0  0  0  0  0
   -4.1314   -1.3111    1.9365 N   0  0  0  0  0  0  0  0  0  0  0  0
   -3.1601   -0.2122    1.9027 C   0  0  2  0  0  0  0  0  0  0  0  0
   -1.7349   -0.7321    1.6242 C   0  0  0  0  0  0  0  0  0  0  0  0
   -1.3821   -1.8106    2.0859 O   0  0  0  0  0  0  0  0  0  0  0  0
   -3.2124    0.5298    3.2401 C   0  0  0  0  0  0  0  0  0  0  0  0
   -3.7561   -2.2475    2.0752 H   0  0  0  0  0  0  0  0  0  0  0  0
   -3.4208    0.4824    1.0967 H   0  0  0  0  0  0  0  0  0  0  0  0
   -2.9547   -0.1453    4.0624 H   0  0  0  0  0  0  0  0  0  0  0  0
   -2.5073    1.3665    3.2411 H   0  0  0  0  0  0  0  0  0  0  0  0
   -4.2187    0.9240    3.4145 H   0  0  0  0  0  0  0  0  0  0  0  0
   -0.9329   -0.0639    0.7156 N   0  0  0  0  0  0  0  0  0  0  0  0
    0.4806   -0.3100    0.3486 C   0  0  2  0  0  0  0  0  0  0  0  0
    0.5283   -0.9930   -1.0283 C   0  0  0  0  0  0  0  0  0  0  0  0
    1.1142   -0.4658   -1.9643 O   0  0  0  0  0  0  0  0  0  0  0  0
    1.3268   -1.0718    1.3794 C   0  0  0  0  0  0  0  0  0  0  0  0
   -1.4014    0.6932    0.2222 H   0  0  0  0  0  0  0  0  0  0  0  0
    0.9535    0.6709    0.2347 H   0  0  0  0  0  0  0  0  0  0  0  0
    1.0391   -2.1265    1.4261 H   0  0  0  0  0  0  0  0  0  0  0  0
    2.3847   -1.0235    1.1033 H   0  0  0  0  0  0  0  0  0  0  0  0
    1.2083   -0.6291    2.3729 H   0  0  0  0  0  0  0  0  0  0  0  0
   -0.3532   -2.0333   -1.2490 N   0  0  0  0  0  0  0  0  0  0  0  0
   -1.0246   -2.2345   -2.5372 C   0  0  2  0  0  0  0  0  0  0  0  0
   -2.4150   -1.5607   -2.5399 C   0  0  0  0  0  0  0  0  0  0  0  0
   -2.9900   -1.3228   -1.4812 O   0  0  0  0  0  0  0  0  0  0  0  0
   -1.1520   -3.7417   -2.7668 C   0  0  0  0  0  0  0  0  0  0  0  0
   -0.9209   -2.2413   -0.4256 H   0  0  0  0  0  0  0  0  0  0  0  0
   -0.4328   -1.8069   -3.3535 H   0  0  0  0  0  0  0  0  0  0  0  0
   -1.7566   -4.2011   -1.9779 H   0  0  0  0  0  0  0  0  0  0  0  0
   -1.6263   -3.9443   -3.7319 H   0  0  0  0  0  0  0  0  0  0  0  0
   -0.1620   -4.2083   -2.7632 H   0  0  0  0  0  0  0  0  0  0  0  0
   -3.0259   -1.2155   -3.7305 N   0  0  0  0  0  0  0  0  0  0  0  0
   -4.3086   -0.5250   -3.7987 C   0  0  0  0  0  0  0  0  0  0  0  0
   -2.5001   -1.3615   -4.5874 H   0  0  0  0  0  0  0  0  0  0  0  0
   -5.0869   -1.1099   -3.2969 H   0  0  0  0  0  0  0  0  0  0  0  0
   -4.2418    0.4569   -3.3184 H   0  0  0  0  0  0  0  0  0  0  0  0
   -4.6051   -0.3804   -4.8421 H   0  0  0  0  0  0  0  0  0  0  0  0
  1  2  2  0  0  0  0
  1  3  1  0  0  0  0
  1  7  1  0  0  0  0
  3  4  1  0  0  0  0
  3  5  1  0  0  0  0
  3  6  1  0  0  0  0
  7  8  1  0  0  0  0
  7 12  1  0  0  0  0
  8  9  1  0  0  0  0
  8 11  1  0  0  0  0
  8 13  1  0  0  0  0
  9 10  2  0  0  0  0
  9 17  1  0  0  0  0
 11 14  1  0  0  0  0
 11 15  1  0  0  0  0
 11 16  1  0  0  0  0
 17 18  1  0  0  0  0
 17 22  1  0  0  0  0
 18 19  1  0  0  0  0
 18 21  1  0  0  0  0
 18 23  1  0  0  0  0
 19 20  2  0  0  0  0
 19 27  1  0  0  0  0
 21 24  1  0  0  0  0
 21 25  1  0  0  0  0
 21 26  1  0  0  0  0
 27 28  1  0  0  0  0
 27 32  1  0  0  0  0
 28 29  1  0  0  0  0
 28 31  1  0  0  0  0
 28 33  1  0  0  0  0
 29 30  2  0  0  0  0
 29 37  1  0  0  0  0
 31 34  1  0  0  0  0
 31 35  1  0  0  0  0
 31 36  1  0  0  0  0
 37 38  1  0  0  0  0
 37 39  1  0  0  0  0
 38 40  1  0  0  0  0
 38 41  1  0  0  0  0
 38 42  1  0  0  0  0
M  END
$$$$

  -OEChem-05262215353D

 42 41  0     1  0  0  0  0  0999 V2000
   -5.6149   -0.7901    2.0432 C   0  0  0  0  0  0  0  0  0  0  0  0
   -5.9557    0.3718    1.8850 O   0  0  0  0  0  0  0  0  0  0  0  0
   -6.6449   -1.9017    1.9731 C   0  0  0  0  0  0  0  0  0  0  0  0
   -6.7314   -2.3916    2.9460 H   0  0  0  0  0  0  0  0  0  0  0  0
   -7.6207   -1.4943    1.6941 H   0  0  0  0  0  0  0  0  0  0  0  0
   -6.3461   -2.6404    1.2252 H   0  0  0  0  0  0  0  0  0  0  0  0
   -4.2929   -1.0957    2.2885 N   0  0  0  0  0  0  0  0  0  0  0  0
   -3.1918   -0.1306    2.1880 C   0  0  2  0  0  0  0  0  0  0  0  0
   -1.8854   -0.8088    1.7266 C   0  0  0  0  0  0  0  0  0  0  0  0
   -1.7163   -2.0015    1.9444 O   0  0  0  0  0  0  0  0  0  0  0  0
   -2.9939    0.5335    3.5531 C   0  0  0  0  0  0  0  0  0  0  0  0
   -4.0379   -2.0819    2.3242 H   0  0  0  0  0  0  0  0  0  0  0  0
   -3.4455    0.6367    1.4482 H   0  0  0  0  0  0  0  0  0  0  0  0
   -2.7423   -0.2158    4.3108 H   0  0  0  0  0  0  0  0  0  0  0  0
   -2.1855    1.2695    3.5077 H   0  0  0  0  0  0  0  0  0  0  0  0
   -3.9109    1.0463    3.8606 H   0  0  0  0  0  0  0  0  0  0  0  0
   -0.9835   -0.0971    0.9525 N   0  0  0  0  0  0  0  0  0  0  0  0
    0.3916   -0.4710    0.5402 C   0  0  2  0  0  0  0  0  0  0  0  0
    0.4269   -0.8972   -0.9390 C   0  0  0  0  0  0  0  0  0  0  0  0
    1.3734   -0.5953   -1.6530 O   0  0  0  0  0  0  0  0  0  0  0  0
    1.0927   -1.5141    1.4231 C   0  0  0  0  0  0  0  0  0  0  0  0
   -1.2773    0.8506    0.7271 H   0  0  0  0  0  0  0  0  0  0  0  0
    0.9955    0.4391    0.6129 H   0  0  0  0  0  0  0  0  0  0  0  0
    0.6672   -2.5104    1.2683 H   0  0  0  0  0  0  0  0  0  0  0  0
    2.1570   -1.5608    1.1722 H   0  0  0  0  0  0  0  0  0  0  0  0
    0.9983   -1.2491    2.4805 H   0  0  0  0  0  0  0  0  0  0  0  0
   -0.6953   -1.4839   -1.4858 N   0  0  0  0  0  0  0  0  0  0  0  0
   -1.0212   -1.5032   -2.9143 C   0  0  2  0  0  0  0  0  0  0  0  0
   -2.4693   -1.0205   -3.1500 C   0  0  0  0  0  0  0  0  0  0  0  0
   -3.2218   -0.8385   -2.1973 O   0  0  0  0  0  0  0  0  0  0  0  0
   -0.8264   -2.9338   -3.4216 C   0  0  0  0  0  0  0  0  0  0  0  0
   -1.4837   -1.5749   -0.8437 H   0  0  0  0  0  0  0  0  0  0  0  0
   -0.3555   -0.8319   -3.4667 H   0  0  0  0  0  0  0  0  0  0  0  0
   -1.4925   -3.6221   -2.8911 H   0  0  0  0  0  0  0  0  0  0  0  0
   -1.0403   -2.9964   -4.4927 H   0  0  0  0  0  0  0  0  0  0  0  0
    0.2078   -3.2536   -3.2567 H   0  0  0  0  0  0  0  0  0  0  0  0
   -2.9301   -0.7735   -4.4300 N   0  0  0  0  0  0  0  0  0  0  0  0
   -4.2811   -0.3056   -4.7171 C   0  0  0  0  0  0  0  0  0  0  0  0
   -2.2817   -0.9118   -5.1998 H   0  0  0  0  0  0  0  0  0  0  0  0
   -5.0220   -1.0153   -4.3339 H   0  0  0  0  0  0  0  0  0  0  0  0
   -4.4560    0.6708   -4.2529 H   0  0  0  0  0  0  0  0  0  0  0  0
   -4.4257   -0.2057   -5.7970 H   0  0  0  0  0  0  0  0  0  0  0  0
  1  2  2  0  0  0  0
  1  3  1  0  0  0  0
  1  7  1  0  0  0  0
  3  4  1  0  0  0  0
  3  5  1  0  0  0  0
  3  6  1  0  0  0  0
  7  8  1  0  0  0  0
  7 12  1  0  0  0  0
  8  9  1  0  0  0  0
  8 11  1  0  0  0  0
  8 13  1  0  0  0  0
  9 10  2  0  0  0  0
  9 17  1  0  0  0  0
 11 14  1  0  0  0  0
 11 15  1  0  0  0  0
 11 16  1  0  0  0  0
 17 18  1  0  0  0  0
 17 22  1  0  0  0  0
 18 19  1  0  0  0  0
 18 21  1  0  0  0  0
 18 23  1  0  0  0  0
 19 20  2  0  0  0  0
 19 27  1  0  0  0  0
 21 24  1  0  0  0  0
 21 25  1  0  0  0  0
 21 26  1  0  0  0  0
 27 28  1  0  0  0  0
 27 32  1  0  0  0  0
 28 29  1  0  0  0  0
 28 31  1  0  0  0  0
 28 33  1  0  0  0  0
 29 30  2  0  0  0  0
 29 37  1  0  0  0  0
 31 34  1  0  0  0  0
 31 35  1  0  0  0  0
 31 36  1  0  0  0  0
 37 38  1  0  0  0  0
 37 39  1  0  0  0  0
 38 40  1  0  0  0  0
 38 41  1  0  0  0  0
 38 42  1  0  0  0  0
M  END
$$$$

  -OEChem-05262215353D

 42 41  0     1  0  0  0  0  0999 V2000
   -5.7251   -0.9421    2.5370 C   0  0  0  0  0  0  0  0  0  0  0  0
   -6.1412    0.1846    2.3179 O   0  0  0  0  0  0  0  0  0  0  0  0
   -6.6987   -2.0773    2.7912 C   0  0  0  0  0  0  0  0  0  0  0  0
   -6.4939   -2.5337    3.7627 H   0  0  0  0  0  0  0  0  0  0  0  0
   -7.7259   -1.7013    2.7881 H   0  0  0  0  0  0  0  0  0  0  0  0
   -6.5983   -2.8357    2.0109 H   0  0  0  0  0  0  0  0  0  0  0  0
   -4.3680   -1.1863    2.5519 N   0  0  0  0  0  0  0  0  0  0  0  0
   -3.3421   -0.2007    2.1882 C   0  0  2  0  0  0  0  0  0  0  0  0
   -2.0550   -0.8811    1.6731 C   0  0  0  0  0  0  0  0  0  0  0  0
   -1.9118   -2.0874    1.8246 O   0  0  0  0  0  0  0  0  0  0  0  0
   -3.0336    0.6615    3.4168 C   0  0  0  0  0  0  0  0  0  0  0  0
   -4.0642   -2.1565    2.6325 H   0  0  0  0  0  0  0  0  0  0  0  0
   -3.7224    0.4378    1.3829 H   0  0  0  0  0  0  0  0  0  0  0  0
   -2.6487    0.0412    4.2326 H   0  0  0  0  0  0  0  0  0  0  0  0
   -2.2873    1.4234    3.1745 H   0  0  0  0  0  0  0  0  0  0  0  0
   -3.9399    1.1682    3.7633 H   0  0  0  0  0  0  0  0  0  0  0  0
   -1.1295   -0.1382    0.9557 N   0  0  0  0  0  0  0  0  0  0  0  0
    0.2417   -0.5213    0.5338 C   0  0  2  0  0  0  0  0  0  0  0  0
    0.3157   -0.8562   -0.9697 C   0  0  0  0  0  0  0  0  0  0  0  0
    1.3869   -0.8223   -1.5604 O   0  0  0  0  0  0  0  0  0  0  0  0
    0.9094   -1.6207    1.3749 C   0  0  0  0  0  0  0  0  0  0  0  0
   -1.3820    0.8391    0.8269 H   0  0  0  0  0  0  0  0  0  0  0  0
    0.8614    0.3706    0.6685 H   0  0  0  0  0  0  0  0  0  0  0  0
    0.4727   -2.6008    1.1592 H   0  0  0  0  0  0  0  0  0  0  0  0
    1.9781   -1.6710    1.1435 H   0  0  0  0  0  0  0  0  0  0  0  0
    0.7974   -1.4092    2.4426 H   0  0  0  0  0  0  0  0  0  0  0  0
   -0.8481   -1.0828   -1.6752 N   0  0  0  0  0  0  0  0  0  0  0  0
   -0.9730   -1.0473   -3.1353 C   0  0  2  0  0  0  0  0  0  0  0  0
   -2.1971   -0.2095   -3.5636 C   0  0  0  0  0  0  0  0  0  0  0  0
   -3.0179    0.1557   -2.7272 O   0  0  0  0  0  0  0  0  0  0  0  0
   -1.0927   -2.4904   -3.6289 C   0  0  0  0  0  0  0  0  0  0  0  0
   -1.7103   -0.9779   -1.1420 H   0  0  0  0  0  0  0  0  0  0  0  0
   -0.0866   -0.5858   -3.5828 H   0  0  0  0  0  0  0  0  0  0  0  0
   -1.9797   -2.9690   -3.2016 H   0  0  0  0  0  0  0  0  0  0  0  0
   -1.1703   -2.5204   -4.7195 H   0  0  0  0  0  0  0  0  0  0  0  0
   -0.2096   -3.0637   -3.3294 H   0  0  0  0  0  0  0  0  0  0  0  0
   -2.3736    0.1521   -4.8864 N   0  0  0  0  0  0  0  0  0  0  0  0
   -3.5092    0.9366   -5.3574 C   0  0  0  0  0  0  0  0  0  0  0  0
   -1.6753   -0.1559   -5.5569 H   0  0  0  0  0  0  0  0  0  0  0  0
   -4.4444    0.3895   -5.1978 H   0  0  0  0  0  0  0  0  0  0  0  0
   -3.5644    1.8917   -4.8241 H   0  0  0  0  0  0  0  0  0  0  0  0
   -3.4082    1.1449   -6.4270 H   0  0  0  0  0  0  0  0  0  0  0  0
  1  2  2  0  0  0  0
  1  3  1  0  0  0  0
  1  7  1  0  0  0  0
  3  4  1  0  0  0  0
  3  5  1  0  0  0  0
  3  6  1  0  0  0  0
  7  8  1  0  0  0  0
  7 12  1  0  0  0  0
  8  9  1  0  0  0  0
  8 11  1  0  0  0  0
  8 13  1  0  0  0  0
  9 10  2  0  0  0  0
  9 17  1  0  0  0  0
 11 14  1  0  0  0  0
 11 15  1  0  0  0  0
 11 16  1  0  0  0  0
 17 18  1  0  0  0  0
 17 22  1  0  0  0  0
 18 19  1  0  0  0  0
 18 21  1  0  0  0  0
 18 23  1  0  0  0  0
 19 20  2  0  0  0  0
 19 27  1  0  0  0  0
 21 24  1  0  0  0  0
 21 25  1  0  0  0  0
 21 26  1  0  0  0  0
 27 28  1  0  0  0  0
 27 32  1  0  0  0  0
 28 29  1  0  0  0  0
 28 31  1  0  0  0  0
 28 33  1  0  0  0  0
 29 30  2  0  0  0  0
 29 37  1  0  0  0  0
 31 34  1  0  0  0  0
 31 35  1  0  0  0  0
 31 36  1  0  0  0  0
 37 38  1  0  0  0  0
 37 39  1  0  0  0  0
 38 40  1  0  0  0  0
 38 41  1  0  0  0  0
 38 42  1  0  0  0  0
M  END
$$$$

  -OEChem-05262215353D

 42 41  0     1  0  0  0  0  0999 V2000
   -5.7410   -0.9398    2.5606 C   0  0  0  0  0  0  0  0  0  0  0  0
   -6.1439    0.1974    2.3746 O   0  0  0  0  0  0  0  0  0  0  0  0
   -6.7282   -2.0777    2.7428 C   0  0  0  0  0  0  0  0  0  0  0  0
   -6.5378   -2.5920    3.6881 H   0  0  0  0  0  0  0  0  0  0  0  0
   -7.7512   -1.6912    2.7531 H   0  0  0  0  0  0  0  0  0  0  0  0
   -6.6298   -2.7915    1.9213 H   0  0  0  0  0  0  0  0  0  0  0  0
   -4.3863   -1.1946    2.5913 N   0  0  0  0  0  0  0  0  0  0  0  0
   -3.3483   -0.2091    2.2627 C   0  0  2  0  0  0  0  0  0  0  0  0
   -2.0922   -0.8828    1.6688 C   0  0  0  0  0  0  0  0  0  0  0  0
   -1.9684   -2.0978    1.7545 O   0  0  0  0  0  0  0  0  0  0  0  0
   -2.9893    0.5609    3.5371 C   0  0  0  0  0  0  0  0  0  0  0  0
   -4.0933   -2.1706    2.6316 H   0  0  0  0  0  0  0  0  0  0  0  0
   -3.7326    0.4912    1.5128 H   0  0  0  0  0  0  0  0  0  0  0  0
   -2.5980   -0.1217    4.2984 H   0  0  0  0  0  0  0  0  0  0  0  0
   -2.2319    1.3221    3.3278 H   0  0  0  0  0  0  0  0  0  0  0  0
   -3.8763    1.0602    3.9400 H   0  0  0  0  0  0  0  0  0  0  0  0
   -1.1675   -0.1167    0.9742 N   0  0  0  0  0  0  0  0  0  0  0  0
    0.1970   -0.5009    0.5311 C   0  0  2  0  0  0  0  0  0  0  0  0
    0.2750   -0.7843   -0.9851 C   0  0  0  0  0  0  0  0  0  0  0  0
    1.3539   -0.9971   -1.5225 O   0  0  0  0  0  0  0  0  0  0  0  0
    0.8572   -1.6248    1.3477 C   0  0  0  0  0  0  0  0  0  0  0  0
   -1.3912    0.8750    0.9301 H   0  0  0  0  0  0  0  0  0  0  0  0
    0.8232    0.3823    0.6898 H   0  0  0  0  0  0  0  0  0  0  0  0
    0.4220   -2.5975    1.0987 H   0  0  0  0  0  0  0  0  0  0  0  0
    1.9283   -1.6701    1.1271 H   0  0  0  0  0  0  0  0  0  0  0  0
    0.7343   -1.4453    2.4199 H   0  0  0  0  0  0  0  0  0  0  0  0
   -0.8562   -0.6692   -1.7676 N   0  0  0  0  0  0  0  0  0  0  0  0
   -0.8701   -0.5915   -3.2323 C   0  0  2  0  0  0  0  0  0  0  0  0
   -1.8867    0.4627   -3.7212 C   0  0  0  0  0  0  0  0  0  0  0  0
   -2.6502    0.9987   -2.9234 O   0  0  0  0  0  0  0  0  0  0  0  0
   -1.2116   -1.9810   -3.7760 C   0  0  0  0  0  0  0  0  0  0  0  0
   -1.7048   -0.3764   -1.2860 H   0  0  0  0  0  0  0  0  0  0  0  0
    0.1153   -0.2909   -3.6043 H   0  0  0  0  0  0  0  0  0  0  0  0
   -2.1975   -2.2987   -3.4218 H   0  0  0  0  0  0  0  0  0  0  0  0
   -1.2176   -1.9769   -4.8698 H   0  0  0  0  0  0  0  0  0  0  0  0
   -0.4684   -2.7104   -3.4381 H   0  0  0  0  0  0  0  0  0  0  0  0
   -1.9376    0.8272   -5.0544 N   0  0  0  0  0  0  0  0  0  0  0  0
   -2.8618    1.8274   -5.5758 C   0  0  0  0  0  0  0  0  0  0  0  0
   -1.2858    0.3779   -5.6913 H   0  0  0  0  0  0  0  0  0  0  0  0
   -3.8974    1.5418   -5.3623 H   0  0  0  0  0  0  0  0  0  0  0  0
   -2.6650    2.8043   -5.1213 H   0  0  0  0  0  0  0  0  0  0  0  0
   -2.7472    1.9209   -6.6601 H   0  0  0  0  0  0  0  0  0  0  0  0
  1  2  2  0  0  0  0
  1  3  1  0  0  0  0
  1  7  1  0  0  0  0
  3  4  1  0  0  0  0
  3  5  1  0  0  0  0
  3  6  1  0  0  0  0
  7  8  1  0  0  0  0
  7 12  1  0  0  0  0
  8  9  1  0  0  0  0
  8 11  1  0  0  0  0
  8 13  1  0  0  0  0
  9 10  2  0  0  0  0
  9 17  1  0  0  0  0
 11 14  1  0  0  0  0
 11 15  1  0  0  0  0
 11 16  1  0  0  0  0
 17 18  1  0  0  0  0
 17 22  1  0  0  0  0
 18 19  1  0  0  0  0
 18 21  1  0  0  0  0
 18 23  1  0  0  0  0
 19 20  2  0  0  0  0
 19 27  1  0  0  0  0
 21 24  1  0  0  0  0
 21 25  1  0  0  0  0
 21 26  1  0  0  0  0
 27 28  1  0  0  0  0
 27 32  1  0  0  0  0
 28 29  1  0  0  0  0
 28 31  1  0  0  0  0
 28 33  1  0  0  0  0
 29 30  2  0  0  0  0
 29 37  1  0  0  0  0
 31 34  1  0  0  0  0
 31 35  1  0  0  0  0
 31 36  1  0  0  0  0
 37 38  1  0  0  0  0
 37 39  1  0  0  0  0
 38 40  1  0  0  0  0
 38 41  1  0  0  0  0
 38 42  1  0  0  0  0
M  END
$$$$

  -OEChem-05262215353D

 42 41  0     1  0  0  0  0  0999 V2000
   -5.7588   -0.9119    2.5347 C   0  0  0  0  0  0  0  0  0  0  0  0
   -6.1363    0.2422    2.4076 O   0  0  0  0  0  0  0  0  0  0  0  0
   -6.7701   -2.0327    2.6865 C   0  0  0  0  0  0  0  0  0  0  0  0
   -6.6043   -2.5606    3.6289 H   0  0  0  0  0  0  0  0  0  0  0  0
   -7.7858   -1.6272    2.6841 H   0  0  0  0  0  0  0  0  0  0  0  0
   -6.6712   -2.7393    1.8589 H   0  0  0  0  0  0  0  0  0  0  0  0
   -4.4105   -1.2001    2.5353 N   0  0  0  0  0  0  0  0  0  0  0  0
   -3.3516   -0.2218    2.2562 C   0  0  2  0  0  0  0  0  0  0  0  0
   -2.1141   -0.8877    1.6157 C   0  0  0  0  0  0  0  0  0  0  0  0
   -2.0187   -2.1082    1.6243 O   0  0  0  0  0  0  0  0  0  0  0  0
   -2.9699    0.4673    3.5704 C   0  0  0  0  0  0  0  0  0  0  0  0
   -4.1400   -2.1834    2.5239 H   0  0  0  0  0  0  0  0  0  0  0  0
   -3.7236    0.5282    1.5497 H   0  0  0  0  0  0  0  0  0  0  0  0
   -2.5890   -0.2648    4.2895 H   0  0  0  0  0  0  0  0  0  0  0  0
   -2.1978    1.2236    3.4009 H   0  0  0  0  0  0  0  0  0  0  0  0
   -3.8440    0.9609    4.0071 H   0  0  0  0  0  0  0  0  0  0  0  0
   -1.1710   -0.0995    0.9725 N   0  0  0  0  0  0  0  0  0  0  0  0
    0.1945   -0.4839    0.5352 C   0  0  2  0  0  0  0  0  0  0  0  0
    0.2946   -0.6997   -0.9924 C   0  0  0  0  0  0  0  0  0  0  0  0
    1.3112   -1.1582   -1.4976 O   0  0  0  0  0  0  0  0  0  0  0  0
    0.8251   -1.6454    1.3235 C   0  0  0  0  0  0  0  0  0  0  0  0
   -1.3639    0.8983    1.0126 H   0  0  0  0  0  0  0  0  0  0  0  0
    0.8281    0.3839    0.7416 H   0  0  0  0  0  0  0  0  0  0  0  0
    0.3939   -2.6037    1.0180 H   0  0  0  0  0  0  0  0  0  0  0  0
    1.9025   -1.6872    1.1352 H   0  0  0  0  0  0  0  0  0  0  0  0
    0.6692   -1.5131    2.3981 H   0  0  0  0  0  0  0  0  0  0  0  0
   -0.7107   -0.2423   -1.8211 N   0  0  0  0  0  0  0  0  0  0  0  0
   -0.6476   -0.1813   -3.2850 C   0  0  2  0  0  0  0  0  0  0  0  0
   -1.4444    1.0251   -3.8253 C   0  0  0  0  0  0  0  0  0  0  0  0
   -2.1710    1.6696   -3.0749 O   0  0  0  0  0  0  0  0  0  0  0  0
   -1.1987   -1.4966   -3.8442 C   0  0  0  0  0  0  0  0  0  0  0  0
   -1.5055    0.2108   -1.3743 H   0  0  0  0  0  0  0  0  0  0  0  0
    0.3918   -0.0593   -3.6078 H   0  0  0  0  0  0  0  0  0  0  0  0
   -2.2421   -1.6337   -3.5425 H   0  0  0  0  0  0  0  0  0  0  0  0
   -1.1476   -1.5036   -4.9370 H   0  0  0  0  0  0  0  0  0  0  0  0
   -0.6136   -2.3416   -3.4672 H   0  0  0  0  0  0  0  0  0  0  0  0
   -1.3328    1.4030   -5.1507 N   0  0  0  0  0  0  0  0  0  0  0  0
   -2.0466    2.5381   -5.7230 C   0  0  0  0  0  0  0  0  0  0  0  0
   -0.7164    0.8573   -5.7461 H   0  0  0  0  0  0  0  0  0  0  0  0
   -3.1286    2.3909   -5.6404 H   0  0  0  0  0  0  0  0  0  0  0  0
   -1.7755    3.4634   -5.2037 H   0  0  0  0  0  0  0  0  0  0  0  0
   -1.7928    2.6501   -6.7814 H   0  0  0  0  0  0  0  0  0  0  0  0
  1  2  2  0  0  0  0
  1  3  1  0  0  0  0
  1  7  1  0  0  0  0
  3  4  1  0  0  0  0
  3  5  1  0  0  0  0
  3  6  1  0  0  0  0
  7  8  1  0  0  0  0
  7 12  1  0  0  0  0
  8  9  1  0  0  0  0
  8 11  1  0  0  0  0
  8 13  1  0  0  0  0
  9 10  2  0  0  0  0
  9 17  1  0  0  0  0
 11 14  1  0  0  0  0
 11 15  1  0  0  0  0
 11 16  1  0  0  0  0
 17 18  1  0  0  0  0
 17 22  1  0  0  0  0
 18 19  1  0  0  0  0
 18 21  1  0  0  0  0
 18 23  1  0  0  0  0
 19 20  2  0  0  0  0
 19 27  1  0  0  0  0
 21 24  1  0  0  0  0
 21 25  1  0  0  0  0
 21 26  1  0  0  0  0
 27 28  1  0  0  0  0
 27 32  1  0  0  0  0
 28 29  1  0  0  0  0
 28 31  1  0  0  0  0
 28 33  1  0  0  0  0
 29 30  2  0  0  0  0
 29 37  1  0  0  0  0
 31 34  1  0  0  0  0
 31 35  1  0  0  0  0
 31 36  1  0  0  0  0
 37 38  1  0  0  0  0
 37 39  1  0  0  0  0
 38 40  1  0  0  0  0
 38 41  1  0  0  0  0
 38 42  1  0  0  0  0
M  END
$$$$

  -OEChem-05262215353D

 42 41  0     1  0  0  0  0  0999 V2000
   -5.5793   -0.8934    1.9490 C   0  0  0  0  0  0  0  0  0  0  0  0
   -5.8804    0.1387    1.3708 O   0  0  0  0  0  0  0  0  0  0  0  0
   -6.5517   -2.0573    1.9795 C   0  0  0  0  0  0  0  0  0  0  0  0
   -6.7967   -2.3115    3.0135 H   0  0  0  0  0  0  0  0  0  0  0  0
   -7.4731   -1.7925    1.4533 H   0  0  0  0  0  0  0  0  0  0  0  0
   -6.1061   -2.9290    1.4937 H   0  0  0  0  0  0  0  0  0  0  0  0
   -4.3510   -1.0176    2.5636 N   0  0  0  0  0  0  0  0  0  0  0  0
   -3.2354   -0.0823    2.3619 C   0  0  2  0  0  0  0  0  0  0  0  0
   -1.9990   -0.7996    1.7798 C   0  0  0  0  0  0  0  0  0  0  0  0
   -1.8965   -2.0111    1.9211 O   0  0  0  0  0  0  0  0  0  0  0  0
   -2.9029    0.5510    3.7144 C   0  0  0  0  0  0  0  0  0  0  0  0
   -4.0912   -1.9623    2.8437 H   0  0  0  0  0  0  0  0  0  0  0  0
   -3.5174    0.7108    1.6615 H   0  0  0  0  0  0  0  0  0  0  0  0
   -2.6054   -0.2177    4.4350 H   0  0  0  0  0  0  0  0  0  0  0  0
   -2.0831    1.2684    3.6121 H   0  0  0  0  0  0  0  0  0  0  0  0
   -3.7772    1.0790    4.1082 H   0  0  0  0  0  0  0  0  0  0  0  0
   -1.0607   -0.0664    1.0679 N   0  0  0  0  0  0  0  0  0  0  0  0
    0.2657   -0.5046    0.5661 C   0  0  2  0  0  0  0  0  0  0  0  0
    0.2595   -0.7516   -0.9613 C   0  0  0  0  0  0  0  0  0  0  0  0
    1.0942   -1.4711   -1.4954 O   0  0  0  0  0  0  0  0  0  0  0  0
    0.9054   -1.6704    1.3423 C   0  0  0  0  0  0  0  0  0  0  0  0
   -1.2567    0.9302    1.0202 H   0  0  0  0  0  0  0  0  0  0  0  0
    0.9385    0.3449    0.7164 H   0  0  0  0  0  0  0  0  0  0  0  0
    0.4221   -2.6193    1.0887 H   0  0  0  0  0  0  0  0  0  0  0  0
    1.9663   -1.7556    1.0870 H   0  0  0  0  0  0  0  0  0  0  0  0
    0.8234   -1.5082    2.4209 H   0  0  0  0  0  0  0  0  0  0  0  0
   -0.5960   -0.0254   -1.7671 N   0  0  0  0  0  0  0  0  0  0  0  0
   -0.5499    0.0203   -3.2321 C   0  0  2  0  0  0  0  0  0  0  0  0
   -0.9612    1.4119   -3.7575 C   0  0  0  0  0  0  0  0  0  0  0  0
   -1.4374    2.2439   -2.9908 O   0  0  0  0  0  0  0  0  0  0  0  0
   -1.4820   -1.0675   -3.7728 C   0  0  0  0  0  0  0  0  0  0  0  0
   -1.2106    0.6437   -1.3090 H   0  0  0  0  0  0  0  0  0  0  0  0
    0.4706   -0.1721   -3.5798 H   0  0  0  0  0  0  0  0  0  0  0  0
   -2.5097   -0.8901   -3.4401 H   0  0  0  0  0  0  0  0  0  0  0  0
   -1.4660   -1.0809   -4.8664 H   0  0  0  0  0  0  0  0  0  0  0  0
   -1.1643   -2.0510   -3.4119 H   0  0  0  0  0  0  0  0  0  0  0  0
   -0.7801    1.7409   -5.0880 N   0  0  0  0  0  0  0  0  0  0  0  0
   -1.1295    3.0414   -5.6463 C   0  0  0  0  0  0  0  0  0  0  0  0
   -0.3732    1.0361   -5.6963 H   0  0  0  0  0  0  0  0  0  0  0  0
   -2.1983    3.2404   -5.5149 H   0  0  0  0  0  0  0  0  0  0  0  0
   -0.5597    3.8359   -5.1530 H   0  0  0  0  0  0  0  0  0  0  0  0
   -0.9028    3.0671   -6.7165 H   0  0  0  0  0  0  0  0  0  0  0  0
  1  2  2  0  0  0  0
  1  3  1  0  0  0  0
  1  7  1  0  0  0  0
  3  4  1  0  0  0  0
  3  5  1  0  0  0  0
  3  6  1  0  0  0  0
  7  8  1  0  0  0  0
  7 12  1  0  0  0  0
  8  9  1  0  0  0  0
  8 11  1  0  0  0  0
  8 13  1  0  0  0  0
  9 10  2  0  0  0  0
  9 17  1  0  0  0  0
 11 14  1  0  0  0  0
 11 15  1  0  0  0  0
 11 16  1  0  0  0  0
 17 18  1  0  0  0  0
 17 22  1  0  0  0  0
 18 19  1  0  0  0  0
 18 21  1  0  0  0  0
 18 23  1  0  0  0  0
 19 20  2  0  0  0  0
 19 27  1  0  0  0  0
 21 24  1  0  0  0  0
 21 25  1  0  0  0  0
 21 26  1  0  0  0  0
 27 28  1  0  0  0  0
 27 32  1  0  0  0  0
 28 29  1  0  0  0  0
 28 31  1  0  0  0  0
 28 33  1  0  0  0  0
 29 30  2  0  0  0  0
 29 37  1  0  0  0  0
 31 34  1  0  0  0  0
 31 35  1  0  0  0  0
 31 36  1  0  0  0  0
 37 38  1  0  0  0  0
 37 39  1  0  0  0  0
 38 40  1  0  0  0  0
 38 41  1  0  0  0  0
 38 42  1  0  0  0  0
M  END
$$$$

  -OEChem-05262215353D

 42 41  0     1  0  0  0  0  0999 V2000
   -5.5655   -0.8999    1.8808 C   0  0  0  0  0  0  0  0  0  0  0  0
   -5.8684    0.1276    1.2948 O   0  0  0  0  0  0  0  0  0  0  0  0
   -6.5311   -2.0698    1.9087 C   0  0  0  0  0  0  0  0  0  0  0  0
   -6.7790   -2.3239    2.9421 H   0  0  0  0  0  0  0  0  0  0  0  0
   -7.4527   -1.8118    1.3791 H   0  0  0  0  0  0  0  0  0  0  0  0
   -6.0782   -2.9391    1.4249 H   0  0  0  0  0  0  0  0  0  0  0  0
   -4.3407   -1.0123    2.5048 N   0  0  0  0  0  0  0  0  0  0  0  0
   -3.2291   -0.0714    2.3042 C   0  0  2  0  0  0  0  0  0  0  0  0
   -1.9684   -0.7922    1.7804 C   0  0  0  0  0  0  0  0  0  0  0  0
   -1.8588   -1.9971    1.9660 O   0  0  0  0  0  0  0  0  0  0  0  0
   -2.9422    0.6104    3.6434 C   0  0  0  0  0  0  0  0  0  0  0  0
   -4.0780   -1.9523    2.7991 H   0  0  0  0  0  0  0  0  0  0  0  0
   -3.5005    0.6941    1.5694 H   0  0  0  0  0  0  0  0  0  0  0  0
   -2.6503   -0.1298    4.3955 H   0  0  0  0  0  0  0  0  0  0  0  0
   -2.1326    1.3390    3.5384 H   0  0  0  0  0  0  0  0  0  0  0  0
   -3.8353    1.1350    3.9978 H   0  0  0  0  0  0  0  0  0  0  0  0
   -1.0179   -0.0674    1.0754 N   0  0  0  0  0  0  0  0  0  0  0  0
    0.3038   -0.5145    0.5705 C   0  0  2  0  0  0  0  0  0  0  0  0
    0.2838   -0.7437   -0.9604 C   0  0  0  0  0  0  0  0  0  0  0  0
    0.8914   -1.6674   -1.4867 O   0  0  0  0  0  0  0  0  0  0  0  0
    0.9345   -1.6899    1.3399 C   0  0  0  0  0  0  0  0  0  0  0  0
   -1.2266    0.9235    0.9916 H   0  0  0  0  0  0  0  0  0  0  0  0
    0.9862    0.3260    0.7275 H   0  0  0  0  0  0  0  0  0  0  0  0
    0.4323   -2.6311    1.0950 H   0  0  0  0  0  0  0  0  0  0  0  0
    1.9901   -1.7935    1.0703 H   0  0  0  0  0  0  0  0  0  0  0  0
    0.8690   -1.5239    2.4192 H   0  0  0  0  0  0  0  0  0  0  0  0
   -0.3207    0.1932   -1.7773 N   0  0  0  0  0  0  0  0  0  0  0  0
   -0.2507    0.2098   -3.2429 C   0  0  2  0  0  0  0  0  0  0  0  0
   -0.2702    1.6555   -3.7829 C   0  0  0  0  0  0  0  0  0  0  0  0
   -0.5501    2.5868   -3.0340 O   0  0  0  0  0  0  0  0  0  0  0  0
   -1.4372   -0.5915   -3.7873 C   0  0  0  0  0  0  0  0  0  0  0  0
   -0.7040    1.0248   -1.3340 H   0  0  0  0  0  0  0  0  0  0  0  0
    0.6837   -0.2531   -3.5779 H   0  0  0  0  0  0  0  0  0  0  0  0
   -2.3828   -0.1368   -3.4742 H   0  0  0  0  0  0  0  0  0  0  0  0
   -1.4109   -0.6247   -4.8805 H   0  0  0  0  0  0  0  0  0  0  0  0
   -1.4039   -1.6190   -3.4107 H   0  0  0  0  0  0  0  0  0  0  0  0
    0.0412    1.9170   -5.1045 N   0  0  0  0  0  0  0  0  0  0  0  0
    0.0527    3.2584   -5.6759 C   0  0  0  0  0  0  0  0  0  0  0  0
    0.2810    1.1273   -5.6971 H   0  0  0  0  0  0  0  0  0  0  0  0
   -0.9377    3.7183   -5.5954 H   0  0  0  0  0  0  0  0  0  0  0  0
    0.7785    3.8917   -5.1549 H   0  0  0  0  0  0  0  0  0  0  0  0
    0.3284    3.2168   -6.7341 H   0  0  0  0  0  0  0  0  0  0  0  0
  1  2  2  0  0  0  0
  1  3  1  0  0  0  0
  1  7  1  0  0  0  0
  3  4  1  0  0  0  0
  3  5  1  0  0  0  0
  3  6  1  0  0  0  0
  7  8  1  0  0  0  0
  7 12  1  0  0  0  0
  8  9  1  0  0  0  0
  8 11  1  0  0  0  0
  8 13  1  0  0  0  0
  9 10  2  0  0  0  0
  9 17  1  0  0  0  0
 11 14  1  0  0  0  0
 11 15  1  0  0  0  0
 11 16  1  0  0  0  0
 17 18  1  0  0  0  0
 17 22  1  0  0  0  0
 18 19  1  0  0  0  0
 18 21  1  0  0  0  0
 18 23  1  0  0  0  0
 19 20  2  0  0  0  0
 19 27  1  0  0  0  0
 21 24  1  0  0  0  0
 21 25  1  0  0  0  0
 21 26  1  0  0  0  0
 27 28  1  0  0  0  0
 27 32  1  0  0  0  0
 28 29  1  0  0  0  0
 28 31  1  0  0  0  0
 28 33  1  0  0  0  0
 29 30  2  0  0  0  0
 29 37  1  0  0  0  0
 31 34  1  0  0  0  0
 31 35  1  0  0  0  0
 31 36  1  0  0  0  0
 37 38  1  0  0  0  0
 37 39  1  0  0  0  0
 38 40  1  0  0  0  0
 38 41  1  0  0  0  0
 38 42  1  0  0  0  0
M  END
$$$$

  -OEChem-05262215353D

 42 41  0     1  0  0  0  0  0999 V2000
   -5.5577   -0.8987    1.8483 C   0  0  0  0  0  0  0  0  0  0  0  0
   -5.8784    0.1424    1.2964 O   0  0  0  0  0  0  0  0  0  0  0  0
   -6.5228   -2.0681    1.8867 C   0  0  0  0  0  0  0  0  0  0  0  0
   -6.7596   -2.3205    2.9231 H   0  0  0  0  0  0  0  0  0  0  0  0
   -7.4489   -1.8104    1.3654 H   0  0  0  0  0  0  0  0  0  0  0  0
   -6.0746   -2.9380    1.3997 H   0  0  0  0  0  0  0  0  0  0  0  0
   -4.3132   -1.0246    2.4282 N   0  0  0  0  0  0  0  0  0  0  0  0
   -3.2146   -0.0693    2.2328 C   0  0  2  0  0  0  0  0  0  0  0  0
   -1.9173   -0.7843    1.7992 C   0  0  0  0  0  0  0  0  0  0  0  0
   -1.7833   -1.9707    2.0681 O   0  0  0  0  0  0  0  0  0  0  0  0
   -3.0034    0.6835    3.5482 C   0  0  0  0  0  0  0  0  0  0  0  0
   -4.0407   -1.9656    2.7112 H   0  0  0  0  0  0  0  0  0  0  0  0
   -3.4705    0.6504    1.4481 H   0  0  0  0  0  0  0  0  0  0  0  0
   -2.7352   -0.0130    4.3493 H   0  0  0  0  0  0  0  0  0  0  0  0
   -2.2019    1.4212    3.4452 H   0  0  0  0  0  0  0  0  0  0  0  0
   -3.9214    1.2073    3.8338 H   0  0  0  0  0  0  0  0  0  0  0  0
   -0.9612   -0.0704    1.0904 N   0  0  0  0  0  0  0  0  0  0  0  0
    0.3528   -0.5249    0.5741 C   0  0  2  0  0  0  0  0  0  0  0  0
    0.3059   -0.7413   -0.9573 C   0  0  0  0  0  0  0  0  0  0  0  0
    0.6272   -1.8003   -1.4810 O   0  0  0  0  0  0  0  0  0  0  0  0
    0.9813   -1.7144    1.3229 C   0  0  0  0  0  0  0  0  0  0  0  0
   -1.2195    0.8928    0.8965 H   0  0  0  0  0  0  0  0  0  0  0  0
    1.0464    0.3060    0.7328 H   0  0  0  0  0  0  0  0  0  0  0  0
    0.4492   -2.6448    1.1004 H   0  0  0  0  0  0  0  0  0  0  0  0
    2.0235   -1.8426    1.0154 H   0  0  0  0  0  0  0  0  0  0  0  0
    0.9580   -1.5443    2.4032 H   0  0  0  0  0  0  0  0  0  0  0  0
   -0.0110    0.3264   -1.7766 N   0  0  0  0  0  0  0  0  0  0  0  0
    0.0796    0.3145   -3.2414 C   0  0  2  0  0  0  0  0  0  0  0  0
    0.4405    1.7132   -3.7833 C   0  0  0  0  0  0  0  0  0  0  0  0
    0.3825    2.6904   -3.0430 O   0  0  0  0  0  0  0  0  0  0  0  0
   -1.2636   -0.1578   -3.8058 C   0  0  0  0  0  0  0  0  0  0  0  0
   -0.1077    1.2419   -1.3413 H   0  0  0  0  0  0  0  0  0  0  0  0
    0.8685   -0.3751   -3.5600 H   0  0  0  0  0  0  0  0  0  0  0  0
   -2.0670    0.5207   -3.5016 H   0  0  0  0  0  0  0  0  0  0  0  0
   -1.2309   -0.1922   -4.8987 H   0  0  0  0  0  0  0  0  0  0  0  0
   -1.4972   -1.1616   -3.4367 H   0  0  0  0  0  0  0  0  0  0  0  0
    0.8571    1.8741   -5.0915 N   0  0  0  0  0  0  0  0  0  0  0  0
    1.2662    3.1575   -5.6490 C   0  0  0  0  0  0  0  0  0  0  0  0
    0.9279    1.0411   -5.6690 H   0  0  0  0  0  0  0  0  0  0  0  0
    0.4521    3.8860   -5.5738 H   0  0  0  0  0  0  0  0  0  0  0  0
    2.1382    3.5467   -5.1132 H   0  0  0  0  0  0  0  0  0  0  0  0
    1.5314    3.0446   -6.7046 H   0  0  0  0  0  0  0  0  0  0  0  0
  1  2  2  0  0  0  0
  1  3  1  0  0  0  0
  1  7  1  0  0  0  0
  3  4  1  0  0  0  0
  3  5  1  0  0  0  0
  3  6  1  0  0  0  0
  7  8  1  0  0  0  0
  7 12  1  0  0  0  0
  8  9  1  0  0  0  0
  8 11  1  0  0  0  0
  8 13  1  0  0  0  0
  9 10  2  0  0  0  0
  9 17  1  0  0  0  0
 11 14  1  0  0  0  0
 11 15  1  0  0  0  0
 11 16  1  0  0  0  0
 17 18  1  0  0  0  0
 17 22  1  0  0  0  0
 18 19  1  0  0  0  0
 18 21  1  0  0  0  0
 18 23  1  0  0  0  0
 19 20  2  0  0  0  0
 19 27  1  0  0  0  0
 21 24  1  0  0  0  0
 21 25  1  0  0  0  0
 21 26  1  0  0  0  0
 27 28  1  0  0  0  0
 27 32  1  0  0  0  0
 28 29  1  0  0  0  0
 28 31  1  0  0  0  0
 28 33  1  0  0  0  0
 29 30  2  0  0  0  0
 29 37  1  0  0  0  0
 31 34  1  0  0  0  0
 31 35  1  0  0  0  0
 31 36  1  0  0  0  0
 37 38  1  0  0  0  0
 37 39  1  0  0  0  0
 38 40  1  0  0  0  0
 38 41  1  0  0  0  0
 38 42  1  0  0  0  0
M  END
$$$$

  -OEChem-05262215353D

 42 41  0     1  0  0  0  0  0999 V2000
   -5.5476   -0.9140    1.8320 C   0  0  0  0  0  0  0  0  0  0  0  0
   -5.8815    0.1297    1.2932 O   0  0  0  0  0  0  0  0  0  0  0  0
   -6.5059   -2.0891    1.8721 C   0  0  0  0  0  0  0  0  0  0  0  0
   -6.7188   -2.3620    2.9085 H   0  0  0  0  0  0  0  0  0  0  0  0
   -7.4449   -1.8265    1.3769 H   0  0  0  0  0  0  0  0  0  0  0  0
   -6.0652   -2.9475    1.3588 H   0  0  0  0  0  0  0  0  0  0  0  0
   -4.2932   -1.0358    2.3909 N   0  0  0  0  0  0  0  0  0  0  0  0
   -3.2069   -0.0671    2.1945 C   0  0  2  0  0  0  0  0  0  0  0  0
   -1.8840   -0.7706    1.8230 C   0  0  0  0  0  0  0  0  0  0  0  0
   -1.7309   -1.9398    2.1507 O   0  0  0  0  0  0  0  0  0  0  0  0
   -3.0488    0.7342    3.4882 C   0  0  0  0  0  0  0  0  0  0  0  0
   -4.0122   -1.9717    2.6824 H   0  0  0  0  0  0  0  0  0  0  0  0
   -3.4535    0.6192    1.3775 H   0  0  0  0  0  0  0  0  0  0  0  0
   -2.7925    0.0706    4.3203 H   0  0  0  0  0  0  0  0  0  0  0  0
   -2.2579    1.4827    3.3829 H   0  0  0  0  0  0  0  0  0  0  0  0
   -3.9841    1.2495    3.7290 H   0  0  0  0  0  0  0  0  0  0  0  0
   -0.9229   -0.0612    1.1153 N   0  0  0  0  0  0  0  0  0  0  0  0
    0.3827   -0.5233    0.5865 C   0  0  2  0  0  0  0  0  0  0  0  0
    0.3201   -0.7209   -0.9465 C   0  0  0  0  0  0  0  0  0  0  0  0
    0.3191   -1.8294   -1.4652 O   0  0  0  0  0  0  0  0  0  0  0  0
    1.0034   -1.7344    1.3053 C   0  0  0  0  0  0  0  0  0  0  0  0
   -1.2077    0.8792    0.8574 H   0  0  0  0  0  0  0  0  0  0  0  0
    1.0886    0.2947    0.7567 H   0  0  0  0  0  0  0  0  0  0  0  0
    0.4474   -2.6509    1.0839 H   0  0  0  0  0  0  0  0  0  0  0  0
    2.0354   -1.8802    0.9724 H   0  0  0  0  0  0  0  0  0  0  0  0
    1.0075   -1.5775    2.3882 H   0  0  0  0  0  0  0  0  0  0  0  0
    0.3211    0.3904   -1.7693 N   0  0  0  0  0  0  0  0  0  0  0  0
    0.4347    0.3447   -3.2327 C   0  0  2  0  0  0  0  0  0  0  0  0
    1.1864    1.5798   -3.7707 C   0  0  0  0  0  0  0  0  0  0  0  0
    1.3837    2.5437   -3.0371 O   0  0  0  0  0  0  0  0  0  0  0  0
   -0.9749    0.2650   -3.8264 C   0  0  0  0  0  0  0  0  0  0  0  0
    0.4877    1.2973   -1.3358 H   0  0  0  0  0  0  0  0  0  0  0  0
    1.0042   -0.5408   -3.5346 H   0  0  0  0  0  0  0  0  0  0  0  0
   -1.5605    1.1455   -3.5429 H   0  0  0  0  0  0  0  0  0  0  0  0
   -0.9306    0.2120   -4.9184 H   0  0  0  0  0  0  0  0  0  0  0  0
   -1.4892   -0.6290   -3.4595 H   0  0  0  0  0  0  0  0  0  0  0  0
    1.6660    1.6001   -5.0673 N   0  0  0  0  0  0  0  0  0  0  0  0
    2.4310    2.7109   -5.6208 C   0  0  0  0  0  0  0  0  0  0  0  0
    1.5168    0.7724   -5.6378 H   0  0  0  0  0  0  0  0  0  0  0  0
    1.8415    3.6335   -5.5954 H   0  0  0  0  0  0  0  0  0  0  0  0
    3.3514    2.8650   -5.0476 H   0  0  0  0  0  0  0  0  0  0  0  0
    2.7018    2.5026   -6.6607 H   0  0  0  0  0  0  0  0  0  0  0  0
  1  2  2  0  0  0  0
  1  3  1  0  0  0  0
  1  7  1  0  0  0  0
  3  4  1  0  0  0  0
  3  5  1  0  0  0  0
  3  6  1  0  0  0  0
  7  8  1  0  0  0  0
  7 12  1  0  0  0  0
  8  9  1  0  0  0  0
  8 11  1  0  0  0  0
  8 13  1  0  0  0  0
  9 10  2  0  0  0  0
  9 17  1  0  0  0  0
 11 14  1  0  0  0  0
 11 15  1  0  0  0  0
 11 16  1  0  0  0  0
 17 18  1  0  0  0  0
 17 22  1  0  0  0  0
 18 19  1  0  0  0  0
 18 21  1  0  0  0  0
 18 23  1  0  0  0  0
 19 20  2  0  0  0  0
 19 27  1  0  0  0  0
 21 24  1  0  0  0  0
 21 25  1  0  0  0  0
 21 26  1  0  0  0  0
 27 28  1  0  0  0  0
 27 32  1  0  0  0  0
 28 29  1  0  0  0  0
 28 31  1  0  0  0  0
 28 33  1  0  0  0  0
 29 30  2  0  0  0  0
 29 37  1  0  0  0  0
 31 34  1  0  0  0  0
 31 35  1  0  0  0  0
 31 36  1  0  0  0  0
 37 38  1  0  0  0  0
 37 39  1  0  0  0  0
 38 40  1  0  0  0  0
 38 41  1  0  0  0  0
 38 42  1  0  0  0  0
M  END
$$$$

  -OEChem-05262215353D

 42 41  0     1  0  0  0  0  0999 V2000
   -5.5514   -0.9266    1.8373 C   0  0  0  0  0  0  0  0  0  0  0  0
   -5.9053    0.1293    1.3356 O   0  0  0  0  0  0  0  0  0  0  0  0
   -6.5043   -2.1068    1.8783 C   0  0  0  0  0  0  0  0  0  0  0  0
   -6.6791   -2.4116    2.9129 H   0  0  0  0  0  0  0  0  0  0  0  0
   -7.4614   -1.8353    1.4243 H   0  0  0  0  0  0  0  0  0  0  0  0
   -6.0790   -2.9478    1.3251 H   0  0  0  0  0  0  0  0  0  0  0  0
   -4.2786   -1.0559    2.3515 N   0  0  0  0  0  0  0  0  0  0  0  0
   -3.2056   -0.0724    2.1559 C   0  0  2  0  0  0  0  0  0  0  0  0
   -1.8616   -0.7596    1.8325 C   0  0  0  0  0  0  0  0  0  0  0  0
   -1.6946   -1.9162    2.1973 O   0  0  0  0  0  0  0  0  0  0  0  0
   -3.0901    0.7685    3.4295 C   0  0  0  0  0  0  0  0  0  0  0  0
   -3.9843   -1.9939    2.6229 H   0  0  0  0  0  0  0  0  0  0  0  0
   -3.4483    0.5839    1.3136 H   0  0  0  0  0  0  0  0  0  0  0  0
   -2.8417    0.1330    4.2856 H   0  0  0  0  0  0  0  0  0  0  0  0
   -2.3092    1.5271    3.3205 H   0  0  0  0  0  0  0  0  0  0  0  0
   -4.0388    1.2749    3.6341 H   0  0  0  0  0  0  0  0  0  0  0  0
   -0.8951   -0.0453    1.1369 N   0  0  0  0  0  0  0  0  0  0  0  0
    0.4097   -0.5078    0.6078 C   0  0  2  0  0  0  0  0  0  0  0  0
    0.3534   -0.6867   -0.9268 C   0  0  0  0  0  0  0  0  0  0  0  0
    0.0241   -1.7461   -1.4430 O   0  0  0  0  0  0  0  0  0  0  0  0
    1.0203   -1.7414    1.2950 C   0  0  0  0  0  0  0  0  0  0  0  0
   -1.1962    0.8797    0.8442 H   0  0  0  0  0  0  0  0  0  0  0  0
    1.1199    0.3021    0.7995 H   0  0  0  0  0  0  0  0  0  0  0  0
    0.4513   -2.6465    1.0597 H   0  0  0  0  0  0  0  0  0  0  0  0
    2.0482   -1.8927    0.9520 H   0  0  0  0  0  0  0  0  0  0  0  0
    1.0345   -1.6074    2.3807 H   0  0  0  0  0  0  0  0  0  0  0  0
    0.6742    0.3764   -1.7506 N   0  0  0  0  0  0  0  0  0  0  0  0
    0.8009    0.2844   -3.2109 C   0  0  2  0  0  0  0  0  0  0  0  0
    1.8752    1.2580   -3.7375 C   0  0  0  0  0  0  0  0  0  0  0  0
    2.3116    2.1416   -3.0063 O   0  0  0  0  0  0  0  0  0  0  0  0
   -0.5639    0.5860   -3.8377 C   0  0  0  0  0  0  0  0  0  0  0  0
    1.0829    1.2036   -1.3168 H   0  0  0  0  0  0  0  0  0  0  0  0
    1.1121   -0.7270   -3.4941 H   0  0  0  0  0  0  0  0  0  0  0  0
   -0.8956    1.5942   -3.5697 H   0  0  0  0  0  0  0  0  0  0  0  0
   -0.5108    0.5145   -4.9281 H   0  0  0  0  0  0  0  0  0  0  0  0
   -1.3098   -0.1322   -3.4822 H   0  0  0  0  0  0  0  0  0  0  0  0
    2.3771    1.1253   -5.0188 N   0  0  0  0  0  0  0  0  0  0  0  0
    3.4388    1.9698   -5.5525 C   0  0  0  0  0  0  0  0  0  0  0  0
    2.0262    0.3583   -5.5854 H   0  0  0  0  0  0  0  0  0  0  0  0
    3.1406    3.0232   -5.5266 H   0  0  0  0  0  0  0  0  0  0  0  0
    4.3557    1.8485   -4.9660 H   0  0  0  0  0  0  0  0  0  0  0  0
    3.6538    1.6980   -6.5906 H   0  0  0  0  0  0  0  0  0  0  0  0
  1  2  2  0  0  0  0
  1  3  1  0  0  0  0
  1  7  1  0  0  0  0
  3  4  1  0  0  0  0
  3  5  1  0  0  0  0
  3  6  1  0  0  0  0
  7  8  1  0  0  0  0
  7 12  1  0  0  0  0
  8  9  1  0  0  0  0
  8 11  1  0  0  0  0
  8 13  1  0  0  0  0
  9 10  2  0  0  0  0
  9 17  1  0  0  0  0
 11 14  1  0  0  0  0
 11 15  1  0  0  0  0
 11 16  1  0  0  0  0
 17 18  1  0  0  0  0
 17 22  1  0  0  0  0
 18 19  1  0  0  0  0
 18 21  1  0  0  0  0
 18 23  1  0  0  0  0
 19 20  2  0  0  0  0
 19 27  1  0  0  0  0
 21 24  1  0  0  0  0
 21 25  1  0  0  0  0
 21 26  1  0  0  0  0
 27 28  1  0  0  0  0
 27 32  1  0  0  0  0
 28 29  1  0  0  0  0
 28 31  1  0  0  0  0
 28 33  1  0  0  0  0
 29 30  2  0  0  0  0
 29 37  1  0  0  0  0
 31 34  1  0  0  0  0
 31 35  1  0  0  0  0
 31 36  1  0  0  0  0
 37 38  1  0  0  0  0
 37 39  1  0  0  0  0
 38 40  1  0  0  0  0
 38 41  1  0  0  0  0
 38 42  1  0  0  0  0
M  END
$$$$

  -OEChem-05262215353D

 42 41  0     1  0  0  0  0  0999 V2000
   -5.5515   -0.9432    1.8403 C   0  0  0  0  0  0  0  0  0  0  0  0
   -5.9286    0.1191    1.3699 O   0  0  0  0  0  0  0  0  0  0  0  0
   -6.4924   -2.1322    1.8903 C   0  0  0  0  0  0  0  0  0  0  0  0
   -6.6052   -2.4767    2.9211 H   0  0  0  0  0  0  0  0  0  0  0  0
   -7.4757   -1.8517    1.5024 H   0  0  0  0  0  0  0  0  0  0  0  0
   -6.0935   -2.9485    1.2829 H   0  0  0  0  0  0  0  0  0  0  0  0
   -4.2635   -1.0715    2.3141 N   0  0  0  0  0  0  0  0  0  0  0  0
   -3.2072   -0.0719    2.1161 C   0  0  2  0  0  0  0  0  0  0  0  0
   -1.8433   -0.7406    1.8438 C   0  0  0  0  0  0  0  0  0  0  0  0
   -1.6617   -1.8819    2.2491 O   0  0  0  0  0  0  0  0  0  0  0  0
   -3.1340    0.8045    3.3690 C   0  0  0  0  0  0  0  0  0  0  0  0
   -3.9552   -2.0079    2.5748 H   0  0  0  0  0  0  0  0  0  0  0  0
   -3.4464    0.5546    1.2502 H   0  0  0  0  0  0  0  0  0  0  0  0
   -2.8884    0.1970    4.2464 H   0  0  0  0  0  0  0  0  0  0  0  0
   -2.3672    1.5766    3.2544 H   0  0  0  0  0  0  0  0  0  0  0  0
   -4.0967    1.2959    3.5429 H   0  0  0  0  0  0  0  0  0  0  0  0
   -0.8727   -0.0235    1.1573 N   0  0  0  0  0  0  0  0  0  0  0  0
    0.4331   -0.4892    0.6354 C   0  0  2  0  0  0  0  0  0  0  0  0
    0.3903   -0.6637   -0.8989 C   0  0  0  0  0  0  0  0  0  0  0  0
   -0.2316   -1.5799   -1.4194 O   0  0  0  0  0  0  0  0  0  0  0  0
    1.0293   -1.7389    1.3025 C   0  0  0  0  0  0  0  0  0  0  0  0
   -1.1937    0.8777    0.8156 H   0  0  0  0  0  0  0  0  0  0  0  0
    1.1446    0.3152    0.8434 H   0  0  0  0  0  0  0  0  0  0  0  0
    0.4531   -2.6332    1.0434 H   0  0  0  0  0  0  0  0  0  0  0  0
    2.0588   -1.8916    0.9651 H   0  0  0  0  0  0  0  0  0  0  0  0
    1.0359   -1.6268    2.3910 H   0  0  0  0  0  0  0  0  0  0  0  0
    1.0066    0.2652   -1.7161 N   0  0  0  0  0  0  0  0  0  0  0  0
    1.1448    0.1236   -3.1714 C   0  0  2  0  0  0  0  0  0  0  0  0
    2.4661    0.7481   -3.6661 C   0  0  0  0  0  0  0  0  0  0  0  0
    3.1241    1.4614   -2.9152 O   0  0  0  0  0  0  0  0  0  0  0  0
   -0.0582    0.7940   -3.8417 C   0  0  0  0  0  0  0  0  0  0  0  0
    1.6257    0.9436   -1.2731 H   0  0  0  0  0  0  0  0  0  0  0  0
    1.1644   -0.9379   -3.4417 H   0  0  0  0  0  0  0  0  0  0  0  0
   -0.0925    1.8587   -3.5899 H   0  0  0  0  0  0  0  0  0  0  0  0
    0.0018    0.6947   -4.9296 H   0  0  0  0  0  0  0  0  0  0  0  0
   -0.9887    0.3257   -3.5050 H   0  0  0  0  0  0  0  0  0  0  0  0
    2.9331    0.4907   -4.9417 N   0  0  0  0  0  0  0  0  0  0  0  0
    4.2053    0.9957   -5.4441 C   0  0  0  0  0  0  0  0  0  0  0  0
    2.3894   -0.1399   -5.5243 H   0  0  0  0  0  0  0  0  0  0  0  0
    4.2420    2.0878   -5.3700 H   0  0  0  0  0  0  0  0  0  0  0  0
    5.0372    0.5755   -4.8690 H   0  0  0  0  0  0  0  0  0  0  0  0
    4.3352    0.7180   -6.4946 H   0  0  0  0  0  0  0  0  0  0  0  0
  1  2  2  0  0  0  0
  1  3  1  0  0  0  0
  1  7  1  0  0  0  0
  3  4  1  0  0  0  0
  3  5  1  0  0  0  0
  3  6  1  0  0  0  0
  7  8  1  0  0  0  0
  7 12  1  0  0  0  0
  8  9  1  0  0  0  0
  8 11  1  0  0  0  0
  8 13  1  0  0  0  0
  9 10  2  0  0  0  0
  9 17  1  0  0  0  0
 11 14  1  0  0  0  0
 11 15  1  0  0  0  0
 11 16  1  0  0  0  0
 17 18  1  0  0  0  0
 17 22  1  0  0  0  0
 18 19  1  0  0  0  0
 18 21  1  0  0  0  0
 18 23  1  0  0  0  0
 19 20  2  0  0  0  0
 19 27  1  0  0  0  0
 21 24  1  0  0  0  0
 21 25  1  0  0  0  0
 21 26  1  0  0  0  0
 27 28  1  0  0  0  0
 27 32  1  0  0  0  0
 28 29  1  0  0  0  0
 28 31  1  0  0  0  0
 28 33  1  0  0  0  0
 29 30  2  0  0  0  0
 29 37  1  0  0  0  0
 31 34  1  0  0  0  0
 31 35  1  0  0  0  0
 31 36  1  0  0  0  0
 37 38  1  0  0  0  0
 37 39  1  0  0  0  0
 38 40  1  0  0  0  0
 38 41  1  0  0  0  0
 38 42  1  0  0  0  0
M  END
$$$$

  -OEChem-05262215353D

 42 41  0     1  0  0  0  0  0999 V2000
   -5.5769   -0.9926    1.8825 C   0  0  0  0  0  0  0  0  0  0  0  0
   -5.9846    0.0406    1.3747 O   0  0  0  0  0  0  0  0  0  0  0  0
   -6.5164   -2.1671    2.0807 C   0  0  0  0  0  0  0  0  0  0  0  0
   -6.5599   -2.4352    3.1391 H   0  0  0  0  0  0  0  0  0  0  0  0
   -7.5231   -1.9075    1.7408 H   0  0  0  0  0  0  0  0  0  0  0  0
   -6.1620   -3.0275    1.5079 H   0  0  0  0  0  0  0  0  0  0  0  0
   -4.2586   -1.0980    2.2711 N   0  0  0  0  0  0  0  0  0  0  0  0
   -3.2232   -0.1007    1.9735 C   0  0  2  0  0  0  0  0  0  0  0  0
   -1.8306   -0.7536    1.8298 C   0  0  0  0  0  0  0  0  0  0  0  0
   -1.6544   -1.8690    2.3054 O   0  0  0  0  0  0  0  0  0  0  0  0
   -3.2175    0.9414    3.0963 C   0  0  0  0  0  0  0  0  0  0  0  0
   -3.9322   -2.0122    2.5840 H   0  0  0  0  0  0  0  0  0  0  0  0
   -3.4541    0.3917    1.0224 H   0  0  0  0  0  0  0  0  0  0  0  0
   -2.9966    0.4659    4.0572 H   0  0  0  0  0  0  0  0  0  0  0  0
   -2.4631    1.7099    2.9053 H   0  0  0  0  0  0  0  0  0  0  0  0
   -4.1951    1.4288    3.1659 H   0  0  0  0  0  0  0  0  0  0  0  0
   -0.8259   -0.0511    1.1773 N   0  0  0  0  0  0  0  0  0  0  0  0
    0.4789   -0.5489    0.6802 C   0  0  2  0  0  0  0  0  0  0  0  0
    0.4698   -0.7006   -0.8566 C   0  0  0  0  0  0  0  0  0  0  0  0
   -0.4060   -1.3437   -1.4200 O   0  0  0  0  0  0  0  0  0  0  0  0
    1.0224   -1.8324    1.3249 C   0  0  0  0  0  0  0  0  0  0  0  0
   -1.1481    0.8191    0.7635 H   0  0  0  0  0  0  0  0  0  0  0  0
    1.2067    0.2314    0.9201 H   0  0  0  0  0  0  0  0  0  0  0  0
    0.4109   -2.6971    1.0471 H   0  0  0  0  0  0  0  0  0  0  0  0
    2.0462   -2.0206    0.9879 H   0  0  0  0  0  0  0  0  0  0  0  0
    1.0298   -1.7389    2.4152 H   0  0  0  0  0  0  0  0  0  0  0  0
    1.3675    0.0121   -1.6291 N   0  0  0  0  0  0  0  0  0  0  0  0
    1.4759   -0.1027   -3.0893 C   0  0  2  0  0  0  0  0  0  0  0  0
    2.9285    0.1159   -3.5620 C   0  0  0  0  0  0  0  0  0  0  0  0
    3.7624    0.5718   -2.7862 O   0  0  0  0  0  0  0  0  0  0  0  0
    0.5374    0.9267   -3.7265 C   0  0  0  0  0  0  0  0  0  0  0  0
    2.1571    0.4483   -1.1532 H   0  0  0  0  0  0  0  0  0  0  0  0
    1.1782   -1.1086   -3.4049 H   0  0  0  0  0  0  0  0  0  0  0  0
    0.8308    1.9417   -3.4398 H   0  0  0  0  0  0  0  0  0  0  0  0
    0.5661    0.8493   -4.8173 H   0  0  0  0  0  0  0  0  0  0  0  0
   -0.4925    0.7552   -3.3970 H   0  0  0  0  0  0  0  0  0  0  0  0
    3.3082   -0.2179   -4.8491 N   0  0  0  0  0  0  0  0  0  0  0  0
    4.6728   -0.0771   -5.3437 C   0  0  0  0  0  0  0  0  0  0  0  0
    2.6026   -0.6192   -5.4602 H   0  0  0  0  0  0  0  0  0  0  0  0
    4.9885    0.9708   -5.3058 H   0  0  0  0  0  0  0  0  0  0  0  0
    5.3635   -0.6753   -4.7401 H   0  0  0  0  0  0  0  0  0  0  0  0
    4.7371   -0.4192   -6.3811 H   0  0  0  0  0  0  0  0  0  0  0  0
  1  2  2  0  0  0  0
  1  3  1  0  0  0  0
  1  7  1  0  0  0  0
  3  4  1  0  0  0  0
  3  5  1  0  0  0  0
  3  6  1  0  0  0  0
  7  8  1  0  0  0  0
  7 12  1  0  0  0  0
  8  9  1  0  0  0  0
  8 11  1  0  0  0  0
  8 13  1  0  0  0  0
  9 10  2  0  0  0  0
  9 17  1  0  0  0  0
 11 14  1  0  0  0  0
 11 15  1  0  0  0  0
 11 16  1  0  0  0  0
 17 18  1  0  0  0  0
 17 22  1  0  0  0  0
 18 19  1  0  0  0  0
 18 21  1  0  0  0  0
 18 23  1  0  0  0  0
 19 20  2  0  0  0  0
 19 27  1  0  0  0  0
 21 24  1  0  0  0  0
 21 25  1  0  0  0  0
 21 26  1  0  0  0  0
 27 28  1  0  0  0  0
 27 32  1  0  0  0  0
 28 29  1  0  0  0  0
 28 31  1  0  0  0  0
 28 33  1  0  0  0  0
 29 30  2  0  0  0  0
 29 37  1  0  0  0  0
 31 34  1  0  0  0  0
 31 35  1  0  0  0  0
 31 36  1  0  0  0  0
 37 38  1  0  0  0  0
 37 39  1  0  0  0  0
 38 40  1  0  0  0  0
 38 41  1  0  0  0  0
 38 42  1  0  0  0  0
M  END
$$$$

  -OEChem-05262215353D

 42 41  0     1  0  0  0  0  0999 V2000
   -5.5681   -1.0237    1.8862 C   0  0  0  0  0  0  0  0  0  0  0  0
   -5.9844   -0.0166    1.3349 O   0  0  0  0  0  0  0  0  0  0  0  0
   -6.5020   -2.1906    2.1451 C   0  0  0  0  0  0  0  0  0  0  0  0
   -6.5276   -2.4180    3.2136 H   0  0  0  0  0  0  0  0  0  0  0  0
   -7.5142   -1.9439    1.8129 H   0  0  0  0  0  0  0  0  0  0  0  0
   -6.1567   -3.0723    1.5997 H   0  0  0  0  0  0  0  0  0  0  0  0
   -4.2473   -1.1049    2.2717 N   0  0  0  0  0  0  0  0  0  0  0  0
   -3.2204   -0.1133    1.9285 C   0  0  2  0  0  0  0  0  0  0  0  0
   -1.8173   -0.7523    1.8418 C   0  0  0  0  0  0  0  0  0  0  0  0
   -1.6415   -1.8584    2.3400 O   0  0  0  0  0  0  0  0  0  0  0  0
   -3.2425    0.9978    2.9831 C   0  0  0  0  0  0  0  0  0  0  0  0
   -3.9127   -2.0031    2.6201 H   0  0  0  0  0  0  0  0  0  0  0  0
   -3.4438    0.3157    0.9456 H   0  0  0  0  0  0  0  0  0  0  0  0
   -3.0242    0.5875    3.9742 H   0  0  0  0  0  0  0  0  0  0  0  0
   -2.4980    1.7651    2.7512 H   0  0  0  0  0  0  0  0  0  0  0  0
   -4.2282    1.4730    3.0118 H   0  0  0  0  0  0  0  0  0  0  0  0
   -0.8058   -0.0494    1.2018 N   0  0  0  0  0  0  0  0  0  0  0  0
    0.4983   -0.5539    0.7113 C   0  0  2  0  0  0  0  0  0  0  0  0
    0.4985   -0.6959   -0.8269 C   0  0  0  0  0  0  0  0  0  0  0  0
   -0.5096   -1.0543   -1.4229 O   0  0  0  0  0  0  0  0  0  0  0  0
    1.0277   -1.8459    1.3497 C   0  0  0  0  0  0  0  0  0  0  0  0
   -1.1393    0.7949    0.7448 H   0  0  0  0  0  0  0  0  0  0  0  0
    1.2286    0.2220    0.9585 H   0  0  0  0  0  0  0  0  0  0  0  0
    0.4143   -2.7038    1.0555 H   0  0  0  0  0  0  0  0  0  0  0  0
    2.0553   -2.0356    1.0257 H   0  0  0  0  0  0  0  0  0  0  0  0
    1.0222   -1.7642    2.4409 H   0  0  0  0  0  0  0  0  0  0  0  0
    1.5760   -0.2469   -1.5667 N   0  0  0  0  0  0  0  0  0  0  0  0
    1.6920   -0.3867   -3.0241 C   0  0  2  0  0  0  0  0  0  0  0  0
    3.1597   -0.5978   -3.4497 C   0  0  0  0  0  0  0  0  0  0  0  0
    4.0655   -0.3790   -2.6518 O   0  0  0  0  0  0  0  0  0  0  0  0
    1.1128    0.8707   -3.6802 C   0  0  0  0  0  0  0  0  0  0  0  0
    2.4420   -0.0492   -1.0651 H   0  0  0  0  0  0  0  0  0  0  0  0
    1.1257   -1.2626   -3.3591 H   0  0  0  0  0  0  0  0  0  0  0  0
    1.6735    1.7583   -3.3700 H   0  0  0  0  0  0  0  0  0  0  0  0
    1.1596    0.7916   -4.7704 H   0  0  0  0  0  0  0  0  0  0  0  0
    0.0653    1.0013   -3.3900 H   0  0  0  0  0  0  0  0  0  0  0  0
    3.4659   -1.0513   -4.7192 N   0  0  0  0  0  0  0  0  0  0  0  0
    4.8289   -1.3006   -5.1725 C   0  0  0  0  0  0  0  0  0  0  0  0
    2.6932   -1.2538   -5.3472 H   0  0  0  0  0  0  0  0  0  0  0  0
    5.4258   -0.3842   -5.1160 H   0  0  0  0  0  0  0  0  0  0  0  0
    5.3042   -2.0692   -4.5540 H   0  0  0  0  0  0  0  0  0  0  0  0
    4.8243   -1.6459   -6.2107 H   0  0  0  0  0  0  0  0  0  0  0  0
  1  2  2  0  0  0  0
  1  3  1  0  0  0  0
  1  7  1  0  0  0  0
  3  4  1  0  0  0  0
  3  5  1  0  0  0  0
  3  6  1  0  0  0  0
  7  8  1  0  0  0  0
  7 12  1  0  0  0  0
  8  9  1  0  0  0  0
  8 11  1  0  0  0  0
  8 13  1  0  0  0  0
  9 10  2  0  0  0  0
  9 17  1  0  0  0  0
 11 14  1  0  0  0  0
 11 15  1  0  0  0  0
 11 16  1  0  0  0  0
 17 18  1  0  0  0  0
 17 22  1  0  0  0  0
 18 19  1  0  0  0  0
 18 21  1  0  0  0  0
 18 23  1  0  0  0  0
 19 20  2  0  0  0  0
 19 27  1  0  0  0  0
 21 24  1  0  0  0  0
 21 25  1  0  0  0  0
 21 26  1  0  0  0  0
 27 28  1  0  0  0  0
 27 32  1  0  0  0  0
 28 29  1  0  0  0  0
 28 31  1  0  0  0  0
 28 33  1  0  0  0  0
 29 30  2  0  0  0  0
 29 37  1  0  0  0  0
 31 34  1  0  0  0  0
 31 35  1  0  0  0  0
 31 36  1  0  0  0  0
 37 38  1  0  0  0  0
 37 39  1  0  0  0  0
 38 40  1  0  0  0  0
 38 41  1  0  0  0  0
 38 42  1  0  0  0  0
M  END
$$$$

  -OEChem-05262215353D

 42 41  0     1  0  0  0  0  0999 V2000
   -5.5609   -1.0257    1.8934 C   0  0  0  0  0  0  0  0  0  0  0  0
   -5.9817   -0.0248    1.3345 O   0  0  0  0  0  0  0  0  0  0  0  0
   -6.4878   -2.1979    2.1545 C   0  0  0  0  0  0  0  0  0  0  0  0
   -6.5428   -2.3987    3.2271 H   0  0  0  0  0  0  0  0  0  0  0  0
   -7.4925   -1.9733    1.7857 H   0  0  0  0  0  0  0  0  0  0  0  0
   -6.1156   -3.0886    1.6424 H   0  0  0  0  0  0  0  0  0  0  0  0
   -4.2413   -1.0966    2.2851 N   0  0  0  0  0  0  0  0  0  0  0  0
   -3.2179   -0.1030    1.9379 C   0  0  2  0  0  0  0  0  0  0  0  0
   -1.8136   -0.7402    1.8491 C   0  0  0  0  0  0  0  0  0  0  0  0
   -1.6347   -1.8456    2.3478 O   0  0  0  0  0  0  0  0  0  0  0  0
   -3.2401    1.0075    2.9938 C   0  0  0  0  0  0  0  0  0  0  0  0
   -3.9037   -1.9902    2.6417 H   0  0  0  0  0  0  0  0  0  0  0  0
   -3.4453    0.3260    0.9558 H   0  0  0  0  0  0  0  0  0  0  0  0
   -3.0131    0.5978    3.9833 H   0  0  0  0  0  0  0  0  0  0  0  0
   -2.5015    1.7795    2.7577 H   0  0  0  0  0  0  0  0  0  0  0  0
   -4.2283    1.4773    3.0296 H   0  0  0  0  0  0  0  0  0  0  0  0
   -0.8022   -0.0377    1.2092 N   0  0  0  0  0  0  0  0  0  0  0  0
    0.5019   -0.5411    0.7170 C   0  0  2  0  0  0  0  0  0  0  0  0
    0.5075   -0.6834   -0.8217 C   0  0  0  0  0  0  0  0  0  0  0  0
   -0.5415   -0.7716   -1.4490 O   0  0  0  0  0  0  0  0  0  0  0  0
    1.0321   -1.8323    1.3587 C   0  0  0  0  0  0  0  0  0  0  0  0
   -1.1436    0.7910    0.7294 H   0  0  0  0  0  0  0  0  0  0  0  0
    1.2319    0.2365    0.9609 H   0  0  0  0  0  0  0  0  0  0  0  0
    0.4185   -2.6915    1.0687 H   0  0  0  0  0  0  0  0  0  0  0  0
    2.0595   -2.0247    1.0354 H   0  0  0  0  0  0  0  0  0  0  0  0
    1.0280   -1.7464    2.4496 H   0  0  0  0  0  0  0  0  0  0  0  0
    1.6864   -0.5274   -1.5254 N   0  0  0  0  0  0  0  0  0  0  0  0
    1.8178   -0.7374   -2.9731 C   0  0  2  0  0  0  0  0  0  0  0  0
    3.1911   -1.3478   -3.3218 C   0  0  0  0  0  0  0  0  0  0  0  0
    4.0855   -1.3611   -2.4822 O   0  0  0  0  0  0  0  0  0  0  0  0
    1.6257    0.6072   -3.6809 C   0  0  0  0  0  0  0  0  0  0  0  0
    2.5546   -0.5524   -0.9904 H   0  0  0  0  0  0  0  0  0  0  0  0
    1.0511   -1.4395   -3.3181 H   0  0  0  0  0  0  0  0  0  0  0  0
    2.3987    1.3178   -3.3713 H   0  0  0  0  0  0  0  0  0  0  0  0
    1.6821    0.4812   -4.7661 H   0  0  0  0  0  0  0  0  0  0  0  0
    0.6459    1.0284   -3.4344 H   0  0  0  0  0  0  0  0  0  0  0  0
    3.4202   -1.8991   -4.5688 N   0  0  0  0  0  0  0  0  0  0  0  0
    4.6862   -2.5114   -4.9532 C   0  0  0  0  0  0  0  0  0  0  0  0
    2.6541   -1.8923   -5.2360 H   0  0  0  0  0  0  0  0  0  0  0  0
    5.4901   -1.7678   -4.9414 H   0  0  0  0  0  0  0  0  0  0  0  0
    4.9459   -3.3226   -4.2645 H   0  0  0  0  0  0  0  0  0  0  0  0
    4.6137   -2.9273   -5.9628 H   0  0  0  0  0  0  0  0  0  0  0  0
  1  2  2  0  0  0  0
  1  3  1  0  0  0  0
  1  7  1  0  0  0  0
  3  4  1  0  0  0  0
  3  5  1  0  0  0  0
  3  6  1  0  0  0  0
  7  8  1  0  0  0  0
  7 12  1  0  0  0  0
  8  9  1  0  0  0  0
  8 11  1  0  0  0  0
  8 13  1  0  0  0  0
  9 10  2  0  0  0  0
  9 17  1  0  0  0  0
 11 14  1  0  0  0  0
 11 15  1  0  0  0  0
 11 16  1  0  0  0  0
 17 18  1  0  0  0  0
 17 22  1  0  0  0  0
 18 19  1  0  0  0  0
 18 21  1  0  0  0  0
 18 23  1  0  0  0  0
 19 20  2  0  0  0  0
 19 27  1  0  0  0  0
 21 24  1  0  0  0  0
 21 25  1  0  0  0  0
 21 26  1  0  0  0  0
 27 28  1  0  0  0  0
 27 32  1  0  0  0  0
 28 29  1  0  0  0  0
 28 31  1  0  0  0  0
 28 33  1  0  0  0  0
 29 30  2  0  0  0  0
 29 37  1  0  0  0  0
 31 34  1  0  0  0  0
 31 35  1  0  0  0  0
 31 36  1  0  0  0  0
 37 38  1  0  0  0  0
 37 39  1  0  0  0  0
 38 40  1  0  0  0  0
 38 41  1  0  0  0  0
 38 42  1  0  0  0  0
M  END
$$$$

  -OEChem-05262215353D

 42 41  0     1  0  0  0  0  0999 V2000
   -5.5208   -0.9811    1.8321 C   0  0  0  0  0  0  0  0  0  0  0  0
   -5.9270    0.0623    1.3448 O   0  0  0  0  0  0  0  0  0  0  0  0
   -6.4425   -2.1814    1.9385 C   0  0  0  0  0  0  0  0  0  0  0  0
   -6.4786   -2.5343    2.9719 H   0  0  0  0  0  0  0  0  0  0  0  0
   -7.4540   -1.9105    1.6228 H   0  0  0  0  0  0  0  0  0  0  0  0
   -6.0770   -2.9880    1.2981 H   0  0  0  0  0  0  0  0  0  0  0  0
   -4.2182   -1.0798    2.2719 N   0  0  0  0  0  0  0  0  0  0  0  0
   -3.1863   -0.0619    2.0404 C   0  0  2  0  0  0  0  0  0  0  0  0
   -1.7896   -0.6980    1.8727 C   0  0  0  0  0  0  0  0  0  0  0  0
   -1.5934   -1.8152    2.3371 O   0  0  0  0  0  0  0  0  0  0  0  0
   -3.1927    0.9111    3.2227 C   0  0  0  0  0  0  0  0  0  0  0  0
   -3.8917   -1.9986    2.5697 H   0  0  0  0  0  0  0  0  0  0  0  0
   -3.4110    0.4852    1.1185 H   0  0  0  0  0  0  0  0  0  0  0  0
   -2.9648    0.3817    4.1535 H   0  0  0  0  0  0  0  0  0  0  0  0
   -2.4465    1.6979    3.0773 H   0  0  0  0  0  0  0  0  0  0  0  0
   -4.1762    1.3819    3.3208 H   0  0  0  0  0  0  0  0  0  0  0  0
   -0.8098    0.0096    1.1910 N   0  0  0  0  0  0  0  0  0  0  0  0
    0.5072   -0.4658    0.7049 C   0  0  2  0  0  0  0  0  0  0  0  0
    0.5085   -0.6772   -0.8269 C   0  0  0  0  0  0  0  0  0  0  0  0
   -0.5260   -0.5736   -1.4763 O   0  0  0  0  0  0  0  0  0  0  0  0
    1.0967   -1.6947    1.4156 C   0  0  0  0  0  0  0  0  0  0  0  0
   -1.1739    0.8246    0.7032 H   0  0  0  0  0  0  0  0  0  0  0  0
    1.2072    0.3522    0.8994 H   0  0  0  0  0  0  0  0  0  0  0  0
    0.5317   -2.5980    1.1646 H   0  0  0  0  0  0  0  0  0  0  0  0
    2.1369   -1.8501    1.1139 H   0  0  0  0  0  0  0  0  0  0  0  0
    1.0746   -1.5543    2.5007 H   0  0  0  0  0  0  0  0  0  0  0  0
    1.7032   -0.8168   -1.5068 N   0  0  0  0  0  0  0  0  0  0  0  0
    1.8048   -1.1554   -2.9321 C   0  0  2  0  0  0  0  0  0  0  0  0
    3.0147   -2.0767   -3.1956 C   0  0  0  0  0  0  0  0  0  0  0  0
    3.8624   -2.2359   -2.3231 O   0  0  0  0  0  0  0  0  0  0  0  0
    1.9208    0.1451   -3.7326 C   0  0  0  0  0  0  0  0  0  0  0  0
    2.5329   -1.0097   -0.9453 H   0  0  0  0  0  0  0  0  0  0  0  0
    0.9077   -1.6965   -3.2519 H   0  0  0  0  0  0  0  0  0  0  0  0
    2.8195    0.6973   -3.4396 H   0  0  0  0  0  0  0  0  0  0  0  0
    1.9746   -0.0664   -4.8046 H   0  0  0  0  0  0  0  0  0  0  0  0
    1.0474    0.7796   -3.5507 H   0  0  0  0  0  0  0  0  0  0  0  0
    3.1439   -2.7493   -4.3969 N   0  0  0  0  0  0  0  0  0  0  0  0
    4.2352   -3.6744   -4.6801 C   0  0  0  0  0  0  0  0  0  0  0  0
    2.4035   -2.6361   -5.0834 H   0  0  0  0  0  0  0  0  0  0  0  0
    5.2027   -3.1813   -4.5382 H   0  0  0  0  0  0  0  0  0  0  0  0
    4.1827   -4.5435   -4.0158 H   0  0  0  0  0  0  0  0  0  0  0  0
    4.1770   -4.0248   -5.7151 H   0  0  0  0  0  0  0  0  0  0  0  0
  1  2  2  0  0  0  0
  1  3  1  0  0  0  0
  1  7  1  0  0  0  0
  3  4  1  0  0  0  0
  3  5  1  0  0  0  0
  3  6  1  0  0  0  0
  7  8  1  0  0  0  0
  7 12  1  0  0  0  0
  8  9  1  0  0  0  0
  8 11  1  0  0  0  0
  8 13  1  0  0  0  0
  9 10  2  0  0  0  0
  9 17  1  0  0  0  0
 11 14  1  0  0  0  0
 11 15  1  0  0  0  0
 11 16  1  0  0  0  0
 17 18  1  0  0  0  0
 17 22  1  0  0  0  0
 18 19  1  0  0  0  0
 18 21  1  0  0  0  0
 18 23  1  0  0  0  0
 19 20  2  0  0  0  0
 19 27  1  0  0  0  0
 21 24  1  0  0  0  0
 21 25  1  0  0  0  0
 21 26  1  0  0  0  0
 27 28  1  0  0  0  0
 27 32  1  0  0  0  0
 28 29  1  0  0  0  0
 28 31  1  0  0  0  0
 28 33  1  0  0  0  0
 29 30  2  0  0  0  0
 29 37  1  0  0  0  0
 31 34  1  0  0  0  0
 31 35  1  0  0  0  0
 31 36  1  0  0  0  0
 37 38  1  0  0  0  0
 37 39  1  0  0  0  0
 38 40  1  0  0  0  0
 38 41  1  0  0  0  0
 38 42  1  0  0  0  0
M  END
$$$$

  -OEChem-05262215353D

 42 41  0     1  0  0  0  0  0999 V2000
   -5.5209   -1.0671    1.8580 C   0  0  0  0  0  0  0  0  0  0  0  0
   -5.9246   -0.1668    1.1390 O   0  0  0  0  0  0  0  0  0  0  0  0
   -6.4420   -2.2124    2.2343 C   0  0  0  0  0  0  0  0  0  0  0  0
   -6.5257   -2.2817    3.3216 H   0  0  0  0  0  0  0  0  0  0  0  0
   -7.4381   -2.0495    1.8135 H   0  0  0  0  0  0  0  0  0  0  0  0
   -6.0449   -3.1532    1.8456 H   0  0  0  0  0  0  0  0  0  0  0  0
   -4.2239   -1.0529    2.3243 N   0  0  0  0  0  0  0  0  0  0  0  0
   -3.1938   -0.1007    1.8886 C   0  0  2  0  0  0  0  0  0  0  0  0
   -1.7868   -0.7391    1.9058 C   0  0  0  0  0  0  0  0  0  0  0  0
   -1.6300   -1.8034    2.4935 O   0  0  0  0  0  0  0  0  0  0  0  0
   -3.2486    1.1246    2.8074 C   0  0  0  0  0  0  0  0  0  0  0  0
   -3.8947   -1.8826    2.8172 H   0  0  0  0  0  0  0  0  0  0  0  0
   -3.3948    0.2125    0.8580 H   0  0  0  0  0  0  0  0  0  0  0  0
   -3.0450    0.8363    3.8438 H   0  0  0  0  0  0  0  0  0  0  0  0
   -2.5090    1.8703    2.5007 H   0  0  0  0  0  0  0  0  0  0  0  0
   -4.2402    1.5863    2.7625 H   0  0  0  0  0  0  0  0  0  0  0  0
   -0.7465   -0.0870    1.2594 N   0  0  0  0  0  0  0  0  0  0  0  0
    0.5607   -0.6176    0.8027 C   0  0  2  0  0  0  0  0  0  0  0  0
    0.6877   -0.4375   -0.7300 C   0  0  0  0  0  0  0  0  0  0  0  0
   -0.1640    0.1959   -1.3461 O   0  0  0  0  0  0  0  0  0  0  0  0
    0.8721   -2.0777    1.1796 C   0  0  0  0  0  0  0  0  0  0  0  0
   -1.0652    0.7115    0.7106 H   0  0  0  0  0  0  0  0  0  0  0  0
    1.3380    0.0001    1.2623 H   0  0  0  0  0  0  0  0  0  0  0  0
    0.1348   -2.7562    0.7383 H   0  0  0  0  0  0  0  0  0  0  0  0
    1.8647   -2.3707    0.8257 H   0  0  0  0  0  0  0  0  0  0  0  0
    0.8625   -2.2011    2.2667 H   0  0  0  0  0  0  0  0  0  0  0  0
    1.8191   -0.8541   -1.4057 N   0  0  0  0  0  0  0  0  0  0  0  0
    1.9742   -0.8178   -2.8656 C   0  0  2  0  0  0  0  0  0  0  0  0
    2.7919   -2.0258   -3.3700 C   0  0  0  0  0  0  0  0  0  0  0  0
    3.3838   -2.7414   -2.5686 O   0  0  0  0  0  0  0  0  0  0  0  0
    2.6606    0.4977   -3.2446 C   0  0  0  0  0  0  0  0  0  0  0  0
    2.4546   -1.4755   -0.9050 H   0  0  0  0  0  0  0  0  0  0  0  0
    0.9912   -0.8648   -3.3466 H   0  0  0  0  0  0  0  0  0  0  0  0
    3.6563    0.5535   -2.7931 H   0  0  0  0  0  0  0  0  0  0  0  0
    2.7644    0.5787   -4.3306 H   0  0  0  0  0  0  0  0  0  0  0  0
    2.0697    1.3489   -2.8916 H   0  0  0  0  0  0  0  0  0  0  0  0
    2.8586   -2.3178   -4.7198 N   0  0  0  0  0  0  0  0  0  0  0  0
    3.6052   -3.4484   -5.2576 C   0  0  0  0  0  0  0  0  0  0  0  0
    2.3426   -1.7194   -5.3585 H   0  0  0  0  0  0  0  0  0  0  0  0
    4.6616   -3.3777   -4.9782 H   0  0  0  0  0  0  0  0  0  0  0  0
    3.2014   -4.3913   -4.8744 H   0  0  0  0  0  0  0  0  0  0  0  0
    3.5379   -3.4618   -6.3497 H   0  0  0  0  0  0  0  0  0  0  0  0
  1  2  2  0  0  0  0
  1  3  1  0  0  0  0
  1  7  1  0  0  0  0
  3  4  1  0  0  0  0
  3  5  1  0  0  0  0
  3  6  1  0  0  0  0
  7  8  1  0  0  0  0
  7 12  1  0  0  0  0
  8  9  1  0  0  0  0
  8 11  1  0  0  0  0
  8 13  1  0  0  0  0
  9 10  2  0  0  0  0
  9 17  1  0  0  0  0
 11 14  1  0  0  0  0
 11 15  1  0  0  0  0
 11 16  1  0  0  0  0
 17 18  1  0  0  0  0
 17 22  1  0  0  0  0
 18 19  1  0  0  0  0
 18 21  1  0  0  0  0
 18 23  1  0  0  0  0
 19 20  2  0  0  0  0
 19 27  1  0  0  0  0
 21 24  1  0  0  0  0
 21 25  1  0  0  0  0
 21 26  1  0  0  0  0
 27 28  1  0  0  0  0
 27 32  1  0  0  0  0
 28 29  1  0  0  0  0
 28 31  1  0  0  0  0
 28 33  1  0  0  0  0
 29 30  2  0  0  0  0
 29 37  1  0  0  0  0
 31 34  1  0  0  0  0
 31 35  1  0  0  0  0
 31 36  1  0  0  0  0
 37 38  1  0  0  0  0
 37 39  1  0  0  0  0
 38 40  1  0  0  0  0
 38 41  1  0  0  0  0
 38 42  1  0  0  0  0
M  END
$$$$

  -OEChem-05262215353D

 42 41  0     1  0  0  0  0  0999 V2000
   -5.4799   -0.9864    1.7665 C   0  0  0  0  0  0  0  0  0  0  0  0
   -5.8507    0.0140    1.1732 O   0  0  0  0  0  0  0  0  0  0  0  0
   -6.4247   -2.1599    1.9424 C   0  0  0  0  0  0  0  0  0  0  0  0
   -6.4948   -2.4293    2.9989 H   0  0  0  0  0  0  0  0  0  0  0  0
   -7.4223   -1.8980    1.5794 H   0  0  0  0  0  0  0  0  0  0  0  0
   -6.0581   -3.0200    1.3770 H   0  0  0  0  0  0  0  0  0  0  0  0
   -4.1955   -1.0619    2.2611 N   0  0  0  0  0  0  0  0  0  0  0  0
   -3.1425   -0.0745    1.9916 C   0  0  2  0  0  0  0  0  0  0  0  0
   -1.7507   -0.7386    1.9141 C   0  0  0  0  0  0  0  0  0  0  0  0
   -1.5944   -1.8368    2.4351 O   0  0  0  0  0  0  0  0  0  0  0  0
   -3.1724    0.9809    3.1006 C   0  0  0  0  0  0  0  0  0  0  0  0
   -3.8928   -1.9556    2.6471 H   0  0  0  0  0  0  0  0  0  0  0  0
   -3.3297    0.4107    1.0272 H   0  0  0  0  0  0  0  0  0  0  0  0
   -2.9855    0.5173    4.0746 H   0  0  0  0  0  0  0  0  0  0  0  0
   -2.4088    1.7448    2.9248 H   0  0  0  0  0  0  0  0  0  0  0  0
   -4.1505    1.4717    3.1300 H   0  0  0  0  0  0  0  0  0  0  0  0
   -0.7316   -0.0786    1.2436 N   0  0  0  0  0  0  0  0  0  0  0  0
    0.5933   -0.5711    0.7983 C   0  0  2  0  0  0  0  0  0  0  0  0
    0.6963   -0.4312   -0.7404 C   0  0  0  0  0  0  0  0  0  0  0  0
   -0.0722    0.3176   -1.3360 O   0  0  0  0  0  0  0  0  0  0  0  0
    0.9791   -1.9943    1.2453 C   0  0  0  0  0  0  0  0  0  0  0  0
   -1.0546    0.7380    0.7245 H   0  0  0  0  0  0  0  0  0  0  0  0
    1.3444    0.0998    1.2255 H   0  0  0  0  0  0  0  0  0  0  0  0
    0.2996   -2.7342    0.8096 H   0  0  0  0  0  0  0  0  0  0  0  0
    1.9998   -2.2380    0.9362 H   0  0  0  0  0  0  0  0  0  0  0  0
    0.9401   -2.0763    2.3360 H   0  0  0  0  0  0  0  0  0  0  0  0
    1.6784   -1.0814   -1.4625 N   0  0  0  0  0  0  0  0  0  0  0  0
    1.7070   -1.1662   -2.9275 C   0  0  2  0  0  0  0  0  0  0  0  0
    2.2714   -2.5267   -3.3887 C   0  0  0  0  0  0  0  0  0  0  0  0
    2.8203   -3.2674   -2.5792 O   0  0  0  0  0  0  0  0  0  0  0  0
    2.5560   -0.0105   -3.4645 C   0  0  0  0  0  0  0  0  0  0  0  0
    2.2184   -1.7914   -0.9676 H   0  0  0  0  0  0  0  0  0  0  0  0
    0.6901   -1.0827   -3.3259 H   0  0  0  0  0  0  0  0  0  0  0  0
    3.5812   -0.0802   -3.0867 H   0  0  0  0  0  0  0  0  0  0  0  0
    2.5845   -0.0302   -4.5581 H   0  0  0  0  0  0  0  0  0  0  0  0
    2.1325    0.9484   -3.1483 H   0  0  0  0  0  0  0  0  0  0  0  0
    2.1424   -2.9360   -4.7030 N   0  0  0  0  0  0  0  0  0  0  0  0
    2.6084   -4.2309   -5.1854 C   0  0  0  0  0  0  0  0  0  0  0  0
    1.6487   -2.3203   -5.3428 H   0  0  0  0  0  0  0  0  0  0  0  0
    3.6778   -4.3543   -4.9834 H   0  0  0  0  0  0  0  0  0  0  0  0
    2.0613   -5.0424   -4.6937 H   0  0  0  0  0  0  0  0  0  0  0  0
    2.4510   -4.3116   -6.2653 H   0  0  0  0  0  0  0  0  0  0  0  0
  1  2  2  0  0  0  0
  1  3  1  0  0  0  0
  1  7  1  0  0  0  0
  3  4  1  0  0  0  0
  3  5  1  0  0  0  0
  3  6  1  0  0  0  0
  7  8  1  0  0  0  0
  7 12  1  0  0  0  0
  8  9  1  0  0  0  0
  8 11  1  0  0  0  0
  8 13  1  0  0  0  0
  9 10  2  0  0  0  0
  9 17  1  0  0  0  0
 11 14  1  0  0  0  0
 11 15  1  0  0  0  0
 11 16  1  0  0  0  0
 17 18  1  0  0  0  0
 17 22  1  0  0  0  0
 18 19  1  0  0  0  0
 18 21  1  0  0  0  0
 18 23  1  0  0  0  0
 19 20  2  0  0  0  0
 19 27  1  0  0  0  0
 21 24  1  0  0  0  0
 21 25  1  0  0  0  0
 21 26  1  0  0  0  0
 27 28  1  0  0  0  0
 27 32  1  0  0  0  0
 28 29  1  0  0  0  0
 28 31  1  0  0  0  0
 28 33  1  0  0  0  0
 29 30  2  0  0  0  0
 29 37  1  0  0  0  0
 31 34  1  0  0  0  0
 31 35  1  0  0  0  0
 31 36  1  0  0  0  0
 37 38  1  0  0  0  0
 37 39  1  0  0  0  0
 38 40  1  0  0  0  0
 38 41  1  0  0  0  0
 38 42  1  0  0  0  0
M  END
$$$$

  -OEChem-05262215353D

 42 41  0     1  0  0  0  0  0999 V2000
   -5.5269   -1.0086    1.8738 C   0  0  0  0  0  0  0  0  0  0  0  0
   -5.9091   -0.0760    1.1848 O   0  0  0  0  0  0  0  0  0  0  0  0
   -6.4739   -2.1452    2.2095 C   0  0  0  0  0  0  0  0  0  0  0  0
   -6.6052   -2.2139    3.2922 H   0  0  0  0  0  0  0  0  0  0  0  0
   -7.4495   -1.9724    1.7464 H   0  0  0  0  0  0  0  0  0  0  0  0
   -6.0690   -3.0897    1.8373 H   0  0  0  0  0  0  0  0  0  0  0  0
   -4.2305   -1.0393    2.3409 N   0  0  0  0  0  0  0  0  0  0  0  0
   -3.1796   -0.0974    1.9339 C   0  0  2  0  0  0  0  0  0  0  0  0
   -1.7955   -0.7810    1.8786 C   0  0  0  0  0  0  0  0  0  0  0  0
   -1.6563   -1.8745    2.4141 O   0  0  0  0  0  0  0  0  0  0  0  0
   -3.1696    1.0692    2.9258 C   0  0  0  0  0  0  0  0  0  0  0  0
   -3.9188   -1.8967    2.7963 H   0  0  0  0  0  0  0  0  0  0  0  0
   -3.3946    0.2852    0.9300 H   0  0  0  0  0  0  0  0  0  0  0  0
   -2.9541    0.7097    3.9371 H   0  0  0  0  0  0  0  0  0  0  0  0
   -2.4094    1.8051    2.6472 H   0  0  0  0  0  0  0  0  0  0  0  0
   -4.1443    1.5674    2.9327 H   0  0  0  0  0  0  0  0  0  0  0  0
   -0.7601   -0.1437    1.2105 N   0  0  0  0  0  0  0  0  0  0  0  0
    0.5659   -0.6542    0.7907 C   0  0  2  0  0  0  0  0  0  0  0  0
    0.6833   -0.5376   -0.7488 C   0  0  0  0  0  0  0  0  0  0  0  0
    0.1014    0.3778   -1.3220 O   0  0  0  0  0  0  0  0  0  0  0  0
    0.9412   -2.0654    1.2815 C   0  0  0  0  0  0  0  0  0  0  0  0
   -1.0543    0.6905    0.7029 H   0  0  0  0  0  0  0  0  0  0  0  0
    1.3168    0.0224    1.2097 H   0  0  0  0  0  0  0  0  0  0  0  0
    0.2590   -2.8145    0.8664 H   0  0  0  0  0  0  0  0  0  0  0  0
    1.9624   -2.3213    0.9832 H   0  0  0  0  0  0  0  0  0  0  0  0
    0.8971   -2.1137    2.3740 H   0  0  0  0  0  0  0  0  0  0  0  0
    1.4457   -1.4124   -1.5000 N   0  0  0  0  0  0  0  0  0  0  0  0
    1.4709   -1.4469   -2.9675 C   0  0  2  0  0  0  0  0  0  0  0  0
    1.6634   -2.8869   -3.4874 C   0  0  0  0  0  0  0  0  0  0  0  0
    2.0378   -3.7695   -2.7223 O   0  0  0  0  0  0  0  0  0  0  0  0
    2.6069   -0.5410   -3.4500 C   0  0  0  0  0  0  0  0  0  0  0  0
    1.7968   -2.2448   -1.0259 H   0  0  0  0  0  0  0  0  0  0  0  0
    0.5196   -1.0787   -3.3664 H   0  0  0  0  0  0  0  0  0  0  0  0
    3.5686   -0.8951   -3.0647 H   0  0  0  0  0  0  0  0  0  0  0  0
    2.6520   -0.5283   -4.5430 H   0  0  0  0  0  0  0  0  0  0  0  0
    2.4466    0.4837   -3.0996 H   0  0  0  0  0  0  0  0  0  0  0  0
    1.4047   -3.1988   -4.8094 N   0  0  0  0  0  0  0  0  0  0  0  0
    1.5404   -4.5447   -5.3537 C   0  0  0  0  0  0  0  0  0  0  0  0
    1.0681   -2.4543   -5.4133 H   0  0  0  0  0  0  0  0  0  0  0  0
    2.5723   -4.8972   -5.2515 H   0  0  0  0  0  0  0  0  0  0  0  0
    0.8771   -5.2396   -4.8276 H   0  0  0  0  0  0  0  0  0  0  0  0
    1.2763   -4.5522   -6.4157 H   0  0  0  0  0  0  0  0  0  0  0  0
  1  2  2  0  0  0  0
  1  3  1  0  0  0  0
  1  7  1  0  0  0  0
  3  4  1  0  0  0  0
  3  5  1  0  0  0  0
  3  6  1  0  0  0  0
  7  8  1  0  0  0  0
  7 12  1  0  0  0  0
  8  9  1  0  0  0  0
  8 11  1  0  0  0  0
  8 13  1  0  0  0  0
  9 10  2  0  0  0  0
  9 17  1  0  0  0  0
 11 14  1  0  0  0  0
 11 15  1  0  0  0  0
 11 16  1  0  0  0  0
 17 18  1  0  0  0  0
 17 22  1  0  0  0  0
 18 19  1  0  0  0  0
 18 21  1  0  0  0  0
 18 23  1  0  0  0  0
 19 20  2  0  0  0  0
 19 27  1  0  0  0  0
 21 24  1  0  0  0  0
 21 25  1  0  0  0  0
 21 26  1  0  0  0  0
 27 28  1  0  0  0  0
 27 32  1  0  0  0  0
 28 29  1  0  0  0  0
 28 31  1  0  0  0  0
 28 33  1  0  0  0  0
 29 30  2  0  0  0  0
 29 37  1  0  0  0  0
 31 34  1  0  0  0  0
 31 35  1  0  0  0  0
 31 36  1  0  0  0  0
 37 38  1  0  0  0  0
 37 39  1  0  0  0  0
 38 40  1  0  0  0  0
 38 41  1  0  0  0  0
 38 42  1  0  0  0  0
M  END
$$$$

  -OEChem-05262215353D

 42 41  0     1  0  0  0  0  0999 V2000
   -5.5171   -1.0004    1.8843 C   0  0  0  0  0  0  0  0  0  0  0  0
   -5.8904   -0.0803    1.1741 O   0  0  0  0  0  0  0  0  0  0  0  0
   -6.4676   -2.1340    2.2216 C   0  0  0  0  0  0  0  0  0  0  0  0
   -6.5854   -2.2136    3.3051 H   0  0  0  0  0  0  0  0  0  0  0  0
   -7.4479   -1.9500    1.7729 H   0  0  0  0  0  0  0  0  0  0  0  0
   -6.0749   -3.0772    1.8343 H   0  0  0  0  0  0  0  0  0  0  0  0
   -4.2266   -1.0227    2.3684 N   0  0  0  0  0  0  0  0  0  0  0  0
   -3.1676   -0.0954    1.9479 C   0  0  2  0  0  0  0  0  0  0  0  0
   -1.7925   -0.7962    1.8834 C   0  0  0  0  0  0  0  0  0  0  0  0
   -1.6652   -1.8948    2.4109 O   0  0  0  0  0  0  0  0  0  0  0  0
   -3.1379    1.0777    2.9322 C   0  0  0  0  0  0  0  0  0  0  0  0
   -3.9209   -1.8758    2.8359 H   0  0  0  0  0  0  0  0  0  0  0  0
   -3.3844    0.2837    0.9432 H   0  0  0  0  0  0  0  0  0  0  0  0
   -2.9185    0.7233    3.9444 H   0  0  0  0  0  0  0  0  0  0  0  0
   -2.3733    1.8050    2.6431 H   0  0  0  0  0  0  0  0  0  0  0  0
   -4.1078    1.5851    2.9431 H   0  0  0  0  0  0  0  0  0  0  0  0
   -0.7515   -0.1718    1.2120 N   0  0  0  0  0  0  0  0  0  0  0  0
    0.5695   -0.6950    0.7949 C   0  0  2  0  0  0  0  0  0  0  0  0
    0.6796   -0.5841   -0.7441 C   0  0  0  0  0  0  0  0  0  0  0  0
    0.2793    0.4393   -1.2884 O   0  0  0  0  0  0  0  0  0  0  0  0
    0.9358   -2.1056    1.2935 C   0  0  0  0  0  0  0  0  0  0  0  0
   -1.0254    0.6844    0.7306 H   0  0  0  0  0  0  0  0  0  0  0  0
    1.3268   -0.0217    1.2082 H   0  0  0  0  0  0  0  0  0  0  0  0
    0.2390   -2.8527    0.8995 H   0  0  0  0  0  0  0  0  0  0  0  0
    1.9483   -2.3745    0.9777 H   0  0  0  0  0  0  0  0  0  0  0  0
    0.9089   -2.1413    2.3869 H   0  0  0  0  0  0  0  0  0  0  0  0
    1.1658   -1.6112   -1.5315 N   0  0  0  0  0  0  0  0  0  0  0  0
    1.1043   -1.6369   -2.9982 C   0  0  2  0  0  0  0  0  0  0  0  0
    0.9545   -3.0796   -3.5251 C   0  0  0  0  0  0  0  0  0  0  0  0
    1.1561   -4.0304   -2.7770 O   0  0  0  0  0  0  0  0  0  0  0  0
    2.3786   -0.9898   -3.5484 C   0  0  0  0  0  0  0  0  0  0  0  0
    1.3325   -2.5072   -1.0721 H   0  0  0  0  0  0  0  0  0  0  0  0
    0.2326   -1.0702   -3.3429 H   0  0  0  0  0  0  0  0  0  0  0  0
    3.2630   -1.5422   -3.2152 H   0  0  0  0  0  0  0  0  0  0  0  0
    2.3646   -0.9809   -4.6422 H   0  0  0  0  0  0  0  0  0  0  0  0
    2.4604    0.0436   -3.1972 H   0  0  0  0  0  0  0  0  0  0  0  0
    0.5767   -3.3140   -4.8344 N   0  0  0  0  0  0  0  0  0  0  0  0
    0.3748   -4.6502   -5.3822 C   0  0  0  0  0  0  0  0  0  0  0  0
    0.3836   -2.5074   -5.4210 H   0  0  0  0  0  0  0  0  0  0  0  0
    1.2943   -5.2401   -5.3038 H   0  0  0  0  0  0  0  0  0  0  0  0
   -0.4240   -5.1695   -4.8423 H   0  0  0  0  0  0  0  0  0  0  0  0
    0.0936   -4.5876   -6.4380 H   0  0  0  0  0  0  0  0  0  0  0  0
  1  2  2  0  0  0  0
  1  3  1  0  0  0  0
  1  7  1  0  0  0  0
  3  4  1  0  0  0  0
  3  5  1  0  0  0  0
  3  6  1  0  0  0  0
  7  8  1  0  0  0  0
  7 12  1  0  0  0  0
  8  9  1  0  0  0  0
  8 11  1  0  0  0  0
  8 13  1  0  0  0  0
  9 10  2  0  0  0  0
  9 17  1  0  0  0  0
 11 14  1  0  0  0  0
 11 15  1  0  0  0  0
 11 16  1  0  0  0  0
 17 18  1  0  0  0  0
 17 22  1  0  0  0  0
 18 19  1  0  0  0  0
 18 21  1  0  0  0  0
 18 23  1  0  0  0  0
 19 20  2  0  0  0  0
 19 27  1  0  0  0  0
 21 24  1  0  0  0  0
 21 25  1  0  0  0  0
 21 26  1  0  0  0  0
 27 28  1  0  0  0  0
 27 32  1  0  0  0  0
 28 29  1  0  0  0  0
 28 31  1  0  0  0  0
 28 33  1  0  0  0  0
 29 30  2  0  0  0  0
 29 37  1  0  0  0  0
 31 34  1  0  0  0  0
 31 35  1  0  0  0  0
 31 36  1  0  0  0  0
 37 38  1  0  0  0  0
 37 39  1  0  0  0  0
 38 40  1  0  0  0  0
 38 41  1  0  0  0  0
 38 42  1  0  0  0  0
M  END
$$$$

  -OEChem-05262215353D

 42 41  0     1  0  0  0  0  0999 V2000
   -5.4774   -0.9428    1.7559 C   0  0  0  0  0  0  0  0  0  0  0  0
   -5.8121    0.0740    1.1688 O   0  0  0  0  0  0  0  0  0  0  0  0
   -6.4523   -2.0977    1.8907 C   0  0  0  0  0  0  0  0  0  0  0  0
   -6.6165   -2.3266    2.9465 H   0  0  0  0  0  0  0  0  0  0  0  0
   -7.4112   -1.8369    1.4336 H   0  0  0  0  0  0  0  0  0  0  0  0
   -6.0530   -2.9835    1.3901 H   0  0  0  0  0  0  0  0  0  0  0  0
   -4.2070   -1.0528    2.2801 N   0  0  0  0  0  0  0  0  0  0  0  0
   -3.1244   -0.0909    2.0352 C   0  0  2  0  0  0  0  0  0  0  0  0
   -1.7634   -0.7993    1.8664 C   0  0  0  0  0  0  0  0  0  0  0  0
   -1.6239   -1.9248    2.3297 O   0  0  0  0  0  0  0  0  0  0  0  0
   -3.0775    0.8901    3.2094 C   0  0  0  0  0  0  0  0  0  0  0  0
   -3.9310   -1.9633    2.6466 H   0  0  0  0  0  0  0  0  0  0  0  0
   -3.3208    0.4635    1.1111 H   0  0  0  0  0  0  0  0  0  0  0  0
   -2.8750    0.3583    4.1447 H   0  0  0  0  0  0  0  0  0  0  0  0
   -2.2926    1.6368    3.0558 H   0  0  0  0  0  0  0  0  0  0  0  0
   -4.0353    1.4112    3.3047 H   0  0  0  0  0  0  0  0  0  0  0  0
   -0.7532   -0.1526    1.1698 N   0  0  0  0  0  0  0  0  0  0  0  0
    0.5817   -0.6339    0.7500 C   0  0  2  0  0  0  0  0  0  0  0  0
    0.6706   -0.5554   -0.7899 C   0  0  0  0  0  0  0  0  0  0  0  0
    0.4305    0.5152   -1.3360 O   0  0  0  0  0  0  0  0  0  0  0  0
    1.0199   -2.0090    1.2870 C   0  0  0  0  0  0  0  0  0  0  0  0
   -1.0326    0.7328    0.7492 H   0  0  0  0  0  0  0  0  0  0  0  0
    1.3137    0.0824    1.1354 H   0  0  0  0  0  0  0  0  0  0  0  0
    0.3564   -2.8027    0.9289 H   0  0  0  0  0  0  0  0  0  0  0  0
    2.0396   -2.2376    0.9617 H   0  0  0  0  0  0  0  0  0  0  0  0
    1.0075   -2.0095    2.3816 H   0  0  0  0  0  0  0  0  0  0  0  0
    0.8969   -1.6717   -1.5729 N   0  0  0  0  0  0  0  0  0  0  0  0
    0.7015   -1.7174   -3.0271 C   0  0  2  0  0  0  0  0  0  0  0  0
    0.1893   -3.1023   -3.4757 C   0  0  0  0  0  0  0  0  0  0  0  0
    0.2444   -4.0562   -2.7067 O   0  0  0  0  0  0  0  0  0  0  0  0
    2.0322   -1.3831   -3.7055 C   0  0  0  0  0  0  0  0  0  0  0  0
    0.8989   -2.5731   -1.0941 H   0  0  0  0  0  0  0  0  0  0  0  0
   -0.0512   -0.9801   -3.3260 H   0  0  0  0  0  0  0  0  0  0  0  0
    2.7983   -2.1133   -3.4257 H   0  0  0  0  0  0  0  0  0  0  0  0
    1.9215   -1.3918   -4.7939 H   0  0  0  0  0  0  0  0  0  0  0  0
    2.3709   -0.3877   -3.4012 H   0  0  0  0  0  0  0  0  0  0  0  0
   -0.3587   -3.2766   -4.7331 N   0  0  0  0  0  0  0  0  0  0  0  0
   -0.9205   -4.5417   -5.1918 C   0  0  0  0  0  0  0  0  0  0  0  0
   -0.4277   -2.4606   -5.3343 H   0  0  0  0  0  0  0  0  0  0  0  0
   -0.1595   -5.3292   -5.1741 H   0  0  0  0  0  0  0  0  0  0  0  0
   -1.7555   -4.8444   -4.5508 H   0  0  0  0  0  0  0  0  0  0  0  0
   -1.2900   -4.4422   -6.2170 H   0  0  0  0  0  0  0  0  0  0  0  0
  1  2  2  0  0  0  0
  1  3  1  0  0  0  0
  1  7  1  0  0  0  0
  3  4  1  0  0  0  0
  3  5  1  0  0  0  0
  3  6  1  0  0  0  0
  7  8  1  0  0  0  0
  7 12  1  0  0  0  0
  8  9  1  0  0  0  0
  8 11  1  0  0  0  0
  8 13  1  0  0  0  0
  9 10  2  0  0  0  0
  9 17  1  0  0  0  0
 11 14  1  0  0  0  0
 11 15  1  0  0  0  0
 11 16  1  0  0  0  0
 17 18  1  0  0  0  0
 17 22  1  0  0  0  0
 18 19  1  0  0  0  0
 18 21  1  0  0  0  0
 18 23  1  0  0  0  0
 19 20  2  0  0  0  0
 19 27  1  0  0  0  0
 21 24  1  0  0  0  0
 21 25  1  0  0  0  0
 21 26  1  0  0  0  0
 27 28  1  0  0  0  0
 27 32  1  0  0  0  0
 28 29  1  0  0  0  0
 28 31  1  0  0  0  0
 28 33  1  0  0  0  0
 29 30  2  0  0  0  0
 29 37  1  0  0  0  0
 31 34  1  0  0  0  0
 31 35  1  0  0  0  0
 31 36  1  0  0  0  0
 37 38  1  0  0  0  0
 37 39  1  0  0  0  0
 38 40  1  0  0  0  0
 38 41  1  0  0  0  0
 38 42  1  0  0  0  0
M  END
$$$$

  -OEChem-05262215353D

 42 41  0     1  0  0  0  0  0999 V2000
   -5.4756   -0.9418    1.7537 C   0  0  0  0  0  0  0  0  0  0  0  0
   -5.8038    0.0704    1.1549 O   0  0  0  0  0  0  0  0  0  0  0  0
   -6.4470   -2.1012    1.8755 C   0  0  0  0  0  0  0  0  0  0  0  0
   -6.6228   -2.3324    2.9288 H   0  0  0  0  0  0  0  0  0  0  0  0
   -7.4014   -1.8442    1.4072 H   0  0  0  0  0  0  0  0  0  0  0  0
   -6.0378   -2.9845    1.3788 H   0  0  0  0  0  0  0  0  0  0  0  0
   -4.2167   -1.0418    2.3076 N   0  0  0  0  0  0  0  0  0  0  0  0
   -3.1290   -0.0836    2.0687 C   0  0  2  0  0  0  0  0  0  0  0  0
   -1.7790   -0.8016    1.8570 C   0  0  0  0  0  0  0  0  0  0  0  0
   -1.6385   -1.9348    2.3001 O   0  0  0  0  0  0  0  0  0  0  0  0
   -3.0533    0.8644    3.2681 C   0  0  0  0  0  0  0  0  0  0  0  0
   -3.9441   -1.9530    2.6747 H   0  0  0  0  0  0  0  0  0  0  0  0
   -3.3347    0.4987    1.1640 H   0  0  0  0  0  0  0  0  0  0  0  0
   -2.8370    0.3058    4.1846 H   0  0  0  0  0  0  0  0  0  0  0  0
   -2.2658    1.6097    3.1198 H   0  0  0  0  0  0  0  0  0  0  0  0
   -4.0060    1.3885    3.3952 H   0  0  0  0  0  0  0  0  0  0  0  0
   -0.7797   -0.1565    1.1430 N   0  0  0  0  0  0  0  0  0  0  0  0
    0.5531   -0.6369    0.7146 C   0  0  2  0  0  0  0  0  0  0  0  0
    0.6318   -0.5771   -0.8251 C   0  0  0  0  0  0  0  0  0  0  0  0
    0.6364    0.5196   -1.3701 O   0  0  0  0  0  0  0  0  0  0  0  0
    1.0062   -2.0050    1.2562 C   0  0  0  0  0  0  0  0  0  0  0  0
   -1.0497    0.7495    0.7637 H   0  0  0  0  0  0  0  0  0  0  0  0
    1.2857    0.0865    1.0867 H   0  0  0  0  0  0  0  0  0  0  0  0
    0.3409   -2.8066    0.9201 H   0  0  0  0  0  0  0  0  0  0  0  0
    2.0197   -2.2317    0.9108 H   0  0  0  0  0  0  0  0  0  0  0  0
    1.0148   -1.9943    2.3506 H   0  0  0  0  0  0  0  0  0  0  0  0
    0.5516   -1.7159   -1.6043 N   0  0  0  0  0  0  0  0  0  0  0  0
    0.3237   -1.7155   -3.0545 C   0  0  2  0  0  0  0  0  0  0  0  0
   -0.5421   -2.9189   -3.4823 C   0  0  0  0  0  0  0  0  0  0  0  0
   -0.7238   -3.8522   -2.7078 O   0  0  0  0  0  0  0  0  0  0  0  0
    1.6841   -1.7455   -3.7561 C   0  0  0  0  0  0  0  0  0  0  0  0
    0.3388   -2.5876   -1.1174 H   0  0  0  0  0  0  0  0  0  0  0  0
   -0.2141   -0.8078   -3.3482 H   0  0  0  0  0  0  0  0  0  0  0  0
    2.2366   -2.6492   -3.4796 H   0  0  0  0  0  0  0  0  0  0  0  0
    1.5578   -1.7321   -4.8428 H   0  0  0  0  0  0  0  0  0  0  0  0
    2.2773   -0.8719   -3.4675 H   0  0  0  0  0  0  0  0  0  0  0  0
   -1.1414   -2.9459   -4.7280 N   0  0  0  0  0  0  0  0  0  0  0  0
   -2.0253   -4.0197   -5.1657 C   0  0  0  0  0  0  0  0  0  0  0  0
   -1.0078   -2.1409   -5.3329 H   0  0  0  0  0  0  0  0  0  0  0  0
   -1.5021   -4.9815   -5.1431 H   0  0  0  0  0  0  0  0  0  0  0  0
   -2.9041   -4.0817   -4.5151 H   0  0  0  0  0  0  0  0  0  0  0  0
   -2.3652   -3.8365   -6.1896 H   0  0  0  0  0  0  0  0  0  0  0  0
  1  2  2  0  0  0  0
  1  3  1  0  0  0  0
  1  7  1  0  0  0  0
  3  4  1  0  0  0  0
  3  5  1  0  0  0  0
  3  6  1  0  0  0  0
  7  8  1  0  0  0  0
  7 12  1  0  0  0  0
  8  9  1  0  0  0  0
  8 11  1  0  0  0  0
  8 13  1  0  0  0  0
  9 10  2  0  0  0  0
  9 17  1  0  0  0  0
 11 14  1  0  0  0  0
 11 15  1  0  0  0  0
 11 16  1  0  0  0  0
 17 18  1  0  0  0  0
 17 22  1  0  0  0  0
 18 19  1  0  0  0  0
 18 21  1  0  0  0  0
 18 23  1  0  0  0  0
 19 20  2  0  0  0  0
 19 27  1  0  0  0  0
 21 24  1  0  0  0  0
 21 25  1  0  0  0  0
 21 26  1  0  0  0  0
 27 28  1  0  0  0  0
 27 32  1  0  0  0  0
 28 29  1  0  0  0  0
 28 31  1  0  0  0  0
 28 33  1  0  0  0  0
 29 30  2  0  0  0  0
 29 37  1  0  0  0  0
 31 34  1  0  0  0  0
 31 35  1  0  0  0  0
 31 36  1  0  0  0  0
 37 38  1  0  0  0  0
 37 39  1  0  0  0  0
 38 40  1  0  0  0  0
 38 41  1  0  0  0  0
 38 42  1  0  0  0  0
M  END
$$$$

  -OEChem-05262215353D

 42 41  0     1  0  0  0  0  0999 V2000
   -5.4803   -0.9362    1.7570 C   0  0  0  0  0  0  0  0  0  0  0  0
   -5.8069    0.0881    1.1779 O   0  0  0  0  0  0  0  0  0  0  0  0
   -6.4495   -2.0991    1.8513 C   0  0  0  0  0  0  0  0  0  0  0  0
   -6.6304   -2.3497    2.8993 H   0  0  0  0  0  0  0  0  0  0  0  0
   -7.4015   -1.8361    1.3822 H   0  0  0  0  0  0  0  0  0  0  0  0
   -6.0344   -2.9720    1.3414 H   0  0  0  0  0  0  0  0  0  0  0  0
   -4.2260   -1.0465    2.3185 N   0  0  0  0  0  0  0  0  0  0  0  0
   -3.1365   -0.0853    2.1023 C   0  0  2  0  0  0  0  0  0  0  0  0
   -1.7950   -0.8019    1.8385 C   0  0  0  0  0  0  0  0  0  0  0  0
   -1.6467   -1.9456    2.2504 O   0  0  0  0  0  0  0  0  0  0  0  0
   -3.0365    0.8105    3.3394 C   0  0  0  0  0  0  0  0  0  0  0  0
   -3.9536   -1.9688    2.6573 H   0  0  0  0  0  0  0  0  0  0  0  0
   -3.3524    0.5368    1.2272 H   0  0  0  0  0  0  0  0  0  0  0  0
   -2.8110    0.2127    4.2285 H   0  0  0  0  0  0  0  0  0  0  0  0
   -2.2458    1.5559    3.2107 H   0  0  0  0  0  0  0  0  0  0  0  0
   -3.9834    1.3355    3.5027 H   0  0  0  0  0  0  0  0  0  0  0  0
   -0.8136   -0.1473    1.1083 N   0  0  0  0  0  0  0  0  0  0  0  0
    0.5221   -0.6133    0.6731 C   0  0  2  0  0  0  0  0  0  0  0  0
    0.5916   -0.5716   -0.8659 C   0  0  0  0  0  0  0  0  0  0  0  0
    0.8578    0.4858   -1.4219 O   0  0  0  0  0  0  0  0  0  0  0  0
    1.0018   -1.9720    1.2143 C   0  0  0  0  0  0  0  0  0  0  0  0
   -1.0825    0.7744    0.7701 H   0  0  0  0  0  0  0  0  0  0  0  0
    1.2472    0.1222    1.0365 H   0  0  0  0  0  0  0  0  0  0  0  0
    0.3553   -2.7878    0.8766 H   0  0  0  0  0  0  0  0  0  0  0  0
    2.0198   -2.1764    0.8685 H   0  0  0  0  0  0  0  0  0  0  0  0
    1.0097   -1.9635    2.3087 H   0  0  0  0  0  0  0  0  0  0  0  0
    0.2199   -1.6641   -1.6260 N   0  0  0  0  0  0  0  0  0  0  0  0
   -0.0303   -1.6238   -3.0725 C   0  0  2  0  0  0  0  0  0  0  0  0
   -1.2085   -2.5400   -3.4654 C   0  0  0  0  0  0  0  0  0  0  0  0
   -1.6348   -3.3698   -2.6698 O   0  0  0  0  0  0  0  0  0  0  0  0
    1.2526   -2.0485   -3.7921 C   0  0  0  0  0  0  0  0  0  0  0  0
   -0.1947   -2.4475   -1.1190 H   0  0  0  0  0  0  0  0  0  0  0  0
   -0.2957   -0.6064   -3.3786 H   0  0  0  0  0  0  0  0  0  0  0  0
    1.5306   -3.0686   -3.5078 H   0  0  0  0  0  0  0  0  0  0  0  0
    1.1161   -2.0138   -4.8772 H   0  0  0  0  0  0  0  0  0  0  0  0
    2.0743   -1.3757   -3.5264 H   0  0  0  0  0  0  0  0  0  0  0  0
   -1.8079   -2.4204   -4.7058 N   0  0  0  0  0  0  0  0  0  0  0  0
   -2.9601   -3.2142   -5.1161 C   0  0  0  0  0  0  0  0  0  0  0  0
   -1.4625   -1.6957   -5.3281 H   0  0  0  0  0  0  0  0  0  0  0  0
   -2.7254   -4.2829   -5.0717 H   0  0  0  0  0  0  0  0  0  0  0  0
   -3.8157   -3.0136   -4.4627 H   0  0  0  0  0  0  0  0  0  0  0  0
   -3.2440   -2.9664   -6.1433 H   0  0  0  0  0  0  0  0  0  0  0  0
  1  2  2  0  0  0  0
  1  3  1  0  0  0  0
  1  7  1  0  0  0  0
  3  4  1  0  0  0  0
  3  5  1  0  0  0  0
  3  6  1  0  0  0  0
  7  8  1  0  0  0  0
  7 12  1  0  0  0  0
  8  9  1  0  0  0  0
  8 11  1  0  0  0  0
  8 13  1  0  0  0  0
  9 10  2  0  0  0  0
  9 17  1  0  0  0  0
 11 14  1  0  0  0  0
 11 15  1  0  0  0  0
 11 16  1  0  0  0  0
 17 18  1  0  0  0  0
 17 22  1  0  0  0  0
 18 19  1  0  0  0  0
 18 21  1  0  0  0  0
 18 23  1  0  0  0  0
 19 20  2  0  0  0  0
 19 27  1  0  0  0  0
 21 24  1  0  0  0  0
 21 25  1  0  0  0  0
 21 26  1  0  0  0  0
 27 28  1  0  0  0  0
 27 32  1  0  0  0  0
 28 29  1  0  0  0  0
 28 31  1  0  0  0  0
 28 33  1  0  0  0  0
 29 30  2  0  0  0  0
 29 37  1  0  0  0  0
 31 34  1  0  0  0  0
 31 35  1  0  0  0  0
 31 36  1  0  0  0  0
 37 38  1  0  0  0  0
 37 39  1  0  0  0  0
 38 40  1  0  0  0  0
 38 41  1  0  0  0  0
 38 42  1  0  0  0  0
M  END
$$$$

  -OEChem-05262215353D

 42 41  0     1  0  0  0  0  0999 V2000
   -5.5038   -0.9161    1.7946 C   0  0  0  0  0  0  0  0  0  0  0  0
   -5.8444    0.1581    1.3241 O   0  0  0  0  0  0  0  0  0  0  0  0
   -6.4783   -2.0785    1.8195 C   0  0  0  0  0  0  0  0  0  0  0  0
   -6.6689   -2.3845    2.8509 H   0  0  0  0  0  0  0  0  0  0  0  0
   -7.4251   -1.7864    1.3566 H   0  0  0  0  0  0  0  0  0  0  0  0
   -6.0634   -2.9249    1.2666 H   0  0  0  0  0  0  0  0  0  0  0  0
   -4.2290   -1.0801    2.2940 N   0  0  0  0  0  0  0  0  0  0  0  0
   -3.1432   -0.1079    2.1142 C   0  0  2  0  0  0  0  0  0  0  0  0
   -1.8019   -0.8087    1.8109 C   0  0  0  0  0  0  0  0  0  0  0  0
   -1.6407   -1.9629    2.1870 O   0  0  0  0  0  0  0  0  0  0  0  0
   -3.0356    0.7367    3.3859 C   0  0  0  0  0  0  0  0  0  0  0  0
   -3.9518   -2.0270    2.5509 H   0  0  0  0  0  0  0  0  0  0  0  0
   -3.3683    0.5482    1.2667 H   0  0  0  0  0  0  0  0  0  0  0  0
   -2.8016    0.1031    4.2476 H   0  0  0  0  0  0  0  0  0  0  0  0
   -2.2479    1.4888    3.2815 H   0  0  0  0  0  0  0  0  0  0  0  0
   -3.9820    1.2524    3.5783 H   0  0  0  0  0  0  0  0  0  0  0  0
   -0.8423   -0.1351    1.0690 N   0  0  0  0  0  0  0  0  0  0  0  0
    0.5033   -0.5718    0.6316 C   0  0  2  0  0  0  0  0  0  0  0  0
    0.5647   -0.5453   -0.9058 C   0  0  0  0  0  0  0  0  0  0  0  0
    1.0751    0.4072   -1.4794 O   0  0  0  0  0  0  0  0  0  0  0  0
    1.0131   -1.9217    1.1641 C   0  0  0  0  0  0  0  0  0  0  0  0
   -1.1179    0.7984    0.7713 H   0  0  0  0  0  0  0  0  0  0  0  0
    1.2140    0.1801    0.9904 H   0  0  0  0  0  0  0  0  0  0  0  0
    0.3846   -2.7488    0.8200 H   0  0  0  0  0  0  0  0  0  0  0  0
    2.0344   -2.1023    0.8144 H   0  0  0  0  0  0  0  0  0  0  0  0
    1.0223   -1.9196    2.2584 H   0  0  0  0  0  0  0  0  0  0  0  0
   -0.0684   -1.5299   -1.6382 N   0  0  0  0  0  0  0  0  0  0  0  0
   -0.3363   -1.4504   -3.0790 C   0  0  2  0  0  0  0  0  0  0  0  0
   -1.7404   -1.9927   -3.4206 C   0  0  0  0  0  0  0  0  0  0  0  0
   -2.3748   -2.6300   -2.5868 O   0  0  0  0  0  0  0  0  0  0  0  0
    0.7501   -2.2447   -3.8079 C   0  0  0  0  0  0  0  0  0  0  0  0
   -0.6514   -2.1779   -1.1057 H   0  0  0  0  0  0  0  0  0  0  0  0
   -0.3037   -0.4076   -3.4115 H   0  0  0  0  0  0  0  0  0  0  0  0
    0.7334   -3.2933   -3.4938 H   0  0  0  0  0  0  0  0  0  0  0  0
    0.5987   -2.2021   -4.8906 H   0  0  0  0  0  0  0  0  0  0  0  0
    1.7366   -1.8282   -3.5806 H   0  0  0  0  0  0  0  0  0  0  0  0
   -2.3067   -1.7458   -4.6577 N   0  0  0  0  0  0  0  0  0  0  0  0
   -3.6486   -2.1840   -5.0228 C   0  0  0  0  0  0  0  0  0  0  0  0
   -1.7757   -1.1830   -5.3160 H   0  0  0  0  0  0  0  0  0  0  0  0
   -3.7279   -3.2739   -4.9533 H   0  0  0  0  0  0  0  0  0  0  0  0
   -4.3928   -1.7338   -4.3576 H   0  0  0  0  0  0  0  0  0  0  0  0
   -3.8786   -1.8861   -6.0502 H   0  0  0  0  0  0  0  0  0  0  0  0
  1  2  2  0  0  0  0
  1  3  1  0  0  0  0
  1  7  1  0  0  0  0
  3  4  1  0  0  0  0
  3  5  1  0  0  0  0
  3  6  1  0  0  0  0
  7  8  1  0  0  0  0
  7 12  1  0  0  0  0
  8  9  1  0  0  0  0
  8 11  1  0  0  0  0
  8 13  1  0  0  0  0
  9 10  2  0  0  0  0
  9 17  1  0  0  0  0
 11 14  1  0  0  0  0
 11 15  1  0  0  0  0
 11 16  1  0  0  0  0
 17 18  1  0  0  0  0
 17 22  1  0  0  0  0
 18 19  1  0  0  0  0
 18 21  1  0  0  0  0
 18 23  1  0  0  0  0
 19 20  2  0  0  0  0
 19 27  1  0  0  0  0
 21 24  1  0  0  0  0
 21 25  1  0  0  0  0
 21 26  1  0  0  0  0
 27 28  1  0  0  0  0
 27 32  1  0  0  0  0
 28 29  1  0  0  0  0
 28 31  1  0  0  0  0
 28 33  1  0  0  0  0
 29 30  2  0  0  0  0
 29 37  1  0  0  0  0
 31 34  1  0  0  0  0
 31 35  1  0  0  0  0
 31 36  1  0  0  0  0
 37 38  1  0  0  0  0
 37 39  1  0  0  0  0
 38 40  1  0  0  0  0
 38 41  1  0  0  0  0
 38 42  1  0  0  0  0
M  END
$$$$

  -OEChem-05262215353D

 42 41  0     1  0  0  0  0  0999 V2000
   -5.5529   -0.8866    1.8527 C   0  0  0  0  0  0  0  0  0  0  0  0
   -5.9020    0.2328    1.5111 O   0  0  0  0  0  0  0  0  0  0  0  0
   -6.5471   -2.0319    1.8386 C   0  0  0  0  0  0  0  0  0  0  0  0
   -6.6732   -2.4292    2.8487 H   0  0  0  0  0  0  0  0  0  0  0  0
   -7.5171   -1.6847    1.4715 H   0  0  0  0  0  0  0  0  0  0  0  0
   -6.1871   -2.8284    1.1825 H   0  0  0  0  0  0  0  0  0  0  0  0
   -4.2514   -1.1155    2.2449 N   0  0  0  0  0  0  0  0  0  0  0  0
   -3.1643   -0.1418    2.0904 C   0  0  2  0  0  0  0  0  0  0  0  0
   -1.8273   -0.8334    1.7498 C   0  0  0  0  0  0  0  0  0  0  0  0
   -1.6600   -2.0002    2.0810 O   0  0  0  0  0  0  0  0  0  0  0  0
   -3.0407    0.6589    3.3892 C   0  0  0  0  0  0  0  0  0  0  0  0
   -3.9775   -2.0834    2.4102 H   0  0  0  0  0  0  0  0  0  0  0  0
   -3.3988    0.5422    1.2675 H   0  0  0  0  0  0  0  0  0  0  0  0
   -2.8024   -0.0046    4.2269 H   0  0  0  0  0  0  0  0  0  0  0  0
   -2.2506    1.4108    3.3029 H   0  0  0  0  0  0  0  0  0  0  0  0
   -3.9827    1.1718    3.6078 H   0  0  0  0  0  0  0  0  0  0  0  0
   -0.8797   -0.1378    1.0135 N   0  0  0  0  0  0  0  0  0  0  0  0
    0.4878   -0.5333    0.6014 C   0  0  2  0  0  0  0  0  0  0  0  0
    0.5732   -0.5256   -0.9346 C   0  0  0  0  0  0  0  0  0  0  0  0
    1.2893    0.2804   -1.5125 O   0  0  0  0  0  0  0  0  0  0  0  0
    1.0265   -1.8662    1.1448 C   0  0  0  0  0  0  0  0  0  0  0  0
   -1.1676    0.7996    0.7416 H   0  0  0  0  0  0  0  0  0  0  0  0
    1.1688    0.2423    0.9672 H   0  0  0  0  0  0  0  0  0  0  0  0
    0.4419   -2.7113    0.7679 H   0  0  0  0  0  0  0  0  0  0  0  0
    2.0664   -2.0056    0.8332 H   0  0  0  0  0  0  0  0  0  0  0  0
    0.9941   -1.8744    2.2386 H   0  0  0  0  0  0  0  0  0  0  0  0
   -0.2645   -1.3529   -1.6555 N   0  0  0  0  0  0  0  0  0  0  0  0
   -0.5613   -1.1951   -3.0840 C   0  0  2  0  0  0  0  0  0  0  0  0
   -2.0774   -1.3120   -3.3534 C   0  0  0  0  0  0  0  0  0  0  0  0
   -2.8354   -1.6802   -2.4618 O   0  0  0  0  0  0  0  0  0  0  0  0
    0.2182   -2.2667   -3.8501 C   0  0  0  0  0  0  0  0  0  0  0  0
   -0.9677   -1.8474   -1.1036 H   0  0  0  0  0  0  0  0  0  0  0  0
   -0.2459   -0.2054   -3.4307 H   0  0  0  0  0  0  0  0  0  0  0  0
   -0.0891   -3.2673   -3.5294 H   0  0  0  0  0  0  0  0  0  0  0  0
    0.0432   -2.1759   -4.9262 H   0  0  0  0  0  0  0  0  0  0  0  0
    1.2913   -2.1554   -3.6649 H   0  0  0  0  0  0  0  0  0  0  0  0
   -2.5990   -0.9837   -4.5913 N   0  0  0  0  0  0  0  0  0  0  0  0
   -4.0239   -1.0335   -4.8975 C   0  0  0  0  0  0  0  0  0  0  0  0
   -1.9548   -0.6442   -5.2997 H   0  0  0  0  0  0  0  0  0  0  0  0
   -4.4235   -2.0353   -4.7069 H   0  0  0  0  0  0  0  0  0  0  0  0
   -4.5725   -0.3124   -4.2825 H   0  0  0  0  0  0  0  0  0  0  0  0
   -4.1938   -0.7910   -5.9509 H   0  0  0  0  0  0  0  0  0  0  0  0
  1  2  2  0  0  0  0
  1  3  1  0  0  0  0
  1  7  1  0  0  0  0
  3  4  1  0  0  0  0
  3  5  1  0  0  0  0
  3  6  1  0  0  0  0
  7  8  1  0  0  0  0
  7 12  1  0  0  0  0
  8  9  1  0  0  0  0
  8 11  1  0  0  0  0
  8 13  1  0  0  0  0
  9 10  2  0  0  0  0
  9 17  1  0  0  0  0
 11 14  1  0  0  0  0
 11 15  1  0  0  0  0
 11 16  1  0  0  0  0
 17 18  1  0  0  0  0
 17 22  1  0  0  0  0
 18 19  1  0  0  0  0
 18 21  1  0  0  0  0
 18 23  1  0  0  0  0
 19 20  2  0  0  0  0
 19 27  1  0  0  0  0
 21 24  1  0  0  0  0
 21 25  1  0  0  0  0
 21 26  1  0  0  0  0
 27 28  1  0  0  0  0
 27 32  1  0  0  0  0
 28 29  1  0  0  0  0
 28 31  1  0  0  0  0
 28 33  1  0  0  0  0
 29 30  2  0  0  0  0
 29 37  1  0  0  0  0
 31 34  1  0  0  0  0
 31 35  1  0  0  0  0
 31 36  1  0  0  0  0
 37 38  1  0  0  0  0
 37 39  1  0  0  0  0
 38 40  1  0  0  0  0
 38 41  1  0  0  0  0
 38 42  1  0  0  0  0
M  END
$$$$

  -OEChem-05262215353D

 42 41  0     1  0  0  0  0  0999 V2000
   -5.5307   -1.8319    1.8922 C   0  0  0  0  0  0  0  0  0  0  0  0
   -6.0929   -1.4822    0.8665 O   0  0  0  0  0  0  0  0  0  0  0  0
   -6.1984   -2.8301    2.8195 C   0  0  0  0  0  0  0  0  0  0  0  0
   -5.6326   -3.7649    2.8291 H   0  0  0  0  0  0  0  0  0  0  0  0
   -6.2411   -2.4272    3.8344 H   0  0  0  0  0  0  0  0  0  0  0  0
   -7.2175   -3.0370    2.4803 H   0  0  0  0  0  0  0  0  0  0  0  0
   -4.2818   -1.3399    2.2061 N   0  0  0  0  0  0  0  0  0  0  0  0
   -3.4644   -0.5150    1.3056 C   0  0  2  0  0  0  0  0  0  0  0  0
   -1.9540   -0.7813    1.5013 C   0  0  0  0  0  0  0  0  0  0  0  0
   -1.5964   -1.5953    2.3446 O   0  0  0  0  0  0  0  0  0  0  0  0
   -3.8003    0.9583    1.5567 C   0  0  0  0  0  0  0  0  0  0  0  0
   -3.7926   -1.7814    2.9839 H   0  0  0  0  0  0  0  0  0  0  0  0
   -3.7023   -0.7600    0.2643 H   0  0  0  0  0  0  0  0  0  0  0  0
   -3.5375    1.2429    2.5803 H   0  0  0  0  0  0  0  0  0  0  0  0
   -3.2515    1.6012    0.8619 H   0  0  0  0  0  0  0  0  0  0  0  0
   -4.8708    1.1324    1.4086 H   0  0  0  0  0  0  0  0  0  0  0  0
   -1.0470   -0.1417    0.6713 N   0  0  0  0  0  0  0  0  0  0  0  0
    0.4030   -0.3816    0.4647 C   0  0  2  0  0  0  0  0  0  0  0  0
    0.6236   -0.7367   -1.0159 C   0  0  0  0  0  0  0  0  0  0  0  0
    1.3577   -0.0509   -1.7144 O   0  0  0  0  0  0  0  0  0  0  0  0
    1.0669   -1.4522    1.3422 C   0  0  0  0  0  0  0  0  0  0  0  0
   -1.5049    0.3886   -0.0784 H   0  0  0  0  0  0  0  0  0  0  0  0
    0.9245    0.5611    0.6610 H   0  0  0  0  0  0  0  0  0  0  0  0
    0.6068   -2.4321    1.1819 H   0  0  0  0  0  0  0  0  0  0  0  0
    2.1315   -1.5290    1.1004 H   0  0  0  0  0  0  0  0  0  0  0  0
    0.9777   -1.1878    2.4003 H   0  0  0  0  0  0  0  0  0  0  0  0
   -0.2397   -1.6397   -1.6088 N   0  0  0  0  0  0  0  0  0  0  0  0
   -0.7544   -1.3661   -2.9571 C   0  0  2  0  0  0  0  0  0  0  0  0
   -1.7649   -0.1913   -2.9590 C   0  0  0  0  0  0  0  0  0  0  0  0
   -2.2996    0.1743   -1.9131 O   0  0  0  0  0  0  0  0  0  0  0  0
   -1.4177   -2.6451   -3.4724 C   0  0  0  0  0  0  0  0  0  0  0  0
   -0.9123   -2.0262   -0.9510 H   0  0  0  0  0  0  0  0  0  0  0  0
    0.0744   -1.1093   -3.6259 H   0  0  0  0  0  0  0  0  0  0  0  0
   -2.2680   -2.9186   -2.8390 H   0  0  0  0  0  0  0  0  0  0  0  0
   -1.7785   -2.5040   -4.4960 H   0  0  0  0  0  0  0  0  0  0  0  0
   -0.7000   -3.4717   -3.4705 H   0  0  0  0  0  0  0  0  0  0  0  0
   -2.0732    0.4684   -4.1336 N   0  0  0  0  0  0  0  0  0  0  0  0
   -2.9582    1.6261   -4.1891 C   0  0  0  0  0  0  0  0  0  0  0  0
   -1.5614    0.2017   -4.9697 H   0  0  0  0  0  0  0  0  0  0  0  0
   -3.9585    1.3619   -3.8300 H   0  0  0  0  0  0  0  0  0  0  0  0
   -2.5646    2.4392   -3.5700 H   0  0  0  0  0  0  0  0  0  0  0  0
   -3.0453    1.9868   -5.2183 H   0  0  0  0  0  0  0  0  0  0  0  0
  1  2  2  0  0  0  0
  1  3  1  0  0  0  0
  1  7  1  0  0  0  0
  3  4  1  0  0  0  0
  3  5  1  0  0  0  0
  3  6  1  0  0  0  0
  7  8  1  0  0  0  0
  7 12  1  0  0  0  0
  8  9  1  0  0  0  0
  8 11  1  0  0  0  0
  8 13  1  0  0  0  0
  9 10  2  0  0  0  0
  9 17  1  0  0  0  0
 11 14  1  0  0  0  0
 11 15  1  0  0  0  0
 11 16  1  0  0  0  0
 17 18  1  0  0  0  0
 17 22  1  0  0  0  0
 18 19  1  0  0  0  0
 18 21  1  0  0  0  0
 18 23  1  0  0  0  0
 19 20  2  0  0  0  0
 19 27  1  0  0  0  0
 21 24  1  0  0  0  0
 21 25  1  0  0  0  0
 21 26  1  0  0  0  0
 27 28  1  0  0  0  0
 27 32  1  0  0  0  0
 28 29  1  0  0  0  0
 28 31  1  0  0  0  0
 28 33  1  0  0  0  0
 29 30  2  0  0  0  0
 29 37  1  0  0  0  0
 31 34  1  0  0  0  0
 31 35  1  0  0  0  0
 31 36  1  0  0  0  0
 37 38  1  0  0  0  0
 37 39  1  0  0  0  0
 38 40  1  0  0  0  0
 38 41  1  0  0  0  0
 38 42  1  0  0  0  0
M  END
$$$$

  -OEChem-05262215353D

 42 41  0     1  0  0  0  0  0999 V2000
   -5.5360   -1.7231    1.8747 C   0  0  0  0  0  0  0  0  0  0  0  0
   -6.0704   -1.3635    0.8379 O   0  0  0  0  0  0  0  0  0  0  0  0
   -6.1976   -2.7761    2.7434 C   0  0  0  0  0  0  0  0  0  0  0  0
   -5.5372   -3.6400    2.8510 H   0  0  0  0  0  0  0  0  0  0  0  0
   -6.4105   -2.3641    3.7327 H   0  0  0  0  0  0  0  0  0  0  0  0
   -7.1365   -3.1046    2.2891 H   0  0  0  0  0  0  0  0  0  0  0  0
   -4.3218   -1.1924    2.2544 N   0  0  0  0  0  0  0  0  0  0  0  0
   -3.4878   -0.3389    1.3971 C   0  0  2  0  0  0  0  0  0  0  0  0
   -1.9884   -0.6860    1.5361 C   0  0  0  0  0  0  0  0  0  0  0  0
   -1.6411   -1.5126    2.3709 O   0  0  0  0  0  0  0  0  0  0  0  0
   -3.7496    1.1232    1.7686 C   0  0  0  0  0  0  0  0  0  0  0  0
   -3.8448   -1.6519    3.0292 H   0  0  0  0  0  0  0  0  0  0  0  0
   -3.7561   -0.4883    0.3452 H   0  0  0  0  0  0  0  0  0  0  0  0
   -3.4607    1.3134    2.8070 H   0  0  0  0  0  0  0  0  0  0  0  0
   -3.1791    1.7928    1.1173 H   0  0  0  0  0  0  0  0  0  0  0  0
   -4.8126    1.3576    1.6526 H   0  0  0  0  0  0  0  0  0  0  0  0
   -1.0870   -0.1034    0.6599 N   0  0  0  0  0  0  0  0  0  0  0  0
    0.3508   -0.3835    0.4158 C   0  0  2  0  0  0  0  0  0  0  0  0
    0.5428   -0.7984   -1.0560 C   0  0  0  0  0  0  0  0  0  0  0  0
    1.4439   -0.3017   -1.7180 O   0  0  0  0  0  0  0  0  0  0  0  0
    1.0077   -1.4373    1.3184 C   0  0  0  0  0  0  0  0  0  0  0  0
   -1.5382    0.4837   -0.0513 H   0  0  0  0  0  0  0  0  0  0  0  0
    0.8970    0.5532    0.5673 H   0  0  0  0  0  0  0  0  0  0  0  0
    0.5215   -2.4109    1.2004 H   0  0  0  0  0  0  0  0  0  0  0  0
    2.0659   -1.5478    1.0607 H   0  0  0  0  0  0  0  0  0  0  0  0
    0.9443   -1.1338    2.3679 H   0  0  0  0  0  0  0  0  0  0  0  0
   -0.4956   -1.4474   -1.6991 N   0  0  0  0  0  0  0  0  0  0  0  0
   -0.9277   -0.9960   -3.0278 C   0  0  2  0  0  0  0  0  0  0  0  0
   -1.7751    0.2960   -2.9328 C   0  0  0  0  0  0  0  0  0  0  0  0
   -2.2782    0.6323   -1.8611 O   0  0  0  0  0  0  0  0  0  0  0  0
   -1.7369   -2.1256   -3.6676 C   0  0  0  0  0  0  0  0  0  0  0  0
   -1.2476   -1.6975   -1.0616 H   0  0  0  0  0  0  0  0  0  0  0  0
   -0.0561   -0.7932   -3.6598 H   0  0  0  0  0  0  0  0  0  0  0  0
   -2.6301   -2.3445   -3.0732 H   0  0  0  0  0  0  0  0  0  0  0  0
   -2.0512   -1.8459   -4.6778 H   0  0  0  0  0  0  0  0  0  0  0  0
   -1.1305   -3.0342   -3.7342 H   0  0  0  0  0  0  0  0  0  0  0  0
   -1.9628    1.0955   -4.0439 N   0  0  0  0  0  0  0  0  0  0  0  0
   -2.6808    2.3639   -4.0023 C   0  0  0  0  0  0  0  0  0  0  0  0
   -1.4677    0.8402   -4.8938 H   0  0  0  0  0  0  0  0  0  0  0  0
   -3.6921    2.2209   -3.6065 H   0  0  0  0  0  0  0  0  0  0  0  0
   -2.1517    3.0822   -3.3674 H   0  0  0  0  0  0  0  0  0  0  0  0
   -2.7624    2.7852   -5.0088 H   0  0  0  0  0  0  0  0  0  0  0  0
  1  2  2  0  0  0  0
  1  3  1  0  0  0  0
  1  7  1  0  0  0  0
  3  4  1  0  0  0  0
  3  5  1  0  0  0  0
  3  6  1  0  0  0  0
  7  8  1  0  0  0  0
  7 12  1  0  0  0  0
  8  9  1  0  0  0  0
  8 11  1  0  0  0  0
  8 13  1  0  0  0  0
  9 10  2  0  0  0  0
  9 17  1  0  0  0  0
 11 14  1  0  0  0  0
 11 15  1  0  0  0  0
 11 16  1  0  0  0  0
 17 18  1  0  0  0  0
 17 22  1  0  0  0  0
 18 19  1  0  0  0  0
 18 21  1  0  0  0  0
 18 23  1  0  0  0  0
 19 20  2  0  0  0  0
 19 27  1  0  0  0  0
 21 24  1  0  0  0  0
 21 25  1  0  0  0  0
 21 26  1  0  0  0  0
 27 28  1  0  0  0  0
 27 32  1  0  0  0  0
 28 29  1  0  0  0  0
 28 31  1  0  0  0  0
 28 33  1  0  0  0  0
 29 30  2  0  0  0  0
 29 37  1  0  0  0  0
 31 34  1  0  0  0  0
 31 35  1  0  0  0  0
 31 36  1  0  0  0  0
 37 38  1  0  0  0  0
 37 39  1  0  0  0  0
 38 40  1  0  0  0  0
 38 41  1  0  0  0  0
 38 42  1  0  0  0  0
M  END
$$$$

  -OEChem-05262215353D

 42 41  0     1  0  0  0  0  0999 V2000
   -5.6404   -1.4802    2.0879 C   0  0  0  0  0  0  0  0  0  0  0  0
   -6.2377   -0.9552    1.1617 O   0  0  0  0  0  0  0  0  0  0  0  0
   -6.3410   -2.5048    2.9605 C   0  0  0  0  0  0  0  0  0  0  0  0
   -6.2809   -2.2058    4.0097 H   0  0  0  0  0  0  0  0  0  0  0  0
   -7.3943   -2.5848    2.6774 H   0  0  0  0  0  0  0  0  0  0  0  0
   -5.8681   -3.4824    2.8396 H   0  0  0  0  0  0  0  0  0  0  0  0
   -4.3219   -1.1616    2.3335 N   0  0  0  0  0  0  0  0  0  0  0  0
   -3.4888   -0.3349    1.4493 C   0  0  2  0  0  0  0  0  0  0  0  0
   -2.0086   -0.7794    1.4816 C   0  0  0  0  0  0  0  0  0  0  0  0
   -1.6742   -1.6872    2.2326 O   0  0  0  0  0  0  0  0  0  0  0  0
   -3.6306    1.1303    1.8734 C   0  0  0  0  0  0  0  0  0  0  0  0
   -3.8261   -1.7362    3.0143 H   0  0  0  0  0  0  0  0  0  0  0  0
   -3.8341   -0.4382    0.4145 H   0  0  0  0  0  0  0  0  0  0  0  0
   -3.2650    1.2707    2.8954 H   0  0  0  0  0  0  0  0  0  0  0  0
   -3.0604    1.7818    1.2039 H   0  0  0  0  0  0  0  0  0  0  0  0
   -4.6809    1.4358    1.8330 H   0  0  0  0  0  0  0  0  0  0  0  0
   -1.1140   -0.1806    0.6085 N   0  0  0  0  0  0  0  0  0  0  0  0
    0.3220   -0.4513    0.3388 C   0  0  2  0  0  0  0  0  0  0  0  0
    0.5205   -0.8373   -1.1421 C   0  0  0  0  0  0  0  0  0  0  0  0
    1.5474   -0.5087   -1.7204 O   0  0  0  0  0  0  0  0  0  0  0  0
    0.9901   -1.5163    1.2205 C   0  0  0  0  0  0  0  0  0  0  0  0
   -1.5459    0.5144   -0.0117 H   0  0  0  0  0  0  0  0  0  0  0  0
    0.8645    0.4852    0.5044 H   0  0  0  0  0  0  0  0  0  0  0  0
    0.5222   -2.4947    1.0723 H   0  0  0  0  0  0  0  0  0  0  0  0
    2.0517   -1.6030    0.9679 H   0  0  0  0  0  0  0  0  0  0  0  0
    0.9141   -1.2427    2.2771 H   0  0  0  0  0  0  0  0  0  0  0  0
   -0.5906   -1.1882   -1.8867 N   0  0  0  0  0  0  0  0  0  0  0  0
   -0.8758   -0.5088   -3.1557 C   0  0  2  0  0  0  0  0  0  0  0  0
   -1.6103    0.8309   -2.9095 C   0  0  0  0  0  0  0  0  0  0  0  0
   -2.1182    1.0660   -1.8129 O   0  0  0  0  0  0  0  0  0  0  0  0
   -1.7319   -1.4502   -4.0041 C   0  0  0  0  0  0  0  0  0  0  0  0
   -1.4054   -1.3458   -1.2987 H   0  0  0  0  0  0  0  0  0  0  0  0
    0.0532   -0.3009   -3.6975 H   0  0  0  0  0  0  0  0  0  0  0  0
   -2.6808   -1.6652   -3.5019 H   0  0  0  0  0  0  0  0  0  0  0  0
   -1.9473   -0.9995   -4.9775 H   0  0  0  0  0  0  0  0  0  0  0  0
   -1.2027   -2.3941   -4.1696 H   0  0  0  0  0  0  0  0  0  0  0  0
   -1.6990    1.7783   -3.9114 N   0  0  0  0  0  0  0  0  0  0  0  0
   -2.3540    3.0694   -3.7380 C   0  0  0  0  0  0  0  0  0  0  0  0
   -1.2342    1.5774   -4.7926 H   0  0  0  0  0  0  0  0  0  0  0  0
   -3.4107    2.9327   -3.4856 H   0  0  0  0  0  0  0  0  0  0  0  0
   -1.8713    3.6403   -2.9379 H   0  0  0  0  0  0  0  0  0  0  0  0
   -2.2936    3.6516   -4.6625 H   0  0  0  0  0  0  0  0  0  0  0  0
  1  2  2  0  0  0  0
  1  3  1  0  0  0  0
  1  7  1  0  0  0  0
  3  4  1  0  0  0  0
  3  5  1  0  0  0  0
  3  6  1  0  0  0  0
  7  8  1  0  0  0  0
  7 12  1  0  0  0  0
  8  9  1  0  0  0  0
  8 11  1  0  0  0  0
  8 13  1  0  0  0  0
  9 10  2  0  0  0  0
  9 17  1  0  0  0  0
 11 14  1  0  0  0  0
 11 15  1  0  0  0  0
 11 16  1  0  0  0  0
 17 18  1  0  0  0  0
 17 22  1  0  0  0  0
 18 19  1  0  0  0  0
 18 21  1  0  0  0  0
 18 23  1  0  0  0  0
 19 20  2  0  0  0  0
 19 27  1  0  0  0  0
 21 24  1  0  0  0  0
 21 25  1  0  0  0  0
 21 26  1  0  0  0  0
 27 28  1  0  0  0  0
 27 32  1  0  0  0  0
 28 29  1  0  0  0  0
 28 31  1  0  0  0  0
 28 33  1  0  0  0  0
 29 30  2  0  0  0  0
 29 37  1  0  0  0  0
 31 34  1  0  0  0  0
 31 35  1  0  0  0  0
 31 36  1  0  0  0  0
 37 38  1  0  0  0  0
 37 39  1  0  0  0  0
 38 40  1  0  0  0  0
 38 41  1  0  0  0  0
 38 42  1  0  0  0  0
M  END
$$$$

  -OEChem-05262215353D

 42 41  0     1  0  0  0  0  0999 V2000
   -5.6307   -1.3138    2.1683 C   0  0  0  0  0  0  0  0  0  0  0  0
   -6.2270   -0.7255    1.2802 O   0  0  0  0  0  0  0  0  0  0  0  0
   -6.3539   -2.3436    3.0157 C   0  0  0  0  0  0  0  0  0  0  0  0
   -6.3893   -2.0116    4.0562 H   0  0  0  0  0  0  0  0  0  0  0  0
   -7.3768   -2.4786    2.6532 H   0  0  0  0  0  0  0  0  0  0  0  0
   -5.8332   -3.3029    2.9645 H   0  0  0  0  0  0  0  0  0  0  0  0
   -4.2970   -1.0525    2.3992 N   0  0  0  0  0  0  0  0  0  0  0  0
   -3.4554   -0.2145    1.5343 C   0  0  2  0  0  0  0  0  0  0  0  0
   -2.0079   -0.7482    1.4528 C   0  0  0  0  0  0  0  0  0  0  0  0
   -1.6778   -1.6904    2.1622 O   0  0  0  0  0  0  0  0  0  0  0  0
   -3.4801    1.2172    2.0776 C   0  0  0  0  0  0  0  0  0  0  0  0
   -3.8069   -1.6764    3.0396 H   0  0  0  0  0  0  0  0  0  0  0  0
   -3.8559   -0.2149    0.5145 H   0  0  0  0  0  0  0  0  0  0  0  0
   -3.0535    1.2525    3.0850 H   0  0  0  0  0  0  0  0  0  0  0  0
   -2.9039    1.8850    1.4298 H   0  0  0  0  0  0  0  0  0  0  0  0
   -4.5095    1.5873    2.1211 H   0  0  0  0  0  0  0  0  0  0  0  0
   -1.1437   -0.1814    0.5291 N   0  0  0  0  0  0  0  0  0  0  0  0
    0.2808   -0.4663    0.2182 C   0  0  2  0  0  0  0  0  0  0  0  0
    0.4458   -0.9050   -1.2537 C   0  0  0  0  0  0  0  0  0  0  0  0
    1.5383   -0.7938   -1.7936 O   0  0  0  0  0  0  0  0  0  0  0  0
    0.9785   -1.4847    1.1318 C   0  0  0  0  0  0  0  0  0  0  0  0
   -1.5599    0.5796   -0.0198 H   0  0  0  0  0  0  0  0  0  0  0  0
    0.8244    0.4773    0.3289 H   0  0  0  0  0  0  0  0  0  0  0  0
    0.5319   -2.4776    1.0200 H   0  0  0  0  0  0  0  0  0  0  0  0
    2.0402   -1.5568    0.8760 H   0  0  0  0  0  0  0  0  0  0  0  0
    0.9021   -1.1765    2.1787 H   0  0  0  0  0  0  0  0  0  0  0  0
   -0.6832   -0.9783   -2.0485 N   0  0  0  0  0  0  0  0  0  0  0  0
   -0.7983   -0.1388   -3.2462 C   0  0  2  0  0  0  0  0  0  0  0  0
   -1.3870    1.2443   -2.8801 C   0  0  0  0  0  0  0  0  0  0  0  0
   -1.9271    1.4151   -1.7868 O   0  0  0  0  0  0  0  0  0  0  0  0
   -1.6974   -0.8674   -4.2468 C   0  0  0  0  0  0  0  0  0  0  0  0
   -1.5311   -1.0134   -1.4877 H   0  0  0  0  0  0  0  0  0  0  0  0
    0.1830    0.0138   -3.7084 H   0  0  0  0  0  0  0  0  0  0  0  0
   -2.6963   -1.0220   -3.8258 H   0  0  0  0  0  0  0  0  0  0  0  0
   -1.7945   -0.2864   -5.1689 H   0  0  0  0  0  0  0  0  0  0  0  0
   -1.2694   -1.8433   -4.4973 H   0  0  0  0  0  0  0  0  0  0  0  0
   -1.2950    2.3035   -3.7625 N   0  0  0  0  0  0  0  0  0  0  0  0
   -1.7841    3.6435   -3.4604 C   0  0  0  0  0  0  0  0  0  0  0  0
   -0.7935    2.1482   -4.6327 H   0  0  0  0  0  0  0  0  0  0  0  0
   -2.8562    3.6204   -3.2381 H   0  0  0  0  0  0  0  0  0  0  0  0
   -1.2540    4.0595   -2.5973 H   0  0  0  0  0  0  0  0  0  0  0  0
   -1.6245    4.3063   -4.3162 H   0  0  0  0  0  0  0  0  0  0  0  0
  1  2  2  0  0  0  0
  1  3  1  0  0  0  0
  1  7  1  0  0  0  0
  3  4  1  0  0  0  0
  3  5  1  0  0  0  0
  3  6  1  0  0  0  0
  7  8  1  0  0  0  0
  7 12  1  0  0  0  0
  8  9  1  0  0  0  0
  8 11  1  0  0  0  0
  8 13  1  0  0  0  0
  9 10  2  0  0  0  0
  9 17  1  0  0  0  0
 11 14  1  0  0  0  0
 11 15  1  0  0  0  0
 11 16  1  0  0  0  0
 17 18  1  0  0  0  0
 17 22  1  0  0  0  0
 18 19  1  0  0  0  0
 18 21  1  0  0  0  0
 18 23  1  0  0  0  0
 19 20  2  0  0  0  0
 19 27  1  0  0  0  0
 21 24  1  0  0  0  0
 21 25  1  0  0  0  0
 21 26  1  0  0  0  0
 27 28  1  0  0  0  0
 27 32  1  0  0  0  0
 28 29  1  0  0  0  0
 28 31  1  0  0  0  0
 28 33  1  0  0  0  0
 29 30  2  0  0  0  0
 29 37  1  0  0  0  0
 31 34  1  0  0  0  0
 31 35  1  0  0  0  0
 31 36  1  0  0  0  0
 37 38  1  0  0  0  0
 37 39  1  0  0  0  0
 38 40  1  0  0  0  0
 38 41  1  0  0  0  0
 38 42  1  0  0  0  0
M  END
$$$$

  -OEChem-05262215353D

 42 41  0     1  0  0  0  0  0999 V2000
   -5.5867   -0.9534    1.9460 C   0  0  0  0  0  0  0  0  0  0  0  0
   -5.8927    0.0563    1.3321 O   0  0  0  0  0  0  0  0  0  0  0  0
   -6.5570   -2.1169    2.0234 C   0  0  0  0  0  0  0  0  0  0  0  0
   -6.7966   -2.3338    3.0672 H   0  0  0  0  0  0  0  0  0  0  0  0
   -7.4814   -1.8724    1.4928 H   0  0  0  0  0  0  0  0  0  0  0  0
   -6.1125   -3.0043    1.5659 H   0  0  0  0  0  0  0  0  0  0  0  0
   -4.3552   -1.0521    2.5594 N   0  0  0  0  0  0  0  0  0  0  0  0
   -3.2462   -0.1142    2.3328 C   0  0  2  0  0  0  0  0  0  0  0  0
   -1.9990   -0.8348    1.7771 C   0  0  0  0  0  0  0  0  0  0  0  0
   -1.8734   -2.0341    1.9871 O   0  0  0  0  0  0  0  0  0  0  0  0
   -2.9243    0.5598    3.6679 C   0  0  0  0  0  0  0  0  0  0  0  0
   -4.0918   -1.9830    2.8793 H   0  0  0  0  0  0  0  0  0  0  0  0
   -3.5339    0.6557    1.6091 H   0  0  0  0  0  0  0  0  0  0  0  0
   -2.6188   -0.1859    4.4091 H   0  0  0  0  0  0  0  0  0  0  0  0
   -2.1135    1.2846    3.5475 H   0  0  0  0  0  0  0  0  0  0  0  0
   -3.8057    1.0871    4.0464 H   0  0  0  0  0  0  0  0  0  0  0  0
   -1.0792   -0.1093    1.0312 N   0  0  0  0  0  0  0  0  0  0  0  0
    0.2663   -0.5039    0.5336 C   0  0  2  0  0  0  0  0  0  0  0  0
    0.3502   -0.4419   -1.0110 C   0  0  0  0  0  0  0  0  0  0  0  0
    1.3412   -0.8451   -1.6059 O   0  0  0  0  0  0  0  0  0  0  0  0
    0.8036   -1.8506    1.0504 C   0  0  0  0  0  0  0  0  0  0  0  0
   -1.3018    0.8809    0.9614 H   0  0  0  0  0  0  0  0  0  0  0  0
    0.9647    0.2550    0.8996 H   0  0  0  0  0  0  0  0  0  0  0  0
    0.2259   -2.6833    0.6364 H   0  0  0  0  0  0  0  0  0  0  0  0
    1.8489   -1.9829    0.7541 H   0  0  0  0  0  0  0  0  0  0  0  0
    0.7555   -1.8911    2.1426 H   0  0  0  0  0  0  0  0  0  0  0  0
   -0.6226    0.2278   -1.7275 N   0  0  0  0  0  0  0  0  0  0  0  0
   -0.5055    0.6561   -3.1251 C   0  0  2  0  0  0  0  0  0  0  0  0
   -1.1063    2.0650   -3.3174 C   0  0  0  0  0  0  0  0  0  0  0  0
   -1.7326    2.5949   -2.4041 O   0  0  0  0  0  0  0  0  0  0  0  0
   -1.2231   -0.3763   -3.9985 C   0  0  0  0  0  0  0  0  0  0  0  0
   -1.3793    0.6444   -1.1900 H   0  0  0  0  0  0  0  0  0  0  0  0
    0.5483    0.7065   -3.4184 H   0  0  0  0  0  0  0  0  0  0  0  0
   -2.2834   -0.4338   -3.7318 H   0  0  0  0  0  0  0  0  0  0  0  0
   -1.1428   -0.1098   -5.0563 H   0  0  0  0  0  0  0  0  0  0  0  0
   -0.7745   -1.3652   -3.8576 H   0  0  0  0  0  0  0  0  0  0  0  0
   -0.9292    2.7507   -4.5047 N   0  0  0  0  0  0  0  0  0  0  0  0
   -1.4666    4.0844   -4.7459 C   0  0  0  0  0  0  0  0  0  0  0  0
   -0.3940    2.2947   -5.2380 H   0  0  0  0  0  0  0  0  0  0  0  0
   -2.5563    4.0840   -4.6348 H   0  0  0  0  0  0  0  0  0  0  0  0
   -1.0399    4.8030   -4.0381 H   0  0  0  0  0  0  0  0  0  0  0  0
   -1.2237    4.4130   -5.7613 H   0  0  0  0  0  0  0  0  0  0  0  0
  1  2  2  0  0  0  0
  1  3  1  0  0  0  0
  1  7  1  0  0  0  0
  3  4  1  0  0  0  0
  3  5  1  0  0  0  0
  3  6  1  0  0  0  0
  7  8  1  0  0  0  0
  7 12  1  0  0  0  0
  8  9  1  0  0  0  0
  8 11  1  0  0  0  0
  8 13  1  0  0  0  0
  9 10  2  0  0  0  0
  9 17  1  0  0  0  0
 11 14  1  0  0  0  0
 11 15  1  0  0  0  0
 11 16  1  0  0  0  0
 17 18  1  0  0  0  0
 17 22  1  0  0  0  0
 18 19  1  0  0  0  0
 18 21  1  0  0  0  0
 18 23  1  0  0  0  0
 19 20  2  0  0  0  0
 19 27  1  0  0  0  0
 21 24  1  0  0  0  0
 21 25  1  0  0  0  0
 21 26  1  0  0  0  0
 27 28  1  0  0  0  0
 27 32  1  0  0  0  0
 28 29  1  0  0  0  0
 28 31  1  0  0  0  0
 28 33  1  0  0  0  0
 29 30  2  0  0  0  0
 29 37  1  0  0  0  0
 31 34  1  0  0  0  0
 31 35  1  0  0  0  0
 31 36  1  0  0  0  0
 37 38  1  0  0  0  0
 37 39  1  0  0  0  0
 38 40  1  0  0  0  0
 38 41  1  0  0  0  0
 38 42  1  0  0  0  0
M  END
$$$$

  -OEChem-05262215353D

 42 41  0     1  0  0  0  0  0999 V2000
   -5.5807   -0.9347    1.9019 C   0  0  0  0  0  0  0  0  0  0  0  0
   -5.8777    0.0820    1.2948 O   0  0  0  0  0  0  0  0  0  0  0  0
   -6.5499   -2.1005    1.9501 C   0  0  0  0  0  0  0  0  0  0  0  0
   -6.7987   -2.3371    2.9875 H   0  0  0  0  0  0  0  0  0  0  0  0
   -7.4701   -1.8494    1.4155 H   0  0  0  0  0  0  0  0  0  0  0  0
   -6.0993   -2.9784    1.4808 H   0  0  0  0  0  0  0  0  0  0  0  0
   -4.3589   -1.0401    2.5329 N   0  0  0  0  0  0  0  0  0  0  0  0
   -3.2430   -0.1077    2.3189 C   0  0  2  0  0  0  0  0  0  0  0  0
   -1.9947   -0.8347    1.7737 C   0  0  0  0  0  0  0  0  0  0  0  0
   -1.8862   -2.0381    1.9693 O   0  0  0  0  0  0  0  0  0  0  0  0
   -2.9316    0.5666    3.6566 C   0  0  0  0  0  0  0  0  0  0  0  0
   -4.1012   -1.9761    2.8426 H   0  0  0  0  0  0  0  0  0  0  0  0
   -3.5192    0.6636    1.5923 H   0  0  0  0  0  0  0  0  0  0  0  0
   -2.6375   -0.1788    4.4027 H   0  0  0  0  0  0  0  0  0  0  0  0
   -2.1163    1.2876    3.5435 H   0  0  0  0  0  0  0  0  0  0  0  0
   -3.8144    1.0985    4.0248 H   0  0  0  0  0  0  0  0  0  0  0  0
   -1.0536   -0.1057    1.0581 N   0  0  0  0  0  0  0  0  0  0  0  0
    0.2816   -0.5161    0.5471 C   0  0  2  0  0  0  0  0  0  0  0  0
    0.3670   -0.3936   -0.9958 C   0  0  0  0  0  0  0  0  0  0  0  0
    1.1762   -1.0415   -1.6477 O   0  0  0  0  0  0  0  0  0  0  0  0
    0.7903   -1.8885    1.0266 C   0  0  0  0  0  0  0  0  0  0  0  0
   -1.2651    0.8867    1.0048 H   0  0  0  0  0  0  0  0  0  0  0  0
    0.9960    0.2134    0.9405 H   0  0  0  0  0  0  0  0  0  0  0  0
    0.1959   -2.6964    0.5877 H   0  0  0  0  0  0  0  0  0  0  0  0
    1.8333   -2.0334    0.7278 H   0  0  0  0  0  0  0  0  0  0  0  0
    0.7396   -1.9604    2.1171 H   0  0  0  0  0  0  0  0  0  0  0  0
   -0.3814    0.5642   -1.6543 N   0  0  0  0  0  0  0  0  0  0  0  0
   -0.2182    0.9480   -3.0608 C   0  0  2  0  0  0  0  0  0  0  0  0
   -0.4901    2.4545   -3.2554 C   0  0  0  0  0  0  0  0  0  0  0  0
   -0.9701    3.1152   -2.3387 O   0  0  0  0  0  0  0  0  0  0  0  0
   -1.1799    0.1033   -3.9017 C   0  0  0  0  0  0  0  0  0  0  0  0
   -0.9616    1.1763   -1.0865 H   0  0  0  0  0  0  0  0  0  0  0  0
    0.8102    0.7566   -3.3856 H   0  0  0  0  0  0  0  0  0  0  0  0
   -2.2165    0.2900   -3.6026 H   0  0  0  0  0  0  0  0  0  0  0  0
   -1.0748    0.3416   -4.9642 H   0  0  0  0  0  0  0  0  0  0  0  0
   -0.9645   -0.9614   -3.7646 H   0  0  0  0  0  0  0  0  0  0  0  0
   -0.1736    3.0763   -4.4488 N   0  0  0  0  0  0  0  0  0  0  0  0
   -0.3743    4.5002   -4.6888 C   0  0  0  0  0  0  0  0  0  0  0  0
    0.2425    2.5068   -5.1803 H   0  0  0  0  0  0  0  0  0  0  0  0
   -1.4281    4.7673   -4.5562 H   0  0  0  0  0  0  0  0  0  0  0  0
    0.2303    5.0944   -3.9954 H   0  0  0  0  0  0  0  0  0  0  0  0
   -0.0798    4.7561   -5.7113 H   0  0  0  0  0  0  0  0  0  0  0  0
  1  2  2  0  0  0  0
  1  3  1  0  0  0  0
  1  7  1  0  0  0  0
  3  4  1  0  0  0  0
  3  5  1  0  0  0  0
  3  6  1  0  0  0  0
  7  8  1  0  0  0  0
  7 12  1  0  0  0  0
  8  9  1  0  0  0  0
  8 11  1  0  0  0  0
  8 13  1  0  0  0  0
  9 10  2  0  0  0  0
  9 17  1  0  0  0  0
 11 14  1  0  0  0  0
 11 15  1  0  0  0  0
 11 16  1  0  0  0  0
 17 18  1  0  0  0  0
 17 22  1  0  0  0  0
 18 19  1  0  0  0  0
 18 21  1  0  0  0  0
 18 23  1  0  0  0  0
 19 20  2  0  0  0  0
 19 27  1  0  0  0  0
 21 24  1  0  0  0  0
 21 25  1  0  0  0  0
 21 26  1  0  0  0  0
 27 28  1  0  0  0  0
 27 32  1  0  0  0  0
 28 29  1  0  0  0  0
 28 31  1  0  0  0  0
 28 33  1  0  0  0  0
 29 30  2  0  0  0  0
 29 37  1  0  0  0  0
 31 34  1  0  0  0  0
 31 35  1  0  0  0  0
 31 36  1  0  0  0  0
 37 38  1  0  0  0  0
 37 39  1  0  0  0  0
 38 40  1  0  0  0  0
 38 41  1  0  0  0  0
 38 42  1  0  0  0  0
M  END
$$$$

  -OEChem-05262215353D

 42 41  0     1  0  0  0  0  0999 V2000
   -5.5652   -0.9468    1.8388 C   0  0  0  0  0  0  0  0  0  0  0  0
   -5.8765    0.0671    1.2340 O   0  0  0  0  0  0  0  0  0  0  0  0
   -6.5236   -2.1219    1.8953 C   0  0  0  0  0  0  0  0  0  0  0  0
   -6.7435   -2.3759    2.9351 H   0  0  0  0  0  0  0  0  0  0  0  0
   -7.4598   -1.8703    1.3889 H   0  0  0  0  0  0  0  0  0  0  0  0
   -6.0784   -2.9895    1.4017 H   0  0  0  0  0  0  0  0  0  0  0  0
   -4.3345   -1.0390    2.4548 N   0  0  0  0  0  0  0  0  0  0  0  0
   -3.2319   -0.0923    2.2343 C   0  0  2  0  0  0  0  0  0  0  0  0
   -1.9411   -0.8188    1.7982 C   0  0  0  0  0  0  0  0  0  0  0  0
   -1.8135   -2.0019    2.0850 O   0  0  0  0  0  0  0  0  0  0  0  0
   -3.0020    0.6780    3.5367 C   0  0  0  0  0  0  0  0  0  0  0  0
   -4.0654   -1.9661    2.7820 H   0  0  0  0  0  0  0  0  0  0  0  0
   -3.4910    0.6192    1.4434 H   0  0  0  0  0  0  0  0  0  0  0  0
   -2.7223   -0.0075    4.3435 H   0  0  0  0  0  0  0  0  0  0  0  0
   -2.2025    1.4148    3.4119 H   0  0  0  0  0  0  0  0  0  0  0  0
   -3.9155    1.2062    3.8282 H   0  0  0  0  0  0  0  0  0  0  0  0
   -0.9803   -0.1063    1.0917 N   0  0  0  0  0  0  0  0  0  0  0  0
    0.3407   -0.5418    0.5665 C   0  0  2  0  0  0  0  0  0  0  0  0
    0.4055   -0.3836   -0.9744 C   0  0  0  0  0  0  0  0  0  0  0  0
    0.9182   -1.2289   -1.6967 O   0  0  0  0  0  0  0  0  0  0  0  0
    0.8143   -1.9384    1.0110 C   0  0  0  0  0  0  0  0  0  0  0  0
   -1.2380    0.8604    0.9173 H   0  0  0  0  0  0  0  0  0  0  0  0
    1.0789    0.1574    0.9704 H   0  0  0  0  0  0  0  0  0  0  0  0
    0.1732   -2.7179    0.5870 H   0  0  0  0  0  0  0  0  0  0  0  0
    1.8387   -2.1188    0.6703 H   0  0  0  0  0  0  0  0  0  0  0  0
    0.8016   -2.0216    2.1018 H   0  0  0  0  0  0  0  0  0  0  0  0
   -0.0642    0.7772   -1.5622 N   0  0  0  0  0  0  0  0  0  0  0  0
    0.0966    1.1227   -2.9800 C   0  0  2  0  0  0  0  0  0  0  0  0
    0.2447    2.6480   -3.1610 C   0  0  0  0  0  0  0  0  0  0  0  0
    0.0315    3.3991   -2.2138 O   0  0  0  0  0  0  0  0  0  0  0  0
   -1.1207    0.5964   -3.7467 C   0  0  0  0  0  0  0  0  0  0  0  0
   -0.3130    1.5469   -0.9448 H   0  0  0  0  0  0  0  0  0  0  0  0
    1.0040    0.6570   -3.3788 H   0  0  0  0  0  0  0  0  0  0  0  0
   -2.0390    1.0634   -3.3762 H   0  0  0  0  0  0  0  0  0  0  0  0
   -1.0257    0.8119   -4.8151 H   0  0  0  0  0  0  0  0  0  0  0  0
   -1.2069   -0.4879   -3.6211 H   0  0  0  0  0  0  0  0  0  0  0  0
    0.6368    3.1796   -4.3755 N   0  0  0  0  0  0  0  0  0  0  0  0
    0.8196    4.6081   -4.6038 C   0  0  0  0  0  0  0  0  0  0  0  0
    0.8288    2.5312   -5.1338 H   0  0  0  0  0  0  0  0  0  0  0  0
   -0.1016    5.1542   -4.3743 H   0  0  0  0  0  0  0  0  0  0  0  0
    1.6263    4.9966   -3.9733 H   0  0  0  0  0  0  0  0  0  0  0  0
    1.0784    4.7943   -5.6507 H   0  0  0  0  0  0  0  0  0  0  0  0
  1  2  2  0  0  0  0
  1  3  1  0  0  0  0
  1  7  1  0  0  0  0
  3  4  1  0  0  0  0
  3  5  1  0  0  0  0
  3  6  1  0  0  0  0
  7  8  1  0  0  0  0
  7 12  1  0  0  0  0
  8  9  1  0  0  0  0
  8 11  1  0  0  0  0
  8 13  1  0  0  0  0
  9 10  2  0  0  0  0
  9 17  1  0  0  0  0
 11 14  1  0  0  0  0
 11 15  1  0  0  0  0
 11 16  1  0  0  0  0
 17 18  1  0  0  0  0
 17 22  1  0  0  0  0
 18 19  1  0  0  0  0
 18 21  1  0  0  0  0
 18 23  1  0  0  0  0
 19 20  2  0  0  0  0
 19 27  1  0  0  0  0
 21 24  1  0  0  0  0
 21 25  1  0  0  0  0
 21 26  1  0  0  0  0
 27 28  1  0  0  0  0
 27 32  1  0  0  0  0
 28 29  1  0  0  0  0
 28 31  1  0  0  0  0
 28 33  1  0  0  0  0
 29 30  2  0  0  0  0
 29 37  1  0  0  0  0
 31 34  1  0  0  0  0
 31 35  1  0  0  0  0
 31 36  1  0  0  0  0
 37 38  1  0  0  0  0
 37 39  1  0  0  0  0
 38 40  1  0  0  0  0
 38 41  1  0  0  0  0
 38 42  1  0  0  0  0
M  END
$$$$

  -OEChem-05262215353D

 42 41  0     1  0  0  0  0  0999 V2000
   -5.5486   -0.9435    1.8112 C   0  0  0  0  0  0  0  0  0  0  0  0
   -5.8807    0.0801    1.2341 O   0  0  0  0  0  0  0  0  0  0  0  0
   -6.5034   -2.1205    1.8834 C   0  0  0  0  0  0  0  0  0  0  0  0
   -6.6982   -2.3794    2.9268 H   0  0  0  0  0  0  0  0  0  0  0  0
   -7.4516   -1.8689    1.3999 H   0  0  0  0  0  0  0  0  0  0  0  0
   -6.0678   -2.9847    1.3755 H   0  0  0  0  0  0  0  0  0  0  0  0
   -4.2974   -1.0434    2.3821 N   0  0  0  0  0  0  0  0  0  0  0  0
   -3.2108   -0.0799    2.1607 C   0  0  2  0  0  0  0  0  0  0  0  0
   -1.8845   -0.7943    1.8219 C   0  0  0  0  0  0  0  0  0  0  0  0
   -1.7343   -1.9512    2.1931 O   0  0  0  0  0  0  0  0  0  0  0  0
   -3.0612    0.7677    3.4263 C   0  0  0  0  0  0  0  0  0  0  0  0
   -4.0164   -1.9689    2.7051 H   0  0  0  0  0  0  0  0  0  0  0  0
   -3.4532    0.5770    1.3187 H   0  0  0  0  0  0  0  0  0  0  0  0
   -2.8064    0.1355    4.2831 H   0  0  0  0  0  0  0  0  0  0  0  0
   -2.2726    1.5150    3.2974 H   0  0  0  0  0  0  0  0  0  0  0  0
   -3.9989    1.2888    3.6441 H   0  0  0  0  0  0  0  0  0  0  0  0
   -0.9149   -0.0980    1.1115 N   0  0  0  0  0  0  0  0  0  0  0  0
    0.3937   -0.5565    0.5786 C   0  0  2  0  0  0  0  0  0  0  0  0
    0.4306   -0.3863   -0.9601 C   0  0  0  0  0  0  0  0  0  0  0  0
    0.6230   -1.3238   -1.7234 O   0  0  0  0  0  0  0  0  0  0  0  0
    0.8413   -1.9698    0.9960 C   0  0  0  0  0  0  0  0  0  0  0  0
   -1.2096    0.8324    0.8288 H   0  0  0  0  0  0  0  0  0  0  0  0
    1.1525    0.1204    0.9821 H   0  0  0  0  0  0  0  0  0  0  0  0
    0.1581   -2.7275    0.5985 H   0  0  0  0  0  0  0  0  0  0  0  0
    1.8434   -2.1790    0.6085 H   0  0  0  0  0  0  0  0  0  0  0  0
    0.8736   -2.0586    2.0861 H   0  0  0  0  0  0  0  0  0  0  0  0
    0.2703    0.8770   -1.4997 N   0  0  0  0  0  0  0  0  0  0  0  0
    0.4346    1.2026   -2.9222 C   0  0  2  0  0  0  0  0  0  0  0  0
    0.9722    2.6381   -3.0991 C   0  0  0  0  0  0  0  0  0  0  0  0
    1.0062    3.4000   -2.1374 O   0  0  0  0  0  0  0  0  0  0  0  0
   -0.9201    1.0383   -3.6183 C   0  0  0  0  0  0  0  0  0  0  0  0
    0.3050    1.6677   -0.8578 H   0  0  0  0  0  0  0  0  0  0  0  0
    1.1614    0.5226   -3.3797 H   0  0  0  0  0  0  0  0  0  0  0  0
   -1.6596    1.7194   -3.1850 H   0  0  0  0  0  0  0  0  0  0  0  0
   -0.8323    1.2531   -4.6875 H   0  0  0  0  0  0  0  0  0  0  0  0
   -1.2824    0.0117   -3.5031 H   0  0  0  0  0  0  0  0  0  0  0  0
    1.4444    3.0678   -4.3253 N   0  0  0  0  0  0  0  0  0  0  0  0
    2.0193    4.3899   -4.5428 C   0  0  0  0  0  0  0  0  0  0  0  0
    1.4395    2.4012   -5.0923 H   0  0  0  0  0  0  0  0  0  0  0  0
    1.3050    5.1711   -4.2615 H   0  0  0  0  0  0  0  0  0  0  0  0
    2.9299    4.5132   -3.9470 H   0  0  0  0  0  0  0  0  0  0  0  0
    2.2752    4.5223   -5.5986 H   0  0  0  0  0  0  0  0  0  0  0  0
  1  2  2  0  0  0  0
  1  3  1  0  0  0  0
  1  7  1  0  0  0  0
  3  4  1  0  0  0  0
  3  5  1  0  0  0  0
  3  6  1  0  0  0  0
  7  8  1  0  0  0  0
  7 12  1  0  0  0  0
  8  9  1  0  0  0  0
  8 11  1  0  0  0  0
  8 13  1  0  0  0  0
  9 10  2  0  0  0  0
  9 17  1  0  0  0  0
 11 14  1  0  0  0  0
 11 15  1  0  0  0  0
 11 16  1  0  0  0  0
 17 18  1  0  0  0  0
 17 22  1  0  0  0  0
 18 19  1  0  0  0  0
 18 21  1  0  0  0  0
 18 23  1  0  0  0  0
 19 20  2  0  0  0  0
 19 27  1  0  0  0  0
 21 24  1  0  0  0  0
 21 25  1  0  0  0  0
 21 26  1  0  0  0  0
 27 28  1  0  0  0  0
 27 32  1  0  0  0  0
 28 29  1  0  0  0  0
 28 31  1  0  0  0  0
 28 33  1  0  0  0  0
 29 30  2  0  0  0  0
 29 37  1  0  0  0  0
 31 34  1  0  0  0  0
 31 35  1  0  0  0  0
 31 36  1  0  0  0  0
 37 38  1  0  0  0  0
 37 39  1  0  0  0  0
 38 40  1  0  0  0  0
 38 41  1  0  0  0  0
 38 42  1  0  0  0  0
M  END
$$$$

  -OEChem-05262215353D

 42 41  0     1  0  0  0  0  0999 V2000
   -5.5756   -0.9469    1.8515 C   0  0  0  0  0  0  0  0  0  0  0  0
   -5.9348    0.0969    1.3291 O   0  0  0  0  0  0  0  0  0  0  0  0
   -6.5606   -2.0869    2.0301 C   0  0  0  0  0  0  0  0  0  0  0  0
   -6.6934   -2.3022    3.0932 H   0  0  0  0  0  0  0  0  0  0  0  0
   -7.5297   -1.8170    1.6011 H   0  0  0  0  0  0  0  0  0  0  0  0
   -6.1906   -2.9837    1.5269 H   0  0  0  0  0  0  0  0  0  0  0  0
   -4.2717   -1.0928    2.2749 N   0  0  0  0  0  0  0  0  0  0  0  0
   -3.2025   -0.1220    2.0107 C   0  0  2  0  0  0  0  0  0  0  0  0
   -1.8393   -0.8152    1.7983 C   0  0  0  0  0  0  0  0  0  0  0  0
   -1.6808   -1.9458    2.2406 O   0  0  0  0  0  0  0  0  0  0  0  0
   -3.1353    0.8520    3.1902 C   0  0  0  0  0  0  0  0  0  0  0  0
   -3.9818   -2.0163    2.5958 H   0  0  0  0  0  0  0  0  0  0  0  0
   -3.4318    0.4350    1.0959 H   0  0  0  0  0  0  0  0  0  0  0  0
   -2.9071    0.3150    4.1165 H   0  0  0  0  0  0  0  0  0  0  0  0
   -2.3604    1.6064    3.0241 H   0  0  0  0  0  0  0  0  0  0  0  0
   -4.0951    1.3642    3.3116 H   0  0  0  0  0  0  0  0  0  0  0  0
   -0.8439   -0.1246    1.1196 N   0  0  0  0  0  0  0  0  0  0  0  0
    0.4639   -0.6007    0.6053 C   0  0  2  0  0  0  0  0  0  0  0  0
    0.5160   -0.3969   -0.9267 C   0  0  0  0  0  0  0  0  0  0  0  0
    0.3745   -1.3204   -1.7172 O   0  0  0  0  0  0  0  0  0  0  0  0
    0.8630   -2.0404    0.9777 C   0  0  0  0  0  0  0  0  0  0  0  0
   -1.1444    0.7852    0.7806 H   0  0  0  0  0  0  0  0  0  0  0  0
    1.2353    0.0425    1.0386 H   0  0  0  0  0  0  0  0  0  0  0  0
    0.1414   -2.7617    0.5802 H   0  0  0  0  0  0  0  0  0  0  0  0
    1.8464   -2.2798    0.5620 H   0  0  0  0  0  0  0  0  0  0  0  0
    0.9155   -2.1557    2.0645 H   0  0  0  0  0  0  0  0  0  0  0  0
    0.6994    0.8782   -1.4289 N   0  0  0  0  0  0  0  0  0  0  0  0
    0.8544    1.1964   -2.8542 C   0  0  2  0  0  0  0  0  0  0  0  0
    1.7312    2.4506   -3.0525 C   0  0  0  0  0  0  0  0  0  0  0  0
    1.9998    3.1659   -2.0924 O   0  0  0  0  0  0  0  0  0  0  0  0
   -0.5375    1.4091   -3.4585 C   0  0  0  0  0  0  0  0  0  0  0  0
    0.9697    1.6107   -0.7730 H   0  0  0  0  0  0  0  0  0  0  0  0
    1.3499    0.3649   -3.3671 H   0  0  0  0  0  0  0  0  0  0  0  0
   -1.0461    2.2426   -2.9638 H   0  0  0  0  0  0  0  0  0  0  0  0
   -0.4635    1.6306   -4.5272 H   0  0  0  0  0  0  0  0  0  0  0  0
   -1.1465    0.5076   -3.3365 H   0  0  0  0  0  0  0  0  0  0  0  0
    2.2300    2.7713   -4.3016 N   0  0  0  0  0  0  0  0  0  0  0  0
    3.0799    3.9295   -4.5517 C   0  0  0  0  0  0  0  0  0  0  0  0
    2.0096    2.1466   -5.0722 H   0  0  0  0  0  0  0  0  0  0  0  0
    2.5658    4.8527   -4.2639 H   0  0  0  0  0  0  0  0  0  0  0  0
    4.0112    3.8520   -3.9807 H   0  0  0  0  0  0  0  0  0  0  0  0
    3.3304    3.9922   -5.6151 H   0  0  0  0  0  0  0  0  0  0  0  0
  1  2  2  0  0  0  0
  1  3  1  0  0  0  0
  1  7  1  0  0  0  0
  3  4  1  0  0  0  0
  3  5  1  0  0  0  0
  3  6  1  0  0  0  0
  7  8  1  0  0  0  0
  7 12  1  0  0  0  0
  8  9  1  0  0  0  0
  8 11  1  0  0  0  0
  8 13  1  0  0  0  0
  9 10  2  0  0  0  0
  9 17  1  0  0  0  0
 11 14  1  0  0  0  0
 11 15  1  0  0  0  0
 11 16  1  0  0  0  0
 17 18  1  0  0  0  0
 17 22  1  0  0  0  0
 18 19  1  0  0  0  0
 18 21  1  0  0  0  0
 18 23  1  0  0  0  0
 19 20  2  0  0  0  0
 19 27  1  0  0  0  0
 21 24  1  0  0  0  0
 21 25  1  0  0  0  0
 21 26  1  0  0  0  0
 27 28  1  0  0  0  0
 27 32  1  0  0  0  0
 28 29  1  0  0  0  0
 28 31  1  0  0  0  0
 28 33  1  0  0  0  0
 29 30  2  0  0  0  0
 29 37  1  0  0  0  0
 31 34  1  0  0  0  0
 31 35  1  0  0  0  0
 31 36  1  0  0  0  0
 37 38  1  0  0  0  0
 37 39  1  0  0  0  0
 38 40  1  0  0  0  0
 38 41  1  0  0  0  0
 38 42  1  0  0  0  0
M  END
$$$$

  -OEChem-05262215353D

 42 41  0     1  0  0  0  0  0999 V2000
   -5.5733   -0.9655    1.8553 C   0  0  0  0  0  0  0  0  0  0  0  0
   -5.9476    0.0786    1.3443 O   0  0  0  0  0  0  0  0  0  0  0  0
   -6.5360   -2.1278    2.0096 C   0  0  0  0  0  0  0  0  0  0  0  0
   -6.6300   -2.3972    3.0646 H   0  0  0  0  0  0  0  0  0  0  0  0
   -7.5228   -1.8538    1.6259 H   0  0  0  0  0  0  0  0  0  0  0  0
   -6.1688   -2.9922    1.4508 H   0  0  0  0  0  0  0  0  0  0  0  0
   -4.2692   -1.0948    2.2827 N   0  0  0  0  0  0  0  0  0  0  0  0
   -3.2110   -0.1103    2.0246 C   0  0  2  0  0  0  0  0  0  0  0  0
   -1.8386   -0.7884    1.8230 C   0  0  0  0  0  0  0  0  0  0  0  0
   -1.6689   -1.9130    2.2771 O   0  0  0  0  0  0  0  0  0  0  0  0
   -3.1627    0.8660    3.2032 C   0  0  0  0  0  0  0  0  0  0  0  0
   -3.9673   -2.0173    2.5950 H   0  0  0  0  0  0  0  0  0  0  0  0
   -3.4402    0.4421    1.1072 H   0  0  0  0  0  0  0  0  0  0  0  0
   -2.9351    0.3326    4.1316 H   0  0  0  0  0  0  0  0  0  0  0  0
   -2.3945    1.6283    3.0420 H   0  0  0  0  0  0  0  0  0  0  0  0
   -4.1293    1.3674    3.3166 H   0  0  0  0  0  0  0  0  0  0  0  0
   -0.8457   -0.0914    1.1468 N   0  0  0  0  0  0  0  0  0  0  0  0
    0.4605   -0.5664    0.6290 C   0  0  2  0  0  0  0  0  0  0  0  0
    0.5169   -0.3574   -0.9014 C   0  0  0  0  0  0  0  0  0  0  0  0
    0.0776   -1.1909   -1.6824 O   0  0  0  0  0  0  0  0  0  0  0  0
    0.8549   -2.0136    0.9736 C   0  0  0  0  0  0  0  0  0  0  0  0
   -1.1548    0.8099    0.7933 H   0  0  0  0  0  0  0  0  0  0  0  0
    1.2329    0.0679    1.0739 H   0  0  0  0  0  0  0  0  0  0  0  0
    0.1260   -2.7242    0.5698 H   0  0  0  0  0  0  0  0  0  0  0  0
    1.8338   -2.2512    0.5461 H   0  0  0  0  0  0  0  0  0  0  0  0
    0.9162   -2.1475    2.0580 H   0  0  0  0  0  0  0  0  0  0  0  0
    1.0067    0.8305   -1.4106 N   0  0  0  0  0  0  0  0  0  0  0  0
    1.2035    1.0993   -2.8412 C   0  0  2  0  0  0  0  0  0  0  0  0
    2.3969    2.0502   -3.0706 C   0  0  0  0  0  0  0  0  0  0  0  0
    2.9014    2.6390   -2.1199 O   0  0  0  0  0  0  0  0  0  0  0  0
   -0.0874    1.6995   -3.4074 C   0  0  0  0  0  0  0  0  0  0  0  0
    1.4878    1.4572   -0.7656 H   0  0  0  0  0  0  0  0  0  0  0  0
    1.4266    0.1642   -3.3662 H   0  0  0  0  0  0  0  0  0  0  0  0
   -0.3253    2.6420   -2.9039 H   0  0  0  0  0  0  0  0  0  0  0  0
    0.0165    1.8929   -4.4792 H   0  0  0  0  0  0  0  0  0  0  0  0
   -0.9227    1.0064   -3.2635 H   0  0  0  0  0  0  0  0  0  0  0  0
    2.9196    2.2312   -4.3376 N   0  0  0  0  0  0  0  0  0  0  0  0
    4.0635    3.0910   -4.6167 C   0  0  0  0  0  0  0  0  0  0  0  0
    2.4945    1.7135   -5.1016 H   0  0  0  0  0  0  0  0  0  0  0  0
    3.8632    4.1155   -4.2857 H   0  0  0  0  0  0  0  0  0  0  0  0
    4.9556    2.7217   -4.0999 H   0  0  0  0  0  0  0  0  0  0  0  0
    4.2690    3.1107   -5.6914 H   0  0  0  0  0  0  0  0  0  0  0  0
  1  2  2  0  0  0  0
  1  3  1  0  0  0  0
  1  7  1  0  0  0  0
  3  4  1  0  0  0  0
  3  5  1  0  0  0  0
  3  6  1  0  0  0  0
  7  8  1  0  0  0  0
  7 12  1  0  0  0  0
  8  9  1  0  0  0  0
  8 11  1  0  0  0  0
  8 13  1  0  0  0  0
  9 10  2  0  0  0  0
  9 17  1  0  0  0  0
 11 14  1  0  0  0  0
 11 15  1  0  0  0  0
 11 16  1  0  0  0  0
 17 18  1  0  0  0  0
 17 22  1  0  0  0  0
 18 19  1  0  0  0  0
 18 21  1  0  0  0  0
 18 23  1  0  0  0  0
 19 20  2  0  0  0  0
 19 27  1  0  0  0  0
 21 24  1  0  0  0  0
 21 25  1  0  0  0  0
 21 26  1  0  0  0  0
 27 28  1  0  0  0  0
 27 32  1  0  0  0  0
 28 29  1  0  0  0  0
 28 31  1  0  0  0  0
 28 33  1  0  0  0  0
 29 30  2  0  0  0  0
 29 37  1  0  0  0  0
 31 34  1  0  0  0  0
 31 35  1  0  0  0  0
 31 36  1  0  0  0  0
 37 38  1  0  0  0  0
 37 39  1  0  0  0  0
 38 40  1  0  0  0  0
 38 41  1  0  0  0  0
 38 42  1  0  0  0  0
M  END
$$$$

  -OEChem-05262215353D

 42 41  0     1  0  0  0  0  0999 V2000
   -5.5774   -0.9961    1.8736 C   0  0  0  0  0  0  0  0  0  0  0  0
   -5.9732    0.0326    1.3479 O   0  0  0  0  0  0  0  0  0  0  0  0
   -6.5306   -2.1556    2.0914 C   0  0  0  0  0  0  0  0  0  0  0  0
   -6.5975   -2.3888    3.1567 H   0  0  0  0  0  0  0  0  0  0  0  0
   -7.5275   -1.8977    1.7234 H   0  0  0  0  0  0  0  0  0  0  0  0
   -6.1739   -3.0374    1.5539 H   0  0  0  0  0  0  0  0  0  0  0  0
   -4.2601   -1.1091    2.2630 N   0  0  0  0  0  0  0  0  0  0  0  0
   -3.2172   -0.1222    1.9578 C   0  0  2  0  0  0  0  0  0  0  0  0
   -1.8273   -0.7826    1.8267 C   0  0  0  0  0  0  0  0  0  0  0  0
   -1.6534   -1.8900    2.3210 O   0  0  0  0  0  0  0  0  0  0  0  0
   -3.2107    0.9354    3.0663 C   0  0  0  0  0  0  0  0  0  0  0  0
   -3.9434   -2.0185    2.5987 H   0  0  0  0  0  0  0  0  0  0  0  0
   -3.4409    0.3592    0.9997 H   0  0  0  0  0  0  0  0  0  0  0  0
   -2.9964    0.4721    4.0348 H   0  0  0  0  0  0  0  0  0  0  0  0
   -2.4514    1.6977    2.8685 H   0  0  0  0  0  0  0  0  0  0  0  0
   -4.1861    1.4289    3.1246 H   0  0  0  0  0  0  0  0  0  0  0  0
   -0.8200   -0.0877    1.1707 N   0  0  0  0  0  0  0  0  0  0  0  0
    0.4825   -0.5795    0.6611 C   0  0  2  0  0  0  0  0  0  0  0  0
    0.5624   -0.3535   -0.8645 C   0  0  0  0  0  0  0  0  0  0  0  0
   -0.1512   -0.9836   -1.6335 O   0  0  0  0  0  0  0  0  0  0  0  0
    0.8425   -2.0432    0.9656 C   0  0  0  0  0  0  0  0  0  0  0  0
   -1.1374    0.7900    0.7685 H   0  0  0  0  0  0  0  0  0  0  0  0
    1.2602    0.0308    1.1296 H   0  0  0  0  0  0  0  0  0  0  0  0
    0.0989   -2.7240    0.5383 H   0  0  0  0  0  0  0  0  0  0  0  0
    1.8183   -2.2906    0.5364 H   0  0  0  0  0  0  0  0  0  0  0  0
    0.8958   -2.2094    2.0458 H   0  0  0  0  0  0  0  0  0  0  0  0
    1.3456    0.6641   -1.3748 N   0  0  0  0  0  0  0  0  0  0  0  0
    1.5387    0.9208   -2.8081 C   0  0  2  0  0  0  0  0  0  0  0  0
    2.9412    1.4988   -3.0891 C   0  0  0  0  0  0  0  0  0  0  0  0
    3.6364    1.8963   -2.1599 O   0  0  0  0  0  0  0  0  0  0  0  0
    0.4515    1.8910   -3.2802 C   0  0  0  0  0  0  0  0  0  0  0  0
    2.0135    1.1078   -0.7445 H   0  0  0  0  0  0  0  0  0  0  0  0
    1.4535   -0.0172   -3.3673 H   0  0  0  0  0  0  0  0  0  0  0  0
    0.5257    2.8406   -2.7408 H   0  0  0  0  0  0  0  0  0  0  0  0
    0.5517    2.0896   -4.3515 H   0  0  0  0  0  0  0  0  0  0  0  0
   -0.5408    1.4646   -3.1019 H   0  0  0  0  0  0  0  0  0  0  0  0
    3.4313    1.5601   -4.3804 N   0  0  0  0  0  0  0  0  0  0  0  0
    4.7578    2.0679   -4.7092 C   0  0  0  0  0  0  0  0  0  0  0  0
    2.8421    1.2013   -5.1265 H   0  0  0  0  0  0  0  0  0  0  0  0
    4.8566    3.1127   -4.3967 H   0  0  0  0  0  0  0  0  0  0  0  0
    5.5299    1.4754   -4.2074 H   0  0  0  0  0  0  0  0  0  0  0  0
    4.9272    2.0126   -5.7887 H   0  0  0  0  0  0  0  0  0  0  0  0
  1  2  2  0  0  0  0
  1  3  1  0  0  0  0
  1  7  1  0  0  0  0
  3  4  1  0  0  0  0
  3  5  1  0  0  0  0
  3  6  1  0  0  0  0
  7  8  1  0  0  0  0
  7 12  1  0  0  0  0
  8  9  1  0  0  0  0
  8 11  1  0  0  0  0
  8 13  1  0  0  0  0
  9 10  2  0  0  0  0
  9 17  1  0  0  0  0
 11 14  1  0  0  0  0
 11 15  1  0  0  0  0
 11 16  1  0  0  0  0
 17 18  1  0  0  0  0
 17 22  1  0  0  0  0
 18 19  1  0  0  0  0
 18 21  1  0  0  0  0
 18 23  1  0  0  0  0
 19 20  2  0  0  0  0
 19 27  1  0  0  0  0
 21 24  1  0  0  0  0
 21 25  1  0  0  0  0
 21 26  1  0  0  0  0
 27 28  1  0  0  0  0
 27 32  1  0  0  0  0
 28 29  1  0  0  0  0
 28 31  1  0  0  0  0
 28 33  1  0  0  0  0
 29 30  2  0  0  0  0
 29 37  1  0  0  0  0
 31 34  1  0  0  0  0
 31 35  1  0  0  0  0
 31 36  1  0  0  0  0
 37 38  1  0  0  0  0
 37 39  1  0  0  0  0
 38 40  1  0  0  0  0
 38 41  1  0  0  0  0
 38 42  1  0  0  0  0
M  END
$$$$

  -OEChem-05262215353D

 42 41  0     1  0  0  0  0  0999 V2000
   -5.5690   -1.0266    1.8713 C   0  0  0  0  0  0  0  0  0  0  0  0
   -5.9788   -0.0225    1.3100 O   0  0  0  0  0  0  0  0  0  0  0  0
   -6.5072   -2.1899    2.1321 C   0  0  0  0  0  0  0  0  0  0  0  0
   -6.5897   -2.3671    3.2072 H   0  0  0  0  0  0  0  0  0  0  0  0
   -7.5013   -1.9699    1.7328 H   0  0  0  0  0  0  0  0  0  0  0  0
   -6.1261   -3.0929    1.6487 H   0  0  0  0  0  0  0  0  0  0  0  0
   -4.2512   -1.1076    2.2672 N   0  0  0  0  0  0  0  0  0  0  0  0
   -3.2207   -0.1185    1.9286 C   0  0  2  0  0  0  0  0  0  0  0  0
   -1.8201   -0.7641    1.8402 C   0  0  0  0  0  0  0  0  0  0  0  0
   -1.6429   -1.8588    2.3618 O   0  0  0  0  0  0  0  0  0  0  0  0
   -3.2412    0.9848    2.9915 C   0  0  0  0  0  0  0  0  0  0  0  0
   -3.9220   -2.0011    2.6323 H   0  0  0  0  0  0  0  0  0  0  0  0
   -3.4428    0.3178    0.9485 H   0  0  0  0  0  0  0  0  0  0  0  0
   -3.0297    0.5655    3.9805 H   0  0  0  0  0  0  0  0  0  0  0  0
   -2.4915    1.7496    2.7681 H   0  0  0  0  0  0  0  0  0  0  0  0
   -4.2243    1.4657    3.0206 H   0  0  0  0  0  0  0  0  0  0  0  0
   -0.8036   -0.0711    1.1972 N   0  0  0  0  0  0  0  0  0  0  0  0
    0.4959   -0.5764    0.6921 C   0  0  2  0  0  0  0  0  0  0  0  0
    0.5909   -0.3394   -0.8305 C   0  0  0  0  0  0  0  0  0  0  0  0
   -0.3059   -0.7129   -1.5756 O   0  0  0  0  0  0  0  0  0  0  0  0
    0.8274   -2.0518    0.9681 C   0  0  0  0  0  0  0  0  0  0  0  0
   -1.1311    0.7803    0.7484 H   0  0  0  0  0  0  0  0  0  0  0  0
    1.2789    0.0163    1.1742 H   0  0  0  0  0  0  0  0  0  0  0  0
    0.0691   -2.7075    0.5277 H   0  0  0  0  0  0  0  0  0  0  0  0
    1.7980   -2.3120    0.5347 H   0  0  0  0  0  0  0  0  0  0  0  0
    0.8775   -2.2405    2.0448 H   0  0  0  0  0  0  0  0  0  0  0  0
    1.6026    0.4420   -1.3549 N   0  0  0  0  0  0  0  0  0  0  0  0
    1.8081    0.6715   -2.7912 C   0  0  2  0  0  0  0  0  0  0  0  0
    3.3062    0.8271   -3.1248 C   0  0  0  0  0  0  0  0  0  0  0  0
    4.1212    0.9916   -2.2228 O   0  0  0  0  0  0  0  0  0  0  0  0
    1.0309    1.9262   -3.2005 C   0  0  0  0  0  0  0  0  0  0  0  0
    2.3920    0.6612   -0.7472 H   0  0  0  0  0  0  0  0  0  0  0  0
    1.4354   -0.1868   -3.3610 H   0  0  0  0  0  0  0  0  0  0  0  0
    1.3972    2.7994   -2.6511 H   0  0  0  0  0  0  0  0  0  0  0  0
    1.1431    2.1157   -4.2722 H   0  0  0  0  0  0  0  0  0  0  0  0
   -0.0344    1.7991   -2.9840 H   0  0  0  0  0  0  0  0  0  0  0  0
    3.7436    0.7642   -4.4348 N   0  0  0  0  0  0  0  0  0  0  0  0
    5.1459    0.8785   -4.8176 C   0  0  0  0  0  0  0  0  0  0  0  0
    3.0476    0.6028   -5.1575 H   0  0  0  0  0  0  0  0  0  0  0  0
    5.5375    1.8652   -4.5486 H   0  0  0  0  0  0  0  0  0  0  0  0
    5.7452    0.1123   -4.3144 H   0  0  0  0  0  0  0  0  0  0  0  0
    5.2552    0.7462   -5.8985 H   0  0  0  0  0  0  0  0  0  0  0  0
  1  2  2  0  0  0  0
  1  3  1  0  0  0  0
  1  7  1  0  0  0  0
  3  4  1  0  0  0  0
  3  5  1  0  0  0  0
  3  6  1  0  0  0  0
  7  8  1  0  0  0  0
  7 12  1  0  0  0  0
  8  9  1  0  0  0  0
  8 11  1  0  0  0  0
  8 13  1  0  0  0  0
  9 10  2  0  0  0  0
  9 17  1  0  0  0  0
 11 14  1  0  0  0  0
 11 15  1  0  0  0  0
 11 16  1  0  0  0  0
 17 18  1  0  0  0  0
 17 22  1  0  0  0  0
 18 19  1  0  0  0  0
 18 21  1  0  0  0  0
 18 23  1  0  0  0  0
 19 20  2  0  0  0  0
 19 27  1  0  0  0  0
 21 24  1  0  0  0  0
 21 25  1  0  0  0  0
 21 26  1  0  0  0  0
 27 28  1  0  0  0  0
 27 32  1  0  0  0  0
 28 29  1  0  0  0  0
 28 31  1  0  0  0  0
 28 33  1  0  0  0  0
 29 30  2  0  0  0  0
 29 37  1  0  0  0  0
 31 34  1  0  0  0  0
 31 35  1  0  0  0  0
 31 36  1  0  0  0  0
 37 38  1  0  0  0  0
 37 39  1  0  0  0  0
 38 40  1  0  0  0  0
 38 41  1  0  0  0  0
 38 42  1  0  0  0  0
M  END
$$$$

  -OEChem-05262215353D

 42 41  0     1  0  0  0  0  0999 V2000
   -5.5525   -1.0628    1.8569 C   0  0  0  0  0  0  0  0  0  0  0  0
   -5.9683   -0.1041    1.2253 O   0  0  0  0  0  0  0  0  0  0  0  0
   -6.4790   -2.2191    2.1834 C   0  0  0  0  0  0  0  0  0  0  0  0
   -6.5262   -2.3649    3.2654 H   0  0  0  0  0  0  0  0  0  0  0  0
   -7.4863   -2.0120    1.8110 H   0  0  0  0  0  0  0  0  0  0  0  0
   -6.1113   -3.1354    1.7149 H   0  0  0  0  0  0  0  0  0  0  0  0
   -4.2387   -1.1008    2.2724 N   0  0  0  0  0  0  0  0  0  0  0  0
   -3.2159   -0.1218    1.8842 C   0  0  2  0  0  0  0  0  0  0  0  0
   -1.8045   -0.7490    1.8676 C   0  0  0  0  0  0  0  0  0  0  0  0
   -1.6244   -1.8183    2.4392 O   0  0  0  0  0  0  0  0  0  0  0  0
   -3.2702    1.0556    2.8632 C   0  0  0  0  0  0  0  0  0  0  0  0
   -3.9039   -1.9650    2.6976 H   0  0  0  0  0  0  0  0  0  0  0  0
   -3.4243    0.2403    0.8713 H   0  0  0  0  0  0  0  0  0  0  0  0
   -3.0630    0.7150    3.8827 H   0  0  0  0  0  0  0  0  0  0  0  0
   -2.5317    1.8158    2.5921 H   0  0  0  0  0  0  0  0  0  0  0  0
   -4.2621    1.5185    2.8451 H   0  0  0  0  0  0  0  0  0  0  0  0
   -0.7798   -0.0648    1.2303 N   0  0  0  0  0  0  0  0  0  0  0  0
    0.5153   -0.5866    0.7327 C   0  0  2  0  0  0  0  0  0  0  0  0
    0.6239   -0.3524   -0.7898 C   0  0  0  0  0  0  0  0  0  0  0  0
   -0.3709   -0.4250   -1.5011 O   0  0  0  0  0  0  0  0  0  0  0  0
    0.8251   -2.0663    1.0086 C   0  0  0  0  0  0  0  0  0  0  0  0
   -1.1195    0.7471    0.7197 H   0  0  0  0  0  0  0  0  0  0  0  0
    1.3015   -0.0014    1.2182 H   0  0  0  0  0  0  0  0  0  0  0  0
    0.0564   -2.7109    0.5696 H   0  0  0  0  0  0  0  0  0  0  0  0
    1.7920   -2.3409    0.5756 H   0  0  0  0  0  0  0  0  0  0  0  0
    0.8742   -2.2547    2.0856 H   0  0  0  0  0  0  0  0  0  0  0  0
    1.7929    0.1400   -1.3372 N   0  0  0  0  0  0  0  0  0  0  0  0
    2.0044    0.3547   -2.7748 C   0  0  2  0  0  0  0  0  0  0  0  0
    3.4692    0.0814   -3.1752 C   0  0  0  0  0  0  0  0  0  0  0  0
    4.3302   -0.0335   -2.3093 O   0  0  0  0  0  0  0  0  0  0  0  0
    1.6108    1.7955   -3.1145 C   0  0  0  0  0  0  0  0  0  0  0  0
    2.6330    0.1039   -0.7596 H   0  0  0  0  0  0  0  0  0  0  0  0
    1.3763   -0.3350   -3.3490 H   0  0  0  0  0  0  0  0  0  0  0  0
    2.2370    2.5049   -2.5638 H   0  0  0  0  0  0  0  0  0  0  0  0
    1.7296    1.9837   -4.1858 H   0  0  0  0  0  0  0  0  0  0  0  0
    0.5642    1.9749   -2.8484 H   0  0  0  0  0  0  0  0  0  0  0  0
    3.8196   -0.0552   -4.5057 N   0  0  0  0  0  0  0  0  0  0  0  0
    5.1768   -0.3487   -4.9498 C   0  0  0  0  0  0  0  0  0  0  0  0
    3.0792    0.0128   -5.1981 H   0  0  0  0  0  0  0  0  0  0  0  0
    5.8699    0.4257   -4.6042 H   0  0  0  0  0  0  0  0  0  0  0  0
    5.5064   -1.3171   -4.5586 H   0  0  0  0  0  0  0  0  0  0  0  0
    5.2173   -0.3848   -6.0430 H   0  0  0  0  0  0  0  0  0  0  0  0
  1  2  2  0  0  0  0
  1  3  1  0  0  0  0
  1  7  1  0  0  0  0
  3  4  1  0  0  0  0
  3  5  1  0  0  0  0
  3  6  1  0  0  0  0
  7  8  1  0  0  0  0
  7 12  1  0  0  0  0
  8  9  1  0  0  0  0
  8 11  1  0  0  0  0
  8 13  1  0  0  0  0
  9 10  2  0  0  0  0
  9 17  1  0  0  0  0
 11 14  1  0  0  0  0
 11 15  1  0  0  0  0
 11 16  1  0  0  0  0
 17 18  1  0  0  0  0
 17 22  1  0  0  0  0
 18 19  1  0  0  0  0
 18 21  1  0  0  0  0
 18 23  1  0  0  0  0
 19 20  2  0  0  0  0
 19 27  1  0  0  0  0
 21 24  1  0  0  0  0
 21 25  1  0  0  0  0
 21 26  1  0  0  0  0
 27 28  1  0  0  0  0
 27 32  1  0  0  0  0
 28 29  1  0  0  0  0
 28 31  1  0  0  0  0
 28 33  1  0  0  0  0
 29 30  2  0  0  0  0
 29 37  1  0  0  0  0
 31 34  1  0  0  0  0
 31 35  1  0  0  0  0
 31 36  1  0  0  0  0
 37 38  1  0  0  0  0
 37 39  1  0  0  0  0
 38 40  1  0  0  0  0
 38 41  1  0  0  0  0
 38 42  1  0  0  0  0
M  END
$$$$

  -OEChem-05262215353D

 42 41  0     1  0  0  0  0  0999 V2000
   -5.5396   -1.0899    1.8617 C   0  0  0  0  0  0  0  0  0  0  0  0
   -5.9594   -0.1786    1.1660 O   0  0  0  0  0  0  0  0  0  0  0  0
   -6.4532   -2.2388    2.2447 C   0  0  0  0  0  0  0  0  0  0  0  0
   -6.5130   -2.3216    3.3327 H   0  0  0  0  0  0  0  0  0  0  0  0
   -7.4583   -2.0694    1.8485 H   0  0  0  0  0  0  0  0  0  0  0  0
   -6.0654   -3.1748    1.8352 H   0  0  0  0  0  0  0  0  0  0  0  0
   -4.2323   -1.0826    2.2980 N   0  0  0  0  0  0  0  0  0  0  0  0
   -3.2149   -0.1178    1.8614 C   0  0  2  0  0  0  0  0  0  0  0  0
   -1.7998   -0.7371    1.8796 C   0  0  0  0  0  0  0  0  0  0  0  0
   -1.6242   -1.7948    2.4742 O   0  0  0  0  0  0  0  0  0  0  0  0
   -3.2817    1.1061    2.7808 C   0  0  0  0  0  0  0  0  0  0  0  0
   -3.8919   -1.9180    2.7732 H   0  0  0  0  0  0  0  0  0  0  0  0
   -3.4221    0.1925    0.8311 H   0  0  0  0  0  0  0  0  0  0  0  0
   -3.0740    0.8181    3.8163 H   0  0  0  0  0  0  0  0  0  0  0  0
   -2.5499    1.8595    2.4741 H   0  0  0  0  0  0  0  0  0  0  0  0
   -4.2779    1.5577    2.7380 H   0  0  0  0  0  0  0  0  0  0  0  0
   -0.7657   -0.0628    1.2473 N   0  0  0  0  0  0  0  0  0  0  0  0
    0.5269   -0.5979    0.7574 C   0  0  2  0  0  0  0  0  0  0  0  0
    0.6474   -0.3665   -0.7656 C   0  0  0  0  0  0  0  0  0  0  0  0
   -0.3522   -0.1529   -1.4429 O   0  0  0  0  0  0  0  0  0  0  0  0
    0.8158   -2.0815    1.0391 C   0  0  0  0  0  0  0  0  0  0  0  0
   -1.1029    0.7302    0.7043 H   0  0  0  0  0  0  0  0  0  0  0  0
    1.3179   -0.0182    1.2427 H   0  0  0  0  0  0  0  0  0  0  0  0
    0.0389   -2.7171    0.6017 H   0  0  0  0  0  0  0  0  0  0  0  0
    1.7795   -2.3734    0.6107 H   0  0  0  0  0  0  0  0  0  0  0  0
    0.8598   -2.2660    2.1168 H   0  0  0  0  0  0  0  0  0  0  0  0
    1.8884   -0.1888   -1.3454 N   0  0  0  0  0  0  0  0  0  0  0  0
    2.1090   -0.0143   -2.7866 C   0  0  2  0  0  0  0  0  0  0  0  0
    3.4250   -0.6821   -3.2355 C   0  0  0  0  0  0  0  0  0  0  0  0
    4.2382   -1.0582   -2.3978 O   0  0  0  0  0  0  0  0  0  0  0  0
    2.1296    1.4860   -3.0931 C   0  0  0  0  0  0  0  0  0  0  0  0
    2.7043   -0.4598   -0.7960 H   0  0  0  0  0  0  0  0  0  0  0  0
    1.2959   -0.4866   -3.3486 H   0  0  0  0  0  0  0  0  0  0  0  0
    2.9443    1.9766   -2.5505 H   0  0  0  0  0  0  0  0  0  0  0  0
    2.2700    1.6585   -4.1643 H   0  0  0  0  0  0  0  0  0  0  0  0
    1.1831    1.9462   -2.7920 H   0  0  0  0  0  0  0  0  0  0  0  0
    3.6920   -0.8761   -4.5778 N   0  0  0  0  0  0  0  0  0  0  0  0
    4.9061   -1.5186   -5.0665 C   0  0  0  0  0  0  0  0  0  0  0  0
    2.9902   -0.5733   -5.2473 H   0  0  0  0  0  0  0  0  0  0  0  0
    5.7914   -0.9570   -4.7501 H   0  0  0  0  0  0  0  0  0  0  0  0
    4.9808   -2.5408   -4.6805 H   0  0  0  0  0  0  0  0  0  0  0  0
    4.8973   -1.5620   -6.1599 H   0  0  0  0  0  0  0  0  0  0  0  0
  1  2  2  0  0  0  0
  1  3  1  0  0  0  0
  1  7  1  0  0  0  0
  3  4  1  0  0  0  0
  3  5  1  0  0  0  0
  3  6  1  0  0  0  0
  7  8  1  0  0  0  0
  7 12  1  0  0  0  0
  8  9  1  0  0  0  0
  8 11  1  0  0  0  0
  8 13  1  0  0  0  0
  9 10  2  0  0  0  0
  9 17  1  0  0  0  0
 11 14  1  0  0  0  0
 11 15  1  0  0  0  0
 11 16  1  0  0  0  0
 17 18  1  0  0  0  0
 17 22  1  0  0  0  0
 18 19  1  0  0  0  0
 18 21  1  0  0  0  0
 18 23  1  0  0  0  0
 19 20  2  0  0  0  0
 19 27  1  0  0  0  0
 21 24  1  0  0  0  0
 21 25  1  0  0  0  0
 21 26  1  0  0  0  0
 27 28  1  0  0  0  0
 27 32  1  0  0  0  0
 28 29  1  0  0  0  0
 28 31  1  0  0  0  0
 28 33  1  0  0  0  0
 29 30  2  0  0  0  0
 29 37  1  0  0  0  0
 31 34  1  0  0  0  0
 31 35  1  0  0  0  0
 31 36  1  0  0  0  0
 37 38  1  0  0  0  0
 37 39  1  0  0  0  0
 38 40  1  0  0  0  0
 38 41  1  0  0  0  0
 38 42  1  0  0  0  0
M  END
$$$$

  -OEChem-05262215353D

 42 41  0     1  0  0  0  0  0999 V2000
   -5.5361   -1.0595    1.8619 C   0  0  0  0  0  0  0  0  0  0  0  0
   -5.9475   -0.1243    1.1934 O   0  0  0  0  0  0  0  0  0  0  0  0
   -6.4542   -2.2207    2.1935 C   0  0  0  0  0  0  0  0  0  0  0  0
   -6.5851   -2.2949    3.2758 H   0  0  0  0  0  0  0  0  0  0  0  0
   -7.4328   -2.0721    1.7285 H   0  0  0  0  0  0  0  0  0  0  0  0
   -6.0253   -3.1539    1.8201 H   0  0  0  0  0  0  0  0  0  0  0  0
   -4.2324   -1.0712    2.3088 N   0  0  0  0  0  0  0  0  0  0  0  0
   -3.2062   -0.1023    1.9035 C   0  0  2  0  0  0  0  0  0  0  0  0
   -1.8010   -0.7432    1.8771 C   0  0  0  0  0  0  0  0  0  0  0  0
   -1.6326   -1.8178    2.4427 O   0  0  0  0  0  0  0  0  0  0  0  0
   -3.2438    1.0780    2.8795 C   0  0  0  0  0  0  0  0  0  0  0  0
   -3.8987   -1.9233    2.7587 H   0  0  0  0  0  0  0  0  0  0  0  0
   -3.4202    0.2585    0.8913 H   0  0  0  0  0  0  0  0  0  0  0  0
   -3.0262    0.7390    3.8974 H   0  0  0  0  0  0  0  0  0  0  0  0
   -2.5052    1.8345    2.5978 H   0  0  0  0  0  0  0  0  0  0  0  0
   -4.2343    1.5445    2.8715 H   0  0  0  0  0  0  0  0  0  0  0  0
   -0.7697   -0.0690    1.2396 N   0  0  0  0  0  0  0  0  0  0  0  0
    0.5350   -0.5859    0.7617 C   0  0  2  0  0  0  0  0  0  0  0  0
    0.6614   -0.3738   -0.7647 C   0  0  0  0  0  0  0  0  0  0  0  0
   -0.2909    0.0428   -1.4161 O   0  0  0  0  0  0  0  0  0  0  0  0
    0.8481   -2.0586    1.0782 C   0  0  0  0  0  0  0  0  0  0  0  0
   -1.1044    0.7305    0.7034 H   0  0  0  0  0  0  0  0  0  0  0  0
    1.3132    0.0177    1.2385 H   0  0  0  0  0  0  0  0  0  0  0  0
    0.0966   -2.7177    0.6314 H   0  0  0  0  0  0  0  0  0  0  0  0
    1.8290   -2.3403    0.6837 H   0  0  0  0  0  0  0  0  0  0  0  0
    0.8662   -2.2225    2.1598 H   0  0  0  0  0  0  0  0  0  0  0  0
    1.8903   -0.4879   -1.3854 N   0  0  0  0  0  0  0  0  0  0  0  0
    2.0949   -0.4091   -2.8371 C   0  0  2  0  0  0  0  0  0  0  0  0
    3.2023   -1.3822   -3.2938 C   0  0  0  0  0  0  0  0  0  0  0  0
    3.9481   -1.8924   -2.4640 O   0  0  0  0  0  0  0  0  0  0  0  0
    2.4592    1.0345   -3.1955 C   0  0  0  0  0  0  0  0  0  0  0  0
    2.6411   -0.9270   -0.8521 H   0  0  0  0  0  0  0  0  0  0  0  0
    1.1741   -0.6904   -3.3597 H   0  0  0  0  0  0  0  0  0  0  0  0
    3.3908    1.3279   -2.7011 H   0  0  0  0  0  0  0  0  0  0  0  0
    2.5889    1.1415   -4.2765 H   0  0  0  0  0  0  0  0  0  0  0  0
    1.6648    1.7162   -2.8751 H   0  0  0  0  0  0  0  0  0  0  0  0
    3.3585   -1.6957   -4.6314 N   0  0  0  0  0  0  0  0  0  0  0  0
    4.3851   -2.6055   -5.1265 C   0  0  0  0  0  0  0  0  0  0  0  0
    2.7180   -1.2683   -5.2942 H   0  0  0  0  0  0  0  0  0  0  0  0
    5.3832   -2.1986   -4.9325 H   0  0  0  0  0  0  0  0  0  0  0  0
    4.3022   -3.5826   -4.6385 H   0  0  0  0  0  0  0  0  0  0  0  0
    4.2736   -2.7498   -6.2054 H   0  0  0  0  0  0  0  0  0  0  0  0
  1  2  2  0  0  0  0
  1  3  1  0  0  0  0
  1  7  1  0  0  0  0
  3  4  1  0  0  0  0
  3  5  1  0  0  0  0
  3  6  1  0  0  0  0
  7  8  1  0  0  0  0
  7 12  1  0  0  0  0
  8  9  1  0  0  0  0
  8 11  1  0  0  0  0
  8 13  1  0  0  0  0
  9 10  2  0  0  0  0
  9 17  1  0  0  0  0
 11 14  1  0  0  0  0
 11 15  1  0  0  0  0
 11 16  1  0  0  0  0
 17 18  1  0  0  0  0
 17 22  1  0  0  0  0
 18 19  1  0  0  0  0
 18 21  1  0  0  0  0
 18 23  1  0  0  0  0
 19 20  2  0  0  0  0
 19 27  1  0  0  0  0
 21 24  1  0  0  0  0
 21 25  1  0  0  0  0
 21 26  1  0  0  0  0
 27 28  1  0  0  0  0
 27 32  1  0  0  0  0
 28 29  1  0  0  0  0
 28 31  1  0  0  0  0
 28 33  1  0  0  0  0
 29 30  2  0  0  0  0
 29 37  1  0  0  0  0
 31 34  1  0  0  0  0
 31 35  1  0  0  0  0
 31 36  1  0  0  0  0
 37 38  1  0  0  0  0
 37 39  1  0  0  0  0
 38 40  1  0  0  0  0
 38 41  1  0  0  0  0
 38 42  1  0  0  0  0
M  END
$$$$

  -OEChem-05262215353D

 42 41  0     1  0  0  0  0  0999 V2000
   -5.5206   -1.0562    1.8492 C   0  0  0  0  0  0  0  0  0  0  0  0
   -5.9168   -0.1426    1.1431 O   0  0  0  0  0  0  0  0  0  0  0  0
   -6.4524   -2.1960    2.2139 C   0  0  0  0  0  0  0  0  0  0  0  0
   -6.6160   -2.2105    3.2942 H   0  0  0  0  0  0  0  0  0  0  0  0
   -7.4158   -2.0710    1.7116 H   0  0  0  0  0  0  0  0  0  0  0  0
   -6.0157   -3.1490    1.9051 H   0  0  0  0  0  0  0  0  0  0  0  0
   -4.2229   -1.0617    2.3133 N   0  0  0  0  0  0  0  0  0  0  0  0
   -3.1858   -0.1109    1.8933 C   0  0  2  0  0  0  0  0  0  0  0  0
   -1.7885   -0.7692    1.8748 C   0  0  0  0  0  0  0  0  0  0  0  0
   -1.6286   -1.8413    2.4472 O   0  0  0  0  0  0  0  0  0  0  0  0
   -3.2131    1.0828    2.8531 C   0  0  0  0  0  0  0  0  0  0  0  0
   -3.9016   -1.9005    2.7955 H   0  0  0  0  0  0  0  0  0  0  0  0
   -3.3951    0.2385    0.8761 H   0  0  0  0  0  0  0  0  0  0  0  0
   -2.9981    0.7561    3.8756 H   0  0  0  0  0  0  0  0  0  0  0  0
   -2.4692    1.8300    2.5611 H   0  0  0  0  0  0  0  0  0  0  0  0
   -4.1999    1.5566    2.8387 H   0  0  0  0  0  0  0  0  0  0  0  0
   -0.7436   -0.1170    1.2396 N   0  0  0  0  0  0  0  0  0  0  0  0
    0.5598   -0.6487    0.7791 C   0  0  2  0  0  0  0  0  0  0  0  0
    0.8408   -0.1104   -0.6461 C   0  0  0  0  0  0  0  0  0  0  0  0
    0.0688    0.6925   -1.1627 O   0  0  0  0  0  0  0  0  0  0  0  0
    0.6647   -2.1870    0.7462 C   0  0  0  0  0  0  0  0  0  0  0  0
   -1.0390    0.7132    0.7234 H   0  0  0  0  0  0  0  0  0  0  0  0
    1.3415   -0.2687    1.4436 H   0  0  0  0  0  0  0  0  0  0  0  0
   -0.1618   -2.6165    0.1709 H   0  0  0  0  0  0  0  0  0  0  0  0
    1.6057   -2.5110    0.2924 H   0  0  0  0  0  0  0  0  0  0  0  0
    0.6408   -2.5958    1.7604 H   0  0  0  0  0  0  0  0  0  0  0  0
    1.9959   -0.4483   -1.3248 N   0  0  0  0  0  0  0  0  0  0  0  0
    2.2552   -0.1193   -2.7321 C   0  0  2  0  0  0  0  0  0  0  0  0
    3.0269   -1.2558   -3.4352 C   0  0  0  0  0  0  0  0  0  0  0  0
    3.5331   -2.1545   -2.7711 O   0  0  0  0  0  0  0  0  0  0  0  0
    3.0459    1.1906   -2.7846 C   0  0  0  0  0  0  0  0  0  0  0  0
    2.5581   -1.2038   -0.9326 H   0  0  0  0  0  0  0  0  0  0  0  0
    1.3080    0.0102   -3.2666 H   0  0  0  0  0  0  0  0  0  0  0  0
    4.0013    1.0833   -2.2613 H   0  0  0  0  0  0  0  0  0  0  0  0
    3.2457    1.4779   -3.8211 H   0  0  0  0  0  0  0  0  0  0  0  0
    2.4758    1.9945   -2.3084 H   0  0  0  0  0  0  0  0  0  0  0  0
    3.1389   -1.2845   -4.8131 N   0  0  0  0  0  0  0  0  0  0  0  0
    3.8344   -2.3424   -5.5369 C   0  0  0  0  0  0  0  0  0  0  0  0
    2.6894   -0.5406   -5.3394 H   0  0  0  0  0  0  0  0  0  0  0  0
    4.8909   -2.3727   -5.2491 H   0  0  0  0  0  0  0  0  0  0  0  0
    3.3823   -3.3165   -5.3213 H   0  0  0  0  0  0  0  0  0  0  0  0
    3.7747   -2.1656   -6.6154 H   0  0  0  0  0  0  0  0  0  0  0  0
  1  2  2  0  0  0  0
  1  3  1  0  0  0  0
  1  7  1  0  0  0  0
  3  4  1  0  0  0  0
  3  5  1  0  0  0  0
  3  6  1  0  0  0  0
  7  8  1  0  0  0  0
  7 12  1  0  0  0  0
  8  9  1  0  0  0  0
  8 11  1  0  0  0  0
  8 13  1  0  0  0  0
  9 10  2  0  0  0  0
  9 17  1  0  0  0  0
 11 14  1  0  0  0  0
 11 15  1  0  0  0  0
 11 16  1  0  0  0  0
 17 18  1  0  0  0  0
 17 22  1  0  0  0  0
 18 19  1  0  0  0  0
 18 21  1  0  0  0  0
 18 23  1  0  0  0  0
 19 20  2  0  0  0  0
 19 27  1  0  0  0  0
 21 24  1  0  0  0  0
 21 25  1  0  0  0  0
 21 26  1  0  0  0  0
 27 28  1  0  0  0  0
 27 32  1  0  0  0  0
 28 29  1  0  0  0  0
 28 31  1  0  0  0  0
 28 33  1  0  0  0  0
 29 30  2  0  0  0  0
 29 37  1  0  0  0  0
 31 34  1  0  0  0  0
 31 35  1  0  0  0  0
 31 36  1  0  0  0  0
 37 38  1  0  0  0  0
 37 39  1  0  0  0  0
 38 40  1  0  0  0  0
 38 41  1  0  0  0  0
 38 42  1  0  0  0  0
M  END
$$$$

  -OEChem-05262215353D

 42 41  0     1  0  0  0  0  0999 V2000
   -5.5152   -1.0476    1.8543 C   0  0  0  0  0  0  0  0  0  0  0  0
   -5.9019   -0.1544    1.1174 O   0  0  0  0  0  0  0  0  0  0  0  0
   -6.4490   -2.1816    2.2326 C   0  0  0  0  0  0  0  0  0  0  0  0
   -6.5935   -2.1987    3.3154 H   0  0  0  0  0  0  0  0  0  0  0  0
   -7.4206   -2.0481    1.7490 H   0  0  0  0  0  0  0  0  0  0  0  0
   -6.0249   -3.1367    1.9131 H   0  0  0  0  0  0  0  0  0  0  0  0
   -4.2255   -1.0364    2.3403 N   0  0  0  0  0  0  0  0  0  0  0  0
   -3.1803   -0.1027    1.9015 C   0  0  2  0  0  0  0  0  0  0  0  0
   -1.7913   -0.7784    1.8835 C   0  0  0  0  0  0  0  0  0  0  0  0
   -1.6443   -1.8459    2.4676 O   0  0  0  0  0  0  0  0  0  0  0  0
   -3.1877    1.1049    2.8440 C   0  0  0  0  0  0  0  0  0  0  0  0
   -3.9095   -1.8657    2.8421 H   0  0  0  0  0  0  0  0  0  0  0  0
   -3.3905    0.2359    0.8810 H   0  0  0  0  0  0  0  0  0  0  0  0
   -2.9687    0.7920    3.8699 H   0  0  0  0  0  0  0  0  0  0  0  0
   -2.4377    1.8395    2.5354 H   0  0  0  0  0  0  0  0  0  0  0  0
   -4.1693    1.5893    2.8292 H   0  0  0  0  0  0  0  0  0  0  0  0
   -0.7446   -0.1525    1.2243 N   0  0  0  0  0  0  0  0  0  0  0  0
    0.5642   -0.6900    0.7853 C   0  0  2  0  0  0  0  0  0  0  0  0
    0.8312   -0.1987   -0.6616 C   0  0  0  0  0  0  0  0  0  0  0  0
    0.1922    0.7515   -1.1047 O   0  0  0  0  0  0  0  0  0  0  0  0
    0.6952   -2.2261    0.8454 C   0  0  0  0  0  0  0  0  0  0  0  0
   -1.0231    0.6875    0.7144 H   0  0  0  0  0  0  0  0  0  0  0  0
    1.3420   -0.2651    1.4269 H   0  0  0  0  0  0  0  0  0  0  0  0
   -0.1101   -2.7042    0.2785 H   0  0  0  0  0  0  0  0  0  0  0  0
    1.6531   -2.5603    0.4376 H   0  0  0  0  0  0  0  0  0  0  0  0
    0.6543   -2.5731    1.8819 H   0  0  0  0  0  0  0  0  0  0  0  0
    1.8084   -0.7636   -1.4597 N   0  0  0  0  0  0  0  0  0  0  0  0
    2.0120   -0.4458   -2.8788 C   0  0  2  0  0  0  0  0  0  0  0  0
    2.4685   -1.6914   -3.6680 C   0  0  0  0  0  0  0  0  0  0  0  0
    2.8260   -2.6994   -3.0673 O   0  0  0  0  0  0  0  0  0  0  0  0
    3.0538    0.6724   -2.9774 C   0  0  0  0  0  0  0  0  0  0  0  0
    2.2280   -1.6338   -1.1323 H   0  0  0  0  0  0  0  0  0  0  0  0
    1.0710   -0.1041   -3.3233 H   0  0  0  0  0  0  0  0  0  0  0  0
    4.0069    0.3461   -2.5489 H   0  0  0  0  0  0  0  0  0  0  0  0
    3.2184    0.9536   -4.0217 H   0  0  0  0  0  0  0  0  0  0  0  0
    2.7117    1.5581   -2.4324 H   0  0  0  0  0  0  0  0  0  0  0  0
    2.4633   -1.6914   -5.0508 N   0  0  0  0  0  0  0  0  0  0  0  0
    2.8496   -2.8466   -5.8526 C   0  0  0  0  0  0  0  0  0  0  0  0
    2.1287   -0.8555   -5.5213 H   0  0  0  0  0  0  0  0  0  0  0  0
    3.8755   -3.1509   -5.6190 H   0  0  0  0  0  0  0  0  0  0  0  0
    2.1785   -3.6898   -5.6579 H   0  0  0  0  0  0  0  0  0  0  0  0
    2.7976   -2.6027   -6.9180 H   0  0  0  0  0  0  0  0  0  0  0  0
  1  2  2  0  0  0  0
  1  3  1  0  0  0  0
  1  7  1  0  0  0  0
  3  4  1  0  0  0  0
  3  5  1  0  0  0  0
  3  6  1  0  0  0  0
  7  8  1  0  0  0  0
  7 12  1  0  0  0  0
  8  9  1  0  0  0  0
  8 11  1  0  0  0  0
  8 13  1  0  0  0  0
  9 10  2  0  0  0  0
  9 17  1  0  0  0  0
 11 14  1  0  0  0  0
 11 15  1  0  0  0  0
 11 16  1  0  0  0  0
 17 18  1  0  0  0  0
 17 22  1  0  0  0  0
 18 19  1  0  0  0  0
 18 21  1  0  0  0  0
 18 23  1  0  0  0  0
 19 20  2  0  0  0  0
 19 27  1  0  0  0  0
 21 24  1  0  0  0  0
 21 25  1  0  0  0  0
 21 26  1  0  0  0  0
 27 28  1  0  0  0  0
 27 32  1  0  0  0  0
 28 29  1  0  0  0  0
 28 31  1  0  0  0  0
 28 33  1  0  0  0  0
 29 30  2  0  0  0  0
 29 37  1  0  0  0  0
 31 34  1  0  0  0  0
 31 35  1  0  0  0  0
 31 36  1  0  0  0  0
 37 38  1  0  0  0  0
 37 39  1  0  0  0  0
 38 40  1  0  0  0  0
 38 41  1  0  0  0  0
 38 42  1  0  0  0  0
M  END
$$$$

  -OEChem-05262215353D

 42 41  0     1  0  0  0  0  0999 V2000
   -5.5143   -1.0184    1.8554 C   0  0  0  0  0  0  0  0  0  0  0  0
   -5.8845   -0.1057    1.1338 O   0  0  0  0  0  0  0  0  0  0  0  0
   -6.4652   -2.1493    2.1992 C   0  0  0  0  0  0  0  0  0  0  0  0
   -6.6125   -2.1957    3.2809 H   0  0  0  0  0  0  0  0  0  0  0  0
   -7.4337   -1.9870    1.7176 H   0  0  0  0  0  0  0  0  0  0  0  0
   -6.0545   -3.1010    1.8524 H   0  0  0  0  0  0  0  0  0  0  0  0
   -4.2275   -1.0340    2.3494 N   0  0  0  0  0  0  0  0  0  0  0  0
   -3.1683   -0.1068    1.9300 C   0  0  2  0  0  0  0  0  0  0  0  0
   -1.7913   -0.8042    1.8737 C   0  0  0  0  0  0  0  0  0  0  0  0
   -1.6536   -1.8872    2.4302 O   0  0  0  0  0  0  0  0  0  0  0  0
   -3.1438    1.0679    2.9118 C   0  0  0  0  0  0  0  0  0  0  0  0
   -3.9247   -1.8790    2.8330 H   0  0  0  0  0  0  0  0  0  0  0  0
   -3.3828    0.2696    0.9239 H   0  0  0  0  0  0  0  0  0  0  0  0
   -2.9215    0.7152    3.9239 H   0  0  0  0  0  0  0  0  0  0  0  0
   -2.3820    1.7974    2.6210 H   0  0  0  0  0  0  0  0  0  0  0  0
   -4.1159    1.5711    2.9231 H   0  0  0  0  0  0  0  0  0  0  0  0
   -0.7512   -0.1849    1.1976 N   0  0  0  0  0  0  0  0  0  0  0  0
    0.5668   -0.7094    0.7724 C   0  0  2  0  0  0  0  0  0  0  0  0
    0.8140   -0.2478   -0.6867 C   0  0  0  0  0  0  0  0  0  0  0  0
    0.3223    0.8106   -1.0666 O   0  0  0  0  0  0  0  0  0  0  0  0
    0.7455   -2.2361    0.8967 C   0  0  0  0  0  0  0  0  0  0  0  0
   -1.0189    0.6760    0.7184 H   0  0  0  0  0  0  0  0  0  0  0  0
    1.3370   -0.2424    1.3934 H   0  0  0  0  0  0  0  0  0  0  0  0
   -0.0334   -2.7639    0.3370 H   0  0  0  0  0  0  0  0  0  0  0  0
    1.7230   -2.5493    0.5191 H   0  0  0  0  0  0  0  0  0  0  0  0
    0.6977   -2.5432    1.9454 H   0  0  0  0  0  0  0  0  0  0  0  0
    1.5684   -0.9829   -1.5820 N   0  0  0  0  0  0  0  0  0  0  0  0
    1.6909   -0.6828   -3.0137 C   0  0  2  0  0  0  0  0  0  0  0  0
    1.8178   -1.9778   -3.8430 C   0  0  0  0  0  0  0  0  0  0  0  0
    2.0405   -3.0458   -3.2821 O   0  0  0  0  0  0  0  0  0  0  0  0
    2.9154    0.2146   -3.2154 C   0  0  0  0  0  0  0  0  0  0  0  0
    1.8289   -1.9281   -1.3003 H   0  0  0  0  0  0  0  0  0  0  0  0
    0.7954   -0.1581   -3.3634 H   0  0  0  0  0  0  0  0  0  0  0  0
    3.8236   -0.2965   -2.8803 H   0  0  0  0  0  0  0  0  0  0  0  0
    3.0323    0.4770   -4.2711 H   0  0  0  0  0  0  0  0  0  0  0  0
    2.8039    1.1397   -2.6412 H   0  0  0  0  0  0  0  0  0  0  0  0
    1.6633   -1.9511   -5.2166 N   0  0  0  0  0  0  0  0  0  0  0  0
    1.7301   -3.1446   -6.0516 C   0  0  0  0  0  0  0  0  0  0  0  0
    1.4421   -1.0588   -5.6493 H   0  0  0  0  0  0  0  0  0  0  0  0
    2.7034   -3.6349   -5.9423 H   0  0  0  0  0  0  0  0  0  0  0  0
    0.9445   -3.8540   -5.7697 H   0  0  0  0  0  0  0  0  0  0  0  0
    1.5939   -2.8785   -7.1044 H   0  0  0  0  0  0  0  0  0  0  0  0
  1  2  2  0  0  0  0
  1  3  1  0  0  0  0
  1  7  1  0  0  0  0
  3  4  1  0  0  0  0
  3  5  1  0  0  0  0
  3  6  1  0  0  0  0
  7  8  1  0  0  0  0
  7 12  1  0  0  0  0
  8  9  1  0  0  0  0
  8 11  1  0  0  0  0
  8 13  1  0  0  0  0
  9 10  2  0  0  0  0
  9 17  1  0  0  0  0
 11 14  1  0  0  0  0
 11 15  1  0  0  0  0
 11 16  1  0  0  0  0
 17 18  1  0  0  0  0
 17 22  1  0  0  0  0
 18 19  1  0  0  0  0
 18 21  1  0  0  0  0
 18 23  1  0  0  0  0
 19 20  2  0  0  0  0
 19 27  1  0  0  0  0
 21 24  1  0  0  0  0
 21 25  1  0  0  0  0
 21 26  1  0  0  0  0
 27 28  1  0  0  0  0
 27 32  1  0  0  0  0
 28 29  1  0  0  0  0
 28 31  1  0  0  0  0
 28 33  1  0  0  0  0
 29 30  2  0  0  0  0
 29 37  1  0  0  0  0
 31 34  1  0  0  0  0
 31 35  1  0  0  0  0
 31 36  1  0  0  0  0
 37 38  1  0  0  0  0
 37 39  1  0  0  0  0
 38 40  1  0  0  0  0
 38 41  1  0  0  0  0
 38 42  1  0  0  0  0
M  END
$$$$

  -OEChem-05262215353D

 42 41  0     1  0  0  0  0  0999 V2000
   -5.4598   -0.9473    1.7241 C   0  0  0  0  0  0  0  0  0  0  0  0
   -5.7877    0.0539    1.1072 O   0  0  0  0  0  0  0  0  0  0  0  0
   -6.4430   -2.0896    1.8974 C   0  0  0  0  0  0  0  0  0  0  0  0
   -6.5891   -2.2989    2.9598 H   0  0  0  0  0  0  0  0  0  0  0  0
   -7.4078   -1.8274    1.4538 H   0  0  0  0  0  0  0  0  0  0  0  0
   -6.0613   -2.9874    1.4052 H   0  0  0  0  0  0  0  0  0  0  0  0
   -4.1901   -1.0518    2.2503 N   0  0  0  0  0  0  0  0  0  0  0  0
   -3.1030   -0.0999    1.9890 C   0  0  2  0  0  0  0  0  0  0  0  0
   -1.7386   -0.8141    1.8857 C   0  0  0  0  0  0  0  0  0  0  0  0
   -1.6105   -1.9213    2.3946 O   0  0  0  0  0  0  0  0  0  0  0  0
   -3.0879    0.9341    3.1177 C   0  0  0  0  0  0  0  0  0  0  0  0
   -3.9219   -1.9501    2.6508 H   0  0  0  0  0  0  0  0  0  0  0  0
   -3.2771    0.4098    1.0350 H   0  0  0  0  0  0  0  0  0  0  0  0
   -2.9105    0.4457    4.0812 H   0  0  0  0  0  0  0  0  0  0  0  0
   -2.2994    1.6740    2.9510 H   0  0  0  0  0  0  0  0  0  0  0  0
   -4.0482    1.4575    3.1636 H   0  0  0  0  0  0  0  0  0  0  0  0
   -0.7061   -0.1885    1.2044 N   0  0  0  0  0  0  0  0  0  0  0  0
    0.6174   -0.6975    0.7807 C   0  0  2  0  0  0  0  0  0  0  0  0
    0.8463   -0.2383   -0.6812 C   0  0  0  0  0  0  0  0  0  0  0  0
    0.4971    0.8925   -1.0040 O   0  0  0  0  0  0  0  0  0  0  0  0
    0.8248   -2.2187    0.9211 C   0  0  0  0  0  0  0  0  0  0  0  0
   -0.9607    0.7026    0.7769 H   0  0  0  0  0  0  0  0  0  0  0  0
    1.3817   -0.2117    1.3952 H   0  0  0  0  0  0  0  0  0  0  0  0
    0.0519   -2.7679    0.3733 H   0  0  0  0  0  0  0  0  0  0  0  0
    1.8059   -2.5144    0.5372 H   0  0  0  0  0  0  0  0  0  0  0  0
    0.7884   -2.5142    1.9739 H   0  0  0  0  0  0  0  0  0  0  0  0
    1.3373   -1.0829   -1.6597 N   0  0  0  0  0  0  0  0  0  0  0  0
    1.2753   -0.8087   -3.1009 C   0  0  2  0  0  0  0  0  0  0  0  0
    1.0743   -2.1144   -3.8996 C   0  0  0  0  0  0  0  0  0  0  0  0
    1.1949   -3.1993   -3.3395 O   0  0  0  0  0  0  0  0  0  0  0  0
    2.5681   -0.1022   -3.5193 C   0  0  0  0  0  0  0  0  0  0  0  0
    1.4511   -2.0636   -1.4012 H   0  0  0  0  0  0  0  0  0  0  0  0
    0.4213   -0.1587   -3.3204 H   0  0  0  0  0  0  0  0  0  0  0  0
    3.4352   -0.7395   -3.3185 H   0  0  0  0  0  0  0  0  0  0  0  0
    2.5489    0.1356   -4.5869 H   0  0  0  0  0  0  0  0  0  0  0  0
    2.6856    0.8323   -2.9612 H   0  0  0  0  0  0  0  0  0  0  0  0
    0.7235   -2.0784   -5.2366 N   0  0  0  0  0  0  0  0  0  0  0  0
    0.4568   -3.2760   -6.0247 C   0  0  0  0  0  0  0  0  0  0  0  0
    0.5889   -1.1672   -5.6651 H   0  0  0  0  0  0  0  0  0  0  0  0
    1.3293   -3.9380   -6.0244 H   0  0  0  0  0  0  0  0  0  0  0  0
   -0.3996   -3.8217   -5.6145 H   0  0  0  0  0  0  0  0  0  0  0  0
    0.2302   -3.0054   -7.0604 H   0  0  0  0  0  0  0  0  0  0  0  0
  1  2  2  0  0  0  0
  1  3  1  0  0  0  0
  1  7  1  0  0  0  0
  3  4  1  0  0  0  0
  3  5  1  0  0  0  0
  3  6  1  0  0  0  0
  7  8  1  0  0  0  0
  7 12  1  0  0  0  0
  8  9  1  0  0  0  0
  8 11  1  0  0  0  0
  8 13  1  0  0  0  0
  9 10  2  0  0  0  0
  9 17  1  0  0  0  0
 11 14  1  0  0  0  0
 11 15  1  0  0  0  0
 11 16  1  0  0  0  0
 17 18  1  0  0  0  0
 17 22  1  0  0  0  0
 18 19  1  0  0  0  0
 18 21  1  0  0  0  0
 18 23  1  0  0  0  0
 19 20  2  0  0  0  0
 19 27  1  0  0  0  0
 21 24  1  0  0  0  0
 21 25  1  0  0  0  0
 21 26  1  0  0  0  0
 27 28  1  0  0  0  0
 27 32  1  0  0  0  0
 28 29  1  0  0  0  0
 28 31  1  0  0  0  0
 28 33  1  0  0  0  0
 29 30  2  0  0  0  0
 29 37  1  0  0  0  0
 31 34  1  0  0  0  0
 31 35  1  0  0  0  0
 31 36  1  0  0  0  0
 37 38  1  0  0  0  0
 37 39  1  0  0  0  0
 38 40  1  0  0  0  0
 38 41  1  0  0  0  0
 38 42  1  0  0  0  0
M  END
$$$$

  -OEChem-05262215353D

 42 41  0     1  0  0  0  0  0999 V2000
   -5.4669   -0.9388    1.7163 C   0  0  0  0  0  0  0  0  0  0  0  0
   -5.7816    0.0621    1.0921 O   0  0  0  0  0  0  0  0  0  0  0  0
   -6.4586   -2.0751    1.8800 C   0  0  0  0  0  0  0  0  0  0  0  0
   -6.6392   -2.2646    2.9407 H   0  0  0  0  0  0  0  0  0  0  0  0
   -7.4077   -1.8187    1.4013 H   0  0  0  0  0  0  0  0  0  0  0  0
   -6.0649   -2.9828    1.4167 H   0  0  0  0  0  0  0  0  0  0  0  0
   -4.2056   -1.0459    2.2628 N   0  0  0  0  0  0  0  0  0  0  0  0
   -3.1106   -0.0977    2.0171 C   0  0  2  0  0  0  0  0  0  0  0  0
   -1.7579   -0.8229    1.8523 C   0  0  0  0  0  0  0  0  0  0  0  0
   -1.6267   -1.9409    2.3355 O   0  0  0  0  0  0  0  0  0  0  0  0
   -3.0564    0.8824    3.1915 C   0  0  0  0  0  0  0  0  0  0  0  0
   -3.9451   -1.9472    2.6613 H   0  0  0  0  0  0  0  0  0  0  0  0
   -3.2975    0.4592    1.0926 H   0  0  0  0  0  0  0  0  0  0  0  0
   -2.8634    0.3477    4.1273 H   0  0  0  0  0  0  0  0  0  0  0  0
   -2.2623    1.6200    3.0408 H   0  0  0  0  0  0  0  0  0  0  0  0
   -4.0089    1.4141    3.2830 H   0  0  0  0  0  0  0  0  0  0  0  0
   -0.7370   -0.1933    1.1562 N   0  0  0  0  0  0  0  0  0  0  0  0
    0.5905   -0.6929    0.7349 C   0  0  2  0  0  0  0  0  0  0  0  0
    0.8092   -0.2566   -0.7326 C   0  0  0  0  0  0  0  0  0  0  0  0
    0.6650    0.9265   -1.0179 O   0  0  0  0  0  0  0  0  0  0  0  0
    0.8255   -2.2073    0.9001 C   0  0  0  0  0  0  0  0  0  0  0  0
   -0.9825    0.7192    0.7724 H   0  0  0  0  0  0  0  0  0  0  0  0
    1.3501   -0.1852    1.3375 H   0  0  0  0  0  0  0  0  0  0  0  0
    0.0497   -2.7817    0.3830 H   0  0  0  0  0  0  0  0  0  0  0  0
    1.8016   -2.4923    0.4955 H   0  0  0  0  0  0  0  0  0  0  0  0
    0.8177   -2.4813    1.9595 H   0  0  0  0  0  0  0  0  0  0  0  0
    1.0130   -1.1671   -1.7527 N   0  0  0  0  0  0  0  0  0  0  0  0
    0.9101   -0.8556   -3.1835 C   0  0  2  0  0  0  0  0  0  0  0  0
    0.3425   -2.0573   -3.9687 C   0  0  0  0  0  0  0  0  0  0  0  0
    0.2839   -3.1620   -3.4388 O   0  0  0  0  0  0  0  0  0  0  0  0
    2.3021   -0.4780   -3.6972 C   0  0  0  0  0  0  0  0  0  0  0  0
    0.9351   -2.1544   -1.5061 H   0  0  0  0  0  0  0  0  0  0  0  0
    0.2271   -0.0129   -3.3351 H   0  0  0  0  0  0  0  0  0  0  0  0
    2.9991   -1.3109   -3.5598 H   0  0  0  0  0  0  0  0  0  0  0  0
    2.2648   -0.2260   -4.7612 H   0  0  0  0  0  0  0  0  0  0  0  0
    2.6840    0.3902   -3.1507 H   0  0  0  0  0  0  0  0  0  0  0  0
   -0.1251   -1.9005   -5.2605 N   0  0  0  0  0  0  0  0  0  0  0  0
   -0.7139   -2.9872   -6.0349 C   0  0  0  0  0  0  0  0  0  0  0  0
   -0.0991   -0.9677   -5.6621 H   0  0  0  0  0  0  0  0  0  0  0  0
    0.0069   -3.8019   -6.1627 H   0  0  0  0  0  0  0  0  0  0  0  0
   -1.6032   -3.3799   -5.5306 H   0  0  0  0  0  0  0  0  0  0  0  0
   -1.0089   -2.6290   -7.0259 H   0  0  0  0  0  0  0  0  0  0  0  0
  1  2  2  0  0  0  0
  1  3  1  0  0  0  0
  1  7  1  0  0  0  0
  3  4  1  0  0  0  0
  3  5  1  0  0  0  0
  3  6  1  0  0  0  0
  7  8  1  0  0  0  0
  7 12  1  0  0  0  0
  8  9  1  0  0  0  0
  8 11  1  0  0  0  0
  8 13  1  0  0  0  0
  9 10  2  0  0  0  0
  9 17  1  0  0  0  0
 11 14  1  0  0  0  0
 11 15  1  0  0  0  0
 11 16  1  0  0  0  0
 17 18  1  0  0  0  0
 17 22  1  0  0  0  0
 18 19  1  0  0  0  0
 18 21  1  0  0  0  0
 18 23  1  0  0  0  0
 19 20  2  0  0  0  0
 19 27  1  0  0  0  0
 21 24  1  0  0  0  0
 21 25  1  0  0  0  0
 21 26  1  0  0  0  0
 27 28  1  0  0  0  0
 27 32  1  0  0  0  0
 28 29  1  0  0  0  0
 28 31  1  0  0  0  0
 28 33  1  0  0  0  0
 29 30  2  0  0  0  0
 29 37  1  0  0  0  0
 31 34  1  0  0  0  0
 31 35  1  0  0  0  0
 31 36  1  0  0  0  0
 37 38  1  0  0  0  0
 37 39  1  0  0  0  0
 38 40  1  0  0  0  0
 38 41  1  0  0  0  0
 38 42  1  0  0  0  0
M  END
$$$$

  -OEChem-05262215353D

 42 41  0     1  0  0  0  0  0999 V2000
   -5.4662   -0.9440    1.7154 C   0  0  0  0  0  0  0  0  0  0  0  0
   -5.7750    0.0472    1.0728 O   0  0  0  0  0  0  0  0  0  0  0  0
   -6.4551   -2.0834    1.8756 C   0  0  0  0  0  0  0  0  0  0  0  0
   -6.6168   -2.2924    2.9359 H   0  0  0  0  0  0  0  0  0  0  0  0
   -7.4128   -1.8179    1.4190 H   0  0  0  0  0  0  0  0  0  0  0  0
   -6.0696   -2.9825    1.3886 H   0  0  0  0  0  0  0  0  0  0  0  0
   -4.2153   -1.0369    2.2876 N   0  0  0  0  0  0  0  0  0  0  0  0
   -3.1165   -0.0959    2.0325 C   0  0  2  0  0  0  0  0  0  0  0  0
   -1.7743   -0.8318    1.8341 C   0  0  0  0  0  0  0  0  0  0  0  0
   -1.6440   -1.9569    2.3006 O   0  0  0  0  0  0  0  0  0  0  0  0
   -3.0336    0.8682    3.2180 C   0  0  0  0  0  0  0  0  0  0  0  0
   -3.9565   -1.9366    2.6910 H   0  0  0  0  0  0  0  0  0  0  0  0
   -3.3142    0.4755    1.1191 H   0  0  0  0  0  0  0  0  0  0  0  0
   -2.8270    0.3204    4.1433 H   0  0  0  0  0  0  0  0  0  0  0  0
   -2.2372    1.6022    3.0620 H   0  0  0  0  0  0  0  0  0  0  0  0
   -3.9804    1.4054    3.3343 H   0  0  0  0  0  0  0  0  0  0  0  0
   -0.7608   -0.2015    1.1276 N   0  0  0  0  0  0  0  0  0  0  0  0
    0.5654   -0.6998    0.7018 C   0  0  2  0  0  0  0  0  0  0  0  0
    0.7785   -0.2755   -0.7676 C   0  0  0  0  0  0  0  0  0  0  0  0
    0.8784    0.9177   -1.0245 O   0  0  0  0  0  0  0  0  0  0  0  0
    0.8088   -2.2122    0.8689 C   0  0  0  0  0  0  0  0  0  0  0  0
   -0.9995    0.7253    0.7775 H   0  0  0  0  0  0  0  0  0  0  0  0
    1.3272   -0.1876    1.2978 H   0  0  0  0  0  0  0  0  0  0  0  0
    0.0235   -2.7937    0.3750 H   0  0  0  0  0  0  0  0  0  0  0  0
    1.7751   -2.4944    0.4392 H   0  0  0  0  0  0  0  0  0  0  0  0
    0.8271   -2.4800    1.9299 H   0  0  0  0  0  0  0  0  0  0  0  0
    0.6764   -1.1784   -1.8093 N   0  0  0  0  0  0  0  0  0  0  0  0
    0.5344   -0.8099   -3.2233 C   0  0  2  0  0  0  0  0  0  0  0  0
   -0.3698   -1.8144   -3.9697 C   0  0  0  0  0  0  0  0  0  0  0  0
   -0.6700   -2.8796   -3.4407 O   0  0  0  0  0  0  0  0  0  0  0  0
    1.9297   -0.7601   -3.8524 C   0  0  0  0  0  0  0  0  0  0  0  0
    0.3821   -2.1244   -1.5636 H   0  0  0  0  0  0  0  0  0  0  0  0
    0.0645    0.1758   -3.3076 H   0  0  0  0  0  0  0  0  0  0  0  0
    2.4136   -1.7400   -3.7884 H   0  0  0  0  0  0  0  0  0  0  0  0
    1.8670   -0.4697   -4.9054 H   0  0  0  0  0  0  0  0  0  0  0  0
    2.5538   -0.0282   -3.3298 H   0  0  0  0  0  0  0  0  0  0  0  0
   -0.8687   -1.5170   -5.2246 N   0  0  0  0  0  0  0  0  0  0  0  0
   -1.7727   -2.3988   -5.9538 C   0  0  0  0  0  0  0  0  0  0  0  0
   -0.6383   -0.6105   -5.6211 H   0  0  0  0  0  0  0  0  0  0  0  0
   -1.3215   -3.3882   -6.0845 H   0  0  0  0  0  0  0  0  0  0  0  0
   -2.7176   -2.5111   -5.4116 H   0  0  0  0  0  0  0  0  0  0  0  0
   -1.9881   -1.9853   -6.9438 H   0  0  0  0  0  0  0  0  0  0  0  0
  1  2  2  0  0  0  0
  1  3  1  0  0  0  0
  1  7  1  0  0  0  0
  3  4  1  0  0  0  0
  3  5  1  0  0  0  0
  3  6  1  0  0  0  0
  7  8  1  0  0  0  0
  7 12  1  0  0  0  0
  8  9  1  0  0  0  0
  8 11  1  0  0  0  0
  8 13  1  0  0  0  0
  9 10  2  0  0  0  0
  9 17  1  0  0  0  0
 11 14  1  0  0  0  0
 11 15  1  0  0  0  0
 11 16  1  0  0  0  0
 17 18  1  0  0  0  0
 17 22  1  0  0  0  0
 18 19  1  0  0  0  0
 18 21  1  0  0  0  0
 18 23  1  0  0  0  0
 19 20  2  0  0  0  0
 19 27  1  0  0  0  0
 21 24  1  0  0  0  0
 21 25  1  0  0  0  0
 21 26  1  0  0  0  0
 27 28  1  0  0  0  0
 27 32  1  0  0  0  0
 28 29  1  0  0  0  0
 28 31  1  0  0  0  0
 28 33  1  0  0  0  0
 29 30  2  0  0  0  0
 29 37  1  0  0  0  0
 31 34  1  0  0  0  0
 31 35  1  0  0  0  0
 31 36  1  0  0  0  0
 37 38  1  0  0  0  0
 37 39  1  0  0  0  0
 38 40  1  0  0  0  0
 38 41  1  0  0  0  0
 38 42  1  0  0  0  0
M  END
$$$$

  -OEChem-05262215353D

 42 41  0     1  0  0  0  0  0999 V2000
   -5.4886   -0.9286    1.7508 C   0  0  0  0  0  0  0  0  0  0  0  0
   -5.8107    0.0931    1.1648 O   0  0  0  0  0  0  0  0  0  0  0  0
   -6.4698   -2.0800    1.8673 C   0  0  0  0  0  0  0  0  0  0  0  0
   -6.6559   -2.3068    2.9200 H   0  0  0  0  0  0  0  0  0  0  0  0
   -7.4183   -1.8173    1.3903 H   0  0  0  0  0  0  0  0  0  0  0  0
   -6.0624   -2.9672    1.3761 H   0  0  0  0  0  0  0  0  0  0  0  0
   -4.2284   -1.0463    2.2982 N   0  0  0  0  0  0  0  0  0  0  0  0
   -3.1322   -0.0977    2.0620 C   0  0  2  0  0  0  0  0  0  0  0  0
   -1.7968   -0.8295    1.8095 C   0  0  0  0  0  0  0  0  0  0  0  0
   -1.6534   -1.9633    2.2498 O   0  0  0  0  0  0  0  0  0  0  0  0
   -3.0230    0.8171    3.2840 C   0  0  0  0  0  0  0  0  0  0  0  0
   -3.9637   -1.9635    2.6562 H   0  0  0  0  0  0  0  0  0  0  0  0
   -3.3457    0.5105    1.1763 H   0  0  0  0  0  0  0  0  0  0  0  0
   -2.7988    0.2310    4.1813 H   0  0  0  0  0  0  0  0  0  0  0  0
   -2.2280    1.5557    3.1423 H   0  0  0  0  0  0  0  0  0  0  0  0
   -3.9661    1.3501    3.4418 H   0  0  0  0  0  0  0  0  0  0  0  0
   -0.8040   -0.1864    1.0853 N   0  0  0  0  0  0  0  0  0  0  0  0
    0.5286   -0.6653    0.6549 C   0  0  2  0  0  0  0  0  0  0  0  0
    0.7309   -0.2634   -0.8200 C   0  0  0  0  0  0  0  0  0  0  0  0
    1.0860    0.8782   -1.0810 O   0  0  0  0  0  0  0  0  0  0  0  0
    0.8051   -2.1705    0.8270 C   0  0  0  0  0  0  0  0  0  0  0  0
   -1.0484    0.7514    0.7723 H   0  0  0  0  0  0  0  0  0  0  0  0
    1.2841   -0.1341    1.2431 H   0  0  0  0  0  0  0  0  0  0  0  0
    0.0276   -2.7726    0.3461 H   0  0  0  0  0  0  0  0  0  0  0  0
    1.7713   -2.4330    0.3845 H   0  0  0  0  0  0  0  0  0  0  0  0
    0.8420   -2.4315    1.8892 H   0  0  0  0  0  0  0  0  0  0  0  0
    0.3453   -1.1014   -1.8487 N   0  0  0  0  0  0  0  0  0  0  0  0
    0.2019   -0.6904   -3.2502 C   0  0  2  0  0  0  0  0  0  0  0  0
   -0.9874   -1.4090   -3.9216 C   0  0  0  0  0  0  0  0  0  0  0  0
   -1.5129   -2.3718   -3.3732 O   0  0  0  0  0  0  0  0  0  0  0  0
    1.5126   -1.0047   -3.9762 C   0  0  0  0  0  0  0  0  0  0  0  0
   -0.1446   -1.9553   -1.5791 H   0  0  0  0  0  0  0  0  0  0  0  0
    0.0059    0.3855   -3.3079 H   0  0  0  0  0  0  0  0  0  0  0  0
    1.7239   -2.0781   -3.9366 H   0  0  0  0  0  0  0  0  0  0  0  0
    1.4557   -0.6983   -5.0248 H   0  0  0  0  0  0  0  0  0  0  0  0
    2.3430   -0.4687   -3.5054 H   0  0  0  0  0  0  0  0  0  0  0  0
   -1.4890   -0.9602   -5.1290 N   0  0  0  0  0  0  0  0  0  0  0  0
   -2.6471   -1.5562   -5.7847 C   0  0  0  0  0  0  0  0  0  0  0  0
   -1.0594   -0.1374   -5.5414 H   0  0  0  0  0  0  0  0  0  0  0  0
   -2.4694   -2.6174   -5.9885 H   0  0  0  0  0  0  0  0  0  0  0  0
   -3.5361   -1.4631   -5.1520 H   0  0  0  0  0  0  0  0  0  0  0  0
   -2.8451   -1.0517   -6.7352 H   0  0  0  0  0  0  0  0  0  0  0  0
  1  2  2  0  0  0  0
  1  3  1  0  0  0  0
  1  7  1  0  0  0  0
  3  4  1  0  0  0  0
  3  5  1  0  0  0  0
  3  6  1  0  0  0  0
  7  8  1  0  0  0  0
  7 12  1  0  0  0  0
  8  9  1  0  0  0  0
  8 11  1  0  0  0  0
  8 13  1  0  0  0  0
  9 10  2  0  0  0  0
  9 17  1  0  0  0  0
 11 14  1  0  0  0  0
 11 15  1  0  0  0  0
 11 16  1  0  0  0  0
 17 18  1  0  0  0  0
 17 22  1  0  0  0  0
 18 19  1  0  0  0  0
 18 21  1  0  0  0  0
 18 23  1  0  0  0  0
 19 20  2  0  0  0  0
 19 27  1  0  0  0  0
 21 24  1  0  0  0  0
 21 25  1  0  0  0  0
 21 26  1  0  0  0  0
 27 28  1  0  0  0  0
 27 32  1  0  0  0  0
 28 29  1  0  0  0  0
 28 31  1  0  0  0  0
 28 33  1  0  0  0  0
 29 30  2  0  0  0  0
 29 37  1  0  0  0  0
 31 34  1  0  0  0  0
 31 35  1  0  0  0  0
 31 36  1  0  0  0  0
 37 38  1  0  0  0  0
 37 39  1  0  0  0  0
 38 40  1  0  0  0  0
 38 41  1  0  0  0  0
 38 42  1  0  0  0  0
M  END
$$$$

  -OEChem-05262215353D

 42 41  0     1  0  0  0  0  0999 V2000
   -5.5204   -0.9126    1.8075 C   0  0  0  0  0  0  0  0  0  0  0  0
   -5.8587    0.1534    1.3175 O   0  0  0  0  0  0  0  0  0  0  0  0
   -6.5055   -2.0637    1.8811 C   0  0  0  0  0  0  0  0  0  0  0  0
   -6.6825   -2.3370    2.9239 H   0  0  0  0  0  0  0  0  0  0  0  0
   -7.4563   -1.7747    1.4249 H   0  0  0  0  0  0  0  0  0  0  0  0
   -6.1079   -2.9300    1.3467 H   0  0  0  0  0  0  0  0  0  0  0  0
   -4.2375   -1.0783    2.2843 N   0  0  0  0  0  0  0  0  0  0  0  0
   -3.1476   -0.1181    2.0710 C   0  0  2  0  0  0  0  0  0  0  0  0
   -1.8106   -0.8348    1.7869 C   0  0  0  0  0  0  0  0  0  0  0  0
   -1.6521   -1.9753    2.2036 O   0  0  0  0  0  0  0  0  0  0  0  0
   -3.0330    0.7624    3.3177 C   0  0  0  0  0  0  0  0  0  0  0  0
   -3.9662   -2.0171    2.5747 H   0  0  0  0  0  0  0  0  0  0  0  0
   -3.3723    0.5128    1.2042 H   0  0  0  0  0  0  0  0  0  0  0  0
   -2.8014    0.1521    4.1965 H   0  0  0  0  0  0  0  0  0  0  0  0
   -2.2412    1.5068    3.1916 H   0  0  0  0  0  0  0  0  0  0  0  0
   -3.9761    1.2884    3.4971 H   0  0  0  0  0  0  0  0  0  0  0  0
   -0.8375   -0.1736    1.0519 N   0  0  0  0  0  0  0  0  0  0  0  0
    0.5058   -0.6237    0.6208 C   0  0  2  0  0  0  0  0  0  0  0  0
    0.7010   -0.2367   -0.8573 C   0  0  0  0  0  0  0  0  0  0  0  0
    1.3036    0.7895   -1.1399 O   0  0  0  0  0  0  0  0  0  0  0  0
    0.8172   -2.1214    0.7888 C   0  0  0  0  0  0  0  0  0  0  0  0
   -1.0970    0.7669    0.7615 H   0  0  0  0  0  0  0  0  0  0  0  0
    1.2503   -0.0740    1.2064 H   0  0  0  0  0  0  0  0  0  0  0  0
    0.0581   -2.7402    0.3000 H   0  0  0  0  0  0  0  0  0  0  0  0
    1.7914   -2.3580    0.3493 H   0  0  0  0  0  0  0  0  0  0  0  0
    0.8554   -2.3858    1.8500 H   0  0  0  0  0  0  0  0  0  0  0  0
    0.0638   -0.9491   -1.8549 N   0  0  0  0  0  0  0  0  0  0  0  0
   -0.0847   -0.4899   -3.2413 C   0  0  2  0  0  0  0  0  0  0  0  0
   -1.4774   -0.8468   -3.8023 C   0  0  0  0  0  0  0  0  0  0  0  0
   -2.2015   -1.6305   -3.1977 O   0  0  0  0  0  0  0  0  0  0  0  0
    1.0234   -1.1325   -4.0787 C   0  0  0  0  0  0  0  0  0  0  0  0
   -0.5927   -1.6673   -1.5456 H   0  0  0  0  0  0  0  0  0  0  0  0
    0.0137    0.5996   -3.2891 H   0  0  0  0  0  0  0  0  0  0  0  0
    0.9399   -2.2236   -4.0508 H   0  0  0  0  0  0  0  0  0  0  0  0
    0.9591   -0.8036   -5.1200 H   0  0  0  0  0  0  0  0  0  0  0  0
    2.0049   -0.8471   -3.6868 H   0  0  0  0  0  0  0  0  0  0  0  0
   -1.9318   -0.2686   -4.9731 N   0  0  0  0  0  0  0  0  0  0  0  0
   -3.2549   -0.5243   -5.5297 C   0  0  0  0  0  0  0  0  0  0  0  0
   -1.3256    0.4040   -5.4336 H   0  0  0  0  0  0  0  0  0  0  0  0
   -3.3816   -1.5912   -5.7408 H   0  0  0  0  0  0  0  0  0  0  0  0
   -4.0340   -0.2088   -4.8278 H   0  0  0  0  0  0  0  0  0  0  0  0
   -3.3866    0.0303   -6.4637 H   0  0  0  0  0  0  0  0  0  0  0  0
  1  2  2  0  0  0  0
  1  3  1  0  0  0  0
  1  7  1  0  0  0  0
  3  4  1  0  0  0  0
  3  5  1  0  0  0  0
  3  6  1  0  0  0  0
  7  8  1  0  0  0  0
  7 12  1  0  0  0  0
  8  9  1  0  0  0  0
  8 11  1  0  0  0  0
  8 13  1  0  0  0  0
  9 10  2  0  0  0  0
  9 17  1  0  0  0  0
 11 14  1  0  0  0  0
 11 15  1  0  0  0  0
 11 16  1  0  0  0  0
 17 18  1  0  0  0  0
 17 22  1  0  0  0  0
 18 19  1  0  0  0  0
 18 21  1  0  0  0  0
 18 23  1  0  0  0  0
 19 20  2  0  0  0  0
 19 27  1  0  0  0  0
 21 24  1  0  0  0  0
 21 25  1  0  0  0  0
 21 26  1  0  0  0  0
 27 28  1  0  0  0  0
 27 32  1  0  0  0  0
 28 29  1  0  0  0  0
 28 31  1  0  0  0  0
 28 33  1  0  0  0  0
 29 30  2  0  0  0  0
 29 37  1  0  0  0  0
 31 34  1  0  0  0  0
 31 35  1  0  0  0  0
 31 36  1  0  0  0  0
 37 38  1  0  0  0  0
 37 39  1  0  0  0  0
 38 40  1  0  0  0  0
 38 41  1  0  0  0  0
 38 42  1  0  0  0  0
M  END
$$$$

  -OEChem-05262215353D

 42 41  0     1  0  0  0  0  0999 V2000
   -5.4484   -1.7801    1.6917 C   0  0  0  0  0  0  0  0  0  0  0  0
   -5.9563   -1.5096    0.6152 O   0  0  0  0  0  0  0  0  0  0  0  0
   -6.1515   -2.7245    2.6481 C   0  0  0  0  0  0  0  0  0  0  0  0
   -6.4089   -2.1963    3.5694 H   0  0  0  0  0  0  0  0  0  0  0  0
   -7.0683   -3.1089    2.1929 H   0  0  0  0  0  0  0  0  0  0  0  0
   -5.4985   -3.5666    2.8894 H   0  0  0  0  0  0  0  0  0  0  0  0
   -4.2319   -1.2386    2.0458 N   0  0  0  0  0  0  0  0  0  0  0  0
   -3.3749   -0.4569    1.1444 C   0  0  2  0  0  0  0  0  0  0  0  0
   -1.8770   -0.6983    1.4416 C   0  0  0  0  0  0  0  0  0  0  0  0
   -1.5619   -1.4456    2.3611 O   0  0  0  0  0  0  0  0  0  0  0  0
   -3.7401    1.0233    1.2947 C   0  0  0  0  0  0  0  0  0  0  0  0
   -3.7813   -1.6197    2.8768 H   0  0  0  0  0  0  0  0  0  0  0  0
   -3.5516   -0.7609    0.1066 H   0  0  0  0  0  0  0  0  0  0  0  0
   -3.5417    1.3665    2.3149 H   0  0  0  0  0  0  0  0  0  0  0  0
   -3.1581    1.6354    0.5988 H   0  0  0  0  0  0  0  0  0  0  0  0
   -4.8021    1.1739    1.0754 H   0  0  0  0  0  0  0  0  0  0  0  0
   -0.9198   -0.0823    0.6528 N   0  0  0  0  0  0  0  0  0  0  0  0
    0.5252   -0.3817    0.5181 C   0  0  2  0  0  0  0  0  0  0  0  0
    0.8484   -0.3606   -0.9855 C   0  0  0  0  0  0  0  0  0  0  0  0
    1.4686    0.5756   -1.4716 O   0  0  0  0  0  0  0  0  0  0  0  0
    1.0021   -1.7245    1.0983 C   0  0  0  0  0  0  0  0  0  0  0  0
   -1.3271    0.4422   -0.1296 H   0  0  0  0  0  0  0  0  0  0  0  0
    1.0955    0.4177    1.0028 H   0  0  0  0  0  0  0  0  0  0  0  0
    0.3801   -2.5507    0.7407 H   0  0  0  0  0  0  0  0  0  0  0  0
    2.0388   -1.9181    0.8051 H   0  0  0  0  0  0  0  0  0  0  0  0
    0.9632   -1.7034    2.1916 H   0  0  0  0  0  0  0  0  0  0  0  0
    0.1868   -1.2460   -1.8171 N   0  0  0  0  0  0  0  0  0  0  0  0
   -0.2699   -0.7866   -3.1356 C   0  0  2  0  0  0  0  0  0  0  0  0
   -1.4013    0.2661   -3.0240 C   0  0  0  0  0  0  0  0  0  0  0  0
   -2.0587    0.3686   -1.9893 O   0  0  0  0  0  0  0  0  0  0  0  0
   -0.7607   -2.0104   -3.9117 C   0  0  0  0  0  0  0  0  0  0  0  0
   -0.4533   -1.8571   -1.3166 H   0  0  0  0  0  0  0  0  0  0  0  0
    0.5682   -0.3379   -3.6801 H   0  0  0  0  0  0  0  0  0  0  0  0
   -1.6118   -2.4734   -3.4015 H   0  0  0  0  0  0  0  0  0  0  0  0
   -1.0756   -1.7232   -4.9198 H   0  0  0  0  0  0  0  0  0  0  0  0
    0.0400   -2.7516   -3.9979 H   0  0  0  0  0  0  0  0  0  0  0  0
   -1.6899    1.0981   -4.0890 N   0  0  0  0  0  0  0  0  0  0  0  0
   -2.7183    2.1310   -4.0415 C   0  0  0  0  0  0  0  0  0  0  0  0
   -1.0773    1.0528   -4.8983 H   0  0  0  0  0  0  0  0  0  0  0  0
   -3.6986    1.6873   -3.8371 H   0  0  0  0  0  0  0  0  0  0  0  0
   -2.4926    2.8622   -3.2581 H   0  0  0  0  0  0  0  0  0  0  0  0
   -2.7717    2.6562   -5.0002 H   0  0  0  0  0  0  0  0  0  0  0  0
  1  2  2  0  0  0  0
  1  3  1  0  0  0  0
  1  7  1  0  0  0  0
  3  4  1  0  0  0  0
  3  5  1  0  0  0  0
  3  6  1  0  0  0  0
  7  8  1  0  0  0  0
  7 12  1  0  0  0  0
  8  9  1  0  0  0  0
  8 11  1  0  0  0  0
  8 13  1  0  0  0  0
  9 10  2  0  0  0  0
  9 17  1  0  0  0  0
 11 14  1  0  0  0  0
 11 15  1  0  0  0  0
 11 16  1  0  0  0  0
 17 18  1  0  0  0  0
 17 22  1  0  0  0  0
 18 19  1  0  0  0  0
 18 21  1  0  0  0  0
 18 23  1  0  0  0  0
 19 20  2  0  0  0  0
 19 27  1  0  0  0  0
 21 24  1  0  0  0  0
 21 25  1  0  0  0  0
 21 26  1  0  0  0  0
 27 28  1  0  0  0  0
 27 32  1  0  0  0  0
 28 29  1  0  0  0  0
 28 31  1  0  0  0  0
 28 33  1  0  0  0  0
 29 30  2  0  0  0  0
 29 37  1  0  0  0  0
 31 34  1  0  0  0  0
 31 35  1  0  0  0  0
 31 36  1  0  0  0  0
 37 38  1  0  0  0  0
 37 39  1  0  0  0  0
 38 40  1  0  0  0  0
 38 41  1  0  0  0  0
 38 42  1  0  0  0  0
M  END
$$$$

  -OEChem-05262215353D

 42 41  0     1  0  0  0  0  0999 V2000
   -5.5448   -1.6286    1.6987 C   0  0  0  0  0  0  0  0  0  0  0  0
   -6.0573   -1.1933    0.6799 O   0  0  0  0  0  0  0  0  0  0  0  0
   -6.2910   -2.6386    2.5502 C   0  0  0  0  0  0  0  0  0  0  0  0
   -6.4365   -2.2413    3.5577 H   0  0  0  0  0  0  0  0  0  0  0  0
   -7.2696   -2.8515    2.1108 H   0  0  0  0  0  0  0  0  0  0  0  0
   -5.7217   -3.5693    2.6115 H   0  0  0  0  0  0  0  0  0  0  0  0
   -4.2862   -1.2128    2.0773 N   0  0  0  0  0  0  0  0  0  0  0  0
   -3.4071   -0.3689    1.2561 C   0  0  2  0  0  0  0  0  0  0  0  0
   -1.9177   -0.7280    1.4622 C   0  0  0  0  0  0  0  0  0  0  0  0
   -1.6131   -1.5659    2.3031 O   0  0  0  0  0  0  0  0  0  0  0  0
   -3.6726    1.0970    1.6117 C   0  0  0  0  0  0  0  0  0  0  0  0
   -3.8435   -1.7132    2.8471 H   0  0  0  0  0  0  0  0  0  0  0  0
   -3.6319   -0.5223    0.1946 H   0  0  0  0  0  0  0  0  0  0  0  0
   -3.4252    1.2878    2.6605 H   0  0  0  0  0  0  0  0  0  0  0  0
   -3.0709    1.7598    0.9824 H   0  0  0  0  0  0  0  0  0  0  0  0
   -4.7277    1.3401    1.4515 H   0  0  0  0  0  0  0  0  0  0  0  0
   -0.9628   -0.1103    0.6713 N   0  0  0  0  0  0  0  0  0  0  0  0
    0.4822   -0.4020    0.5029 C   0  0  2  0  0  0  0  0  0  0  0  0
    0.7998   -0.3626   -1.0031 C   0  0  0  0  0  0  0  0  0  0  0  0
    1.6258    0.4274   -1.4389 O   0  0  0  0  0  0  0  0  0  0  0  0
    0.9666   -1.7554    1.0463 C   0  0  0  0  0  0  0  0  0  0  0  0
   -1.3660    0.5204   -0.0315 H   0  0  0  0  0  0  0  0  0  0  0  0
    1.0581    0.3879    0.9968 H   0  0  0  0  0  0  0  0  0  0  0  0
    0.3614   -2.5755    0.6477 H   0  0  0  0  0  0  0  0  0  0  0  0
    2.0103   -1.9256    0.7635 H   0  0  0  0  0  0  0  0  0  0  0  0
    0.9103   -1.7727    2.1388 H   0  0  0  0  0  0  0  0  0  0  0  0
   -0.0645   -1.0008   -1.8744 N   0  0  0  0  0  0  0  0  0  0  0  0
   -0.4508   -0.3482   -3.1324 C   0  0  2  0  0  0  0  0  0  0  0  0
   -1.4867    0.7772   -2.8901 C   0  0  0  0  0  0  0  0  0  0  0  0
   -2.0825    0.8526   -1.8162 O   0  0  0  0  0  0  0  0  0  0  0  0
   -1.0248   -1.4230   -4.0584 C   0  0  0  0  0  0  0  0  0  0  0  0
   -0.8120   -1.4929   -1.3911 H   0  0  0  0  0  0  0  0  0  0  0  0
    0.4293    0.0904   -3.6155 H   0  0  0  0  0  0  0  0  0  0  0  0
   -1.9204   -1.8724   -3.6172 H   0  0  0  0  0  0  0  0  0  0  0  0
   -1.2939   -0.9916   -5.0275 H   0  0  0  0  0  0  0  0  0  0  0  0
   -0.2847   -2.2119   -4.2266 H   0  0  0  0  0  0  0  0  0  0  0  0
   -1.7563    1.7102   -3.8731 N   0  0  0  0  0  0  0  0  0  0  0  0
   -2.7064    2.8025   -3.6987 C   0  0  0  0  0  0  0  0  0  0  0  0
   -1.2116    1.6638   -4.7296 H   0  0  0  0  0  0  0  0  0  0  0  0
   -3.7122    2.4091   -3.5168 H   0  0  0  0  0  0  0  0  0  0  0  0
   -2.4156    3.4325   -2.8515 H   0  0  0  0  0  0  0  0  0  0  0  0
   -2.7371    3.4257   -4.5975 H   0  0  0  0  0  0  0  0  0  0  0  0
  1  2  2  0  0  0  0
  1  3  1  0  0  0  0
  1  7  1  0  0  0  0
  3  4  1  0  0  0  0
  3  5  1  0  0  0  0
  3  6  1  0  0  0  0
  7  8  1  0  0  0  0
  7 12  1  0  0  0  0
  8  9  1  0  0  0  0
  8 11  1  0  0  0  0
  8 13  1  0  0  0  0
  9 10  2  0  0  0  0
  9 17  1  0  0  0  0
 11 14  1  0  0  0  0
 11 15  1  0  0  0  0
 11 16  1  0  0  0  0
 17 18  1  0  0  0  0
 17 22  1  0  0  0  0
 18 19  1  0  0  0  0
 18 21  1  0  0  0  0
 18 23  1  0  0  0  0
 19 20  2  0  0  0  0
 19 27  1  0  0  0  0
 21 24  1  0  0  0  0
 21 25  1  0  0  0  0
 21 26  1  0  0  0  0
 27 28  1  0  0  0  0
 27 32  1  0  0  0  0
 28 29  1  0  0  0  0
 28 31  1  0  0  0  0
 28 33  1  0  0  0  0
 29 30  2  0  0  0  0
 29 37  1  0  0  0  0
 31 34  1  0  0  0  0
 31 35  1  0  0  0  0
 31 36  1  0  0  0  0
 37 38  1  0  0  0  0
 37 39  1  0  0  0  0
 38 40  1  0  0  0  0
 38 41  1  0  0  0  0
 38 42  1  0  0  0  0
M  END
$$$$

  -OEChem-05262215353D

 42 41  0     1  0  0  0  0  0999 V2000
   -5.6053   -1.4444    1.7738 C   0  0  0  0  0  0  0  0  0  0  0  0
   -6.1244   -0.8936    0.8159 O   0  0  0  0  0  0  0  0  0  0  0  0
   -6.3711   -2.4973    2.5517 C   0  0  0  0  0  0  0  0  0  0  0  0
   -6.4849   -2.1835    3.5921 H   0  0  0  0  0  0  0  0  0  0  0  0
   -7.3636   -2.6406    2.1158 H   0  0  0  0  0  0  0  0  0  0  0  0
   -5.8324   -3.4473    2.5216 H   0  0  0  0  0  0  0  0  0  0  0  0
   -4.3162   -1.1277    2.1446 N   0  0  0  0  0  0  0  0  0  0  0  0
   -3.4170   -0.2630    1.3687 C   0  0  2  0  0  0  0  0  0  0  0  0
   -1.9483   -0.7338    1.4672 C   0  0  0  0  0  0  0  0  0  0  0  0
   -1.6616   -1.6436    2.2361 O   0  0  0  0  0  0  0  0  0  0  0  0
   -3.5658    1.1723    1.8821 C   0  0  0  0  0  0  0  0  0  0  0  0
   -3.8775   -1.7196    2.8492 H   0  0  0  0  0  0  0  0  0  0  0  0
   -3.6957   -0.2915    0.3092 H   0  0  0  0  0  0  0  0  0  0  0  0
   -3.2575    1.2385    2.9302 H   0  0  0  0  0  0  0  0  0  0  0  0
   -2.9496    1.8570    1.2913 H   0  0  0  0  0  0  0  0  0  0  0  0
   -4.6084    1.4961    1.8032 H   0  0  0  0  0  0  0  0  0  0  0  0
   -0.9981   -0.1262    0.6624 N   0  0  0  0  0  0  0  0  0  0  0  0
    0.4432   -0.4252    0.4639 C   0  0  2  0  0  0  0  0  0  0  0  0
    0.7599   -0.3905   -1.0445 C   0  0  0  0  0  0  0  0  0  0  0  0
    1.7514    0.2015   -1.4475 O   0  0  0  0  0  0  0  0  0  0  0  0
    0.9249   -1.7813    1.0017 C   0  0  0  0  0  0  0  0  0  0  0  0
   -1.3850    0.5994    0.0474 H   0  0  0  0  0  0  0  0  0  0  0  0
    1.0292    0.3597    0.9528 H   0  0  0  0  0  0  0  0  0  0  0  0
    0.3134   -2.5973    0.6038 H   0  0  0  0  0  0  0  0  0  0  0  0
    1.9663   -1.9561    0.7129 H   0  0  0  0  0  0  0  0  0  0  0  0
    0.8746   -1.8006    2.0945 H   0  0  0  0  0  0  0  0  0  0  0  0
   -0.2380   -0.7378   -1.9366 N   0  0  0  0  0  0  0  0  0  0  0  0
   -0.5130    0.1000   -3.1109 C   0  0  2  0  0  0  0  0  0  0  0  0
   -1.4582    1.2701   -2.7463 C   0  0  0  0  0  0  0  0  0  0  0  0
   -2.0252    1.2909   -1.6542 O   0  0  0  0  0  0  0  0  0  0  0  0
   -1.1369   -0.7935   -4.1851 C   0  0  0  0  0  0  0  0  0  0  0  0
   -1.0640   -1.1007   -1.4665 H   0  0  0  0  0  0  0  0  0  0  0  0
    0.4165    0.5211   -3.5094 H   0  0  0  0  0  0  0  0  0  0  0  0
   -2.0809   -1.2199   -3.8305 H   0  0  0  0  0  0  0  0  0  0  0  0
   -1.3346   -0.2195   -5.0956 H   0  0  0  0  0  0  0  0  0  0  0  0
   -0.4558   -1.6132   -4.4358 H   0  0  0  0  0  0  0  0  0  0  0  0
   -1.6778    2.3017   -3.6390 N   0  0  0  0  0  0  0  0  0  0  0  0
   -2.5594    3.4294   -3.3608 C   0  0  0  0  0  0  0  0  0  0  0  0
   -1.1683    2.2812   -4.5179 H   0  0  0  0  0  0  0  0  0  0  0  0
   -3.5817    3.0814   -3.1790 H   0  0  0  0  0  0  0  0  0  0  0  0
   -2.2128    3.9802   -2.4802 H   0  0  0  0  0  0  0  0  0  0  0  0
   -2.5760    4.1161   -4.2125 H   0  0  0  0  0  0  0  0  0  0  0  0
  1  2  2  0  0  0  0
  1  3  1  0  0  0  0
  1  7  1  0  0  0  0
  3  4  1  0  0  0  0
  3  5  1  0  0  0  0
  3  6  1  0  0  0  0
  7  8  1  0  0  0  0
  7 12  1  0  0  0  0
  8  9  1  0  0  0  0
  8 11  1  0  0  0  0
  8 13  1  0  0  0  0
  9 10  2  0  0  0  0
  9 17  1  0  0  0  0
 11 14  1  0  0  0  0
 11 15  1  0  0  0  0
 11 16  1  0  0  0  0
 17 18  1  0  0  0  0
 17 22  1  0  0  0  0
 18 19  1  0  0  0  0
 18 21  1  0  0  0  0
 18 23  1  0  0  0  0
 19 20  2  0  0  0  0
 19 27  1  0  0  0  0
 21 24  1  0  0  0  0
 21 25  1  0  0  0  0
 21 26  1  0  0  0  0
 27 28  1  0  0  0  0
 27 32  1  0  0  0  0
 28 29  1  0  0  0  0
 28 31  1  0  0  0  0
 28 33  1  0  0  0  0
 29 30  2  0  0  0  0
 29 37  1  0  0  0  0
 31 34  1  0  0  0  0
 31 35  1  0  0  0  0
 31 36  1  0  0  0  0
 37 38  1  0  0  0  0
 37 39  1  0  0  0  0
 38 40  1  0  0  0  0
 38 41  1  0  0  0  0
 38 42  1  0  0  0  0
M  END
$$$$

  -OEChem-05262215353D

 42 41  0     1  0  0  0  0  0999 V2000
   -5.6304   -1.3004    1.8603 C   0  0  0  0  0  0  0  0  0  0  0  0
   -6.1602   -0.6762    0.9546 O   0  0  0  0  0  0  0  0  0  0  0  0
   -6.4148   -2.3555    2.6165 C   0  0  0  0  0  0  0  0  0  0  0  0
   -6.4220   -2.1208    3.6836 H   0  0  0  0  0  0  0  0  0  0  0  0
   -7.4467   -2.3883    2.2561 H   0  0  0  0  0  0  0  0  0  0  0  0
   -5.9578   -3.3370    2.4690 H   0  0  0  0  0  0  0  0  0  0  0  0
   -4.3148   -1.0598    2.1937 N   0  0  0  0  0  0  0  0  0  0  0  0
   -3.4111   -0.1887    1.4307 C   0  0  2  0  0  0  0  0  0  0  0  0
   -1.9583   -0.7143    1.4524 C   0  0  0  0  0  0  0  0  0  0  0  0
   -1.6706   -1.6507    2.1879 O   0  0  0  0  0  0  0  0  0  0  0  0
   -3.4884    1.2232    2.0182 C   0  0  0  0  0  0  0  0  0  0  0  0
   -3.8763   -1.7036    2.8516 H   0  0  0  0  0  0  0  0  0  0  0  0
   -3.7276   -0.1537    0.3822 H   0  0  0  0  0  0  0  0  0  0  0  0
   -3.1456    1.2247    3.0575 H   0  0  0  0  0  0  0  0  0  0  0  0
   -2.8650    1.9136    1.4419 H   0  0  0  0  0  0  0  0  0  0  0  0
   -4.5196    1.5886    1.9896 H   0  0  0  0  0  0  0  0  0  0  0  0
   -1.0292   -0.1234    0.6113 N   0  0  0  0  0  0  0  0  0  0  0  0
    0.4120   -0.4088    0.3894 C   0  0  2  0  0  0  0  0  0  0  0  0
    0.7147   -0.4202   -1.1245 C   0  0  0  0  0  0  0  0  0  0  0  0
    1.8000   -0.0248   -1.5269 O   0  0  0  0  0  0  0  0  0  0  0  0
    0.9204   -1.7375    0.9684 C   0  0  0  0  0  0  0  0  0  0  0  0
   -1.4065    0.6623    0.0683 H   0  0  0  0  0  0  0  0  0  0  0  0
    0.9944    0.4002    0.8418 H   0  0  0  0  0  0  0  0  0  0  0  0
    0.3226   -2.5757    0.5970 H   0  0  0  0  0  0  0  0  0  0  0  0
    1.9640   -1.9026    0.6821 H   0  0  0  0  0  0  0  0  0  0  0  0
    0.8729   -1.7240    2.0613 H   0  0  0  0  0  0  0  0  0  0  0  0
   -0.3438   -0.5008   -2.0107 N   0  0  0  0  0  0  0  0  0  0  0  0
   -0.5007    0.4880   -3.0840 C   0  0  2  0  0  0  0  0  0  0  0  0
   -1.3092    1.7087   -2.5856 C   0  0  0  0  0  0  0  0  0  0  0  0
   -1.9018    1.6574   -1.5080 O   0  0  0  0  0  0  0  0  0  0  0  0
   -1.2132   -0.1997   -4.2499 C   0  0  0  0  0  0  0  0  0  0  0  0
   -1.2109   -0.7565   -1.5438 H   0  0  0  0  0  0  0  0  0  0  0  0
    0.4758    0.8412   -3.4326 H   0  0  0  0  0  0  0  0  0  0  0  0
   -2.2040   -0.5497   -3.9423 H   0  0  0  0  0  0  0  0  0  0  0  0
   -1.3337    0.4920   -5.0892 H   0  0  0  0  0  0  0  0  0  0  0  0
   -0.6298   -1.0601   -4.5928 H   0  0  0  0  0  0  0  0  0  0  0  0
   -1.3703    2.8679   -3.3345 N   0  0  0  0  0  0  0  0  0  0  0  0
   -2.1084    4.0535   -2.9160 C   0  0  0  0  0  0  0  0  0  0  0  0
   -0.8435    2.8973   -4.2031 H   0  0  0  0  0  0  0  0  0  0  0  0
   -3.1714    3.8199   -2.7944 H   0  0  0  0  0  0  0  0  0  0  0  0
   -1.7197    4.4319   -1.9647 H   0  0  0  0  0  0  0  0  0  0  0  0
   -2.0128    4.8435   -3.6670 H   0  0  0  0  0  0  0  0  0  0  0  0
  1  2  2  0  0  0  0
  1  3  1  0  0  0  0
  1  7  1  0  0  0  0
  3  4  1  0  0  0  0
  3  5  1  0  0  0  0
  3  6  1  0  0  0  0
  7  8  1  0  0  0  0
  7 12  1  0  0  0  0
  8  9  1  0  0  0  0
  8 11  1  0  0  0  0
  8 13  1  0  0  0  0
  9 10  2  0  0  0  0
  9 17  1  0  0  0  0
 11 14  1  0  0  0  0
 11 15  1  0  0  0  0
 11 16  1  0  0  0  0
 17 18  1  0  0  0  0
 17 22  1  0  0  0  0
 18 19  1  0  0  0  0
 18 21  1  0  0  0  0
 18 23  1  0  0  0  0
 19 20  2  0  0  0  0
 19 27  1  0  0  0  0
 21 24  1  0  0  0  0
 21 25  1  0  0  0  0
 21 26  1  0  0  0  0
 27 28  1  0  0  0  0
 27 32  1  0  0  0  0
 28 29  1  0  0  0  0
 28 31  1  0  0  0  0
 28 33  1  0  0  0  0
 29 30  2  0  0  0  0
 29 37  1  0  0  0  0
 31 34  1  0  0  0  0
 31 35  1  0  0  0  0
 31 36  1  0  0  0  0
 37 38  1  0  0  0  0
 37 39  1  0  0  0  0
 38 40  1  0  0  0  0
 38 41  1  0  0  0  0
 38 42  1  0  0  0  0
M  END
$$$$

  -OEChem-05262215353D

 42 41  0     1  0  0  0  0  0999 V2000
   -5.6136   -1.2430    1.9573 C   0  0  0  0  0  0  0  0  0  0  0  0
   -6.1644   -0.6233    1.0611 O   0  0  0  0  0  0  0  0  0  0  0  0
   -6.3714   -2.3156    2.7167 C   0  0  0  0  0  0  0  0  0  0  0  0
   -6.4315   -2.0507    3.7751 H   0  0  0  0  0  0  0  0  0  0  0  0
   -7.3857   -2.4139    2.3197 H   0  0  0  0  0  0  0  0  0  0  0  0
   -5.8595   -3.2758    2.6167 H   0  0  0  0  0  0  0  0  0  0  0  0
   -4.2993   -0.9797    2.2785 N   0  0  0  0  0  0  0  0  0  0  0  0
   -3.4132   -0.1094    1.4941 C   0  0  2  0  0  0  0  0  0  0  0  0
   -1.9737   -0.6673    1.4360 C   0  0  0  0  0  0  0  0  0  0  0  0
   -1.6710   -1.6145    2.1511 O   0  0  0  0  0  0  0  0  0  0  0  0
   -3.4346    1.2884    2.1185 C   0  0  0  0  0  0  0  0  0  0  0  0
   -3.8425   -1.6290    2.9182 H   0  0  0  0  0  0  0  0  0  0  0  0
   -3.7749   -0.0418    0.4621 H   0  0  0  0  0  0  0  0  0  0  0  0
   -3.0475    1.2573    3.1418 H   0  0  0  0  0  0  0  0  0  0  0  0
   -2.8222    1.9809    1.5326 H   0  0  0  0  0  0  0  0  0  0  0  0
   -4.4588    1.6740    2.1438 H   0  0  0  0  0  0  0  0  0  0  0  0
   -1.0815   -0.1004    0.5396 N   0  0  0  0  0  0  0  0  0  0  0  0
    0.3548   -0.3817    0.2793 C   0  0  2  0  0  0  0  0  0  0  0  0
    0.6188   -0.4540   -1.2425 C   0  0  0  0  0  0  0  0  0  0  0  0
    1.7528   -0.2704   -1.6638 O   0  0  0  0  0  0  0  0  0  0  0  0
    0.9024   -1.6732    0.9087 C   0  0  0  0  0  0  0  0  0  0  0  0
   -1.4466    0.7363    0.0695 H   0  0  0  0  0  0  0  0  0  0  0  0
    0.9393    0.4547    0.6757 H   0  0  0  0  0  0  0  0  0  0  0  0
    0.3144   -2.5397    0.5897 H   0  0  0  0  0  0  0  0  0  0  0  0
    1.9427   -1.8332    0.6073 H   0  0  0  0  0  0  0  0  0  0  0  0
    0.8786   -1.6096    2.0007 H   0  0  0  0  0  0  0  0  0  0  0  0
   -0.4444   -0.2664   -2.1066 N   0  0  0  0  0  0  0  0  0  0  0  0
   -0.4350    0.8362   -3.0735 C   0  0  2  0  0  0  0  0  0  0  0  0
   -1.0222    2.1140   -2.4304 C   0  0  0  0  0  0  0  0  0  0  0  0
   -1.6505    2.0370   -1.3740 O   0  0  0  0  0  0  0  0  0  0  0  0
   -1.2627    0.4022   -4.2846 C   0  0  0  0  0  0  0  0  0  0  0  0
   -1.3370   -0.3949   -1.6364 H   0  0  0  0  0  0  0  0  0  0  0  0
    0.5853    1.0527   -3.4078 H   0  0  0  0  0  0  0  0  0  0  0  0
   -2.2982    0.2009   -3.9909 H   0  0  0  0  0  0  0  0  0  0  0  0
   -1.2632    1.1842   -5.0500 H   0  0  0  0  0  0  0  0  0  0  0  0
   -0.8417   -0.5087   -4.7220 H   0  0  0  0  0  0  0  0  0  0  0  0
   -0.8305    3.3503   -3.0161 N   0  0  0  0  0  0  0  0  0  0  0  0
   -1.3056    4.5970   -2.4275 C   0  0  0  0  0  0  0  0  0  0  0  0
   -0.2595    3.3898   -3.8560 H   0  0  0  0  0  0  0  0  0  0  0  0
   -2.3889    4.5589   -2.2698 H   0  0  0  0  0  0  0  0  0  0  0  0
   -0.8143    4.7774   -1.4657 H   0  0  0  0  0  0  0  0  0  0  0  0
   -1.0837    5.4379   -3.0918 H   0  0  0  0  0  0  0  0  0  0  0  0
  1  2  2  0  0  0  0
  1  3  1  0  0  0  0
  1  7  1  0  0  0  0
  3  4  1  0  0  0  0
  3  5  1  0  0  0  0
  3  6  1  0  0  0  0
  7  8  1  0  0  0  0
  7 12  1  0  0  0  0
  8  9  1  0  0  0  0
  8 11  1  0  0  0  0
  8 13  1  0  0  0  0
  9 10  2  0  0  0  0
  9 17  1  0  0  0  0
 11 14  1  0  0  0  0
 11 15  1  0  0  0  0
 11 16  1  0  0  0  0
 17 18  1  0  0  0  0
 17 22  1  0  0  0  0
 18 19  1  0  0  0  0
 18 21  1  0  0  0  0
 18 23  1  0  0  0  0
 19 20  2  0  0  0  0
 19 27  1  0  0  0  0
 21 24  1  0  0  0  0
 21 25  1  0  0  0  0
 21 26  1  0  0  0  0
 27 28  1  0  0  0  0
 27 32  1  0  0  0  0
 28 29  1  0  0  0  0
 28 31  1  0  0  0  0
 28 33  1  0  0  0  0
 29 30  2  0  0  0  0
 29 37  1  0  0  0  0
 31 34  1  0  0  0  0
 31 35  1  0  0  0  0
 31 36  1  0  0  0  0
 37 38  1  0  0  0  0
 37 39  1  0  0  0  0
 38 40  1  0  0  0  0
 38 41  1  0  0  0  0
 38 42  1  0  0  0  0
M  END
$$$$

  -OEChem-05262215353D

 42 41  0     1  0  0  0  0  0999 V2000
   -5.5602   -0.9893    1.8733 C   0  0  0  0  0  0  0  0  0  0  0  0
   -5.8556   -0.0015    1.2197 O   0  0  0  0  0  0  0  0  0  0  0  0
   -6.5190   -2.1626    1.9497 C   0  0  0  0  0  0  0  0  0  0  0  0
   -6.7762   -2.3670    2.9917 H   0  0  0  0  0  0  0  0  0  0  0  0
   -7.4363   -1.9381    1.3984 H   0  0  0  0  0  0  0  0  0  0  0  0
   -6.0559   -3.0517    1.5147 H   0  0  0  0  0  0  0  0  0  0  0  0
   -4.3495   -1.0560    2.5310 N   0  0  0  0  0  0  0  0  0  0  0  0
   -3.2417   -0.1153    2.3092 C   0  0  2  0  0  0  0  0  0  0  0  0
   -1.9840   -0.8404    1.7828 C   0  0  0  0  0  0  0  0  0  0  0  0
   -1.8468   -2.0287    2.0425 O   0  0  0  0  0  0  0  0  0  0  0  0
   -2.9426    0.5812    3.6385 C   0  0  0  0  0  0  0  0  0  0  0  0
   -4.0870   -1.9761    2.8815 H   0  0  0  0  0  0  0  0  0  0  0  0
   -3.5215    0.6440    1.5713 H   0  0  0  0  0  0  0  0  0  0  0  0
   -2.6332   -0.1493    4.3932 H   0  0  0  0  0  0  0  0  0  0  0  0
   -2.1411    1.3158    3.5150 H   0  0  0  0  0  0  0  0  0  0  0  0
   -3.8348    1.1013    4.0013 H   0  0  0  0  0  0  0  0  0  0  0  0
   -1.0594   -0.1203    1.0362 N   0  0  0  0  0  0  0  0  0  0  0  0
    0.2828   -0.5149    0.5259 C   0  0  2  0  0  0  0  0  0  0  0  0
    0.4728   -0.0861   -0.9523 C   0  0  0  0  0  0  0  0  0  0  0  0
    1.4632   -0.4267   -1.5861 O   0  0  0  0  0  0  0  0  0  0  0  0
    0.6342   -2.0087    0.6685 C   0  0  0  0  0  0  0  0  0  0  0  0
   -1.2759    0.8715    0.9812 H   0  0  0  0  0  0  0  0  0  0  0  0
    1.0260    0.0393    1.1072 H   0  0  0  0  0  0  0  0  0  0  0  0
   -0.0867   -2.6284    0.1264 H   0  0  0  0  0  0  0  0  0  0  0  0
    1.6320   -2.2138    0.2686 H   0  0  0  0  0  0  0  0  0  0  0  0
    0.6390   -2.3044    1.7215 H   0  0  0  0  0  0  0  0  0  0  0  0
   -0.3865    0.8281   -1.5331 N   0  0  0  0  0  0  0  0  0  0  0  0
   -0.1401    1.5468   -2.7882 C   0  0  2  0  0  0  0  0  0  0  0  0
   -0.6343    3.0056   -2.6922 C   0  0  0  0  0  0  0  0  0  0  0  0
   -1.3343    3.3530   -1.7454 O   0  0  0  0  0  0  0  0  0  0  0  0
   -0.8600    0.7989   -3.9127 C   0  0  0  0  0  0  0  0  0  0  0  0
   -1.1602    1.1654   -0.9669 H   0  0  0  0  0  0  0  0  0  0  0  0
    0.9336    1.5770   -3.0026 H   0  0  0  0  0  0  0  0  0  0  0  0
   -1.9388    0.7760   -3.7274 H   0  0  0  0  0  0  0  0  0  0  0  0
   -0.6813    1.2865   -4.8755 H   0  0  0  0  0  0  0  0  0  0  0  0
   -0.4949   -0.2314   -3.9744 H   0  0  0  0  0  0  0  0  0  0  0  0
   -0.2844    3.9321   -3.6569 N   0  0  0  0  0  0  0  0  0  0  0  0
   -0.7274    5.3208   -3.6336 C   0  0  0  0  0  0  0  0  0  0  0  0
    0.3024    3.6151   -4.4235 H   0  0  0  0  0  0  0  0  0  0  0  0
   -1.8158    5.3767   -3.7423 H   0  0  0  0  0  0  0  0  0  0  0  0
   -0.4415    5.8006   -2.6914 H   0  0  0  0  0  0  0  0  0  0  0  0
   -0.2677    5.8775   -4.4560 H   0  0  0  0  0  0  0  0  0  0  0  0
  1  2  2  0  0  0  0
  1  3  1  0  0  0  0
  1  7  1  0  0  0  0
  3  4  1  0  0  0  0
  3  5  1  0  0  0  0
  3  6  1  0  0  0  0
  7  8  1  0  0  0  0
  7 12  1  0  0  0  0
  8  9  1  0  0  0  0
  8 11  1  0  0  0  0
  8 13  1  0  0  0  0
  9 10  2  0  0  0  0
  9 17  1  0  0  0  0
 11 14  1  0  0  0  0
 11 15  1  0  0  0  0
 11 16  1  0  0  0  0
 17 18  1  0  0  0  0
 17 22  1  0  0  0  0
 18 19  1  0  0  0  0
 18 21  1  0  0  0  0
 18 23  1  0  0  0  0
 19 20  2  0  0  0  0
 19 27  1  0  0  0  0
 21 24  1  0  0  0  0
 21 25  1  0  0  0  0
 21 26  1  0  0  0  0
 27 28  1  0  0  0  0
 27 32  1  0  0  0  0
 28 29  1  0  0  0  0
 28 31  1  0  0  0  0
 28 33  1  0  0  0  0
 29 30  2  0  0  0  0
 29 37  1  0  0  0  0
 31 34  1  0  0  0  0
 31 35  1  0  0  0  0
 31 36  1  0  0  0  0
 37 38  1  0  0  0  0
 37 39  1  0  0  0  0
 38 40  1  0  0  0  0
 38 41  1  0  0  0  0
 38 42  1  0  0  0  0
M  END
$$$$

  -OEChem-05262215353D

 42 41  0     1  0  0  0  0  0999 V2000
   -5.5616   -0.9992    1.8388 C   0  0  0  0  0  0  0  0  0  0  0  0
   -5.8767    0.0008    1.2134 O   0  0  0  0  0  0  0  0  0  0  0  0
   -6.5158   -2.1767    1.9163 C   0  0  0  0  0  0  0  0  0  0  0  0
   -6.7560   -2.3961    2.9595 H   0  0  0  0  0  0  0  0  0  0  0  0
   -7.4424   -1.9469    1.3823 H   0  0  0  0  0  0  0  0  0  0  0  0
   -6.0574   -3.0585    1.4617 H   0  0  0  0  0  0  0  0  0  0  0  0
   -4.3321   -1.0730    2.4597 N   0  0  0  0  0  0  0  0  0  0  0  0
   -3.2370   -0.1188    2.2335 C   0  0  2  0  0  0  0  0  0  0  0  0
   -1.9395   -0.8387    1.8074 C   0  0  0  0  0  0  0  0  0  0  0  0
   -1.7946   -2.0123    2.1233 O   0  0  0  0  0  0  0  0  0  0  0  0
   -3.0175    0.6649    3.5300 C   0  0  0  0  0  0  0  0  0  0  0  0
   -4.0586   -1.9917    2.8064 H   0  0  0  0  0  0  0  0  0  0  0  0
   -3.4997    0.5837    1.4354 H   0  0  0  0  0  0  0  0  0  0  0  0
   -2.7412   -0.0117    4.3453 H   0  0  0  0  0  0  0  0  0  0  0  0
   -2.2189    1.4025    3.4046 H   0  0  0  0  0  0  0  0  0  0  0  0
   -3.9342    1.1933    3.8106 H   0  0  0  0  0  0  0  0  0  0  0  0
   -0.9854   -0.1237    1.0940 N   0  0  0  0  0  0  0  0  0  0  0  0
    0.3321   -0.5511    0.5470 C   0  0  2  0  0  0  0  0  0  0  0  0
    0.5227   -0.0389   -0.9077 C   0  0  0  0  0  0  0  0  0  0  0  0
    1.2379   -0.6224   -1.7121 O   0  0  0  0  0  0  0  0  0  0  0  0
    0.6138   -2.0662    0.6138 C   0  0  0  0  0  0  0  0  0  0  0  0
   -1.2453    0.8446    0.9360 H   0  0  0  0  0  0  0  0  0  0  0  0
    1.1059   -0.0654    1.1491 H   0  0  0  0  0  0  0  0  0  0  0  0
   -0.1496   -2.6250    0.0632 H   0  0  0  0  0  0  0  0  0  0  0  0
    1.5913   -2.3000    0.1804 H   0  0  0  0  0  0  0  0  0  0  0  0
    0.6309   -2.4102    1.6518 H   0  0  0  0  0  0  0  0  0  0  0  0
   -0.0732    1.1408   -1.3186 N   0  0  0  0  0  0  0  0  0  0  0  0
    0.1673    1.7981   -2.6089 C   0  0  2  0  0  0  0  0  0  0  0  0
    0.0454    3.3301   -2.4710 C   0  0  0  0  0  0  0  0  0  0  0  0
   -0.3988    3.8152   -1.4342 O   0  0  0  0  0  0  0  0  0  0  0  0
   -0.8459    1.2582   -3.6227 C   0  0  0  0  0  0  0  0  0  0  0  0
   -0.5074    1.7217   -0.6063 H   0  0  0  0  0  0  0  0  0  0  0  0
    1.1821    1.5791   -2.9583 H   0  0  0  0  0  0  0  0  0  0  0  0
   -1.8677    1.4772   -3.2969 H   0  0  0  0  0  0  0  0  0  0  0  0
   -0.6879    1.7128   -4.6051 H   0  0  0  0  0  0  0  0  0  0  0  0
   -0.7383    0.1735   -3.7248 H   0  0  0  0  0  0  0  0  0  0  0  0
    0.4600    4.1653   -3.4916 N   0  0  0  0  0  0  0  0  0  0  0  0
    0.4054    5.6198   -3.4079 C   0  0  0  0  0  0  0  0  0  0  0  0
    0.8432    3.7341   -4.3282 H   0  0  0  0  0  0  0  0  0  0  0  0
   -0.6275    5.9580   -3.2749 H   0  0  0  0  0  0  0  0  0  0  0  0
    1.0052    5.9782   -2.5647 H   0  0  0  0  0  0  0  0  0  0  0  0
    0.7995    6.0668   -4.3256 H   0  0  0  0  0  0  0  0  0  0  0  0
  1  2  2  0  0  0  0
  1  3  1  0  0  0  0
  1  7  1  0  0  0  0
  3  4  1  0  0  0  0
  3  5  1  0  0  0  0
  3  6  1  0  0  0  0
  7  8  1  0  0  0  0
  7 12  1  0  0  0  0
  8  9  1  0  0  0  0
  8 11  1  0  0  0  0
  8 13  1  0  0  0  0
  9 10  2  0  0  0  0
  9 17  1  0  0  0  0
 11 14  1  0  0  0  0
 11 15  1  0  0  0  0
 11 16  1  0  0  0  0
 17 18  1  0  0  0  0
 17 22  1  0  0  0  0
 18 19  1  0  0  0  0
 18 21  1  0  0  0  0
 18 23  1  0  0  0  0
 19 20  2  0  0  0  0
 19 27  1  0  0  0  0
 21 24  1  0  0  0  0
 21 25  1  0  0  0  0
 21 26  1  0  0  0  0
 27 28  1  0  0  0  0
 27 32  1  0  0  0  0
 28 29  1  0  0  0  0
 28 31  1  0  0  0  0
 28 33  1  0  0  0  0
 29 30  2  0  0  0  0
 29 37  1  0  0  0  0
 31 34  1  0  0  0  0
 31 35  1  0  0  0  0
 31 36  1  0  0  0  0
 37 38  1  0  0  0  0
 37 39  1  0  0  0  0
 38 40  1  0  0  0  0
 38 41  1  0  0  0  0
 38 42  1  0  0  0  0
M  END
$$$$

  -OEChem-05262215353D

 42 41  0     1  0  0  0  0  0999 V2000
   -5.5331   -1.0204    1.7890 C   0  0  0  0  0  0  0  0  0  0  0  0
   -5.8849   -0.0443    1.1453 O   0  0  0  0  0  0  0  0  0  0  0  0
   -6.4853   -2.1857    1.9837 C   0  0  0  0  0  0  0  0  0  0  0  0
   -6.6843   -2.3318    3.0483 H   0  0  0  0  0  0  0  0  0  0  0  0
   -7.4318   -1.9883    1.4724 H   0  0  0  0  0  0  0  0  0  0  0  0
   -6.0473   -3.0987    1.5728 H   0  0  0  0  0  0  0  0  0  0  0  0
   -4.2648   -1.0728    2.3279 N   0  0  0  0  0  0  0  0  0  0  0  0
   -3.2025   -0.1002    2.0394 C   0  0  2  0  0  0  0  0  0  0  0  0
   -1.8392   -0.7924    1.8249 C   0  0  0  0  0  0  0  0  0  0  0  0
   -1.6632   -1.9043    2.3058 O   0  0  0  0  0  0  0  0  0  0  0  0
   -3.1310    0.8858    3.2078 C   0  0  0  0  0  0  0  0  0  0  0  0
   -3.9687   -1.9612    2.7314 H   0  0  0  0  0  0  0  0  0  0  0  0
   -3.4375    0.4498    1.1220 H   0  0  0  0  0  0  0  0  0  0  0  0
   -2.8943    0.3593    4.1381 H   0  0  0  0  0  0  0  0  0  0  0  0
   -2.3598    1.6409    3.0283 H   0  0  0  0  0  0  0  0  0  0  0  0
   -4.0919    1.3961    3.3302 H   0  0  0  0  0  0  0  0  0  0  0  0
   -0.8522   -0.1183    1.1185 N   0  0  0  0  0  0  0  0  0  0  0  0
    0.4296   -0.6247    0.5613 C   0  0  2  0  0  0  0  0  0  0  0  0
    0.6015   -0.0789   -0.8802 C   0  0  0  0  0  0  0  0  0  0  0  0
    0.9233   -0.7866   -1.8259 O   0  0  0  0  0  0  0  0  0  0  0  0
    0.6027   -2.1578    0.5768 C   0  0  0  0  0  0  0  0  0  0  0  0
   -1.1698    0.7719    0.7446 H   0  0  0  0  0  0  0  0  0  0  0  0
    1.2445   -0.2077    1.1606 H   0  0  0  0  0  0  0  0  0  0  0  0
   -0.2262   -2.6458    0.0542 H   0  0  0  0  0  0  0  0  0  0  0  0
    1.5375   -2.4443    0.0844 H   0  0  0  0  0  0  0  0  0  0  0  0
    0.6481   -2.5331    1.6030 H   0  0  0  0  0  0  0  0  0  0  0  0
    0.3345    1.2564   -1.1267 N   0  0  0  0  0  0  0  0  0  0  0  0
    0.5083    1.9177   -2.4267 C   0  0  2  0  0  0  0  0  0  0  0  0
    0.8177    3.4181   -2.2380 C   0  0  0  0  0  0  0  0  0  0  0  0
    0.7063    3.9251   -1.1257 O   0  0  0  0  0  0  0  0  0  0  0  0
   -0.7725    1.7269   -3.2463 C   0  0  0  0  0  0  0  0  0  0  0  0
    0.2928    1.8782   -0.3196 H   0  0  0  0  0  0  0  0  0  0  0  0
    1.3525    1.4705   -2.9627 H   0  0  0  0  0  0  0  0  0  0  0  0
   -1.6254    2.1859   -2.7363 H   0  0  0  0  0  0  0  0  0  0  0  0
   -0.6695    2.1844   -4.2347 H   0  0  0  0  0  0  0  0  0  0  0  0
   -0.9810    0.6608   -3.3824 H   0  0  0  0  0  0  0  0  0  0  0  0
    1.2358    4.1973   -3.3010 N   0  0  0  0  0  0  0  0  0  0  0  0
    1.5553    5.6146   -3.1743 C   0  0  0  0  0  0  0  0  0  0  0  0
    1.3303    3.7494   -4.2083 H   0  0  0  0  0  0  0  0  0  0  0  0
    0.6874    6.1711   -2.8046 H   0  0  0  0  0  0  0  0  0  0  0  0
    2.3890    5.7583   -2.4786 H   0  0  0  0  0  0  0  0  0  0  0  0
    1.8414    6.0282   -4.1464 H   0  0  0  0  0  0  0  0  0  0  0  0
  1  2  2  0  0  0  0
  1  3  1  0  0  0  0
  1  7  1  0  0  0  0
  3  4  1  0  0  0  0
  3  5  1  0  0  0  0
  3  6  1  0  0  0  0
  7  8  1  0  0  0  0
  7 12  1  0  0  0  0
  8  9  1  0  0  0  0
  8 11  1  0  0  0  0
  8 13  1  0  0  0  0
  9 10  2  0  0  0  0
  9 17  1  0  0  0  0
 11 14  1  0  0  0  0
 11 15  1  0  0  0  0
 11 16  1  0  0  0  0
 17 18  1  0  0  0  0
 17 22  1  0  0  0  0
 18 19  1  0  0  0  0
 18 21  1  0  0  0  0
 18 23  1  0  0  0  0
 19 20  2  0  0  0  0
 19 27  1  0  0  0  0
 21 24  1  0  0  0  0
 21 25  1  0  0  0  0
 21 26  1  0  0  0  0
 27 28  1  0  0  0  0
 27 32  1  0  0  0  0
 28 29  1  0  0  0  0
 28 31  1  0  0  0  0
 28 33  1  0  0  0  0
 29 30  2  0  0  0  0
 29 37  1  0  0  0  0
 31 34  1  0  0  0  0
 31 35  1  0  0  0  0
 31 36  1  0  0  0  0
 37 38  1  0  0  0  0
 37 39  1  0  0  0  0
 38 40  1  0  0  0  0
 38 41  1  0  0  0  0
 38 42  1  0  0  0  0
M  END
$$$$

  -OEChem-05262215353D

 42 41  0     1  0  0  0  0  0999 V2000
   -5.5469   -1.0078    1.8207 C   0  0  0  0  0  0  0  0  0  0  0  0
   -5.9173   -0.0190    1.2072 O   0  0  0  0  0  0  0  0  0  0  0  0
   -6.5042   -2.1608    2.0556 C   0  0  0  0  0  0  0  0  0  0  0  0
   -6.6574   -2.3059    3.1277 H   0  0  0  0  0  0  0  0  0  0  0  0
   -7.4695   -1.9507    1.5868 H   0  0  0  0  0  0  0  0  0  0  0  0
   -6.0965   -3.0785    1.6249 H   0  0  0  0  0  0  0  0  0  0  0  0
   -4.2534   -1.0830    2.2919 N   0  0  0  0  0  0  0  0  0  0  0  0
   -3.1987   -0.1133    1.9705 C   0  0  2  0  0  0  0  0  0  0  0  0
   -1.8260   -0.7982    1.7991 C   0  0  0  0  0  0  0  0  0  0  0  0
   -1.6484   -1.9015    2.2994 O   0  0  0  0  0  0  0  0  0  0  0  0
   -3.1472    0.9302    3.0901 C   0  0  0  0  0  0  0  0  0  0  0  0
   -3.9493   -1.9736    2.6847 H   0  0  0  0  0  0  0  0  0  0  0  0
   -3.4319    0.3866    1.0241 H   0  0  0  0  0  0  0  0  0  0  0  0
   -2.9107    0.4534    4.0470 H   0  0  0  0  0  0  0  0  0  0  0  0
   -2.3842    1.6854    2.8786 H   0  0  0  0  0  0  0  0  0  0  0  0
   -4.1148    1.4341    3.1812 H   0  0  0  0  0  0  0  0  0  0  0  0
   -0.8293   -0.1242    1.1076 N   0  0  0  0  0  0  0  0  0  0  0  0
    0.4566   -0.6331    0.5700 C   0  0  2  0  0  0  0  0  0  0  0  0
    0.6319   -0.0779   -0.8649 C   0  0  0  0  0  0  0  0  0  0  0  0
    0.6762   -0.7948   -1.8562 O   0  0  0  0  0  0  0  0  0  0  0  0
    0.6205   -2.1663    0.5694 C   0  0  0  0  0  0  0  0  0  0  0  0
   -1.1404    0.7639    0.7222 H   0  0  0  0  0  0  0  0  0  0  0  0
    1.2676   -0.2276    1.1821 H   0  0  0  0  0  0  0  0  0  0  0  0
   -0.2190   -2.6451    0.0550 H   0  0  0  0  0  0  0  0  0  0  0  0
    1.5460   -2.4513    0.0590 H   0  0  0  0  0  0  0  0  0  0  0  0
    0.6773   -2.5508    1.5918 H   0  0  0  0  0  0  0  0  0  0  0  0
    0.6709    1.2928   -1.0440 N   0  0  0  0  0  0  0  0  0  0  0  0
    0.8790    1.9605   -2.3354 C   0  0  2  0  0  0  0  0  0  0  0  0
    1.5543    3.3348   -2.1460 C   0  0  0  0  0  0  0  0  0  0  0  0
    1.6611    3.8128   -1.0211 O   0  0  0  0  0  0  0  0  0  0  0  0
   -0.4783    2.1160   -3.0302 C   0  0  0  0  0  0  0  0  0  0  0  0
    0.8084    1.8704   -0.2144 H   0  0  0  0  0  0  0  0  0  0  0  0
    1.5400    1.3533   -2.9633 H   0  0  0  0  0  0  0  0  0  0  0  0
   -1.1489    2.7372   -2.4279 H   0  0  0  0  0  0  0  0  0  0  0  0
   -0.3566    2.5842   -4.0115 H   0  0  0  0  0  0  0  0  0  0  0  0
   -0.9459    1.1366   -3.1740 H   0  0  0  0  0  0  0  0  0  0  0  0
    2.0576    4.0276   -3.2313 N   0  0  0  0  0  0  0  0  0  0  0  0
    2.7310    5.3154   -3.1167 C   0  0  0  0  0  0  0  0  0  0  0  0
    1.9730    3.5958   -4.1471 H   0  0  0  0  0  0  0  0  0  0  0  0
    2.0701    6.0545   -2.6517 H   0  0  0  0  0  0  0  0  0  0  0  0
    3.6372    5.2211   -2.5094 H   0  0  0  0  0  0  0  0  0  0  0  0
    3.0154    5.6827   -4.1074 H   0  0  0  0  0  0  0  0  0  0  0  0
  1  2  2  0  0  0  0
  1  3  1  0  0  0  0
  1  7  1  0  0  0  0
  3  4  1  0  0  0  0
  3  5  1  0  0  0  0
  3  6  1  0  0  0  0
  7  8  1  0  0  0  0
  7 12  1  0  0  0  0
  8  9  1  0  0  0  0
  8 11  1  0  0  0  0
  8 13  1  0  0  0  0
  9 10  2  0  0  0  0
  9 17  1  0  0  0  0
 11 14  1  0  0  0  0
 11 15  1  0  0  0  0
 11 16  1  0  0  0  0
 17 18  1  0  0  0  0
 17 22  1  0  0  0  0
 18 19  1  0  0  0  0
 18 21  1  0  0  0  0
 18 23  1  0  0  0  0
 19 20  2  0  0  0  0
 19 27  1  0  0  0  0
 21 24  1  0  0  0  0
 21 25  1  0  0  0  0
 21 26  1  0  0  0  0
 27 28  1  0  0  0  0
 27 32  1  0  0  0  0
 28 29  1  0  0  0  0
 28 31  1  0  0  0  0
 28 33  1  0  0  0  0
 29 30  2  0  0  0  0
 29 37  1  0  0  0  0
 31 34  1  0  0  0  0
 31 35  1  0  0  0  0
 31 36  1  0  0  0  0
 37 38  1  0  0  0  0
 37 39  1  0  0  0  0
 38 40  1  0  0  0  0
 38 41  1  0  0  0  0
 38 42  1  0  0  0  0
M  END
$$$$

  -OEChem-05262215353D

 42 41  0     1  0  0  0  0  0999 V2000
   -5.5672   -1.0112    1.8533 C   0  0  0  0  0  0  0  0  0  0  0  0
   -5.9553   -0.0057    1.2792 O   0  0  0  0  0  0  0  0  0  0  0  0
   -6.5186   -2.1684    2.0920 C   0  0  0  0  0  0  0  0  0  0  0  0
   -6.6354   -2.3400    3.1649 H   0  0  0  0  0  0  0  0  0  0  0  0
   -7.4986   -1.9466    1.6600 H   0  0  0  0  0  0  0  0  0  0  0  0
   -6.1263   -3.0755    1.6259 H   0  0  0  0  0  0  0  0  0  0  0  0
   -4.2590   -1.1016    2.2788 N   0  0  0  0  0  0  0  0  0  0  0  0
   -3.2137   -0.1213    1.9603 C   0  0  2  0  0  0  0  0  0  0  0  0
   -1.8343   -0.7935    1.7880 C   0  0  0  0  0  0  0  0  0  0  0  0
   -1.6479   -1.8959    2.2878 O   0  0  0  0  0  0  0  0  0  0  0  0
   -3.1713    0.9167    3.0852 C   0  0  0  0  0  0  0  0  0  0  0  0
   -3.9465   -1.9981    2.6507 H   0  0  0  0  0  0  0  0  0  0  0  0
   -3.4536    0.3791    1.0159 H   0  0  0  0  0  0  0  0  0  0  0  0
   -2.9304    0.4361    4.0390 H   0  0  0  0  0  0  0  0  0  0  0  0
   -2.4148    1.6790    2.8777 H   0  0  0  0  0  0  0  0  0  0  0  0
   -4.1429    1.4122    3.1795 H   0  0  0  0  0  0  0  0  0  0  0  0
   -0.8368   -0.1084    1.1084 N   0  0  0  0  0  0  0  0  0  0  0  0
    0.4573   -0.6077    0.5837 C   0  0  2  0  0  0  0  0  0  0  0  0
    0.6491   -0.0521   -0.8469 C   0  0  0  0  0  0  0  0  0  0  0  0
    0.4230   -0.7193   -1.8480 O   0  0  0  0  0  0  0  0  0  0  0  0
    0.6290   -2.1392    0.5671 C   0  0  0  0  0  0  0  0  0  0  0  0
   -1.1477    0.7806    0.7249 H   0  0  0  0  0  0  0  0  0  0  0  0
    1.2597   -0.2048    1.2087 H   0  0  0  0  0  0  0  0  0  0  0  0
   -0.2099   -2.6187    0.0524 H   0  0  0  0  0  0  0  0  0  0  0  0
    1.5526   -2.4131    0.0475 H   0  0  0  0  0  0  0  0  0  0  0  0
    0.6920   -2.5324    1.5860 H   0  0  0  0  0  0  0  0  0  0  0  0
    0.9967    1.2758   -1.0066 N   0  0  0  0  0  0  0  0  0  0  0  0
    1.2549    1.9200   -2.3009 C   0  0  2  0  0  0  0  0  0  0  0  0
    2.2696    3.0735   -2.1579 C   0  0  0  0  0  0  0  0  0  0  0  0
    2.5644    3.4930   -1.0434 O   0  0  0  0  0  0  0  0  0  0  0  0
   -0.0745    2.4387   -2.8589 C   0  0  0  0  0  0  0  0  0  0  0  0
    1.3109    1.7837   -0.1795 H   0  0  0  0  0  0  0  0  0  0  0  0
    1.6811    1.1912   -2.9991 H   0  0  0  0  0  0  0  0  0  0  0  0
   -0.5104    3.1817   -2.1831 H   0  0  0  0  0  0  0  0  0  0  0  0
    0.0750    2.9030   -3.8382 H   0  0  0  0  0  0  0  0  0  0  0  0
   -0.7851    1.6141   -2.9754 H   0  0  0  0  0  0  0  0  0  0  0  0
    2.8630    3.6318   -3.2748 N   0  0  0  0  0  0  0  0  0  0  0  0
    3.8419    4.7102   -3.2074 C   0  0  0  0  0  0  0  0  0  0  0  0
    2.6144    3.2485   -4.1823 H   0  0  0  0  0  0  0  0  0  0  0  0
    3.4101    5.5905   -2.7194 H   0  0  0  0  0  0  0  0  0  0  0  0
    4.7248    4.3917   -2.6432 H   0  0  0  0  0  0  0  0  0  0  0  0
    4.1602    4.9956   -4.2148 H   0  0  0  0  0  0  0  0  0  0  0  0
  1  2  2  0  0  0  0
  1  3  1  0  0  0  0
  1  7  1  0  0  0  0
  3  4  1  0  0  0  0
  3  5  1  0  0  0  0
  3  6  1  0  0  0  0
  7  8  1  0  0  0  0
  7 12  1  0  0  0  0
  8  9  1  0  0  0  0
  8 11  1  0  0  0  0
  8 13  1  0  0  0  0
  9 10  2  0  0  0  0
  9 17  1  0  0  0  0
 11 14  1  0  0  0  0
 11 15  1  0  0  0  0
 11 16  1  0  0  0  0
 17 18  1  0  0  0  0
 17 22  1  0  0  0  0
 18 19  1  0  0  0  0
 18 21  1  0  0  0  0
 18 23  1  0  0  0  0
 19 20  2  0  0  0  0
 19 27  1  0  0  0  0
 21 24  1  0  0  0  0
 21 25  1  0  0  0  0
 21 26  1  0  0  0  0
 27 28  1  0  0  0  0
 27 32  1  0  0  0  0
 28 29  1  0  0  0  0
 28 31  1  0  0  0  0
 28 33  1  0  0  0  0
 29 30  2  0  0  0  0
 29 37  1  0  0  0  0
 31 34  1  0  0  0  0
 31 35  1  0  0  0  0
 31 36  1  0  0  0  0
 37 38  1  0  0  0  0
 37 39  1  0  0  0  0
 38 40  1  0  0  0  0
 38 41  1  0  0  0  0
 38 42  1  0  0  0  0
M  END
$$$$

  -OEChem-05262215353D

 42 41  0     1  0  0  0  0  0999 V2000
   -5.5727   -1.0388    1.8705 C   0  0  0  0  0  0  0  0  0  0  0  0
   -5.9804   -0.0402    1.2981 O   0  0  0  0  0  0  0  0  0  0  0  0
   -6.5096   -2.2023    2.1348 C   0  0  0  0  0  0  0  0  0  0  0  0
   -6.5793   -2.3877    3.2092 H   0  0  0  0  0  0  0  0  0  0  0  0
   -7.5081   -1.9781    1.7494 H   0  0  0  0  0  0  0  0  0  0  0  0
   -6.1356   -3.1020    1.6403 H   0  0  0  0  0  0  0  0  0  0  0  0
   -4.2560   -1.1148    2.2715 N   0  0  0  0  0  0  0  0  0  0  0  0
   -3.2258   -0.1261    1.9304 C   0  0  2  0  0  0  0  0  0  0  0  0
   -1.8326   -0.7781    1.8005 C   0  0  0  0  0  0  0  0  0  0  0  0
   -1.6382   -1.8688    2.3232 O   0  0  0  0  0  0  0  0  0  0  0  0
   -3.2122    0.9562    3.0143 C   0  0  0  0  0  0  0  0  0  0  0  0
   -3.9283   -2.0046    2.6467 H   0  0  0  0  0  0  0  0  0  0  0  0
   -3.4643    0.3317    0.9642 H   0  0  0  0  0  0  0  0  0  0  0  0
   -2.9709    0.5186    3.9884 H   0  0  0  0  0  0  0  0  0  0  0  0
   -2.4673    1.7233    2.7825 H   0  0  0  0  0  0  0  0  0  0  0  0
   -4.1929    1.4380    3.0820 H   0  0  0  0  0  0  0  0  0  0  0  0
   -0.8293   -0.0880    1.1357 N   0  0  0  0  0  0  0  0  0  0  0  0
    0.4619   -0.5960    0.6160 C   0  0  2  0  0  0  0  0  0  0  0  0
    0.6733   -0.0307   -0.8066 C   0  0  0  0  0  0  0  0  0  0  0  0
    0.1640   -0.5558   -1.7881 O   0  0  0  0  0  0  0  0  0  0  0  0
    0.6064   -2.1288    0.5604 C   0  0  0  0  0  0  0  0  0  0  0  0
   -1.1481    0.7848    0.7225 H   0  0  0  0  0  0  0  0  0  0  0  0
    1.2640   -0.2182    1.2569 H   0  0  0  0  0  0  0  0  0  0  0  0
   -0.2497   -2.5804    0.0487 H   0  0  0  0  0  0  0  0  0  0  0  0
    1.5161   -2.4071    0.0195 H   0  0  0  0  0  0  0  0  0  0  0  0
    0.6775   -2.5477    1.5685 H   0  0  0  0  0  0  0  0  0  0  0  0
    1.3298    1.1739   -0.9711 N   0  0  0  0  0  0  0  0  0  0  0  0
    1.6171    1.7932   -2.2719 C   0  0  2  0  0  0  0  0  0  0  0  0
    2.9139    2.6276   -2.2218 C   0  0  0  0  0  0  0  0  0  0  0  0
    3.4297    2.8921   -1.1407 O   0  0  0  0  0  0  0  0  0  0  0  0
    0.4253    2.6723   -2.6665 C   0  0  0  0  0  0  0  0  0  0  0  0
    1.8324    1.5532   -0.1682 H   0  0  0  0  0  0  0  0  0  0  0  0
    1.7587    1.0144   -3.0293 H   0  0  0  0  0  0  0  0  0  0  0  0
    0.2714    3.4644   -1.9266 H   0  0  0  0  0  0  0  0  0  0  0  0
    0.5953    3.1358   -3.6428 H   0  0  0  0  0  0  0  0  0  0  0  0
   -0.4867    2.0699   -2.7275 H   0  0  0  0  0  0  0  0  0  0  0  0
    3.5084    3.0735   -3.3876 N   0  0  0  0  0  0  0  0  0  0  0  0
    4.7441    3.8466   -3.4113 C   0  0  0  0  0  0  0  0  0  0  0  0
    3.0718    2.8158   -4.2682 H   0  0  0  0  0  0  0  0  0  0  0  0
    4.6347    4.7629   -2.8215 H   0  0  0  0  0  0  0  0  0  0  0  0
    5.5714    3.2589   -2.9999 H   0  0  0  0  0  0  0  0  0  0  0  0
    4.9960    4.1269   -4.4386 H   0  0  0  0  0  0  0  0  0  0  0  0
  1  2  2  0  0  0  0
  1  3  1  0  0  0  0
  1  7  1  0  0  0  0
  3  4  1  0  0  0  0
  3  5  1  0  0  0  0
  3  6  1  0  0  0  0
  7  8  1  0  0  0  0
  7 12  1  0  0  0  0
  8  9  1  0  0  0  0
  8 11  1  0  0  0  0
  8 13  1  0  0  0  0
  9 10  2  0  0  0  0
  9 17  1  0  0  0  0
 11 14  1  0  0  0  0
 11 15  1  0  0  0  0
 11 16  1  0  0  0  0
 17 18  1  0  0  0  0
 17 22  1  0  0  0  0
 18 19  1  0  0  0  0
 18 21  1  0  0  0  0
 18 23  1  0  0  0  0
 19 20  2  0  0  0  0
 19 27  1  0  0  0  0
 21 24  1  0  0  0  0
 21 25  1  0  0  0  0
 21 26  1  0  0  0  0
 27 28  1  0  0  0  0
 27 32  1  0  0  0  0
 28 29  1  0  0  0  0
 28 31  1  0  0  0  0
 28 33  1  0  0  0  0
 29 30  2  0  0  0  0
 29 37  1  0  0  0  0
 31 34  1  0  0  0  0
 31 35  1  0  0  0  0
 31 36  1  0  0  0  0
 37 38  1  0  0  0  0
 37 39  1  0  0  0  0
 38 40  1  0  0  0  0
 38 41  1  0  0  0  0
 38 42  1  0  0  0  0
M  END
$$$$

  -OEChem-05262215353D

 42 41  0     1  0  0  0  0  0999 V2000
   -5.5735   -1.0742    1.8896 C   0  0  0  0  0  0  0  0  0  0  0  0
   -6.0004   -0.0995    1.2905 O   0  0  0  0  0  0  0  0  0  0  0  0
   -6.4907   -2.2445    2.1918 C   0  0  0  0  0  0  0  0  0  0  0  0
   -6.5655   -2.3906    3.2723 H   0  0  0  0  0  0  0  0  0  0  0  0
   -7.4904   -2.0533    1.7912 H   0  0  0  0  0  0  0  0  0  0  0  0
   -6.0965   -3.1554    1.7341 H   0  0  0  0  0  0  0  0  0  0  0  0
   -4.2539   -1.1177    2.2858 N   0  0  0  0  0  0  0  0  0  0  0  0
   -3.2391   -0.1276    1.9037 C   0  0  2  0  0  0  0  0  0  0  0  0
   -1.8330   -0.7599    1.8136 C   0  0  0  0  0  0  0  0  0  0  0  0
   -1.6309   -1.8378    2.3604 O   0  0  0  0  0  0  0  0  0  0  0  0
   -3.2538    1.0061    2.9348 C   0  0  0  0  0  0  0  0  0  0  0  0
   -3.9109   -1.9915    2.6841 H   0  0  0  0  0  0  0  0  0  0  0  0
   -3.4791    0.2775    0.9145 H   0  0  0  0  0  0  0  0  0  0  0  0
   -3.0106    0.6198    3.9299 H   0  0  0  0  0  0  0  0  0  0  0  0
   -2.5229    1.7765    2.6715 H   0  0  0  0  0  0  0  0  0  0  0  0
   -4.2440    1.4715    2.9742 H   0  0  0  0  0  0  0  0  0  0  0  0
   -0.8226   -0.0673    1.1627 N   0  0  0  0  0  0  0  0  0  0  0  0
    0.4629   -0.5884    0.6419 C   0  0  2  0  0  0  0  0  0  0  0  0
    0.6964   -0.0123   -0.7717 C   0  0  0  0  0  0  0  0  0  0  0  0
   -0.0407   -0.3154   -1.7011 O   0  0  0  0  0  0  0  0  0  0  0  0
    0.5771   -2.1205    0.5425 C   0  0  0  0  0  0  0  0  0  0  0  0
   -1.1528    0.7801    0.7069 H   0  0  0  0  0  0  0  0  0  0  0  0
    1.2671   -0.2393    1.2966 H   0  0  0  0  0  0  0  0  0  0  0  0
   -0.2829   -2.5385    0.0090 H   0  0  0  0  0  0  0  0  0  0  0  0
    1.4871   -2.4016    0.0032 H   0  0  0  0  0  0  0  0  0  0  0  0
    0.6291   -2.5696    1.5386 H   0  0  0  0  0  0  0  0  0  0  0  0
    1.6227    0.9945   -0.9654 N   0  0  0  0  0  0  0  0  0  0  0  0
    1.9377    1.5919   -2.2701 C   0  0  2  0  0  0  0  0  0  0  0  0
    3.4156    2.0285   -2.3489 C   0  0  0  0  0  0  0  0  0  0  0  0
    4.1005    2.0593   -1.3320 O   0  0  0  0  0  0  0  0  0  0  0  0
    1.0068    2.7880   -2.4924 C   0  0  0  0  0  0  0  0  0  0  0  0
    2.2859    1.1776   -0.2121 H   0  0  0  0  0  0  0  0  0  0  0  0
    1.7740    0.8548   -3.0635 H   0  0  0  0  0  0  0  0  0  0  0  0
    1.1618    3.5441   -1.7161 H   0  0  0  0  0  0  0  0  0  0  0  0
    1.1946    3.2461   -3.4678 H   0  0  0  0  0  0  0  0  0  0  0  0
   -0.0385    2.4649   -2.4610 H   0  0  0  0  0  0  0  0  0  0  0  0
    3.9819    2.3752   -3.5617 N   0  0  0  0  0  0  0  0  0  0  0  0
    5.3721    2.7898   -3.7075 C   0  0  0  0  0  0  0  0  0  0  0  0
    3.3931    2.3266   -4.3883 H   0  0  0  0  0  0  0  0  0  0  0  0
    5.5650    3.6956   -3.1230 H   0  0  0  0  0  0  0  0  0  0  0  0
    6.0466    1.9982   -3.3643 H   0  0  0  0  0  0  0  0  0  0  0  0
    5.5958    3.0027   -4.7575 H   0  0  0  0  0  0  0  0  0  0  0  0
  1  2  2  0  0  0  0
  1  3  1  0  0  0  0
  1  7  1  0  0  0  0
  3  4  1  0  0  0  0
  3  5  1  0  0  0  0
  3  6  1  0  0  0  0
  7  8  1  0  0  0  0
  7 12  1  0  0  0  0
  8  9  1  0  0  0  0
  8 11  1  0  0  0  0
  8 13  1  0  0  0  0
  9 10  2  0  0  0  0
  9 17  1  0  0  0  0
 11 14  1  0  0  0  0
 11 15  1  0  0  0  0
 11 16  1  0  0  0  0
 17 18  1  0  0  0  0
 17 22  1  0  0  0  0
 18 19  1  0  0  0  0
 18 21  1  0  0  0  0
 18 23  1  0  0  0  0
 19 20  2  0  0  0  0
 19 27  1  0  0  0  0
 21 24  1  0  0  0  0
 21 25  1  0  0  0  0
 21 26  1  0  0  0  0
 27 28  1  0  0  0  0
 27 32  1  0  0  0  0
 28 29  1  0  0  0  0
 28 31  1  0  0  0  0
 28 33  1  0  0  0  0
 29 30  2  0  0  0  0
 29 37  1  0  0  0  0
 31 34  1  0  0  0  0
 31 35  1  0  0  0  0
 31 36  1  0  0  0  0
 37 38  1  0  0  0  0
 37 39  1  0  0  0  0
 38 40  1  0  0  0  0
 38 41  1  0  0  0  0
 38 42  1  0  0  0  0
M  END
$$$$

  -OEChem-05262215353D

 42 41  0     1  0  0  0  0  0999 V2000
   -5.5574   -1.1062    1.8802 C   0  0  0  0  0  0  0  0  0  0  0  0
   -5.9924   -0.1743    1.2220 O   0  0  0  0  0  0  0  0  0  0  0  0
   -6.4592   -2.2724    2.2382 C   0  0  0  0  0  0  0  0  0  0  0  0
   -6.5292   -2.3704    3.3243 H   0  0  0  0  0  0  0  0  0  0  0  0
   -7.4621   -2.1110    1.8332 H   0  0  0  0  0  0  0  0  0  0  0  0
   -6.0553   -3.1980    1.8207 H   0  0  0  0  0  0  0  0  0  0  0  0
   -4.2421   -1.1071    2.2925 N   0  0  0  0  0  0  0  0  0  0  0  0
   -3.2383   -0.1239    1.8674 C   0  0  2  0  0  0  0  0  0  0  0  0
   -1.8212   -0.7375    1.8370 C   0  0  0  0  0  0  0  0  0  0  0  0
   -1.6172   -1.7973    2.4180 O   0  0  0  0  0  0  0  0  0  0  0  0
   -3.2920    1.0695    2.8268 C   0  0  0  0  0  0  0  0  0  0  0  0
   -3.8899   -1.9529    2.7401 H   0  0  0  0  0  0  0  0  0  0  0  0
   -3.4684    0.2171    0.8520 H   0  0  0  0  0  0  0  0  0  0  0  0
   -3.0531    0.7512    3.8464 H   0  0  0  0  0  0  0  0  0  0  0  0
   -2.5768    1.8400    2.5248 H   0  0  0  0  0  0  0  0  0  0  0  0
   -4.2932    1.5117    2.8259 H   0  0  0  0  0  0  0  0  0  0  0  0
   -0.8003   -0.0517    1.1975 N   0  0  0  0  0  0  0  0  0  0  0  0
    0.4772   -0.5942    0.6813 C   0  0  2  0  0  0  0  0  0  0  0  0
    0.7290   -0.0135   -0.7263 C   0  0  0  0  0  0  0  0  0  0  0  0
   -0.1580   -0.0408   -1.5708 O   0  0  0  0  0  0  0  0  0  0  0  0
    0.5591   -2.1258    0.5534 C   0  0  0  0  0  0  0  0  0  0  0  0
   -1.1356    0.7660    0.6921 H   0  0  0  0  0  0  0  0  0  0  0  0
    1.2816   -0.2663    1.3463 H   0  0  0  0  0  0  0  0  0  0  0  0
   -0.3038   -2.5140    0.0029 H   0  0  0  0  0  0  0  0  0  0  0  0
    1.4684   -2.4171    0.0186 H   0  0  0  0  0  0  0  0  0  0  0  0
    0.5914   -2.5975    1.5396 H   0  0  0  0  0  0  0  0  0  0  0  0
    1.8614    0.7358   -0.9805 N   0  0  0  0  0  0  0  0  0  0  0  0
    2.1916    1.3200   -2.2874 C   0  0  2  0  0  0  0  0  0  0  0  0
    3.7155    1.3400   -2.5284 C   0  0  0  0  0  0  0  0  0  0  0  0
    4.4856    1.0992   -1.6048 O   0  0  0  0  0  0  0  0  0  0  0  0
    1.6161    2.7385   -2.3404 C   0  0  0  0  0  0  0  0  0  0  0  0
    2.6246    0.6787   -0.3058 H   0  0  0  0  0  0  0  0  0  0  0  0
    1.7444    0.7188   -3.0864 H   0  0  0  0  0  0  0  0  0  0  0  0
    2.0592    3.3608   -1.5562 H   0  0  0  0  0  0  0  0  0  0  0  0
    1.8199    3.2016   -3.3104 H   0  0  0  0  0  0  0  0  0  0  0  0
    0.5316    2.7125   -2.1940 H   0  0  0  0  0  0  0  0  0  0  0  0
    4.2240    1.6151   -3.7843 N   0  0  0  0  0  0  0  0  0  0  0  0
    5.6504    1.6332   -4.0845 C   0  0  0  0  0  0  0  0  0  0  0  0
    3.5610    1.7944   -4.5329 H   0  0  0  0  0  0  0  0  0  0  0  0
    6.1631    2.3753   -3.4637 H   0  0  0  0  0  0  0  0  0  0  0  0
    6.0935    0.6496   -3.8971 H   0  0  0  0  0  0  0  0  0  0  0  0
    5.8132    1.8910   -5.1353 H   0  0  0  0  0  0  0  0  0  0  0  0
  1  2  2  0  0  0  0
  1  3  1  0  0  0  0
  1  7  1  0  0  0  0
  3  4  1  0  0  0  0
  3  5  1  0  0  0  0
  3  6  1  0  0  0  0
  7  8  1  0  0  0  0
  7 12  1  0  0  0  0
  8  9  1  0  0  0  0
  8 11  1  0  0  0  0
  8 13  1  0  0  0  0
  9 10  2  0  0  0  0
  9 17  1  0  0  0  0
 11 14  1  0  0  0  0
 11 15  1  0  0  0  0
 11 16  1  0  0  0  0
 17 18  1  0  0  0  0
 17 22  1  0  0  0  0
 18 19  1  0  0  0  0
 18 21  1  0  0  0  0
 18 23  1  0  0  0  0
 19 20  2  0  0  0  0
 19 27  1  0  0  0  0
 21 24  1  0  0  0  0
 21 25  1  0  0  0  0
 21 26  1  0  0  0  0
 27 28  1  0  0  0  0
 27 32  1  0  0  0  0
 28 29  1  0  0  0  0
 28 31  1  0  0  0  0
 28 33  1  0  0  0  0
 29 30  2  0  0  0  0
 29 37  1  0  0  0  0
 31 34  1  0  0  0  0
 31 35  1  0  0  0  0
 31 36  1  0  0  0  0
 37 38  1  0  0  0  0
 37 39  1  0  0  0  0
 38 40  1  0  0  0  0
 38 41  1  0  0  0  0
 38 42  1  0  0  0  0
M  END
$$$$

  -OEChem-05262215353D

 42 41  0     1  0  0  0  0  0999 V2000
   -5.5256   -1.0897    1.8388 C   0  0  0  0  0  0  0  0  0  0  0  0
   -5.9460   -0.1483    1.1849 O   0  0  0  0  0  0  0  0  0  0  0  0
   -6.4295   -2.2697    2.1406 C   0  0  0  0  0  0  0  0  0  0  0  0
   -6.5089   -2.4135    3.2208 H   0  0  0  0  0  0  0  0  0  0  0  0
   -7.4291   -2.0920    1.7345 H   0  0  0  0  0  0  0  0  0  0  0  0
   -6.0209   -3.1763    1.6876 H   0  0  0  0  0  0  0  0  0  0  0  0
   -4.2240   -1.0919    2.2921 N   0  0  0  0  0  0  0  0  0  0  0  0
   -3.2128   -0.0966    1.9148 C   0  0  2  0  0  0  0  0  0  0  0  0
   -1.7949   -0.7072    1.8956 C   0  0  0  0  0  0  0  0  0  0  0  0
   -1.5901   -1.7607    2.4879 O   0  0  0  0  0  0  0  0  0  0  0  0
   -3.2851    1.0689    2.9060 C   0  0  0  0  0  0  0  0  0  0  0  0
   -3.8820   -1.9434    2.7366 H   0  0  0  0  0  0  0  0  0  0  0  0
   -3.4223    0.2739    0.9052 H   0  0  0  0  0  0  0  0  0  0  0  0
   -3.0812    0.7194    3.9232 H   0  0  0  0  0  0  0  0  0  0  0  0
   -2.5522    1.8394    2.6485 H   0  0  0  0  0  0  0  0  0  0  0  0
   -4.2819    1.5209    2.8858 H   0  0  0  0  0  0  0  0  0  0  0  0
   -0.7760   -0.0281    1.2465 N   0  0  0  0  0  0  0  0  0  0  0  0
    0.4981   -0.5754    0.7278 C   0  0  2  0  0  0  0  0  0  0  0  0
    0.7501   -0.0080   -0.6862 C   0  0  0  0  0  0  0  0  0  0  0  0
   -0.1918    0.1957   -1.4439 O   0  0  0  0  0  0  0  0  0  0  0  0
    0.5738   -2.1075    0.6085 C   0  0  0  0  0  0  0  0  0  0  0  0
   -1.1168    0.7737    0.7181 H   0  0  0  0  0  0  0  0  0  0  0  0
    1.3054   -0.2430    1.3872 H   0  0  0  0  0  0  0  0  0  0  0  0
   -0.2923   -2.4952    0.0622 H   0  0  0  0  0  0  0  0  0  0  0  0
    1.4815   -2.4064    0.0749 H   0  0  0  0  0  0  0  0  0  0  0  0
    0.6060   -2.5723    1.5981 H   0  0  0  0  0  0  0  0  0  0  0  0
    2.0001    0.4618   -1.0399 N   0  0  0  0  0  0  0  0  0  0  0  0
    2.3449    0.9687   -2.3749 C   0  0  2  0  0  0  0  0  0  0  0  0
    3.8052    0.6328   -2.7437 C   0  0  0  0  0  0  0  0  0  0  0  0
    4.5735    0.2152   -1.8837 O   0  0  0  0  0  0  0  0  0  0  0  0
    2.1172    2.4831   -2.3933 C   0  0  0  0  0  0  0  0  0  0  0  0
    2.7844    0.2082   -0.4384 H   0  0  0  0  0  0  0  0  0  0  0  0
    1.7027    0.4983   -3.1271 H   0  0  0  0  0  0  0  0  0  0  0  0
    2.7639    2.9761   -1.6604 H   0  0  0  0  0  0  0  0  0  0  0  0
    2.3355    2.8930   -3.3839 H   0  0  0  0  0  0  0  0  0  0  0  0
    1.0751    2.7126   -2.1498 H   0  0  0  0  0  0  0  0  0  0  0  0
    4.2550    0.7830   -4.0425 N   0  0  0  0  0  0  0  0  0  0  0  0
    5.6130    0.4584   -4.4630 C   0  0  0  0  0  0  0  0  0  0  0  0
    3.5882    1.1054   -4.7380 H   0  0  0  0  0  0  0  0  0  0  0  0
    6.3437    1.0179   -3.8692 H   0  0  0  0  0  0  0  0  0  0  0  0
    5.8063   -0.6126   -4.3409 H   0  0  0  0  0  0  0  0  0  0  0  0
    5.7548    0.7182   -5.5166 H   0  0  0  0  0  0  0  0  0  0  0  0
  1  2  2  0  0  0  0
  1  3  1  0  0  0  0
  1  7  1  0  0  0  0
  3  4  1  0  0  0  0
  3  5  1  0  0  0  0
  3  6  1  0  0  0  0
  7  8  1  0  0  0  0
  7 12  1  0  0  0  0
  8  9  1  0  0  0  0
  8 11  1  0  0  0  0
  8 13  1  0  0  0  0
  9 10  2  0  0  0  0
  9 17  1  0  0  0  0
 11 14  1  0  0  0  0
 11 15  1  0  0  0  0
 11 16  1  0  0  0  0
 17 18  1  0  0  0  0
 17 22  1  0  0  0  0
 18 19  1  0  0  0  0
 18 21  1  0  0  0  0
 18 23  1  0  0  0  0
 19 20  2  0  0  0  0
 19 27  1  0  0  0  0
 21 24  1  0  0  0  0
 21 25  1  0  0  0  0
 21 26  1  0  0  0  0
 27 28  1  0  0  0  0
 27 32  1  0  0  0  0
 28 29  1  0  0  0  0
 28 31  1  0  0  0  0
 28 33  1  0  0  0  0
 29 30  2  0  0  0  0
 29 37  1  0  0  0  0
 31 34  1  0  0  0  0
 31 35  1  0  0  0  0
 31 36  1  0  0  0  0
 37 38  1  0  0  0  0
 37 39  1  0  0  0  0
 38 40  1  0  0  0  0
 38 41  1  0  0  0  0
 38 42  1  0  0  0  0
M  END
$$$$

  -OEChem-05262215353D

 42 41  0     1  0  0  0  0  0999 V2000
   -5.5432   -1.1250    1.9047 C   0  0  0  0  0  0  0  0  0  0  0  0
   -5.9818   -0.2490    1.1763 O   0  0  0  0  0  0  0  0  0  0  0  0
   -6.4331   -2.2778    2.3303 C   0  0  0  0  0  0  0  0  0  0  0  0
   -6.5449   -2.2817    3.4172 H   0  0  0  0  0  0  0  0  0  0  0  0
   -7.4220   -2.1794    1.8744 H   0  0  0  0  0  0  0  0  0  0  0  0
   -5.9923   -3.2260    2.0129 H   0  0  0  0  0  0  0  0  0  0  0  0
   -4.2343   -1.0778    2.3342 N   0  0  0  0  0  0  0  0  0  0  0  0
   -3.2313   -0.1249    1.8409 C   0  0  2  0  0  0  0  0  0  0  0  0
   -1.8156   -0.7428    1.8464 C   0  0  0  0  0  0  0  0  0  0  0  0
   -1.6284   -1.8034    2.4325 O   0  0  0  0  0  0  0  0  0  0  0  0
   -3.2812    1.1299    2.7185 C   0  0  0  0  0  0  0  0  0  0  0  0
   -3.8771   -1.8919    2.8337 H   0  0  0  0  0  0  0  0  0  0  0  0
   -3.4613    0.1503    0.8056 H   0  0  0  0  0  0  0  0  0  0  0  0
   -3.0372    0.8807    3.7561 H   0  0  0  0  0  0  0  0  0  0  0  0
   -2.5675    1.8787    2.3622 H   0  0  0  0  0  0  0  0  0  0  0  0
   -4.2829    1.5707    2.6912 H   0  0  0  0  0  0  0  0  0  0  0  0
   -0.7773   -0.0651    1.2282 N   0  0  0  0  0  0  0  0  0  0  0  0
    0.5007   -0.6148    0.7230 C   0  0  2  0  0  0  0  0  0  0  0  0
    0.7854   -0.0248   -0.6762 C   0  0  0  0  0  0  0  0  0  0  0  0
   -0.1288    0.4462   -1.3451 O   0  0  0  0  0  0  0  0  0  0  0  0
    0.5584   -2.1463    0.5805 C   0  0  0  0  0  0  0  0  0  0  0  0
   -1.0984    0.7459    0.6993 H   0  0  0  0  0  0  0  0  0  0  0  0
    1.3000   -0.3011    1.4010 H   0  0  0  0  0  0  0  0  0  0  0  0
   -0.3043   -2.5138    0.0152 H   0  0  0  0  0  0  0  0  0  0  0  0
    1.4699   -2.4511    0.0569 H   0  0  0  0  0  0  0  0  0  0  0  0
    0.5690   -2.6262    1.5636 H   0  0  0  0  0  0  0  0  0  0  0  0
    2.0853    0.1513   -1.1085 N   0  0  0  0  0  0  0  0  0  0  0  0
    2.4517    0.6355   -2.4457 C   0  0  2  0  0  0  0  0  0  0  0  0
    3.7264   -0.0623   -2.9652 C   0  0  0  0  0  0  0  0  0  0  0  0
    4.4102   -0.7365   -2.2022 O   0  0  0  0  0  0  0  0  0  0  0  0
    2.6537    2.1517   -2.3707 C   0  0  0  0  0  0  0  0  0  0  0  0
    2.8182   -0.3345   -0.5909 H   0  0  0  0  0  0  0  0  0  0  0  0
    1.6479    0.4137   -3.1560 H   0  0  0  0  0  0  0  0  0  0  0  0
    3.4598    2.3965   -1.6716 H   0  0  0  0  0  0  0  0  0  0  0  0
    2.9107    2.5549   -3.3547 H   0  0  0  0  0  0  0  0  0  0  0  0
    1.7352    2.6394   -2.0286 H   0  0  0  0  0  0  0  0  0  0  0  0
    4.0973    0.0482   -4.2926 N   0  0  0  0  0  0  0  0  0  0  0  0
    5.2674   -0.6161   -4.8544 C   0  0  0  0  0  0  0  0  0  0  0  0
    3.4959    0.5891   -4.9073 H   0  0  0  0  0  0  0  0  0  0  0  0
    6.1778   -0.2903   -4.3401 H   0  0  0  0  0  0  0  0  0  0  0  0
    5.1760   -1.7029   -4.7547 H   0  0  0  0  0  0  0  0  0  0  0  0
    5.3659   -0.3738   -5.9170 H   0  0  0  0  0  0  0  0  0  0  0  0
  1  2  2  0  0  0  0
  1  3  1  0  0  0  0
  1  7  1  0  0  0  0
  3  4  1  0  0  0  0
  3  5  1  0  0  0  0
  3  6  1  0  0  0  0
  7  8  1  0  0  0  0
  7 12  1  0  0  0  0
  8  9  1  0  0  0  0
  8 11  1  0  0  0  0
  8 13  1  0  0  0  0
  9 10  2  0  0  0  0
  9 17  1  0  0  0  0
 11 14  1  0  0  0  0
 11 15  1  0  0  0  0
 11 16  1  0  0  0  0
 17 18  1  0  0  0  0
 17 22  1  0  0  0  0
 18 19  1  0  0  0  0
 18 21  1  0  0  0  0
 18 23  1  0  0  0  0
 19 20  2  0  0  0  0
 19 27  1  0  0  0  0
 21 24  1  0  0  0  0
 21 25  1  0  0  0  0
 21 26  1  0  0  0  0
 27 28  1  0  0  0  0
 27 32  1  0  0  0  0
 28 29  1  0  0  0  0
 28 31  1  0  0  0  0
 28 33  1  0  0  0  0
 29 30  2  0  0  0  0
 29 37  1  0  0  0  0
 31 34  1  0  0  0  0
 31 35  1  0  0  0  0
 31 36  1  0  0  0  0
 37 38  1  0  0  0  0
 37 39  1  0  0  0  0
 38 40  1  0  0  0  0
 38 41  1  0  0  0  0
 38 42  1  0  0  0  0
M  END
$$$$

  -OEChem-05262215353D

 42 41  0     1  0  0  0  0  0999 V2000
   -5.5195   -1.0862    1.8519 C   0  0  0  0  0  0  0  0  0  0  0  0
   -5.9283   -0.1712    1.1546 O   0  0  0  0  0  0  0  0  0  0  0  0
   -6.4364   -2.2425    2.2049 C   0  0  0  0  0  0  0  0  0  0  0  0
   -6.5930   -2.2795    3.2855 H   0  0  0  0  0  0  0  0  0  0  0  0
   -7.4049   -2.1197    1.7122 H   0  0  0  0  0  0  0  0  0  0  0  0
   -5.9919   -3.1850    1.8763 H   0  0  0  0  0  0  0  0  0  0  0  0
   -4.2204   -1.0771    2.3130 N   0  0  0  0  0  0  0  0  0  0  0  0
   -3.1985   -0.1046    1.9034 C   0  0  2  0  0  0  0  0  0  0  0  0
   -1.7888   -0.7354    1.8863 C   0  0  0  0  0  0  0  0  0  0  0  0
   -1.6047   -1.7977    2.4696 O   0  0  0  0  0  0  0  0  0  0  0  0
   -3.2470    1.0837    2.8694 C   0  0  0  0  0  0  0  0  0  0  0  0
   -3.8867   -1.9127    2.7923 H   0  0  0  0  0  0  0  0  0  0  0  0
   -3.4103    0.2471    0.8876 H   0  0  0  0  0  0  0  0  0  0  0  0
   -3.0236    0.7574    3.8902 H   0  0  0  0  0  0  0  0  0  0  0  0
   -2.5171    1.8454    2.5792 H   0  0  0  0  0  0  0  0  0  0  0  0
   -4.2422    1.5395    2.8591 H   0  0  0  0  0  0  0  0  0  0  0  0
   -0.7552   -0.0663    1.2497 N   0  0  0  0  0  0  0  0  0  0  0  0
    0.5333   -0.6040    0.7552 C   0  0  2  0  0  0  0  0  0  0  0  0
    0.8091   -0.0434   -0.6598 C   0  0  0  0  0  0  0  0  0  0  0  0
   -0.0560    0.5937   -1.2529 O   0  0  0  0  0  0  0  0  0  0  0  0
    0.6144   -2.1393    0.6599 C   0  0  0  0  0  0  0  0  0  0  0  0
   -1.0728    0.7499    0.7255 H   0  0  0  0  0  0  0  0  0  0  0  0
    1.3293   -0.2572    1.4210 H   0  0  0  0  0  0  0  0  0  0  0  0
   -0.2359   -2.5348    0.0951 H   0  0  0  0  0  0  0  0  0  0  0  0
    1.5359   -2.4526    0.1595 H   0  0  0  0  0  0  0  0  0  0  0  0
    0.6176   -2.5881    1.6573 H   0  0  0  0  0  0  0  0  0  0  0  0
    2.0691   -0.1366   -1.2189 N   0  0  0  0  0  0  0  0  0  0  0  0
    2.3913    0.2423   -2.6005 C   0  0  2  0  0  0  0  0  0  0  0  0
    3.4409   -0.7133   -3.2065 C   0  0  0  0  0  0  0  0  0  0  0  0
    4.0436   -1.4980   -2.4813 O   0  0  0  0  0  0  0  0  0  0  0  0
    2.9051    1.6847   -2.5980 C   0  0  0  0  0  0  0  0  0  0  0  0
    2.7349   -0.7593   -0.7605 H   0  0  0  0  0  0  0  0  0  0  0  0
    1.4934    0.1795   -3.2246 H   0  0  0  0  0  0  0  0  0  0  0  0
    3.8152    1.7653   -1.9949 H   0  0  0  0  0  0  0  0  0  0  0  0
    3.1303    2.0151   -3.6163 H   0  0  0  0  0  0  0  0  0  0  0  0
    2.1482    2.3553   -2.1786 H   0  0  0  0  0  0  0  0  0  0  0  0
    3.7009   -0.7078   -4.5645 N   0  0  0  0  0  0  0  0  0  0  0  0
    4.6704   -1.5951   -5.1965 C   0  0  0  0  0  0  0  0  0  0  0  0
    3.1739   -0.0609   -5.1442 H   0  0  0  0  0  0  0  0  0  0  0  0
    5.6772   -1.3975   -4.8136 H   0  0  0  0  0  0  0  0  0  0  0  0
    4.4182   -2.6426   -4.9996 H   0  0  0  0  0  0  0  0  0  0  0  0
    4.6763   -1.4396   -6.2796 H   0  0  0  0  0  0  0  0  0  0  0  0
  1  2  2  0  0  0  0
  1  3  1  0  0  0  0
  1  7  1  0  0  0  0
  3  4  1  0  0  0  0
  3  5  1  0  0  0  0
  3  6  1  0  0  0  0
  7  8  1  0  0  0  0
  7 12  1  0  0  0  0
  8  9  1  0  0  0  0
  8 11  1  0  0  0  0
  8 13  1  0  0  0  0
  9 10  2  0  0  0  0
  9 17  1  0  0  0  0
 11 14  1  0  0  0  0
 11 15  1  0  0  0  0
 11 16  1  0  0  0  0
 17 18  1  0  0  0  0
 17 22  1  0  0  0  0
 18 19  1  0  0  0  0
 18 21  1  0  0  0  0
 18 23  1  0  0  0  0
 19 20  2  0  0  0  0
 19 27  1  0  0  0  0
 21 24  1  0  0  0  0
 21 25  1  0  0  0  0
 21 26  1  0  0  0  0
 27 28  1  0  0  0  0
 27 32  1  0  0  0  0
 28 29  1  0  0  0  0
 28 31  1  0  0  0  0
 28 33  1  0  0  0  0
 29 30  2  0  0  0  0
 29 37  1  0  0  0  0
 31 34  1  0  0  0  0
 31 35  1  0  0  0  0
 31 36  1  0  0  0  0
 37 38  1  0  0  0  0
 37 39  1  0  0  0  0
 38 40  1  0  0  0  0
 38 41  1  0  0  0  0
 38 42  1  0  0  0  0
M  END
$$$$

  -OEChem-05262215353D

 42 41  0     1  0  0  0  0  0999 V2000
   -5.5266   -1.0813    1.8948 C   0  0  0  0  0  0  0  0  0  0  0  0
   -5.9423   -0.1729    1.1931 O   0  0  0  0  0  0  0  0  0  0  0  0
   -6.4336   -2.2428    2.2545 C   0  0  0  0  0  0  0  0  0  0  0  0
   -6.5882   -2.2733    3.3357 H   0  0  0  0  0  0  0  0  0  0  0  0
   -7.4029   -2.1306    1.7611 H   0  0  0  0  0  0  0  0  0  0  0  0
   -5.9816   -3.1838    1.9314 H   0  0  0  0  0  0  0  0  0  0  0  0
   -4.2264   -1.0650    2.3519 N   0  0  0  0  0  0  0  0  0  0  0  0
   -3.2049   -0.1044    1.9149 C   0  0  2  0  0  0  0  0  0  0  0  0
   -1.8104   -0.7628    1.8336 C   0  0  0  0  0  0  0  0  0  0  0  0
   -1.6293   -1.8514    2.3677 O   0  0  0  0  0  0  0  0  0  0  0  0
   -3.1970    1.0690    2.8995 C   0  0  0  0  0  0  0  0  0  0  0  0
   -3.8860   -1.9060    2.8172 H   0  0  0  0  0  0  0  0  0  0  0  0
   -3.4482    0.2671    0.9133 H   0  0  0  0  0  0  0  0  0  0  0  0
   -2.9361    0.7233    3.9049 H   0  0  0  0  0  0  0  0  0  0  0  0
   -2.4699    1.8262    2.5907 H   0  0  0  0  0  0  0  0  0  0  0  0
   -4.1859    1.5373    2.9374 H   0  0  0  0  0  0  0  0  0  0  0  0
   -0.7745   -0.0984    1.1989 N   0  0  0  0  0  0  0  0  0  0  0  0
    0.5088   -0.6460    0.7102 C   0  0  2  0  0  0  0  0  0  0  0  0
    0.9766    0.1826   -0.5120 C   0  0  0  0  0  0  0  0  0  0  0  0
    0.3186    1.1479   -0.8897 O   0  0  0  0  0  0  0  0  0  0  0  0
    0.4127   -2.1211    0.2667 C   0  0  0  0  0  0  0  0  0  0  0  0
   -1.0447    0.7772    0.7473 H   0  0  0  0  0  0  0  0  0  0  0  0
    1.2623   -0.5568    1.4985 H   0  0  0  0  0  0  0  0  0  0  0  0
   -0.4362   -2.2623   -0.4098 H   0  0  0  0  0  0  0  0  0  0  0  0
    1.3221   -2.4418   -0.2494 H   0  0  0  0  0  0  0  0  0  0  0  0
    0.2892   -2.7799    1.1302 H   0  0  0  0  0  0  0  0  0  0  0  0
    2.1559   -0.1168   -1.1672 N   0  0  0  0  0  0  0  0  0  0  0  0
    2.5759    0.4860   -2.4384 C   0  0  2  0  0  0  0  0  0  0  0  0
    3.2909   -0.5496   -3.3327 C   0  0  0  0  0  0  0  0  0  0  0  0
    3.6131   -1.6386   -2.8688 O   0  0  0  0  0  0  0  0  0  0  0  0
    3.4982    1.6684   -2.1288 C   0  0  0  0  0  0  0  0  0  0  0  0
    2.6095   -0.9967   -0.9207 H   0  0  0  0  0  0  0  0  0  0  0  0
    1.7004    0.8454   -2.9897 H   0  0  0  0  0  0  0  0  0  0  0  0
    4.3930    1.3272   -1.5983 H   0  0  0  0  0  0  0  0  0  0  0  0
    3.8085    2.1672   -3.0517 H   0  0  0  0  0  0  0  0  0  0  0  0
    2.9781    2.3992   -1.5012 H   0  0  0  0  0  0  0  0  0  0  0  0
    3.5634   -0.2718   -4.6597 N   0  0  0  0  0  0  0  0  0  0  0  0
    4.2282   -1.2140   -5.5526 C   0  0  0  0  0  0  0  0  0  0  0  0
    3.2713    0.6305   -5.0240 H   0  0  0  0  0  0  0  0  0  0  0  0
    5.2254   -1.4625   -5.1738 H   0  0  0  0  0  0  0  0  0  0  0  0
    3.6444   -2.1367   -5.6396 H   0  0  0  0  0  0  0  0  0  0  0  0
    4.3373   -0.7789   -6.5509 H   0  0  0  0  0  0  0  0  0  0  0  0
  1  2  2  0  0  0  0
  1  3  1  0  0  0  0
  1  7  1  0  0  0  0
  3  4  1  0  0  0  0
  3  5  1  0  0  0  0
  3  6  1  0  0  0  0
  7  8  1  0  0  0  0
  7 12  1  0  0  0  0
  8  9  1  0  0  0  0
  8 11  1  0  0  0  0
  8 13  1  0  0  0  0
  9 10  2  0  0  0  0
  9 17  1  0  0  0  0
 11 14  1  0  0  0  0
 11 15  1  0  0  0  0
 11 16  1  0  0  0  0
 17 18  1  0  0  0  0
 17 22  1  0  0  0  0
 18 19  1  0  0  0  0
 18 21  1  0  0  0  0
 18 23  1  0  0  0  0
 19 20  2  0  0  0  0
 19 27  1  0  0  0  0
 21 24  1  0  0  0  0
 21 25  1  0  0  0  0
 21 26  1  0  0  0  0
 27 28  1  0  0  0  0
 27 32  1  0  0  0  0
 28 29  1  0  0  0  0
 28 31  1  0  0  0  0
 28 33  1  0  0  0  0
 29 30  2  0  0  0  0
 29 37  1  0  0  0  0
 31 34  1  0  0  0  0
 31 35  1  0  0  0  0
 31 36  1  0  0  0  0
 37 38  1  0  0  0  0
 37 39  1  0  0  0  0
 38 40  1  0  0  0  0
 38 41  1  0  0  0  0
 38 42  1  0  0  0  0
M  END
$$$$

  -OEChem-05262215353D

 42 41  0     1  0  0  0  0  0999 V2000
   -5.5396   -1.0397    1.9087 C   0  0  0  0  0  0  0  0  0  0  0  0
   -5.9367   -0.1276    1.2009 O   0  0  0  0  0  0  0  0  0  0  0  0
   -6.4737   -2.1732    2.2879 C   0  0  0  0  0  0  0  0  0  0  0  0
   -6.6459   -2.1694    3.3668 H   0  0  0  0  0  0  0  0  0  0  0  0
   -7.4334   -2.0589    1.7764 H   0  0  0  0  0  0  0  0  0  0  0  0
   -6.0339   -3.1311    1.9998 H   0  0  0  0  0  0  0  0  0  0  0  0
   -4.2353   -1.0531    2.3537 N   0  0  0  0  0  0  0  0  0  0  0  0
   -3.1949   -0.1202    1.9019 C   0  0  2  0  0  0  0  0  0  0  0  0
   -1.8140   -0.8071    1.8235 C   0  0  0  0  0  0  0  0  0  0  0  0
   -1.6510   -1.8902    2.3738 O   0  0  0  0  0  0  0  0  0  0  0  0
   -3.1600    1.0643    2.8718 C   0  0  0  0  0  0  0  0  0  0  0  0
   -3.9137   -1.8943    2.8316 H   0  0  0  0  0  0  0  0  0  0  0  0
   -3.4334    0.2442    0.8966 H   0  0  0  0  0  0  0  0  0  0  0  0
   -2.9021    0.7251    3.8801 H   0  0  0  0  0  0  0  0  0  0  0  0
   -2.4192    1.8030    2.5514 H   0  0  0  0  0  0  0  0  0  0  0  0
   -4.1394    1.5523    2.9073 H   0  0  0  0  0  0  0  0  0  0  0  0
   -0.7745   -0.1710    1.1658 N   0  0  0  0  0  0  0  0  0  0  0  0
    0.5263   -0.7132    0.7169 C   0  0  2  0  0  0  0  0  0  0  0  0
    0.9736    0.0753   -0.5430 C   0  0  0  0  0  0  0  0  0  0  0  0
    0.4260    1.1398   -0.8168 O   0  0  0  0  0  0  0  0  0  0  0  0
    0.4810   -2.2191    0.3764 C   0  0  0  0  0  0  0  0  0  0  0  0
   -1.0259    0.7142    0.7218 H   0  0  0  0  0  0  0  0  0  0  0  0
    1.2711   -0.5537    1.5026 H   0  0  0  0  0  0  0  0  0  0  0  0
   -0.3347   -2.4299   -0.3226 H   0  0  0  0  0  0  0  0  0  0  0  0
    1.4201   -2.5539   -0.0726 H   0  0  0  0  0  0  0  0  0  0  0  0
    0.3358   -2.8189    1.2786 H   0  0  0  0  0  0  0  0  0  0  0  0
    1.9822   -0.3771   -1.3736 N   0  0  0  0  0  0  0  0  0  0  0  0
    2.3328    0.2249   -2.6666 C   0  0  2  0  0  0  0  0  0  0  0  0
    2.7541   -0.8528   -3.6874 C   0  0  0  0  0  0  0  0  0  0  0  0
    2.9863   -1.9966   -3.3099 O   0  0  0  0  0  0  0  0  0  0  0  0
    3.4664    1.2288   -2.4385 C   0  0  0  0  0  0  0  0  0  0  0  0
    2.3229   -1.3252   -1.2146 H   0  0  0  0  0  0  0  0  0  0  0  0
    1.4654    0.7472   -3.0840 H   0  0  0  0  0  0  0  0  0  0  0  0
    4.3526    0.7219   -2.0432 H   0  0  0  0  0  0  0  0  0  0  0  0
    3.7372    1.7238   -3.3757 H   0  0  0  0  0  0  0  0  0  0  0  0
    3.1546    1.9954   -1.7220 H   0  0  0  0  0  0  0  0  0  0  0  0
    2.8585   -0.5471   -5.0317 N   0  0  0  0  0  0  0  0  0  0  0  0
    3.2257   -1.5260   -6.0478 C   0  0  0  0  0  0  0  0  0  0  0  0
    2.6376    0.4020   -5.3190 H   0  0  0  0  0  0  0  0  0  0  0  0
    4.2217   -1.9334   -5.8451 H   0  0  0  0  0  0  0  0  0  0  0  0
    2.5046   -2.3501   -6.0647 H   0  0  0  0  0  0  0  0  0  0  0  0
    3.2388   -1.0589   -7.0372 H   0  0  0  0  0  0  0  0  0  0  0  0
  1  2  2  0  0  0  0
  1  3  1  0  0  0  0
  1  7  1  0  0  0  0
  3  4  1  0  0  0  0
  3  5  1  0  0  0  0
  3  6  1  0  0  0  0
  7  8  1  0  0  0  0
  7 12  1  0  0  0  0
  8  9  1  0  0  0  0
  8 11  1  0  0  0  0
  8 13  1  0  0  0  0
  9 10  2  0  0  0  0
  9 17  1  0  0  0  0
 11 14  1  0  0  0  0
 11 15  1  0  0  0  0
 11 16  1  0  0  0  0
 17 18  1  0  0  0  0
 17 22  1  0  0  0  0
 18 19  1  0  0  0  0
 18 21  1  0  0  0  0
 18 23  1  0  0  0  0
 19 20  2  0  0  0  0
 19 27  1  0  0  0  0
 21 24  1  0  0  0  0
 21 25  1  0  0  0  0
 21 26  1  0  0  0  0
 27 28  1  0  0  0  0
 27 32  1  0  0  0  0
 28 29  1  0  0  0  0
 28 31  1  0  0  0  0
 28 33  1  0  0  0  0
 29 30  2  0  0  0  0
 29 37  1  0  0  0  0
 31 34  1  0  0  0  0
 31 35  1  0  0  0  0
 31 36  1  0  0  0  0
 37 38  1  0  0  0  0
 37 39  1  0  0  0  0
 38 40  1  0  0  0  0
 38 41  1  0  0  0  0
 38 42  1  0  0  0  0
M  END
$$$$

  -OEChem-05262215353D

 42 41  0     1  0  0  0  0  0999 V2000
   -5.5146   -1.0219    1.8550 C   0  0  0  0  0  0  0  0  0  0  0  0
   -5.8832   -0.1050    1.1382 O   0  0  0  0  0  0  0  0  0  0  0  0
   -6.4664   -2.1553    2.1886 C   0  0  0  0  0  0  0  0  0  0  0  0
   -6.5932   -2.2293    3.2713 H   0  0  0  0  0  0  0  0  0  0  0  0
   -7.4431   -1.9741    1.7311 H   0  0  0  0  0  0  0  0  0  0  0  0
   -6.0699   -3.1006    1.8096 H   0  0  0  0  0  0  0  0  0  0  0  0
   -4.2301   -1.0376    2.3554 N   0  0  0  0  0  0  0  0  0  0  0  0
   -3.1710   -0.1041    1.9494 C   0  0  2  0  0  0  0  0  0  0  0  0
   -1.8034   -0.8126    1.8380 C   0  0  0  0  0  0  0  0  0  0  0  0
   -1.6494   -1.9007    2.3802 O   0  0  0  0  0  0  0  0  0  0  0  0
   -3.1151    1.0295    2.9772 C   0  0  0  0  0  0  0  0  0  0  0  0
   -3.9281   -1.8851    2.8347 H   0  0  0  0  0  0  0  0  0  0  0  0
   -3.4001    0.3153    0.9636 H   0  0  0  0  0  0  0  0  0  0  0  0
   -2.8751    0.6352    3.9699 H   0  0  0  0  0  0  0  0  0  0  0  0
   -2.3532    1.7640    2.6996 H   0  0  0  0  0  0  0  0  0  0  0  0
   -4.0821    1.5396    3.0291 H   0  0  0  0  0  0  0  0  0  0  0  0
   -0.7708   -0.1917    1.1542 N   0  0  0  0  0  0  0  0  0  0  0  0
    0.5369   -0.7278    0.7167 C   0  0  2  0  0  0  0  0  0  0  0  0
    0.9565    0.0309   -0.5711 C   0  0  0  0  0  0  0  0  0  0  0  0
    0.5559    1.1784   -0.7426 O   0  0  0  0  0  0  0  0  0  0  0  0
    0.5327   -2.2490    0.4504 C   0  0  0  0  0  0  0  0  0  0  0  0
   -1.0080    0.7116    0.7409 H   0  0  0  0  0  0  0  0  0  0  0  0
    1.2836   -0.5170    1.4884 H   0  0  0  0  0  0  0  0  0  0  0  0
   -0.2654   -2.5145   -0.2503 H   0  0  0  0  0  0  0  0  0  0  0  0
    1.4892   -2.5809    0.0370 H   0  0  0  0  0  0  0  0  0  0  0  0
    0.3875   -2.8071    1.3788 H   0  0  0  0  0  0  0  0  0  0  0  0
    1.7356   -0.5458   -1.5579 N   0  0  0  0  0  0  0  0  0  0  0  0
    1.9886    0.0466   -2.8779 C   0  0  2  0  0  0  0  0  0  0  0  0
    2.0844   -1.0405   -3.9693 C   0  0  0  0  0  0  0  0  0  0  0  0
    2.1772   -2.2213   -3.6507 O   0  0  0  0  0  0  0  0  0  0  0  0
    3.2882    0.8525   -2.8024 C   0  0  0  0  0  0  0  0  0  0  0  0
    1.9222   -1.5450   -1.4745 H   0  0  0  0  0  0  0  0  0  0  0  0
    1.1644    0.7134   -3.1528 H   0  0  0  0  0  0  0  0  0  0  0  0
    4.1294    0.1992   -2.5488 H   0  0  0  0  0  0  0  0  0  0  0  0
    3.4981    1.3348   -3.7618 H   0  0  0  0  0  0  0  0  0  0  0  0
    3.2073    1.6303   -2.0363 H   0  0  0  0  0  0  0  0  0  0  0  0
    2.0513   -0.6989   -5.3087 N   0  0  0  0  0  0  0  0  0  0  0  0
    2.0939   -1.6807   -6.3861 C   0  0  0  0  0  0  0  0  0  0  0  0
    1.9419    0.2839   -5.5418 H   0  0  0  0  0  0  0  0  0  0  0  0
    2.9867   -2.3090   -6.2992 H   0  0  0  0  0  0  0  0  0  0  0  0
    1.2075   -2.3228   -6.3539 H   0  0  0  0  0  0  0  0  0  0  0  0
    2.1217   -1.1767   -7.3569 H   0  0  0  0  0  0  0  0  0  0  0  0
  1  2  2  0  0  0  0
  1  3  1  0  0  0  0
  1  7  1  0  0  0  0
  3  4  1  0  0  0  0
  3  5  1  0  0  0  0
  3  6  1  0  0  0  0
  7  8  1  0  0  0  0
  7 12  1  0  0  0  0
  8  9  1  0  0  0  0
  8 11  1  0  0  0  0
  8 13  1  0  0  0  0
  9 10  2  0  0  0  0
  9 17  1  0  0  0  0
 11 14  1  0  0  0  0
 11 15  1  0  0  0  0
 11 16  1  0  0  0  0
 17 18  1  0  0  0  0
 17 22  1  0  0  0  0
 18 19  1  0  0  0  0
 18 21  1  0  0  0  0
 18 23  1  0  0  0  0
 19 20  2  0  0  0  0
 19 27  1  0  0  0  0
 21 24  1  0  0  0  0
 21 25  1  0  0  0  0
 21 26  1  0  0  0  0
 27 28  1  0  0  0  0
 27 32  1  0  0  0  0
 28 29  1  0  0  0  0
 28 31  1  0  0  0  0
 28 33  1  0  0  0  0
 29 30  2  0  0  0  0
 29 37  1  0  0  0  0
 31 34  1  0  0  0  0
 31 35  1  0  0  0  0
 31 36  1  0  0  0  0
 37 38  1  0  0  0  0
 37 39  1  0  0  0  0
 38 40  1  0  0  0  0
 38 41  1  0  0  0  0
 38 42  1  0  0  0  0
M  END
$$$$

  -OEChem-05262215353D

 42 41  0     1  0  0  0  0  0999 V2000
   -5.5473   -1.0026    1.9427 C   0  0  0  0  0  0  0  0  0  0  0  0
   -5.9346   -0.0623    1.2670 O   0  0  0  0  0  0  0  0  0  0  0  0
   -6.5009   -2.1287    2.2965 C   0  0  0  0  0  0  0  0  0  0  0  0
   -6.6163   -2.1930    3.3811 H   0  0  0  0  0  0  0  0  0  0  0  0
   -7.4813   -1.9472    1.8471 H   0  0  0  0  0  0  0  0  0  0  0  0
   -6.1130   -3.0792    1.9218 H   0  0  0  0  0  0  0  0  0  0  0  0
   -4.2384   -1.0541    2.3718 N   0  0  0  0  0  0  0  0  0  0  0  0
   -3.1826   -0.1353    1.9261 C   0  0  2  0  0  0  0  0  0  0  0  0
   -1.8255   -0.8591    1.7877 C   0  0  0  0  0  0  0  0  0  0  0  0
   -1.6828   -1.9621    2.3022 O   0  0  0  0  0  0  0  0  0  0  0  0
   -3.0869    1.0141    2.9332 C   0  0  0  0  0  0  0  0  0  0  0  0
   -3.9284   -1.9186    2.8147 H   0  0  0  0  0  0  0  0  0  0  0  0
   -3.4354    0.2712    0.9408 H   0  0  0  0  0  0  0  0  0  0  0  0
   -2.8221    0.6332    3.9246 H   0  0  0  0  0  0  0  0  0  0  0  0
   -2.3263    1.7365    2.6219 H   0  0  0  0  0  0  0  0  0  0  0  0
   -4.0473    1.5345    3.0042 H   0  0  0  0  0  0  0  0  0  0  0  0
   -0.7914   -0.2382    1.1061 N   0  0  0  0  0  0  0  0  0  0  0  0
    0.5217   -0.7694    0.6816 C   0  0  2  0  0  0  0  0  0  0  0  0
    0.9363   -0.0139   -0.6076 C   0  0  0  0  0  0  0  0  0  0  0  0
    0.7134    1.1902   -0.6798 O   0  0  0  0  0  0  0  0  0  0  0  0
    0.5417   -2.2942    0.4385 C   0  0  0  0  0  0  0  0  0  0  0  0
   -1.0087    0.6885    0.7376 H   0  0  0  0  0  0  0  0  0  0  0  0
    1.2631   -0.5406    1.4534 H   0  0  0  0  0  0  0  0  0  0  0  0
   -0.2604   -2.5874   -0.2468 H   0  0  0  0  0  0  0  0  0  0  0  0
    1.5005   -2.6108    0.0174 H   0  0  0  0  0  0  0  0  0  0  0  0
    0.4181   -2.8391    1.3782 H   0  0  0  0  0  0  0  0  0  0  0  0
    1.4561   -0.6531   -1.7185 N   0  0  0  0  0  0  0  0  0  0  0  0
    1.6364   -0.0294   -3.0356 C   0  0  2  0  0  0  0  0  0  0  0  0
    1.3941   -1.0477   -4.1697 C   0  0  0  0  0  0  0  0  0  0  0  0
    1.3019   -2.2431   -3.9106 O   0  0  0  0  0  0  0  0  0  0  0  0
    3.0558    0.5403   -3.1106 C   0  0  0  0  0  0  0  0  0  0  0  0
    1.4559   -1.6732   -1.7046 H   0  0  0  0  0  0  0  0  0  0  0  0
    0.9135    0.7827   -3.1674 H   0  0  0  0  0  0  0  0  0  0  0  0
    3.7955   -0.2577   -2.9895 H   0  0  0  0  0  0  0  0  0  0  0  0
    3.2241    1.0289   -4.0749 H   0  0  0  0  0  0  0  0  0  0  0  0
    3.2081    1.2803   -2.3185 H   0  0  0  0  0  0  0  0  0  0  0  0
    1.2591   -0.6250   -5.4793 N   0  0  0  0  0  0  0  0  0  0  0  0
    0.9804   -1.5315   -6.5871 C   0  0  0  0  0  0  0  0  0  0  0  0
    1.3088    0.3734   -5.6606 H   0  0  0  0  0  0  0  0  0  0  0  0
    1.7583   -2.2988   -6.6608 H   0  0  0  0  0  0  0  0  0  0  0  0
    0.0127   -2.0241   -6.4451 H   0  0  0  0  0  0  0  0  0  0  0  0
    0.9518   -0.9788   -7.5311 H   0  0  0  0  0  0  0  0  0  0  0  0
  1  2  2  0  0  0  0
  1  3  1  0  0  0  0
  1  7  1  0  0  0  0
  3  4  1  0  0  0  0
  3  5  1  0  0  0  0
  3  6  1  0  0  0  0
  7  8  1  0  0  0  0
  7 12  1  0  0  0  0
  8  9  1  0  0  0  0
  8 11  1  0  0  0  0
  8 13  1  0  0  0  0
  9 10  2  0  0  0  0
  9 17  1  0  0  0  0
 11 14  1  0  0  0  0
 11 15  1  0  0  0  0
 11 16  1  0  0  0  0
 17 18  1  0  0  0  0
 17 22  1  0  0  0  0
 18 19  1  0  0  0  0
 18 21  1  0  0  0  0
 18 23  1  0  0  0  0
 19 20  2  0  0  0  0
 19 27  1  0  0  0  0
 21 24  1  0  0  0  0
 21 25  1  0  0  0  0
 21 26  1  0  0  0  0
 27 28  1  0  0  0  0
 27 32  1  0  0  0  0
 28 29  1  0  0  0  0
 28 31  1  0  0  0  0
 28 33  1  0  0  0  0
 29 30  2  0  0  0  0
 29 37  1  0  0  0  0
 31 34  1  0  0  0  0
 31 35  1  0  0  0  0
 31 36  1  0  0  0  0
 37 38  1  0  0  0  0
 37 39  1  0  0  0  0
 38 40  1  0  0  0  0
 38 41  1  0  0  0  0
 38 42  1  0  0  0  0
M  END
$$$$

  -OEChem-05262215353D

 42 41  0     1  0  0  0  0  0999 V2000
   -5.4610   -0.9302    1.7099 C   0  0  0  0  0  0  0  0  0  0  0  0
   -5.7668    0.0539    1.0550 O   0  0  0  0  0  0  0  0  0  0  0  0
   -6.4528   -2.0646    1.8856 C   0  0  0  0  0  0  0  0  0  0  0  0
   -6.6328   -2.2419    2.9486 H   0  0  0  0  0  0  0  0  0  0  0  0
   -7.4022   -1.8135    1.4045 H   0  0  0  0  0  0  0  0  0  0  0  0
   -6.0590   -2.9777    1.4325 H   0  0  0  0  0  0  0  0  0  0  0  0
   -4.2095   -1.0236    2.2810 N   0  0  0  0  0  0  0  0  0  0  0  0
   -3.1053   -0.0923    2.0142 C   0  0  2  0  0  0  0  0  0  0  0  0
   -1.7699   -0.8405    1.8157 C   0  0  0  0  0  0  0  0  0  0  0  0
   -1.6408   -1.9627    2.2899 O   0  0  0  0  0  0  0  0  0  0  0  0
   -3.0097    0.8830    3.1903 C   0  0  0  0  0  0  0  0  0  0  0  0
   -3.9551   -1.9212    2.6915 H   0  0  0  0  0  0  0  0  0  0  0  0
   -3.3022    0.4715    1.0961 H   0  0  0  0  0  0  0  0  0  0  0  0
   -2.8025    0.3432    4.1200 H   0  0  0  0  0  0  0  0  0  0  0  0
   -2.2089    1.6098    3.0229 H   0  0  0  0  0  0  0  0  0  0  0  0
   -3.9519    1.4282    3.3064 H   0  0  0  0  0  0  0  0  0  0  0  0
   -0.7457   -0.2213    1.1175 N   0  0  0  0  0  0  0  0  0  0  0  0
    0.5692   -0.7465    0.6937 C   0  0  2  0  0  0  0  0  0  0  0  0
    0.9585   -0.0050   -0.6085 C   0  0  0  0  0  0  0  0  0  0  0  0
    0.9114    1.2198   -0.6178 O   0  0  0  0  0  0  0  0  0  0  0  0
    0.6151   -2.2735    0.4816 C   0  0  0  0  0  0  0  0  0  0  0  0
   -0.9522    0.7217    0.7880 H   0  0  0  0  0  0  0  0  0  0  0  0
    1.3140   -0.4913    1.4541 H   0  0  0  0  0  0  0  0  0  0  0  0
   -0.2017   -2.5993   -0.1706 H   0  0  0  0  0  0  0  0  0  0  0  0
    1.5675   -2.5735    0.0341 H   0  0  0  0  0  0  0  0  0  0  0  0
    0.5319   -2.7986    1.4372 H   0  0  0  0  0  0  0  0  0  0  0  0
    1.1833   -0.6660   -1.8024 N   0  0  0  0  0  0  0  0  0  0  0  0
    1.2015   -0.0214   -3.1219 C   0  0  2  0  0  0  0  0  0  0  0  0
    0.6195   -0.9589   -4.2012 C   0  0  0  0  0  0  0  0  0  0  0  0
    0.4229   -2.1421   -3.9437 O   0  0  0  0  0  0  0  0  0  0  0  0
    2.6446    0.3676   -3.4552 C   0  0  0  0  0  0  0  0  0  0  0  0
    1.0147   -1.6725   -1.8036 H   0  0  0  0  0  0  0  0  0  0  0  0
    0.5792    0.8797   -3.1061 H   0  0  0  0  0  0  0  0  0  0  0  0
    3.2823   -0.5214   -3.4924 H   0  0  0  0  0  0  0  0  0  0  0  0
    2.6931    0.8727   -4.4244 H   0  0  0  0  0  0  0  0  0  0  0  0
    3.0380    1.0477   -2.6930 H   0  0  0  0  0  0  0  0  0  0  0  0
    0.2845   -0.4730   -5.4517 N   0  0  0  0  0  0  0  0  0  0  0  0
   -0.3199   -1.2961   -6.4928 C   0  0  0  0  0  0  0  0  0  0  0  0
    0.4230    0.5183   -5.6259 H   0  0  0  0  0  0  0  0  0  0  0  0
    0.3373   -2.1340   -6.7490 H   0  0  0  0  0  0  0  0  0  0  0  0
   -1.2835   -1.6939   -6.1563 H   0  0  0  0  0  0  0  0  0  0  0  0
   -0.4883   -0.7014   -7.3959 H   0  0  0  0  0  0  0  0  0  0  0  0
  1  2  2  0  0  0  0
  1  3  1  0  0  0  0
  1  7  1  0  0  0  0
  3  4  1  0  0  0  0
  3  5  1  0  0  0  0
  3  6  1  0  0  0  0
  7  8  1  0  0  0  0
  7 12  1  0  0  0  0
  8  9  1  0  0  0  0
  8 11  1  0  0  0  0
  8 13  1  0  0  0  0
  9 10  2  0  0  0  0
  9 17  1  0  0  0  0
 11 14  1  0  0  0  0
 11 15  1  0  0  0  0
 11 16  1  0  0  0  0
 17 18  1  0  0  0  0
 17 22  1  0  0  0  0
 18 19  1  0  0  0  0
 18 21  1  0  0  0  0
 18 23  1  0  0  0  0
 19 20  2  0  0  0  0
 19 27  1  0  0  0  0
 21 24  1  0  0  0  0
 21 25  1  0  0  0  0
 21 26  1  0  0  0  0
 27 28  1  0  0  0  0
 27 32  1  0  0  0  0
 28 29  1  0  0  0  0
 28 31  1  0  0  0  0
 28 33  1  0  0  0  0
 29 30  2  0  0  0  0
 29 37  1  0  0  0  0
 31 34  1  0  0  0  0
 31 35  1  0  0  0  0
 31 36  1  0  0  0  0
 37 38  1  0  0  0  0
 37 39  1  0  0  0  0
 38 40  1  0  0  0  0
 38 41  1  0  0  0  0
 38 42  1  0  0  0  0
M  END
$$$$

  -OEChem-05262215353D

 42 41  0     1  0  0  0  0  0999 V2000
   -5.4713   -0.9293    1.7215 C   0  0  0  0  0  0  0  0  0  0  0  0
   -5.7795    0.0617    1.0782 O   0  0  0  0  0  0  0  0  0  0  0  0
   -6.4600   -2.0686    1.8817 C   0  0  0  0  0  0  0  0  0  0  0  0
   -6.6493   -2.2528    2.9420 H   0  0  0  0  0  0  0  0  0  0  0  0
   -7.4058   -1.8186    1.3931 H   0  0  0  0  0  0  0  0  0  0  0  0
   -6.0579   -2.9774    1.4274 H   0  0  0  0  0  0  0  0  0  0  0  0
   -4.2212   -1.0246    2.2952 N   0  0  0  0  0  0  0  0  0  0  0  0
   -3.1180   -0.0895    2.0367 C   0  0  2  0  0  0  0  0  0  0  0  0
   -1.7907   -0.8369    1.7882 C   0  0  0  0  0  0  0  0  0  0  0  0
   -1.6525   -1.9670    2.2401 O   0  0  0  0  0  0  0  0  0  0  0  0
   -2.9931    0.8432    3.2440 C   0  0  0  0  0  0  0  0  0  0  0  0
   -3.9642   -1.9284    2.6904 H   0  0  0  0  0  0  0  0  0  0  0  0
   -3.3297    0.5071    1.1427 H   0  0  0  0  0  0  0  0  0  0  0  0
   -2.7694    0.2696    4.1495 H   0  0  0  0  0  0  0  0  0  0  0  0
   -2.1915    1.5711    3.0861 H   0  0  0  0  0  0  0  0  0  0  0  0
   -3.9298    1.3882    3.3988 H   0  0  0  0  0  0  0  0  0  0  0  0
   -0.7829   -0.2079    1.0747 N   0  0  0  0  0  0  0  0  0  0  0  0
    0.5359   -0.7220    0.6489 C   0  0  2  0  0  0  0  0  0  0  0  0
    0.9148    0.0009   -0.6634 C   0  0  0  0  0  0  0  0  0  0  0  0
    1.1070    1.2097   -0.6313 O   0  0  0  0  0  0  0  0  0  0  0  0
    0.6036   -2.2494    0.4493 C   0  0  0  0  0  0  0  0  0  0  0  0
   -0.9905    0.7458    0.7812 H   0  0  0  0  0  0  0  0  0  0  0  0
    1.2823   -0.4495    1.4021 H   0  0  0  0  0  0  0  0  0  0  0  0
   -0.2322   -2.5997   -0.1648 H   0  0  0  0  0  0  0  0  0  0  0  0
    1.5423   -2.5330   -0.0369 H   0  0  0  0  0  0  0  0  0  0  0  0
    0.5683   -2.7645    1.4135 H   0  0  0  0  0  0  0  0  0  0  0  0
    0.8447   -0.6284   -1.8927 N   0  0  0  0  0  0  0  0  0  0  0  0
    0.8481    0.0632   -3.1878 C   0  0  2  0  0  0  0  0  0  0  0  0
   -0.0589   -0.6636   -4.2035 C   0  0  0  0  0  0  0  0  0  0  0  0
   -0.4652   -1.7951   -3.9609 O   0  0  0  0  0  0  0  0  0  0  0  0
    2.2911    0.1302   -3.6955 C   0  0  0  0  0  0  0  0  0  0  0  0
    0.4753   -1.5799   -1.8974 H   0  0  0  0  0  0  0  0  0  0  0  0
    0.4579    1.0798   -3.0710 H   0  0  0  0  0  0  0  0  0  0  0  0
    2.6967   -0.8780   -3.8284 H   0  0  0  0  0  0  0  0  0  0  0  0
    2.3376    0.6545   -4.6546 H   0  0  0  0  0  0  0  0  0  0  0  0
    2.9198    0.6675   -2.9781 H   0  0  0  0  0  0  0  0  0  0  0  0
   -0.4424   -0.0430   -5.3778 N   0  0  0  0  0  0  0  0  0  0  0  0
   -1.3374   -0.6574   -6.3510 C   0  0  0  0  0  0  0  0  0  0  0  0
   -0.1198    0.9070   -5.5362 H   0  0  0  0  0  0  0  0  0  0  0  0
   -0.9089   -1.5911   -6.7302 H   0  0  0  0  0  0  0  0  0  0  0  0
   -2.3088   -0.8755   -5.8948 H   0  0  0  0  0  0  0  0  0  0  0  0
   -1.4973    0.0177   -7.1971 H   0  0  0  0  0  0  0  0  0  0  0  0
  1  2  2  0  0  0  0
  1  3  1  0  0  0  0
  1  7  1  0  0  0  0
  3  4  1  0  0  0  0
  3  5  1  0  0  0  0
  3  6  1  0  0  0  0
  7  8  1  0  0  0  0
  7 12  1  0  0  0  0
  8  9  1  0  0  0  0
  8 11  1  0  0  0  0
  8 13  1  0  0  0  0
  9 10  2  0  0  0  0
  9 17  1  0  0  0  0
 11 14  1  0  0  0  0
 11 15  1  0  0  0  0
 11 16  1  0  0  0  0
 17 18  1  0  0  0  0
 17 22  1  0  0  0  0
 18 19  1  0  0  0  0
 18 21  1  0  0  0  0
 18 23  1  0  0  0  0
 19 20  2  0  0  0  0
 19 27  1  0  0  0  0
 21 24  1  0  0  0  0
 21 25  1  0  0  0  0
 21 26  1  0  0  0  0
 27 28  1  0  0  0  0
 27 32  1  0  0  0  0
 28 29  1  0  0  0  0
 28 31  1  0  0  0  0
 28 33  1  0  0  0  0
 29 30  2  0  0  0  0
 29 37  1  0  0  0  0
 31 34  1  0  0  0  0
 31 35  1  0  0  0  0
 31 36  1  0  0  0  0
 37 38  1  0  0  0  0
 37 39  1  0  0  0  0
 38 40  1  0  0  0  0
 38 41  1  0  0  0  0
 38 42  1  0  0  0  0
M  END
$$$$

  -OEChem-05262215353D

 42 41  0     1  0  0  0  0  0999 V2000
   -5.4935   -0.9264    1.7802 C   0  0  0  0  0  0  0  0  0  0  0  0
   -5.8214    0.0960    1.1990 O   0  0  0  0  0  0  0  0  0  0  0  0
   -6.4732   -2.0779    1.9038 C   0  0  0  0  0  0  0  0  0  0  0  0
   -6.6687   -2.2914    2.9574 H   0  0  0  0  0  0  0  0  0  0  0  0
   -7.4175   -1.8229    1.4145 H   0  0  0  0  0  0  0  0  0  0  0  0
   -6.0599   -2.9706    1.4280 H   0  0  0  0  0  0  0  0  0  0  0  0
   -4.2252   -1.0474    2.3073 N   0  0  0  0  0  0  0  0  0  0  0  0
   -3.1321   -0.1001    2.0529 C   0  0  2  0  0  0  0  0  0  0  0  0
   -1.8029   -0.8344    1.7769 C   0  0  0  0  0  0  0  0  0  0  0  0
   -1.6465   -1.9660    2.2191 O   0  0  0  0  0  0  0  0  0  0  0  0
   -3.0022    0.8161    3.2721 C   0  0  0  0  0  0  0  0  0  0  0  0
   -3.9561   -1.9656    2.6591 H   0  0  0  0  0  0  0  0  0  0  0  0
   -3.3592    0.5077    1.1704 H   0  0  0  0  0  0  0  0  0  0  0  0
   -2.7651    0.2313    4.1667 H   0  0  0  0  0  0  0  0  0  0  0  0
   -2.2089    1.5533    3.1168 H   0  0  0  0  0  0  0  0  0  0  0  0
   -3.9417    1.3508    3.4441 H   0  0  0  0  0  0  0  0  0  0  0  0
   -0.8141   -0.1929    1.0475 N   0  0  0  0  0  0  0  0  0  0  0  0
    0.5071   -0.6934    0.6118 C   0  0  2  0  0  0  0  0  0  0  0  0
    0.8743    0.0160   -0.7086 C   0  0  0  0  0  0  0  0  0  0  0  0
    1.3210    1.1542   -0.6670 O   0  0  0  0  0  0  0  0  0  0  0  0
    0.5910   -2.2189    0.4062 C   0  0  0  0  0  0  0  0  0  0  0  0
   -1.0360    0.7608    0.7676 H   0  0  0  0  0  0  0  0  0  0  0  0
    1.2564   -0.4133    1.3593 H   0  0  0  0  0  0  0  0  0  0  0  0
   -0.2557   -2.5812   -0.1854 H   0  0  0  0  0  0  0  0  0  0  0  0
    1.5192   -2.4864   -0.1089 H   0  0  0  0  0  0  0  0  0  0  0  0
    0.5903   -2.7365    1.3699 H   0  0  0  0  0  0  0  0  0  0  0  0
    0.5174   -0.5170   -1.9329 N   0  0  0  0  0  0  0  0  0  0  0  0
    0.5227    0.2207   -3.2023 C   0  0  2  0  0  0  0  0  0  0  0  0
   -0.6463   -0.2240   -4.1063 C   0  0  0  0  0  0  0  0  0  0  0  0
   -1.2751   -1.2425   -3.8388 O   0  0  0  0  0  0  0  0  0  0  0  0
    1.8667   -0.0196   -3.8952 C   0  0  0  0  0  0  0  0  0  0  0  0
   -0.0433   -1.3694   -1.9124 H   0  0  0  0  0  0  0  0  0  0  0  0
    0.3993    1.2926   -3.0139 H   0  0  0  0  0  0  0  0  0  0  0  0
    2.0062   -1.0859   -4.1010 H   0  0  0  0  0  0  0  0  0  0  0  0
    1.9153    0.5280   -4.8411 H   0  0  0  0  0  0  0  0  0  0  0  0
    2.6872    0.3228   -3.2569 H   0  0  0  0  0  0  0  0  0  0  0  0
   -1.0142    0.5315   -5.2042 N   0  0  0  0  0  0  0  0  0  0  0  0
   -2.1472    0.1979   -6.0593 C   0  0  0  0  0  0  0  0  0  0  0  0
   -0.4990    1.3889   -5.3813 H   0  0  0  0  0  0  0  0  0  0  0  0
   -2.0106   -0.7917   -6.5083 H   0  0  0  0  0  0  0  0  0  0  0  0
   -3.0765    0.1970   -5.4796 H   0  0  0  0  0  0  0  0  0  0  0  0
   -2.2428    0.9322   -6.8650 H   0  0  0  0  0  0  0  0  0  0  0  0
  1  2  2  0  0  0  0
  1  3  1  0  0  0  0
  1  7  1  0  0  0  0
  3  4  1  0  0  0  0
  3  5  1  0  0  0  0
  3  6  1  0  0  0  0
  7  8  1  0  0  0  0
  7 12  1  0  0  0  0
  8  9  1  0  0  0  0
  8 11  1  0  0  0  0
  8 13  1  0  0  0  0
  9 10  2  0  0  0  0
  9 17  1  0  0  0  0
 11 14  1  0  0  0  0
 11 15  1  0  0  0  0
 11 16  1  0  0  0  0
 17 18  1  0  0  0  0
 17 22  1  0  0  0  0
 18 19  1  0  0  0  0
 18 21  1  0  0  0  0
 18 23  1  0  0  0  0
 19 20  2  0  0  0  0
 19 27  1  0  0  0  0
 21 24  1  0  0  0  0
 21 25  1  0  0  0  0
 21 26  1  0  0  0  0
 27 28  1  0  0  0  0
 27 32  1  0  0  0  0
 28 29  1  0  0  0  0
 28 31  1  0  0  0  0
 28 33  1  0  0  0  0
 29 30  2  0  0  0  0
 29 37  1  0  0  0  0
 31 34  1  0  0  0  0
 31 35  1  0  0  0  0
 31 36  1  0  0  0  0
 37 38  1  0  0  0  0
 37 39  1  0  0  0  0
 38 40  1  0  0  0  0
 38 41  1  0  0  0  0
 38 42  1  0  0  0  0
M  END
$$$$

  -OEChem-05262215353D

 42 41  0     1  0  0  0  0  0999 V2000
   -5.6280   -1.0003    2.0500 C   0  0  0  0  0  0  0  0  0  0  0  0
   -6.0342    0.0530    1.5849 O   0  0  0  0  0  0  0  0  0  0  0  0
   -6.6027   -2.1215    2.3578 C   0  0  0  0  0  0  0  0  0  0  0  0
   -6.5415   -2.3911    3.4150 H   0  0  0  0  0  0  0  0  0  0  0  0
   -7.6252   -1.8042    2.1335 H   0  0  0  0  0  0  0  0  0  0  0  0
   -6.3650   -2.9981    1.7505 H   0  0  0  0  0  0  0  0  0  0  0  0
   -4.2808   -1.1751    2.2862 N   0  0  0  0  0  0  0  0  0  0  0  0
   -3.2383   -0.2178    1.8944 C   0  0  2  0  0  0  0  0  0  0  0  0
   -1.8856   -0.9166    1.6364 C   0  0  0  0  0  0  0  0  0  0  0  0
   -1.7120   -2.0554    2.0528 O   0  0  0  0  0  0  0  0  0  0  0  0
   -3.0960    0.8294    3.0042 C   0  0  0  0  0  0  0  0  0  0  0  0
   -3.9679   -2.1004    2.5787 H   0  0  0  0  0  0  0  0  0  0  0  0
   -3.5327    0.2794    0.9634 H   0  0  0  0  0  0  0  0  0  0  0  0
   -2.7986    0.3524    3.9437 H   0  0  0  0  0  0  0  0  0  0  0  0
   -2.3408    1.5743    2.7365 H   0  0  0  0  0  0  0  0  0  0  0  0
   -4.0471    1.3477    3.1625 H   0  0  0  0  0  0  0  0  0  0  0  0
   -0.8934   -0.2325    0.9508 N   0  0  0  0  0  0  0  0  0  0  0  0
    0.4634   -0.6809    0.5671 C   0  0  2  0  0  0  0  0  0  0  0  0
    0.8644    0.0447   -0.7322 C   0  0  0  0  0  0  0  0  0  0  0  0
    1.5389    1.0632   -0.6740 O   0  0  0  0  0  0  0  0  0  0  0  0
    0.6113   -2.1969    0.3385 C   0  0  0  0  0  0  0  0  0  0  0  0
   -1.1361    0.7211    0.6899 H   0  0  0  0  0  0  0  0  0  0  0  0
    1.1701   -0.3857    1.3499 H   0  0  0  0  0  0  0  0  0  0  0  0
   -0.1977   -2.5795   -0.2916 H   0  0  0  0  0  0  0  0  0  0  0  0
    1.5669   -2.4187   -0.1471 H   0  0  0  0  0  0  0  0  0  0  0  0
    0.5945   -2.7321    1.2924 H   0  0  0  0  0  0  0  0  0  0  0  0
    0.3155   -0.3368   -1.9415 N   0  0  0  0  0  0  0  0  0  0  0  0
    0.3315    0.4833   -3.1595 C   0  0  2  0  0  0  0  0  0  0  0  0
   -1.0258    0.4139   -3.8922 C   0  0  0  0  0  0  0  0  0  0  0  0
   -1.8773   -0.3902   -3.5279 O   0  0  0  0  0  0  0  0  0  0  0  0
    1.4680   -0.0154   -4.0559 C   0  0  0  0  0  0  0  0  0  0  0  0
   -0.4094   -1.0540   -1.8962 H   0  0  0  0  0  0  0  0  0  0  0  0
    0.5094    1.5337   -2.9061 H   0  0  0  0  0  0  0  0  0  0  0  0
    1.2991   -1.0577   -4.3448 H   0  0  0  0  0  0  0  0  0  0  0  0
    1.5377    0.5919   -4.9632 H   0  0  0  0  0  0  0  0  0  0  0  0
    2.4231    0.0489   -3.5248 H   0  0  0  0  0  0  0  0  0  0  0  0
   -1.3085    1.2688   -4.9417 N   0  0  0  0  0  0  0  0  0  0  0  0
   -2.5861    1.2742   -5.6453 C   0  0  0  0  0  0  0  0  0  0  0  0
   -0.5956    1.9415   -5.2089 H   0  0  0  0  0  0  0  0  0  0  0  0
   -2.7855    0.2924   -6.0879 H   0  0  0  0  0  0  0  0  0  0  0  0
   -3.4012    1.5218   -4.9569 H   0  0  0  0  0  0  0  0  0  0  0  0
   -2.5736    2.0175   -6.4483 H   0  0  0  0  0  0  0  0  0  0  0  0
  1  2  2  0  0  0  0
  1  3  1  0  0  0  0
  1  7  1  0  0  0  0
  3  4  1  0  0  0  0
  3  5  1  0  0  0  0
  3  6  1  0  0  0  0
  7  8  1  0  0  0  0
  7 12  1  0  0  0  0
  8  9  1  0  0  0  0
  8 11  1  0  0  0  0
  8 13  1  0  0  0  0
  9 10  2  0  0  0  0
  9 17  1  0  0  0  0
 11 14  1  0  0  0  0
 11 15  1  0  0  0  0
 11 16  1  0  0  0  0
 17 18  1  0  0  0  0
 17 22  1  0  0  0  0
 18 19  1  0  0  0  0
 18 21  1  0  0  0  0
 18 23  1  0  0  0  0
 19 20  2  0  0  0  0
 19 27  1  0  0  0  0
 21 24  1  0  0  0  0
 21 25  1  0  0  0  0
 21 26  1  0  0  0  0
 27 28  1  0  0  0  0
 27 32  1  0  0  0  0
 28 29  1  0  0  0  0
 28 31  1  0  0  0  0
 28 33  1  0  0  0  0
 29 30  2  0  0  0  0
 29 37  1  0  0  0  0
 31 34  1  0  0  0  0
 31 35  1  0  0  0  0
 31 36  1  0  0  0  0
 37 38  1  0  0  0  0
 37 39  1  0  0  0  0
 38 40  1  0  0  0  0
 38 41  1  0  0  0  0
 38 42  1  0  0  0  0
M  END
$$$$

  -OEChem-05262215353D

 42 41  0     1  0  0  0  0  0999 V2000
   -5.4857   -1.5525    1.5660 C   0  0  0  0  0  0  0  0  0  0  0  0
   -5.9778   -1.1614    0.5195 O   0  0  0  0  0  0  0  0  0  0  0  0
   -6.2462   -2.5284    2.4437 C   0  0  0  0  0  0  0  0  0  0  0  0
   -6.4231   -2.0855    3.4265 H   0  0  0  0  0  0  0  0  0  0  0  0
   -7.2100   -2.7722    1.9887 H   0  0  0  0  0  0  0  0  0  0  0  0
   -5.6707   -3.4492    2.5649 H   0  0  0  0  0  0  0  0  0  0  0  0
   -4.2361   -1.1189    1.9533 N   0  0  0  0  0  0  0  0  0  0  0  0
   -3.3384   -0.3112    1.1166 C   0  0  2  0  0  0  0  0  0  0  0  0
   -1.8545   -0.6399    1.3979 C   0  0  0  0  0  0  0  0  0  0  0  0
   -1.5659   -1.4326    2.2875 O   0  0  0  0  0  0  0  0  0  0  0  0
   -3.6347    1.1693    1.3774 C   0  0  0  0  0  0  0  0  0  0  0  0
   -3.8110   -1.5824    2.7555 H   0  0  0  0  0  0  0  0  0  0  0  0
   -3.5216   -0.5280    0.0582 H   0  0  0  0  0  0  0  0  0  0  0  0
   -3.4400    1.4213    2.4244 H   0  0  0  0  0  0  0  0  0  0  0  0
   -3.0107    1.8048    0.7416 H   0  0  0  0  0  0  0  0  0  0  0  0
   -4.6834    1.3901    1.1544 H   0  0  0  0  0  0  0  0  0  0  0  0
   -0.8703   -0.0350    0.6372 N   0  0  0  0  0  0  0  0  0  0  0  0
    0.5712   -0.3572    0.5504 C   0  0  2  0  0  0  0  0  0  0  0  0
    1.0357    0.0222   -0.8668 C   0  0  0  0  0  0  0  0  0  0  0  0
    1.7146    1.0241   -1.0466 O   0  0  0  0  0  0  0  0  0  0  0  0
    0.9213   -1.8368    0.7906 C   0  0  0  0  0  0  0  0  0  0  0  0
   -1.2369    0.5738   -0.1036 H   0  0  0  0  0  0  0  0  0  0  0  0
    1.1228    0.2552    1.2712 H   0  0  0  0  0  0  0  0  0  0  0  0
    0.2577   -2.4948    0.2215 H   0  0  0  0  0  0  0  0  0  0  0  0
    1.9544   -2.0370    0.4889 H   0  0  0  0  0  0  0  0  0  0  0  0
    0.8334   -2.0853    1.8522 H   0  0  0  0  0  0  0  0  0  0  0  0
    0.4346   -0.5967   -1.9483 N   0  0  0  0  0  0  0  0  0  0  0  0
    0.0989    0.1955   -3.1395 C   0  0  2  0  0  0  0  0  0  0  0  0
   -1.0885    1.1538   -2.8713 C   0  0  0  0  0  0  0  0  0  0  0  0
   -1.8300    0.9701   -1.9071 O   0  0  0  0  0  0  0  0  0  0  0  0
   -0.2403   -0.7799   -4.2688 C   0  0  0  0  0  0  0  0  0  0  0  0
   -0.2579   -1.2887   -1.6733 H   0  0  0  0  0  0  0  0  0  0  0  0
    0.9642    0.7945   -3.4444 H   0  0  0  0  0  0  0  0  0  0  0  0
   -1.1080   -1.3913   -4.0006 H   0  0  0  0  0  0  0  0  0  0  0  0
   -0.4706   -0.2356   -5.1898 H   0  0  0  0  0  0  0  0  0  0  0  0
    0.6082   -1.4434   -4.4634 H   0  0  0  0  0  0  0  0  0  0  0  0
   -1.3248    2.2318   -3.7032 N   0  0  0  0  0  0  0  0  0  0  0  0
   -2.3767    3.2124   -3.4588 C   0  0  0  0  0  0  0  0  0  0  0  0
   -0.6475    2.4131   -4.4386 H   0  0  0  0  0  0  0  0  0  0  0  0
   -3.3547    2.7221   -3.4051 H   0  0  0  0  0  0  0  0  0  0  0  0
   -2.1960    3.7420   -2.5173 H   0  0  0  0  0  0  0  0  0  0  0  0
   -2.4053    3.9473   -4.2692 H   0  0  0  0  0  0  0  0  0  0  0  0
  1  2  2  0  0  0  0
  1  3  1  0  0  0  0
  1  7  1  0  0  0  0
  3  4  1  0  0  0  0
  3  5  1  0  0  0  0
  3  6  1  0  0  0  0
  7  8  1  0  0  0  0
  7 12  1  0  0  0  0
  8  9  1  0  0  0  0
  8 11  1  0  0  0  0
  8 13  1  0  0  0  0
  9 10  2  0  0  0  0
  9 17  1  0  0  0  0
 11 14  1  0  0  0  0
 11 15  1  0  0  0  0
 11 16  1  0  0  0  0
 17 18  1  0  0  0  0
 17 22  1  0  0  0  0
 18 19  1  0  0  0  0
 18 21  1  0  0  0  0
 18 23  1  0  0  0  0
 19 20  2  0  0  0  0
 19 27  1  0  0  0  0
 21 24  1  0  0  0  0
 21 25  1  0  0  0  0
 21 26  1  0  0  0  0
 27 28  1  0  0  0  0
 27 32  1  0  0  0  0
 28 29  1  0  0  0  0
 28 31  1  0  0  0  0
 28 33  1  0  0  0  0
 29 30  2  0  0  0  0
 29 37  1  0  0  0  0
 31 34  1  0  0  0  0
 31 35  1  0  0  0  0
 31 36  1  0  0  0  0
 37 38  1  0  0  0  0
 37 39  1  0  0  0  0
 38 40  1  0  0  0  0
 38 41  1  0  0  0  0
 38 42  1  0  0  0  0
M  END
$$$$

  -OEChem-05262215353D

 42 41  0     1  0  0  0  0  0999 V2000
   -5.5642   -1.4313    1.6188 C   0  0  0  0  0  0  0  0  0  0  0  0
   -6.0642   -0.9150    0.6319 O   0  0  0  0  0  0  0  0  0  0  0  0
   -6.3423   -2.4625    2.4138 C   0  0  0  0  0  0  0  0  0  0  0  0
   -6.5237   -2.0926    3.4259 H   0  0  0  0  0  0  0  0  0  0  0  0
   -7.3040   -2.6624    1.9333 H   0  0  0  0  0  0  0  0  0  0  0  0
   -5.7762   -3.3954    2.4701 H   0  0  0  0  0  0  0  0  0  0  0  0
   -4.2882   -1.0904    2.0127 N   0  0  0  0  0  0  0  0  0  0  0  0
   -3.3787   -0.2343    1.2399 C   0  0  2  0  0  0  0  0  0  0  0  0
   -1.9065   -0.6699    1.4133 C   0  0  0  0  0  0  0  0  0  0  0  0
   -1.6257   -1.5430    2.2264 O   0  0  0  0  0  0  0  0  0  0  0  0
   -3.5794    1.2150    1.6942 C   0  0  0  0  0  0  0  0  0  0  0  0
   -3.8637   -1.6523    2.7497 H   0  0  0  0  0  0  0  0  0  0  0  0
   -3.6143   -0.3082    0.1723 H   0  0  0  0  0  0  0  0  0  0  0  0
   -3.3192    1.3246    2.7517 H   0  0  0  0  0  0  0  0  0  0  0  0
   -2.9528    1.8935    1.1070 H   0  0  0  0  0  0  0  0  0  0  0  0
   -4.6244    1.5115    1.5587 H   0  0  0  0  0  0  0  0  0  0  0  0
   -0.9293   -0.0601    0.6466 N   0  0  0  0  0  0  0  0  0  0  0  0
    0.5140   -0.3748    0.5309 C   0  0  2  0  0  0  0  0  0  0  0  0
    0.9760    0.0144   -0.8857 C   0  0  0  0  0  0  0  0  0  0  0  0
    1.8582    0.8477   -1.0387 O   0  0  0  0  0  0  0  0  0  0  0  0
    0.8676   -1.8576    0.7339 C   0  0  0  0  0  0  0  0  0  0  0  0
   -1.2882    0.6546    0.0025 H   0  0  0  0  0  0  0  0  0  0  0  0
    1.0734    0.2236    1.2575 H   0  0  0  0  0  0  0  0  0  0  0  0
    0.2107   -2.4998    0.1395 H   0  0  0  0  0  0  0  0  0  0  0  0
    1.9037   -2.0463    0.4346 H   0  0  0  0  0  0  0  0  0  0  0  0
    0.7733   -2.1360    1.7873 H   0  0  0  0  0  0  0  0  0  0  0  0
    0.1816   -0.3458   -1.9595 N   0  0  0  0  0  0  0  0  0  0  0  0
   -0.0679    0.6109   -3.0460 C   0  0  2  0  0  0  0  0  0  0  0  0
   -1.1448    1.6468   -2.6418 C   0  0  0  0  0  0  0  0  0  0  0  0
   -1.8588    1.4453   -1.6602 O   0  0  0  0  0  0  0  0  0  0  0  0
   -0.5127   -0.1821   -4.2762 C   0  0  0  0  0  0  0  0  0  0  0  0
   -0.6196   -0.9082   -1.6829 H   0  0  0  0  0  0  0  0  0  0  0  0
    0.8526    1.1494   -3.2966 H   0  0  0  0  0  0  0  0  0  0  0  0
   -1.4403   -0.7254   -4.0690 H   0  0  0  0  0  0  0  0  0  0  0  0
   -0.6847    0.4893   -5.1229 H   0  0  0  0  0  0  0  0  0  0  0  0
    0.2597   -0.9041   -4.5597 H   0  0  0  0  0  0  0  0  0  0  0  0
   -1.3158    2.8079   -3.3716 N   0  0  0  0  0  0  0  0  0  0  0  0
   -2.2926    3.8339   -3.0259 C   0  0  0  0  0  0  0  0  0  0  0  0
   -0.6735    2.9805   -4.1399 H   0  0  0  0  0  0  0  0  0  0  0  0
   -3.3082    3.4267   -3.0711 H   0  0  0  0  0  0  0  0  0  0  0  0
   -2.1099    4.2143   -2.0153 H   0  0  0  0  0  0  0  0  0  0  0  0
   -2.2247    4.6713   -3.7270 H   0  0  0  0  0  0  0  0  0  0  0  0
  1  2  2  0  0  0  0
  1  3  1  0  0  0  0
  1  7  1  0  0  0  0
  3  4  1  0  0  0  0
  3  5  1  0  0  0  0
  3  6  1  0  0  0  0
  7  8  1  0  0  0  0
  7 12  1  0  0  0  0
  8  9  1  0  0  0  0
  8 11  1  0  0  0  0
  8 13  1  0  0  0  0
  9 10  2  0  0  0  0
  9 17  1  0  0  0  0
 11 14  1  0  0  0  0
 11 15  1  0  0  0  0
 11 16  1  0  0  0  0
 17 18  1  0  0  0  0
 17 22  1  0  0  0  0
 18 19  1  0  0  0  0
 18 21  1  0  0  0  0
 18 23  1  0  0  0  0
 19 20  2  0  0  0  0
 19 27  1  0  0  0  0
 21 24  1  0  0  0  0
 21 25  1  0  0  0  0
 21 26  1  0  0  0  0
 27 28  1  0  0  0  0
 27 32  1  0  0  0  0
 28 29  1  0  0  0  0
 28 31  1  0  0  0  0
 28 33  1  0  0  0  0
 29 30  2  0  0  0  0
 29 37  1  0  0  0  0
 31 34  1  0  0  0  0
 31 35  1  0  0  0  0
 31 36  1  0  0  0  0
 37 38  1  0  0  0  0
 37 39  1  0  0  0  0
 38 40  1  0  0  0  0
 38 41  1  0  0  0  0
 38 42  1  0  0  0  0
M  END
$$$$

  -OEChem-05262215353D

 42 41  0     1  0  0  0  0  0999 V2000
   -5.5873   -1.3118    1.6711 C   0  0  0  0  0  0  0  0  0  0  0  0
   -6.0789   -0.7254    0.7198 O   0  0  0  0  0  0  0  0  0  0  0  0
   -6.3848   -2.3763    2.4010 C   0  0  0  0  0  0  0  0  0  0  0  0
   -6.5831   -2.0553    3.4265 H   0  0  0  0  0  0  0  0  0  0  0  0
   -7.3378   -2.5476    1.8929 H   0  0  0  0  0  0  0  0  0  0  0  0
   -5.8250   -3.3143    2.4220 H   0  0  0  0  0  0  0  0  0  0  0  0
   -4.3041   -1.0192    2.0809 N   0  0  0  0  0  0  0  0  0  0  0  0
   -3.3804   -0.1376    1.3543 C   0  0  2  0  0  0  0  0  0  0  0  0
   -1.9246   -0.6494    1.4331 C   0  0  0  0  0  0  0  0  0  0  0  0
   -1.6481   -1.5681    2.1951 O   0  0  0  0  0  0  0  0  0  0  0  0
   -3.4974    1.2713    1.9437 C   0  0  0  0  0  0  0  0  0  0  0  0
   -3.8864   -1.6371    2.7758 H   0  0  0  0  0  0  0  0  0  0  0  0
   -3.6538   -0.1020    0.2938 H   0  0  0  0  0  0  0  0  0  0  0  0
   -3.1944    1.2738    2.9956 H   0  0  0  0  0  0  0  0  0  0  0  0
   -2.8613    1.9722    1.3943 H   0  0  0  0  0  0  0  0  0  0  0  0
   -4.5315    1.6240    1.8770 H   0  0  0  0  0  0  0  0  0  0  0  0
   -0.9622   -0.0561    0.6342 N   0  0  0  0  0  0  0  0  0  0  0  0
    0.4802   -0.3702    0.4844 C   0  0  2  0  0  0  0  0  0  0  0  0
    0.9254   -0.0095   -0.9475 C   0  0  0  0  0  0  0  0  0  0  0  0
    1.9583    0.6207   -1.1264 O   0  0  0  0  0  0  0  0  0  0  0  0
    0.8368   -1.8502    0.7000 C   0  0  0  0  0  0  0  0  0  0  0  0
   -1.3077    0.7391    0.0840 H   0  0  0  0  0  0  0  0  0  0  0  0
    1.0561    0.2374    1.1903 H   0  0  0  0  0  0  0  0  0  0  0  0
    0.1704   -2.4977    0.1217 H   0  0  0  0  0  0  0  0  0  0  0  0
    1.8683   -2.0434    0.3875 H   0  0  0  0  0  0  0  0  0  0  0  0
    0.7585   -2.1172    1.7579 H   0  0  0  0  0  0  0  0  0  0  0  0
   -0.0024   -0.0987   -1.9695 N   0  0  0  0  0  0  0  0  0  0  0  0
   -0.1599    0.9971   -2.9345 C   0  0  2  0  0  0  0  0  0  0  0  0
   -1.0964    2.0931   -2.3727 C   0  0  0  0  0  0  0  0  0  0  0  0
   -1.7920    1.8612   -1.3844 O   0  0  0  0  0  0  0  0  0  0  0  0
   -0.7282    0.4043   -4.2256 C   0  0  0  0  0  0  0  0  0  0  0  0
   -0.8716   -0.5318   -1.6660 H   0  0  0  0  0  0  0  0  0  0  0  0
    0.8096    1.4543   -3.1609 H   0  0  0  0  0  0  0  0  0  0  0  0
   -1.7022   -0.0600   -4.0400 H   0  0  0  0  0  0  0  0  0  0  0  0
   -0.8535    1.1837   -4.9836 H   0  0  0  0  0  0  0  0  0  0  0  0
   -0.0489   -0.3569   -4.6224 H   0  0  0  0  0  0  0  0  0  0  0  0
   -1.1629    3.3390   -2.9661 N   0  0  0  0  0  0  0  0  0  0  0  0
   -2.0173    4.4140   -2.4762 C   0  0  0  0  0  0  0  0  0  0  0  0
   -0.5479    3.5203   -3.7544 H   0  0  0  0  0  0  0  0  0  0  0  0
   -3.0711    4.1220   -2.5350 H   0  0  0  0  0  0  0  0  0  0  0  0
   -1.7757    4.6537   -1.4354 H   0  0  0  0  0  0  0  0  0  0  0  0
   -1.8741    5.3157   -3.0791 H   0  0  0  0  0  0  0  0  0  0  0  0
  1  2  2  0  0  0  0
  1  3  1  0  0  0  0
  1  7  1  0  0  0  0
  3  4  1  0  0  0  0
  3  5  1  0  0  0  0
  3  6  1  0  0  0  0
  7  8  1  0  0  0  0
  7 12  1  0  0  0  0
  8  9  1  0  0  0  0
  8 11  1  0  0  0  0
  8 13  1  0  0  0  0
  9 10  2  0  0  0  0
  9 17  1  0  0  0  0
 11 14  1  0  0  0  0
 11 15  1  0  0  0  0
 11 16  1  0  0  0  0
 17 18  1  0  0  0  0
 17 22  1  0  0  0  0
 18 19  1  0  0  0  0
 18 21  1  0  0  0  0
 18 23  1  0  0  0  0
 19 20  2  0  0  0  0
 19 27  1  0  0  0  0
 21 24  1  0  0  0  0
 21 25  1  0  0  0  0
 21 26  1  0  0  0  0
 27 28  1  0  0  0  0
 27 32  1  0  0  0  0
 28 29  1  0  0  0  0
 28 31  1  0  0  0  0
 28 33  1  0  0  0  0
 29 30  2  0  0  0  0
 29 37  1  0  0  0  0
 31 34  1  0  0  0  0
 31 35  1  0  0  0  0
 31 36  1  0  0  0  0
 37 38  1  0  0  0  0
 37 39  1  0  0  0  0
 38 40  1  0  0  0  0
 38 41  1  0  0  0  0
 38 42  1  0  0  0  0
M  END
$$$$

  -OEChem-05262215353D

 42 41  0     1  0  0  0  0  0999 V2000
   -5.5969   -1.1605    1.7437 C   0  0  0  0  0  0  0  0  0  0  0  0
   -6.0805   -0.4833    0.8503 O   0  0  0  0  0  0  0  0  0  0  0  0
   -6.4266   -2.2407    2.4120 C   0  0  0  0  0  0  0  0  0  0  0  0
   -6.5413   -2.0167    3.4754 H   0  0  0  0  0  0  0  0  0  0  0  0
   -7.4184   -2.2928    1.9538 H   0  0  0  0  0  0  0  0  0  0  0  0
   -5.9359   -3.2109    2.3016 H   0  0  0  0  0  0  0  0  0  0  0  0
   -4.2951   -0.9528    2.1470 N   0  0  0  0  0  0  0  0  0  0  0  0
   -3.3485   -0.0601    1.4652 C   0  0  2  0  0  0  0  0  0  0  0  0
   -1.9221   -0.6507    1.4398 C   0  0  0  0  0  0  0  0  0  0  0  0
   -1.6575   -1.6191    2.1418 O   0  0  0  0  0  0  0  0  0  0  0  0
   -3.3643    1.2938    2.1803 C   0  0  0  0  0  0  0  0  0  0  0  0
   -3.8933   -1.6362    2.7877 H   0  0  0  0  0  0  0  0  0  0  0  0
   -3.6555    0.0852    0.4235 H   0  0  0  0  0  0  0  0  0  0  0  0
   -3.0346    1.1830    3.2182 H   0  0  0  0  0  0  0  0  0  0  0  0
   -2.7011    2.0035    1.6759 H   0  0  0  0  0  0  0  0  0  0  0  0
   -4.3767    1.7100    2.1775 H   0  0  0  0  0  0  0  0  0  0  0  0
   -0.9810   -0.0686    0.6076 N   0  0  0  0  0  0  0  0  0  0  0  0
    0.4568   -0.3865    0.4179 C   0  0  2  0  0  0  0  0  0  0  0  0
    0.8774   -0.0468   -1.0290 C   0  0  0  0  0  0  0  0  0  0  0  0
    2.0099    0.3583   -1.2512 O   0  0  0  0  0  0  0  0  0  0  0  0
    0.8176   -1.8639    0.6455 C   0  0  0  0  0  0  0  0  0  0  0  0
   -1.3024    0.8015    0.1672 H   0  0  0  0  0  0  0  0  0  0  0  0
    1.0512    0.2286    1.1014 H   0  0  0  0  0  0  0  0  0  0  0  0
    0.1382   -2.5182    0.0904 H   0  0  0  0  0  0  0  0  0  0  0  0
    1.8417   -2.0628    0.3125 H   0  0  0  0  0  0  0  0  0  0  0  0
    0.7629   -2.1166    1.7083 H   0  0  0  0  0  0  0  0  0  0  0  0
   -0.1094    0.1623   -1.9753 N   0  0  0  0  0  0  0  0  0  0  0  0
   -0.1284    1.3827   -2.7901 C   0  0  2  0  0  0  0  0  0  0  0  0
   -0.9295    2.4968   -2.0762 C   0  0  0  0  0  0  0  0  0  0  0  0
   -1.6099    2.2259   -1.0867 O   0  0  0  0  0  0  0  0  0  0  0  0
   -0.7589    1.0322   -4.1394 C   0  0  0  0  0  0  0  0  0  0  0  0
   -1.0237   -0.1431   -1.6501 H   0  0  0  0  0  0  0  0  0  0  0  0
    0.8890    1.7486   -2.9659 H   0  0  0  0  0  0  0  0  0  0  0  0
   -1.7903    0.6900   -4.0054 H   0  0  0  0  0  0  0  0  0  0  0  0
   -0.7647    1.9049   -4.7995 H   0  0  0  0  0  0  0  0  0  0  0  0
   -0.1880    0.2353   -4.6266 H   0  0  0  0  0  0  0  0  0  0  0  0
   -0.8907    3.8002   -2.5336 N   0  0  0  0  0  0  0  0  0  0  0  0
   -1.6120    4.8955   -1.8953 C   0  0  0  0  0  0  0  0  0  0  0  0
   -0.2868    4.0047   -3.3253 H   0  0  0  0  0  0  0  0  0  0  0  0
   -2.6818    4.6677   -1.8341 H   0  0  0  0  0  0  0  0  0  0  0  0
   -1.2300    5.0680   -0.8835 H   0  0  0  0  0  0  0  0  0  0  0  0
   -1.4899    5.8165   -2.4739 H   0  0  0  0  0  0  0  0  0  0  0  0
  1  2  2  0  0  0  0
  1  3  1  0  0  0  0
  1  7  1  0  0  0  0
  3  4  1  0  0  0  0
  3  5  1  0  0  0  0
  3  6  1  0  0  0  0
  7  8  1  0  0  0  0
  7 12  1  0  0  0  0
  8  9  1  0  0  0  0
  8 11  1  0  0  0  0
  8 13  1  0  0  0  0
  9 10  2  0  0  0  0
  9 17  1  0  0  0  0
 11 14  1  0  0  0  0
 11 15  1  0  0  0  0
 11 16  1  0  0  0  0
 17 18  1  0  0  0  0
 17 22  1  0  0  0  0
 18 19  1  0  0  0  0
 18 21  1  0  0  0  0
 18 23  1  0  0  0  0
 19 20  2  0  0  0  0
 19 27  1  0  0  0  0
 21 24  1  0  0  0  0
 21 25  1  0  0  0  0
 21 26  1  0  0  0  0
 27 28  1  0  0  0  0
 27 32  1  0  0  0  0
 28 29  1  0  0  0  0
 28 31  1  0  0  0  0
 28 33  1  0  0  0  0
 29 30  2  0  0  0  0
 29 37  1  0  0  0  0
 31 34  1  0  0  0  0
 31 35  1  0  0  0  0
 31 36  1  0  0  0  0
 37 38  1  0  0  0  0
 37 39  1  0  0  0  0
 38 40  1  0  0  0  0
 38 41  1  0  0  0  0
 38 42  1  0  0  0  0
M  END
$$$$

  -OEChem-05262215353D

 42 41  0     1  0  0  0  0  0999 V2000
   -5.3416   -1.2241    1.5491 C   0  0  0  0  0  0  0  0  0  0  0  0
   -5.5601   -0.8735    0.3998 O   0  0  0  0  0  0  0  0  0  0  0  0
   -6.1519   -2.3505    2.1628 C   0  0  0  0  0  0  0  0  0  0  0  0
   -6.6739   -1.9925    3.0535 H   0  0  0  0  0  0  0  0  0  0  0  0
   -6.8905   -2.7184    1.4449 H   0  0  0  0  0  0  0  0  0  0  0  0
   -5.4916   -3.1754    2.4424 H   0  0  0  0  0  0  0  0  0  0  0  0
   -4.3484   -0.6202    2.2923 N   0  0  0  0  0  0  0  0  0  0  0  0
   -3.3265    0.2591    1.7055 C   0  0  2  0  0  0  0  0  0  0  0  0
   -1.9736   -0.4648    1.5354 C   0  0  0  0  0  0  0  0  0  0  0  0
   -1.7088   -1.4177    2.2573 O   0  0  0  0  0  0  0  0  0  0  0  0
   -3.1725    1.4749    2.6205 C   0  0  0  0  0  0  0  0  0  0  0  0
   -4.0764   -1.1181    3.1370 H   0  0  0  0  0  0  0  0  0  0  0  0
   -3.6426    0.6143    0.7186 H   0  0  0  0  0  0  0  0  0  0  0  0
   -2.8310    1.1676    3.6139 H   0  0  0  0  0  0  0  0  0  0  0  0
   -2.4443    2.1772    2.2026 H   0  0  0  0  0  0  0  0  0  0  0  0
   -4.1308    1.9931    2.7242 H   0  0  0  0  0  0  0  0  0  0  0  0
   -1.0797    0.0216    0.5959 N   0  0  0  0  0  0  0  0  0  0  0  0
    0.3235   -0.3750    0.3157 C   0  0  2  0  0  0  0  0  0  0  0  0
    0.6564   -0.1501   -1.1782 C   0  0  0  0  0  0  0  0  0  0  0  0
    1.8252   -0.0122   -1.5136 O   0  0  0  0  0  0  0  0  0  0  0  0
    0.6410   -1.8480    0.6273 C   0  0  0  0  0  0  0  0  0  0  0  0
   -1.3596    0.9272    0.2028 H   0  0  0  0  0  0  0  0  0  0  0  0
    0.9921    0.2570    0.9087 H   0  0  0  0  0  0  0  0  0  0  0  0
   -0.1039   -2.5089    0.1730 H   0  0  0  0  0  0  0  0  0  0  0  0
    1.6282   -2.1200    0.2396 H   0  0  0  0  0  0  0  0  0  0  0  0
    0.6558   -2.0197    1.7073 H   0  0  0  0  0  0  0  0  0  0  0  0
   -0.3273    0.3511   -2.0115 N   0  0  0  0  0  0  0  0  0  0  0  0
   -0.1487    1.6369   -2.6954 C   0  0  2  0  0  0  0  0  0  0  0  0
   -0.6713    2.7915   -1.8094 C   0  0  0  0  0  0  0  0  0  0  0  0
   -1.3817    2.5449   -0.8345 O   0  0  0  0  0  0  0  0  0  0  0  0
   -0.9136    1.5756   -4.0187 C   0  0  0  0  0  0  0  0  0  0  0  0
   -1.2594    0.2090   -1.6293 H   0  0  0  0  0  0  0  0  0  0  0  0
    0.9094    1.8188   -2.9128 H   0  0  0  0  0  0  0  0  0  0  0  0
   -1.9801    1.4051   -3.8388 H   0  0  0  0  0  0  0  0  0  0  0  0
   -0.7994    2.5127   -4.5721 H   0  0  0  0  0  0  0  0  0  0  0  0
   -0.5299    0.7593   -4.6391 H   0  0  0  0  0  0  0  0  0  0  0  0
   -0.3336    4.1025   -2.0852 N   0  0  0  0  0  0  0  0  0  0  0  0
   -0.7559    5.2287   -1.2609 C   0  0  0  0  0  0  0  0  0  0  0  0
    0.2920    4.2736   -2.8677 H   0  0  0  0  0  0  0  0  0  0  0  0
   -1.8488    5.2897   -1.2254 H   0  0  0  0  0  0  0  0  0  0  0  0
   -0.3756    5.1205   -0.2396 H   0  0  0  0  0  0  0  0  0  0  0  0
   -0.3716    6.1659   -1.6752 H   0  0  0  0  0  0  0  0  0  0  0  0
  1  2  2  0  0  0  0
  1  3  1  0  0  0  0
  1  7  1  0  0  0  0
  3  4  1  0  0  0  0
  3  5  1  0  0  0  0
  3  6  1  0  0  0  0
  7  8  1  0  0  0  0
  7 12  1  0  0  0  0
  8  9  1  0  0  0  0
  8 11  1  0  0  0  0
  8 13  1  0  0  0  0
  9 10  2  0  0  0  0
  9 17  1  0  0  0  0
 11 14  1  0  0  0  0
 11 15  1  0  0  0  0
 11 16  1  0  0  0  0
 17 18  1  0  0  0  0
 17 22  1  0  0  0  0
 18 19  1  0  0  0  0
 18 21  1  0  0  0  0
 18 23  1  0  0  0  0
 19 20  2  0  0  0  0
 19 27  1  0  0  0  0
 21 24  1  0  0  0  0
 21 25  1  0  0  0  0
 21 26  1  0  0  0  0
 27 28  1  0  0  0  0
 27 32  1  0  0  0  0
 28 29  1  0  0  0  0
 28 31  1  0  0  0  0
 28 33  1  0  0  0  0
 29 30  2  0  0  0  0
 29 37  1  0  0  0  0
 31 34  1  0  0  0  0
 31 35  1  0  0  0  0
 31 36  1  0  0  0  0
 37 38  1  0  0  0  0
 37 39  1  0  0  0  0
 38 40  1  0  0  0  0
 38 41  1  0  0  0  0
 38 42  1  0  0  0  0
M  END
$$$$

  -OEChem-05262215353D

 42 41  0     1  0  0  0  0  0999 V2000
   -5.5519   -1.0781    1.8509 C   0  0  0  0  0  0  0  0  0  0  0  0
   -5.8661   -0.1314    1.1471 O   0  0  0  0  0  0  0  0  0  0  0  0
   -6.4857   -2.2668    1.9834 C   0  0  0  0  0  0  0  0  0  0  0  0
   -6.7272   -2.4363    3.0355 H   0  0  0  0  0  0  0  0  0  0  0  0
   -7.4133   -2.0814    1.4345 H   0  0  0  0  0  0  0  0  0  0  0  0
   -6.0093   -3.1624    1.5774 H   0  0  0  0  0  0  0  0  0  0  0  0
   -4.3447   -1.0819    2.5185 N   0  0  0  0  0  0  0  0  0  0  0  0
   -3.2614   -0.1211    2.2654 C   0  0  2  0  0  0  0  0  0  0  0  0
   -1.9766   -0.8309    1.7868 C   0  0  0  0  0  0  0  0  0  0  0  0
   -1.7957   -1.9958    2.1152 O   0  0  0  0  0  0  0  0  0  0  0  0
   -3.0019    0.6419    3.5664 C   0  0  0  0  0  0  0  0  0  0  0  0
   -4.0636   -1.9729    2.9248 H   0  0  0  0  0  0  0  0  0  0  0  0
   -3.5534    0.5947    1.4898 H   0  0  0  0  0  0  0  0  0  0  0  0
   -2.6939   -0.0469    4.3600 H   0  0  0  0  0  0  0  0  0  0  0  0
   -2.2126    1.3864    3.4253 H   0  0  0  0  0  0  0  0  0  0  0  0
   -3.9111    1.1601    3.8876 H   0  0  0  0  0  0  0  0  0  0  0  0
   -1.0460   -0.1113    1.0489 N   0  0  0  0  0  0  0  0  0  0  0  0
    0.2660   -0.5435    0.4935 C   0  0  2  0  0  0  0  0  0  0  0  0
    0.6190    0.2307   -0.8066 C   0  0  0  0  0  0  0  0  0  0  0  0
    1.5954   -0.0735   -1.4798 O   0  0  0  0  0  0  0  0  0  0  0  0
    0.3364   -2.0543    0.1800 C   0  0  0  0  0  0  0  0  0  0  0  0
   -1.2728    0.8743    0.9645 H   0  0  0  0  0  0  0  0  0  0  0  0
    1.0446   -0.3131    1.2273 H   0  0  0  0  0  0  0  0  0  0  0  0
   -0.5176   -2.3597   -0.4326 H   0  0  0  0  0  0  0  0  0  0  0  0
    1.2552   -2.3046   -0.3592 H   0  0  0  0  0  0  0  0  0  0  0  0
    0.3438   -2.6429    1.1011 H   0  0  0  0  0  0  0  0  0  0  0  0
   -0.0620    1.3830   -1.1564 N   0  0  0  0  0  0  0  0  0  0  0  0
    0.3458    2.3286   -2.2014 C   0  0  2  0  0  0  0  0  0  0  0  0
   -0.1020    3.7594   -1.8332 C   0  0  0  0  0  0  0  0  0  0  0  0
   -0.8432    3.9361   -0.8699 O   0  0  0  0  0  0  0  0  0  0  0  0
   -0.2739    1.8816   -3.5290 C   0  0  0  0  0  0  0  0  0  0  0  0
   -0.7995    1.7052   -0.5373 H   0  0  0  0  0  0  0  0  0  0  0  0
    1.4371    2.3370   -2.2954 H   0  0  0  0  0  0  0  0  0  0  0  0
   -1.3662    1.8717   -3.4580 H   0  0  0  0  0  0  0  0  0  0  0  0
    0.0176    2.5579   -4.3378 H   0  0  0  0  0  0  0  0  0  0  0  0
    0.0672    0.8732   -3.7850 H   0  0  0  0  0  0  0  0  0  0  0  0
    0.3418    4.8498   -2.5579 N   0  0  0  0  0  0  0  0  0  0  0  0
   -0.0132    6.2259   -2.2308 C   0  0  0  0  0  0  0  0  0  0  0  0
    0.9740    4.6753   -3.3340 H   0  0  0  0  0  0  0  0  0  0  0  0
   -1.1008    6.3549   -2.2394 H   0  0  0  0  0  0  0  0  0  0  0  0
    0.3649    6.4931   -1.2383 H   0  0  0  0  0  0  0  0  0  0  0  0
    0.4211    6.9138   -2.9629 H   0  0  0  0  0  0  0  0  0  0  0  0
  1  2  2  0  0  0  0
  1  3  1  0  0  0  0
  1  7  1  0  0  0  0
  3  4  1  0  0  0  0
  3  5  1  0  0  0  0
  3  6  1  0  0  0  0
  7  8  1  0  0  0  0
  7 12  1  0  0  0  0
  8  9  1  0  0  0  0
  8 11  1  0  0  0  0
  8 13  1  0  0  0  0
  9 10  2  0  0  0  0
  9 17  1  0  0  0  0
 11 14  1  0  0  0  0
 11 15  1  0  0  0  0
 11 16  1  0  0  0  0
 17 18  1  0  0  0  0
 17 22  1  0  0  0  0
 18 19  1  0  0  0  0
 18 21  1  0  0  0  0
 18 23  1  0  0  0  0
 19 20  2  0  0  0  0
 19 27  1  0  0  0  0
 21 24  1  0  0  0  0
 21 25  1  0  0  0  0
 21 26  1  0  0  0  0
 27 28  1  0  0  0  0
 27 32  1  0  0  0  0
 28 29  1  0  0  0  0
 28 31  1  0  0  0  0
 28 33  1  0  0  0  0
 29 30  2  0  0  0  0
 29 37  1  0  0  0  0
 31 34  1  0  0  0  0
 31 35  1  0  0  0  0
 31 36  1  0  0  0  0
 37 38  1  0  0  0  0
 37 39  1  0  0  0  0
 38 40  1  0  0  0  0
 38 41  1  0  0  0  0
 38 42  1  0  0  0  0
M  END
$$$$

  -OEChem-05262215353D

 42 41  0     1  0  0  0  0  0999 V2000
   -5.4805   -1.1545    1.7460 C   0  0  0  0  0  0  0  0  0  0  0  0
   -5.8297   -0.2493    1.0050 O   0  0  0  0  0  0  0  0  0  0  0  0
   -6.3812   -2.3575    1.9515 C   0  0  0  0  0  0  0  0  0  0  0  0
   -6.5774   -2.4992    3.0170 H   0  0  0  0  0  0  0  0  0  0  0  0
   -7.3338   -2.2082    1.4353 H   0  0  0  0  0  0  0  0  0  0  0  0
   -5.9011   -3.2548    1.5534 H   0  0  0  0  0  0  0  0  0  0  0  0
   -4.2623   -1.0955    2.3896 N   0  0  0  0  0  0  0  0  0  0  0  0
   -3.2298   -0.0881    2.1128 C   0  0  2  0  0  0  0  0  0  0  0  0
   -1.8525   -0.7411    1.8740 C   0  0  0  0  0  0  0  0  0  0  0  0
   -1.6069   -1.8190    2.3995 O   0  0  0  0  0  0  0  0  0  0  0  0
   -3.1750    0.8705    3.3045 C   0  0  0  0  0  0  0  0  0  0  0  0
   -3.9533   -1.9430    2.8640 H   0  0  0  0  0  0  0  0  0  0  0  0
   -3.4837    0.4800    1.2118 H   0  0  0  0  0  0  0  0  0  0  0  0
   -2.9118    0.3301    4.2196 H   0  0  0  0  0  0  0  0  0  0  0  0
   -2.4286    1.6524    3.1348 H   0  0  0  0  0  0  0  0  0  0  0  0
   -4.1494    1.3479    3.4492 H   0  0  0  0  0  0  0  0  0  0  0  0
   -0.8999   -0.0565    1.1346 N   0  0  0  0  0  0  0  0  0  0  0  0
    0.3415   -0.5907    0.5170 C   0  0  2  0  0  0  0  0  0  0  0  0
    0.6788    0.2356   -0.7540 C   0  0  0  0  0  0  0  0  0  0  0  0
    1.2304   -0.2486   -1.7336 O   0  0  0  0  0  0  0  0  0  0  0  0
    0.2541   -2.0884    0.1453 C   0  0  0  0  0  0  0  0  0  0  0  0
   -1.2662    0.7922    0.7112 H   0  0  0  0  0  0  0  0  0  0  0  0
    1.1683   -0.4630    1.2225 H   0  0  0  0  0  0  0  0  0  0  0  0
   -0.6339   -2.2822   -0.4644 H   0  0  0  0  0  0  0  0  0  0  0  0
    1.1379   -2.4024   -0.4190 H   0  0  0  0  0  0  0  0  0  0  0  0
    0.2154   -2.7153    1.0396 H   0  0  0  0  0  0  0  0  0  0  0  0
    0.3095    1.5683   -0.8105 N   0  0  0  0  0  0  0  0  0  0  0  0
    0.6115    2.4764   -1.9237 C   0  0  2  0  0  0  0  0  0  0  0  0
    0.6612    3.9378   -1.4296 C   0  0  0  0  0  0  0  0  0  0  0  0
    0.3073    4.2040   -0.2847 O   0  0  0  0  0  0  0  0  0  0  0  0
   -0.4644    2.3047   -3.0017 C   0  0  0  0  0  0  0  0  0  0  0  0
    0.0929    2.0231    0.0761 H   0  0  0  0  0  0  0  0  0  0  0  0
    1.5931    2.2346   -2.3460 H   0  0  0  0  0  0  0  0  0  0  0  0
   -1.4539    2.5379   -2.5952 H   0  0  0  0  0  0  0  0  0  0  0  0
   -0.2703    2.9678   -3.8499 H   0  0  0  0  0  0  0  0  0  0  0  0
   -0.4731    1.2733   -3.3685 H   0  0  0  0  0  0  0  0  0  0  0  0
    1.1201    4.9496   -2.2521 N   0  0  0  0  0  0  0  0  0  0  0  0
    1.2140    6.3415   -1.8289 C   0  0  0  0  0  0  0  0  0  0  0  0
    1.4248    4.6968   -3.1879 H   0  0  0  0  0  0  0  0  0  0  0  0
    0.2331    6.7149   -1.5163 H   0  0  0  0  0  0  0  0  0  0  0  0
    1.9119    6.4397   -0.9909 H   0  0  0  0  0  0  0  0  0  0  0  0
    1.5730    6.9653   -2.6531 H   0  0  0  0  0  0  0  0  0  0  0  0
  1  2  2  0  0  0  0
  1  3  1  0  0  0  0
  1  7  1  0  0  0  0
  3  4  1  0  0  0  0
  3  5  1  0  0  0  0
  3  6  1  0  0  0  0
  7  8  1  0  0  0  0
  7 12  1  0  0  0  0
  8  9  1  0  0  0  0
  8 11  1  0  0  0  0
  8 13  1  0  0  0  0
  9 10  2  0  0  0  0
  9 17  1  0  0  0  0
 11 14  1  0  0  0  0
 11 15  1  0  0  0  0
 11 16  1  0  0  0  0
 17 18  1  0  0  0  0
 17 22  1  0  0  0  0
 18 19  1  0  0  0  0
 18 21  1  0  0  0  0
 18 23  1  0  0  0  0
 19 20  2  0  0  0  0
 19 27  1  0  0  0  0
 21 24  1  0  0  0  0
 21 25  1  0  0  0  0
 21 26  1  0  0  0  0
 27 28  1  0  0  0  0
 27 32  1  0  0  0  0
 28 29  1  0  0  0  0
 28 31  1  0  0  0  0
 28 33  1  0  0  0  0
 29 30  2  0  0  0  0
 29 37  1  0  0  0  0
 31 34  1  0  0  0  0
 31 35  1  0  0  0  0
 31 36  1  0  0  0  0
 37 38  1  0  0  0  0
 37 39  1  0  0  0  0
 38 40  1  0  0  0  0
 38 41  1  0  0  0  0
 38 42  1  0  0  0  0
M  END
$$$$

  -OEChem-05262215353D

 42 41  0     1  0  0  0  0  0999 V2000
   -5.5384   -1.1662    1.8399 C   0  0  0  0  0  0  0  0  0  0  0  0
   -5.9520   -0.2688    1.1228 O   0  0  0  0  0  0  0  0  0  0  0  0
   -6.4230   -2.3572    2.1562 C   0  0  0  0  0  0  0  0  0  0  0  0
   -6.6278   -2.3940    3.2288 H   0  0  0  0  0  0  0  0  0  0  0  0
   -7.3717   -2.2763    1.6184 H   0  0  0  0  0  0  0  0  0  0  0  0
   -5.9255   -3.2824    1.8549 H   0  0  0  0  0  0  0  0  0  0  0  0
   -4.2622   -1.1067    2.3581 N   0  0  0  0  0  0  0  0  0  0  0  0
   -3.2551   -0.1130    1.9641 C   0  0  2  0  0  0  0  0  0  0  0  0
   -1.8630   -0.7559    1.7827 C   0  0  0  0  0  0  0  0  0  0  0  0
   -1.6300   -1.8359    2.3106 O   0  0  0  0  0  0  0  0  0  0  0  0
   -3.2165    0.9765    3.0391 C   0  0  0  0  0  0  0  0  0  0  0  0
   -3.9151   -1.9428    2.8270 H   0  0  0  0  0  0  0  0  0  0  0  0
   -3.5303    0.3399    1.0057 H   0  0  0  0  0  0  0  0  0  0  0  0
   -2.9324    0.5504    4.0067 H   0  0  0  0  0  0  0  0  0  0  0  0
   -2.4932    1.7536    2.7746 H   0  0  0  0  0  0  0  0  0  0  0  0
   -4.2021    1.4427    3.1392 H   0  0  0  0  0  0  0  0  0  0  0  0
   -0.8848   -0.0688    1.0804 N   0  0  0  0  0  0  0  0  0  0  0  0
    0.3737   -0.6023    0.5026 C   0  0  2  0  0  0  0  0  0  0  0  0
    0.7333    0.2448   -0.7459 C   0  0  0  0  0  0  0  0  0  0  0  0
    1.0333   -0.2465   -1.8265 O   0  0  0  0  0  0  0  0  0  0  0  0
    0.3018   -2.0960    0.1130 C   0  0  0  0  0  0  0  0  0  0  0  0
   -1.2192    0.7991    0.6684 H   0  0  0  0  0  0  0  0  0  0  0  0
    1.1796   -0.4812    1.2332 H   0  0  0  0  0  0  0  0  0  0  0  0
   -0.5694   -2.2869   -0.5216 H   0  0  0  0  0  0  0  0  0  0  0  0
    1.2016   -2.3955   -0.4339 H   0  0  0  0  0  0  0  0  0  0  0  0
    0.2424   -2.7333    0.9988 H   0  0  0  0  0  0  0  0  0  0  0  0
    0.6396    1.6222   -0.6589 N   0  0  0  0  0  0  0  0  0  0  0  0
    0.9720    2.5545   -1.7438 C   0  0  2  0  0  0  0  0  0  0  0  0
    1.4108    3.9228   -1.1815 C   0  0  0  0  0  0  0  0  0  0  0  0
    1.2756    4.1622    0.0143 O   0  0  0  0  0  0  0  0  0  0  0  0
   -0.2570    2.7118   -2.6459 C   0  0  0  0  0  0  0  0  0  0  0  0
    0.5962    2.0249    0.2779 H   0  0  0  0  0  0  0  0  0  0  0  0
    1.8062    2.1560   -2.3313 H   0  0  0  0  0  0  0  0  0  0  0  0
   -1.0985    3.1223   -2.0789 H   0  0  0  0  0  0  0  0  0  0  0  0
   -0.0382    3.3839   -3.4806 H   0  0  0  0  0  0  0  0  0  0  0  0
   -0.5537    1.7414   -3.0563 H   0  0  0  0  0  0  0  0  0  0  0  0
    1.9639    4.8817   -2.0095 N   0  0  0  0  0  0  0  0  0  0  0  0
    2.4018    6.1902   -1.5386 C   0  0  0  0  0  0  0  0  0  0  0  0
    2.0769    4.6487   -2.9921 H   0  0  0  0  0  0  0  0  0  0  0  0
    1.5710    6.7271   -1.0687 H   0  0  0  0  0  0  0  0  0  0  0  0
    3.2105    6.0838   -0.8080 H   0  0  0  0  0  0  0  0  0  0  0  0
    2.7694    6.7903   -2.3765 H   0  0  0  0  0  0  0  0  0  0  0  0
  1  2  2  0  0  0  0
  1  3  1  0  0  0  0
  1  7  1  0  0  0  0
  3  4  1  0  0  0  0
  3  5  1  0  0  0  0
  3  6  1  0  0  0  0
  7  8  1  0  0  0  0
  7 12  1  0  0  0  0
  8  9  1  0  0  0  0
  8 11  1  0  0  0  0
  8 13  1  0  0  0  0
  9 10  2  0  0  0  0
  9 17  1  0  0  0  0
 11 14  1  0  0  0  0
 11 15  1  0  0  0  0
 11 16  1  0  0  0  0
 17 18  1  0  0  0  0
 17 22  1  0  0  0  0
 18 19  1  0  0  0  0
 18 21  1  0  0  0  0
 18 23  1  0  0  0  0
 19 20  2  0  0  0  0
 19 27  1  0  0  0  0
 21 24  1  0  0  0  0
 21 25  1  0  0  0  0
 21 26  1  0  0  0  0
 27 28  1  0  0  0  0
 27 32  1  0  0  0  0
 28 29  1  0  0  0  0
 28 31  1  0  0  0  0
 28 33  1  0  0  0  0
 29 30  2  0  0  0  0
 29 37  1  0  0  0  0
 31 34  1  0  0  0  0
 31 35  1  0  0  0  0
 31 36  1  0  0  0  0
 37 38  1  0  0  0  0
 37 39  1  0  0  0  0
 38 40  1  0  0  0  0
 38 41  1  0  0  0  0
 38 42  1  0  0  0  0
M  END
$$$$

  -OEChem-05262215353D

 42 41  0     1  0  0  0  0  0999 V2000
   -5.5947   -1.1624    1.9929 C   0  0  0  0  0  0  0  0  0  0  0  0
   -6.0610   -0.2263    1.3627 O   0  0  0  0  0  0  0  0  0  0  0  0
   -6.4836   -2.3200    2.4076 C   0  0  0  0  0  0  0  0  0  0  0  0
   -6.5161   -2.3943    3.4972 H   0  0  0  0  0  0  0  0  0  0  0  0
   -7.5001   -2.1670    2.0343 H   0  0  0  0  0  0  0  0  0  0  0  0
   -6.0952   -3.2551    1.9971 H   0  0  0  0  0  0  0  0  0  0  0  0
   -4.2554   -1.1716    2.3205 N   0  0  0  0  0  0  0  0  0  0  0  0
   -3.2805   -0.1803    1.8487 C   0  0  2  0  0  0  0  0  0  0  0  0
   -1.8715   -0.7924    1.6910 C   0  0  0  0  0  0  0  0  0  0  0  0
   -1.6243   -1.8715    2.2149 O   0  0  0  0  0  0  0  0  0  0  0  0
   -3.2582    0.9848    2.8436 C   0  0  0  0  0  0  0  0  0  0  0  0
   -3.8784   -2.0205    2.7415 H   0  0  0  0  0  0  0  0  0  0  0  0
   -3.5849    0.1919    0.8644 H   0  0  0  0  0  0  0  0  0  0  0  0
   -2.9517    0.6349    3.8346 H   0  0  0  0  0  0  0  0  0  0  0  0
   -2.5595    1.7601    2.5156 H   0  0  0  0  0  0  0  0  0  0  0  0
   -4.2538    1.4328    2.9248 H   0  0  0  0  0  0  0  0  0  0  0  0
   -0.8962   -0.0788    1.0114 N   0  0  0  0  0  0  0  0  0  0  0  0
    0.3941   -0.5714    0.4749 C   0  0  2  0  0  0  0  0  0  0  0  0
    0.7540    0.2813   -0.7670 C   0  0  0  0  0  0  0  0  0  0  0  0
    0.8451   -0.1818   -1.8967 O   0  0  0  0  0  0  0  0  0  0  0  0
    0.3885   -2.0671    0.0922 C   0  0  0  0  0  0  0  0  0  0  0  0
   -1.2358    0.7899    0.6053 H   0  0  0  0  0  0  0  0  0  0  0  0
    1.1743   -0.4197    1.2269 H   0  0  0  0  0  0  0  0  0  0  0  0
   -0.4720   -2.3002   -0.5430 H   0  0  0  0  0  0  0  0  0  0  0  0
    1.3016   -2.3265   -0.4530 H   0  0  0  0  0  0  0  0  0  0  0  0
    0.3540   -2.7004    0.9824 H   0  0  0  0  0  0  0  0  0  0  0  0
    0.9114    1.6446   -0.6025 N   0  0  0  0  0  0  0  0  0  0  0  0
    1.3305    2.5728   -1.6608 C   0  0  2  0  0  0  0  0  0  0  0  0
    2.0950    3.7763   -1.0704 C   0  0  0  0  0  0  0  0  0  0  0  0
    2.0646    3.9850    0.1382 O   0  0  0  0  0  0  0  0  0  0  0  0
    0.0849    3.0439   -2.4186 C   0  0  0  0  0  0  0  0  0  0  0  0
    0.9804    1.9934    0.3542 H   0  0  0  0  0  0  0  0  0  0  0  0
    2.0063    2.0621   -2.3554 H   0  0  0  0  0  0  0  0  0  0  0  0
   -0.6015    3.5629   -1.7422 H   0  0  0  0  0  0  0  0  0  0  0  0
    0.3613    3.7279   -3.2265 H   0  0  0  0  0  0  0  0  0  0  0  0
   -0.4380    2.1881   -2.8573 H   0  0  0  0  0  0  0  0  0  0  0  0
    2.8314    4.6143   -1.8868 N   0  0  0  0  0  0  0  0  0  0  0  0
    3.5965    5.7498   -1.3857 C   0  0  0  0  0  0  0  0  0  0  0  0
    2.8540    4.4048   -2.8807 H   0  0  0  0  0  0  0  0  0  0  0  0
    2.9328    6.4763   -0.9051 H   0  0  0  0  0  0  0  0  0  0  0  0
    4.3436    5.4180   -0.6567 H   0  0  0  0  0  0  0  0  0  0  0  0
    4.1166    6.2488   -2.2089 H   0  0  0  0  0  0  0  0  0  0  0  0
  1  2  2  0  0  0  0
  1  3  1  0  0  0  0
  1  7  1  0  0  0  0
  3  4  1  0  0  0  0
  3  5  1  0  0  0  0
  3  6  1  0  0  0  0
  7  8  1  0  0  0  0
  7 12  1  0  0  0  0
  8  9  1  0  0  0  0
  8 11  1  0  0  0  0
  8 13  1  0  0  0  0
  9 10  2  0  0  0  0
  9 17  1  0  0  0  0
 11 14  1  0  0  0  0
 11 15  1  0  0  0  0
 11 16  1  0  0  0  0
 17 18  1  0  0  0  0
 17 22  1  0  0  0  0
 18 19  1  0  0  0  0
 18 21  1  0  0  0  0
 18 23  1  0  0  0  0
 19 20  2  0  0  0  0
 19 27  1  0  0  0  0
 21 24  1  0  0  0  0
 21 25  1  0  0  0  0
 21 26  1  0  0  0  0
 27 28  1  0  0  0  0
 27 32  1  0  0  0  0
 28 29  1  0  0  0  0
 28 31  1  0  0  0  0
 28 33  1  0  0  0  0
 29 30  2  0  0  0  0
 29 37  1  0  0  0  0
 31 34  1  0  0  0  0
 31 35  1  0  0  0  0
 31 36  1  0  0  0  0
 37 38  1  0  0  0  0
 37 39  1  0  0  0  0
 38 40  1  0  0  0  0
 38 41  1  0  0  0  0
 38 42  1  0  0  0  0
M  END
$$$$

  -OEChem-05262215353D

 42 41  0     1  0  0  0  0  0999 V2000
   -5.5824   -1.1237    1.9197 C   0  0  0  0  0  0  0  0  0  0  0  0
   -6.0263   -0.1540    1.3250 O   0  0  0  0  0  0  0  0  0  0  0  0
   -6.4834   -2.3040    2.2312 C   0  0  0  0  0  0  0  0  0  0  0  0
   -6.5788   -2.4247    3.3130 H   0  0  0  0  0  0  0  0  0  0  0  0
   -7.4777   -2.1432    1.8051 H   0  0  0  0  0  0  0  0  0  0  0  0
   -6.0626   -3.2181    1.8051 H   0  0  0  0  0  0  0  0  0  0  0  0
   -4.2577   -1.1522    2.3013 N   0  0  0  0  0  0  0  0  0  0  0  0
   -3.2619   -0.1442    1.9159 C   0  0  2  0  0  0  0  0  0  0  0  0
   -1.8563   -0.7625    1.7539 C   0  0  0  0  0  0  0  0  0  0  0  0
   -1.6172   -1.8489    2.2670 O   0  0  0  0  0  0  0  0  0  0  0  0
   -3.2501    0.9550    2.9828 C   0  0  0  0  0  0  0  0  0  0  0  0
   -3.9000   -2.0223    2.6946 H   0  0  0  0  0  0  0  0  0  0  0  0
   -3.5380    0.2935    0.9505 H   0  0  0  0  0  0  0  0  0  0  0  0
   -2.9705    0.5400    3.9564 H   0  0  0  0  0  0  0  0  0  0  0  0
   -2.5350    1.7400    2.7203 H   0  0  0  0  0  0  0  0  0  0  0  0
   -4.2425    1.4090    3.0697 H   0  0  0  0  0  0  0  0  0  0  0  0
   -0.8763   -0.0530    1.0767 N   0  0  0  0  0  0  0  0  0  0  0  0
    0.4034   -0.5620    0.5329 C   0  0  2  0  0  0  0  0  0  0  0  0
    0.7771    0.2893   -0.7040 C   0  0  0  0  0  0  0  0  0  0  0  0
    0.5529   -0.0820   -1.8491 O   0  0  0  0  0  0  0  0  0  0  0  0
    0.3732   -2.0509    0.1287 C   0  0  0  0  0  0  0  0  0  0  0  0
   -1.2081    0.8189    0.6710 H   0  0  0  0  0  0  0  0  0  0  0  0
    1.1884   -0.4346    1.2846 H   0  0  0  0  0  0  0  0  0  0  0  0
   -0.5096   -2.2690   -0.4808 H   0  0  0  0  0  0  0  0  0  0  0  0
    1.2655   -2.3069   -0.4515 H   0  0  0  0  0  0  0  0  0  0  0  0
    0.3617   -2.6956    1.0118 H   0  0  0  0  0  0  0  0  0  0  0  0
    1.2655    1.5679   -0.5126 N   0  0  0  0  0  0  0  0  0  0  0  0
    1.6971    2.4667   -1.5915 C   0  0  2  0  0  0  0  0  0  0  0  0
    2.8133    3.4212   -1.1170 C   0  0  0  0  0  0  0  0  0  0  0  0
    3.0709    3.5154    0.0784 O   0  0  0  0  0  0  0  0  0  0  0  0
    0.4807    3.2614   -2.0771 C   0  0  0  0  0  0  0  0  0  0  0  0
    1.5497    1.8260    0.4330 H   0  0  0  0  0  0  0  0  0  0  0  0
    2.1013    1.8786   -2.4224 H   0  0  0  0  0  0  0  0  0  0  0  0
    0.0617    3.8567   -1.2597 H   0  0  0  0  0  0  0  0  0  0  0  0
    0.7608    3.9360   -2.8914 H   0  0  0  0  0  0  0  0  0  0  0  0
   -0.2936    2.5817   -2.4463 H   0  0  0  0  0  0  0  0  0  0  0  0
    3.5337    4.1706   -2.0290 N   0  0  0  0  0  0  0  0  0  0  0  0
    4.6014    5.0874   -1.6474 C   0  0  0  0  0  0  0  0  0  0  0  0
    3.3064    4.0625   -3.0133 H   0  0  0  0  0  0  0  0  0  0  0  0
    4.2134    5.8768   -0.9949 H   0  0  0  0  0  0  0  0  0  0  0  0
    5.3965    4.5517   -1.1182 H   0  0  0  0  0  0  0  0  0  0  0  0
    5.0344    5.5560   -2.5366 H   0  0  0  0  0  0  0  0  0  0  0  0
  1  2  2  0  0  0  0
  1  3  1  0  0  0  0
  1  7  1  0  0  0  0
  3  4  1  0  0  0  0
  3  5  1  0  0  0  0
  3  6  1  0  0  0  0
  7  8  1  0  0  0  0
  7 12  1  0  0  0  0
  8  9  1  0  0  0  0
  8 11  1  0  0  0  0
  8 13  1  0  0  0  0
  9 10  2  0  0  0  0
  9 17  1  0  0  0  0
 11 14  1  0  0  0  0
 11 15  1  0  0  0  0
 11 16  1  0  0  0  0
 17 18  1  0  0  0  0
 17 22  1  0  0  0  0
 18 19  1  0  0  0  0
 18 21  1  0  0  0  0
 18 23  1  0  0  0  0
 19 20  2  0  0  0  0
 19 27  1  0  0  0  0
 21 24  1  0  0  0  0
 21 25  1  0  0  0  0
 21 26  1  0  0  0  0
 27 28  1  0  0  0  0
 27 32  1  0  0  0  0
 28 29  1  0  0  0  0
 28 31  1  0  0  0  0
 28 33  1  0  0  0  0
 29 30  2  0  0  0  0
 29 37  1  0  0  0  0
 31 34  1  0  0  0  0
 31 35  1  0  0  0  0
 31 36  1  0  0  0  0
 37 38  1  0  0  0  0
 37 39  1  0  0  0  0
 38 40  1  0  0  0  0
 38 41  1  0  0  0  0
 38 42  1  0  0  0  0
M  END
$$$$

  -OEChem-05262215353D

 42 41  0     1  0  0  0  0  0999 V2000
   -5.5754   -1.1583    1.9260 C   0  0  0  0  0  0  0  0  0  0  0  0
   -6.0385   -0.2211    1.2953 O   0  0  0  0  0  0  0  0  0  0  0  0
   -6.4535   -2.3416    2.2865 C   0  0  0  0  0  0  0  0  0  0  0  0
   -6.5031   -2.4527    3.3724 H   0  0  0  0  0  0  0  0  0  0  0  0
   -7.4659   -2.1912    1.9011 H   0  0  0  0  0  0  0  0  0  0  0  0
   -6.0435   -3.2561    1.8512 H   0  0  0  0  0  0  0  0  0  0  0  0
   -4.2493   -1.1490    2.3023 N   0  0  0  0  0  0  0  0  0  0  0  0
   -3.2726   -0.1415    1.8703 C   0  0  2  0  0  0  0  0  0  0  0  0
   -1.8511   -0.7353    1.7659 C   0  0  0  0  0  0  0  0  0  0  0  0
   -1.6037   -1.8039    2.3120 O   0  0  0  0  0  0  0  0  0  0  0  0
   -3.3018    1.0221    2.8660 C   0  0  0  0  0  0  0  0  0  0  0  0
   -3.8741   -1.9985    2.7235 H   0  0  0  0  0  0  0  0  0  0  0  0
   -3.5452    0.2290    0.8762 H   0  0  0  0  0  0  0  0  0  0  0  0
   -3.0257    0.6761    3.8672 H   0  0  0  0  0  0  0  0  0  0  0  0
   -2.6022    1.8060    2.5615 H   0  0  0  0  0  0  0  0  0  0  0  0
   -4.3055    1.4568    2.9122 H   0  0  0  0  0  0  0  0  0  0  0  0
   -0.8606   -0.0254    1.1069 N   0  0  0  0  0  0  0  0  0  0  0  0
    0.4087   -0.5570    0.5650 C   0  0  2  0  0  0  0  0  0  0  0  0
    0.8108    0.3003   -0.6558 C   0  0  0  0  0  0  0  0  0  0  0  0
    0.3039    0.1204   -1.7557 O   0  0  0  0  0  0  0  0  0  0  0  0
    0.3368   -2.0290    0.1099 C   0  0  0  0  0  0  0  0  0  0  0  0
   -1.1999    0.8215    0.6564 H   0  0  0  0  0  0  0  0  0  0  0  0
    1.1898   -0.4715    1.3267 H   0  0  0  0  0  0  0  0  0  0  0  0
   -0.5426   -2.1961   -0.5205 H   0  0  0  0  0  0  0  0  0  0  0  0
    1.2295   -2.2932   -0.4658 H   0  0  0  0  0  0  0  0  0  0  0  0
    0.2884   -2.7040    0.9686 H   0  0  0  0  0  0  0  0  0  0  0  0
    1.6059    1.4152   -0.4744 N   0  0  0  0  0  0  0  0  0  0  0  0
    2.0439    2.3115   -1.5524 C   0  0  2  0  0  0  0  0  0  0  0  0
    3.4189    2.9382   -1.2408 C   0  0  0  0  0  0  0  0  0  0  0  0
    3.8948    2.8436   -0.1144 O   0  0  0  0  0  0  0  0  0  0  0  0
    0.9847    3.4032   -1.7355 C   0  0  0  0  0  0  0  0  0  0  0  0
    2.0837    1.5149    0.4216 H   0  0  0  0  0  0  0  0  0  0  0  0
    2.1461    1.7462   -2.4851 H   0  0  0  0  0  0  0  0  0  0  0  0
    0.8724    3.9853   -0.8153 H   0  0  0  0  0  0  0  0  0  0  0  0
    1.2678    4.0820   -2.5453 H   0  0  0  0  0  0  0  0  0  0  0  0
    0.0177    2.9557   -1.9855 H   0  0  0  0  0  0  0  0  0  0  0  0
    4.1271    3.6012   -2.2258 N   0  0  0  0  0  0  0  0  0  0  0  0
    5.4416    4.1922   -2.0063 C   0  0  0  0  0  0  0  0  0  0  0  0
    3.7234    3.6318   -3.1577 H   0  0  0  0  0  0  0  0  0  0  0  0
    5.4169    4.8802   -1.1547 H   0  0  0  0  0  0  0  0  0  0  0  0
    6.1837    3.4120   -1.8073 H   0  0  0  0  0  0  0  0  0  0  0  0
    5.7565    4.7534   -2.8911 H   0  0  0  0  0  0  0  0  0  0  0  0
  1  2  2  0  0  0  0
  1  3  1  0  0  0  0
  1  7  1  0  0  0  0
  3  4  1  0  0  0  0
  3  5  1  0  0  0  0
  3  6  1  0  0  0  0
  7  8  1  0  0  0  0
  7 12  1  0  0  0  0
  8  9  1  0  0  0  0
  8 11  1  0  0  0  0
  8 13  1  0  0  0  0
  9 10  2  0  0  0  0
  9 17  1  0  0  0  0
 11 14  1  0  0  0  0
 11 15  1  0  0  0  0
 11 16  1  0  0  0  0
 17 18  1  0  0  0  0
 17 22  1  0  0  0  0
 18 19  1  0  0  0  0
 18 21  1  0  0  0  0
 18 23  1  0  0  0  0
 19 20  2  0  0  0  0
 19 27  1  0  0  0  0
 21 24  1  0  0  0  0
 21 25  1  0  0  0  0
 21 26  1  0  0  0  0
 27 28  1  0  0  0  0
 27 32  1  0  0  0  0
 28 29  1  0  0  0  0
 28 31  1  0  0  0  0
 28 33  1  0  0  0  0
 29 30  2  0  0  0  0
 29 37  1  0  0  0  0
 31 34  1  0  0  0  0
 31 35  1  0  0  0  0
 31 36  1  0  0  0  0
 37 38  1  0  0  0  0
 37 39  1  0  0  0  0
 38 40  1  0  0  0  0
 38 41  1  0  0  0  0
 38 42  1  0  0  0  0
M  END
$$$$

  -OEChem-05262215353D

 42 41  0     1  0  0  0  0  0999 V2000
   -5.5653   -1.1572    1.9095 C   0  0  0  0  0  0  0  0  0  0  0  0
   -6.0270   -0.2156    1.2843 O   0  0  0  0  0  0  0  0  0  0  0  0
   -6.4429   -2.3466    2.2510 C   0  0  0  0  0  0  0  0  0  0  0  0
   -6.5317   -2.4453    3.3356 H   0  0  0  0  0  0  0  0  0  0  0  0
   -7.4415   -2.2123    1.8255 H   0  0  0  0  0  0  0  0  0  0  0  0
   -6.0068   -3.2617    1.8429 H   0  0  0  0  0  0  0  0  0  0  0  0
   -4.2426   -1.1460    2.2981 N   0  0  0  0  0  0  0  0  0  0  0  0
   -3.2662   -0.1285    1.8885 C   0  0  2  0  0  0  0  0  0  0  0  0
   -1.8408   -0.7154    1.7974 C   0  0  0  0  0  0  0  0  0  0  0  0
   -1.5918   -1.7830    2.3458 O   0  0  0  0  0  0  0  0  0  0  0  0
   -3.3151    1.0246    2.8962 C   0  0  0  0  0  0  0  0  0  0  0  0
   -3.8675   -1.9969    2.7165 H   0  0  0  0  0  0  0  0  0  0  0  0
   -3.5274    0.2504    0.8944 H   0  0  0  0  0  0  0  0  0  0  0  0
   -3.0445    0.6707    3.8962 H   0  0  0  0  0  0  0  0  0  0  0  0
   -2.6207    1.8192    2.6072 H   0  0  0  0  0  0  0  0  0  0  0  0
   -4.3238    1.4480    2.9374 H   0  0  0  0  0  0  0  0  0  0  0  0
   -0.8475   -0.0037    1.1455 N   0  0  0  0  0  0  0  0  0  0  0  0
    0.4179   -0.5410    0.6029 C   0  0  2  0  0  0  0  0  0  0  0  0
    0.8300    0.3189   -0.6106 C   0  0  0  0  0  0  0  0  0  0  0  0
    0.1309    0.3492   -1.6158 O   0  0  0  0  0  0  0  0  0  0  0  0
    0.3351   -2.0025    0.1205 C   0  0  0  0  0  0  0  0  0  0  0  0
   -1.1916    0.8289    0.6712 H   0  0  0  0  0  0  0  0  0  0  0  0
    1.1951   -0.4724    1.3702 H   0  0  0  0  0  0  0  0  0  0  0  0
   -0.5447   -2.1510   -0.5140 H   0  0  0  0  0  0  0  0  0  0  0  0
    1.2264   -2.2639   -0.4588 H   0  0  0  0  0  0  0  0  0  0  0  0
    0.2796   -2.6918    0.9675 H   0  0  0  0  0  0  0  0  0  0  0  0
    1.8640    1.2274   -0.4988 N   0  0  0  0  0  0  0  0  0  0  0  0
    2.3360    2.0860   -1.5926 C   0  0  2  0  0  0  0  0  0  0  0  0
    3.8524    2.3496   -1.4841 C   0  0  0  0  0  0  0  0  0  0  0  0
    4.4540    2.0549   -0.4567 O   0  0  0  0  0  0  0  0  0  0  0  0
    1.5528    3.4019   -1.5468 C   0  0  0  0  0  0  0  0  0  0  0  0
    2.4807    1.1436    0.3096 H   0  0  0  0  0  0  0  0  0  0  0  0
    2.1583    1.5923   -2.5541 H   0  0  0  0  0  0  0  0  0  0  0  0
    1.7268    3.9180   -0.5972 H   0  0  0  0  0  0  0  0  0  0  0  0
    1.8596    4.0610   -2.3642 H   0  0  0  0  0  0  0  0  0  0  0  0
    0.4802    3.2086   -1.6467 H   0  0  0  0  0  0  0  0  0  0  0  0
    4.5474    2.9054   -2.5422 N   0  0  0  0  0  0  0  0  0  0  0  0
    5.9820    3.1645   -2.5090 C   0  0  0  0  0  0  0  0  0  0  0  0
    4.0286    3.1141   -3.3904 H   0  0  0  0  0  0  0  0  0  0  0  0
    6.2315    3.8365   -1.6810 H   0  0  0  0  0  0  0  0  0  0  0  0
    6.5382    2.2293   -2.3838 H   0  0  0  0  0  0  0  0  0  0  0  0
    6.3031    3.6358   -3.4430 H   0  0  0  0  0  0  0  0  0  0  0  0
  1  2  2  0  0  0  0
  1  3  1  0  0  0  0
  1  7  1  0  0  0  0
  3  4  1  0  0  0  0
  3  5  1  0  0  0  0
  3  6  1  0  0  0  0
  7  8  1  0  0  0  0
  7 12  1  0  0  0  0
  8  9  1  0  0  0  0
  8 11  1  0  0  0  0
  8 13  1  0  0  0  0
  9 10  2  0  0  0  0
  9 17  1  0  0  0  0
 11 14  1  0  0  0  0
 11 15  1  0  0  0  0
 11 16  1  0  0  0  0
 17 18  1  0  0  0  0
 17 22  1  0  0  0  0
 18 19  1  0  0  0  0
 18 21  1  0  0  0  0
 18 23  1  0  0  0  0
 19 20  2  0  0  0  0
 19 27  1  0  0  0  0
 21 24  1  0  0  0  0
 21 25  1  0  0  0  0
 21 26  1  0  0  0  0
 27 28  1  0  0  0  0
 27 32  1  0  0  0  0
 28 29  1  0  0  0  0
 28 31  1  0  0  0  0
 28 33  1  0  0  0  0
 29 30  2  0  0  0  0
 29 37  1  0  0  0  0
 31 34  1  0  0  0  0
 31 35  1  0  0  0  0
 31 36  1  0  0  0  0
 37 38  1  0  0  0  0
 37 39  1  0  0  0  0
 38 40  1  0  0  0  0
 38 41  1  0  0  0  0
 38 42  1  0  0  0  0
M  END
$$$$

  -OEChem-05262215353D

 42 41  0     1  0  0  0  0  0999 V2000
   -5.5588   -1.1712    1.9177 C   0  0  0  0  0  0  0  0  0  0  0  0
   -6.0272   -0.2595    1.2545 O   0  0  0  0  0  0  0  0  0  0  0  0
   -6.4255   -2.3543    2.3046 C   0  0  0  0  0  0  0  0  0  0  0  0
   -6.5256   -2.4045    3.3916 H   0  0  0  0  0  0  0  0  0  0  0  0
   -7.4205   -2.2523    1.8625 H   0  0  0  0  0  0  0  0  0  0  0  0
   -5.9735   -3.2813    1.9440 H   0  0  0  0  0  0  0  0  0  0  0  0
   -4.2377   -1.1340    2.3088 N   0  0  0  0  0  0  0  0  0  0  0  0
   -3.2676   -0.1256    1.8643 C   0  0  2  0  0  0  0  0  0  0  0  0
   -1.8382   -0.7062    1.8028 C   0  0  0  0  0  0  0  0  0  0  0  0
   -1.5932   -1.7709    2.3594 O   0  0  0  0  0  0  0  0  0  0  0  0
   -3.3281    1.0643    2.8274 C   0  0  0  0  0  0  0  0  0  0  0  0
   -3.8566   -1.9672    2.7561 H   0  0  0  0  0  0  0  0  0  0  0  0
   -3.5267    0.2132    0.8551 H   0  0  0  0  0  0  0  0  0  0  0  0
   -3.0580    0.7500    3.8405 H   0  0  0  0  0  0  0  0  0  0  0  0
   -2.6384    1.8521    2.5103 H   0  0  0  0  0  0  0  0  0  0  0  0
   -4.3396    1.4823    2.8499 H   0  0  0  0  0  0  0  0  0  0  0  0
   -0.8356    0.0038    1.1649 N   0  0  0  0  0  0  0  0  0  0  0  0
    0.4248   -0.5452    0.6244 C   0  0  2  0  0  0  0  0  0  0  0  0
    0.8589    0.3187   -0.5779 C   0  0  0  0  0  0  0  0  0  0  0  0
    0.0500    0.5934   -1.4565 O   0  0  0  0  0  0  0  0  0  0  0  0
    0.3219   -1.9945    0.1133 C   0  0  0  0  0  0  0  0  0  0  0  0
   -1.1764    0.8264    0.6688 H   0  0  0  0  0  0  0  0  0  0  0  0
    1.1958   -0.4978    1.3994 H   0  0  0  0  0  0  0  0  0  0  0  0
   -0.5479   -2.1106   -0.5415 H   0  0  0  0  0  0  0  0  0  0  0  0
    1.2194   -2.2646   -0.4522 H   0  0  0  0  0  0  0  0  0  0  0  0
    0.2345   -2.6994    0.9448 H   0  0  0  0  0  0  0  0  0  0  0  0
    2.0744    0.9741   -0.5658 N   0  0  0  0  0  0  0  0  0  0  0  0
    2.5792    1.8047   -1.6667 C   0  0  2  0  0  0  0  0  0  0  0  0
    4.1135    1.6995   -1.7931 C   0  0  0  0  0  0  0  0  0  0  0  0
    4.7673    1.1649   -0.9038 O   0  0  0  0  0  0  0  0  0  0  0  0
    2.1556    3.2541   -1.4104 C   0  0  0  0  0  0  0  0  0  0  0  0
    2.7609    0.6781    0.1284 H   0  0  0  0  0  0  0  0  0  0  0  0
    2.1501    1.4648   -2.6156 H   0  0  0  0  0  0  0  0  0  0  0  0
    2.5860    3.6188   -0.4721 H   0  0  0  0  0  0  0  0  0  0  0  0
    2.4918    3.9032   -2.2242 H   0  0  0  0  0  0  0  0  0  0  0  0
    1.0652    3.3233   -1.3440 H   0  0  0  0  0  0  0  0  0  0  0  0
    4.7617    2.1904   -2.9112 N   0  0  0  0  0  0  0  0  0  0  0  0
    6.2045    2.1032   -3.1034 C   0  0  0  0  0  0  0  0  0  0  0  0
    4.1921    2.6079   -3.6416 H   0  0  0  0  0  0  0  0  0  0  0  0
    6.7311    2.6104   -2.2879 H   0  0  0  0  0  0  0  0  0  0  0  0
    6.5253    1.0565   -3.1330 H   0  0  0  0  0  0  0  0  0  0  0  0
    6.4899    2.5789   -4.0468 H   0  0  0  0  0  0  0  0  0  0  0  0
  1  2  2  0  0  0  0
  1  3  1  0  0  0  0
  1  7  1  0  0  0  0
  3  4  1  0  0  0  0
  3  5  1  0  0  0  0
  3  6  1  0  0  0  0
  7  8  1  0  0  0  0
  7 12  1  0  0  0  0
  8  9  1  0  0  0  0
  8 11  1  0  0  0  0
  8 13  1  0  0  0  0
  9 10  2  0  0  0  0
  9 17  1  0  0  0  0
 11 14  1  0  0  0  0
 11 15  1  0  0  0  0
 11 16  1  0  0  0  0
 17 18  1  0  0  0  0
 17 22  1  0  0  0  0
 18 19  1  0  0  0  0
 18 21  1  0  0  0  0
 18 23  1  0  0  0  0
 19 20  2  0  0  0  0
 19 27  1  0  0  0  0
 21 24  1  0  0  0  0
 21 25  1  0  0  0  0
 21 26  1  0  0  0  0
 27 28  1  0  0  0  0
 27 32  1  0  0  0  0
 28 29  1  0  0  0  0
 28 31  1  0  0  0  0
 28 33  1  0  0  0  0
 29 30  2  0  0  0  0
 29 37  1  0  0  0  0
 31 34  1  0  0  0  0
 31 35  1  0  0  0  0
 31 36  1  0  0  0  0
 37 38  1  0  0  0  0
 37 39  1  0  0  0  0
 38 40  1  0  0  0  0
 38 41  1  0  0  0  0
 38 42  1  0  0  0  0
M  END
$$$$

  -OEChem-05262215353D

 42 41  0     1  0  0  0  0  0999 V2000
   -5.5477   -1.1613    1.9193 C   0  0  0  0  0  0  0  0  0  0  0  0
   -6.0101   -0.2573    1.2414 O   0  0  0  0  0  0  0  0  0  0  0  0
   -6.4192   -2.3380    2.3154 C   0  0  0  0  0  0  0  0  0  0  0  0
   -6.5433   -2.3606    3.4007 H   0  0  0  0  0  0  0  0  0  0  0  0
   -7.4045   -2.2517    1.8488 H   0  0  0  0  0  0  0  0  0  0  0  0
   -5.9565   -3.2723    1.9888 H   0  0  0  0  0  0  0  0  0  0  0  0
   -4.2301   -1.1200    2.3215 N   0  0  0  0  0  0  0  0  0  0  0  0
   -3.2542   -0.1204    1.8693 C   0  0  2  0  0  0  0  0  0  0  0  0
   -1.8266   -0.7073    1.8198 C   0  0  0  0  0  0  0  0  0  0  0  0
   -1.5908   -1.7753    2.3742 O   0  0  0  0  0  0  0  0  0  0  0  0
   -3.3169    1.0819    2.8169 C   0  0  0  0  0  0  0  0  0  0  0  0
   -3.8528   -1.9503    2.7776 H   0  0  0  0  0  0  0  0  0  0  0  0
   -3.5063    0.2069    0.8546 H   0  0  0  0  0  0  0  0  0  0  0  0
   -3.0525    0.7807    3.8355 H   0  0  0  0  0  0  0  0  0  0  0  0
   -2.6249    1.8648    2.4926 H   0  0  0  0  0  0  0  0  0  0  0  0
   -4.3278    1.5016    2.8290 H   0  0  0  0  0  0  0  0  0  0  0  0
   -0.8156   -0.0032    1.1889 N   0  0  0  0  0  0  0  0  0  0  0  0
    0.4429   -0.5566    0.6492 C   0  0  2  0  0  0  0  0  0  0  0  0
    0.8915    0.3082   -0.5478 C   0  0  0  0  0  0  0  0  0  0  0  0
    0.0527    0.7970   -1.2972 O   0  0  0  0  0  0  0  0  0  0  0  0
    0.3281   -1.9995    0.1239 C   0  0  0  0  0  0  0  0  0  0  0  0
   -1.1460    0.8223    0.6886 H   0  0  0  0  0  0  0  0  0  0  0  0
    1.2106   -0.5194    1.4279 H   0  0  0  0  0  0  0  0  0  0  0  0
   -0.5357   -2.0985   -0.5416 H   0  0  0  0  0  0  0  0  0  0  0  0
    1.2286   -2.2760   -0.4338 H   0  0  0  0  0  0  0  0  0  0  0  0
    0.2222   -2.7104    0.9480 H   0  0  0  0  0  0  0  0  0  0  0  0
    2.2098    0.6990   -0.6763 N   0  0  0  0  0  0  0  0  0  0  0  0
    2.7350    1.4783   -1.8048 C   0  0  2  0  0  0  0  0  0  0  0  0
    4.1766    1.0538   -2.1555 C   0  0  0  0  0  0  0  0  0  0  0  0
    4.8061    0.3316   -1.3897 O   0  0  0  0  0  0  0  0  0  0  0  0
    2.6798    2.9631   -1.4323 C   0  0  0  0  0  0  0  0  0  0  0  0
    2.9008    0.2108   -0.1059 H   0  0  0  0  0  0  0  0  0  0  0  0
    2.1194    1.3066   -2.6944 H   0  0  0  0  0  0  0  0  0  0  0  0
    3.3014    3.1608   -0.5531 H   0  0  0  0  0  0  0  0  0  0  0  0
    3.0389    3.5816   -2.2602 H   0  0  0  0  0  0  0  0  0  0  0  0
    1.6505    3.2583   -1.2047 H   0  0  0  0  0  0  0  0  0  0  0  0
    4.7637    1.4643   -3.3380 N   0  0  0  0  0  0  0  0  0  0  0  0
    6.1108    1.0761   -3.7383 C   0  0  0  0  0  0  0  0  0  0  0  0
    4.2076    2.0356   -3.9678 H   0  0  0  0  0  0  0  0  0  0  0  0
    6.8400    1.3873   -2.9829 H   0  0  0  0  0  0  0  0  0  0  0  0
    6.1753   -0.0098   -3.8638 H   0  0  0  0  0  0  0  0  0  0  0  0
    6.3751    1.5505   -4.6882 H   0  0  0  0  0  0  0  0  0  0  0  0
  1  2  2  0  0  0  0
  1  3  1  0  0  0  0
  1  7  1  0  0  0  0
  3  4  1  0  0  0  0
  3  5  1  0  0  0  0
  3  6  1  0  0  0  0
  7  8  1  0  0  0  0
  7 12  1  0  0  0  0
  8  9  1  0  0  0  0
  8 11  1  0  0  0  0
  8 13  1  0  0  0  0
  9 10  2  0  0  0  0
  9 17  1  0  0  0  0
 11 14  1  0  0  0  0
 11 15  1  0  0  0  0
 11 16  1  0  0  0  0
 17 18  1  0  0  0  0
 17 22  1  0  0  0  0
 18 19  1  0  0  0  0
 18 21  1  0  0  0  0
 18 23  1  0  0  0  0
 19 20  2  0  0  0  0
 19 27  1  0  0  0  0
 21 24  1  0  0  0  0
 21 25  1  0  0  0  0
 21 26  1  0  0  0  0
 27 28  1  0  0  0  0
 27 32  1  0  0  0  0
 28 29  1  0  0  0  0
 28 31  1  0  0  0  0
 28 33  1  0  0  0  0
 29 30  2  0  0  0  0
 29 37  1  0  0  0  0
 31 34  1  0  0  0  0
 31 35  1  0  0  0  0
 31 36  1  0  0  0  0
 37 38  1  0  0  0  0
 37 39  1  0  0  0  0
 38 40  1  0  0  0  0
 38 41  1  0  0  0  0
 38 42  1  0  0  0  0
M  END
$$$$

  -OEChem-05262215353D

 42 41  0     1  0  0  0  0  0999 V2000
   -5.5379   -1.1171    1.9028 C   0  0  0  0  0  0  0  0  0  0  0  0
   -5.9743   -0.1913    1.2372 O   0  0  0  0  0  0  0  0  0  0  0  0
   -6.4306   -2.2961    2.2414 C   0  0  0  0  0  0  0  0  0  0  0  0
   -6.5882   -2.3469    3.3215 H   0  0  0  0  0  0  0  0  0  0  0  0
   -7.4003   -2.1873    1.7475 H   0  0  0  0  0  0  0  0  0  0  0  0
   -5.9664   -3.2258    1.9029 H   0  0  0  0  0  0  0  0  0  0  0  0
   -4.2284   -1.1028    2.3340 N   0  0  0  0  0  0  0  0  0  0  0  0
   -3.2296   -0.1103    1.9155 C   0  0  2  0  0  0  0  0  0  0  0  0
   -1.8155   -0.7257    1.8334 C   0  0  0  0  0  0  0  0  0  0  0  0
   -1.5960   -1.8090    2.3640 O   0  0  0  0  0  0  0  0  0  0  0  0
   -3.2596    1.0533    2.9113 C   0  0  0  0  0  0  0  0  0  0  0  0
   -3.8721   -1.9476    2.7801 H   0  0  0  0  0  0  0  0  0  0  0  0
   -3.4787    0.2647    0.9167 H   0  0  0  0  0  0  0  0  0  0  0  0
   -3.0021    0.7040    3.9164 H   0  0  0  0  0  0  0  0  0  0  0  0
   -2.5467    1.8298    2.6176 H   0  0  0  0  0  0  0  0  0  0  0  0
   -4.2594    1.4985    2.9425 H   0  0  0  0  0  0  0  0  0  0  0  0
   -0.7993   -0.0268    1.2046 N   0  0  0  0  0  0  0  0  0  0  0  0
    0.4690   -0.5696    0.6761 C   0  0  2  0  0  0  0  0  0  0  0  0
    0.9217    0.2917   -0.5233 C   0  0  0  0  0  0  0  0  0  0  0  0
    0.0997    0.9469   -1.1561 O   0  0  0  0  0  0  0  0  0  0  0  0
    0.3662   -2.0160    0.1571 C   0  0  0  0  0  0  0  0  0  0  0  0
   -1.1157    0.8139    0.7195 H   0  0  0  0  0  0  0  0  0  0  0  0
    1.2330   -0.5206    1.4582 H   0  0  0  0  0  0  0  0  0  0  0  0
   -0.4967   -2.1237   -0.5081 H   0  0  0  0  0  0  0  0  0  0  0  0
    1.2681   -2.2914   -0.3991 H   0  0  0  0  0  0  0  0  0  0  0  0
    0.2643   -2.7237    0.9845 H   0  0  0  0  0  0  0  0  0  0  0  0
    2.2635    0.4376   -0.8160 N   0  0  0  0  0  0  0  0  0  0  0  0
    2.7791    1.1316   -2.0030 C   0  0  2  0  0  0  0  0  0  0  0  0
    4.0561    0.4480   -2.5355 C   0  0  0  0  0  0  0  0  0  0  0  0
    4.6311   -0.3925   -1.8518 O   0  0  0  0  0  0  0  0  0  0  0  0
    3.0573    2.5909   -1.6297 C   0  0  0  0  0  0  0  0  0  0  0  0
    2.9145   -0.1932   -0.3475 H   0  0  0  0  0  0  0  0  0  0  0  0
    2.0340    1.1003   -2.8052 H   0  0  0  0  0  0  0  0  0  0  0  0
    3.8131    2.6467   -0.8397 H   0  0  0  0  0  0  0  0  0  0  0  0
    3.4192    3.1487   -2.4987 H   0  0  0  0  0  0  0  0  0  0  0  0
    2.1415    3.0710   -1.2703 H   0  0  0  0  0  0  0  0  0  0  0  0
    4.5485    0.7546   -3.7904 N   0  0  0  0  0  0  0  0  0  0  0  0
    5.7315    0.1218   -4.3614 C   0  0  0  0  0  0  0  0  0  0  0  0
    4.0305    1.4261   -4.3498 H   0  0  0  0  0  0  0  0  0  0  0  0
    6.6091    0.3142   -3.7352 H   0  0  0  0  0  0  0  0  0  0  0  0
    5.5865   -0.9607   -4.4418 H   0  0  0  0  0  0  0  0  0  0  0  0
    5.9278    0.5192   -5.3618 H   0  0  0  0  0  0  0  0  0  0  0  0
  1  2  2  0  0  0  0
  1  3  1  0  0  0  0
  1  7  1  0  0  0  0
  3  4  1  0  0  0  0
  3  5  1  0  0  0  0
  3  6  1  0  0  0  0
  7  8  1  0  0  0  0
  7 12  1  0  0  0  0
  8  9  1  0  0  0  0
  8 11  1  0  0  0  0
  8 13  1  0  0  0  0
  9 10  2  0  0  0  0
  9 17  1  0  0  0  0
 11 14  1  0  0  0  0
 11 15  1  0  0  0  0
 11 16  1  0  0  0  0
 17 18  1  0  0  0  0
 17 22  1  0  0  0  0
 18 19  1  0  0  0  0
 18 21  1  0  0  0  0
 18 23  1  0  0  0  0
 19 20  2  0  0  0  0
 19 27  1  0  0  0  0
 21 24  1  0  0  0  0
 21 25  1  0  0  0  0
 21 26  1  0  0  0  0
 27 28  1  0  0  0  0
 27 32  1  0  0  0  0
 28 29  1  0  0  0  0
 28 31  1  0  0  0  0
 28 33  1  0  0  0  0
 29 30  2  0  0  0  0
 29 37  1  0  0  0  0
 31 34  1  0  0  0  0
 31 35  1  0  0  0  0
 31 36  1  0  0  0  0
 37 38  1  0  0  0  0
 37 39  1  0  0  0  0
 38 40  1  0  0  0  0
 38 41  1  0  0  0  0
 38 42  1  0  0  0  0
M  END
$$$$

  -OEChem-05262215353D

 42 41  0     1  0  0  0  0  0999 V2000
   -5.5283   -1.1331    1.9115 C   0  0  0  0  0  0  0  0  0  0  0  0
   -5.9673   -0.2528    1.1886 O   0  0  0  0  0  0  0  0  0  0  0  0
   -6.4100   -2.3018    2.3084 C   0  0  0  0  0  0  0  0  0  0  0  0
   -6.5363   -2.3213    3.3936 H   0  0  0  0  0  0  0  0  0  0  0  0
   -7.3935   -2.2078    1.8398 H   0  0  0  0  0  0  0  0  0  0  0  0
   -5.9542   -3.2408    1.9846 H   0  0  0  0  0  0  0  0  0  0  0  0
   -4.2268   -1.0766    2.3618 N   0  0  0  0  0  0  0  0  0  0  0  0
   -3.2294   -0.1045    1.8960 C   0  0  2  0  0  0  0  0  0  0  0  0
   -1.8192   -0.7312    1.8325 C   0  0  0  0  0  0  0  0  0  0  0  0
   -1.6154   -1.8140    2.3705 O   0  0  0  0  0  0  0  0  0  0  0  0
   -3.2514    1.0982    2.8437 C   0  0  0  0  0  0  0  0  0  0  0  0
   -3.8664   -1.8982    2.8462 H   0  0  0  0  0  0  0  0  0  0  0  0
   -3.4820    0.2306    0.8840 H   0  0  0  0  0  0  0  0  0  0  0  0
   -2.9969    0.7877    3.8620 H   0  0  0  0  0  0  0  0  0  0  0  0
   -2.5328    1.8571    2.5199 H   0  0  0  0  0  0  0  0  0  0  0  0
   -4.2478    1.5514    2.8555 H   0  0  0  0  0  0  0  0  0  0  0  0
   -0.7896   -0.0489    1.2076 N   0  0  0  0  0  0  0  0  0  0  0  0
    0.4776   -0.6038    0.6881 C   0  0  2  0  0  0  0  0  0  0  0  0
    0.9500    0.2485   -0.5129 C   0  0  0  0  0  0  0  0  0  0  0  0
    0.2062    1.0940   -1.0016 O   0  0  0  0  0  0  0  0  0  0  0  0
    0.3575   -2.0557    0.1834 C   0  0  0  0  0  0  0  0  0  0  0  0
   -1.0789    0.8121    0.7404 H   0  0  0  0  0  0  0  0  0  0  0  0
    1.2382   -0.5570    1.4734 H   0  0  0  0  0  0  0  0  0  0  0  0
   -0.5055   -2.1601   -0.4820 H   0  0  0  0  0  0  0  0  0  0  0  0
    1.2555   -2.3533   -0.3670 H   0  0  0  0  0  0  0  0  0  0  0  0
    0.2447   -2.7525    1.0186 H   0  0  0  0  0  0  0  0  0  0  0  0
    2.2437    0.1401   -0.9852 N   0  0  0  0  0  0  0  0  0  0  0  0
    2.7386    0.7908   -2.2051 C   0  0  2  0  0  0  0  0  0  0  0  0
    3.7383   -0.1169   -2.9527 C   0  0  0  0  0  0  0  0  0  0  0  0
    4.1650   -1.1326   -2.4132 O   0  0  0  0  0  0  0  0  0  0  0  0
    3.3984    2.1152   -1.8116 C   0  0  0  0  0  0  0  0  0  0  0  0
    2.7952   -0.6481   -0.6452 H   0  0  0  0  0  0  0  0  0  0  0  0
    1.9056    0.9907   -2.8876 H   0  0  0  0  0  0  0  0  0  0  0  0
    4.2470    1.9361   -1.1438 H   0  0  0  0  0  0  0  0  0  0  0  0
    3.7586    2.6449   -2.6985 H   0  0  0  0  0  0  0  0  0  0  0  0
    2.6780    2.7579   -1.2960 H   0  0  0  0  0  0  0  0  0  0  0  0
    4.1536    0.1969   -4.2337 N   0  0  0  0  0  0  0  0  0  0  0  0
    5.0849   -0.6253   -4.9975 C   0  0  0  0  0  0  0  0  0  0  0  0
    3.7661    1.0315   -4.6645 H   0  0  0  0  0  0  0  0  0  0  0  0
    6.0169   -0.7693   -4.4403 H   0  0  0  0  0  0  0  0  0  0  0  0
    4.6461   -1.6062   -5.2092 H   0  0  0  0  0  0  0  0  0  0  0  0
    5.3250   -0.1402   -5.9486 H   0  0  0  0  0  0  0  0  0  0  0  0
  1  2  2  0  0  0  0
  1  3  1  0  0  0  0
  1  7  1  0  0  0  0
  3  4  1  0  0  0  0
  3  5  1  0  0  0  0
  3  6  1  0  0  0  0
  7  8  1  0  0  0  0
  7 12  1  0  0  0  0
  8  9  1  0  0  0  0
  8 11  1  0  0  0  0
  8 13  1  0  0  0  0
  9 10  2  0  0  0  0
  9 17  1  0  0  0  0
 11 14  1  0  0  0  0
 11 15  1  0  0  0  0
 11 16  1  0  0  0  0
 17 18  1  0  0  0  0
 17 22  1  0  0  0  0
 18 19  1  0  0  0  0
 18 21  1  0  0  0  0
 18 23  1  0  0  0  0
 19 20  2  0  0  0  0
 19 27  1  0  0  0  0
 21 24  1  0  0  0  0
 21 25  1  0  0  0  0
 21 26  1  0  0  0  0
 27 28  1  0  0  0  0
 27 32  1  0  0  0  0
 28 29  1  0  0  0  0
 28 31  1  0  0  0  0
 28 33  1  0  0  0  0
 29 30  2  0  0  0  0
 29 37  1  0  0  0  0
 31 34  1  0  0  0  0
 31 35  1  0  0  0  0
 31 36  1  0  0  0  0
 37 38  1  0  0  0  0
 37 39  1  0  0  0  0
 38 40  1  0  0  0  0
 38 41  1  0  0  0  0
 38 42  1  0  0  0  0
M  END
$$$$

  -OEChem-05262215353D

 42 41  0     1  0  0  0  0  0999 V2000
   -5.5523   -1.0975    1.9577 C   0  0  0  0  0  0  0  0  0  0  0  0
   -5.9978   -0.1556    1.3215 O   0  0  0  0  0  0  0  0  0  0  0  0
   -6.4443   -2.2783    2.2933 C   0  0  0  0  0  0  0  0  0  0  0  0
   -6.5770   -2.3501    3.3756 H   0  0  0  0  0  0  0  0  0  0  0  0
   -7.4248   -2.1557    1.8243 H   0  0  0  0  0  0  0  0  0  0  0  0
   -5.9930   -3.2035    1.9267 H   0  0  0  0  0  0  0  0  0  0  0  0
   -4.2340   -1.0997    2.3606 N   0  0  0  0  0  0  0  0  0  0  0  0
   -3.2335   -0.1126    1.9332 C   0  0  2  0  0  0  0  0  0  0  0  0
   -1.8449   -0.7629    1.7510 C   0  0  0  0  0  0  0  0  0  0  0  0
   -1.6369   -1.8854    2.1991 O   0  0  0  0  0  0  0  0  0  0  0  0
   -3.1804    1.0042    2.9800 C   0  0  0  0  0  0  0  0  0  0  0  0
   -3.8736   -1.9630    2.7661 H   0  0  0  0  0  0  0  0  0  0  0  0
   -3.5213    0.3147    0.9665 H   0  0  0  0  0  0  0  0  0  0  0  0
   -2.8798    0.6031    3.9531 H   0  0  0  0  0  0  0  0  0  0  0  0
   -2.4634    1.7761    2.6844 H   0  0  0  0  0  0  0  0  0  0  0  0
   -4.1649    1.4712    3.0839 H   0  0  0  0  0  0  0  0  0  0  0  0
   -0.8281   -0.0655    1.1241 N   0  0  0  0  0  0  0  0  0  0  0  0
    0.4502   -0.6027    0.6204 C   0  0  2  0  0  0  0  0  0  0  0  0
    1.1114    0.4305   -0.3235 C   0  0  0  0  0  0  0  0  0  0  0  0
    0.5592    1.5039   -0.5475 O   0  0  0  0  0  0  0  0  0  0  0  0
    0.2458   -1.9037   -0.1838 C   0  0  0  0  0  0  0  0  0  0  0  0
   -1.0738    0.8589    0.7663 H   0  0  0  0  0  0  0  0  0  0  0  0
    1.1246   -0.7920    1.4613 H   0  0  0  0  0  0  0  0  0  0  0  0
   -0.4966   -1.7501   -0.9736 H   0  0  0  0  0  0  0  0  0  0  0  0
    1.1819   -2.2295   -0.6469 H   0  0  0  0  0  0  0  0  0  0  0  0
   -0.0933   -2.7196    0.4590 H   0  0  0  0  0  0  0  0  0  0  0  0
    2.3252    0.1643   -0.9277 N   0  0  0  0  0  0  0  0  0  0  0  0
    2.9178    0.9766   -1.9973 C   0  0  2  0  0  0  0  0  0  0  0  0
    3.6350    0.0863   -3.0343 C   0  0  0  0  0  0  0  0  0  0  0  0
    3.8309   -1.1000   -2.7910 O   0  0  0  0  0  0  0  0  0  0  0  0
    3.8942    1.9699   -1.3609 C   0  0  0  0  0  0  0  0  0  0  0  0
    2.6876   -0.7850   -0.8364 H   0  0  0  0  0  0  0  0  0  0  0  0
    2.1344    1.5287   -2.5274 H   0  0  0  0  0  0  0  0  0  0  0  0
    4.6977    1.4381   -0.8415 H   0  0  0  0  0  0  0  0  0  0  0  0
    4.3398    2.6153   -2.1236 H   0  0  0  0  0  0  0  0  0  0  0  0
    3.3710    2.6028   -0.6371 H   0  0  0  0  0  0  0  0  0  0  0  0
    4.0479    0.6068   -4.2466 N   0  0  0  0  0  0  0  0  0  0  0  0
    4.7228   -0.1847   -5.2685 C   0  0  0  0  0  0  0  0  0  0  0  0
    3.8545    1.5871   -4.4299 H   0  0  0  0  0  0  0  0  0  0  0  0
    5.6626   -0.5907   -4.8800 H   0  0  0  0  0  0  0  0  0  0  0  0
    4.0880   -1.0159   -5.5931 H   0  0  0  0  0  0  0  0  0  0  0  0
    4.9500    0.4367   -6.1399 H   0  0  0  0  0  0  0  0  0  0  0  0
  1  2  2  0  0  0  0
  1  3  1  0  0  0  0
  1  7  1  0  0  0  0
  3  4  1  0  0  0  0
  3  5  1  0  0  0  0
  3  6  1  0  0  0  0
  7  8  1  0  0  0  0
  7 12  1  0  0  0  0
  8  9  1  0  0  0  0
  8 11  1  0  0  0  0
  8 13  1  0  0  0  0
  9 10  2  0  0  0  0
  9 17  1  0  0  0  0
 11 14  1  0  0  0  0
 11 15  1  0  0  0  0
 11 16  1  0  0  0  0
 17 18  1  0  0  0  0
 17 22  1  0  0  0  0
 18 19  1  0  0  0  0
 18 21  1  0  0  0  0
 18 23  1  0  0  0  0
 19 20  2  0  0  0  0
 19 27  1  0  0  0  0
 21 24  1  0  0  0  0
 21 25  1  0  0  0  0
 21 26  1  0  0  0  0
 27 28  1  0  0  0  0
 27 32  1  0  0  0  0
 28 29  1  0  0  0  0
 28 31  1  0  0  0  0
 28 33  1  0  0  0  0
 29 30  2  0  0  0  0
 29 37  1  0  0  0  0
 31 34  1  0  0  0  0
 31 35  1  0  0  0  0
 31 36  1  0  0  0  0
 37 38  1  0  0  0  0
 37 39  1  0  0  0  0
 38 40  1  0  0  0  0
 38 41  1  0  0  0  0
 38 42  1  0  0  0  0
M  END
$$$$

  -OEChem-05262215353D

 42 41  0     1  0  0  0  0  0999 V2000
   -5.5588   -1.0440    1.9647 C   0  0  0  0  0  0  0  0  0  0  0  0
   -5.9780   -0.1052    1.3062 O   0  0  0  0  0  0  0  0  0  0  0  0
   -6.4838   -2.1893    2.3306 C   0  0  0  0  0  0  0  0  0  0  0  0
   -6.6022   -2.2404    3.4158 H   0  0  0  0  0  0  0  0  0  0  0  0
   -7.4665   -2.0407    1.8742 H   0  0  0  0  0  0  0  0  0  0  0  0
   -6.0681   -3.1336    1.9706 H   0  0  0  0  0  0  0  0  0  0  0  0
   -4.2402   -1.0760    2.3655 N   0  0  0  0  0  0  0  0  0  0  0  0
   -3.2127   -0.1304    1.9103 C   0  0  2  0  0  0  0  0  0  0  0  0
   -1.8427   -0.8214    1.7395 C   0  0  0  0  0  0  0  0  0  0  0  0
   -1.6642   -1.9401    2.2083 O   0  0  0  0  0  0  0  0  0  0  0  0
   -3.1236    1.0086    2.9298 C   0  0  0  0  0  0  0  0  0  0  0  0
   -3.9047   -1.9381    2.7944 H   0  0  0  0  0  0  0  0  0  0  0  0
   -3.4922    0.2808    0.9340 H   0  0  0  0  0  0  0  0  0  0  0  0
   -2.8297    0.6213    3.9107 H   0  0  0  0  0  0  0  0  0  0  0  0
   -2.3865    1.7527    2.6128 H   0  0  0  0  0  0  0  0  0  0  0  0
   -4.0942    1.5056    3.0269 H   0  0  0  0  0  0  0  0  0  0  0  0
   -0.8139   -0.1582    1.0955 N   0  0  0  0  0  0  0  0  0  0  0  0
    0.4739   -0.7041    0.6268 C   0  0  2  0  0  0  0  0  0  0  0  0
    1.1199    0.3128   -0.3496 C   0  0  0  0  0  0  0  0  0  0  0  0
    0.6735    1.4544   -0.4210 O   0  0  0  0  0  0  0  0  0  0  0  0
    0.2918   -2.0516   -0.1053 C   0  0  0  0  0  0  0  0  0  0  0  0
   -1.0285    0.7809    0.7560 H   0  0  0  0  0  0  0  0  0  0  0  0
    1.1458   -0.8428    1.4796 H   0  0  0  0  0  0  0  0  0  0  0  0
   -0.4387   -1.9520   -0.9144 H   0  0  0  0  0  0  0  0  0  0  0  0
    1.2368   -2.4002   -0.5311 H   0  0  0  0  0  0  0  0  0  0  0  0
   -0.0516   -2.8306    0.5794 H   0  0  0  0  0  0  0  0  0  0  0  0
    2.1686   -0.0368   -1.1797 N   0  0  0  0  0  0  0  0  0  0  0  0
    2.6686    0.7934   -2.2833 C   0  0  2  0  0  0  0  0  0  0  0  0
    3.1053   -0.0764   -3.4811 C   0  0  0  0  0  0  0  0  0  0  0  0
    3.2215   -1.2902   -3.3470 O   0  0  0  0  0  0  0  0  0  0  0  0
    3.8389    1.6332   -1.7634 C   0  0  0  0  0  0  0  0  0  0  0  0
    2.4243   -1.0236   -1.2115 H   0  0  0  0  0  0  0  0  0  0  0  0
    1.8759    1.4604   -2.6388 H   0  0  0  0  0  0  0  0  0  0  0  0
    4.6500    0.9856   -1.4155 H   0  0  0  0  0  0  0  0  0  0  0  0
    4.2267    2.2845   -2.5523 H   0  0  0  0  0  0  0  0  0  0  0  0
    3.5122    2.2613   -0.9285 H   0  0  0  0  0  0  0  0  0  0  0  0
    3.3465    0.4962   -4.7162 N   0  0  0  0  0  0  0  0  0  0  0  0
    3.7352   -0.2716   -5.8935 C   0  0  0  0  0  0  0  0  0  0  0  0
    3.2217    1.5007   -4.8029 H   0  0  0  0  0  0  0  0  0  0  0  0
    4.6947   -0.7719   -5.7256 H   0  0  0  0  0  0  0  0  0  0  0  0
    2.9791   -1.0291   -6.1255 H   0  0  0  0  0  0  0  0  0  0  0  0
    3.8367    0.3894   -6.7597 H   0  0  0  0  0  0  0  0  0  0  0  0
  1  2  2  0  0  0  0
  1  3  1  0  0  0  0
  1  7  1  0  0  0  0
  3  4  1  0  0  0  0
  3  5  1  0  0  0  0
  3  6  1  0  0  0  0
  7  8  1  0  0  0  0
  7 12  1  0  0  0  0
  8  9  1  0  0  0  0
  8 11  1  0  0  0  0
  8 13  1  0  0  0  0
  9 10  2  0  0  0  0
  9 17  1  0  0  0  0
 11 14  1  0  0  0  0
 11 15  1  0  0  0  0
 11 16  1  0  0  0  0
 17 18  1  0  0  0  0
 17 22  1  0  0  0  0
 18 19  1  0  0  0  0
 18 21  1  0  0  0  0
 18 23  1  0  0  0  0
 19 20  2  0  0  0  0
 19 27  1  0  0  0  0
 21 24  1  0  0  0  0
 21 25  1  0  0  0  0
 21 26  1  0  0  0  0
 27 28  1  0  0  0  0
 27 32  1  0  0  0  0
 28 29  1  0  0  0  0
 28 31  1  0  0  0  0
 28 33  1  0  0  0  0
 29 30  2  0  0  0  0
 29 37  1  0  0  0  0
 31 34  1  0  0  0  0
 31 35  1  0  0  0  0
 31 36  1  0  0  0  0
 37 38  1  0  0  0  0
 37 39  1  0  0  0  0
 38 40  1  0  0  0  0
 38 41  1  0  0  0  0
 38 42  1  0  0  0  0
M  END
$$$$

  -OEChem-05262215353D

 42 41  0     1  0  0  0  0  0999 V2000
   -5.5315   -1.0058    1.8878 C   0  0  0  0  0  0  0  0  0  0  0  0
   -5.9141   -0.0455    1.2381 O   0  0  0  0  0  0  0  0  0  0  0  0
   -6.4810   -2.1523    2.1811 C   0  0  0  0  0  0  0  0  0  0  0  0
   -6.6151   -2.2577    3.2605 H   0  0  0  0  0  0  0  0  0  0  0  0
   -7.4551   -1.9628    1.7211 H   0  0  0  0  0  0  0  0  0  0  0  0
   -6.0768   -3.0843    1.7780 H   0  0  0  0  0  0  0  0  0  0  0  0
   -4.2332   -1.0594    2.3485 N   0  0  0  0  0  0  0  0  0  0  0  0
   -3.1788   -0.1093    1.9703 C   0  0  2  0  0  0  0  0  0  0  0  0
   -1.8242   -0.8218    1.7681 C   0  0  0  0  0  0  0  0  0  0  0  0
   -1.6539   -1.9401    2.2401 O   0  0  0  0  0  0  0  0  0  0  0  0
   -3.0773    0.9526    3.0687 C   0  0  0  0  0  0  0  0  0  0  0  0
   -3.9236   -1.9379    2.7629 H   0  0  0  0  0  0  0  0  0  0  0  0
   -3.4348    0.3770    1.0227 H   0  0  0  0  0  0  0  0  0  0  0  0
   -2.8079    0.4901    4.0237 H   0  0  0  0  0  0  0  0  0  0  0  0
   -2.3176    1.6984    2.8151 H   0  0  0  0  0  0  0  0  0  0  0  0
   -4.0373    1.4654    3.1874 H   0  0  0  0  0  0  0  0  0  0  0  0
   -0.8074   -0.1783    1.0855 N   0  0  0  0  0  0  0  0  0  0  0  0
    0.4926   -0.7161    0.6389 C   0  0  2  0  0  0  0  0  0  0  0  0
    1.0986    0.2731   -0.3918 C   0  0  0  0  0  0  0  0  0  0  0  0
    0.7804    1.4575   -0.3429 O   0  0  0  0  0  0  0  0  0  0  0  0
    0.3628   -2.1173    0.0024 C   0  0  0  0  0  0  0  0  0  0  0  0
   -1.0088    0.7727    0.7731 H   0  0  0  0  0  0  0  0  0  0  0  0
    1.1730   -0.7782    1.4941 H   0  0  0  0  0  0  0  0  0  0  0  0
   -0.3639   -2.1001   -0.8162 H   0  0  0  0  0  0  0  0  0  0  0  0
    1.3249   -2.4614   -0.3878 H   0  0  0  0  0  0  0  0  0  0  0  0
    0.0424   -2.8585    0.7380 H   0  0  0  0  0  0  0  0  0  0  0  0
    1.9297   -0.1402   -1.4174 N   0  0  0  0  0  0  0  0  0  0  0  0
    2.3280    0.6963   -2.5570 C   0  0  2  0  0  0  0  0  0  0  0  0
    2.4393   -0.1382   -3.8503 C   0  0  0  0  0  0  0  0  0  0  0  0
    2.4271   -1.3634   -3.7922 O   0  0  0  0  0  0  0  0  0  0  0  0
    3.6664    1.3605   -2.2230 C   0  0  0  0  0  0  0  0  0  0  0  0
    2.0381   -1.1462   -1.5449 H   0  0  0  0  0  0  0  0  0  0  0  0
    1.5740    1.4705   -2.7349 H   0  0  0  0  0  0  0  0  0  0  0  0
    4.4389    0.6026   -2.0571 H   0  0  0  0  0  0  0  0  0  0  0  0
    3.9872    2.0123   -3.0410 H   0  0  0  0  0  0  0  0  0  0  0  0
    3.5718    1.9666   -1.3164 H   0  0  0  0  0  0  0  0  0  0  0  0
    2.5316    0.4833   -5.0818 N   0  0  0  0  0  0  0  0  0  0  0  0
    2.6033   -0.2452   -6.3427 C   0  0  0  0  0  0  0  0  0  0  0  0
    2.5169    1.4990   -5.0997 H   0  0  0  0  0  0  0  0  0  0  0  0
    3.4924   -0.8839   -6.3667 H   0  0  0  0  0  0  0  0  0  0  0  0
    1.7155   -0.8726   -6.4745 H   0  0  0  0  0  0  0  0  0  0  0  0
    2.6586    0.4549   -7.1818 H   0  0  0  0  0  0  0  0  0  0  0  0
  1  2  2  0  0  0  0
  1  3  1  0  0  0  0
  1  7  1  0  0  0  0
  3  4  1  0  0  0  0
  3  5  1  0  0  0  0
  3  6  1  0  0  0  0
  7  8  1  0  0  0  0
  7 12  1  0  0  0  0
  8  9  1  0  0  0  0
  8 11  1  0  0  0  0
  8 13  1  0  0  0  0
  9 10  2  0  0  0  0
  9 17  1  0  0  0  0
 11 14  1  0  0  0  0
 11 15  1  0  0  0  0
 11 16  1  0  0  0  0
 17 18  1  0  0  0  0
 17 22  1  0  0  0  0
 18 19  1  0  0  0  0
 18 21  1  0  0  0  0
 18 23  1  0  0  0  0
 19 20  2  0  0  0  0
 19 27  1  0  0  0  0
 21 24  1  0  0  0  0
 21 25  1  0  0  0  0
 21 26  1  0  0  0  0
 27 28  1  0  0  0  0
 27 32  1  0  0  0  0
 28 29  1  0  0  0  0
 28 31  1  0  0  0  0
 28 33  1  0  0  0  0
 29 30  2  0  0  0  0
 29 37  1  0  0  0  0
 31 34  1  0  0  0  0
 31 35  1  0  0  0  0
 31 36  1  0  0  0  0
 37 38  1  0  0  0  0
 37 39  1  0  0  0  0
 38 40  1  0  0  0  0
 38 41  1  0  0  0  0
 38 42  1  0  0  0  0
M  END
$$$$

  -OEChem-05262215353D

 42 41  0     1  0  0  0  0  0999 V2000
   -5.5527   -1.0208    1.9591 C   0  0  0  0  0  0  0  0  0  0  0  0
   -5.9474   -0.0598    1.3177 O   0  0  0  0  0  0  0  0  0  0  0  0
   -6.5039   -2.1549    2.2917 C   0  0  0  0  0  0  0  0  0  0  0  0
   -6.6017   -2.2528    3.3754 H   0  0  0  0  0  0  0  0  0  0  0  0
   -7.4911   -1.9569    1.8650 H   0  0  0  0  0  0  0  0  0  0  0  0
   -6.1252   -3.0938    1.8806 H   0  0  0  0  0  0  0  0  0  0  0  0
   -4.2400   -1.0832    2.3756 N   0  0  0  0  0  0  0  0  0  0  0  0
   -3.1949   -0.1387    1.9597 C   0  0  2  0  0  0  0  0  0  0  0  0
   -1.8447   -0.8500    1.7309 C   0  0  0  0  0  0  0  0  0  0  0  0
   -1.6674   -1.9687    2.1991 O   0  0  0  0  0  0  0  0  0  0  0  0
   -3.0671    0.9389    3.0395 C   0  0  0  0  0  0  0  0  0  0  0  0
   -3.9226   -1.9601    2.7875 H   0  0  0  0  0  0  0  0  0  0  0  0
   -3.4746    0.3338    1.0120 H   0  0  0  0  0  0  0  0  0  0  0  0
   -2.7719    0.4926    3.9946 H   0  0  0  0  0  0  0  0  0  0  0  0
   -2.3161    1.6817    2.7542 H   0  0  0  0  0  0  0  0  0  0  0  0
   -4.0247    1.4516    3.1753 H   0  0  0  0  0  0  0  0  0  0  0  0
   -0.8395   -0.2027    1.0334 N   0  0  0  0  0  0  0  0  0  0  0  0
    0.4681   -0.7289    0.5956 C   0  0  2  0  0  0  0  0  0  0  0  0
    1.0552    0.2493   -0.4551 C   0  0  0  0  0  0  0  0  0  0  0  0
    0.9098    1.4549   -0.2843 O   0  0  0  0  0  0  0  0  0  0  0  0
    0.3674   -2.1498   -0.0013 C   0  0  0  0  0  0  0  0  0  0  0  0
   -1.0380    0.7571    0.7495 H   0  0  0  0  0  0  0  0  0  0  0  0
    1.1511   -0.7562    1.4506 H   0  0  0  0  0  0  0  0  0  0  0  0
   -0.3749   -2.1766   -0.8057 H   0  0  0  0  0  0  0  0  0  0  0  0
    1.3333   -2.4740   -0.3996 H   0  0  0  0  0  0  0  0  0  0  0  0
    0.0830   -2.8797    0.7601 H   0  0  0  0  0  0  0  0  0  0  0  0
    1.6339   -0.1802   -1.6359 N   0  0  0  0  0  0  0  0  0  0  0  0
    1.9849    0.6904   -2.7654 C   0  0  2  0  0  0  0  0  0  0  0  0
    1.7535   -0.0267   -4.1124 C   0  0  0  0  0  0  0  0  0  0  0  0
    1.5339   -1.2334   -4.1343 O   0  0  0  0  0  0  0  0  0  0  0  0
    3.4519    1.1036   -2.6158 C   0  0  0  0  0  0  0  0  0  0  0  0
    1.5610   -1.1755   -1.8464 H   0  0  0  0  0  0  0  0  0  0  0  0
    1.3543    1.5856   -2.7600 H   0  0  0  0  0  0  0  0  0  0  0  0
    4.1026    0.2239   -2.6507 H   0  0  0  0  0  0  0  0  0  0  0  0
    3.7439    1.7857   -3.4197 H   0  0  0  0  0  0  0  0  0  0  0  0
    3.6062    1.6135   -1.6595 H   0  0  0  0  0  0  0  0  0  0  0  0
    1.7783    0.6801   -5.3004 N   0  0  0  0  0  0  0  0  0  0  0  0
    1.5362    0.0662   -6.6004 C   0  0  0  0  0  0  0  0  0  0  0  0
    1.9343    1.6827   -5.2507 H   0  0  0  0  0  0  0  0  0  0  0  0
    2.2354   -0.7593   -6.7710 H   0  0  0  0  0  0  0  0  0  0  0  0
    0.5134   -0.3209   -6.6559 H   0  0  0  0  0  0  0  0  0  0  0  0
    1.6719    0.8024   -7.3985 H   0  0  0  0  0  0  0  0  0  0  0  0
  1  2  2  0  0  0  0
  1  3  1  0  0  0  0
  1  7  1  0  0  0  0
  3  4  1  0  0  0  0
  3  5  1  0  0  0  0
  3  6  1  0  0  0  0
  7  8  1  0  0  0  0
  7 12  1  0  0  0  0
  8  9  1  0  0  0  0
  8 11  1  0  0  0  0
  8 13  1  0  0  0  0
  9 10  2  0  0  0  0
  9 17  1  0  0  0  0
 11 14  1  0  0  0  0
 11 15  1  0  0  0  0
 11 16  1  0  0  0  0
 17 18  1  0  0  0  0
 17 22  1  0  0  0  0
 18 19  1  0  0  0  0
 18 21  1  0  0  0  0
 18 23  1  0  0  0  0
 19 20  2  0  0  0  0
 19 27  1  0  0  0  0
 21 24  1  0  0  0  0
 21 25  1  0  0  0  0
 21 26  1  0  0  0  0
 27 28  1  0  0  0  0
 27 32  1  0  0  0  0
 28 29  1  0  0  0  0
 28 31  1  0  0  0  0
 28 33  1  0  0  0  0
 29 30  2  0  0  0  0
 29 37  1  0  0  0  0
 31 34  1  0  0  0  0
 31 35  1  0  0  0  0
 31 36  1  0  0  0  0
 37 38  1  0  0  0  0
 37 39  1  0  0  0  0
 38 40  1  0  0  0  0
 38 41  1  0  0  0  0
 38 42  1  0  0  0  0
M  END
$$$$

  -OEChem-05262215353D

 42 41  0     1  0  0  0  0  0999 V2000
   -5.4670   -0.9312    1.7292 C   0  0  0  0  0  0  0  0  0  0  0  0
   -5.7774    0.0525    1.0762 O   0  0  0  0  0  0  0  0  0  0  0  0
   -6.4509   -2.0739    1.8946 C   0  0  0  0  0  0  0  0  0  0  0  0
   -6.6588   -2.2373    2.9546 H   0  0  0  0  0  0  0  0  0  0  0  0
   -7.3888   -1.8401    1.3834 H   0  0  0  0  0  0  0  0  0  0  0  0
   -6.0353   -2.9893    1.4666 H   0  0  0  0  0  0  0  0  0  0  0  0
   -4.2191   -1.0154    2.3096 N   0  0  0  0  0  0  0  0  0  0  0  0
   -3.1174   -0.0807    2.0429 C   0  0  2  0  0  0  0  0  0  0  0  0
   -1.7992   -0.8302    1.7564 C   0  0  0  0  0  0  0  0  0  0  0  0
   -1.6524   -1.9691    2.1837 O   0  0  0  0  0  0  0  0  0  0  0  0
   -2.9657    0.8324    3.2619 C   0  0  0  0  0  0  0  0  0  0  0  0
   -3.9582   -1.9172    2.7064 H   0  0  0  0  0  0  0  0  0  0  0  0
   -3.3422    0.5319    1.1634 H   0  0  0  0  0  0  0  0  0  0  0  0
   -2.7306    0.2436    4.1545 H   0  0  0  0  0  0  0  0  0  0  0  0
   -2.1619    1.5575    3.1010 H   0  0  0  0  0  0  0  0  0  0  0  0
   -3.8958    1.3814    3.4410 H   0  0  0  0  0  0  0  0  0  0  0  0
   -0.7907   -0.1944    1.0531 N   0  0  0  0  0  0  0  0  0  0  0  0
    0.5130   -0.7319    0.6183 C   0  0  2  0  0  0  0  0  0  0  0  0
    1.0943    0.2397   -0.4386 C   0  0  0  0  0  0  0  0  0  0  0  0
    1.1347    1.4361   -0.1761 O   0  0  0  0  0  0  0  0  0  0  0  0
    0.4129   -2.1602    0.0389 C   0  0  0  0  0  0  0  0  0  0  0  0
   -0.9640    0.7810    0.8117 H   0  0  0  0  0  0  0  0  0  0  0  0
    1.2004   -0.7504    1.4700 H   0  0  0  0  0  0  0  0  0  0  0  0
   -0.3668   -2.2117   -0.7283 H   0  0  0  0  0  0  0  0  0  0  0  0
    1.3660   -2.4664   -0.4033 H   0  0  0  0  0  0  0  0  0  0  0  0
    0.1793   -2.8870    0.8212 H   0  0  0  0  0  0  0  0  0  0  0  0
    1.3851   -0.1591   -1.7303 N   0  0  0  0  0  0  0  0  0  0  0  0
    1.5778    0.7522   -2.8654 C   0  0  2  0  0  0  0  0  0  0  0  0
    1.0062    0.1387   -4.1614 C   0  0  0  0  0  0  0  0  0  0  0  0
    0.7107   -1.0514   -4.1947 O   0  0  0  0  0  0  0  0  0  0  0  0
    3.0755    1.0351   -3.0093 C   0  0  0  0  0  0  0  0  0  0  0  0
    1.1489   -1.1218   -1.9726 H   0  0  0  0  0  0  0  0  0  0  0  0
    1.0471    1.6935   -2.6870 H   0  0  0  0  0  0  0  0  0  0  0  0
    3.6241    0.1059   -3.1935 H   0  0  0  0  0  0  0  0  0  0  0  0
    3.2598    1.7202   -3.8421 H   0  0  0  0  0  0  0  0  0  0  0  0
    3.4631    1.4933   -2.0938 H   0  0  0  0  0  0  0  0  0  0  0  0
    0.7980    0.9196   -5.2832 N   0  0  0  0  0  0  0  0  0  0  0  0
    0.2336    0.4003   -6.5235 C   0  0  0  0  0  0  0  0  0  0  0  0
    1.0219    1.9084   -5.2193 H   0  0  0  0  0  0  0  0  0  0  0  0
    0.8794   -0.3793   -6.9411 H   0  0  0  0  0  0  0  0  0  0  0  0
   -0.7601   -0.0243   -6.3451 H   0  0  0  0  0  0  0  0  0  0  0  0
    0.1385    1.2023   -7.2617 H   0  0  0  0  0  0  0  0  0  0  0  0
  1  2  2  0  0  0  0
  1  3  1  0  0  0  0
  1  7  1  0  0  0  0
  3  4  1  0  0  0  0
  3  5  1  0  0  0  0
  3  6  1  0  0  0  0
  7  8  1  0  0  0  0
  7 12  1  0  0  0  0
  8  9  1  0  0  0  0
  8 11  1  0  0  0  0
  8 13  1  0  0  0  0
  9 10  2  0  0  0  0
  9 17  1  0  0  0  0
 11 14  1  0  0  0  0
 11 15  1  0  0  0  0
 11 16  1  0  0  0  0
 17 18  1  0  0  0  0
 17 22  1  0  0  0  0
 18 19  1  0  0  0  0
 18 21  1  0  0  0  0
 18 23  1  0  0  0  0
 19 20  2  0  0  0  0
 19 27  1  0  0  0  0
 21 24  1  0  0  0  0
 21 25  1  0  0  0  0
 21 26  1  0  0  0  0
 27 28  1  0  0  0  0
 27 32  1  0  0  0  0
 28 29  1  0  0  0  0
 28 31  1  0  0  0  0
 28 33  1  0  0  0  0
 29 30  2  0  0  0  0
 29 37  1  0  0  0  0
 31 34  1  0  0  0  0
 31 35  1  0  0  0  0
 31 36  1  0  0  0  0
 37 38  1  0  0  0  0
 37 39  1  0  0  0  0
 38 40  1  0  0  0  0
 38 41  1  0  0  0  0
 38 42  1  0  0  0  0
M  END
$$$$

  -OEChem-05262215353D

 42 41  0     1  0  0  0  0  0999 V2000
   -5.4725   -0.9369    1.7356 C   0  0  0  0  0  0  0  0  0  0  0  0
   -5.7843    0.0467    1.0828 O   0  0  0  0  0  0  0  0  0  0  0  0
   -6.4534   -2.0832    1.8955 C   0  0  0  0  0  0  0  0  0  0  0  0
   -6.6483   -2.2627    2.9555 H   0  0  0  0  0  0  0  0  0  0  0  0
   -7.3981   -1.8419    1.4002 H   0  0  0  0  0  0  0  0  0  0  0  0
   -6.0423   -2.9918    1.4482 H   0  0  0  0  0  0  0  0  0  0  0  0
   -4.2268   -1.0166    2.3219 N   0  0  0  0  0  0  0  0  0  0  0  0
   -3.1259   -0.0804    2.0560 C   0  0  2  0  0  0  0  0  0  0  0  0
   -1.8126   -0.8268    1.7383 C   0  0  0  0  0  0  0  0  0  0  0  0
   -1.6563   -1.9686    2.1539 O   0  0  0  0  0  0  0  0  0  0  0  0
   -2.9557    0.8109    3.2887 C   0  0  0  0  0  0  0  0  0  0  0  0
   -3.9657   -1.9179    2.7195 H   0  0  0  0  0  0  0  0  0  0  0  0
   -3.3615    0.5487    1.1909 H   0  0  0  0  0  0  0  0  0  0  0  0
   -2.7086    0.2067    4.1678 H   0  0  0  0  0  0  0  0  0  0  0  0
   -2.1539    1.5384    3.1289 H   0  0  0  0  0  0  0  0  0  0  0  0
   -3.8827    1.3572    3.4905 H   0  0  0  0  0  0  0  0  0  0  0  0
   -0.8194   -0.1852    1.0179 N   0  0  0  0  0  0  0  0  0  0  0  0
    0.4885   -0.7145    0.5840 C   0  0  2  0  0  0  0  0  0  0  0  0
    1.0550    0.2413   -0.4913 C   0  0  0  0  0  0  0  0  0  0  0  0
    1.3288    1.3902   -0.1697 O   0  0  0  0  0  0  0  0  0  0  0  0
    0.4098   -2.1520    0.0293 C   0  0  0  0  0  0  0  0  0  0  0  0
   -1.0003    0.7913    0.7905 H   0  0  0  0  0  0  0  0  0  0  0  0
    1.1814   -0.7094    1.4318 H   0  0  0  0  0  0  0  0  0  0  0  0
   -0.4040   -2.2442   -0.6972 H   0  0  0  0  0  0  0  0  0  0  0  0
    1.3507   -2.4297   -0.4562 H   0  0  0  0  0  0  0  0  0  0  0  0
    0.2393   -2.8706    0.8353 H   0  0  0  0  0  0  0  0  0  0  0  0
    1.0577   -0.0871   -1.8345 N   0  0  0  0  0  0  0  0  0  0  0  0
    1.2270    0.8733   -2.9323 C   0  0  2  0  0  0  0  0  0  0  0  0
    0.3497    0.4854   -4.1412 C   0  0  0  0  0  0  0  0  0  0  0  0
   -0.1630   -0.6277   -4.1927 O   0  0  0  0  0  0  0  0  0  0  0  0
    2.7069    0.9062   -3.3226 C   0  0  0  0  0  0  0  0  0  0  0  0
    0.6238   -0.9758   -2.0856 H   0  0  0  0  0  0  0  0  0  0  0  0
    0.9154    1.8724   -2.6100 H   0  0  0  0  0  0  0  0  0  0  0  0
    3.0364   -0.0831   -3.6559 H   0  0  0  0  0  0  0  0  0  0  0  0
    2.8758    1.6215   -4.1331 H   0  0  0  0  0  0  0  0  0  0  0  0
    3.3172    1.2069   -2.4651 H   0  0  0  0  0  0  0  0  0  0  0  0
    0.1131    1.3881   -5.1613 N   0  0  0  0  0  0  0  0  0  0  0  0
   -0.7382    1.0910   -6.3075 C   0  0  0  0  0  0  0  0  0  0  0  0
    0.5224    2.3142   -5.0779 H   0  0  0  0  0  0  0  0  0  0  0  0
   -0.3408    0.2394   -6.8699 H   0  0  0  0  0  0  0  0  0  0  0  0
   -1.7552    0.8517   -5.9784 H   0  0  0  0  0  0  0  0  0  0  0  0
   -0.7865    1.9544   -6.9778 H   0  0  0  0  0  0  0  0  0  0  0  0
  1  2  2  0  0  0  0
  1  3  1  0  0  0  0
  1  7  1  0  0  0  0
  3  4  1  0  0  0  0
  3  5  1  0  0  0  0
  3  6  1  0  0  0  0
  7  8  1  0  0  0  0
  7 12  1  0  0  0  0
  8  9  1  0  0  0  0
  8 11  1  0  0  0  0
  8 13  1  0  0  0  0
  9 10  2  0  0  0  0
  9 17  1  0  0  0  0
 11 14  1  0  0  0  0
 11 15  1  0  0  0  0
 11 16  1  0  0  0  0
 17 18  1  0  0  0  0
 17 22  1  0  0  0  0
 18 19  1  0  0  0  0
 18 21  1  0  0  0  0
 18 23  1  0  0  0  0
 19 20  2  0  0  0  0
 19 27  1  0  0  0  0
 21 24  1  0  0  0  0
 21 25  1  0  0  0  0
 21 26  1  0  0  0  0
 27 28  1  0  0  0  0
 27 32  1  0  0  0  0
 28 29  1  0  0  0  0
 28 31  1  0  0  0  0
 28 33  1  0  0  0  0
 29 30  2  0  0  0  0
 29 37  1  0  0  0  0
 31 34  1  0  0  0  0
 31 35  1  0  0  0  0
 31 36  1  0  0  0  0
 37 38  1  0  0  0  0
 37 39  1  0  0  0  0
 38 40  1  0  0  0  0
 38 41  1  0  0  0  0
 38 42  1  0  0  0  0
M  END
$$$$

  -OEChem-05262215353D

 42 41  0     1  0  0  0  0  0999 V2000
   -5.4972   -0.9520    1.8126 C   0  0  0  0  0  0  0  0  0  0  0  0
   -5.8445    0.0663    1.2357 O   0  0  0  0  0  0  0  0  0  0  0  0
   -6.4618   -2.1149    1.9474 C   0  0  0  0  0  0  0  0  0  0  0  0
   -6.6442   -2.3288    3.0031 H   0  0  0  0  0  0  0  0  0  0  0  0
   -7.4136   -1.8731    1.4663 H   0  0  0  0  0  0  0  0  0  0  0  0
   -6.0421   -3.0032    1.4694 H   0  0  0  0  0  0  0  0  0  0  0  0
   -4.2224   -1.0567    2.3277 N   0  0  0  0  0  0  0  0  0  0  0  0
   -3.1419   -0.0989    2.0574 C   0  0  2  0  0  0  0  0  0  0  0  0
   -1.8160   -0.8204    1.7364 C   0  0  0  0  0  0  0  0  0  0  0  0
   -1.6345   -1.9574    2.1549 O   0  0  0  0  0  0  0  0  0  0  0  0
   -2.9854    0.8017    3.2847 C   0  0  0  0  0  0  0  0  0  0  0  0
   -3.9394   -1.9721    2.6756 H   0  0  0  0  0  0  0  0  0  0  0  0
   -3.3946    0.5199    1.1896 H   0  0  0  0  0  0  0  0  0  0  0  0
   -2.7216    0.2071    4.1651 H   0  0  0  0  0  0  0  0  0  0  0  0
   -2.2004    1.5454    3.1183 H   0  0  0  0  0  0  0  0  0  0  0  0
   -3.9232    1.3286    3.4874 H   0  0  0  0  0  0  0  0  0  0  0  0
   -0.8434   -0.1662    0.9988 N   0  0  0  0  0  0  0  0  0  0  0  0
    0.4643   -0.6858    0.5519 C   0  0  2  0  0  0  0  0  0  0  0  0
    1.0198    0.2583   -0.5368 C   0  0  0  0  0  0  0  0  0  0  0  0
    1.5491    1.3091   -0.2017 O   0  0  0  0  0  0  0  0  0  0  0  0
    0.3891   -2.1214   -0.0073 C   0  0  0  0  0  0  0  0  0  0  0  0
   -1.0471    0.8037    0.7656 H   0  0  0  0  0  0  0  0  0  0  0  0
    1.1651   -0.6778    1.3934 H   0  0  0  0  0  0  0  0  0  0  0  0
   -0.4453   -2.2231   -0.7084 H   0  0  0  0  0  0  0  0  0  0  0  0
    1.3180   -2.3799   -0.5259 H   0  0  0  0  0  0  0  0  0  0  0  0
    0.2542   -2.8470    0.7997 H   0  0  0  0  0  0  0  0  0  0  0  0
    0.7379    0.0529   -1.8746 N   0  0  0  0  0  0  0  0  0  0  0  0
    0.9106    1.0569   -2.9320 C   0  0  2  0  0  0  0  0  0  0  0  0
   -0.2102    0.9465   -3.9872 C   0  0  0  0  0  0  0  0  0  0  0  0
   -0.9511   -0.0309   -3.9943 O   0  0  0  0  0  0  0  0  0  0  0  0
    2.2861    0.8537   -3.5727 C   0  0  0  0  0  0  0  0  0  0  0  0
    0.1139   -0.7243   -2.0936 H   0  0  0  0  0  0  0  0  0  0  0  0
    0.8571    2.0643   -2.5058 H   0  0  0  0  0  0  0  0  0  0  0  0
    2.3586   -0.1441   -4.0170 H   0  0  0  0  0  0  0  0  0  0  0  0
    2.4595    1.5978   -4.3557 H   0  0  0  0  0  0  0  0  0  0  0  0
    3.0727    0.9581   -2.8188 H   0  0  0  0  0  0  0  0  0  0  0  0
   -0.4109    1.9565   -4.9097 N   0  0  0  0  0  0  0  0  0  0  0  0
   -1.4922    1.9407   -5.8878 C   0  0  0  0  0  0  0  0  0  0  0  0
    0.1951    2.7703   -4.8585 H   0  0  0  0  0  0  0  0  0  0  0  0
   -1.4217    1.0518   -6.5238 H   0  0  0  0  0  0  0  0  0  0  0  0
   -2.4642    1.9372   -5.3831 H   0  0  0  0  0  0  0  0  0  0  0  0
   -1.4379    2.8268   -6.5274 H   0  0  0  0  0  0  0  0  0  0  0  0
  1  2  2  0  0  0  0
  1  3  1  0  0  0  0
  1  7  1  0  0  0  0
  3  4  1  0  0  0  0
  3  5  1  0  0  0  0
  3  6  1  0  0  0  0
  7  8  1  0  0  0  0
  7 12  1  0  0  0  0
  8  9  1  0  0  0  0
  8 11  1  0  0  0  0
  8 13  1  0  0  0  0
  9 10  2  0  0  0  0
  9 17  1  0  0  0  0
 11 14  1  0  0  0  0
 11 15  1  0  0  0  0
 11 16  1  0  0  0  0
 17 18  1  0  0  0  0
 17 22  1  0  0  0  0
 18 19  1  0  0  0  0
 18 21  1  0  0  0  0
 18 23  1  0  0  0  0
 19 20  2  0  0  0  0
 19 27  1  0  0  0  0
 21 24  1  0  0  0  0
 21 25  1  0  0  0  0
 21 26  1  0  0  0  0
 27 28  1  0  0  0  0
 27 32  1  0  0  0  0
 28 29  1  0  0  0  0
 28 31  1  0  0  0  0
 28 33  1  0  0  0  0
 29 30  2  0  0  0  0
 29 37  1  0  0  0  0
 31 34  1  0  0  0  0
 31 35  1  0  0  0  0
 31 36  1  0  0  0  0
 37 38  1  0  0  0  0
 37 39  1  0  0  0  0
 38 40  1  0  0  0  0
 38 41  1  0  0  0  0
 38 42  1  0  0  0  0
M  END
$$$$

  -OEChem-05262215353D

 42 41  0     1  0  0  0  0  0999 V2000
   -5.6519   -1.1156    2.1394 C   0  0  0  0  0  0  0  0  0  0  0  0
   -6.1214   -0.0963    1.6590 O   0  0  0  0  0  0  0  0  0  0  0  0
   -6.5656   -2.2521    2.5571 C   0  0  0  0  0  0  0  0  0  0  0  0
   -6.4386   -2.4602    3.6222 H   0  0  0  0  0  0  0  0  0  0  0  0
   -7.6095   -1.9840    2.3724 H   0  0  0  0  0  0  0  0  0  0  0  0
   -6.3266   -3.1521    1.9856 H   0  0  0  0  0  0  0  0  0  0  0  0
   -4.2883   -1.2387    2.2987 N   0  0  0  0  0  0  0  0  0  0  0  0
   -3.3028   -0.2559    1.8316 C   0  0  2  0  0  0  0  0  0  0  0  0
   -1.9339   -0.9119    1.5489 C   0  0  0  0  0  0  0  0  0  0  0  0
   -1.7108   -2.0440    1.9606 O   0  0  0  0  0  0  0  0  0  0  0  0
   -3.1625    0.8367    2.8976 C   0  0  0  0  0  0  0  0  0  0  0  0
   -3.9265   -2.1405    2.6078 H   0  0  0  0  0  0  0  0  0  0  0  0
   -3.6510    0.1935    0.8952 H   0  0  0  0  0  0  0  0  0  0  0  0
   -2.8086    0.4071    3.8403 H   0  0  0  0  0  0  0  0  0  0  0  0
   -2.4512    1.6028    2.5749 H   0  0  0  0  0  0  0  0  0  0  0  0
   -4.1284    1.3199    3.0762 H   0  0  0  0  0  0  0  0  0  0  0  0
   -0.9623   -0.1966    0.8685 N   0  0  0  0  0  0  0  0  0  0  0  0
    0.3994   -0.6376    0.5037 C   0  0  2  0  0  0  0  0  0  0  0  0
    0.9722    0.3296   -0.5515 C   0  0  0  0  0  0  0  0  0  0  0  0
    1.7132    1.2388   -0.2059 O   0  0  0  0  0  0  0  0  0  0  0  0
    0.4493   -2.0674   -0.0684 C   0  0  0  0  0  0  0  0  0  0  0  0
   -1.2151    0.7583    0.6230 H   0  0  0  0  0  0  0  0  0  0  0  0
    1.0432   -0.5930    1.3887 H   0  0  0  0  0  0  0  0  0  0  0  0
   -0.3339   -2.2152   -0.8180 H   0  0  0  0  0  0  0  0  0  0  0  0
    1.4213   -2.2577   -0.5344 H   0  0  0  0  0  0  0  0  0  0  0  0
    0.3165   -2.8084    0.7244 H   0  0  0  0  0  0  0  0  0  0  0  0
    0.5318    0.2745   -1.8601 N   0  0  0  0  0  0  0  0  0  0  0  0
    0.7511    1.3283   -2.8594 C   0  0  2  0  0  0  0  0  0  0  0  0
   -0.5397    1.6196   -3.6537 C   0  0  0  0  0  0  0  0  0  0  0  0
   -1.5170    0.8897   -3.5247 O   0  0  0  0  0  0  0  0  0  0  0  0
    1.8759    0.8696   -3.7905 C   0  0  0  0  0  0  0  0  0  0  0  0
   -0.2483   -0.3574   -2.0416 H   0  0  0  0  0  0  0  0  0  0  0  0
    1.0481    2.2626   -2.3714 H   0  0  0  0  0  0  0  0  0  0  0  0
    1.5966   -0.0581   -4.3004 H   0  0  0  0  0  0  0  0  0  0  0  0
    2.0869    1.6330   -4.5452 H   0  0  0  0  0  0  0  0  0  0  0  0
    2.7908    0.6908   -3.2165 H   0  0  0  0  0  0  0  0  0  0  0  0
   -0.6132    2.7080   -4.5030 N   0  0  0  0  0  0  0  0  0  0  0  0
   -1.8017    3.0370   -5.2806 C   0  0  0  0  0  0  0  0  0  0  0  0
    0.2064    3.3032   -4.5805 H   0  0  0  0  0  0  0  0  0  0  0  0
   -2.0636    2.2101   -5.9491 H   0  0  0  0  0  0  0  0  0  0  0  0
   -2.6501    3.2371   -4.6178 H   0  0  0  0  0  0  0  0  0  0  0  0
   -1.6210    3.9280   -5.8893 H   0  0  0  0  0  0  0  0  0  0  0  0
  1  2  2  0  0  0  0
  1  3  1  0  0  0  0
  1  7  1  0  0  0  0
  3  4  1  0  0  0  0
  3  5  1  0  0  0  0
  3  6  1  0  0  0  0
  7  8  1  0  0  0  0
  7 12  1  0  0  0  0
  8  9  1  0  0  0  0
  8 11  1  0  0  0  0
  8 13  1  0  0  0  0
  9 10  2  0  0  0  0
  9 17  1  0  0  0  0
 11 14  1  0  0  0  0
 11 15  1  0  0  0  0
 11 16  1  0  0  0  0
 17 18  1  0  0  0  0
 17 22  1  0  0  0  0
 18 19  1  0  0  0  0
 18 21  1  0  0  0  0
 18 23  1  0  0  0  0
 19 20  2  0  0  0  0
 19 27  1  0  0  0  0
 21 24  1  0  0  0  0
 21 25  1  0  0  0  0
 21 26  1  0  0  0  0
 27 28  1  0  0  0  0
 27 32  1  0  0  0  0
 28 29  1  0  0  0  0
 28 31  1  0  0  0  0
 28 33  1  0  0  0  0
 29 30  2  0  0  0  0
 29 37  1  0  0  0  0
 31 34  1  0  0  0  0
 31 35  1  0  0  0  0
 31 36  1  0  0  0  0
 37 38  1  0  0  0  0
 37 39  1  0  0  0  0
 38 40  1  0  0  0  0
 38 41  1  0  0  0  0
 38 42  1  0  0  0  0
M  END
$$$$

  -OEChem-05262215353D

 42 41  0     1  0  0  0  0  0999 V2000
   -5.4785   -1.3478    1.5375 C   0  0  0  0  0  0  0  0  0  0  0  0
   -5.9564   -0.9032    0.5058 O   0  0  0  0  0  0  0  0  0  0  0  0
   -6.2678   -2.3361    2.3755 C   0  0  0  0  0  0  0  0  0  0  0  0
   -6.4413   -1.9239    3.3726 H   0  0  0  0  0  0  0  0  0  0  0  0
   -7.2335   -2.5423    1.9054 H   0  0  0  0  0  0  0  0  0  0  0  0
   -5.7138   -3.2734    2.4677 H   0  0  0  0  0  0  0  0  0  0  0  0
   -4.2186   -0.9638    1.9438 N   0  0  0  0  0  0  0  0  0  0  0  0
   -3.2982   -0.1474    1.1410 C   0  0  2  0  0  0  0  0  0  0  0  0
   -1.8261   -0.5439    1.3890 C   0  0  0  0  0  0  0  0  0  0  0  0
   -1.5497   -1.3633    2.2583 O   0  0  0  0  0  0  0  0  0  0  0  0
   -3.5336    1.3276    1.4808 C   0  0  0  0  0  0  0  0  0  0  0  0
   -3.8093   -1.4693    2.7287 H   0  0  0  0  0  0  0  0  0  0  0  0
   -3.4973   -0.3017    0.0747 H   0  0  0  0  0  0  0  0  0  0  0  0
   -3.3254    1.5159    2.5386 H   0  0  0  0  0  0  0  0  0  0  0  0
   -2.8851    1.9693    0.8766 H   0  0  0  0  0  0  0  0  0  0  0  0
   -4.5730    1.6017    1.2743 H   0  0  0  0  0  0  0  0  0  0  0  0
   -0.8283    0.0321    0.6261 N   0  0  0  0  0  0  0  0  0  0  0  0
    0.6033   -0.3274    0.5812 C   0  0  2  0  0  0  0  0  0  0  0  0
    1.2086    0.3342   -0.6695 C   0  0  0  0  0  0  0  0  0  0  0  0
    1.9261    1.3195   -0.5626 O   0  0  0  0  0  0  0  0  0  0  0  0
    0.8490   -1.8446    0.5025 C   0  0  0  0  0  0  0  0  0  0  0  0
   -1.1553    0.7131   -0.0691 H   0  0  0  0  0  0  0  0  0  0  0  0
    1.1111    0.0707    1.4661 H   0  0  0  0  0  0  0  0  0  0  0  0
    0.2154   -2.3045   -0.2619 H   0  0  0  0  0  0  0  0  0  0  0  0
    1.8966   -2.0468    0.2574 H   0  0  0  0  0  0  0  0  0  0  0  0
    0.6370   -2.3218    1.4635 H   0  0  0  0  0  0  0  0  0  0  0  0
    0.6912    0.0004   -1.9087 N   0  0  0  0  0  0  0  0  0  0  0  0
    0.4853    1.0531   -2.9126 C   0  0  2  0  0  0  0  0  0  0  0  0
   -0.7012    1.9727   -2.5336 C   0  0  0  0  0  0  0  0  0  0  0  0
   -1.5519    1.5864   -1.7332 O   0  0  0  0  0  0  0  0  0  0  0  0
    0.2276    0.3744   -4.2594 C   0  0  0  0  0  0  0  0  0  0  0  0
   -0.0427   -0.7013   -1.8551 H   0  0  0  0  0  0  0  0  0  0  0  0
    1.3876    1.6686   -2.9995 H   0  0  0  0  0  0  0  0  0  0  0  0
   -0.6810   -0.2351   -4.2159 H   0  0  0  0  0  0  0  0  0  0  0  0
    0.1050    1.1241   -5.0471 H   0  0  0  0  0  0  0  0  0  0  0  0
    1.0694   -0.2724   -4.5259 H   0  0  0  0  0  0  0  0  0  0  0  0
   -0.8166    3.2346   -3.0850 N   0  0  0  0  0  0  0  0  0  0  0  0
   -1.8716    4.1724   -2.7200 C   0  0  0  0  0  0  0  0  0  0  0  0
   -0.0542    3.5608   -3.6721 H   0  0  0  0  0  0  0  0  0  0  0  0
   -2.8566    3.7453   -2.9357 H   0  0  0  0  0  0  0  0  0  0  0  0
   -1.8179    4.4142   -1.6533 H   0  0  0  0  0  0  0  0  0  0  0  0
   -1.7659    5.1001   -3.2907 H   0  0  0  0  0  0  0  0  0  0  0  0
  1  2  2  0  0  0  0
  1  3  1  0  0  0  0
  1  7  1  0  0  0  0
  3  4  1  0  0  0  0
  3  5  1  0  0  0  0
  3  6  1  0  0  0  0
  7  8  1  0  0  0  0
  7 12  1  0  0  0  0
  8  9  1  0  0  0  0
  8 11  1  0  0  0  0
  8 13  1  0  0  0  0
  9 10  2  0  0  0  0
  9 17  1  0  0  0  0
 11 14  1  0  0  0  0
 11 15  1  0  0  0  0
 11 16  1  0  0  0  0
 17 18  1  0  0  0  0
 17 22  1  0  0  0  0
 18 19  1  0  0  0  0
 18 21  1  0  0  0  0
 18 23  1  0  0  0  0
 19 20  2  0  0  0  0
 19 27  1  0  0  0  0
 21 24  1  0  0  0  0
 21 25  1  0  0  0  0
 21 26  1  0  0  0  0
 27 28  1  0  0  0  0
 27 32  1  0  0  0  0
 28 29  1  0  0  0  0
 28 31  1  0  0  0  0
 28 33  1  0  0  0  0
 29 30  2  0  0  0  0
 29 37  1  0  0  0  0
 31 34  1  0  0  0  0
 31 35  1  0  0  0  0
 31 36  1  0  0  0  0
 37 38  1  0  0  0  0
 37 39  1  0  0  0  0
 38 40  1  0  0  0  0
 38 41  1  0  0  0  0
 38 42  1  0  0  0  0
M  END
$$$$

  -OEChem-05262215353D

 42 41  0     1  0  0  0  0  0999 V2000
   -5.5717   -1.2287    1.6086 C   0  0  0  0  0  0  0  0  0  0  0  0
   -6.0703   -0.6141    0.6792 O   0  0  0  0  0  0  0  0  0  0  0  0
   -6.3790   -2.2816    2.3446 C   0  0  0  0  0  0  0  0  0  0  0  0
   -6.4555   -2.0216    3.4033 H   0  0  0  0  0  0  0  0  0  0  0  0
   -7.3865   -2.3460    1.9242 H   0  0  0  0  0  0  0  0  0  0  0  0
   -5.8942   -3.2564    2.2500 H   0  0  0  0  0  0  0  0  0  0  0  0
   -4.2687   -0.9831    1.9845 N   0  0  0  0  0  0  0  0  0  0  0  0
   -3.3395   -0.1132    1.2511 C   0  0  2  0  0  0  0  0  0  0  0  0
   -1.8842   -0.6181    1.3670 C   0  0  0  0  0  0  0  0  0  0  0  0
   -1.6169   -1.5333    2.1376 O   0  0  0  0  0  0  0  0  0  0  0  0
   -3.4697    1.3102    1.8027 C   0  0  0  0  0  0  0  0  0  0  0  0
   -3.8540   -1.6150    2.6687 H   0  0  0  0  0  0  0  0  0  0  0  0
   -3.5970   -0.1069    0.1861 H   0  0  0  0  0  0  0  0  0  0  0  0
   -3.1952    1.3372    2.8617 H   0  0  0  0  0  0  0  0  0  0  0  0
   -2.8177    1.9968    1.2542 H   0  0  0  0  0  0  0  0  0  0  0  0
   -4.5007    1.6629    1.6998 H   0  0  0  0  0  0  0  0  0  0  0  0
   -0.8925   -0.0158    0.6146 N   0  0  0  0  0  0  0  0  0  0  0  0
    0.5447   -0.3605    0.5479 C   0  0  2  0  0  0  0  0  0  0  0  0
    1.1590    0.3306   -0.6835 C   0  0  0  0  0  0  0  0  0  0  0  0
    2.0698    1.1358   -0.5484 O   0  0  0  0  0  0  0  0  0  0  0  0
    0.7996   -1.8708    0.4034 C   0  0  0  0  0  0  0  0  0  0  0  0
   -1.2035    0.7866    0.0546 H   0  0  0  0  0  0  0  0  0  0  0  0
    1.0533    0.0061    1.4459 H   0  0  0  0  0  0  0  0  0  0  0  0
    0.1685   -2.2984   -0.3818 H   0  0  0  0  0  0  0  0  0  0  0  0
    1.8481   -2.0558    0.1481 H   0  0  0  0  0  0  0  0  0  0  0  0
    0.5927   -2.3933    1.3415 H   0  0  0  0  0  0  0  0  0  0  0  0
    0.4672    0.2773   -1.8801 N   0  0  0  0  0  0  0  0  0  0  0  0
    0.3467    1.4766   -2.7188 C   0  0  2  0  0  0  0  0  0  0  0  0
   -0.7549    2.4204   -2.1817 C   0  0  0  0  0  0  0  0  0  0  0  0
   -1.5842    2.0027   -1.3745 O   0  0  0  0  0  0  0  0  0  0  0  0
    0.0239    1.0201   -4.1427 C   0  0  0  0  0  0  0  0  0  0  0  0
   -0.3686   -0.2999   -1.8257 H   0  0  0  0  0  0  0  0  0  0  0  0
    1.2939    2.0267   -2.7379 H   0  0  0  0  0  0  0  0  0  0  0  0
   -0.9308    0.4844   -4.1680 H   0  0  0  0  0  0  0  0  0  0  0  0
   -0.0425    1.8811   -4.8150 H   0  0  0  0  0  0  0  0  0  0  0  0
    0.8088    0.3526   -4.5129 H   0  0  0  0  0  0  0  0  0  0  0  0
   -0.8186    3.7373   -2.5951 N   0  0  0  0  0  0  0  0  0  0  0  0
   -1.8085    4.6848   -2.0968 C   0  0  0  0  0  0  0  0  0  0  0  0
   -0.0834    4.0734   -3.2108 H   0  0  0  0  0  0  0  0  0  0  0  0
   -2.8191    4.3609   -2.3674 H   0  0  0  0  0  0  0  0  0  0  0  0
   -1.7450    4.7688   -1.0067 H   0  0  0  0  0  0  0  0  0  0  0  0
   -1.6358    5.6749   -2.5294 H   0  0  0  0  0  0  0  0  0  0  0  0
  1  2  2  0  0  0  0
  1  3  1  0  0  0  0
  1  7  1  0  0  0  0
  3  4  1  0  0  0  0
  3  5  1  0  0  0  0
  3  6  1  0  0  0  0
  7  8  1  0  0  0  0
  7 12  1  0  0  0  0
  8  9  1  0  0  0  0
  8 11  1  0  0  0  0
  8 13  1  0  0  0  0
  9 10  2  0  0  0  0
  9 17  1  0  0  0  0
 11 14  1  0  0  0  0
 11 15  1  0  0  0  0
 11 16  1  0  0  0  0
 17 18  1  0  0  0  0
 17 22  1  0  0  0  0
 18 19  1  0  0  0  0
 18 21  1  0  0  0  0
 18 23  1  0  0  0  0
 19 20  2  0  0  0  0
 19 27  1  0  0  0  0
 21 24  1  0  0  0  0
 21 25  1  0  0  0  0
 21 26  1  0  0  0  0
 27 28  1  0  0  0  0
 27 32  1  0  0  0  0
 28 29  1  0  0  0  0
 28 31  1  0  0  0  0
 28 33  1  0  0  0  0
 29 30  2  0  0  0  0
 29 37  1  0  0  0  0
 31 34  1  0  0  0  0
 31 35  1  0  0  0  0
 31 36  1  0  0  0  0
 37 38  1  0  0  0  0
 37 39  1  0  0  0  0
 38 40  1  0  0  0  0
 38 41  1  0  0  0  0
 38 42  1  0  0  0  0
M  END
$$$$

  -OEChem-05262215353D

 42 41  0     1  0  0  0  0  0999 V2000
   -5.5964   -1.0958    1.6779 C   0  0  0  0  0  0  0  0  0  0  0  0
   -6.0812   -0.3698    0.8244 O   0  0  0  0  0  0  0  0  0  0  0  0
   -6.4416   -2.1780    2.3228 C   0  0  0  0  0  0  0  0  0  0  0  0
   -6.5376   -1.9872    3.3943 H   0  0  0  0  0  0  0  0  0  0  0  0
   -7.4397   -2.1930    1.8764 H   0  0  0  0  0  0  0  0  0  0  0  0
   -5.9751   -3.1547    2.1741 H   0  0  0  0  0  0  0  0  0  0  0  0
   -4.2780   -0.9443    2.0510 N   0  0  0  0  0  0  0  0  0  0  0  0
   -3.3251   -0.0428    1.3896 C   0  0  2  0  0  0  0  0  0  0  0  0
   -1.8958   -0.6274    1.3881 C   0  0  0  0  0  0  0  0  0  0  0  0
   -1.6365   -1.5964    2.0921 O   0  0  0  0  0  0  0  0  0  0  0  0
   -3.3556    1.3075    2.1119 C   0  0  0  0  0  0  0  0  0  0  0  0
   -3.8805   -1.6570    2.6619 H   0  0  0  0  0  0  0  0  0  0  0  0
   -3.6166    0.1047    0.3439 H   0  0  0  0  0  0  0  0  0  0  0  0
   -3.0442    1.1907    3.1546 H   0  0  0  0  0  0  0  0  0  0  0  0
   -2.6838    2.0205    1.6241 H   0  0  0  0  0  0  0  0  0  0  0  0
   -4.3677    1.7237    2.0935 H   0  0  0  0  0  0  0  0  0  0  0  0
   -0.9221   -0.0290    0.6080 N   0  0  0  0  0  0  0  0  0  0  0  0
    0.5136   -0.3798    0.5004 C   0  0  2  0  0  0  0  0  0  0  0  0
    1.1161    0.3010   -0.7454 C   0  0  0  0  0  0  0  0  0  0  0  0
    2.1866    0.8868   -0.6646 O   0  0  0  0  0  0  0  0  0  0  0  0
    0.7564   -1.8906    0.3436 C   0  0  0  0  0  0  0  0  0  0  0  0
   -1.2122    0.8539    0.1711 H   0  0  0  0  0  0  0  0  0  0  0  0
    1.0462   -0.0189    1.3868 H   0  0  0  0  0  0  0  0  0  0  0  0
    0.1063   -2.3087   -0.4311 H   0  0  0  0  0  0  0  0  0  0  0  0
    1.7980   -2.0817    0.0658 H   0  0  0  0  0  0  0  0  0  0  0  0
    0.5671   -2.4169    1.2828 H   0  0  0  0  0  0  0  0  0  0  0  0
    0.2943    0.5320   -1.8340 N   0  0  0  0  0  0  0  0  0  0  0  0
    0.2795    1.8399   -2.5015 C   0  0  2  0  0  0  0  0  0  0  0  0
   -0.7032    2.8024   -1.7947 C   0  0  0  0  0  0  0  0  0  0  0  0
   -1.5078    2.3635   -0.9735 O   0  0  0  0  0  0  0  0  0  0  0  0
   -0.1280    1.6170   -3.9593 C   0  0  0  0  0  0  0  0  0  0  0  0
   -0.6170    0.0906   -1.7342 H   0  0  0  0  0  0  0  0  0  0  0  0
    1.2768    2.2927   -2.4863 H   0  0  0  0  0  0  0  0  0  0  0  0
   -1.1334    1.1875   -4.0168 H   0  0  0  0  0  0  0  0  0  0  0  0
   -0.1221    2.5638   -4.5080 H   0  0  0  0  0  0  0  0  0  0  0  0
    0.5728    0.9315   -4.4465 H   0  0  0  0  0  0  0  0  0  0  0  0
   -0.6920    4.1554   -2.0751 N   0  0  0  0  0  0  0  0  0  0  0  0
   -1.5837    5.1143   -1.4330 C   0  0  0  0  0  0  0  0  0  0  0  0
    0.0187    4.4980   -2.7157 H   0  0  0  0  0  0  0  0  0  0  0  0
   -2.6299    4.8248   -1.5796 H   0  0  0  0  0  0  0  0  0  0  0  0
   -1.3802    5.1677   -0.3585 H   0  0  0  0  0  0  0  0  0  0  0  0
   -1.4400    6.1106   -1.8622 H   0  0  0  0  0  0  0  0  0  0  0  0
  1  2  2  0  0  0  0
  1  3  1  0  0  0  0
  1  7  1  0  0  0  0
  3  4  1  0  0  0  0
  3  5  1  0  0  0  0
  3  6  1  0  0  0  0
  7  8  1  0  0  0  0
  7 12  1  0  0  0  0
  8  9  1  0  0  0  0
  8 11  1  0  0  0  0
  8 13  1  0  0  0  0
  9 10  2  0  0  0  0
  9 17  1  0  0  0  0
 11 14  1  0  0  0  0
 11 15  1  0  0  0  0
 11 16  1  0  0  0  0
 17 18  1  0  0  0  0
 17 22  1  0  0  0  0
 18 19  1  0  0  0  0
 18 21  1  0  0  0  0
 18 23  1  0  0  0  0
 19 20  2  0  0  0  0
 19 27  1  0  0  0  0
 21 24  1  0  0  0  0
 21 25  1  0  0  0  0
 21 26  1  0  0  0  0
 27 28  1  0  0  0  0
 27 32  1  0  0  0  0
 28 29  1  0  0  0  0
 28 31  1  0  0  0  0
 28 33  1  0  0  0  0
 29 30  2  0  0  0  0
 29 37  1  0  0  0  0
 31 34  1  0  0  0  0
 31 35  1  0  0  0  0
 31 36  1  0  0  0  0
 37 38  1  0  0  0  0
 37 39  1  0  0  0  0
 38 40  1  0  0  0  0
 38 41  1  0  0  0  0
 38 42  1  0  0  0  0
M  END
$$$$

  -OEChem-05262215353D

 42 41  0     1  0  0  0  0  0999 V2000
   -5.4270   -1.1559    1.5674 C   0  0  0  0  0  0  0  0  0  0  0  0
   -5.7445   -0.7009    0.4797 O   0  0  0  0  0  0  0  0  0  0  0  0
   -6.2482   -2.2711    2.1873 C   0  0  0  0  0  0  0  0  0  0  0  0
   -6.6551   -1.9445    3.1474 H   0  0  0  0  0  0  0  0  0  0  0  0
   -7.0771   -2.5413    1.5269 H   0  0  0  0  0  0  0  0  0  0  0  0
   -5.6219   -3.1528    2.3449 H   0  0  0  0  0  0  0  0  0  0  0  0
   -4.3216   -0.6738    2.2374 N   0  0  0  0  0  0  0  0  0  0  0  0
   -3.3132    0.2034    1.6241 C   0  0  2  0  0  0  0  0  0  0  0  0
   -1.9474   -0.5027    1.4849 C   0  0  0  0  0  0  0  0  0  0  0  0
   -1.6976   -1.4800    2.1799 O   0  0  0  0  0  0  0  0  0  0  0  0
   -3.1861    1.4531    2.4982 C   0  0  0  0  0  0  0  0  0  0  0  0
   -3.9998   -1.2424    3.0183 H   0  0  0  0  0  0  0  0  0  0  0  0
   -3.6260    0.5138    0.6215 H   0  0  0  0  0  0  0  0  0  0  0  0
   -2.8418    1.1859    3.5025 H   0  0  0  0  0  0  0  0  0  0  0  0
   -2.4712    2.1566    2.0595 H   0  0  0  0  0  0  0  0  0  0  0  0
   -4.1550    1.9553    2.5818 H   0  0  0  0  0  0  0  0  0  0  0  0
   -1.0058    0.0278    0.6208 N   0  0  0  0  0  0  0  0  0  0  0  0
    0.3999   -0.3992    0.4204 C   0  0  2  0  0  0  0  0  0  0  0  0
    0.9631    0.2111   -0.8815 C   0  0  0  0  0  0  0  0  0  0  0  0
    2.1441    0.5240   -0.9391 O   0  0  0  0  0  0  0  0  0  0  0  0
    0.5495   -1.9247    0.2870 C   0  0  0  0  0  0  0  0  0  0  0  0
   -1.2492    0.9599    0.2678 H   0  0  0  0  0  0  0  0  0  0  0  0
    1.0108   -0.0492    1.2590 H   0  0  0  0  0  0  0  0  0  0  0  0
   -0.1792   -2.3228   -0.4260 H   0  0  0  0  0  0  0  0  0  0  0  0
    1.5551   -2.1806   -0.0629 H   0  0  0  0  0  0  0  0  0  0  0  0
    0.4049   -2.4190    1.2513 H   0  0  0  0  0  0  0  0  0  0  0  0
    0.0818    0.7493   -1.8017 N   0  0  0  0  0  0  0  0  0  0  0  0
    0.2450    2.1227   -2.2940 C   0  0  2  0  0  0  0  0  0  0  0  0
   -0.5492    3.1094   -1.4073 C   0  0  0  0  0  0  0  0  0  0  0  0
   -1.3645    2.6799   -0.5912 O   0  0  0  0  0  0  0  0  0  0  0  0
   -0.2487    2.1661   -3.7417 C   0  0  0  0  0  0  0  0  0  0  0  0
   -0.8817    0.4755   -1.6226 H   0  0  0  0  0  0  0  0  0  0  0  0
    1.2993    2.4196   -2.2782 H   0  0  0  0  0  0  0  0  0  0  0  0
   -1.3090    1.8984   -3.7956 H   0  0  0  0  0  0  0  0  0  0  0  0
   -0.1210    3.1687   -4.1615 H   0  0  0  0  0  0  0  0  0  0  0  0
    0.3209    1.4605   -4.3552 H   0  0  0  0  0  0  0  0  0  0  0  0
   -0.3467    4.4723   -1.5106 N   0  0  0  0  0  0  0  0  0  0  0  0
   -1.0495    5.4524   -0.6911 C   0  0  0  0  0  0  0  0  0  0  0  0
    0.3672    4.7949   -2.1581 H   0  0  0  0  0  0  0  0  0  0  0  0
   -2.1317    5.3698   -0.8377 H   0  0  0  0  0  0  0  0  0  0  0  0
   -0.8241    5.2985    0.3694 H   0  0  0  0  0  0  0  0  0  0  0  0
   -0.7416    6.4659   -0.9662 H   0  0  0  0  0  0  0  0  0  0  0  0
  1  2  2  0  0  0  0
  1  3  1  0  0  0  0
  1  7  1  0  0  0  0
  3  4  1  0  0  0  0
  3  5  1  0  0  0  0
  3  6  1  0  0  0  0
  7  8  1  0  0  0  0
  7 12  1  0  0  0  0
  8  9  1  0  0  0  0
  8 11  1  0  0  0  0
  8 13  1  0  0  0  0
  9 10  2  0  0  0  0
  9 17  1  0  0  0  0
 11 14  1  0  0  0  0
 11 15  1  0  0  0  0
 11 16  1  0  0  0  0
 17 18  1  0  0  0  0
 17 22  1  0  0  0  0
 18 19  1  0  0  0  0
 18 21  1  0  0  0  0
 18 23  1  0  0  0  0
 19 20  2  0  0  0  0
 19 27  1  0  0  0  0
 21 24  1  0  0  0  0
 21 25  1  0  0  0  0
 21 26  1  0  0  0  0
 27 28  1  0  0  0  0
 27 32  1  0  0  0  0
 28 29  1  0  0  0  0
 28 31  1  0  0  0  0
 28 33  1  0  0  0  0
 29 30  2  0  0  0  0
 29 37  1  0  0  0  0
 31 34  1  0  0  0  0
 31 35  1  0  0  0  0
 31 36  1  0  0  0  0
 37 38  1  0  0  0  0
 37 39  1  0  0  0  0
 38 40  1  0  0  0  0
 38 41  1  0  0  0  0
 38 42  1  0  0  0  0
M  END
$$$$

  -OEChem-05262215353D

 42 41  0     1  0  0  0  0  0999 V2000
   -5.5228   -1.1750    1.8142 C   0  0  0  0  0  0  0  0  0  0  0  0
   -5.8521   -0.2999    1.0294 O   0  0  0  0  0  0  0  0  0  0  0  0
   -6.4094   -2.3901    2.0080 C   0  0  0  0  0  0  0  0  0  0  0  0
   -6.6612   -2.5028    3.0653 H   0  0  0  0  0  0  0  0  0  0  0  0
   -7.3347   -2.2772    1.4358 H   0  0  0  0  0  0  0  0  0  0  0  0
   -5.8901   -3.2887    1.6653 H   0  0  0  0  0  0  0  0  0  0  0  0
   -4.3403   -1.0776    2.5176 N   0  0  0  0  0  0  0  0  0  0  0  0
   -3.2925   -0.0884    2.2284 C   0  0  2  0  0  0  0  0  0  0  0  0
   -1.9931   -0.7674    1.7472 C   0  0  0  0  0  0  0  0  0  0  0  0
   -1.7402   -1.9024    2.1299 O   0  0  0  0  0  0  0  0  0  0  0  0
   -3.0390    0.7089    3.5089 C   0  0  0  0  0  0  0  0  0  0  0  0
   -4.0356   -1.9263    2.9912 H   0  0  0  0  0  0  0  0  0  0  0  0
   -3.6171    0.6041    1.4446 H   0  0  0  0  0  0  0  0  0  0  0  0
   -2.6897    0.0484    4.3092 H   0  0  0  0  0  0  0  0  0  0  0  0
   -2.2813    1.4796    3.3376 H   0  0  0  0  0  0  0  0  0  0  0  0
   -3.9614    1.1981    3.8371 H   0  0  0  0  0  0  0  0  0  0  0  0
   -1.1056   -0.0533    0.9565 N   0  0  0  0  0  0  0  0  0  0  0  0
    0.2219   -0.4920    0.4547 C   0  0  2  0  0  0  0  0  0  0  0  0
    0.7406    0.4228   -0.6821 C   0  0  0  0  0  0  0  0  0  0  0  0
    1.8942    0.3226   -1.0776 O   0  0  0  0  0  0  0  0  0  0  0  0
    0.1857   -1.9249   -0.1156 C   0  0  0  0  0  0  0  0  0  0  0  0
   -1.3234    0.9370    0.8818 H   0  0  0  0  0  0  0  0  0  0  0  0
    0.9476   -0.4522    1.2735 H   0  0  0  0  0  0  0  0  0  0  0  0
   -0.6553   -2.0420   -0.8059 H   0  0  0  0  0  0  0  0  0  0  0  0
    1.1105   -2.1525   -0.6554 H   0  0  0  0  0  0  0  0  0  0  0  0
    0.0930   -2.6652    0.6828 H   0  0  0  0  0  0  0  0  0  0  0  0
   -0.0105    1.4972   -1.1200 N   0  0  0  0  0  0  0  0  0  0  0  0
    0.5220    2.6769   -1.8094 C   0  0  2  0  0  0  0  0  0  0  0  0
   -0.1342    3.9597   -1.2541 C   0  0  0  0  0  0  0  0  0  0  0  0
   -1.0549    3.8714   -0.4453 O   0  0  0  0  0  0  0  0  0  0  0  0
    0.2519    2.5178   -3.3075 C   0  0  0  0  0  0  0  0  0  0  0  0
   -0.9434    1.5968   -0.7303 H   0  0  0  0  0  0  0  0  0  0  0  0
    1.6015    2.7598   -1.6435 H   0  0  0  0  0  0  0  0  0  0  0  0
   -0.8244    2.4635   -3.4997 H   0  0  0  0  0  0  0  0  0  0  0  0
    0.6641    3.3631   -3.8662 H   0  0  0  0  0  0  0  0  0  0  0  0
    0.7191    1.5997   -3.6779 H   0  0  0  0  0  0  0  0  0  0  0  0
    0.3101    5.2098   -1.6430 N   0  0  0  0  0  0  0  0  0  0  0  0
   -0.2694    6.4534   -1.1489 C   0  0  0  0  0  0  0  0  0  0  0  0
    1.0847    5.2530   -2.2993 H   0  0  0  0  0  0  0  0  0  0  0  0
   -1.3391    6.4969   -1.3800 H   0  0  0  0  0  0  0  0  0  0  0  0
   -0.1395    6.5319   -0.0643 H   0  0  0  0  0  0  0  0  0  0  0  0
    0.2192    7.3124   -1.6188 H   0  0  0  0  0  0  0  0  0  0  0  0
  1  2  2  0  0  0  0
  1  3  1  0  0  0  0
  1  7  1  0  0  0  0
  3  4  1  0  0  0  0
  3  5  1  0  0  0  0
  3  6  1  0  0  0  0
  7  8  1  0  0  0  0
  7 12  1  0  0  0  0
  8  9  1  0  0  0  0
  8 11  1  0  0  0  0
  8 13  1  0  0  0  0
  9 10  2  0  0  0  0
  9 17  1  0  0  0  0
 11 14  1  0  0  0  0
 11 15  1  0  0  0  0
 11 16  1  0  0  0  0
 17 18  1  0  0  0  0
 17 22  1  0  0  0  0
 18 19  1  0  0  0  0
 18 21  1  0  0  0  0
 18 23  1  0  0  0  0
 19 20  2  0  0  0  0
 19 27  1  0  0  0  0
 21 24  1  0  0  0  0
 21 25  1  0  0  0  0
 21 26  1  0  0  0  0
 27 28  1  0  0  0  0
 27 32  1  0  0  0  0
 28 29  1  0  0  0  0
 28 31  1  0  0  0  0
 28 33  1  0  0  0  0
 29 30  2  0  0  0  0
 29 37  1  0  0  0  0
 31 34  1  0  0  0  0
 31 35  1  0  0  0  0
 31 36  1  0  0  0  0
 37 38  1  0  0  0  0
 37 39  1  0  0  0  0
 38 40  1  0  0  0  0
 38 41  1  0  0  0  0
 38 42  1  0  0  0  0
M  END
$$$$

  -OEChem-05262215353D

 42 41  0     1  0  0  0  0  0999 V2000
   -5.4514   -1.5715    1.7850 C   0  0  0  0  0  0  0  0  0  0  0  0
   -5.8340   -0.8748    0.8583 O   0  0  0  0  0  0  0  0  0  0  0  0
   -6.2015   -2.8426    2.1370 C   0  0  0  0  0  0  0  0  0  0  0  0
   -6.5968   -2.7724    3.1533 H   0  0  0  0  0  0  0  0  0  0  0  0
   -7.0346   -2.9930    1.4446 H   0  0  0  0  0  0  0  0  0  0  0  0
   -5.5314   -3.7033    2.0730 H   0  0  0  0  0  0  0  0  0  0  0  0
   -4.3348   -1.2145    2.5122 N   0  0  0  0  0  0  0  0  0  0  0  0
   -3.4061   -0.1440    2.1215 C   0  0  2  0  0  0  0  0  0  0  0  0
   -1.9874   -0.6896    1.8544 C   0  0  0  0  0  0  0  0  0  0  0  0
   -1.6320   -1.7369    2.3812 O   0  0  0  0  0  0  0  0  0  0  0  0
   -3.3809    0.8873    3.2518 C   0  0  0  0  0  0  0  0  0  0  0  0
   -3.9588   -1.9313    3.1307 H   0  0  0  0  0  0  0  0  0  0  0  0
   -3.7474    0.3491    1.2054 H   0  0  0  0  0  0  0  0  0  0  0  0
   -3.0199    0.4310    4.1792 H   0  0  0  0  0  0  0  0  0  0  0  0
   -2.7220    1.7226    2.9954 H   0  0  0  0  0  0  0  0  0  0  0  0
   -4.3869    1.2821    3.4255 H   0  0  0  0  0  0  0  0  0  0  0  0
   -1.0889    0.0601    1.1131 N   0  0  0  0  0  0  0  0  0  0  0  0
    0.1337   -0.4623    0.4565 C   0  0  2  0  0  0  0  0  0  0  0  0
    0.6893    0.5582   -0.5719 C   0  0  0  0  0  0  0  0  0  0  0  0
    1.4946    0.2322   -1.4342 O   0  0  0  0  0  0  0  0  0  0  0  0
   -0.1442   -1.7909   -0.2831 C   0  0  0  0  0  0  0  0  0  0  0  0
   -1.5156    0.8695    0.6705 H   0  0  0  0  0  0  0  0  0  0  0  0
    0.9049   -0.6297    1.2152 H   0  0  0  0  0  0  0  0  0  0  0  0
   -0.9500   -1.6620   -1.0122 H   0  0  0  0  0  0  0  0  0  0  0  0
    0.7510   -2.1307   -0.8136 H   0  0  0  0  0  0  0  0  0  0  0  0
   -0.4236   -2.5874    0.4101 H   0  0  0  0  0  0  0  0  0  0  0  0
    0.2497    1.8704   -0.5530 N   0  0  0  0  0  0  0  0  0  0  0  0
    0.7740    2.9359   -1.4164 C   0  0  2  0  0  0  0  0  0  0  0  0
    0.6532    4.3085   -0.7214 C   0  0  0  0  0  0  0  0  0  0  0  0
    0.0088    4.4092    0.3186 O   0  0  0  0  0  0  0  0  0  0  0  0
   -0.0070    2.9249   -2.7345 C   0  0  0  0  0  0  0  0  0  0  0  0
   -0.1904    2.1882    0.3098 H   0  0  0  0  0  0  0  0  0  0  0  0
    1.8360    2.7615   -1.6209 H   0  0  0  0  0  0  0  0  0  0  0  0
   -1.0719    3.0975   -2.5492 H   0  0  0  0  0  0  0  0  0  0  0  0
    0.3610    3.7052   -3.4071 H   0  0  0  0  0  0  0  0  0  0  0  0
    0.1071    1.9583   -3.2355 H   0  0  0  0  0  0  0  0  0  0  0  0
    1.2786    5.4245   -1.2455 N   0  0  0  0  0  0  0  0  0  0  0  0
    1.2150    6.7426   -0.6255 C   0  0  0  0  0  0  0  0  0  0  0  0
    1.8191    5.3064   -2.0978 H   0  0  0  0  0  0  0  0  0  0  0  0
    0.1761    7.0802   -0.5480 H   0  0  0  0  0  0  0  0  0  0  0  0
    1.6526    6.7159    0.3780 H   0  0  0  0  0  0  0  0  0  0  0  0
    1.7700    7.4704   -1.2253 H   0  0  0  0  0  0  0  0  0  0  0  0
  1  2  2  0  0  0  0
  1  3  1  0  0  0  0
  1  7  1  0  0  0  0
  3  4  1  0  0  0  0
  3  5  1  0  0  0  0
  3  6  1  0  0  0  0
  7  8  1  0  0  0  0
  7 12  1  0  0  0  0
  8  9  1  0  0  0  0
  8 11  1  0  0  0  0
  8 13  1  0  0  0  0
  9 10  2  0  0  0  0
  9 17  1  0  0  0  0
 11 14  1  0  0  0  0
 11 15  1  0  0  0  0
 11 16  1  0  0  0  0
 17 18  1  0  0  0  0
 17 22  1  0  0  0  0
 18 19  1  0  0  0  0
 18 21  1  0  0  0  0
 18 23  1  0  0  0  0
 19 20  2  0  0  0  0
 19 27  1  0  0  0  0
 21 24  1  0  0  0  0
 21 25  1  0  0  0  0
 21 26  1  0  0  0  0
 27 28  1  0  0  0  0
 27 32  1  0  0  0  0
 28 29  1  0  0  0  0
 28 31  1  0  0  0  0
 28 33  1  0  0  0  0
 29 30  2  0  0  0  0
 29 37  1  0  0  0  0
 31 34  1  0  0  0  0
 31 35  1  0  0  0  0
 31 36  1  0  0  0  0
 37 38  1  0  0  0  0
 37 39  1  0  0  0  0
 38 40  1  0  0  0  0
 38 41  1  0  0  0  0
 38 42  1  0  0  0  0
M  END
$$$$

  -OEChem-05262215353D

 42 41  0     1  0  0  0  0  0999 V2000
   -5.5181   -1.3516    1.7978 C   0  0  0  0  0  0  0  0  0  0  0  0
   -5.9348   -0.5131    1.0142 O   0  0  0  0  0  0  0  0  0  0  0  0
   -6.3332   -2.5990    2.0819 C   0  0  0  0  0  0  0  0  0  0  0  0
   -6.5623   -2.6589    3.1486 H   0  0  0  0  0  0  0  0  0  0  0  0
   -7.2720   -2.5728    1.5215 H   0  0  0  0  0  0  0  0  0  0  0  0
   -5.7705   -3.4881    1.7864 H   0  0  0  0  0  0  0  0  0  0  0  0
   -4.3018   -1.1763    2.4233 N   0  0  0  0  0  0  0  0  0  0  0  0
   -3.3363   -0.1261    2.0732 C   0  0  2  0  0  0  0  0  0  0  0  0
   -1.9328   -0.7111    1.8123 C   0  0  0  0  0  0  0  0  0  0  0  0
   -1.6226   -1.7853    2.3122 O   0  0  0  0  0  0  0  0  0  0  0  0
   -3.2957    0.8786    3.2269 C   0  0  0  0  0  0  0  0  0  0  0  0
   -3.9314   -1.9795    2.9294 H   0  0  0  0  0  0  0  0  0  0  0  0
   -3.6492    0.3935    1.1616 H   0  0  0  0  0  0  0  0  0  0  0  0
   -2.9677    0.3899    4.1502 H   0  0  0  0  0  0  0  0  0  0  0  0
   -2.6040    1.6959    3.0012 H   0  0  0  0  0  0  0  0  0  0  0  0
   -4.2907    1.3044    3.3914 H   0  0  0  0  0  0  0  0  0  0  0  0
   -1.0058    0.0252    1.0938 N   0  0  0  0  0  0  0  0  0  0  0  0
    0.2338   -0.4960    0.4720 C   0  0  2  0  0  0  0  0  0  0  0  0
    0.7907    0.5446   -0.5346 C   0  0  0  0  0  0  0  0  0  0  0  0
    1.4000    0.2240   -1.5468 O   0  0  0  0  0  0  0  0  0  0  0  0
   -0.0107   -1.8329   -0.2648 C   0  0  0  0  0  0  0  0  0  0  0  0
   -1.3896    0.8700    0.6771 H   0  0  0  0  0  0  0  0  0  0  0  0
    0.9886   -0.6532    1.2489 H   0  0  0  0  0  0  0  0  0  0  0  0
   -0.8113   -1.7234   -1.0030 H   0  0  0  0  0  0  0  0  0  0  0  0
    0.8966   -2.1585   -0.7834 H   0  0  0  0  0  0  0  0  0  0  0  0
   -0.2810   -2.6310    0.4299 H   0  0  0  0  0  0  0  0  0  0  0  0
    0.5657    1.8907   -0.3081 N   0  0  0  0  0  0  0  0  0  0  0  0
    1.0955    2.9787   -1.1400 C   0  0  2  0  0  0  0  0  0  0  0  0
    1.2327    4.2805   -0.3225 C   0  0  0  0  0  0  0  0  0  0  0  0
    0.7539    4.3462    0.8055 O   0  0  0  0  0  0  0  0  0  0  0  0
    0.1557    3.1891   -2.3326 C   0  0  0  0  0  0  0  0  0  0  0  0
    0.2690    2.1544    0.6318 H   0  0  0  0  0  0  0  0  0  0  0  0
    2.0926    2.7112   -1.5061 H   0  0  0  0  0  0  0  0  0  0  0  0
   -0.8447    3.4680   -1.9869 H   0  0  0  0  0  0  0  0  0  0  0  0
    0.5329    3.9821   -2.9851 H   0  0  0  0  0  0  0  0  0  0  0  0
    0.0765    2.2702   -2.9221 H   0  0  0  0  0  0  0  0  0  0  0  0
    1.8986    5.3738   -0.8444 N   0  0  0  0  0  0  0  0  0  0  0  0
    2.0589    6.6325   -0.1263 C   0  0  0  0  0  0  0  0  0  0  0  0
    2.2919    5.2854   -1.7770 H   0  0  0  0  0  0  0  0  0  0  0  0
    1.0818    7.0560    0.1296 H   0  0  0  0  0  0  0  0  0  0  0  0
    2.6280    6.4773    0.7962 H   0  0  0  0  0  0  0  0  0  0  0  0
    2.5963    7.3561   -0.7472 H   0  0  0  0  0  0  0  0  0  0  0  0
  1  2  2  0  0  0  0
  1  3  1  0  0  0  0
  1  7  1  0  0  0  0
  3  4  1  0  0  0  0
  3  5  1  0  0  0  0
  3  6  1  0  0  0  0
  7  8  1  0  0  0  0
  7 12  1  0  0  0  0
  8  9  1  0  0  0  0
  8 11  1  0  0  0  0
  8 13  1  0  0  0  0
  9 10  2  0  0  0  0
  9 17  1  0  0  0  0
 11 14  1  0  0  0  0
 11 15  1  0  0  0  0
 11 16  1  0  0  0  0
 17 18  1  0  0  0  0
 17 22  1  0  0  0  0
 18 19  1  0  0  0  0
 18 21  1  0  0  0  0
 18 23  1  0  0  0  0
 19 20  2  0  0  0  0
 19 27  1  0  0  0  0
 21 24  1  0  0  0  0
 21 25  1  0  0  0  0
 21 26  1  0  0  0  0
 27 28  1  0  0  0  0
 27 32  1  0  0  0  0
 28 29  1  0  0  0  0
 28 31  1  0  0  0  0
 28 33  1  0  0  0  0
 29 30  2  0  0  0  0
 29 37  1  0  0  0  0
 31 34  1  0  0  0  0
 31 35  1  0  0  0  0
 31 36  1  0  0  0  0
 37 38  1  0  0  0  0
 37 39  1  0  0  0  0
 38 40  1  0  0  0  0
 38 41  1  0  0  0  0
 38 42  1  0  0  0  0
M  END
$$$$

  -OEChem-05262215353D

 42 41  0     1  0  0  0  0  0999 V2000
   -5.5566   -1.2807    1.8666 C   0  0  0  0  0  0  0  0  0  0  0  0
   -6.0194   -0.3941    1.1663 O   0  0  0  0  0  0  0  0  0  0  0  0
   -6.3827   -2.5136    2.1802 C   0  0  0  0  0  0  0  0  0  0  0  0
   -6.5692   -2.5734    3.2551 H   0  0  0  0  0  0  0  0  0  0  0  0
   -7.3422   -2.4684    1.6577 H   0  0  0  0  0  0  0  0  0  0  0  0
   -5.8495   -3.4118    1.8592 H   0  0  0  0  0  0  0  0  0  0  0  0
   -4.2778   -1.1705    2.3699 N   0  0  0  0  0  0  0  0  0  0  0  0
   -3.3211   -0.1252    1.9839 C   0  0  2  0  0  0  0  0  0  0  0  0
   -1.9101   -0.7071    1.7533 C   0  0  0  0  0  0  0  0  0  0  0  0
   -1.6115   -1.7846    2.2535 O   0  0  0  0  0  0  0  0  0  0  0  0
   -3.2996    0.9282    3.0948 C   0  0  0  0  0  0  0  0  0  0  0  0
   -3.8890   -1.9943    2.8272 H   0  0  0  0  0  0  0  0  0  0  0  0
   -3.6360    0.3476    1.0476 H   0  0  0  0  0  0  0  0  0  0  0  0
   -2.9745    0.4806    4.0398 H   0  0  0  0  0  0  0  0  0  0  0  0
   -2.6150    1.7432    2.8410 H   0  0  0  0  0  0  0  0  0  0  0  0
   -4.3005    1.3495    3.2344 H   0  0  0  0  0  0  0  0  0  0  0  0
   -0.9689    0.0253    1.0493 N   0  0  0  0  0  0  0  0  0  0  0  0
    0.2913   -0.4896    0.4680 C   0  0  2  0  0  0  0  0  0  0  0  0
    0.8448    0.5568   -0.5322 C   0  0  0  0  0  0  0  0  0  0  0  0
    1.2300    0.2693   -1.6583 O   0  0  0  0  0  0  0  0  0  0  0  0
    0.0943   -1.8435   -0.2501 C   0  0  0  0  0  0  0  0  0  0  0  0
   -1.3292    0.8852    0.6416 H   0  0  0  0  0  0  0  0  0  0  0  0
    1.0299   -0.6211    1.2650 H   0  0  0  0  0  0  0  0  0  0  0  0
   -0.7040   -1.7695   -0.9951 H   0  0  0  0  0  0  0  0  0  0  0  0
    1.0161   -2.1450   -0.7581 H   0  0  0  0  0  0  0  0  0  0  0  0
   -0.1560   -2.6391    0.4554 H   0  0  0  0  0  0  0  0  0  0  0  0
    0.8568    1.8872   -0.1562 N   0  0  0  0  0  0  0  0  0  0  0  0
    1.4101    2.9824   -0.9621 C   0  0  2  0  0  0  0  0  0  0  0  0
    1.8794    4.1476   -0.0658 C   0  0  0  0  0  0  0  0  0  0  0  0
    1.5669    4.1698    1.1203 O   0  0  0  0  0  0  0  0  0  0  0  0
    0.3348    3.4589   -1.9452 C   0  0  0  0  0  0  0  0  0  0  0  0
    0.6985    2.0907    0.8314 H   0  0  0  0  0  0  0  0  0  0  0  0
    2.2816    2.6247   -1.5209 H   0  0  0  0  0  0  0  0  0  0  0  0
   -0.5428    3.8262   -1.4036 H   0  0  0  0  0  0  0  0  0  0  0  0
    0.7192    4.2671   -2.5747 H   0  0  0  0  0  0  0  0  0  0  0  0
    0.0227    2.6361   -2.5966 H   0  0  0  0  0  0  0  0  0  0  0  0
    2.6648    5.1614   -0.5819 N   0  0  0  0  0  0  0  0  0  0  0  0
    3.1637    6.2745    0.2171 C   0  0  0  0  0  0  0  0  0  0  0  0
    2.9234    5.1043   -1.5628 H   0  0  0  0  0  0  0  0  0  0  0  0
    2.3315    6.8482    0.6386 H   0  0  0  0  0  0  0  0  0  0  0  0
    3.7905    5.9086    1.0373 H   0  0  0  0  0  0  0  0  0  0  0  0
    3.7651    6.9454   -0.4037 H   0  0  0  0  0  0  0  0  0  0  0  0
  1  2  2  0  0  0  0
  1  3  1  0  0  0  0
  1  7  1  0  0  0  0
  3  4  1  0  0  0  0
  3  5  1  0  0  0  0
  3  6  1  0  0  0  0
  7  8  1  0  0  0  0
  7 12  1  0  0  0  0
  8  9  1  0  0  0  0
  8 11  1  0  0  0  0
  8 13  1  0  0  0  0
  9 10  2  0  0  0  0
  9 17  1  0  0  0  0
 11 14  1  0  0  0  0
 11 15  1  0  0  0  0
 11 16  1  0  0  0  0
 17 18  1  0  0  0  0
 17 22  1  0  0  0  0
 18 19  1  0  0  0  0
 18 21  1  0  0  0  0
 18 23  1  0  0  0  0
 19 20  2  0  0  0  0
 19 27  1  0  0  0  0
 21 24  1  0  0  0  0
 21 25  1  0  0  0  0
 21 26  1  0  0  0  0
 27 28  1  0  0  0  0
 27 32  1  0  0  0  0
 28 29  1  0  0  0  0
 28 31  1  0  0  0  0
 28 33  1  0  0  0  0
 29 30  2  0  0  0  0
 29 37  1  0  0  0  0
 31 34  1  0  0  0  0
 31 35  1  0  0  0  0
 31 36  1  0  0  0  0
 37 38  1  0  0  0  0
 37 39  1  0  0  0  0
 38 40  1  0  0  0  0
 38 41  1  0  0  0  0
 38 42  1  0  0  0  0
M  END
$$$$

  -OEChem-05262215353D

 42 41  0     1  0  0  0  0  0999 V2000
   -5.5850   -1.2718    1.9497 C   0  0  0  0  0  0  0  0  0  0  0  0
   -6.0860   -0.3563    1.3158 O   0  0  0  0  0  0  0  0  0  0  0  0
   -6.4133   -2.4898    2.3130 C   0  0  0  0  0  0  0  0  0  0  0  0
   -6.5019   -2.5699    3.3993 H   0  0  0  0  0  0  0  0  0  0  0  0
   -7.4152   -2.4061    1.8823 H   0  0  0  0  0  0  0  0  0  0  0  0
   -5.9380   -3.3941    1.9248 H   0  0  0  0  0  0  0  0  0  0  0  0
   -4.2614   -1.2042    2.3296 N   0  0  0  0  0  0  0  0  0  0  0  0
   -3.3279   -0.1561    1.8987 C   0  0  2  0  0  0  0  0  0  0  0  0
   -1.8992   -0.7102    1.7160 C   0  0  0  0  0  0  0  0  0  0  0  0
   -1.5941   -1.7820    2.2251 O   0  0  0  0  0  0  0  0  0  0  0  0
   -3.3459    0.9640    2.9433 C   0  0  0  0  0  0  0  0  0  0  0  0
   -3.8506   -2.0385    2.7479 H   0  0  0  0  0  0  0  0  0  0  0  0
   -3.6465    0.2478    0.9316 H   0  0  0  0  0  0  0  0  0  0  0  0
   -3.0208    0.5837    3.9171 H   0  0  0  0  0  0  0  0  0  0  0  0
   -2.6785    1.7787    2.6466 H   0  0  0  0  0  0  0  0  0  0  0  0
   -4.3578    1.3690    3.0471 H   0  0  0  0  0  0  0  0  0  0  0  0
   -0.9548    0.0346    1.0302 N   0  0  0  0  0  0  0  0  0  0  0  0
    0.3156   -0.4697    0.4675 C   0  0  2  0  0  0  0  0  0  0  0  0
    0.8741    0.5855   -0.5186 C   0  0  0  0  0  0  0  0  0  0  0  0
    0.9983    0.3769   -1.7188 O   0  0  0  0  0  0  0  0  0  0  0  0
    0.1404   -1.8228   -0.2562 C   0  0  0  0  0  0  0  0  0  0  0  0
   -1.3154    0.8926    0.6192 H   0  0  0  0  0  0  0  0  0  0  0  0
    1.0435   -0.6007    1.2745 H   0  0  0  0  0  0  0  0  0  0  0  0
   -0.6695   -1.7643   -0.9902 H   0  0  0  0  0  0  0  0  0  0  0  0
    1.0621   -2.0979   -0.7789 H   0  0  0  0  0  0  0  0  0  0  0  0
   -0.0830   -2.6259    0.4501 H   0  0  0  0  0  0  0  0  0  0  0  0
    1.1647    1.8488   -0.0399 N   0  0  0  0  0  0  0  0  0  0  0  0
    1.7699    2.9272   -0.8330 C   0  0  2  0  0  0  0  0  0  0  0  0
    2.5962    3.8786    0.0580 C   0  0  0  0  0  0  0  0  0  0  0  0
    2.5031    3.8084    1.2791 O   0  0  0  0  0  0  0  0  0  0  0  0
    0.6536    3.6949   -1.5492 C   0  0  0  0  0  0  0  0  0  0  0  0
    1.1752    1.9711    0.9735 H   0  0  0  0  0  0  0  0  0  0  0  0
    2.4509    2.5005   -1.5773 H   0  0  0  0  0  0  0  0  0  0  0  0
   -0.0367    4.1337   -0.8218 H   0  0  0  0  0  0  0  0  0  0  0  0
    1.0714    4.4992   -2.1619 H   0  0  0  0  0  0  0  0  0  0  0  0
    0.0898    3.0230   -2.2040 H   0  0  0  0  0  0  0  0  0  0  0  0
    3.4529    4.8058   -0.5058 N   0  0  0  0  0  0  0  0  0  0  0  0
    4.2762    5.7159    0.2813 C   0  0  0  0  0  0  0  0  0  0  0  0
    3.5217    4.8301   -1.5192 H   0  0  0  0  0  0  0  0  0  0  0  0
    3.6481    6.3445    0.9213 H   0  0  0  0  0  0  0  0  0  0  0  0
    4.9715    5.1541    0.9138 H   0  0  0  0  0  0  0  0  0  0  0  0
    4.8581    6.3668   -0.3783 H   0  0  0  0  0  0  0  0  0  0  0  0
  1  2  2  0  0  0  0
  1  3  1  0  0  0  0
  1  7  1  0  0  0  0
  3  4  1  0  0  0  0
  3  5  1  0  0  0  0
  3  6  1  0  0  0  0
  7  8  1  0  0  0  0
  7 12  1  0  0  0  0
  8  9  1  0  0  0  0
  8 11  1  0  0  0  0
  8 13  1  0  0  0  0
  9 10  2  0  0  0  0
  9 17  1  0  0  0  0
 11 14  1  0  0  0  0
 11 15  1  0  0  0  0
 11 16  1  0  0  0  0
 17 18  1  0  0  0  0
 17 22  1  0  0  0  0
 18 19  1  0  0  0  0
 18 21  1  0  0  0  0
 18 23  1  0  0  0  0
 19 20  2  0  0  0  0
 19 27  1  0  0  0  0
 21 24  1  0  0  0  0
 21 25  1  0  0  0  0
 21 26  1  0  0  0  0
 27 28  1  0  0  0  0
 27 32  1  0  0  0  0
 28 29  1  0  0  0  0
 28 31  1  0  0  0  0
 28 33  1  0  0  0  0
 29 30  2  0  0  0  0
 29 37  1  0  0  0  0
 31 34  1  0  0  0  0
 31 35  1  0  0  0  0
 31 36  1  0  0  0  0
 37 38  1  0  0  0  0
 37 39  1  0  0  0  0
 38 40  1  0  0  0  0
 38 41  1  0  0  0  0
 38 42  1  0  0  0  0
M  END
$$$$

  -OEChem-05262215353D

 42 41  0     1  0  0  0  0  0999 V2000
   -5.5932   -1.2717    1.9681 C   0  0  0  0  0  0  0  0  0  0  0  0
   -6.1058   -0.3581    1.3409 O   0  0  0  0  0  0  0  0  0  0  0  0
   -6.4160   -2.4846    2.3592 C   0  0  0  0  0  0  0  0  0  0  0  0
   -6.4435   -2.5812    3.4472 H   0  0  0  0  0  0  0  0  0  0  0  0
   -7.4397   -2.3813    1.9887 H   0  0  0  0  0  0  0  0  0  0  0  0
   -5.9759   -3.3885    1.9312 H   0  0  0  0  0  0  0  0  0  0  0  0
   -4.2613   -1.2056    2.3172 N   0  0  0  0  0  0  0  0  0  0  0  0
   -3.3366   -0.1583    1.8659 C   0  0  2  0  0  0  0  0  0  0  0  0
   -1.9007   -0.7012    1.7017 C   0  0  0  0  0  0  0  0  0  0  0  0
   -1.5958   -1.7757    2.2062 O   0  0  0  0  0  0  0  0  0  0  0  0
   -3.3714    0.9866    2.8833 C   0  0  0  0  0  0  0  0  0  0  0  0
   -3.8429   -2.0367    2.7341 H   0  0  0  0  0  0  0  0  0  0  0  0
   -3.6566    0.2178    0.8881 H   0  0  0  0  0  0  0  0  0  0  0  0
   -3.0498    0.6327    3.8682 H   0  0  0  0  0  0  0  0  0  0  0  0
   -2.7100    1.8006    2.5720 H   0  0  0  0  0  0  0  0  0  0  0  0
   -4.3877    1.3841    2.9706 H   0  0  0  0  0  0  0  0  0  0  0  0
   -0.9492    0.0518    1.0348 N   0  0  0  0  0  0  0  0  0  0  0  0
    0.3255   -0.4524    0.4851 C   0  0  2  0  0  0  0  0  0  0  0  0
    0.9017    0.6058   -0.4847 C   0  0  0  0  0  0  0  0  0  0  0  0
    0.7587    0.5286   -1.6985 O   0  0  0  0  0  0  0  0  0  0  0  0
    0.1552   -1.7936   -0.2607 C   0  0  0  0  0  0  0  0  0  0  0  0
   -1.3095    0.9038    0.6108 H   0  0  0  0  0  0  0  0  0  0  0  0
    1.0420   -0.5986    1.2996 H   0  0  0  0  0  0  0  0  0  0  0  0
   -0.6691   -1.7337   -0.9784 H   0  0  0  0  0  0  0  0  0  0  0  0
    1.0705   -2.0445   -0.8062 H   0  0  0  0  0  0  0  0  0  0  0  0
   -0.0456   -2.6121    0.4354 H   0  0  0  0  0  0  0  0  0  0  0  0
    1.4837    1.7448    0.0370 N   0  0  0  0  0  0  0  0  0  0  0  0
    2.1244    2.7972   -0.7625 C   0  0  2  0  0  0  0  0  0  0  0  0
    3.2720    3.4747    0.0155 C   0  0  0  0  0  0  0  0  0  0  0  0
    3.4099    3.2611    1.2153 O   0  0  0  0  0  0  0  0  0  0  0  0
    1.0607    3.8273   -1.1552 C   0  0  0  0  0  0  0  0  0  0  0  0
    1.6784    1.7538    1.0388 H   0  0  0  0  0  0  0  0  0  0  0  0
    2.5574    2.3605   -1.6690 H   0  0  0  0  0  0  0  0  0  0  0  0
    0.6209    4.2828   -0.2623 H   0  0  0  0  0  0  0  0  0  0  0  0
    1.5005    4.6184   -1.7697 H   0  0  0  0  0  0  0  0  0  0  0  0
    0.2627    3.3490   -1.7320 H   0  0  0  0  0  0  0  0  0  0  0  0
    4.1558    4.3195   -0.6304 N   0  0  0  0  0  0  0  0  0  0  0  0
    5.2652    4.9841    0.0426 C   0  0  0  0  0  0  0  0  0  0  0  0
    4.0284    4.4627   -1.6281 H   0  0  0  0  0  0  0  0  0  0  0  0
    4.8973    5.6057    0.8659 H   0  0  0  0  0  0  0  0  0  0  0  0
    5.9675    4.2459    0.4441 H   0  0  0  0  0  0  0  0  0  0  0  0
    5.8032    5.6269   -0.6609 H   0  0  0  0  0  0  0  0  0  0  0  0
  1  2  2  0  0  0  0
  1  3  1  0  0  0  0
  1  7  1  0  0  0  0
  3  4  1  0  0  0  0
  3  5  1  0  0  0  0
  3  6  1  0  0  0  0
  7  8  1  0  0  0  0
  7 12  1  0  0  0  0
  8  9  1  0  0  0  0
  8 11  1  0  0  0  0
  8 13  1  0  0  0  0
  9 10  2  0  0  0  0
  9 17  1  0  0  0  0
 11 14  1  0  0  0  0
 11 15  1  0  0  0  0
 11 16  1  0  0  0  0
 17 18  1  0  0  0  0
 17 22  1  0  0  0  0
 18 19  1  0  0  0  0
 18 21  1  0  0  0  0
 18 23  1  0  0  0  0
 19 20  2  0  0  0  0
 19 27  1  0  0  0  0
 21 24  1  0  0  0  0
 21 25  1  0  0  0  0
 21 26  1  0  0  0  0
 27 28  1  0  0  0  0
 27 32  1  0  0  0  0
 28 29  1  0  0  0  0
 28 31  1  0  0  0  0
 28 33  1  0  0  0  0
 29 30  2  0  0  0  0
 29 37  1  0  0  0  0
 31 34  1  0  0  0  0
 31 35  1  0  0  0  0
 31 36  1  0  0  0  0
 37 38  1  0  0  0  0
 37 39  1  0  0  0  0
 38 40  1  0  0  0  0
 38 41  1  0  0  0  0
 38 42  1  0  0  0  0
M  END
$$$$

  -OEChem-05262215353D

 42 41  0     1  0  0  0  0  0999 V2000
   -5.5866   -1.2369    1.9355 C   0  0  0  0  0  0  0  0  0  0  0  0
   -6.0867   -0.3002    1.3329 O   0  0  0  0  0  0  0  0  0  0  0  0
   -6.4185   -2.4620    2.2664 C   0  0  0  0  0  0  0  0  0  0  0  0
   -6.4792   -2.5904    3.3497 H   0  0  0  0  0  0  0  0  0  0  0  0
   -7.4307   -2.3504    1.8676 H   0  0  0  0  0  0  0  0  0  0  0  0
   -5.9631   -3.3524    1.8260 H   0  0  0  0  0  0  0  0  0  0  0  0
   -4.2595   -1.1887    2.3059 N   0  0  0  0  0  0  0  0  0  0  0  0
   -3.3228   -0.1326    1.9014 C   0  0  2  0  0  0  0  0  0  0  0  0
   -1.8875   -0.6784    1.7432 C   0  0  0  0  0  0  0  0  0  0  0  0
   -1.5872   -1.7546    2.2472 O   0  0  0  0  0  0  0  0  0  0  0  0
   -3.3658    0.9796    2.9540 C   0  0  0  0  0  0  0  0  0  0  0  0
   -3.8513   -2.0348    2.7021 H   0  0  0  0  0  0  0  0  0  0  0  0
   -3.6252    0.2766    0.9313 H   0  0  0  0  0  0  0  0  0  0  0  0
   -3.0638    0.5924    3.9326 H   0  0  0  0  0  0  0  0  0  0  0  0
   -2.6920    1.7967    2.6790 H   0  0  0  0  0  0  0  0  0  0  0  0
   -4.3801    1.3834    3.0368 H   0  0  0  0  0  0  0  0  0  0  0  0
   -0.9295    0.0710    1.0825 N   0  0  0  0  0  0  0  0  0  0  0  0
    0.3389   -0.4471    0.5341 C   0  0  2  0  0  0  0  0  0  0  0  0
    0.9367    0.6009   -0.4309 C   0  0  0  0  0  0  0  0  0  0  0  0
    0.5415    0.7001   -1.5859 O   0  0  0  0  0  0  0  0  0  0  0  0
    0.1536   -1.7724   -0.2329 C   0  0  0  0  0  0  0  0  0  0  0  0
   -1.2879    0.9147    0.6401 H   0  0  0  0  0  0  0  0  0  0  0  0
    1.0480   -0.6135    1.3511 H   0  0  0  0  0  0  0  0  0  0  0  0
   -0.6715   -1.6925   -0.9481 H   0  0  0  0  0  0  0  0  0  0  0  0
    1.0655   -2.0229   -0.7843 H   0  0  0  0  0  0  0  0  0  0  0  0
   -0.0555   -2.5986    0.4516 H   0  0  0  0  0  0  0  0  0  0  0  0
    1.8011    1.5628    0.0544 N   0  0  0  0  0  0  0  0  0  0  0  0
    2.4518    2.5906   -0.7690 C   0  0  2  0  0  0  0  0  0  0  0  0
    3.8325    2.9812   -0.2006 C   0  0  0  0  0  0  0  0  0  0  0  0
    4.1686    2.5976    0.9147 O   0  0  0  0  0  0  0  0  0  0  0  0
    1.5304    3.8129   -0.8352 C   0  0  0  0  0  0  0  0  0  0  0  0
    2.1766    1.4271    0.9935 H   0  0  0  0  0  0  0  0  0  0  0  0
    2.6144    2.2043   -1.7811 H   0  0  0  0  0  0  0  0  0  0  0  0
    1.3703    4.2255    0.1659 H   0  0  0  0  0  0  0  0  0  0  0  0
    1.9677    4.5910   -1.4677 H   0  0  0  0  0  0  0  0  0  0  0  0
    0.5595    3.5342   -1.2566 H   0  0  0  0  0  0  0  0  0  0  0  0
    4.7045    3.7548   -0.9445 N   0  0  0  0  0  0  0  0  0  0  0  0
    6.0287    4.1452   -0.4751 C   0  0  0  0  0  0  0  0  0  0  0  0
    4.4060    4.0428   -1.8720 H   0  0  0  0  0  0  0  0  0  0  0  0
    5.9515    4.7340    0.4452 H   0  0  0  0  0  0  0  0  0  0  0  0
    6.6417    3.2598   -0.2764 H   0  0  0  0  0  0  0  0  0  0  0  0
    6.5353    4.7521   -1.2318 H   0  0  0  0  0  0  0  0  0  0  0  0
  1  2  2  0  0  0  0
  1  3  1  0  0  0  0
  1  7  1  0  0  0  0
  3  4  1  0  0  0  0
  3  5  1  0  0  0  0
  3  6  1  0  0  0  0
  7  8  1  0  0  0  0
  7 12  1  0  0  0  0
  8  9  1  0  0  0  0
  8 11  1  0  0  0  0
  8 13  1  0  0  0  0
  9 10  2  0  0  0  0
  9 17  1  0  0  0  0
 11 14  1  0  0  0  0
 11 15  1  0  0  0  0
 11 16  1  0  0  0  0
 17 18  1  0  0  0  0
 17 22  1  0  0  0  0
 18 19  1  0  0  0  0
 18 21  1  0  0  0  0
 18 23  1  0  0  0  0
 19 20  2  0  0  0  0
 19 27  1  0  0  0  0
 21 24  1  0  0  0  0
 21 25  1  0  0  0  0
 21 26  1  0  0  0  0
 27 28  1  0  0  0  0
 27 32  1  0  0  0  0
 28 29  1  0  0  0  0
 28 31  1  0  0  0  0
 28 33  1  0  0  0  0
 29 30  2  0  0  0  0
 29 37  1  0  0  0  0
 31 34  1  0  0  0  0
 31 35  1  0  0  0  0
 31 36  1  0  0  0  0
 37 38  1  0  0  0  0
 37 39  1  0  0  0  0
 38 40  1  0  0  0  0
 38 41  1  0  0  0  0
 38 42  1  0  0  0  0
M  END
$$$$

  -OEChem-05262215353D

 42 41  0     1  0  0  0  0  0999 V2000
   -5.5761   -1.2464    1.9485 C   0  0  0  0  0  0  0  0  0  0  0  0
   -6.0864   -0.3363    1.3146 O   0  0  0  0  0  0  0  0  0  0  0  0
   -6.3965   -2.4653    2.3260 C   0  0  0  0  0  0  0  0  0  0  0  0
   -6.4620   -2.5487    3.4134 H   0  0  0  0  0  0  0  0  0  0  0  0
   -7.4071   -2.3804    1.9170 H   0  0  0  0  0  0  0  0  0  0  0  0
   -5.9295   -3.3683    1.9254 H   0  0  0  0  0  0  0  0  0  0  0  0
   -4.2490   -1.1735    2.3140 N   0  0  0  0  0  0  0  0  0  0  0  0
   -3.3207   -0.1278    1.8661 C   0  0  2  0  0  0  0  0  0  0  0  0
   -1.8817   -0.6708    1.7339 C   0  0  0  0  0  0  0  0  0  0  0  0
   -1.5874   -1.7483    2.2400 O   0  0  0  0  0  0  0  0  0  0  0  0
   -3.3736    1.0285    2.8692 C   0  0  0  0  0  0  0  0  0  0  0  0
   -3.8320   -2.0031    2.7353 H   0  0  0  0  0  0  0  0  0  0  0  0
   -3.6238    0.2368    0.8785 H   0  0  0  0  0  0  0  0  0  0  0  0
   -3.0611    0.6878    3.8614 H   0  0  0  0  0  0  0  0  0  0  0  0
   -2.7129    1.8420    2.5548 H   0  0  0  0  0  0  0  0  0  0  0  0
   -4.3928    1.4218    2.9403 H   0  0  0  0  0  0  0  0  0  0  0  0
   -0.9127    0.0785    1.0911 N   0  0  0  0  0  0  0  0  0  0  0  0
    0.3527   -0.4490    0.5499 C   0  0  2  0  0  0  0  0  0  0  0  0
    0.9653    0.6047   -0.3955 C   0  0  0  0  0  0  0  0  0  0  0  0
    0.3860    0.9215   -1.4275 O   0  0  0  0  0  0  0  0  0  0  0  0
    0.1587   -1.7501   -0.2525 C   0  0  0  0  0  0  0  0  0  0  0  0
   -1.2655    0.9141    0.6273 H   0  0  0  0  0  0  0  0  0  0  0  0
    1.0488   -0.6408    1.3724 H   0  0  0  0  0  0  0  0  0  0  0  0
   -0.6416   -1.6321   -0.9902 H   0  0  0  0  0  0  0  0  0  0  0  0
    1.0811   -2.0099   -0.7812 H   0  0  0  0  0  0  0  0  0  0  0  0
   -0.0927   -2.5871    0.4044 H   0  0  0  0  0  0  0  0  0  0  0  0
    2.0534    1.3517    0.0104 N   0  0  0  0  0  0  0  0  0  0  0  0
    2.7233    2.3629   -0.8173 C   0  0  2  0  0  0  0  0  0  0  0  0
    4.2367    2.4206   -0.5219 C   0  0  0  0  0  0  0  0  0  0  0  0
    4.6952    1.8364    0.4542 O   0  0  0  0  0  0  0  0  0  0  0  0
    2.0687    3.7216   -0.5488 C   0  0  0  0  0  0  0  0  0  0  0  0
    2.5587    1.0354    0.8384 H   0  0  0  0  0  0  0  0  0  0  0  0
    2.6081    2.1094   -1.8766 H   0  0  0  0  0  0  0  0  0  0  0  0
    2.1814    4.0001    0.5040 H   0  0  0  0  0  0  0  0  0  0  0  0
    2.5289    4.4985   -1.1666 H   0  0  0  0  0  0  0  0  0  0  0  0
    1.0010    3.6818   -0.7865 H   0  0  0  0  0  0  0  0  0  0  0  0
    5.0886    3.1183   -1.3579 N   0  0  0  0  0  0  0  0  0  0  0  0
    6.5295    3.1937   -1.1491 C   0  0  0  0  0  0  0  0  0  0  0  0
    4.6844    3.5700   -2.1734 H   0  0  0  0  0  0  0  0  0  0  0  0
    6.7527    3.6028   -0.1579 H   0  0  0  0  0  0  0  0  0  0  0  0
    6.9801    2.1988   -1.2293 H   0  0  0  0  0  0  0  0  0  0  0  0
    6.9879    3.8435   -1.9009 H   0  0  0  0  0  0  0  0  0  0  0  0
  1  2  2  0  0  0  0
  1  3  1  0  0  0  0
  1  7  1  0  0  0  0
  3  4  1  0  0  0  0
  3  5  1  0  0  0  0
  3  6  1  0  0  0  0
  7  8  1  0  0  0  0
  7 12  1  0  0  0  0
  8  9  1  0  0  0  0
  8 11  1  0  0  0  0
  8 13  1  0  0  0  0
  9 10  2  0  0  0  0
  9 17  1  0  0  0  0
 11 14  1  0  0  0  0
 11 15  1  0  0  0  0
 11 16  1  0  0  0  0
 17 18  1  0  0  0  0
 17 22  1  0  0  0  0
 18 19  1  0  0  0  0
 18 21  1  0  0  0  0
 18 23  1  0  0  0  0
 19 20  2  0  0  0  0
 19 27  1  0  0  0  0
 21 24  1  0  0  0  0
 21 25  1  0  0  0  0
 21 26  1  0  0  0  0
 27 28  1  0  0  0  0
 27 32  1  0  0  0  0
 28 29  1  0  0  0  0
 28 31  1  0  0  0  0
 28 33  1  0  0  0  0
 29 30  2  0  0  0  0
 29 37  1  0  0  0  0
 31 34  1  0  0  0  0
 31 35  1  0  0  0  0
 31 36  1  0  0  0  0
 37 38  1  0  0  0  0
 37 39  1  0  0  0  0
 38 40  1  0  0  0  0
 38 41  1  0  0  0  0
 38 42  1  0  0  0  0
M  END
$$$$

  -OEChem-05262215353D

 42 41  0     1  0  0  0  0  0999 V2000
   -5.5712   -1.2180    1.9517 C   0  0  0  0  0  0  0  0  0  0  0  0
   -6.0717   -0.2938    1.3306 O   0  0  0  0  0  0  0  0  0  0  0  0
   -6.4074   -2.4288    2.3201 C   0  0  0  0  0  0  0  0  0  0  0  0
   -6.5226   -2.4855    3.4051 H   0  0  0  0  0  0  0  0  0  0  0  0
   -7.3980   -2.3557    1.8627 H   0  0  0  0  0  0  0  0  0  0  0  0
   -5.9222   -3.3407    1.9636 H   0  0  0  0  0  0  0  0  0  0  0  0
   -4.2422   -1.1685    2.3139 N   0  0  0  0  0  0  0  0  0  0  0  0
   -3.3024   -0.1264    1.8817 C   0  0  2  0  0  0  0  0  0  0  0  0
   -1.8676   -0.6790    1.7435 C   0  0  0  0  0  0  0  0  0  0  0  0
   -1.5815   -1.7653    2.2355 O   0  0  0  0  0  0  0  0  0  0  0  0
   -3.3472    1.0164    2.9012 C   0  0  0  0  0  0  0  0  0  0  0  0
   -3.8359   -2.0082    2.7253 H   0  0  0  0  0  0  0  0  0  0  0  0
   -3.6006    0.2539    0.8986 H   0  0  0  0  0  0  0  0  0  0  0  0
   -3.0347    0.6608    3.8882 H   0  0  0  0  0  0  0  0  0  0  0  0
   -2.6831    1.8309    2.5967 H   0  0  0  0  0  0  0  0  0  0  0  0
   -4.3641    1.4141    2.9802 H   0  0  0  0  0  0  0  0  0  0  0  0
   -0.8928    0.0699    1.1094 N   0  0  0  0  0  0  0  0  0  0  0  0
    0.3713   -0.4565    0.5650 C   0  0  2  0  0  0  0  0  0  0  0  0
    0.9941    0.5999   -0.3698 C   0  0  0  0  0  0  0  0  0  0  0  0
    0.3146    1.1124   -1.2520 O   0  0  0  0  0  0  0  0  0  0  0  0
    0.1743   -1.7413   -0.2608 C   0  0  0  0  0  0  0  0  0  0  0  0
   -1.2359    0.9140    0.6523 H   0  0  0  0  0  0  0  0  0  0  0  0
    1.0631   -0.6604    1.3884 H   0  0  0  0  0  0  0  0  0  0  0  0
   -0.6134   -1.6005   -1.0080 H   0  0  0  0  0  0  0  0  0  0  0  0
    1.1009   -2.0046   -0.7805 H   0  0  0  0  0  0  0  0  0  0  0  0
   -0.0975   -2.5855    0.3784 H   0  0  0  0  0  0  0  0  0  0  0  0
    2.2472    1.1164   -0.1060 N   0  0  0  0  0  0  0  0  0  0  0  0
    2.9404    2.0892   -0.9598 C   0  0  2  0  0  0  0  0  0  0  0  0
    4.4662    1.8571   -0.9496 C   0  0  0  0  0  0  0  0  0  0  0  0
    4.9674    1.1153   -0.1114 O   0  0  0  0  0  0  0  0  0  0  0  0
    2.6036    3.4973   -0.4606 C   0  0  0  0  0  0  0  0  0  0  0  0
    2.8207    0.6293    0.5829 H   0  0  0  0  0  0  0  0  0  0  0  0
    2.6002    1.9821   -1.9953 H   0  0  0  0  0  0  0  0  0  0  0  0
    2.9446    3.6290    0.5712 H   0  0  0  0  0  0  0  0  0  0  0  0
    3.0864    4.2533   -1.0868 H   0  0  0  0  0  0  0  0  0  0  0  0
    1.5221    3.6625   -0.4943 H   0  0  0  0  0  0  0  0  0  0  0  0
    5.2781    2.4669   -1.8882 N   0  0  0  0  0  0  0  0  0  0  0  0
    6.7224    2.2733   -1.9437 C   0  0  0  0  0  0  0  0  0  0  0  0
    4.8333    3.0585   -2.5842 H   0  0  0  0  0  0  0  0  0  0  0  0
    7.1879    2.5861   -1.0030 H   0  0  0  0  0  0  0  0  0  0  0  0
    6.9620    1.2196   -2.1218 H   0  0  0  0  0  0  0  0  0  0  0  0
    7.1531    2.8674   -2.7554 H   0  0  0  0  0  0  0  0  0  0  0  0
  1  2  2  0  0  0  0
  1  3  1  0  0  0  0
  1  7  1  0  0  0  0
  3  4  1  0  0  0  0
  3  5  1  0  0  0  0
  3  6  1  0  0  0  0
  7  8  1  0  0  0  0
  7 12  1  0  0  0  0
  8  9  1  0  0  0  0
  8 11  1  0  0  0  0
  8 13  1  0  0  0  0
  9 10  2  0  0  0  0
  9 17  1  0  0  0  0
 11 14  1  0  0  0  0
 11 15  1  0  0  0  0
 11 16  1  0  0  0  0
 17 18  1  0  0  0  0
 17 22  1  0  0  0  0
 18 19  1  0  0  0  0
 18 21  1  0  0  0  0
 18 23  1  0  0  0  0
 19 20  2  0  0  0  0
 19 27  1  0  0  0  0
 21 24  1  0  0  0  0
 21 25  1  0  0  0  0
 21 26  1  0  0  0  0
 27 28  1  0  0  0  0
 27 32  1  0  0  0  0
 28 29  1  0  0  0  0
 28 31  1  0  0  0  0
 28 33  1  0  0  0  0
 29 30  2  0  0  0  0
 29 37  1  0  0  0  0
 31 34  1  0  0  0  0
 31 35  1  0  0  0  0
 31 36  1  0  0  0  0
 37 38  1  0  0  0  0
 37 39  1  0  0  0  0
 38 40  1  0  0  0  0
 38 41  1  0  0  0  0
 38 42  1  0  0  0  0
M  END
$$$$

  -OEChem-05262215353D

 42 41  0     1  0  0  0  0  0999 V2000
   -5.5636   -1.1902    1.9590 C   0  0  0  0  0  0  0  0  0  0  0  0
   -6.0523   -0.2619    1.3346 O   0  0  0  0  0  0  0  0  0  0  0  0
   -6.4101   -2.3991    2.3103 C   0  0  0  0  0  0  0  0  0  0  0  0
   -6.5336   -2.4657    3.3940 H   0  0  0  0  0  0  0  0  0  0  0  0
   -7.3968   -2.3148    1.8463 H   0  0  0  0  0  0  0  0  0  0  0  0
   -5.9284   -3.3107    1.9482 H   0  0  0  0  0  0  0  0  0  0  0  0
   -4.2383   -1.1483    2.3362 N   0  0  0  0  0  0  0  0  0  0  0  0
   -3.2862   -0.1171    1.9037 C   0  0  2  0  0  0  0  0  0  0  0  0
   -1.8620   -0.6917    1.7463 C   0  0  0  0  0  0  0  0  0  0  0  0
   -1.5920   -1.7914    2.2175 O   0  0  0  0  0  0  0  0  0  0  0  0
   -3.3040    1.0171    2.9331 C   0  0  0  0  0  0  0  0  0  0  0  0
   -3.8399   -1.9941    2.7431 H   0  0  0  0  0  0  0  0  0  0  0  0
   -3.5870    0.2780    0.9271 H   0  0  0  0  0  0  0  0  0  0  0  0
   -2.9895    0.6484    3.9148 H   0  0  0  0  0  0  0  0  0  0  0  0
   -2.6291    1.8232    2.6295 H   0  0  0  0  0  0  0  0  0  0  0  0
   -4.3138    1.4300    3.0231 H   0  0  0  0  0  0  0  0  0  0  0  0
   -0.8789    0.0512    1.1185 N   0  0  0  0  0  0  0  0  0  0  0  0
    0.3867   -0.4745    0.5770 C   0  0  2  0  0  0  0  0  0  0  0  0
    1.0207    0.5808   -0.3527 C   0  0  0  0  0  0  0  0  0  0  0  0
    0.3064    1.2673   -1.0754 O   0  0  0  0  0  0  0  0  0  0  0  0
    0.1904   -1.7509   -0.2605 C   0  0  0  0  0  0  0  0  0  0  0  0
   -1.2048    0.9120    0.6783 H   0  0  0  0  0  0  0  0  0  0  0  0
    1.0727   -0.6843    1.4036 H   0  0  0  0  0  0  0  0  0  0  0  0
   -0.5840   -1.5957   -1.0185 H   0  0  0  0  0  0  0  0  0  0  0  0
    1.1224   -2.0204   -0.7675 H   0  0  0  0  0  0  0  0  0  0  0  0
   -0.1003   -2.5965    0.3685 H   0  0  0  0  0  0  0  0  0  0  0  0
    2.3694    0.8666   -0.2735 N   0  0  0  0  0  0  0  0  0  0  0  0
    3.0774    1.7899   -1.1695 C   0  0  2  0  0  0  0  0  0  0  0  0
    4.5180    1.3073   -1.4422 C   0  0  0  0  0  0  0  0  0  0  0  0
    5.0041    0.4139   -0.7568 O   0  0  0  0  0  0  0  0  0  0  0  0
    3.0830    3.1784   -0.5233 C   0  0  0  0  0  0  0  0  0  0  0  0
    2.9529    0.2286    0.2683 H   0  0  0  0  0  0  0  0  0  0  0  0
    2.5611    1.8425   -2.1343 H   0  0  0  0  0  0  0  0  0  0  0  0
    3.6032    3.1503    0.4397 H   0  0  0  0  0  0  0  0  0  0  0  0
    3.5859    3.9029   -1.1709 H   0  0  0  0  0  0  0  0  0  0  0  0
    2.0570    3.5213   -0.3554 H   0  0  0  0  0  0  0  0  0  0  0  0
    5.2640    1.8564   -2.4685 N   0  0  0  0  0  0  0  0  0  0  0  0
    6.6165    1.4212   -2.7956 C   0  0  0  0  0  0  0  0  0  0  0  0
    4.8266    2.5752   -3.0375 H   0  0  0  0  0  0  0  0  0  0  0  0
    7.2789    1.5457   -1.9326 H   0  0  0  0  0  0  0  0  0  0  0  0
    6.6189    0.3673   -3.0924 H   0  0  0  0  0  0  0  0  0  0  0  0
    7.0150    2.0147   -3.6238 H   0  0  0  0  0  0  0  0  0  0  0  0
  1  2  2  0  0  0  0
  1  3  1  0  0  0  0
  1  7  1  0  0  0  0
  3  4  1  0  0  0  0
  3  5  1  0  0  0  0
  3  6  1  0  0  0  0
  7  8  1  0  0  0  0
  7 12  1  0  0  0  0
  8  9  1  0  0  0  0
  8 11  1  0  0  0  0
  8 13  1  0  0  0  0
  9 10  2  0  0  0  0
  9 17  1  0  0  0  0
 11 14  1  0  0  0  0
 11 15  1  0  0  0  0
 11 16  1  0  0  0  0
 17 18  1  0  0  0  0
 17 22  1  0  0  0  0
 18 19  1  0  0  0  0
 18 21  1  0  0  0  0
 18 23  1  0  0  0  0
 19 20  2  0  0  0  0
 19 27  1  0  0  0  0
 21 24  1  0  0  0  0
 21 25  1  0  0  0  0
 21 26  1  0  0  0  0
 27 28  1  0  0  0  0
 27 32  1  0  0  0  0
 28 29  1  0  0  0  0
 28 31  1  0  0  0  0
 28 33  1  0  0  0  0
 29 30  2  0  0  0  0
 29 37  1  0  0  0  0
 31 34  1  0  0  0  0
 31 35  1  0  0  0  0
 31 36  1  0  0  0  0
 37 38  1  0  0  0  0
 37 39  1  0  0  0  0
 38 40  1  0  0  0  0
 38 41  1  0  0  0  0
 38 42  1  0  0  0  0
M  END
$$$$

  -OEChem-05262215353D

 42 41  0     1  0  0  0  0  0999 V2000
   -5.5460   -1.1457    1.9307 C   0  0  0  0  0  0  0  0  0  0  0  0
   -6.0097   -0.1967    1.3184 O   0  0  0  0  0  0  0  0  0  0  0  0
   -6.4093   -2.3591    2.2215 C   0  0  0  0  0  0  0  0  0  0  0  0
   -6.5390   -2.4753    3.3003 H   0  0  0  0  0  0  0  0  0  0  0  0
   -7.3928   -2.2415    1.7582 H   0  0  0  0  0  0  0  0  0  0  0  0
   -5.9369   -3.2587    1.8194 H   0  0  0  0  0  0  0  0  0  0  0  0
   -4.2317   -1.1254    2.3462 N   0  0  0  0  0  0  0  0  0  0  0  0
   -3.2558   -0.0996    1.9557 C   0  0  2  0  0  0  0  0  0  0  0  0
   -1.8447   -0.6998    1.7815 C   0  0  0  0  0  0  0  0  0  0  0  0
   -1.5933   -1.8096    2.2390 O   0  0  0  0  0  0  0  0  0  0  0  0
   -3.2489    0.9950    3.0270 C   0  0  0  0  0  0  0  0  0  0  0  0
   -3.8528   -1.9878    2.7362 H   0  0  0  0  0  0  0  0  0  0  0  0
   -3.5440    0.3391    0.9941 H   0  0  0  0  0  0  0  0  0  0  0  0
   -2.9498    0.5818    3.9958 H   0  0  0  0  0  0  0  0  0  0  0  0
   -2.5500    1.7930    2.7580 H   0  0  0  0  0  0  0  0  0  0  0  0
   -4.2479    1.4313    3.1263 H   0  0  0  0  0  0  0  0  0  0  0  0
   -0.8543    0.0302    1.1505 N   0  0  0  0  0  0  0  0  0  0  0  0
    0.4102   -0.5000    0.6112 C   0  0  2  0  0  0  0  0  0  0  0  0
    1.0500    0.5487   -0.3232 C   0  0  0  0  0  0  0  0  0  0  0  0
    0.3472    1.3855   -0.8814 O   0  0  0  0  0  0  0  0  0  0  0  0
    0.2051   -1.7766   -0.2240 C   0  0  0  0  0  0  0  0  0  0  0  0
   -1.1599    0.9086    0.7296 H   0  0  0  0  0  0  0  0  0  0  0  0
    1.0965   -0.7084    1.4382 H   0  0  0  0  0  0  0  0  0  0  0  0
   -0.5667   -1.6158   -0.9835 H   0  0  0  0  0  0  0  0  0  0  0  0
    1.1347   -2.0572   -0.7289 H   0  0  0  0  0  0  0  0  0  0  0  0
   -0.0937   -2.6184    0.4060 H   0  0  0  0  0  0  0  0  0  0  0  0
    2.4217    0.6164   -0.4674 N   0  0  0  0  0  0  0  0  0  0  0  0
    3.1094    1.4787   -1.4369 C   0  0  2  0  0  0  0  0  0  0  0  0
    4.3830    0.7980   -1.9810 C   0  0  0  0  0  0  0  0  0  0  0  0
    4.8144   -0.2151   -1.4406 O   0  0  0  0  0  0  0  0  0  0  0  0
    3.4511    2.8048   -0.7507 C   0  0  0  0  0  0  0  0  0  0  0  0
    2.9702   -0.1532   -0.0822 H   0  0  0  0  0  0  0  0  0  0  0  0
    2.4532    1.6733   -2.2921 H   0  0  0  0  0  0  0  0  0  0  0  0
    4.1220    2.6356    0.0977 H   0  0  0  0  0  0  0  0  0  0  0  0
    3.9404    3.4863   -1.4527 H   0  0  0  0  0  0  0  0  0  0  0  0
    2.5394    3.2868   -0.3836 H   0  0  0  0  0  0  0  0  0  0  0  0
    5.0346    1.3058   -3.0897 N   0  0  0  0  0  0  0  0  0  0  0  0
    6.2230    0.6912   -3.6690 C   0  0  0  0  0  0  0  0  0  0  0  0
    4.6375    2.1279   -3.5354 H   0  0  0  0  0  0  0  0  0  0  0  0
    7.0311    0.6486   -2.9312 H   0  0  0  0  0  0  0  0  0  0  0  0
    6.0015   -0.3263   -4.0079 H   0  0  0  0  0  0  0  0  0  0  0  0
    6.5703    1.2737   -4.5278 H   0  0  0  0  0  0  0  0  0  0  0  0
  1  2  2  0  0  0  0
  1  3  1  0  0  0  0
  1  7  1  0  0  0  0
  3  4  1  0  0  0  0
  3  5  1  0  0  0  0
  3  6  1  0  0  0  0
  7  8  1  0  0  0  0
  7 12  1  0  0  0  0
  8  9  1  0  0  0  0
  8 11  1  0  0  0  0
  8 13  1  0  0  0  0
  9 10  2  0  0  0  0
  9 17  1  0  0  0  0
 11 14  1  0  0  0  0
 11 15  1  0  0  0  0
 11 16  1  0  0  0  0
 17 18  1  0  0  0  0
 17 22  1  0  0  0  0
 18 19  1  0  0  0  0
 18 21  1  0  0  0  0
 18 23  1  0  0  0  0
 19 20  2  0  0  0  0
 19 27  1  0  0  0  0
 21 24  1  0  0  0  0
 21 25  1  0  0  0  0
 21 26  1  0  0  0  0
 27 28  1  0  0  0  0
 27 32  1  0  0  0  0
 28 29  1  0  0  0  0
 28 31  1  0  0  0  0
 28 33  1  0  0  0  0
 29 30  2  0  0  0  0
 29 37  1  0  0  0  0
 31 34  1  0  0  0  0
 31 35  1  0  0  0  0
 31 36  1  0  0  0  0
 37 38  1  0  0  0  0
 37 39  1  0  0  0  0
 38 40  1  0  0  0  0
 38 41  1  0  0  0  0
 38 42  1  0  0  0  0
M  END
$$$$

  -OEChem-05262215353D

 42 41  0     1  0  0  0  0  0999 V2000
   -5.5608   -1.1387    1.9785 C   0  0  0  0  0  0  0  0  0  0  0  0
   -6.0313   -0.2104    1.3405 O   0  0  0  0  0  0  0  0  0  0  0  0
   -6.4276   -2.3276    2.3474 C   0  0  0  0  0  0  0  0  0  0  0  0
   -6.5064   -2.4085    3.4340 H   0  0  0  0  0  0  0  0  0  0  0  0
   -7.4307   -2.2086    1.9289 H   0  0  0  0  0  0  0  0  0  0  0  0
   -5.9881   -3.2462    1.9515 H   0  0  0  0  0  0  0  0  0  0  0  0
   -4.2351   -1.1185    2.3550 N   0  0  0  0  0  0  0  0  0  0  0  0
   -3.2591   -0.1175    1.9051 C   0  0  2  0  0  0  0  0  0  0  0  0
   -1.8539   -0.7359    1.7381 C   0  0  0  0  0  0  0  0  0  0  0  0
   -1.6230   -1.8541    2.1857 O   0  0  0  0  0  0  0  0  0  0  0  0
   -3.2345    1.0231    2.9269 C   0  0  0  0  0  0  0  0  0  0  0  0
   -3.8542   -1.9708    2.7648 H   0  0  0  0  0  0  0  0  0  0  0  0
   -3.5575    0.2799    0.9288 H   0  0  0  0  0  0  0  0  0  0  0  0
   -2.9316    0.6492    3.9101 H   0  0  0  0  0  0  0  0  0  0  0  0
   -2.5317    1.8026    2.6174 H   0  0  0  0  0  0  0  0  0  0  0  0
   -4.2288    1.4725    3.0157 H   0  0  0  0  0  0  0  0  0  0  0  0
   -0.8453   -0.0172    1.1227 N   0  0  0  0  0  0  0  0  0  0  0  0
    0.4252   -0.5511    0.6000 C   0  0  2  0  0  0  0  0  0  0  0  0
    1.0867    0.4963   -0.3230 C   0  0  0  0  0  0  0  0  0  0  0  0
    0.4520    1.4770   -0.7001 O   0  0  0  0  0  0  0  0  0  0  0  0
    0.2184   -1.8266   -0.2391 C   0  0  0  0  0  0  0  0  0  0  0  0
   -1.1172    0.8881    0.7362 H   0  0  0  0  0  0  0  0  0  0  0  0
    1.1000   -0.7654    1.4347 H   0  0  0  0  0  0  0  0  0  0  0  0
   -0.5413   -1.6580   -1.0090 H   0  0  0  0  0  0  0  0  0  0  0  0
    1.1504   -2.1208   -0.7316 H   0  0  0  0  0  0  0  0  0  0  0  0
   -0.0982   -2.6650    0.3867 H   0  0  0  0  0  0  0  0  0  0  0  0
    2.4124    0.3697   -0.6883 N   0  0  0  0  0  0  0  0  0  0  0  0
    3.0766    1.2075   -1.6943 C   0  0  2  0  0  0  0  0  0  0  0  0
    4.0852    0.3857   -2.5245 C   0  0  0  0  0  0  0  0  0  0  0  0
    4.3819   -0.7525   -2.1762 O   0  0  0  0  0  0  0  0  0  0  0  0
    3.7761    2.3612   -0.9710 C   0  0  0  0  0  0  0  0  0  0  0  0
    2.8695   -0.5162   -0.4711 H   0  0  0  0  0  0  0  0  0  0  0  0
    2.3360    1.6141   -2.3914 H   0  0  0  0  0  0  0  0  0  0  0  0
    4.5227    1.9762   -0.2690 H   0  0  0  0  0  0  0  0  0  0  0  0
    4.2769    3.0185   -1.6878 H   0  0  0  0  0  0  0  0  0  0  0  0
    3.0454    2.9547   -0.4123 H   0  0  0  0  0  0  0  0  0  0  0  0
    4.6459    0.9111   -3.6740 N   0  0  0  0  0  0  0  0  0  0  0  0
    5.5791    0.1735   -4.5174 C   0  0  0  0  0  0  0  0  0  0  0  0
    4.3626    1.8460   -3.9532 H   0  0  0  0  0  0  0  0  0  0  0  0
    6.4639   -0.1220   -3.9436 H   0  0  0  0  0  0  0  0  0  0  0  0
    5.1031   -0.7271   -4.9195 H   0  0  0  0  0  0  0  0  0  0  0  0
    5.9048    0.7962   -5.3563 H   0  0  0  0  0  0  0  0  0  0  0  0
  1  2  2  0  0  0  0
  1  3  1  0  0  0  0
  1  7  1  0  0  0  0
  3  4  1  0  0  0  0
  3  5  1  0  0  0  0
  3  6  1  0  0  0  0
  7  8  1  0  0  0  0
  7 12  1  0  0  0  0
  8  9  1  0  0  0  0
  8 11  1  0  0  0  0
  8 13  1  0  0  0  0
  9 10  2  0  0  0  0
  9 17  1  0  0  0  0
 11 14  1  0  0  0  0
 11 15  1  0  0  0  0
 11 16  1  0  0  0  0
 17 18  1  0  0  0  0
 17 22  1  0  0  0  0
 18 19  1  0  0  0  0
 18 21  1  0  0  0  0
 18 23  1  0  0  0  0
 19 20  2  0  0  0  0
 19 27  1  0  0  0  0
 21 24  1  0  0  0  0
 21 25  1  0  0  0  0
 21 26  1  0  0  0  0
 27 28  1  0  0  0  0
 27 32  1  0  0  0  0
 28 29  1  0  0  0  0
 28 31  1  0  0  0  0
 28 33  1  0  0  0  0
 29 30  2  0  0  0  0
 29 37  1  0  0  0  0
 31 34  1  0  0  0  0
 31 35  1  0  0  0  0
 31 36  1  0  0  0  0
 37 38  1  0  0  0  0
 37 39  1  0  0  0  0
 38 40  1  0  0  0  0
 38 41  1  0  0  0  0
 38 42  1  0  0  0  0
M  END
$$$$
