
  -OEChem-05262214473D

 42 41  0     1  0  0  0  0  0999 V2000
   -5.7851   -0.9580    0.6237 C   0  0  0  0  0  0  0  0  0  0  0  0
   -6.2213    0.1296    0.2652 O   0  0  0  0  0  0  0  0  0  0  0  0
   -6.7088   -2.1270    0.7168 C   0  0  0  0  0  0  0  0  0  0  0  0
   -7.1713   -2.2193    1.7126 H   0  0  0  0  0  0  0  0  0  0  0  0
   -7.5511   -2.0547    0.0101 H   0  0  0  0  0  0  0  0  0  0  0  0
   -6.2485   -3.1083    0.5191 H   0  0  0  0  0  0  0  0  0  0  0  0
   -4.4733   -1.2411    0.9668 N   0  0  0  0  0  0  0  0  0  0  0  0
   -3.4203   -0.2603    0.9449 C   0  0  2  0  0  0  0  0  0  0  0  0
   -2.1242   -0.9699    0.5759 C   0  0  0  0  0  0  0  0  0  0  0  0
   -1.8694   -2.1225    0.9189 O   0  0  0  0  0  0  0  0  0  0  0  0
   -3.2916    0.4435    2.2868 C   0  0  0  0  0  0  0  0  0  0  0  0
   -4.2421   -2.1920    1.2489 H   0  0  0  0  0  0  0  0  0  0  0  0
   -3.6772    0.4622    0.1625 H   0  0  0  0  0  0  0  0  0  0  0  0
   -3.0345   -0.2644    3.0832 H   0  0  0  0  0  0  0  0  0  0  0  0
   -2.5093    1.2092    2.2599 H   0  0  0  0  0  0  0  0  0  0  0  0
   -4.2338    0.9283    2.5645 H   0  0  0  0  0  0  0  0  0  0  0  0
   -1.2626   -0.1515   -0.1463 N   0  0  0  0  0  0  0  0  0  0  0  0
    0.0431   -0.5785   -0.5755 C   0  0  2  0  0  0  0  0  0  0  0  0
    0.6896    0.5742   -1.3324 C   0  0  0  0  0  0  0  0  0  0  0  0
    0.1206    1.6440   -1.5390 O   0  0  0  0  0  0  0  0  0  0  0  0
   -0.0400   -1.8221   -1.4468 C   0  0  0  0  0  0  0  0  0  0  0  0
   -1.5766    0.7776   -0.4197 H   0  0  0  0  0  0  0  0  0  0  0  0
    0.6204   -0.7903    0.3311 H   0  0  0  0  0  0  0  0  0  0  0  0
   -0.6149   -1.6292   -2.3599 H   0  0  0  0  0  0  0  0  0  0  0  0
    0.9560   -2.1622   -1.7489 H   0  0  0  0  0  0  0  0  0  0  0  0
   -0.5321   -2.6411   -0.9111 H   0  0  0  0  0  0  0  0  0  0  0  0
    1.9635    0.2553   -1.7901 N   0  0  0  0  0  0  0  0  0  0  0  0
    2.7633    1.1638   -2.5688 C   0  0  2  0  0  0  0  0  0  0  0  0
    3.6144    0.3394   -3.5256 C   0  0  0  0  0  0  0  0  0  0  0  0
    4.0640   -0.7682   -3.2390 O   0  0  0  0  0  0  0  0  0  0  0  0
    3.6355    2.0354   -1.6787 C   0  0  0  0  0  0  0  0  0  0  0  0
    2.3696   -0.6429   -1.5354 H   0  0  0  0  0  0  0  0  0  0  0  0
    2.0674    1.7862   -3.1418 H   0  0  0  0  0  0  0  0  0  0  0  0
    4.3393    1.4292   -1.0967 H   0  0  0  0  0  0  0  0  0  0  0  0
    4.2221    2.7454   -2.2710 H   0  0  0  0  0  0  0  0  0  0  0  0
    3.0236    2.6052   -0.9712 H   0  0  0  0  0  0  0  0  0  0  0  0
    3.8487    1.0045   -4.7209 N   0  0  0  0  0  0  0  0  0  0  0  0
    4.6647    0.4491   -5.7753 C   0  0  0  0  0  0  0  0  0  0  0  0
    3.4035    1.9019   -4.8890 H   0  0  0  0  0  0  0  0  0  0  0  0
    5.7028    0.7926   -5.6558 H   0  0  0  0  0  0  0  0  0  0  0  0
    4.6337   -0.6493   -5.7227 H   0  0  0  0  0  0  0  0  0  0  0  0
    4.2789    0.7805   -6.7506 H   0  0  0  0  0  0  0  0  0  0  0  0
  1  3  1  0  0  0  0
  1  7  1  0  0  0  0
  1  2  2  0  0  0  0
 28 29  1  0  0  0  0
 29 37  1  0  0  0  0
 29 30  2  0  0  0  0
 18 19  1  0  0  0  0
 19 27  1  0  0  0  0
 19 20  2  0  0  0  0
  8  9  1  0  0  0  0
  9 17  1  0  0  0  0
  9 10  2  0  0  0  0
 28 31  1  0  0  0  0
 18 21  1  0  0  0  0
  8 11  1  0  0  0  0
 37 38  1  0  0  0  0
 27 28  1  0  0  0  0
 17 18  1  0  0  0  0
  7  8  1  0  0  0  0
  3  4  1  0  0  0  0
  3  5  1  0  0  0  0
  3  6  1  0  0  0  0
 31 34  1  0  0  0  0
 31 35  1  0  0  0  0
 31 36  1  0  0  0  0
 21 24  1  0  0  0  0
 21 25  1  0  0  0  0
 21 26  1  0  0  0  0
 11 14  1  0  0  0  0
 11 15  1  0  0  0  0
 11 16  1  0  0  0  0
 38 40  1  0  0  0  0
 38 41  1  0  0  0  0
 38 42  1  0  0  0  0
 28 33  1  0  0  0  0
 18 23  1  0  0  0  0
  8 13  1  0  0  0  0
 37 39  1  0  0  0  0
  7 12  1  0  0  0  0
 27 32  1  0  0  0  0
 17 22  1  0  0  0  0
M  END
$$$$

  -OEChem-05262214473D

 42 41  0     1  0  0  0  0  0999 V2000
   -5.7851   -0.9580    0.6237 C   0  0  0  0  0  0  0  0  0  0  0  0
   -6.2213    0.1296    0.2652 O   0  0  0  0  0  0  0  0  0  0  0  0
   -6.7088   -2.1270    0.7168 C   0  0  0  0  0  0  0  0  0  0  0  0
   -7.1713   -2.2193    1.7126 H   0  0  0  0  0  0  0  0  0  0  0  0
   -7.5511   -2.0547    0.0101 H   0  0  0  0  0  0  0  0  0  0  0  0
   -6.2485   -3.1083    0.5191 H   0  0  0  0  0  0  0  0  0  0  0  0
   -4.4733   -1.2411    0.9668 N   0  0  0  0  0  0  0  0  0  0  0  0
   -3.4203   -0.2603    0.9449 C   0  0  2  0  0  0  0  0  0  0  0  0
   -2.1242   -0.9699    0.5759 C   0  0  0  0  0  0  0  0  0  0  0  0
   -1.8694   -2.1225    0.9189 O   0  0  0  0  0  0  0  0  0  0  0  0
   -3.2916    0.4435    2.2868 C   0  0  0  0  0  0  0  0  0  0  0  0
   -4.2421   -2.1920    1.2489 H   0  0  0  0  0  0  0  0  0  0  0  0
   -3.6772    0.4622    0.1625 H   0  0  0  0  0  0  0  0  0  0  0  0
   -3.0345   -0.2644    3.0832 H   0  0  0  0  0  0  0  0  0  0  0  0
   -2.5093    1.2092    2.2599 H   0  0  0  0  0  0  0  0  0  0  0  0
   -4.2338    0.9283    2.5645 H   0  0  0  0  0  0  0  0  0  0  0  0
   -1.2626   -0.1515   -0.1463 N   0  0  0  0  0  0  0  0  0  0  0  0
    0.0431   -0.5785   -0.5755 C   0  0  2  0  0  0  0  0  0  0  0  0
    0.6896    0.5742   -1.3324 C   0  0  0  0  0  0  0  0  0  0  0  0
    0.2468    1.7208   -1.3143 O   0  0  0  0  0  0  0  0  0  0  0  0
   -0.0400   -1.8221   -1.4468 C   0  0  0  0  0  0  0  0  0  0  0  0
   -1.5766    0.7776   -0.4197 H   0  0  0  0  0  0  0  0  0  0  0  0
    0.6204   -0.7903    0.3311 H   0  0  0  0  0  0  0  0  0  0  0  0
   -0.6149   -1.6292   -2.3599 H   0  0  0  0  0  0  0  0  0  0  0  0
    0.9560   -2.1622   -1.7489 H   0  0  0  0  0  0  0  0  0  0  0  0
   -0.5321   -2.6411   -0.9111 H   0  0  0  0  0  0  0  0  0  0  0  0
    1.7970    0.1662   -2.0680 N   0  0  0  0  0  0  0  0  0  0  0  0
    2.5543    1.0629   -2.9009 C   0  0  2  0  0  0  0  0  0  0  0  0
    3.0860    0.2677   -4.0861 C   0  0  0  0  0  0  0  0  0  0  0  0
    3.4226   -0.9119   -4.0057 O   0  0  0  0  0  0  0  0  0  0  0  0
    3.6918    1.7099   -2.1263 C   0  0  0  0  0  0  0  0  0  0  0  0
    2.1145   -0.7980   -1.9895 H   0  0  0  0  0  0  0  0  0  0  0  0
    1.8567    1.8285   -3.2575 H   0  0  0  0  0  0  0  0  0  0  0  0
    4.4012    0.9584   -1.7610 H   0  0  0  0  0  0  0  0  0  0  0  0
    4.2494    2.4133   -2.7536 H   0  0  0  0  0  0  0  0  0  0  0  0
    3.3100    2.2567   -1.2573 H   0  0  0  0  0  0  0  0  0  0  0  0
    3.1811    1.0422   -5.2338 N   0  0  0  0  0  0  0  0  0  0  0  0
    3.6978    0.5282   -6.4806 C   0  0  0  0  0  0  0  0  0  0  0  0
    2.8419    1.9996   -5.2200 H   0  0  0  0  0  0  0  0  0  0  0  0
    4.7775    0.7299   -6.5417 H   0  0  0  0  0  0  0  0  0  0  0  0
    3.5243   -0.5569   -6.5298 H   0  0  0  0  0  0  0  0  0  0  0  0
    3.1851    1.0199   -7.3204 H   0  0  0  0  0  0  0  0  0  0  0  0
  1  3  1  0  0  0  0
  1  7  1  0  0  0  0
  1  2  2  0  0  0  0
 28 29  1  0  0  0  0
 29 37  1  0  0  0  0
 29 30  2  0  0  0  0
 18 19  1  0  0  0  0
 19 27  1  0  0  0  0
 19 20  2  0  0  0  0
  8  9  1  0  0  0  0
  9 17  1  0  0  0  0
  9 10  2  0  0  0  0
 28 31  1  0  0  0  0
 18 21  1  0  0  0  0
  8 11  1  0  0  0  0
 37 38  1  0  0  0  0
 27 28  1  0  0  0  0
 17 18  1  0  0  0  0
  7  8  1  0  0  0  0
  3  4  1  0  0  0  0
  3  5  1  0  0  0  0
  3  6  1  0  0  0  0
 31 34  1  0  0  0  0
 31 35  1  0  0  0  0
 31 36  1  0  0  0  0
 21 24  1  0  0  0  0
 21 25  1  0  0  0  0
 21 26  1  0  0  0  0
 11 14  1  0  0  0  0
 11 15  1  0  0  0  0
 11 16  1  0  0  0  0
 38 40  1  0  0  0  0
 38 41  1  0  0  0  0
 38 42  1  0  0  0  0
 28 33  1  0  0  0  0
 18 23  1  0  0  0  0
  8 13  1  0  0  0  0
 37 39  1  0  0  0  0
  7 12  1  0  0  0  0
 27 32  1  0  0  0  0
 17 22  1  0  0  0  0
M  END
$$$$

  -OEChem-05262214473D

 42 41  0     1  0  0  0  0  0999 V2000
   -5.7851   -0.9580    0.6237 C   0  0  0  0  0  0  0  0  0  0  0  0
   -6.2213    0.1296    0.2652 O   0  0  0  0  0  0  0  0  0  0  0  0
   -6.7088   -2.1270    0.7168 C   0  0  0  0  0  0  0  0  0  0  0  0
   -7.1713   -2.2193    1.7126 H   0  0  0  0  0  0  0  0  0  0  0  0
   -7.5511   -2.0547    0.0101 H   0  0  0  0  0  0  0  0  0  0  0  0
   -6.2485   -3.1083    0.5191 H   0  0  0  0  0  0  0  0  0  0  0  0
   -4.4733   -1.2411    0.9668 N   0  0  0  0  0  0  0  0  0  0  0  0
   -3.4203   -0.2603    0.9449 C   0  0  2  0  0  0  0  0  0  0  0  0
   -2.1242   -0.9699    0.5759 C   0  0  0  0  0  0  0  0  0  0  0  0
   -1.8694   -2.1225    0.9189 O   0  0  0  0  0  0  0  0  0  0  0  0
   -3.2916    0.4435    2.2868 C   0  0  0  0  0  0  0  0  0  0  0  0
   -4.2421   -2.1920    1.2489 H   0  0  0  0  0  0  0  0  0  0  0  0
   -3.6772    0.4622    0.1625 H   0  0  0  0  0  0  0  0  0  0  0  0
   -3.0345   -0.2644    3.0832 H   0  0  0  0  0  0  0  0  0  0  0  0
   -2.5093    1.2092    2.2599 H   0  0  0  0  0  0  0  0  0  0  0  0
   -4.2338    0.9283    2.5645 H   0  0  0  0  0  0  0  0  0  0  0  0
   -1.2626   -0.1515   -0.1463 N   0  0  0  0  0  0  0  0  0  0  0  0
    0.0431   -0.5785   -0.5755 C   0  0  2  0  0  0  0  0  0  0  0  0
    0.6896    0.5742   -1.3324 C   0  0  0  0  0  0  0  0  0  0  0  0
    0.4226    1.7540   -1.1135 O   0  0  0  0  0  0  0  0  0  0  0  0
   -0.0400   -1.8221   -1.4468 C   0  0  0  0  0  0  0  0  0  0  0  0
   -1.5766    0.7776   -0.4197 H   0  0  0  0  0  0  0  0  0  0  0  0
    0.6204   -0.7903    0.3311 H   0  0  0  0  0  0  0  0  0  0  0  0
   -0.6149   -1.6292   -2.3599 H   0  0  0  0  0  0  0  0  0  0  0  0
    0.9560   -2.1622   -1.7489 H   0  0  0  0  0  0  0  0  0  0  0  0
   -0.5321   -2.6411   -0.9111 H   0  0  0  0  0  0  0  0  0  0  0  0
    1.5703    0.1321   -2.3136 N   0  0  0  0  0  0  0  0  0  0  0  0
    2.2745    1.0288   -3.1919 C   0  0  2  0  0  0  0  0  0  0  0  0
    2.4567    0.3280   -4.5318 C   0  0  0  0  0  0  0  0  0  0  0  0
    2.6344   -0.8839   -4.6363 O   0  0  0  0  0  0  0  0  0  0  0  0
    3.6167    1.4375   -2.6053 C   0  0  0  0  0  0  0  0  0  0  0  0
    1.7592   -0.8650   -2.3952 H   0  0  0  0  0  0  0  0  0  0  0  0
    1.6359    1.9091   -3.3234 H   0  0  0  0  0  0  0  0  0  0  0  0
    4.2702    0.5686   -2.4664 H   0  0  0  0  0  0  0  0  0  0  0  0
    4.1385    2.1419   -3.2615 H   0  0  0  0  0  0  0  0  0  0  0  0
    3.4859    1.9146   -1.6281 H   0  0  0  0  0  0  0  0  0  0  0  0
    2.4407    1.2209   -5.5942 N   0  0  0  0  0  0  0  0  0  0  0  0
    2.6359    0.8065   -6.9639 C   0  0  0  0  0  0  0  0  0  0  0  0
    2.2471    2.2025   -5.4190 H   0  0  0  0  0  0  0  0  0  0  0  0
    3.7020    0.8857   -7.2230 H   0  0  0  0  0  0  0  0  0  0  0  0
    2.3065   -0.2364   -7.0818 H   0  0  0  0  0  0  0  0  0  0  0  0
    2.0476    1.4544   -7.6303 H   0  0  0  0  0  0  0  0  0  0  0  0
  1  3  1  0  0  0  0
  1  7  1  0  0  0  0
  1  2  2  0  0  0  0
 28 29  1  0  0  0  0
 29 37  1  0  0  0  0
 29 30  2  0  0  0  0
 18 19  1  0  0  0  0
 19 27  1  0  0  0  0
 19 20  2  0  0  0  0
  8  9  1  0  0  0  0
  9 17  1  0  0  0  0
  9 10  2  0  0  0  0
 28 31  1  0  0  0  0
 18 21  1  0  0  0  0
  8 11  1  0  0  0  0
 37 38  1  0  0  0  0
 27 28  1  0  0  0  0
 17 18  1  0  0  0  0
  7  8  1  0  0  0  0
  3  4  1  0  0  0  0
  3  5  1  0  0  0  0
  3  6  1  0  0  0  0
 31 34  1  0  0  0  0
 31 35  1  0  0  0  0
 31 36  1  0  0  0  0
 21 24  1  0  0  0  0
 21 25  1  0  0  0  0
 21 26  1  0  0  0  0
 11 14  1  0  0  0  0
 11 15  1  0  0  0  0
 11 16  1  0  0  0  0
 38 40  1  0  0  0  0
 38 41  1  0  0  0  0
 38 42  1  0  0  0  0
 28 33  1  0  0  0  0
 18 23  1  0  0  0  0
  8 13  1  0  0  0  0
 37 39  1  0  0  0  0
  7 12  1  0  0  0  0
 27 32  1  0  0  0  0
 17 22  1  0  0  0  0
M  END
$$$$

  -OEChem-05262214473D

 42 41  0     1  0  0  0  0  0999 V2000
   -5.7851   -0.9580    0.6237 C   0  0  0  0  0  0  0  0  0  0  0  0
   -6.2213    0.1296    0.2652 O   0  0  0  0  0  0  0  0  0  0  0  0
   -6.7088   -2.1270    0.7168 C   0  0  0  0  0  0  0  0  0  0  0  0
   -7.1713   -2.2193    1.7126 H   0  0  0  0  0  0  0  0  0  0  0  0
   -7.5511   -2.0547    0.0101 H   0  0  0  0  0  0  0  0  0  0  0  0
   -6.2485   -3.1083    0.5191 H   0  0  0  0  0  0  0  0  0  0  0  0
   -4.4733   -1.2411    0.9668 N   0  0  0  0  0  0  0  0  0  0  0  0
   -3.4203   -0.2603    0.9449 C   0  0  2  0  0  0  0  0  0  0  0  0
   -2.1242   -0.9699    0.5759 C   0  0  0  0  0  0  0  0  0  0  0  0
   -1.8694   -2.1225    0.9189 O   0  0  0  0  0  0  0  0  0  0  0  0
   -3.2916    0.4435    2.2868 C   0  0  0  0  0  0  0  0  0  0  0  0
   -4.2421   -2.1920    1.2489 H   0  0  0  0  0  0  0  0  0  0  0  0
   -3.6772    0.4622    0.1625 H   0  0  0  0  0  0  0  0  0  0  0  0
   -3.0345   -0.2644    3.0832 H   0  0  0  0  0  0  0  0  0  0  0  0
   -2.5093    1.2092    2.2599 H   0  0  0  0  0  0  0  0  0  0  0  0
   -4.2338    0.9283    2.5645 H   0  0  0  0  0  0  0  0  0  0  0  0
   -1.2626   -0.1515   -0.1463 N   0  0  0  0  0  0  0  0  0  0  0  0
    0.0431   -0.5785   -0.5755 C   0  0  2  0  0  0  0  0  0  0  0  0
    0.6896    0.5742   -1.3324 C   0  0  0  0  0  0  0  0  0  0  0  0
    0.6361    1.7414   -0.9504 O   0  0  0  0  0  0  0  0  0  0  0  0
   -0.0400   -1.8221   -1.4468 C   0  0  0  0  0  0  0  0  0  0  0  0
   -1.5766    0.7776   -0.4197 H   0  0  0  0  0  0  0  0  0  0  0  0
    0.6204   -0.7903    0.3311 H   0  0  0  0  0  0  0  0  0  0  0  0
   -0.6149   -1.6292   -2.3599 H   0  0  0  0  0  0  0  0  0  0  0  0
    0.9560   -2.1622   -1.7489 H   0  0  0  0  0  0  0  0  0  0  0  0
   -0.5321   -2.6411   -0.9111 H   0  0  0  0  0  0  0  0  0  0  0  0
    1.2989    0.1552   -2.5101 N   0  0  0  0  0  0  0  0  0  0  0  0
    1.9428    1.0638   -3.4219 C   0  0  2  0  0  0  0  0  0  0  0  0
    1.7693    0.5162   -4.8324 C   0  0  0  0  0  0  0  0  0  0  0  0
    1.7531   -0.6861   -5.0879 O   0  0  0  0  0  0  0  0  0  0  0  0
    3.4152    1.2367   -3.0833 C   0  0  0  0  0  0  0  0  0  0  0  0
    1.3279   -0.8396   -2.7248 H   0  0  0  0  0  0  0  0  0  0  0  0
    1.4201    2.0225   -3.3349 H   0  0  0  0  0  0  0  0  0  0  0  0
    3.9555    0.2864   -3.1650 H   0  0  0  0  0  0  0  0  0  0  0  0
    3.8969    1.9500   -3.7602 H   0  0  0  0  0  0  0  0  0  0  0  0
    3.5390    1.6023   -2.0582 H   0  0  0  0  0  0  0  0  0  0  0  0
    1.6778    1.5283   -5.7776 N   0  0  0  0  0  0  0  0  0  0  0  0
    1.5514    1.2650   -7.1921 C   0  0  0  0  0  0  0  0  0  0  0  0
    1.6597    2.4969   -5.4724 H   0  0  0  0  0  0  0  0  0  0  0  0
    2.5498    1.2493   -7.6534 H   0  0  0  0  0  0  0  0  0  0  0  0
    1.0633    0.2905   -7.3413 H   0  0  0  0  0  0  0  0  0  0  0  0
    0.9442    2.0545   -7.6590 H   0  0  0  0  0  0  0  0  0  0  0  0
  1  3  1  0  0  0  0
  1  7  1  0  0  0  0
  1  2  2  0  0  0  0
 28 29  1  0  0  0  0
 29 37  1  0  0  0  0
 29 30  2  0  0  0  0
 18 19  1  0  0  0  0
 19 27  1  0  0  0  0
 19 20  2  0  0  0  0
  8  9  1  0  0  0  0
  9 17  1  0  0  0  0
  9 10  2  0  0  0  0
 28 31  1  0  0  0  0
 18 21  1  0  0  0  0
  8 11  1  0  0  0  0
 37 38  1  0  0  0  0
 27 28  1  0  0  0  0
 17 18  1  0  0  0  0
  7  8  1  0  0  0  0
  3  4  1  0  0  0  0
  3  5  1  0  0  0  0
  3  6  1  0  0  0  0
 31 34  1  0  0  0  0
 31 35  1  0  0  0  0
 31 36  1  0  0  0  0
 21 24  1  0  0  0  0
 21 25  1  0  0  0  0
 21 26  1  0  0  0  0
 11 14  1  0  0  0  0
 11 15  1  0  0  0  0
 11 16  1  0  0  0  0
 38 40  1  0  0  0  0
 38 41  1  0  0  0  0
 38 42  1  0  0  0  0
 28 33  1  0  0  0  0
 18 23  1  0  0  0  0
  8 13  1  0  0  0  0
 37 39  1  0  0  0  0
  7 12  1  0  0  0  0
 27 32  1  0  0  0  0
 17 22  1  0  0  0  0
M  END
$$$$

  -OEChem-05262214473D

 42 41  0     1  0  0  0  0  0999 V2000
   -5.7851   -0.9580    0.6237 C   0  0  0  0  0  0  0  0  0  0  0  0
   -6.2213    0.1296    0.2652 O   0  0  0  0  0  0  0  0  0  0  0  0
   -6.7088   -2.1270    0.7168 C   0  0  0  0  0  0  0  0  0  0  0  0
   -7.1713   -2.2193    1.7126 H   0  0  0  0  0  0  0  0  0  0  0  0
   -7.5511   -2.0547    0.0101 H   0  0  0  0  0  0  0  0  0  0  0  0
   -6.2485   -3.1083    0.5191 H   0  0  0  0  0  0  0  0  0  0  0  0
   -4.4733   -1.2411    0.9668 N   0  0  0  0  0  0  0  0  0  0  0  0
   -3.4203   -0.2603    0.9449 C   0  0  2  0  0  0  0  0  0  0  0  0
   -2.1242   -0.9699    0.5759 C   0  0  0  0  0  0  0  0  0  0  0  0
   -1.8694   -2.1225    0.9189 O   0  0  0  0  0  0  0  0  0  0  0  0
   -3.2916    0.4435    2.2868 C   0  0  0  0  0  0  0  0  0  0  0  0
   -4.2421   -2.1920    1.2489 H   0  0  0  0  0  0  0  0  0  0  0  0
   -3.6772    0.4622    0.1625 H   0  0  0  0  0  0  0  0  0  0  0  0
   -3.0345   -0.2644    3.0832 H   0  0  0  0  0  0  0  0  0  0  0  0
   -2.5093    1.2092    2.2599 H   0  0  0  0  0  0  0  0  0  0  0  0
   -4.2338    0.9283    2.5645 H   0  0  0  0  0  0  0  0  0  0  0  0
   -1.2626   -0.1515   -0.1463 N   0  0  0  0  0  0  0  0  0  0  0  0
    0.0431   -0.5785   -0.5755 C   0  0  2  0  0  0  0  0  0  0  0  0
    0.6896    0.5742   -1.3324 C   0  0  0  0  0  0  0  0  0  0  0  0
    0.8726    1.6838   -0.8361 O   0  0  0  0  0  0  0  0  0  0  0  0
   -0.0400   -1.8221   -1.4468 C   0  0  0  0  0  0  0  0  0  0  0  0
   -1.5766    0.7776   -0.4197 H   0  0  0  0  0  0  0  0  0  0  0  0
    0.6204   -0.7903    0.3311 H   0  0  0  0  0  0  0  0  0  0  0  0
   -0.6149   -1.6292   -2.3599 H   0  0  0  0  0  0  0  0  0  0  0  0
    0.9560   -2.1622   -1.7489 H   0  0  0  0  0  0  0  0  0  0  0  0
   -0.5321   -2.6411   -0.9111 H   0  0  0  0  0  0  0  0  0  0  0  0
    1.0012    0.2341   -2.6443 N   0  0  0  0  0  0  0  0  0  0  0  0
    1.5818    1.1655   -3.5753 C   0  0  2  0  0  0  0  0  0  0  0  0
    1.0706    0.8194   -4.9675 C   0  0  0  0  0  0  0  0  0  0  0  0
    0.8389   -0.3322   -5.3299 O   0  0  0  0  0  0  0  0  0  0  0  0
    3.1012    1.1211   -3.5276 C   0  0  0  0  0  0  0  0  0  0  0  0
    0.8500   -0.7233   -2.9559 H   0  0  0  0  0  0  0  0  0  0  0  0
    1.2239    2.1612   -3.2913 H   0  0  0  0  0  0  0  0  0  0  0  0
    3.4783    0.1311   -3.8091 H   0  0  0  0  0  0  0  0  0  0  0  0
    3.5413    1.8504   -4.2157 H   0  0  0  0  0  0  0  0  0  0  0  0
    3.4660    1.3411   -2.5184 H   0  0  0  0  0  0  0  0  0  0  0  0
    0.9446    1.9435   -5.7717 N   0  0  0  0  0  0  0  0  0  0  0  0
    0.5180    1.8724   -7.1497 C   0  0  0  0  0  0  0  0  0  0  0  0
    1.1198    2.8627   -5.3766 H   0  0  0  0  0  0  0  0  0  0  0  0
    1.3994    1.7961   -7.8034 H   0  0  0  0  0  0  0  0  0  0  0  0
   -0.1205    0.9879   -7.2906 H   0  0  0  0  0  0  0  0  0  0  0  0
   -0.0501    2.7792   -7.4047 H   0  0  0  0  0  0  0  0  0  0  0  0
  1  3  1  0  0  0  0
  1  7  1  0  0  0  0
  1  2  2  0  0  0  0
 28 29  1  0  0  0  0
 29 37  1  0  0  0  0
 29 30  2  0  0  0  0
 18 19  1  0  0  0  0
 19 27  1  0  0  0  0
 19 20  2  0  0  0  0
  8  9  1  0  0  0  0
  9 17  1  0  0  0  0
  9 10  2  0  0  0  0
 28 31  1  0  0  0  0
 18 21  1  0  0  0  0
  8 11  1  0  0  0  0
 37 38  1  0  0  0  0
 27 28  1  0  0  0  0
 17 18  1  0  0  0  0
  7  8  1  0  0  0  0
  3  4  1  0  0  0  0
  3  5  1  0  0  0  0
  3  6  1  0  0  0  0
 31 34  1  0  0  0  0
 31 35  1  0  0  0  0
 31 36  1  0  0  0  0
 21 24  1  0  0  0  0
 21 25  1  0  0  0  0
 21 26  1  0  0  0  0
 11 14  1  0  0  0  0
 11 15  1  0  0  0  0
 11 16  1  0  0  0  0
 38 40  1  0  0  0  0
 38 41  1  0  0  0  0
 38 42  1  0  0  0  0
 28 33  1  0  0  0  0
 18 23  1  0  0  0  0
  8 13  1  0  0  0  0
 37 39  1  0  0  0  0
  7 12  1  0  0  0  0
 27 32  1  0  0  0  0
 17 22  1  0  0  0  0
M  END
$$$$

  -OEChem-05262214473D

 42 41  0     1  0  0  0  0  0999 V2000
   -5.7851   -0.9580    0.6237 C   0  0  0  0  0  0  0  0  0  0  0  0
   -6.2213    0.1296    0.2652 O   0  0  0  0  0  0  0  0  0  0  0  0
   -6.7088   -2.1270    0.7168 C   0  0  0  0  0  0  0  0  0  0  0  0
   -7.1713   -2.2193    1.7126 H   0  0  0  0  0  0  0  0  0  0  0  0
   -7.5511   -2.0547    0.0101 H   0  0  0  0  0  0  0  0  0  0  0  0
   -6.2485   -3.1083    0.5191 H   0  0  0  0  0  0  0  0  0  0  0  0
   -4.4733   -1.2411    0.9668 N   0  0  0  0  0  0  0  0  0  0  0  0
   -3.4203   -0.2603    0.9449 C   0  0  2  0  0  0  0  0  0  0  0  0
   -2.1242   -0.9699    0.5759 C   0  0  0  0  0  0  0  0  0  0  0  0
   -1.8694   -2.1225    0.9189 O   0  0  0  0  0  0  0  0  0  0  0  0
   -3.2916    0.4435    2.2868 C   0  0  0  0  0  0  0  0  0  0  0  0
   -4.2421   -2.1920    1.2489 H   0  0  0  0  0  0  0  0  0  0  0  0
   -3.6772    0.4622    0.1625 H   0  0  0  0  0  0  0  0  0  0  0  0
   -3.0345   -0.2644    3.0832 H   0  0  0  0  0  0  0  0  0  0  0  0
   -2.5093    1.2092    2.2599 H   0  0  0  0  0  0  0  0  0  0  0  0
   -4.2338    0.9283    2.5645 H   0  0  0  0  0  0  0  0  0  0  0  0
   -1.2626   -0.1515   -0.1463 N   0  0  0  0  0  0  0  0  0  0  0  0
    0.0431   -0.5785   -0.5755 C   0  0  2  0  0  0  0  0  0  0  0  0
    0.6896    0.5742   -1.3324 C   0  0  0  0  0  0  0  0  0  0  0  0
    1.1160    1.5852   -0.7782 O   0  0  0  0  0  0  0  0  0  0  0  0
   -0.0400   -1.8221   -1.4468 C   0  0  0  0  0  0  0  0  0  0  0  0
   -1.5766    0.7776   -0.4197 H   0  0  0  0  0  0  0  0  0  0  0  0
    0.6204   -0.7903    0.3311 H   0  0  0  0  0  0  0  0  0  0  0  0
   -0.6149   -1.6292   -2.3599 H   0  0  0  0  0  0  0  0  0  0  0  0
    0.9560   -2.1622   -1.7489 H   0  0  0  0  0  0  0  0  0  0  0  0
   -0.5321   -2.6411   -0.9111 H   0  0  0  0  0  0  0  0  0  0  0  0
    0.6975    0.3634   -2.7069 N   0  0  0  0  0  0  0  0  0  0  0  0
    1.2162    1.3271   -3.6415 C   0  0  2  0  0  0  0  0  0  0  0  0
    0.4082    1.2170   -4.9278 C   0  0  0  0  0  0  0  0  0  0  0  0
   -0.0461    0.1539   -5.3456 O   0  0  0  0  0  0  0  0  0  0  0  0
    2.6959    1.0987   -3.9079 C   0  0  0  0  0  0  0  0  0  0  0  0
    0.3581   -0.5241   -3.0727 H   0  0  0  0  0  0  0  0  0  0  0  0
    1.0609    2.3156   -3.1955 H   0  0  0  0  0  0  0  0  0  0  0  0
    2.8712    0.1133   -4.3548 H   0  0  0  0  0  0  0  0  0  0  0  0
    3.0957    1.8500   -4.5969 H   0  0  0  0  0  0  0  0  0  0  0  0
    3.2717    1.1487   -2.9774 H   0  0  0  0  0  0  0  0  0  0  0  0
    0.2909    2.4382   -5.5766 N   0  0  0  0  0  0  0  0  0  0  0  0
   -0.3937    2.5875   -6.8396 C   0  0  0  0  0  0  0  0  0  0  0  0
    0.6641    3.2749   -5.1380 H   0  0  0  0  0  0  0  0  0  0  0  0
    0.3290    2.4887   -7.6629 H   0  0  0  0  0  0  0  0  0  0  0  0
   -1.1645    1.8082   -6.9330 H   0  0  0  0  0  0  0  0  0  0  0  0
   -0.8675    3.5791   -6.8847 H   0  0  0  0  0  0  0  0  0  0  0  0
  1  3  1  0  0  0  0
  1  7  1  0  0  0  0
  1  2  2  0  0  0  0
 28 29  1  0  0  0  0
 29 37  1  0  0  0  0
 29 30  2  0  0  0  0
 18 19  1  0  0  0  0
 19 27  1  0  0  0  0
 19 20  2  0  0  0  0
  8  9  1  0  0  0  0
  9 17  1  0  0  0  0
  9 10  2  0  0  0  0
 28 31  1  0  0  0  0
 18 21  1  0  0  0  0
  8 11  1  0  0  0  0
 37 38  1  0  0  0  0
 27 28  1  0  0  0  0
 17 18  1  0  0  0  0
  7  8  1  0  0  0  0
  3  4  1  0  0  0  0
  3  5  1  0  0  0  0
  3  6  1  0  0  0  0
 31 34  1  0  0  0  0
 31 35  1  0  0  0  0
 31 36  1  0  0  0  0
 21 24  1  0  0  0  0
 21 25  1  0  0  0  0
 21 26  1  0  0  0  0
 11 14  1  0  0  0  0
 11 15  1  0  0  0  0
 11 16  1  0  0  0  0
 38 40  1  0  0  0  0
 38 41  1  0  0  0  0
 38 42  1  0  0  0  0
 28 33  1  0  0  0  0
 18 23  1  0  0  0  0
  8 13  1  0  0  0  0
 37 39  1  0  0  0  0
  7 12  1  0  0  0  0
 27 32  1  0  0  0  0
 17 22  1  0  0  0  0
M  END
$$$$

  -OEChem-05262214473D

 42 41  0     1  0  0  0  0  0999 V2000
   -5.7851   -0.9580    0.6237 C   0  0  0  0  0  0  0  0  0  0  0  0
   -6.2213    0.1296    0.2652 O   0  0  0  0  0  0  0  0  0  0  0  0
   -6.7088   -2.1270    0.7168 C   0  0  0  0  0  0  0  0  0  0  0  0
   -7.1713   -2.2193    1.7126 H   0  0  0  0  0  0  0  0  0  0  0  0
   -7.5511   -2.0547    0.0101 H   0  0  0  0  0  0  0  0  0  0  0  0
   -6.2485   -3.1083    0.5191 H   0  0  0  0  0  0  0  0  0  0  0  0
   -4.4733   -1.2411    0.9668 N   0  0  0  0  0  0  0  0  0  0  0  0
   -3.4203   -0.2603    0.9449 C   0  0  2  0  0  0  0  0  0  0  0  0
   -2.1242   -0.9699    0.5759 C   0  0  0  0  0  0  0  0  0  0  0  0
   -1.8694   -2.1225    0.9189 O   0  0  0  0  0  0  0  0  0  0  0  0
   -3.2916    0.4435    2.2868 C   0  0  0  0  0  0  0  0  0  0  0  0
   -4.2421   -2.1920    1.2489 H   0  0  0  0  0  0  0  0  0  0  0  0
   -3.6772    0.4622    0.1625 H   0  0  0  0  0  0  0  0  0  0  0  0
   -3.0345   -0.2644    3.0832 H   0  0  0  0  0  0  0  0  0  0  0  0
   -2.5093    1.2092    2.2599 H   0  0  0  0  0  0  0  0  0  0  0  0
   -4.2338    0.9283    2.5645 H   0  0  0  0  0  0  0  0  0  0  0  0
   -1.2626   -0.1515   -0.1463 N   0  0  0  0  0  0  0  0  0  0  0  0
    0.0431   -0.5785   -0.5755 C   0  0  2  0  0  0  0  0  0  0  0  0
    0.6896    0.5742   -1.3324 C   0  0  0  0  0  0  0  0  0  0  0  0
    1.3497    1.4524   -0.7809 O   0  0  0  0  0  0  0  0  0  0  0  0
   -0.0400   -1.8221   -1.4468 C   0  0  0  0  0  0  0  0  0  0  0  0
   -1.5766    0.7776   -0.4197 H   0  0  0  0  0  0  0  0  0  0  0  0
    0.6204   -0.7903    0.3311 H   0  0  0  0  0  0  0  0  0  0  0  0
   -0.6149   -1.6292   -2.3599 H   0  0  0  0  0  0  0  0  0  0  0  0
    0.9560   -2.1622   -1.7489 H   0  0  0  0  0  0  0  0  0  0  0  0
   -0.5321   -2.6411   -0.9111 H   0  0  0  0  0  0  0  0  0  0  0  0
    0.4084    0.5342   -2.6937 N   0  0  0  0  0  0  0  0  0  0  0  0
    0.8709    1.5375   -3.6161 C   0  0  2  0  0  0  0  0  0  0  0  0
   -0.1726    1.6818   -4.7160 C   0  0  0  0  0  0  0  0  0  0  0  0
   -0.8415    0.7390   -5.1340 O   0  0  0  0  0  0  0  0  0  0  0  0
    2.2271    1.1709   -4.1983 C   0  0  0  0  0  0  0  0  0  0  0  0
   -0.1143   -0.2555   -3.0673 H   0  0  0  0  0  0  0  0  0  0  0  0
    0.9420    2.4751   -3.0541 H   0  0  0  0  0  0  0  0  0  0  0  0
    2.1756    0.2341   -4.7650 H   0  0  0  0  0  0  0  0  0  0  0  0
    2.5905    1.9488   -4.8780 H   0  0  0  0  0  0  0  0  0  0  0  0
    2.9693    1.0383   -3.4038 H   0  0  0  0  0  0  0  0  0  0  0  0
   -0.2386    2.9787   -5.2059 N   0  0  0  0  0  0  0  0  0  0  0  0
   -1.1216    3.3613   -6.2829 C   0  0  0  0  0  0  0  0  0  0  0  0
    0.3236    3.7055   -4.7731 H   0  0  0  0  0  0  0  0  0  0  0  0
   -0.5882    3.2800   -7.2415 H   0  0  0  0  0  0  0  0  0  0  0  0
   -1.9972    2.6956   -6.2930 H   0  0  0  0  0  0  0  0  0  0  0  0
   -1.4523    4.3998   -6.1344 H   0  0  0  0  0  0  0  0  0  0  0  0
  1  3  1  0  0  0  0
  1  7  1  0  0  0  0
  1  2  2  0  0  0  0
 28 29  1  0  0  0  0
 29 37  1  0  0  0  0
 29 30  2  0  0  0  0
 18 19  1  0  0  0  0
 19 27  1  0  0  0  0
 19 20  2  0  0  0  0
  8  9  1  0  0  0  0
  9 17  1  0  0  0  0
  9 10  2  0  0  0  0
 28 31  1  0  0  0  0
 18 21  1  0  0  0  0
  8 11  1  0  0  0  0
 37 38  1  0  0  0  0
 27 28  1  0  0  0  0
 17 18  1  0  0  0  0
  7  8  1  0  0  0  0
  3  4  1  0  0  0  0
  3  5  1  0  0  0  0
  3  6  1  0  0  0  0
 31 34  1  0  0  0  0
 31 35  1  0  0  0  0
 31 36  1  0  0  0  0
 21 24  1  0  0  0  0
 21 25  1  0  0  0  0
 21 26  1  0  0  0  0
 11 14  1  0  0  0  0
 11 15  1  0  0  0  0
 11 16  1  0  0  0  0
 38 40  1  0  0  0  0
 38 41  1  0  0  0  0
 38 42  1  0  0  0  0
 28 33  1  0  0  0  0
 18 23  1  0  0  0  0
  8 13  1  0  0  0  0
 37 39  1  0  0  0  0
  7 12  1  0  0  0  0
 27 32  1  0  0  0  0
 17 22  1  0  0  0  0
M  END
$$$$

  -OEChem-05262214473D

 42 41  0     1  0  0  0  0  0999 V2000
   -5.7851   -0.9580    0.6237 C   0  0  0  0  0  0  0  0  0  0  0  0
   -6.2213    0.1296    0.2652 O   0  0  0  0  0  0  0  0  0  0  0  0
   -6.7088   -2.1270    0.7168 C   0  0  0  0  0  0  0  0  0  0  0  0
   -7.1713   -2.2193    1.7126 H   0  0  0  0  0  0  0  0  0  0  0  0
   -7.5511   -2.0547    0.0101 H   0  0  0  0  0  0  0  0  0  0  0  0
   -6.2485   -3.1083    0.5191 H   0  0  0  0  0  0  0  0  0  0  0  0
   -4.4733   -1.2411    0.9668 N   0  0  0  0  0  0  0  0  0  0  0  0
   -3.4203   -0.2603    0.9449 C   0  0  2  0  0  0  0  0  0  0  0  0
   -2.1242   -0.9699    0.5759 C   0  0  0  0  0  0  0  0  0  0  0  0
   -1.8694   -2.1225    0.9189 O   0  0  0  0  0  0  0  0  0  0  0  0
   -3.2916    0.4435    2.2868 C   0  0  0  0  0  0  0  0  0  0  0  0
   -4.2421   -2.1920    1.2489 H   0  0  0  0  0  0  0  0  0  0  0  0
   -3.6772    0.4622    0.1625 H   0  0  0  0  0  0  0  0  0  0  0  0
   -3.0345   -0.2644    3.0832 H   0  0  0  0  0  0  0  0  0  0  0  0
   -2.5093    1.2092    2.2599 H   0  0  0  0  0  0  0  0  0  0  0  0
   -4.2338    0.9283    2.5645 H   0  0  0  0  0  0  0  0  0  0  0  0
   -1.2626   -0.1515   -0.1463 N   0  0  0  0  0  0  0  0  0  0  0  0
    0.0431   -0.5785   -0.5755 C   0  0  2  0  0  0  0  0  0  0  0  0
    0.6896    0.5742   -1.3324 C   0  0  0  0  0  0  0  0  0  0  0  0
    1.5579    1.2942   -0.8439 O   0  0  0  0  0  0  0  0  0  0  0  0
   -0.0400   -1.8221   -1.4468 C   0  0  0  0  0  0  0  0  0  0  0  0
   -1.5766    0.7776   -0.4197 H   0  0  0  0  0  0  0  0  0  0  0  0
    0.6204   -0.7903    0.3311 H   0  0  0  0  0  0  0  0  0  0  0  0
   -0.6149   -1.6292   -2.3599 H   0  0  0  0  0  0  0  0  0  0  0  0
    0.9560   -2.1622   -1.7489 H   0  0  0  0  0  0  0  0  0  0  0  0
   -0.5321   -2.6411   -0.9111 H   0  0  0  0  0  0  0  0  0  0  0  0
    0.1538    0.7349   -2.6055 N   0  0  0  0  0  0  0  0  0  0  0  0
    0.5693    1.7823   -3.5008 C   0  0  2  0  0  0  0  0  0  0  0  0
   -0.6324    2.1823   -4.3466 C   0  0  0  0  0  0  0  0  0  0  0  0
   -1.4931    1.3832   -4.7095 O   0  0  0  0  0  0  0  0  0  0  0  0
    1.7267    1.3329   -4.3791 C   0  0  0  0  0  0  0  0  0  0  0  0
   -0.5351    0.0640   -2.9401 H   0  0  0  0  0  0  0  0  0  0  0  0
    0.8754    2.6290   -2.8767 H   0  0  0  0  0  0  0  0  0  0  0  0
    1.4389    0.4853   -5.0117 H   0  0  0  0  0  0  0  0  0  0  0  0
    2.0602    2.1401   -5.0396 H   0  0  0  0  0  0  0  0  0  0  0  0
    2.5796    1.0174   -3.7685 H   0  0  0  0  0  0  0  0  0  0  0  0
   -0.6080    3.5282   -4.6846 N   0  0  0  0  0  0  0  0  0  0  0  0
   -1.6162    4.1412   -5.5175 C   0  0  0  0  0  0  0  0  0  0  0  0
    0.1217    4.1251   -4.3066 H   0  0  0  0  0  0  0  0  0  0  0  0
   -1.2899    4.1160   -6.5677 H   0  0  0  0  0  0  0  0  0  0  0  0
   -2.5621    3.5895   -5.4142 H   0  0  0  0  0  0  0  0  0  0  0  0
   -1.7646    5.1854   -5.2049 H   0  0  0  0  0  0  0  0  0  0  0  0
  1  3  1  0  0  0  0
  1  7  1  0  0  0  0
  1  2  2  0  0  0  0
 28 29  1  0  0  0  0
 29 37  1  0  0  0  0
 29 30  2  0  0  0  0
 18 19  1  0  0  0  0
 19 27  1  0  0  0  0
 19 20  2  0  0  0  0
  8  9  1  0  0  0  0
  9 17  1  0  0  0  0
  9 10  2  0  0  0  0
 28 31  1  0  0  0  0
 18 21  1  0  0  0  0
  8 11  1  0  0  0  0
 37 38  1  0  0  0  0
 27 28  1  0  0  0  0
 17 18  1  0  0  0  0
  7  8  1  0  0  0  0
  3  4  1  0  0  0  0
  3  5  1  0  0  0  0
  3  6  1  0  0  0  0
 31 34  1  0  0  0  0
 31 35  1  0  0  0  0
 31 36  1  0  0  0  0
 21 24  1  0  0  0  0
 21 25  1  0  0  0  0
 21 26  1  0  0  0  0
 11 14  1  0  0  0  0
 11 15  1  0  0  0  0
 11 16  1  0  0  0  0
 38 40  1  0  0  0  0
 38 41  1  0  0  0  0
 38 42  1  0  0  0  0
 28 33  1  0  0  0  0
 18 23  1  0  0  0  0
  8 13  1  0  0  0  0
 37 39  1  0  0  0  0
  7 12  1  0  0  0  0
 27 32  1  0  0  0  0
 17 22  1  0  0  0  0
M  END
$$$$

  -OEChem-05262214473D

 42 41  0     1  0  0  0  0  0999 V2000
   -5.7851   -0.9580    0.6237 C   0  0  0  0  0  0  0  0  0  0  0  0
   -6.2213    0.1296    0.2652 O   0  0  0  0  0  0  0  0  0  0  0  0
   -6.7088   -2.1270    0.7168 C   0  0  0  0  0  0  0  0  0  0  0  0
   -7.1713   -2.2193    1.7126 H   0  0  0  0  0  0  0  0  0  0  0  0
   -7.5511   -2.0547    0.0101 H   0  0  0  0  0  0  0  0  0  0  0  0
   -6.2485   -3.1083    0.5191 H   0  0  0  0  0  0  0  0  0  0  0  0
   -4.4733   -1.2411    0.9668 N   0  0  0  0  0  0  0  0  0  0  0  0
   -3.4203   -0.2603    0.9449 C   0  0  2  0  0  0  0  0  0  0  0  0
   -2.1242   -0.9699    0.5759 C   0  0  0  0  0  0  0  0  0  0  0  0
   -1.8694   -2.1225    0.9189 O   0  0  0  0  0  0  0  0  0  0  0  0
   -3.2916    0.4435    2.2868 C   0  0  0  0  0  0  0  0  0  0  0  0
   -4.2421   -2.1920    1.2489 H   0  0  0  0  0  0  0  0  0  0  0  0
   -3.6772    0.4622    0.1625 H   0  0  0  0  0  0  0  0  0  0  0  0
   -3.0345   -0.2644    3.0832 H   0  0  0  0  0  0  0  0  0  0  0  0
   -2.5093    1.2092    2.2599 H   0  0  0  0  0  0  0  0  0  0  0  0
   -4.2338    0.9283    2.5645 H   0  0  0  0  0  0  0  0  0  0  0  0
   -1.2626   -0.1515   -0.1463 N   0  0  0  0  0  0  0  0  0  0  0  0
    0.0431   -0.5785   -0.5755 C   0  0  2  0  0  0  0  0  0  0  0  0
    0.6896    0.5742   -1.3324 C   0  0  0  0  0  0  0  0  0  0  0  0
    1.7264    1.1216   -0.9629 O   0  0  0  0  0  0  0  0  0  0  0  0
   -0.0400   -1.8221   -1.4468 C   0  0  0  0  0  0  0  0  0  0  0  0
   -1.5766    0.7776   -0.4197 H   0  0  0  0  0  0  0  0  0  0  0  0
    0.6204   -0.7903    0.3311 H   0  0  0  0  0  0  0  0  0  0  0  0
   -0.6149   -1.6292   -2.3599 H   0  0  0  0  0  0  0  0  0  0  0  0
    0.9560   -2.1622   -1.7489 H   0  0  0  0  0  0  0  0  0  0  0  0
   -0.5321   -2.6411   -0.9111 H   0  0  0  0  0  0  0  0  0  0  0  0
   -0.0490    0.9518   -2.4485 N   0  0  0  0  0  0  0  0  0  0  0  0
    0.3321    2.0450   -3.3035 C   0  0  2  0  0  0  0  0  0  0  0  0
   -0.9398    2.6843   -3.8447 C   0  0  0  0  0  0  0  0  0  0  0  0
   -1.9564    2.0426   -4.1011 O   0  0  0  0  0  0  0  0  0  0  0  0
    1.2287    1.5736   -4.4378 C   0  0  0  0  0  0  0  0  0  0  0  0
   -0.8754    0.4128   -2.6997 H   0  0  0  0  0  0  0  0  0  0  0  0
    0.8656    2.7667   -2.6753 H   0  0  0  0  0  0  0  0  0  0  0  0
    0.7113    0.8498   -5.0781 H   0  0  0  0  0  0  0  0  0  0  0  0
    1.5410    2.4108   -5.0708 H   0  0  0  0  0  0  0  0  0  0  0  0
    2.1290    1.0875   -4.0468 H   0  0  0  0  0  0  0  0  0  0  0  0
   -0.7920    4.0491   -4.0484 N   0  0  0  0  0  0  0  0  0  0  0  0
   -1.8436    4.8741   -4.5957 C   0  0  0  0  0  0  0  0  0  0  0  0
    0.0720    4.5052   -3.7703 H   0  0  0  0  0  0  0  0  0  0  0  0
   -1.7281    4.9397   -5.6877 H   0  0  0  0  0  0  0  0  0  0  0  0
   -2.8207    4.4291   -4.3565 H   0  0  0  0  0  0  0  0  0  0  0  0
   -1.7832    5.8822   -4.1596 H   0  0  0  0  0  0  0  0  0  0  0  0
  1  3  1  0  0  0  0
  1  7  1  0  0  0  0
  1  2  2  0  0  0  0
 28 29  1  0  0  0  0
 29 37  1  0  0  0  0
 29 30  2  0  0  0  0
 18 19  1  0  0  0  0
 19 27  1  0  0  0  0
 19 20  2  0  0  0  0
  8  9  1  0  0  0  0
  9 17  1  0  0  0  0
  9 10  2  0  0  0  0
 28 31  1  0  0  0  0
 18 21  1  0  0  0  0
  8 11  1  0  0  0  0
 37 38  1  0  0  0  0
 27 28  1  0  0  0  0
 17 18  1  0  0  0  0
  7  8  1  0  0  0  0
  3  4  1  0  0  0  0
  3  5  1  0  0  0  0
  3  6  1  0  0  0  0
 31 34  1  0  0  0  0
 31 35  1  0  0  0  0
 31 36  1  0  0  0  0
 21 24  1  0  0  0  0
 21 25  1  0  0  0  0
 21 26  1  0  0  0  0
 11 14  1  0  0  0  0
 11 15  1  0  0  0  0
 11 16  1  0  0  0  0
 38 40  1  0  0  0  0
 38 41  1  0  0  0  0
 38 42  1  0  0  0  0
 28 33  1  0  0  0  0
 18 23  1  0  0  0  0
  8 13  1  0  0  0  0
 37 39  1  0  0  0  0
  7 12  1  0  0  0  0
 27 32  1  0  0  0  0
 17 22  1  0  0  0  0
M  END
$$$$

  -OEChem-05262214473D

 42 41  0     1  0  0  0  0  0999 V2000
   -5.7851   -0.9580    0.6237 C   0  0  0  0  0  0  0  0  0  0  0  0
   -6.2213    0.1296    0.2652 O   0  0  0  0  0  0  0  0  0  0  0  0
   -6.7088   -2.1270    0.7168 C   0  0  0  0  0  0  0  0  0  0  0  0
   -7.1713   -2.2193    1.7126 H   0  0  0  0  0  0  0  0  0  0  0  0
   -7.5511   -2.0547    0.0101 H   0  0  0  0  0  0  0  0  0  0  0  0
   -6.2485   -3.1083    0.5191 H   0  0  0  0  0  0  0  0  0  0  0  0
   -4.4733   -1.2411    0.9668 N   0  0  0  0  0  0  0  0  0  0  0  0
   -3.4203   -0.2603    0.9449 C   0  0  2  0  0  0  0  0  0  0  0  0
   -2.1242   -0.9699    0.5759 C   0  0  0  0  0  0  0  0  0  0  0  0
   -1.8694   -2.1225    0.9189 O   0  0  0  0  0  0  0  0  0  0  0  0
   -3.2916    0.4435    2.2868 C   0  0  0  0  0  0  0  0  0  0  0  0
   -4.2421   -2.1920    1.2489 H   0  0  0  0  0  0  0  0  0  0  0  0
   -3.6772    0.4622    0.1625 H   0  0  0  0  0  0  0  0  0  0  0  0
   -3.0345   -0.2644    3.0832 H   0  0  0  0  0  0  0  0  0  0  0  0
   -2.5093    1.2092    2.2599 H   0  0  0  0  0  0  0  0  0  0  0  0
   -4.2338    0.9283    2.5645 H   0  0  0  0  0  0  0  0  0  0  0  0
   -1.2626   -0.1515   -0.1463 N   0  0  0  0  0  0  0  0  0  0  0  0
    0.0431   -0.5785   -0.5755 C   0  0  2  0  0  0  0  0  0  0  0  0
    0.6896    0.5742   -1.3324 C   0  0  0  0  0  0  0  0  0  0  0  0
    1.8436    0.9463   -1.1297 O   0  0  0  0  0  0  0  0  0  0  0  0
   -0.0400   -1.8221   -1.4468 C   0  0  0  0  0  0  0  0  0  0  0  0
   -1.5766    0.7776   -0.4197 H   0  0  0  0  0  0  0  0  0  0  0  0
    0.6204   -0.7903    0.3311 H   0  0  0  0  0  0  0  0  0  0  0  0
   -0.6149   -1.6292   -2.3599 H   0  0  0  0  0  0  0  0  0  0  0  0
    0.9560   -2.1622   -1.7489 H   0  0  0  0  0  0  0  0  0  0  0  0
   -0.5321   -2.6411   -0.9111 H   0  0  0  0  0  0  0  0  0  0  0  0
   -0.1863    1.1701   -2.2332 N   0  0  0  0  0  0  0  0  0  0  0  0
    0.1755    2.3075   -3.0376 C   0  0  2  0  0  0  0  0  0  0  0  0
   -1.0738    3.1536   -3.2445 C   0  0  0  0  0  0  0  0  0  0  0  0
   -2.2000    2.6723   -3.3502 O   0  0  0  0  0  0  0  0  0  0  0  0
    0.7672    1.8767   -4.3706 C   0  0  0  0  0  0  0  0  0  0  0  0
   -1.1122    0.7671   -2.3624 H   0  0  0  0  0  0  0  0  0  0  0  0
    0.9133    2.8788   -2.4638 H   0  0  0  0  0  0  0  0  0  0  0  0
    0.0424    1.3028   -4.9596 H   0  0  0  0  0  0  0  0  0  0  0  0
    1.0681    2.7426   -4.9695 H   0  0  0  0  0  0  0  0  0  0  0  0
    1.6482    1.2436   -4.2196 H   0  0  0  0  0  0  0  0  0  0  0  0
   -0.7781    4.5061   -3.3405 N   0  0  0  0  0  0  0  0  0  0  0  0
   -1.7884    5.5100   -3.5802 C   0  0  0  0  0  0  0  0  0  0  0  0
    0.1779    4.8198   -3.2008 H   0  0  0  0  0  0  0  0  0  0  0  0
   -1.8731    5.6950   -4.6612 H   0  0  0  0  0  0  0  0  0  0  0  0
   -2.7552    5.1571   -3.1919 H   0  0  0  0  0  0  0  0  0  0  0  0
   -1.5067    6.4428   -3.0697 H   0  0  0  0  0  0  0  0  0  0  0  0
  1  3  1  0  0  0  0
  1  7  1  0  0  0  0
  1  2  2  0  0  0  0
 28 29  1  0  0  0  0
 29 37  1  0  0  0  0
 29 30  2  0  0  0  0
 18 19  1  0  0  0  0
 19 27  1  0  0  0  0
 19 20  2  0  0  0  0
  8  9  1  0  0  0  0
  9 17  1  0  0  0  0
  9 10  2  0  0  0  0
 28 31  1  0  0  0  0
 18 21  1  0  0  0  0
  8 11  1  0  0  0  0
 37 38  1  0  0  0  0
 27 28  1  0  0  0  0
 17 18  1  0  0  0  0
  7  8  1  0  0  0  0
  3  4  1  0  0  0  0
  3  5  1  0  0  0  0
  3  6  1  0  0  0  0
 31 34  1  0  0  0  0
 31 35  1  0  0  0  0
 31 36  1  0  0  0  0
 21 24  1  0  0  0  0
 21 25  1  0  0  0  0
 21 26  1  0  0  0  0
 11 14  1  0  0  0  0
 11 15  1  0  0  0  0
 11 16  1  0  0  0  0
 38 40  1  0  0  0  0
 38 41  1  0  0  0  0
 38 42  1  0  0  0  0
 28 33  1  0  0  0  0
 18 23  1  0  0  0  0
  8 13  1  0  0  0  0
 37 39  1  0  0  0  0
  7 12  1  0  0  0  0
 27 32  1  0  0  0  0
 17 22  1  0  0  0  0
M  END
$$$$

  -OEChem-05262214473D

 42 41  0     1  0  0  0  0  0999 V2000
   -5.7851   -0.9580    0.6237 C   0  0  0  0  0  0  0  0  0  0  0  0
   -6.2213    0.1296    0.2652 O   0  0  0  0  0  0  0  0  0  0  0  0
   -6.7088   -2.1270    0.7168 C   0  0  0  0  0  0  0  0  0  0  0  0
   -7.1713   -2.2193    1.7126 H   0  0  0  0  0  0  0  0  0  0  0  0
   -7.5511   -2.0547    0.0101 H   0  0  0  0  0  0  0  0  0  0  0  0
   -6.2485   -3.1083    0.5191 H   0  0  0  0  0  0  0  0  0  0  0  0
   -4.4733   -1.2411    0.9668 N   0  0  0  0  0  0  0  0  0  0  0  0
   -3.4203   -0.2603    0.9449 C   0  0  2  0  0  0  0  0  0  0  0  0
   -2.1242   -0.9699    0.5759 C   0  0  0  0  0  0  0  0  0  0  0  0
   -1.8694   -2.1225    0.9189 O   0  0  0  0  0  0  0  0  0  0  0  0
   -3.2916    0.4435    2.2868 C   0  0  0  0  0  0  0  0  0  0  0  0
   -4.2421   -2.1920    1.2489 H   0  0  0  0  0  0  0  0  0  0  0  0
   -3.6772    0.4622    0.1625 H   0  0  0  0  0  0  0  0  0  0  0  0
   -3.0345   -0.2644    3.0832 H   0  0  0  0  0  0  0  0  0  0  0  0
   -2.5093    1.2092    2.2599 H   0  0  0  0  0  0  0  0  0  0  0  0
   -4.2338    0.9283    2.5645 H   0  0  0  0  0  0  0  0  0  0  0  0
   -1.2626   -0.1515   -0.1463 N   0  0  0  0  0  0  0  0  0  0  0  0
    0.0431   -0.5785   -0.5755 C   0  0  2  0  0  0  0  0  0  0  0  0
    0.6896    0.5742   -1.3324 C   0  0  0  0  0  0  0  0  0  0  0  0
    1.9015    0.7803   -1.3331 O   0  0  0  0  0  0  0  0  0  0  0  0
   -0.0400   -1.8221   -1.4468 C   0  0  0  0  0  0  0  0  0  0  0  0
   -1.5766    0.7776   -0.4197 H   0  0  0  0  0  0  0  0  0  0  0  0
    0.6204   -0.7903    0.3311 H   0  0  0  0  0  0  0  0  0  0  0  0
   -0.6149   -1.6292   -2.3599 H   0  0  0  0  0  0  0  0  0  0  0  0
    0.9560   -2.1622   -1.7489 H   0  0  0  0  0  0  0  0  0  0  0  0
   -0.5321   -2.6411   -0.9111 H   0  0  0  0  0  0  0  0  0  0  0  0
   -0.2486    1.3750   -1.9744 N   0  0  0  0  0  0  0  0  0  0  0  0
    0.1100    2.5519   -2.7212 C   0  0  2  0  0  0  0  0  0  0  0  0
   -1.0254    3.5581   -2.5870 C   0  0  0  0  0  0  0  0  0  0  0  0
   -2.2072    3.2293   -2.5080 O   0  0  0  0  0  0  0  0  0  0  0  0
    0.3735    2.2213   -4.1820 C   0  0  0  0  0  0  0  0  0  0  0  0
   -1.2293    1.1027   -1.9514 H   0  0  0  0  0  0  0  0  0  0  0  0
    1.0152    2.9577   -2.2565 H   0  0  0  0  0  0  0  0  0  0  0  0
   -0.5223    1.8134   -4.6644 H   0  0  0  0  0  0  0  0  0  0  0  0
    0.6739    3.1127   -4.7426 H   0  0  0  0  0  0  0  0  0  0  0  0
    1.1701    1.4753   -4.2752 H   0  0  0  0  0  0  0  0  0  0  0  0
   -0.5672    4.8680   -2.6093 N   0  0  0  0  0  0  0  0  0  0  0  0
   -1.4545    6.0056   -2.5402 C   0  0  0  0  0  0  0  0  0  0  0  0
    0.4322    5.0474   -2.6368 H   0  0  0  0  0  0  0  0  0  0  0  0
   -1.7149    6.3304   -3.5584 H   0  0  0  0  0  0  0  0  0  0  0  0
   -2.3702    5.7239   -1.9998 H   0  0  0  0  0  0  0  0  0  0  0  0
   -0.9541    6.8289   -2.0095 H   0  0  0  0  0  0  0  0  0  0  0  0
  1  3  1  0  0  0  0
  1  7  1  0  0  0  0
  1  2  2  0  0  0  0
 28 29  1  0  0  0  0
 29 37  1  0  0  0  0
 29 30  2  0  0  0  0
 18 19  1  0  0  0  0
 19 27  1  0  0  0  0
 19 20  2  0  0  0  0
  8  9  1  0  0  0  0
  9 17  1  0  0  0  0
  9 10  2  0  0  0  0
 28 31  1  0  0  0  0
 18 21  1  0  0  0  0
  8 11  1  0  0  0  0
 37 38  1  0  0  0  0
 27 28  1  0  0  0  0
 17 18  1  0  0  0  0
  7  8  1  0  0  0  0
  3  4  1  0  0  0  0
  3  5  1  0  0  0  0
  3  6  1  0  0  0  0
 31 34  1  0  0  0  0
 31 35  1  0  0  0  0
 31 36  1  0  0  0  0
 21 24  1  0  0  0  0
 21 25  1  0  0  0  0
 21 26  1  0  0  0  0
 11 14  1  0  0  0  0
 11 15  1  0  0  0  0
 11 16  1  0  0  0  0
 38 40  1  0  0  0  0
 38 41  1  0  0  0  0
 38 42  1  0  0  0  0
 28 33  1  0  0  0  0
 18 23  1  0  0  0  0
  8 13  1  0  0  0  0
 37 39  1  0  0  0  0
  7 12  1  0  0  0  0
 27 32  1  0  0  0  0
 17 22  1  0  0  0  0
M  END
$$$$

  -OEChem-05262214473D

 42 41  0     1  0  0  0  0  0999 V2000
   -5.7851   -0.9580    0.6237 C   0  0  0  0  0  0  0  0  0  0  0  0
   -6.2213    0.1296    0.2652 O   0  0  0  0  0  0  0  0  0  0  0  0
   -6.7088   -2.1270    0.7168 C   0  0  0  0  0  0  0  0  0  0  0  0
   -7.1713   -2.2193    1.7126 H   0  0  0  0  0  0  0  0  0  0  0  0
   -7.5511   -2.0547    0.0101 H   0  0  0  0  0  0  0  0  0  0  0  0
   -6.2485   -3.1083    0.5191 H   0  0  0  0  0  0  0  0  0  0  0  0
   -4.4733   -1.2411    0.9668 N   0  0  0  0  0  0  0  0  0  0  0  0
   -3.4203   -0.2603    0.9449 C   0  0  2  0  0  0  0  0  0  0  0  0
   -2.1242   -0.9699    0.5759 C   0  0  0  0  0  0  0  0  0  0  0  0
   -1.8694   -2.1225    0.9189 O   0  0  0  0  0  0  0  0  0  0  0  0
   -3.2916    0.4435    2.2868 C   0  0  0  0  0  0  0  0  0  0  0  0
   -4.2421   -2.1920    1.2489 H   0  0  0  0  0  0  0  0  0  0  0  0
   -3.6772    0.4622    0.1625 H   0  0  0  0  0  0  0  0  0  0  0  0
   -3.0345   -0.2644    3.0832 H   0  0  0  0  0  0  0  0  0  0  0  0
   -2.5093    1.2092    2.2599 H   0  0  0  0  0  0  0  0  0  0  0  0
   -4.2338    0.9283    2.5645 H   0  0  0  0  0  0  0  0  0  0  0  0
   -1.2626   -0.1515   -0.1463 N   0  0  0  0  0  0  0  0  0  0  0  0
    0.0431   -0.5785   -0.5755 C   0  0  2  0  0  0  0  0  0  0  0  0
    0.6896    0.5742   -1.3324 C   0  0  0  0  0  0  0  0  0  0  0  0
    1.8963    0.6347   -1.5592 O   0  0  0  0  0  0  0  0  0  0  0  0
   -0.0400   -1.8221   -1.4468 C   0  0  0  0  0  0  0  0  0  0  0  0
   -1.5766    0.7776   -0.4197 H   0  0  0  0  0  0  0  0  0  0  0  0
    0.6204   -0.7903    0.3311 H   0  0  0  0  0  0  0  0  0  0  0  0
   -0.6149   -1.6292   -2.3599 H   0  0  0  0  0  0  0  0  0  0  0  0
    0.9560   -2.1622   -1.7489 H   0  0  0  0  0  0  0  0  0  0  0  0
   -0.5321   -2.6411   -0.9111 H   0  0  0  0  0  0  0  0  0  0  0  0
   -0.2317    1.5526   -1.6896 N   0  0  0  0  0  0  0  0  0  0  0  0
    0.1402    2.7617   -2.3759 C   0  0  2  0  0  0  0  0  0  0  0  0
   -0.7977    3.8704   -1.9169 C   0  0  0  0  0  0  0  0  0  0  0  0
   -1.9775    3.6758   -1.6318 O   0  0  0  0  0  0  0  0  0  0  0  0
    0.0745    2.5842   -3.8848 C   0  0  0  0  0  0  0  0  0  0  0  0
   -1.2188    1.3967   -1.4945 H   0  0  0  0  0  0  0  0  0  0  0  0
    1.1644    2.9981   -2.0676 H   0  0  0  0  0  0  0  0  0  0  0  0
   -0.9442    2.3468   -4.2125 H   0  0  0  0  0  0  0  0  0  0  0  0
    0.3851    3.4960   -4.4055 H   0  0  0  0  0  0  0  0  0  0  0  0
    0.7271    1.7667   -4.2098 H   0  0  0  0  0  0  0  0  0  0  0  0
   -0.1738    5.1101   -1.9046 N   0  0  0  0  0  0  0  0  0  0  0  0
   -0.8644    6.3270   -1.5467 C   0  0  0  0  0  0  0  0  0  0  0  0
    0.8176    5.1726   -2.1169 H   0  0  0  0  0  0  0  0  0  0  0  0
   -1.2644    6.8027   -2.4543 H   0  0  0  0  0  0  0  0  0  0  0  0
   -1.6919    6.0909   -0.8615 H   0  0  0  0  0  0  0  0  0  0  0  0
   -0.1630    7.0144   -1.0513 H   0  0  0  0  0  0  0  0  0  0  0  0
  1  3  1  0  0  0  0
  1  7  1  0  0  0  0
  1  2  2  0  0  0  0
 28 29  1  0  0  0  0
 29 37  1  0  0  0  0
 29 30  2  0  0  0  0
 18 19  1  0  0  0  0
 19 27  1  0  0  0  0
 19 20  2  0  0  0  0
  8  9  1  0  0  0  0
  9 17  1  0  0  0  0
  9 10  2  0  0  0  0
 28 31  1  0  0  0  0
 18 21  1  0  0  0  0
  8 11  1  0  0  0  0
 37 38  1  0  0  0  0
 27 28  1  0  0  0  0
 17 18  1  0  0  0  0
  7  8  1  0  0  0  0
  3  4  1  0  0  0  0
  3  5  1  0  0  0  0
  3  6  1  0  0  0  0
 31 34  1  0  0  0  0
 31 35  1  0  0  0  0
 31 36  1  0  0  0  0
 21 24  1  0  0  0  0
 21 25  1  0  0  0  0
 21 26  1  0  0  0  0
 11 14  1  0  0  0  0
 11 15  1  0  0  0  0
 11 16  1  0  0  0  0
 38 40  1  0  0  0  0
 38 41  1  0  0  0  0
 38 42  1  0  0  0  0
 28 33  1  0  0  0  0
 18 23  1  0  0  0  0
  8 13  1  0  0  0  0
 37 39  1  0  0  0  0
  7 12  1  0  0  0  0
 27 32  1  0  0  0  0
 17 22  1  0  0  0  0
M  END
$$$$

  -OEChem-05262214473D

 42 41  0     1  0  0  0  0  0999 V2000
   -5.7851   -0.9580    0.6237 C   0  0  0  0  0  0  0  0  0  0  0  0
   -6.2213    0.1296    0.2652 O   0  0  0  0  0  0  0  0  0  0  0  0
   -6.7088   -2.1270    0.7168 C   0  0  0  0  0  0  0  0  0  0  0  0
   -7.1713   -2.2193    1.7126 H   0  0  0  0  0  0  0  0  0  0  0  0
   -7.5511   -2.0547    0.0101 H   0  0  0  0  0  0  0  0  0  0  0  0
   -6.2485   -3.1083    0.5191 H   0  0  0  0  0  0  0  0  0  0  0  0
   -4.4733   -1.2411    0.9668 N   0  0  0  0  0  0  0  0  0  0  0  0
   -3.4203   -0.2603    0.9449 C   0  0  2  0  0  0  0  0  0  0  0  0
   -2.1242   -0.9699    0.5759 C   0  0  0  0  0  0  0  0  0  0  0  0
   -1.8694   -2.1225    0.9189 O   0  0  0  0  0  0  0  0  0  0  0  0
   -3.2916    0.4435    2.2868 C   0  0  0  0  0  0  0  0  0  0  0  0
   -4.2421   -2.1920    1.2489 H   0  0  0  0  0  0  0  0  0  0  0  0
   -3.6772    0.4622    0.1625 H   0  0  0  0  0  0  0  0  0  0  0  0
   -3.0345   -0.2644    3.0832 H   0  0  0  0  0  0  0  0  0  0  0  0
   -2.5093    1.2092    2.2599 H   0  0  0  0  0  0  0  0  0  0  0  0
   -4.2338    0.9283    2.5645 H   0  0  0  0  0  0  0  0  0  0  0  0
   -1.2626   -0.1515   -0.1463 N   0  0  0  0  0  0  0  0  0  0  0  0
    0.0431   -0.5785   -0.5755 C   0  0  2  0  0  0  0  0  0  0  0  0
    0.6896    0.5742   -1.3324 C   0  0  0  0  0  0  0  0  0  0  0  0
    1.8282    0.5197   -1.7926 O   0  0  0  0  0  0  0  0  0  0  0  0
   -0.0400   -1.8221   -1.4468 C   0  0  0  0  0  0  0  0  0  0  0  0
   -1.5766    0.7776   -0.4197 H   0  0  0  0  0  0  0  0  0  0  0  0
    0.6204   -0.7903    0.3311 H   0  0  0  0  0  0  0  0  0  0  0  0
   -0.6149   -1.6292   -2.3599 H   0  0  0  0  0  0  0  0  0  0  0  0
    0.9560   -2.1622   -1.7489 H   0  0  0  0  0  0  0  0  0  0  0  0
   -0.5321   -2.6411   -0.9111 H   0  0  0  0  0  0  0  0  0  0  0  0
   -0.1369    1.6906   -1.3984 N   0  0  0  0  0  0  0  0  0  0  0  0
    0.2639    2.9226   -2.0252 C   0  0  2  0  0  0  0  0  0  0  0  0
   -0.4064    4.0692   -1.2800 C   0  0  0  0  0  0  0  0  0  0  0  0
   -1.5266    3.9813   -0.7815 O   0  0  0  0  0  0  0  0  0  0  0  0
   -0.1094    2.9405   -3.4993 C   0  0  0  0  0  0  0  0  0  0  0  0
   -1.0812    1.6292   -1.0230 H   0  0  0  0  0  0  0  0  0  0  0  0
    1.3507    2.9972   -1.9099 H   0  0  0  0  0  0  0  0  0  0  0  0
   -1.1946    2.8666   -3.6348 H   0  0  0  0  0  0  0  0  0  0  0  0
    0.2216    3.8663   -3.9813 H   0  0  0  0  0  0  0  0  0  0  0  0
    0.3496    2.0980   -4.0278 H   0  0  0  0  0  0  0  0  0  0  0  0
    0.3755    5.2159   -1.2743 N   0  0  0  0  0  0  0  0  0  0  0  0
   -0.0585    6.4524   -0.6673 C   0  0  0  0  0  0  0  0  0  0  0  0
    1.3078    5.1869   -1.6765 H   0  0  0  0  0  0  0  0  0  0  0  0
   -0.5522    7.0796   -1.4242 H   0  0  0  0  0  0  0  0  0  0  0  0
   -0.7666    6.2331    0.1455 H   0  0  0  0  0  0  0  0  0  0  0  0
    0.8128    6.9865   -0.2603 H   0  0  0  0  0  0  0  0  0  0  0  0
  1  3  1  0  0  0  0
  1  7  1  0  0  0  0
  1  2  2  0  0  0  0
 28 29  1  0  0  0  0
 29 37  1  0  0  0  0
 29 30  2  0  0  0  0
 18 19  1  0  0  0  0
 19 27  1  0  0  0  0
 19 20  2  0  0  0  0
  8  9  1  0  0  0  0
  9 17  1  0  0  0  0
  9 10  2  0  0  0  0
 28 31  1  0  0  0  0
 18 21  1  0  0  0  0
  8 11  1  0  0  0  0
 37 38  1  0  0  0  0
 27 28  1  0  0  0  0
 17 18  1  0  0  0  0
  7  8  1  0  0  0  0
  3  4  1  0  0  0  0
  3  5  1  0  0  0  0
  3  6  1  0  0  0  0
 31 34  1  0  0  0  0
 31 35  1  0  0  0  0
 31 36  1  0  0  0  0
 21 24  1  0  0  0  0
 21 25  1  0  0  0  0
 21 26  1  0  0  0  0
 11 14  1  0  0  0  0
 11 15  1  0  0  0  0
 11 16  1  0  0  0  0
 38 40  1  0  0  0  0
 38 41  1  0  0  0  0
 38 42  1  0  0  0  0
 28 33  1  0  0  0  0
 18 23  1  0  0  0  0
  8 13  1  0  0  0  0
 37 39  1  0  0  0  0
  7 12  1  0  0  0  0
 27 32  1  0  0  0  0
 17 22  1  0  0  0  0
M  END
$$$$

  -OEChem-05262214473D

 42 41  0     1  0  0  0  0  0999 V2000
   -5.7851   -0.9580    0.6237 C   0  0  0  0  0  0  0  0  0  0  0  0
   -6.2213    0.1296    0.2652 O   0  0  0  0  0  0  0  0  0  0  0  0
   -6.7088   -2.1270    0.7168 C   0  0  0  0  0  0  0  0  0  0  0  0
   -7.1713   -2.2193    1.7126 H   0  0  0  0  0  0  0  0  0  0  0  0
   -7.5511   -2.0547    0.0101 H   0  0  0  0  0  0  0  0  0  0  0  0
   -6.2485   -3.1083    0.5191 H   0  0  0  0  0  0  0  0  0  0  0  0
   -4.4733   -1.2411    0.9668 N   0  0  0  0  0  0  0  0  0  0  0  0
   -3.4203   -0.2603    0.9449 C   0  0  2  0  0  0  0  0  0  0  0  0
   -2.1242   -0.9699    0.5759 C   0  0  0  0  0  0  0  0  0  0  0  0
   -1.8694   -2.1225    0.9189 O   0  0  0  0  0  0  0  0  0  0  0  0
   -3.2916    0.4435    2.2868 C   0  0  0  0  0  0  0  0  0  0  0  0
   -4.2421   -2.1920    1.2489 H   0  0  0  0  0  0  0  0  0  0  0  0
   -3.6772    0.4622    0.1625 H   0  0  0  0  0  0  0  0  0  0  0  0
   -3.0345   -0.2644    3.0832 H   0  0  0  0  0  0  0  0  0  0  0  0
   -2.5093    1.2092    2.2599 H   0  0  0  0  0  0  0  0  0  0  0  0
   -4.2338    0.9283    2.5645 H   0  0  0  0  0  0  0  0  0  0  0  0
   -1.2626   -0.1515   -0.1463 N   0  0  0  0  0  0  0  0  0  0  0  0
    0.0431   -0.5785   -0.5755 C   0  0  2  0  0  0  0  0  0  0  0  0
    0.6896    0.5742   -1.3324 C   0  0  0  0  0  0  0  0  0  0  0  0
    1.7020    0.4430   -2.0173 O   0  0  0  0  0  0  0  0  0  0  0  0
   -0.0400   -1.8221   -1.4468 C   0  0  0  0  0  0  0  0  0  0  0  0
   -1.5766    0.7776   -0.4197 H   0  0  0  0  0  0  0  0  0  0  0  0
    0.6204   -0.7903    0.3311 H   0  0  0  0  0  0  0  0  0  0  0  0
   -0.6149   -1.6292   -2.3599 H   0  0  0  0  0  0  0  0  0  0  0  0
    0.9560   -2.1622   -1.7489 H   0  0  0  0  0  0  0  0  0  0  0  0
   -0.5321   -2.6411   -0.9111 H   0  0  0  0  0  0  0  0  0  0  0  0
    0.0296    1.7797   -1.1205 N   0  0  0  0  0  0  0  0  0  0  0  0
    0.4729    3.0235   -1.6931 C   0  0  2  0  0  0  0  0  0  0  0  0
    0.1219    4.1409   -0.7195 C   0  0  0  0  0  0  0  0  0  0  0  0
   -0.8852    4.1249   -0.0149 O   0  0  0  0  0  0  0  0  0  0  0  0
   -0.1657    3.2659   -3.0518 C   0  0  0  0  0  0  0  0  0  0  0  0
   -0.8261    1.7843   -0.5689 H   0  0  0  0  0  0  0  0  0  0  0  0
    1.5615    2.9550   -1.7942 H   0  0  0  0  0  0  0  0  0  0  0  0
   -1.2565    3.3375   -2.9706 H   0  0  0  0  0  0  0  0  0  0  0  0
    0.1943    4.1985   -3.4987 H   0  0  0  0  0  0  0  0  0  0  0  0
    0.0631    2.4465   -3.7417 H   0  0  0  0  0  0  0  0  0  0  0  0
    1.0431    5.1781   -0.7615 N   0  0  0  0  0  0  0  0  0  0  0  0
    0.9084    6.3733    0.0381 C   0  0  0  0  0  0  0  0  0  0  0  0
    1.8694    5.0892   -1.3455 H   0  0  0  0  0  0  0  0  0  0  0  0
    0.3732    7.1423   -0.5383 H   0  0  0  0  0  0  0  0  0  0  0  0
    0.3428    6.1407    0.9525 H   0  0  0  0  0  0  0  0  0  0  0  0
    1.9066    6.7471    0.3096 H   0  0  0  0  0  0  0  0  0  0  0  0
  1  3  1  0  0  0  0
  1  7  1  0  0  0  0
  1  2  2  0  0  0  0
 28 29  1  0  0  0  0
 29 37  1  0  0  0  0
 29 30  2  0  0  0  0
 18 19  1  0  0  0  0
 19 27  1  0  0  0  0
 19 20  2  0  0  0  0
  8  9  1  0  0  0  0
  9 17  1  0  0  0  0
  9 10  2  0  0  0  0
 28 31  1  0  0  0  0
 18 21  1  0  0  0  0
  8 11  1  0  0  0  0
 37 38  1  0  0  0  0
 27 28  1  0  0  0  0
 17 18  1  0  0  0  0
  7  8  1  0  0  0  0
  3  4  1  0  0  0  0
  3  5  1  0  0  0  0
  3  6  1  0  0  0  0
 31 34  1  0  0  0  0
 31 35  1  0  0  0  0
 31 36  1  0  0  0  0
 21 24  1  0  0  0  0
 21 25  1  0  0  0  0
 21 26  1  0  0  0  0
 11 14  1  0  0  0  0
 11 15  1  0  0  0  0
 11 16  1  0  0  0  0
 38 40  1  0  0  0  0
 38 41  1  0  0  0  0
 38 42  1  0  0  0  0
 28 33  1  0  0  0  0
 18 23  1  0  0  0  0
  8 13  1  0  0  0  0
 37 39  1  0  0  0  0
  7 12  1  0  0  0  0
 27 32  1  0  0  0  0
 17 22  1  0  0  0  0
M  END
$$$$

  -OEChem-05262214473D

 42 41  0     1  0  0  0  0  0999 V2000
   -5.7851   -0.9580    0.6237 C   0  0  0  0  0  0  0  0  0  0  0  0
   -6.2213    0.1296    0.2652 O   0  0  0  0  0  0  0  0  0  0  0  0
   -6.7088   -2.1270    0.7168 C   0  0  0  0  0  0  0  0  0  0  0  0
   -7.1713   -2.2193    1.7126 H   0  0  0  0  0  0  0  0  0  0  0  0
   -7.5511   -2.0547    0.0101 H   0  0  0  0  0  0  0  0  0  0  0  0
   -6.2485   -3.1083    0.5191 H   0  0  0  0  0  0  0  0  0  0  0  0
   -4.4733   -1.2411    0.9668 N   0  0  0  0  0  0  0  0  0  0  0  0
   -3.4203   -0.2603    0.9449 C   0  0  2  0  0  0  0  0  0  0  0  0
   -2.1242   -0.9699    0.5759 C   0  0  0  0  0  0  0  0  0  0  0  0
   -1.8694   -2.1225    0.9189 O   0  0  0  0  0  0  0  0  0  0  0  0
   -3.2916    0.4435    2.2868 C   0  0  0  0  0  0  0  0  0  0  0  0
   -4.2421   -2.1920    1.2489 H   0  0  0  0  0  0  0  0  0  0  0  0
   -3.6772    0.4622    0.1625 H   0  0  0  0  0  0  0  0  0  0  0  0
   -3.0345   -0.2644    3.0832 H   0  0  0  0  0  0  0  0  0  0  0  0
   -2.5093    1.2092    2.2599 H   0  0  0  0  0  0  0  0  0  0  0  0
   -4.2338    0.9283    2.5645 H   0  0  0  0  0  0  0  0  0  0  0  0
   -1.2626   -0.1515   -0.1463 N   0  0  0  0  0  0  0  0  0  0  0  0
    0.0431   -0.5785   -0.5755 C   0  0  2  0  0  0  0  0  0  0  0  0
    0.6896    0.5742   -1.3324 C   0  0  0  0  0  0  0  0  0  0  0  0
    1.5262    0.4098   -2.2180 O   0  0  0  0  0  0  0  0  0  0  0  0
   -0.0400   -1.8221   -1.4468 C   0  0  0  0  0  0  0  0  0  0  0  0
   -1.5766    0.7776   -0.4197 H   0  0  0  0  0  0  0  0  0  0  0  0
    0.6204   -0.7903    0.3311 H   0  0  0  0  0  0  0  0  0  0  0  0
   -0.6149   -1.6292   -2.3599 H   0  0  0  0  0  0  0  0  0  0  0  0
    0.9560   -2.1622   -1.7489 H   0  0  0  0  0  0  0  0  0  0  0  0
   -0.5321   -2.6411   -0.9111 H   0  0  0  0  0  0  0  0  0  0  0  0
    0.2563    1.8138   -0.8749 N   0  0  0  0  0  0  0  0  0  0  0  0
    0.7527    3.0576   -1.4021 C   0  0  2  0  0  0  0  0  0  0  0  0
    0.7512    4.0806   -0.2738 C   0  0  0  0  0  0  0  0  0  0  0  0
   -0.0970    4.0969    0.6157 O   0  0  0  0  0  0  0  0  0  0  0  0
   -0.0906    3.5383   -2.5727 C   0  0  0  0  0  0  0  0  0  0  0  0
   -0.4708    1.8514   -0.1632 H   0  0  0  0  0  0  0  0  0  0  0  0
    1.7823    2.8744   -1.7283 H   0  0  0  0  0  0  0  0  0  0  0  0
   -1.1255    3.7272   -2.2652 H   0  0  0  0  0  0  0  0  0  0  0  0
    0.3052    4.4698   -2.9908 H   0  0  0  0  0  0  0  0  0  0  0  0
   -0.1127    2.7886   -3.3710 H   0  0  0  0  0  0  0  0  0  0  0  0
    1.7835    4.9995   -0.4011 N   0  0  0  0  0  0  0  0  0  0  0  0
    1.9703    6.0950    0.5214 C   0  0  0  0  0  0  0  0  0  0  0  0
    2.4642    4.8863   -1.1465 H   0  0  0  0  0  0  0  0  0  0  0  0
    1.4486    6.9865    0.1431 H   0  0  0  0  0  0  0  0  0  0  0  0
    1.5606    5.8202    1.5045 H   0  0  0  0  0  0  0  0  0  0  0  0
    3.0441    6.3126    0.6194 H   0  0  0  0  0  0  0  0  0  0  0  0
  1  3  1  0  0  0  0
  1  7  1  0  0  0  0
  1  2  2  0  0  0  0
 28 29  1  0  0  0  0
 29 37  1  0  0  0  0
 29 30  2  0  0  0  0
 18 19  1  0  0  0  0
 19 27  1  0  0  0  0
 19 20  2  0  0  0  0
  8  9  1  0  0  0  0
  9 17  1  0  0  0  0
  9 10  2  0  0  0  0
 28 31  1  0  0  0  0
 18 21  1  0  0  0  0
  8 11  1  0  0  0  0
 37 38  1  0  0  0  0
 27 28  1  0  0  0  0
 17 18  1  0  0  0  0
  7  8  1  0  0  0  0
  3  4  1  0  0  0  0
  3  5  1  0  0  0  0
  3  6  1  0  0  0  0
 31 34  1  0  0  0  0
 31 35  1  0  0  0  0
 31 36  1  0  0  0  0
 21 24  1  0  0  0  0
 21 25  1  0  0  0  0
 21 26  1  0  0  0  0
 11 14  1  0  0  0  0
 11 15  1  0  0  0  0
 11 16  1  0  0  0  0
 38 40  1  0  0  0  0
 38 41  1  0  0  0  0
 38 42  1  0  0  0  0
 28 33  1  0  0  0  0
 18 23  1  0  0  0  0
  8 13  1  0  0  0  0
 37 39  1  0  0  0  0
  7 12  1  0  0  0  0
 27 32  1  0  0  0  0
 17 22  1  0  0  0  0
M  END
$$$$

  -OEChem-05262214473D

 42 41  0     1  0  0  0  0  0999 V2000
   -5.7851   -0.9580    0.6237 C   0  0  0  0  0  0  0  0  0  0  0  0
   -6.2213    0.1296    0.2652 O   0  0  0  0  0  0  0  0  0  0  0  0
   -6.7088   -2.1270    0.7168 C   0  0  0  0  0  0  0  0  0  0  0  0
   -7.1713   -2.2193    1.7126 H   0  0  0  0  0  0  0  0  0  0  0  0
   -7.5511   -2.0547    0.0101 H   0  0  0  0  0  0  0  0  0  0  0  0
   -6.2485   -3.1083    0.5191 H   0  0  0  0  0  0  0  0  0  0  0  0
   -4.4733   -1.2411    0.9668 N   0  0  0  0  0  0  0  0  0  0  0  0
   -3.4203   -0.2603    0.9449 C   0  0  2  0  0  0  0  0  0  0  0  0
   -2.1242   -0.9699    0.5759 C   0  0  0  0  0  0  0  0  0  0  0  0
   -1.8694   -2.1225    0.9189 O   0  0  0  0  0  0  0  0  0  0  0  0
   -3.2916    0.4435    2.2868 C   0  0  0  0  0  0  0  0  0  0  0  0
   -4.2421   -2.1920    1.2489 H   0  0  0  0  0  0  0  0  0  0  0  0
   -3.6772    0.4622    0.1625 H   0  0  0  0  0  0  0  0  0  0  0  0
   -3.0345   -0.2644    3.0832 H   0  0  0  0  0  0  0  0  0  0  0  0
   -2.5093    1.2092    2.2599 H   0  0  0  0  0  0  0  0  0  0  0  0
   -4.2338    0.9283    2.5645 H   0  0  0  0  0  0  0  0  0  0  0  0
   -1.2626   -0.1515   -0.1463 N   0  0  0  0  0  0  0  0  0  0  0  0
    0.0431   -0.5785   -0.5755 C   0  0  2  0  0  0  0  0  0  0  0  0
    0.6896    0.5742   -1.3324 C   0  0  0  0  0  0  0  0  0  0  0  0
    1.3127    0.4224   -2.3811 O   0  0  0  0  0  0  0  0  0  0  0  0
   -0.0400   -1.8221   -1.4468 C   0  0  0  0  0  0  0  0  0  0  0  0
   -1.5766    0.7776   -0.4197 H   0  0  0  0  0  0  0  0  0  0  0  0
    0.6204   -0.7903    0.3311 H   0  0  0  0  0  0  0  0  0  0  0  0
   -0.6149   -1.6292   -2.3599 H   0  0  0  0  0  0  0  0  0  0  0  0
    0.9560   -2.1622   -1.7489 H   0  0  0  0  0  0  0  0  0  0  0  0
   -0.5321   -2.6411   -0.9111 H   0  0  0  0  0  0  0  0  0  0  0  0
    0.5277    1.7906   -0.6783 N   0  0  0  0  0  0  0  0  0  0  0  0
    1.0844    3.0226   -1.1721 C   0  0  2  0  0  0  0  0  0  0  0  0
    1.4387    3.8924    0.0269 C   0  0  0  0  0  0  0  0  0  0  0  0
    0.7842    3.8992    1.0674 O   0  0  0  0  0  0  0  0  0  0  0  0
    0.1109    3.7392   -2.0948 C   0  0  0  0  0  0  0  0  0  0  0  0
   -0.0395    1.8259    0.1664 H   0  0  0  0  0  0  0  0  0  0  0  0
    1.9981    2.7609   -1.7168 H   0  0  0  0  0  0  0  0  0  0  0  0
   -0.8108    4.0094   -1.5666 H   0  0  0  0  0  0  0  0  0  0  0  0
    0.5468    4.6618   -2.4921 H   0  0  0  0  0  0  0  0  0  0  0  0
   -0.1659    3.1009   -2.9408 H   0  0  0  0  0  0  0  0  0  0  0  0
    2.5463    4.6921   -0.2176 N   0  0  0  0  0  0  0  0  0  0  0  0
    3.0549    5.6365    0.7496 C   0  0  0  0  0  0  0  0  0  0  0  0
    3.0515    4.5919   -1.0931 H   0  0  0  0  0  0  0  0  0  0  0  0
    2.6009    6.6228    0.5735 H   0  0  0  0  0  0  0  0  0  0  0  0
    2.8038    5.2933    1.7640 H   0  0  0  0  0  0  0  0  0  0  0  0
    4.1475    5.7126    0.6482 H   0  0  0  0  0  0  0  0  0  0  0  0
  1  3  1  0  0  0  0
  1  7  1  0  0  0  0
  1  2  2  0  0  0  0
 28 29  1  0  0  0  0
 29 37  1  0  0  0  0
 29 30  2  0  0  0  0
 18 19  1  0  0  0  0
 19 27  1  0  0  0  0
 19 20  2  0  0  0  0
  8  9  1  0  0  0  0
  9 17  1  0  0  0  0
  9 10  2  0  0  0  0
 28 31  1  0  0  0  0
 18 21  1  0  0  0  0
  8 11  1  0  0  0  0
 37 38  1  0  0  0  0
 27 28  1  0  0  0  0
 17 18  1  0  0  0  0
  7  8  1  0  0  0  0
  3  4  1  0  0  0  0
  3  5  1  0  0  0  0
  3  6  1  0  0  0  0
 31 34  1  0  0  0  0
 31 35  1  0  0  0  0
 31 36  1  0  0  0  0
 21 24  1  0  0  0  0
 21 25  1  0  0  0  0
 21 26  1  0  0  0  0
 11 14  1  0  0  0  0
 11 15  1  0  0  0  0
 11 16  1  0  0  0  0
 38 40  1  0  0  0  0
 38 41  1  0  0  0  0
 38 42  1  0  0  0  0
 28 33  1  0  0  0  0
 18 23  1  0  0  0  0
  8 13  1  0  0  0  0
 37 39  1  0  0  0  0
  7 12  1  0  0  0  0
 27 32  1  0  0  0  0
 17 22  1  0  0  0  0
M  END
$$$$

  -OEChem-05262214473D

 42 41  0     1  0  0  0  0  0999 V2000
   -5.7851   -0.9580    0.6237 C   0  0  0  0  0  0  0  0  0  0  0  0
   -6.2213    0.1296    0.2652 O   0  0  0  0  0  0  0  0  0  0  0  0
   -6.7088   -2.1270    0.7168 C   0  0  0  0  0  0  0  0  0  0  0  0
   -7.1713   -2.2193    1.7126 H   0  0  0  0  0  0  0  0  0  0  0  0
   -7.5511   -2.0547    0.0101 H   0  0  0  0  0  0  0  0  0  0  0  0
   -6.2485   -3.1083    0.5191 H   0  0  0  0  0  0  0  0  0  0  0  0
   -4.4733   -1.2411    0.9668 N   0  0  0  0  0  0  0  0  0  0  0  0
   -3.4203   -0.2603    0.9449 C   0  0  2  0  0  0  0  0  0  0  0  0
   -2.1242   -0.9699    0.5759 C   0  0  0  0  0  0  0  0  0  0  0  0
   -1.8694   -2.1225    0.9189 O   0  0  0  0  0  0  0  0  0  0  0  0
   -3.2916    0.4435    2.2868 C   0  0  0  0  0  0  0  0  0  0  0  0
   -4.2421   -2.1920    1.2489 H   0  0  0  0  0  0  0  0  0  0  0  0
   -3.6772    0.4622    0.1625 H   0  0  0  0  0  0  0  0  0  0  0  0
   -3.0345   -0.2644    3.0832 H   0  0  0  0  0  0  0  0  0  0  0  0
   -2.5093    1.2092    2.2599 H   0  0  0  0  0  0  0  0  0  0  0  0
   -4.2338    0.9283    2.5645 H   0  0  0  0  0  0  0  0  0  0  0  0
   -1.2626   -0.1515   -0.1463 N   0  0  0  0  0  0  0  0  0  0  0  0
    0.0431   -0.5785   -0.5755 C   0  0  2  0  0  0  0  0  0  0  0  0
    0.6896    0.5742   -1.3324 C   0  0  0  0  0  0  0  0  0  0  0  0
    1.0762    0.4799   -2.4955 O   0  0  0  0  0  0  0  0  0  0  0  0
   -0.0400   -1.8221   -1.4468 C   0  0  0  0  0  0  0  0  0  0  0  0
   -1.5766    0.7776   -0.4197 H   0  0  0  0  0  0  0  0  0  0  0  0
    0.6204   -0.7903    0.3311 H   0  0  0  0  0  0  0  0  0  0  0  0
   -0.6149   -1.6292   -2.3599 H   0  0  0  0  0  0  0  0  0  0  0  0
    0.9560   -2.1622   -1.7489 H   0  0  0  0  0  0  0  0  0  0  0  0
   -0.5321   -2.6411   -0.9111 H   0  0  0  0  0  0  0  0  0  0  0  0
    0.8254    1.7117   -0.5442 N   0  0  0  0  0  0  0  0  0  0  0  0
    1.4454    2.9208   -1.0187 C   0  0  2  0  0  0  0  0  0  0  0  0
    2.1374    3.5892    0.1619 C   0  0  0  0  0  0  0  0  0  0  0  0
    1.6985    3.5452    1.3093 O   0  0  0  0  0  0  0  0  0  0  0  0
    0.4249    3.8547   -1.6505 C   0  0  0  0  0  0  0  0  0  0  0  0
    0.4384    1.7096    0.3975 H   0  0  0  0  0  0  0  0  0  0  0  0
    2.1942    2.6222   -1.7604 H   0  0  0  0  0  0  0  0  0  0  0  0
   -0.3336    4.1647   -0.9225 H   0  0  0  0  0  0  0  0  0  0  0  0
    0.9024    4.7614   -2.0366 H   0  0  0  0  0  0  0  0  0  0  0  0
   -0.0928    3.3621   -2.4806 H   0  0  0  0  0  0  0  0  0  0  0  0
    3.2796    4.2769   -0.2236 N   0  0  0  0  0  0  0  0  0  0  0  0
    4.0882    5.0290    0.7072 C   0  0  0  0  0  0  0  0  0  0  0  0
    3.5915    4.2261   -1.1890 H   0  0  0  0  0  0  0  0  0  0  0  0
    3.7513    6.0761    0.7235 H   0  0  0  0  0  0  0  0  0  0  0  0
    3.9877    4.5959    1.7133 H   0  0  0  0  0  0  0  0  0  0  0  0
    5.1418    4.9879    0.3938 H   0  0  0  0  0  0  0  0  0  0  0  0
  1  3  1  0  0  0  0
  1  7  1  0  0  0  0
  1  2  2  0  0  0  0
 28 29  1  0  0  0  0
 29 37  1  0  0  0  0
 29 30  2  0  0  0  0
 18 19  1  0  0  0  0
 19 27  1  0  0  0  0
 19 20  2  0  0  0  0
  8  9  1  0  0  0  0
  9 17  1  0  0  0  0
  9 10  2  0  0  0  0
 28 31  1  0  0  0  0
 18 21  1  0  0  0  0
  8 11  1  0  0  0  0
 37 38  1  0  0  0  0
 27 28  1  0  0  0  0
 17 18  1  0  0  0  0
  7  8  1  0  0  0  0
  3  4  1  0  0  0  0
  3  5  1  0  0  0  0
  3  6  1  0  0  0  0
 31 34  1  0  0  0  0
 31 35  1  0  0  0  0
 31 36  1  0  0  0  0
 21 24  1  0  0  0  0
 21 25  1  0  0  0  0
 21 26  1  0  0  0  0
 11 14  1  0  0  0  0
 11 15  1  0  0  0  0
 11 16  1  0  0  0  0
 38 40  1  0  0  0  0
 38 41  1  0  0  0  0
 38 42  1  0  0  0  0
 28 33  1  0  0  0  0
 18 23  1  0  0  0  0
  8 13  1  0  0  0  0
 37 39  1  0  0  0  0
  7 12  1  0  0  0  0
 27 32  1  0  0  0  0
 17 22  1  0  0  0  0
M  END
$$$$

  -OEChem-05262214473D

 42 41  0     1  0  0  0  0  0999 V2000
   -5.7851   -0.9580    0.6237 C   0  0  0  0  0  0  0  0  0  0  0  0
   -6.2213    0.1296    0.2652 O   0  0  0  0  0  0  0  0  0  0  0  0
   -6.7088   -2.1270    0.7168 C   0  0  0  0  0  0  0  0  0  0  0  0
   -7.1713   -2.2193    1.7126 H   0  0  0  0  0  0  0  0  0  0  0  0
   -7.5511   -2.0547    0.0101 H   0  0  0  0  0  0  0  0  0  0  0  0
   -6.2485   -3.1083    0.5191 H   0  0  0  0  0  0  0  0  0  0  0  0
   -4.4733   -1.2411    0.9668 N   0  0  0  0  0  0  0  0  0  0  0  0
   -3.4203   -0.2603    0.9449 C   0  0  2  0  0  0  0  0  0  0  0  0
   -2.1242   -0.9699    0.5759 C   0  0  0  0  0  0  0  0  0  0  0  0
   -1.8694   -2.1225    0.9189 O   0  0  0  0  0  0  0  0  0  0  0  0
   -3.2916    0.4435    2.2868 C   0  0  0  0  0  0  0  0  0  0  0  0
   -4.2421   -2.1920    1.2489 H   0  0  0  0  0  0  0  0  0  0  0  0
   -3.6772    0.4622    0.1625 H   0  0  0  0  0  0  0  0  0  0  0  0
   -3.0345   -0.2644    3.0832 H   0  0  0  0  0  0  0  0  0  0  0  0
   -2.5093    1.2092    2.2599 H   0  0  0  0  0  0  0  0  0  0  0  0
   -4.2338    0.9283    2.5645 H   0  0  0  0  0  0  0  0  0  0  0  0
   -1.2626   -0.1515   -0.1463 N   0  0  0  0  0  0  0  0  0  0  0  0
    0.0431   -0.5785   -0.5755 C   0  0  2  0  0  0  0  0  0  0  0  0
    0.6896    0.5742   -1.3324 C   0  0  0  0  0  0  0  0  0  0  0  0
    0.8328    0.5785   -2.5533 O   0  0  0  0  0  0  0  0  0  0  0  0
   -0.0400   -1.8221   -1.4468 C   0  0  0  0  0  0  0  0  0  0  0  0
   -1.5766    0.7776   -0.4197 H   0  0  0  0  0  0  0  0  0  0  0  0
    0.6204   -0.7903    0.3311 H   0  0  0  0  0  0  0  0  0  0  0  0
   -0.6149   -1.6292   -2.3599 H   0  0  0  0  0  0  0  0  0  0  0  0
    0.9560   -2.1622   -1.7489 H   0  0  0  0  0  0  0  0  0  0  0  0
   -0.5321   -2.6411   -0.9111 H   0  0  0  0  0  0  0  0  0  0  0  0
    1.1292    1.5825   -0.4816 N   0  0  0  0  0  0  0  0  0  0  0  0
    1.8110    2.7592   -0.9525 C   0  0  2  0  0  0  0  0  0  0  0  0
    2.7997    3.1916    0.1222 C   0  0  0  0  0  0  0  0  0  0  0  0
    2.5835    3.0592    1.3250 O   0  0  0  0  0  0  0  0  0  0  0  0
    0.8302    3.8772   -1.2702 C   0  0  0  0  0  0  0  0  0  0  0  0
    0.9303    1.5104    0.5143 H   0  0  0  0  0  0  0  0  0  0  0  0
    2.3573    2.4679   -1.8562 H   0  0  0  0  0  0  0  0  0  0  0  0
    0.2735    4.1825   -0.3767 H   0  0  0  0  0  0  0  0  0  0  0  0
    1.3480    4.7618   -1.6553 H   0  0  0  0  0  0  0  0  0  0  0  0
    0.1015    3.5545   -2.0217 H   0  0  0  0  0  0  0  0  0  0  0  0
    3.9332    3.7822   -0.4186 N   0  0  0  0  0  0  0  0  0  0  0  0
    4.9999    4.3140    0.3970 C   0  0  0  0  0  0  0  0  0  0  0  0
    4.0472    3.8139   -1.4275 H   0  0  0  0  0  0  0  0  0  0  0  0
    4.8217    5.3834    0.5830 H   0  0  0  0  0  0  0  0  0  0  0  0
    5.0316    3.7756    1.3557 H   0  0  0  0  0  0  0  0  0  0  0  0
    5.9592    4.1879   -0.1262 H   0  0  0  0  0  0  0  0  0  0  0  0
  1  3  1  0  0  0  0
  1  7  1  0  0  0  0
  1  2  2  0  0  0  0
 28 29  1  0  0  0  0
 29 37  1  0  0  0  0
 29 30  2  0  0  0  0
 18 19  1  0  0  0  0
 19 27  1  0  0  0  0
 19 20  2  0  0  0  0
  8  9  1  0  0  0  0
  9 17  1  0  0  0  0
  9 10  2  0  0  0  0
 28 31  1  0  0  0  0
 18 21  1  0  0  0  0
  8 11  1  0  0  0  0
 37 38  1  0  0  0  0
 27 28  1  0  0  0  0
 17 18  1  0  0  0  0
  7  8  1  0  0  0  0
  3  4  1  0  0  0  0
  3  5  1  0  0  0  0
  3  6  1  0  0  0  0
 31 34  1  0  0  0  0
 31 35  1  0  0  0  0
 31 36  1  0  0  0  0
 21 24  1  0  0  0  0
 21 25  1  0  0  0  0
 21 26  1  0  0  0  0
 11 14  1  0  0  0  0
 11 15  1  0  0  0  0
 11 16  1  0  0  0  0
 38 40  1  0  0  0  0
 38 41  1  0  0  0  0
 38 42  1  0  0  0  0
 28 33  1  0  0  0  0
 18 23  1  0  0  0  0
  8 13  1  0  0  0  0
 37 39  1  0  0  0  0
  7 12  1  0  0  0  0
 27 32  1  0  0  0  0
 17 22  1  0  0  0  0
M  END
$$$$

  -OEChem-05262214473D

 42 41  0     1  0  0  0  0  0999 V2000
   -5.7851   -0.9580    0.6237 C   0  0  0  0  0  0  0  0  0  0  0  0
   -6.2213    0.1296    0.2652 O   0  0  0  0  0  0  0  0  0  0  0  0
   -6.7088   -2.1270    0.7168 C   0  0  0  0  0  0  0  0  0  0  0  0
   -7.1713   -2.2193    1.7126 H   0  0  0  0  0  0  0  0  0  0  0  0
   -7.5511   -2.0547    0.0101 H   0  0  0  0  0  0  0  0  0  0  0  0
   -6.2485   -3.1083    0.5191 H   0  0  0  0  0  0  0  0  0  0  0  0
   -4.4733   -1.2411    0.9668 N   0  0  0  0  0  0  0  0  0  0  0  0
   -3.4203   -0.2603    0.9449 C   0  0  2  0  0  0  0  0  0  0  0  0
   -2.1242   -0.9699    0.5759 C   0  0  0  0  0  0  0  0  0  0  0  0
   -1.8694   -2.1225    0.9189 O   0  0  0  0  0  0  0  0  0  0  0  0
   -3.2916    0.4435    2.2868 C   0  0  0  0  0  0  0  0  0  0  0  0
   -4.2421   -2.1920    1.2489 H   0  0  0  0  0  0  0  0  0  0  0  0
   -3.6772    0.4622    0.1625 H   0  0  0  0  0  0  0  0  0  0  0  0
   -3.0345   -0.2644    3.0832 H   0  0  0  0  0  0  0  0  0  0  0  0
   -2.5093    1.2092    2.2599 H   0  0  0  0  0  0  0  0  0  0  0  0
   -4.2338    0.9283    2.5645 H   0  0  0  0  0  0  0  0  0  0  0  0
   -1.2626   -0.1515   -0.1463 N   0  0  0  0  0  0  0  0  0  0  0  0
    0.0431   -0.5785   -0.5755 C   0  0  2  0  0  0  0  0  0  0  0  0
    0.6896    0.5742   -1.3324 C   0  0  0  0  0  0  0  0  0  0  0  0
    0.5990    0.7114   -2.5506 O   0  0  0  0  0  0  0  0  0  0  0  0
   -0.0400   -1.8221   -1.4468 C   0  0  0  0  0  0  0  0  0  0  0  0
   -1.5766    0.7776   -0.4197 H   0  0  0  0  0  0  0  0  0  0  0  0
    0.6204   -0.7903    0.3311 H   0  0  0  0  0  0  0  0  0  0  0  0
   -0.6149   -1.6292   -2.3599 H   0  0  0  0  0  0  0  0  0  0  0  0
    0.9560   -2.1622   -1.7489 H   0  0  0  0  0  0  0  0  0  0  0  0
   -0.5321   -2.6411   -0.9111 H   0  0  0  0  0  0  0  0  0  0  0  0
    1.4182    1.4117   -0.4948 N   0  0  0  0  0  0  0  0  0  0  0  0
    2.1563    2.5489   -0.9779 C   0  0  2  0  0  0  0  0  0  0  0  0
    3.3806    2.7267   -0.0896 C   0  0  0  0  0  0  0  0  0  0  0  0
    3.3789    2.4741    1.1134 O   0  0  0  0  0  0  0  0  0  0  0  0
    1.2990    3.8049   -0.9798 C   0  0  0  0  0  0  0  0  0  0  0  0
    1.4027    1.2419    0.5090 H   0  0  0  0  0  0  0  0  0  0  0  0
    2.4762    2.3083   -1.9976 H   0  0  0  0  0  0  0  0  0  0  0  0
    0.9691    4.0617    0.0335 H   0  0  0  0  0  0  0  0  0  0  0  0
    1.8532    4.6630   -1.3743 H   0  0  0  0  0  0  0  0  0  0  0  0
    0.4038    3.6649   -1.5953 H   0  0  0  0  0  0  0  0  0  0  0  0
    4.4628    3.2417   -0.7894 N   0  0  0  0  0  0  0  0  0  0  0  0
    5.7278    3.5402   -0.1597 C   0  0  0  0  0  0  0  0  0  0  0  0
    4.3876    3.3833   -1.7924 H   0  0  0  0  0  0  0  0  0  0  0  0
    5.7389    4.5922    0.1615 H   0  0  0  0  0  0  0  0  0  0  0  0
    5.8644    2.8882    0.7157 H   0  0  0  0  0  0  0  0  0  0  0  0
    6.5440    3.3672   -0.8765 H   0  0  0  0  0  0  0  0  0  0  0  0
  1  3  1  0  0  0  0
  1  7  1  0  0  0  0
  1  2  2  0  0  0  0
 28 29  1  0  0  0  0
 29 37  1  0  0  0  0
 29 30  2  0  0  0  0
 18 19  1  0  0  0  0
 19 27  1  0  0  0  0
 19 20  2  0  0  0  0
  8  9  1  0  0  0  0
  9 17  1  0  0  0  0
  9 10  2  0  0  0  0
 28 31  1  0  0  0  0
 18 21  1  0  0  0  0
  8 11  1  0  0  0  0
 37 38  1  0  0  0  0
 27 28  1  0  0  0  0
 17 18  1  0  0  0  0
  7  8  1  0  0  0  0
  3  4  1  0  0  0  0
  3  5  1  0  0  0  0
  3  6  1  0  0  0  0
 31 34  1  0  0  0  0
 31 35  1  0  0  0  0
 31 36  1  0  0  0  0
 21 24  1  0  0  0  0
 21 25  1  0  0  0  0
 21 26  1  0  0  0  0
 11 14  1  0  0  0  0
 11 15  1  0  0  0  0
 11 16  1  0  0  0  0
 38 40  1  0  0  0  0
 38 41  1  0  0  0  0
 38 42  1  0  0  0  0
 28 33  1  0  0  0  0
 18 23  1  0  0  0  0
  8 13  1  0  0  0  0
 37 39  1  0  0  0  0
  7 12  1  0  0  0  0
 27 32  1  0  0  0  0
 17 22  1  0  0  0  0
M  END
$$$$

  -OEChem-05262214473D

 42 41  0     1  0  0  0  0  0999 V2000
   -5.7851   -0.9580    0.6237 C   0  0  0  0  0  0  0  0  0  0  0  0
   -6.2213    0.1296    0.2652 O   0  0  0  0  0  0  0  0  0  0  0  0
   -6.7088   -2.1270    0.7168 C   0  0  0  0  0  0  0  0  0  0  0  0
   -7.1713   -2.2193    1.7126 H   0  0  0  0  0  0  0  0  0  0  0  0
   -7.5511   -2.0547    0.0101 H   0  0  0  0  0  0  0  0  0  0  0  0
   -6.2485   -3.1083    0.5191 H   0  0  0  0  0  0  0  0  0  0  0  0
   -4.4733   -1.2411    0.9668 N   0  0  0  0  0  0  0  0  0  0  0  0
   -3.4203   -0.2603    0.9449 C   0  0  2  0  0  0  0  0  0  0  0  0
   -2.1242   -0.9699    0.5759 C   0  0  0  0  0  0  0  0  0  0  0  0
   -1.8694   -2.1225    0.9189 O   0  0  0  0  0  0  0  0  0  0  0  0
   -3.2916    0.4435    2.2868 C   0  0  0  0  0  0  0  0  0  0  0  0
   -4.2421   -2.1920    1.2489 H   0  0  0  0  0  0  0  0  0  0  0  0
   -3.6772    0.4622    0.1625 H   0  0  0  0  0  0  0  0  0  0  0  0
   -3.0345   -0.2644    3.0832 H   0  0  0  0  0  0  0  0  0  0  0  0
   -2.5093    1.2092    2.2599 H   0  0  0  0  0  0  0  0  0  0  0  0
   -4.2338    0.9283    2.5645 H   0  0  0  0  0  0  0  0  0  0  0  0
   -1.2626   -0.1515   -0.1463 N   0  0  0  0  0  0  0  0  0  0  0  0
    0.0431   -0.5785   -0.5755 C   0  0  2  0  0  0  0  0  0  0  0  0
    0.6896    0.5742   -1.3324 C   0  0  0  0  0  0  0  0  0  0  0  0
    0.3909    0.8695   -2.4876 O   0  0  0  0  0  0  0  0  0  0  0  0
   -0.0400   -1.8221   -1.4468 C   0  0  0  0  0  0  0  0  0  0  0  0
   -1.5766    0.7776   -0.4197 H   0  0  0  0  0  0  0  0  0  0  0  0
    0.6204   -0.7903    0.3311 H   0  0  0  0  0  0  0  0  0  0  0  0
   -0.6149   -1.6292   -2.3599 H   0  0  0  0  0  0  0  0  0  0  0  0
    0.9560   -2.1622   -1.7489 H   0  0  0  0  0  0  0  0  0  0  0  0
   -0.5321   -2.6411   -0.9111 H   0  0  0  0  0  0  0  0  0  0  0  0
    1.6728    1.2110   -0.5829 N   0  0  0  0  0  0  0  0  0  0  0  0
    2.4579    2.3040   -1.0932 C   0  0  2  0  0  0  0  0  0  0  0  0
    3.8404    2.2263   -0.4590 C   0  0  0  0  0  0  0  0  0  0  0  0
    4.0304    1.8299    0.6890 O   0  0  0  0  0  0  0  0  0  0  0  0
    1.7995    3.6429   -0.7990 C   0  0  0  0  0  0  0  0  0  0  0  0
    1.8234    0.9223    0.3817 H   0  0  0  0  0  0  0  0  0  0  0  0
    2.5428    2.1544   -2.1750 H   0  0  0  0  0  0  0  0  0  0  0  0
    1.7058    3.8105    0.2802 H   0  0  0  0  0  0  0  0  0  0  0  0
    2.3835    4.4717   -1.2127 H   0  0  0  0  0  0  0  0  0  0  0  0
    0.7936    3.6858   -1.2305 H   0  0  0  0  0  0  0  0  0  0  0  0
    4.8322    2.6922   -1.3107 N   0  0  0  0  0  0  0  0  0  0  0  0
    6.2224    2.7602   -0.9250 C   0  0  0  0  0  0  0  0  0  0  0  0
    4.5896    2.9636   -2.2590 H   0  0  0  0  0  0  0  0  0  0  0  0
    6.4406    3.7562   -0.5122 H   0  0  0  0  0  0  0  0  0  0  0  0
    6.4293    1.9943   -0.1631 H   0  0  0  0  0  0  0  0  0  0  0  0
    6.8563    2.5817   -1.8060 H   0  0  0  0  0  0  0  0  0  0  0  0
  1  3  1  0  0  0  0
  1  7  1  0  0  0  0
  1  2  2  0  0  0  0
 28 29  1  0  0  0  0
 29 37  1  0  0  0  0
 29 30  2  0  0  0  0
 18 19  1  0  0  0  0
 19 27  1  0  0  0  0
 19 20  2  0  0  0  0
  8  9  1  0  0  0  0
  9 17  1  0  0  0  0
  9 10  2  0  0  0  0
 28 31  1  0  0  0  0
 18 21  1  0  0  0  0
  8 11  1  0  0  0  0
 37 38  1  0  0  0  0
 27 28  1  0  0  0  0
 17 18  1  0  0  0  0
  7  8  1  0  0  0  0
  3  4  1  0  0  0  0
  3  5  1  0  0  0  0
  3  6  1  0  0  0  0
 31 34  1  0  0  0  0
 31 35  1  0  0  0  0
 31 36  1  0  0  0  0
 21 24  1  0  0  0  0
 21 25  1  0  0  0  0
 21 26  1  0  0  0  0
 11 14  1  0  0  0  0
 11 15  1  0  0  0  0
 11 16  1  0  0  0  0
 38 40  1  0  0  0  0
 38 41  1  0  0  0  0
 38 42  1  0  0  0  0
 28 33  1  0  0  0  0
 18 23  1  0  0  0  0
  8 13  1  0  0  0  0
 37 39  1  0  0  0  0
  7 12  1  0  0  0  0
 27 32  1  0  0  0  0
 17 22  1  0  0  0  0
M  END
$$$$

  -OEChem-05262214473D

 42 41  0     1  0  0  0  0  0999 V2000
   -5.7851   -0.9580    0.6237 C   0  0  0  0  0  0  0  0  0  0  0  0
   -6.2213    0.1296    0.2652 O   0  0  0  0  0  0  0  0  0  0  0  0
   -6.7088   -2.1270    0.7168 C   0  0  0  0  0  0  0  0  0  0  0  0
   -7.1713   -2.2193    1.7126 H   0  0  0  0  0  0  0  0  0  0  0  0
   -7.5511   -2.0547    0.0101 H   0  0  0  0  0  0  0  0  0  0  0  0
   -6.2485   -3.1083    0.5191 H   0  0  0  0  0  0  0  0  0  0  0  0
   -4.4733   -1.2411    0.9668 N   0  0  0  0  0  0  0  0  0  0  0  0
   -3.4203   -0.2603    0.9449 C   0  0  2  0  0  0  0  0  0  0  0  0
   -2.1242   -0.9699    0.5759 C   0  0  0  0  0  0  0  0  0  0  0  0
   -1.8694   -2.1225    0.9189 O   0  0  0  0  0  0  0  0  0  0  0  0
   -3.2916    0.4435    2.2868 C   0  0  0  0  0  0  0  0  0  0  0  0
   -4.2421   -2.1920    1.2489 H   0  0  0  0  0  0  0  0  0  0  0  0
   -3.6772    0.4622    0.1625 H   0  0  0  0  0  0  0  0  0  0  0  0
   -3.0345   -0.2644    3.0832 H   0  0  0  0  0  0  0  0  0  0  0  0
   -2.5093    1.2092    2.2599 H   0  0  0  0  0  0  0  0  0  0  0  0
   -4.2338    0.9283    2.5645 H   0  0  0  0  0  0  0  0  0  0  0  0
   -1.2626   -0.1515   -0.1463 N   0  0  0  0  0  0  0  0  0  0  0  0
    0.0431   -0.5785   -0.5755 C   0  0  2  0  0  0  0  0  0  0  0  0
    0.6896    0.5742   -1.3324 C   0  0  0  0  0  0  0  0  0  0  0  0
    0.2224    1.0421   -2.3687 O   0  0  0  0  0  0  0  0  0  0  0  0
   -0.0400   -1.8221   -1.4468 C   0  0  0  0  0  0  0  0  0  0  0  0
   -1.5766    0.7776   -0.4197 H   0  0  0  0  0  0  0  0  0  0  0  0
    0.6204   -0.7903    0.3311 H   0  0  0  0  0  0  0  0  0  0  0  0
   -0.6149   -1.6292   -2.3599 H   0  0  0  0  0  0  0  0  0  0  0  0
    0.9560   -2.1622   -1.7489 H   0  0  0  0  0  0  0  0  0  0  0  0
   -0.5321   -2.6411   -0.9111 H   0  0  0  0  0  0  0  0  0  0  0  0
    1.8756    0.9941   -0.7400 N   0  0  0  0  0  0  0  0  0  0  0  0
    2.6951    2.0414   -1.2905 C   0  0  2  0  0  0  0  0  0  0  0  0
    4.1477    1.7243   -0.9609 C   0  0  0  0  0  0  0  0  0  0  0  0
    4.4938    1.1705    0.0806 O   0  0  0  0  0  0  0  0  0  0  0  0
    2.2974    3.4022   -0.7402 C   0  0  0  0  0  0  0  0  0  0  0  0
    2.1638    0.5735    0.1413 H   0  0  0  0  0  0  0  0  0  0  0  0
    2.5526    2.0168   -2.3764 H   0  0  0  0  0  0  0  0  0  0  0  0
    2.4334    3.4460    0.3465 H   0  0  0  0  0  0  0  0  0  0  0  0
    2.9027    4.2009   -1.1815 H   0  0  0  0  0  0  0  0  0  0  0  0
    1.2442    3.6157   -0.9523 H   0  0  0  0  0  0  0  0  0  0  0  0
    5.0162    2.1712   -1.9469 N   0  0  0  0  0  0  0  0  0  0  0  0
    6.4498    2.0274   -1.8468 C   0  0  0  0  0  0  0  0  0  0  0  0
    4.6393    2.5836   -2.7952 H   0  0  0  0  0  0  0  0  0  0  0  0
    6.8788    2.9325   -1.3923 H   0  0  0  0  0  0  0  0  0  0  0  0
    6.6878    1.1547   -1.2208 H   0  0  0  0  0  0  0  0  0  0  0  0
    6.8749    1.8849   -2.8513 H   0  0  0  0  0  0  0  0  0  0  0  0
  1  3  1  0  0  0  0
  1  7  1  0  0  0  0
  1  2  2  0  0  0  0
 28 29  1  0  0  0  0
 29 37  1  0  0  0  0
 29 30  2  0  0  0  0
 18 19  1  0  0  0  0
 19 27  1  0  0  0  0
 19 20  2  0  0  0  0
  8  9  1  0  0  0  0
  9 17  1  0  0  0  0
  9 10  2  0  0  0  0
 28 31  1  0  0  0  0
 18 21  1  0  0  0  0
  8 11  1  0  0  0  0
 37 38  1  0  0  0  0
 27 28  1  0  0  0  0
 17 18  1  0  0  0  0
  7  8  1  0  0  0  0
  3  4  1  0  0  0  0
  3  5  1  0  0  0  0
  3  6  1  0  0  0  0
 31 34  1  0  0  0  0
 31 35  1  0  0  0  0
 31 36  1  0  0  0  0
 21 24  1  0  0  0  0
 21 25  1  0  0  0  0
 21 26  1  0  0  0  0
 11 14  1  0  0  0  0
 11 15  1  0  0  0  0
 11 16  1  0  0  0  0
 38 40  1  0  0  0  0
 38 41  1  0  0  0  0
 38 42  1  0  0  0  0
 28 33  1  0  0  0  0
 18 23  1  0  0  0  0
  8 13  1  0  0  0  0
 37 39  1  0  0  0  0
  7 12  1  0  0  0  0
 27 32  1  0  0  0  0
 17 22  1  0  0  0  0
M  END
$$$$

  -OEChem-05262214473D

 42 41  0     1  0  0  0  0  0999 V2000
   -5.7851   -0.9580    0.6237 C   0  0  0  0  0  0  0  0  0  0  0  0
   -6.2213    0.1296    0.2652 O   0  0  0  0  0  0  0  0  0  0  0  0
   -6.7088   -2.1270    0.7168 C   0  0  0  0  0  0  0  0  0  0  0  0
   -7.1713   -2.2193    1.7126 H   0  0  0  0  0  0  0  0  0  0  0  0
   -7.5511   -2.0547    0.0101 H   0  0  0  0  0  0  0  0  0  0  0  0
   -6.2485   -3.1083    0.5191 H   0  0  0  0  0  0  0  0  0  0  0  0
   -4.4733   -1.2411    0.9668 N   0  0  0  0  0  0  0  0  0  0  0  0
   -3.4203   -0.2603    0.9449 C   0  0  2  0  0  0  0  0  0  0  0  0
   -2.1242   -0.9699    0.5759 C   0  0  0  0  0  0  0  0  0  0  0  0
   -1.8694   -2.1225    0.9189 O   0  0  0  0  0  0  0  0  0  0  0  0
   -3.2916    0.4435    2.2868 C   0  0  0  0  0  0  0  0  0  0  0  0
   -4.2421   -2.1920    1.2489 H   0  0  0  0  0  0  0  0  0  0  0  0
   -3.6772    0.4622    0.1625 H   0  0  0  0  0  0  0  0  0  0  0  0
   -3.0345   -0.2644    3.0832 H   0  0  0  0  0  0  0  0  0  0  0  0
   -2.5093    1.2092    2.2599 H   0  0  0  0  0  0  0  0  0  0  0  0
   -4.2338    0.9283    2.5645 H   0  0  0  0  0  0  0  0  0  0  0  0
   -1.2626   -0.1515   -0.1463 N   0  0  0  0  0  0  0  0  0  0  0  0
    0.0431   -0.5785   -0.5755 C   0  0  2  0  0  0  0  0  0  0  0  0
    0.6896    0.5742   -1.3324 C   0  0  0  0  0  0  0  0  0  0  0  0
    0.1052    1.2174   -2.2018 O   0  0  0  0  0  0  0  0  0  0  0  0
   -0.0400   -1.8221   -1.4468 C   0  0  0  0  0  0  0  0  0  0  0  0
   -1.5766    0.7776   -0.4197 H   0  0  0  0  0  0  0  0  0  0  0  0
    0.6204   -0.7903    0.3311 H   0  0  0  0  0  0  0  0  0  0  0  0
   -0.6149   -1.6292   -2.3599 H   0  0  0  0  0  0  0  0  0  0  0  0
    0.9560   -2.1622   -1.7489 H   0  0  0  0  0  0  0  0  0  0  0  0
   -0.5321   -2.6411   -0.9111 H   0  0  0  0  0  0  0  0  0  0  0  0
    2.0129    0.7758   -0.9553 N   0  0  0  0  0  0  0  0  0  0  0  0
    2.8517    1.7789   -1.5564 C   0  0  2  0  0  0  0  0  0  0  0  0
    4.2818    1.2550   -1.5610 C   0  0  0  0  0  0  0  0  0  0  0  0
    4.7374    0.5408   -0.6703 O   0  0  0  0  0  0  0  0  0  0  0  0
    2.7590    3.0992   -0.8074 C   0  0  0  0  0  0  0  0  0  0  0  0
    2.4006    0.2193   -0.1960 H   0  0  0  0  0  0  0  0  0  0  0  0
    2.5049    1.9046   -2.5879 H   0  0  0  0  0  0  0  0  0  0  0  0
    3.1023    2.9930    0.2281 H   0  0  0  0  0  0  0  0  0  0  0  0
    3.3756    3.8692   -1.2827 H   0  0  0  0  0  0  0  0  0  0  0  0
    1.7250    3.4596   -0.7794 H   0  0  0  0  0  0  0  0  0  0  0  0
    5.0023    1.7142   -2.6548 N   0  0  0  0  0  0  0  0  0  0  0  0
    6.3947    1.3915   -2.8623 C   0  0  0  0  0  0  0  0  0  0  0  0
    4.5334    2.2690   -3.3648 H   0  0  0  0  0  0  0  0  0  0  0  0
    7.0238    2.1772   -2.4187 H   0  0  0  0  0  0  0  0  0  0  0  0
    6.6223    0.4268   -2.3854 H   0  0  0  0  0  0  0  0  0  0  0  0
    6.5984    1.3243   -3.9412 H   0  0  0  0  0  0  0  0  0  0  0  0
  1  3  1  0  0  0  0
  1  7  1  0  0  0  0
  1  2  2  0  0  0  0
 28 29  1  0  0  0  0
 29 37  1  0  0  0  0
 29 30  2  0  0  0  0
 18 19  1  0  0  0  0
 19 27  1  0  0  0  0
 19 20  2  0  0  0  0
  8  9  1  0  0  0  0
  9 17  1  0  0  0  0
  9 10  2  0  0  0  0
 28 31  1  0  0  0  0
 18 21  1  0  0  0  0
  8 11  1  0  0  0  0
 37 38  1  0  0  0  0
 27 28  1  0  0  0  0
 17 18  1  0  0  0  0
  7  8  1  0  0  0  0
  3  4  1  0  0  0  0
  3  5  1  0  0  0  0
  3  6  1  0  0  0  0
 31 34  1  0  0  0  0
 31 35  1  0  0  0  0
 31 36  1  0  0  0  0
 21 24  1  0  0  0  0
 21 25  1  0  0  0  0
 21 26  1  0  0  0  0
 11 14  1  0  0  0  0
 11 15  1  0  0  0  0
 11 16  1  0  0  0  0
 38 40  1  0  0  0  0
 38 41  1  0  0  0  0
 38 42  1  0  0  0  0
 28 33  1  0  0  0  0
 18 23  1  0  0  0  0
  8 13  1  0  0  0  0
 37 39  1  0  0  0  0
  7 12  1  0  0  0  0
 27 32  1  0  0  0  0
 17 22  1  0  0  0  0
M  END
$$$$

  -OEChem-05262214473D

 42 41  0     1  0  0  0  0  0999 V2000
   -5.7851   -0.9580    0.6237 C   0  0  0  0  0  0  0  0  0  0  0  0
   -6.2213    0.1296    0.2652 O   0  0  0  0  0  0  0  0  0  0  0  0
   -6.7088   -2.1270    0.7168 C   0  0  0  0  0  0  0  0  0  0  0  0
   -7.1713   -2.2193    1.7126 H   0  0  0  0  0  0  0  0  0  0  0  0
   -7.5511   -2.0547    0.0101 H   0  0  0  0  0  0  0  0  0  0  0  0
   -6.2485   -3.1083    0.5191 H   0  0  0  0  0  0  0  0  0  0  0  0
   -4.4733   -1.2411    0.9668 N   0  0  0  0  0  0  0  0  0  0  0  0
   -3.4203   -0.2603    0.9449 C   0  0  2  0  0  0  0  0  0  0  0  0
   -2.1242   -0.9699    0.5759 C   0  0  0  0  0  0  0  0  0  0  0  0
   -1.8694   -2.1225    0.9189 O   0  0  0  0  0  0  0  0  0  0  0  0
   -3.2916    0.4435    2.2868 C   0  0  0  0  0  0  0  0  0  0  0  0
   -4.2421   -2.1920    1.2489 H   0  0  0  0  0  0  0  0  0  0  0  0
   -3.6772    0.4622    0.1625 H   0  0  0  0  0  0  0  0  0  0  0  0
   -3.0345   -0.2644    3.0832 H   0  0  0  0  0  0  0  0  0  0  0  0
   -2.5093    1.2092    2.2599 H   0  0  0  0  0  0  0  0  0  0  0  0
   -4.2338    0.9283    2.5645 H   0  0  0  0  0  0  0  0  0  0  0  0
   -1.2626   -0.1515   -0.1463 N   0  0  0  0  0  0  0  0  0  0  0  0
    0.0431   -0.5785   -0.5755 C   0  0  2  0  0  0  0  0  0  0  0  0
    0.6896    0.5742   -1.3324 C   0  0  0  0  0  0  0  0  0  0  0  0
    0.0473    1.3835   -1.9984 O   0  0  0  0  0  0  0  0  0  0  0  0
   -0.0400   -1.8221   -1.4468 C   0  0  0  0  0  0  0  0  0  0  0  0
   -1.5766    0.7776   -0.4197 H   0  0  0  0  0  0  0  0  0  0  0  0
    0.6204   -0.7903    0.3311 H   0  0  0  0  0  0  0  0  0  0  0  0
   -0.6149   -1.6292   -2.3599 H   0  0  0  0  0  0  0  0  0  0  0  0
    0.9560   -2.1622   -1.7489 H   0  0  0  0  0  0  0  0  0  0  0  0
   -0.5321   -2.6411   -0.9111 H   0  0  0  0  0  0  0  0  0  0  0  0
    2.0752    0.5708   -1.2141 N   0  0  0  0  0  0  0  0  0  0  0  0
    2.9172    1.5344   -1.8728 C   0  0  2  0  0  0  0  0  0  0  0  0
    4.2333    0.8505   -2.2186 C   0  0  0  0  0  0  0  0  0  0  0  0
    4.7446   -0.0163   -1.5126 O   0  0  0  0  0  0  0  0  0  0  0  0
    3.1526    2.7545   -0.9961 C   0  0  0  0  0  0  0  0  0  0  0  0
    2.5177   -0.1163   -0.6070 H   0  0  0  0  0  0  0  0  0  0  0  0
    2.4030    1.8257   -2.7952 H   0  0  0  0  0  0  0  0  0  0  0  0
    3.6670    2.4824   -0.0671 H   0  0  0  0  0  0  0  0  0  0  0  0
    3.7698    3.4990   -1.5097 H   0  0  0  0  0  0  0  0  0  0  0  0
    2.2031    3.2279   -0.7238 H   0  0  0  0  0  0  0  0  0  0  0  0
    4.7914    1.3524   -3.3860 N   0  0  0  0  0  0  0  0  0  0  0  0
    6.0607    0.8959   -3.9023 C   0  0  0  0  0  0  0  0  0  0  0  0
    4.2791    2.0414   -3.9287 H   0  0  0  0  0  0  0  0  0  0  0  0
    6.8656    1.5418   -3.5216 H   0  0  0  0  0  0  0  0  0  0  0  0
    6.2373   -0.1401   -3.5774 H   0  0  0  0  0  0  0  0  0  0  0  0
    6.0458    0.9381   -5.0014 H   0  0  0  0  0  0  0  0  0  0  0  0
  1  3  1  0  0  0  0
  1  7  1  0  0  0  0
  1  2  2  0  0  0  0
 28 29  1  0  0  0  0
 29 37  1  0  0  0  0
 29 30  2  0  0  0  0
 18 19  1  0  0  0  0
 19 27  1  0  0  0  0
 19 20  2  0  0  0  0
  8  9  1  0  0  0  0
  9 17  1  0  0  0  0
  9 10  2  0  0  0  0
 28 31  1  0  0  0  0
 18 21  1  0  0  0  0
  8 11  1  0  0  0  0
 37 38  1  0  0  0  0
 27 28  1  0  0  0  0
 17 18  1  0  0  0  0
  7  8  1  0  0  0  0
  3  4  1  0  0  0  0
  3  5  1  0  0  0  0
  3  6  1  0  0  0  0
 31 34  1  0  0  0  0
 31 35  1  0  0  0  0
 31 36  1  0  0  0  0
 21 24  1  0  0  0  0
 21 25  1  0  0  0  0
 21 26  1  0  0  0  0
 11 14  1  0  0  0  0
 11 15  1  0  0  0  0
 11 16  1  0  0  0  0
 38 40  1  0  0  0  0
 38 41  1  0  0  0  0
 38 42  1  0  0  0  0
 28 33  1  0  0  0  0
 18 23  1  0  0  0  0
  8 13  1  0  0  0  0
 37 39  1  0  0  0  0
  7 12  1  0  0  0  0
 27 32  1  0  0  0  0
 17 22  1  0  0  0  0
M  END
$$$$

  -OEChem-05262214473D

 42 41  0     1  0  0  0  0  0999 V2000
   -5.7851   -0.9580    0.6237 C   0  0  0  0  0  0  0  0  0  0  0  0
   -6.2213    0.1296    0.2652 O   0  0  0  0  0  0  0  0  0  0  0  0
   -6.7088   -2.1270    0.7168 C   0  0  0  0  0  0  0  0  0  0  0  0
   -7.1713   -2.2193    1.7126 H   0  0  0  0  0  0  0  0  0  0  0  0
   -7.5511   -2.0547    0.0101 H   0  0  0  0  0  0  0  0  0  0  0  0
   -6.2485   -3.1083    0.5191 H   0  0  0  0  0  0  0  0  0  0  0  0
   -4.4733   -1.2411    0.9668 N   0  0  0  0  0  0  0  0  0  0  0  0
   -3.4203   -0.2603    0.9449 C   0  0  2  0  0  0  0  0  0  0  0  0
   -2.1242   -0.9699    0.5759 C   0  0  0  0  0  0  0  0  0  0  0  0
   -1.8694   -2.1225    0.9189 O   0  0  0  0  0  0  0  0  0  0  0  0
   -3.2916    0.4435    2.2868 C   0  0  0  0  0  0  0  0  0  0  0  0
   -4.2421   -2.1920    1.2489 H   0  0  0  0  0  0  0  0  0  0  0  0
   -3.6772    0.4622    0.1625 H   0  0  0  0  0  0  0  0  0  0  0  0
   -3.0345   -0.2644    3.0832 H   0  0  0  0  0  0  0  0  0  0  0  0
   -2.5093    1.2092    2.2599 H   0  0  0  0  0  0  0  0  0  0  0  0
   -4.2338    0.9283    2.5645 H   0  0  0  0  0  0  0  0  0  0  0  0
   -1.2626   -0.1515   -0.1463 N   0  0  0  0  0  0  0  0  0  0  0  0
    0.0431   -0.5785   -0.5755 C   0  0  2  0  0  0  0  0  0  0  0  0
    0.6896    0.5742   -1.3324 C   0  0  0  0  0  0  0  0  0  0  0  0
    0.0525    1.5290   -1.7723 O   0  0  0  0  0  0  0  0  0  0  0  0
   -0.0400   -1.8221   -1.4468 C   0  0  0  0  0  0  0  0  0  0  0  0
   -1.5766    0.7776   -0.4197 H   0  0  0  0  0  0  0  0  0  0  0  0
    0.6204   -0.7903    0.3311 H   0  0  0  0  0  0  0  0  0  0  0  0
   -0.6149   -1.6292   -2.3599 H   0  0  0  0  0  0  0  0  0  0  0  0
    0.9560   -2.1622   -1.7489 H   0  0  0  0  0  0  0  0  0  0  0  0
   -0.5321   -2.6411   -0.9111 H   0  0  0  0  0  0  0  0  0  0  0  0
    2.0583    0.3933   -1.4988 N   0  0  0  0  0  0  0  0  0  0  0  0
    2.8870    1.3246   -2.2181 C   0  0  2  0  0  0  0  0  0  0  0  0
    4.0057    0.5381   -2.8886 C   0  0  0  0  0  0  0  0  0  0  0  0
    4.5149   -0.4628   -2.3887 O   0  0  0  0  0  0  0  0  0  0  0  0
    3.4516    2.3917   -1.2933 C   0  0  0  0  0  0  0  0  0  0  0  0
    2.5072   -0.4104   -1.0639 H   0  0  0  0  0  0  0  0  0  0  0  0
    2.2538    1.7853   -2.9841 H   0  0  0  0  0  0  0  0  0  0  0  0
    4.0889    1.9490   -0.5190 H   0  0  0  0  0  0  0  0  0  0  0  0
    4.0586    3.1158   -1.8467 H   0  0  0  0  0  0  0  0  0  0  0  0
    2.6460    2.9365   -0.7892 H   0  0  0  0  0  0  0  0  0  0  0  0
    4.3979    1.1103   -4.0907 N   0  0  0  0  0  0  0  0  0  0  0  0
    5.4706    0.5745   -4.8958 C   0  0  0  0  0  0  0  0  0  0  0  0
    3.8937    1.9161   -4.4486 H   0  0  0  0  0  0  0  0  0  0  0  0
    6.4151    1.0695   -4.6257 H   0  0  0  0  0  0  0  0  0  0  0  0
    5.5591   -0.5071   -4.7158 H   0  0  0  0  0  0  0  0  0  0  0  0
    5.2547    0.7526   -5.9596 H   0  0  0  0  0  0  0  0  0  0  0  0
  1  3  1  0  0  0  0
  1  7  1  0  0  0  0
  1  2  2  0  0  0  0
 28 29  1  0  0  0  0
 29 37  1  0  0  0  0
 29 30  2  0  0  0  0
 18 19  1  0  0  0  0
 19 27  1  0  0  0  0
 19 20  2  0  0  0  0
  8  9  1  0  0  0  0
  9 17  1  0  0  0  0
  9 10  2  0  0  0  0
 28 31  1  0  0  0  0
 18 21  1  0  0  0  0
  8 11  1  0  0  0  0
 37 38  1  0  0  0  0
 27 28  1  0  0  0  0
 17 18  1  0  0  0  0
  7  8  1  0  0  0  0
  3  4  1  0  0  0  0
  3  5  1  0  0  0  0
  3  6  1  0  0  0  0
 31 34  1  0  0  0  0
 31 35  1  0  0  0  0
 31 36  1  0  0  0  0
 21 24  1  0  0  0  0
 21 25  1  0  0  0  0
 21 26  1  0  0  0  0
 11 14  1  0  0  0  0
 11 15  1  0  0  0  0
 11 16  1  0  0  0  0
 38 40  1  0  0  0  0
 38 41  1  0  0  0  0
 38 42  1  0  0  0  0
 28 33  1  0  0  0  0
 18 23  1  0  0  0  0
  8 13  1  0  0  0  0
 37 39  1  0  0  0  0
  7 12  1  0  0  0  0
 27 32  1  0  0  0  0
 17 22  1  0  0  0  0
M  END
$$$$

  -OEChem-05262214473D

 42 41  0     1  0  0  0  0  0999 V2000
   -5.7851   -0.9580    0.6237 C   0  0  0  0  0  0  0  0  0  0  0  0
   -6.2213    0.1296    0.2652 O   0  0  0  0  0  0  0  0  0  0  0  0
   -6.7088   -2.1270    0.7168 C   0  0  0  0  0  0  0  0  0  0  0  0
   -7.1713   -2.2193    1.7126 H   0  0  0  0  0  0  0  0  0  0  0  0
   -7.5511   -2.0547    0.0101 H   0  0  0  0  0  0  0  0  0  0  0  0
   -6.2485   -3.1083    0.5191 H   0  0  0  0  0  0  0  0  0  0  0  0
   -4.4733   -1.2411    0.9668 N   0  0  0  0  0  0  0  0  0  0  0  0
   -3.4203   -0.2603    0.9449 C   0  0  2  0  0  0  0  0  0  0  0  0
   -2.1242   -0.9699    0.5759 C   0  0  0  0  0  0  0  0  0  0  0  0
   -1.8694   -2.1225    0.9189 O   0  0  0  0  0  0  0  0  0  0  0  0
   -3.2916    0.4435    2.2868 C   0  0  0  0  0  0  0  0  0  0  0  0
   -4.2421   -2.1920    1.2489 H   0  0  0  0  0  0  0  0  0  0  0  0
   -3.6772    0.4622    0.1625 H   0  0  0  0  0  0  0  0  0  0  0  0
   -3.0345   -0.2644    3.0832 H   0  0  0  0  0  0  0  0  0  0  0  0
   -2.5093    1.2092    2.2599 H   0  0  0  0  0  0  0  0  0  0  0  0
   -4.2338    0.9283    2.5645 H   0  0  0  0  0  0  0  0  0  0  0  0
   -1.2626   -0.1515   -0.1463 N   0  0  0  0  0  0  0  0  0  0  0  0
    0.0431   -0.5785   -0.5755 C   0  0  2  0  0  0  0  0  0  0  0  0
    0.8292    0.6580   -0.9911 C   0  0  0  0  0  0  0  0  0  0  0  0
    0.3541    1.7916   -0.9753 O   0  0  0  0  0  0  0  0  0  0  0  0
   -0.0492   -1.5743   -1.7211 C   0  0  0  0  0  0  0  0  0  0  0  0
   -1.5766    0.7776   -0.4197 H   0  0  0  0  0  0  0  0  0  0  0  0
    0.5246   -1.0437    0.2915 H   0  0  0  0  0  0  0  0  0  0  0  0
   -0.5289   -1.1262   -2.5989 H   0  0  0  0  0  0  0  0  0  0  0  0
    0.9437   -1.9199   -2.0275 H   0  0  0  0  0  0  0  0  0  0  0  0
   -0.6400   -2.4495   -1.4301 H   0  0  0  0  0  0  0  0  0  0  0  0
    2.1130    0.3451   -1.4243 N   0  0  0  0  0  0  0  0  0  0  0  0
    3.0368    1.3368   -1.9088 C   0  0  2  0  0  0  0  0  0  0  0  0
    3.9090    0.6863   -2.9745 C   0  0  0  0  0  0  0  0  0  0  0  0
    4.2559   -0.4921   -2.9298 O   0  0  0  0  0  0  0  0  0  0  0  0
    3.8865    1.8997   -0.7801 C   0  0  0  0  0  0  0  0  0  0  0  0
    2.4338   -0.6193   -1.3638 H   0  0  0  0  0  0  0  0  0  0  0  0
    2.4367    2.1328   -2.3630 H   0  0  0  0  0  0  0  0  0  0  0  0
    4.4948    1.1167   -0.3128 H   0  0  0  0  0  0  0  0  0  0  0  0
    4.5688    2.6743   -1.1455 H   0  0  0  0  0  0  0  0  0  0  0  0
    3.2562    2.3407   -0.0004 H   0  0  0  0  0  0  0  0  0  0  0  0
    4.2899    1.5876   -3.9587 N   0  0  0  0  0  0  0  0  0  0  0  0
    5.1539    1.2233   -5.0572 C   0  0  0  0  0  0  0  0  0  0  0  0
    3.9229    2.5345   -3.9382 H   0  0  0  0  0  0  0  0  0  0  0  0
    6.1989    1.4388   -4.7896 H   0  0  0  0  0  0  0  0  0  0  0  0
    5.0439    0.1496   -5.2696 H   0  0  0  0  0  0  0  0  0  0  0  0
    4.8769    1.8039   -5.9495 H   0  0  0  0  0  0  0  0  0  0  0  0
  1  3  1  0  0  0  0
  1  7  1  0  0  0  0
  1  2  2  0  0  0  0
 28 29  1  0  0  0  0
 29 37  1  0  0  0  0
 29 30  2  0  0  0  0
 18 19  1  0  0  0  0
 19 27  1  0  0  0  0
 19 20  2  0  0  0  0
  8  9  1  0  0  0  0
  9 17  1  0  0  0  0
  9 10  2  0  0  0  0
 28 31  1  0  0  0  0
 18 21  1  0  0  0  0
  8 11  1  0  0  0  0
 37 38  1  0  0  0  0
 27 28  1  0  0  0  0
 17 18  1  0  0  0  0
  7  8  1  0  0  0  0
  3  4  1  0  0  0  0
  3  5  1  0  0  0  0
  3  6  1  0  0  0  0
 31 34  1  0  0  0  0
 31 35  1  0  0  0  0
 31 36  1  0  0  0  0
 21 24  1  0  0  0  0
 21 25  1  0  0  0  0
 21 26  1  0  0  0  0
 11 14  1  0  0  0  0
 11 15  1  0  0  0  0
 11 16  1  0  0  0  0
 38 40  1  0  0  0  0
 38 41  1  0  0  0  0
 38 42  1  0  0  0  0
 28 33  1  0  0  0  0
 18 23  1  0  0  0  0
  8 13  1  0  0  0  0
 37 39  1  0  0  0  0
  7 12  1  0  0  0  0
 27 32  1  0  0  0  0
 17 22  1  0  0  0  0
M  END
$$$$

  -OEChem-05262214473D

 42 41  0     1  0  0  0  0  0999 V2000
   -5.7851   -0.9580    0.6237 C   0  0  0  0  0  0  0  0  0  0  0  0
   -6.2213    0.1296    0.2652 O   0  0  0  0  0  0  0  0  0  0  0  0
   -6.7088   -2.1270    0.7168 C   0  0  0  0  0  0  0  0  0  0  0  0
   -7.1713   -2.2193    1.7126 H   0  0  0  0  0  0  0  0  0  0  0  0
   -7.5511   -2.0547    0.0101 H   0  0  0  0  0  0  0  0  0  0  0  0
   -6.2485   -3.1083    0.5191 H   0  0  0  0  0  0  0  0  0  0  0  0
   -4.4733   -1.2411    0.9668 N   0  0  0  0  0  0  0  0  0  0  0  0
   -3.4203   -0.2603    0.9449 C   0  0  2  0  0  0  0  0  0  0  0  0
   -2.1242   -0.9699    0.5759 C   0  0  0  0  0  0  0  0  0  0  0  0
   -1.8694   -2.1225    0.9189 O   0  0  0  0  0  0  0  0  0  0  0  0
   -3.2916    0.4435    2.2868 C   0  0  0  0  0  0  0  0  0  0  0  0
   -4.2421   -2.1920    1.2489 H   0  0  0  0  0  0  0  0  0  0  0  0
   -3.6772    0.4622    0.1625 H   0  0  0  0  0  0  0  0  0  0  0  0
   -3.0345   -0.2644    3.0832 H   0  0  0  0  0  0  0  0  0  0  0  0
   -2.5093    1.2092    2.2599 H   0  0  0  0  0  0  0  0  0  0  0  0
   -4.2338    0.9283    2.5645 H   0  0  0  0  0  0  0  0  0  0  0  0
   -1.2626   -0.1515   -0.1463 N   0  0  0  0  0  0  0  0  0  0  0  0
    0.0431   -0.5785   -0.5755 C   0  0  2  0  0  0  0  0  0  0  0  0
    0.8292    0.6580   -0.9911 C   0  0  0  0  0  0  0  0  0  0  0  0
    0.4655    1.8030   -0.7308 O   0  0  0  0  0  0  0  0  0  0  0  0
   -0.0492   -1.5743   -1.7211 C   0  0  0  0  0  0  0  0  0  0  0  0
   -1.5766    0.7776   -0.4197 H   0  0  0  0  0  0  0  0  0  0  0  0
    0.5246   -1.0437    0.2915 H   0  0  0  0  0  0  0  0  0  0  0  0
   -0.5289   -1.1262   -2.5989 H   0  0  0  0  0  0  0  0  0  0  0  0
    0.9437   -1.9199   -2.0275 H   0  0  0  0  0  0  0  0  0  0  0  0
   -0.6400   -2.4495   -1.4301 H   0  0  0  0  0  0  0  0  0  0  0  0
    1.9654    0.3376   -1.7260 N   0  0  0  0  0  0  0  0  0  0  0  0
    2.8508    1.3340   -2.2687 C   0  0  2  0  0  0  0  0  0  0  0  0
    3.4271    0.7924   -3.5702 C   0  0  0  0  0  0  0  0  0  0  0  0
    3.6745   -0.3982   -3.7501 O   0  0  0  0  0  0  0  0  0  0  0  0
    3.9588    1.6832   -1.2874 C   0  0  0  0  0  0  0  0  0  0  0  0
    2.2087   -0.6422   -1.8579 H   0  0  0  0  0  0  0  0  0  0  0  0
    2.2401    2.2187   -2.4793 H   0  0  0  0  0  0  0  0  0  0  0  0
    4.5813    0.8091   -1.0642 H   0  0  0  0  0  0  0  0  0  0  0  0
    4.6148    2.4619   -1.6902 H   0  0  0  0  0  0  0  0  0  0  0  0
    3.5418    2.0445   -0.3411 H   0  0  0  0  0  0  0  0  0  0  0  0
    3.6730    1.8007   -4.4917 N   0  0  0  0  0  0  0  0  0  0  0  0
    4.2589    1.5470   -5.7872 C   0  0  0  0  0  0  0  0  0  0  0  0
    3.3997    2.7544   -4.2736 H   0  0  0  0  0  0  0  0  0  0  0  0
    5.3510    1.6633   -5.7254 H   0  0  0  0  0  0  0  0  0  0  0  0
    4.0169    0.5220   -6.1046 H   0  0  0  0  0  0  0  0  0  0  0  0
    3.8549    2.2624   -6.5186 H   0  0  0  0  0  0  0  0  0  0  0  0
  1  3  1  0  0  0  0
  1  7  1  0  0  0  0
  1  2  2  0  0  0  0
 28 29  1  0  0  0  0
 29 37  1  0  0  0  0
 29 30  2  0  0  0  0
 18 19  1  0  0  0  0
 19 27  1  0  0  0  0
 19 20  2  0  0  0  0
  8  9  1  0  0  0  0
  9 17  1  0  0  0  0
  9 10  2  0  0  0  0
 28 31  1  0  0  0  0
 18 21  1  0  0  0  0
  8 11  1  0  0  0  0
 37 38  1  0  0  0  0
 27 28  1  0  0  0  0
 17 18  1  0  0  0  0
  7  8  1  0  0  0  0
  3  4  1  0  0  0  0
  3  5  1  0  0  0  0
  3  6  1  0  0  0  0
 31 34  1  0  0  0  0
 31 35  1  0  0  0  0
 31 36  1  0  0  0  0
 21 24  1  0  0  0  0
 21 25  1  0  0  0  0
 21 26  1  0  0  0  0
 11 14  1  0  0  0  0
 11 15  1  0  0  0  0
 11 16  1  0  0  0  0
 38 40  1  0  0  0  0
 38 41  1  0  0  0  0
 38 42  1  0  0  0  0
 28 33  1  0  0  0  0
 18 23  1  0  0  0  0
  8 13  1  0  0  0  0
 37 39  1  0  0  0  0
  7 12  1  0  0  0  0
 27 32  1  0  0  0  0
 17 22  1  0  0  0  0
M  END
$$$$

  -OEChem-05262214473D

 42 41  0     1  0  0  0  0  0999 V2000
   -5.7851   -0.9580    0.6237 C   0  0  0  0  0  0  0  0  0  0  0  0
   -6.2213    0.1296    0.2652 O   0  0  0  0  0  0  0  0  0  0  0  0
   -6.7088   -2.1270    0.7168 C   0  0  0  0  0  0  0  0  0  0  0  0
   -7.1713   -2.2193    1.7126 H   0  0  0  0  0  0  0  0  0  0  0  0
   -7.5511   -2.0547    0.0101 H   0  0  0  0  0  0  0  0  0  0  0  0
   -6.2485   -3.1083    0.5191 H   0  0  0  0  0  0  0  0  0  0  0  0
   -4.4733   -1.2411    0.9668 N   0  0  0  0  0  0  0  0  0  0  0  0
   -3.4203   -0.2603    0.9449 C   0  0  2  0  0  0  0  0  0  0  0  0
   -2.1242   -0.9699    0.5759 C   0  0  0  0  0  0  0  0  0  0  0  0
   -1.8694   -2.1225    0.9189 O   0  0  0  0  0  0  0  0  0  0  0  0
   -3.2916    0.4435    2.2868 C   0  0  0  0  0  0  0  0  0  0  0  0
   -4.2421   -2.1920    1.2489 H   0  0  0  0  0  0  0  0  0  0  0  0
   -3.6772    0.4622    0.1625 H   0  0  0  0  0  0  0  0  0  0  0  0
   -3.0345   -0.2644    3.0832 H   0  0  0  0  0  0  0  0  0  0  0  0
   -2.5093    1.2092    2.2599 H   0  0  0  0  0  0  0  0  0  0  0  0
   -4.2338    0.9283    2.5645 H   0  0  0  0  0  0  0  0  0  0  0  0
   -1.2626   -0.1515   -0.1463 N   0  0  0  0  0  0  0  0  0  0  0  0
    0.0431   -0.5785   -0.5755 C   0  0  2  0  0  0  0  0  0  0  0  0
    0.8292    0.6580   -0.9911 C   0  0  0  0  0  0  0  0  0  0  0  0
    0.6252    1.7734   -0.5165 O   0  0  0  0  0  0  0  0  0  0  0  0
   -0.0492   -1.5743   -1.7211 C   0  0  0  0  0  0  0  0  0  0  0  0
   -1.5766    0.7776   -0.4197 H   0  0  0  0  0  0  0  0  0  0  0  0
    0.5246   -1.0437    0.2915 H   0  0  0  0  0  0  0  0  0  0  0  0
   -0.5289   -1.1262   -2.5989 H   0  0  0  0  0  0  0  0  0  0  0  0
    0.9437   -1.9199   -2.0275 H   0  0  0  0  0  0  0  0  0  0  0  0
   -0.6400   -2.4495   -1.4301 H   0  0  0  0  0  0  0  0  0  0  0  0
    1.7589    0.3810   -1.9874 N   0  0  0  0  0  0  0  0  0  0  0  0
    2.5953    1.3926   -2.5777 C   0  0  2  0  0  0  0  0  0  0  0  0
    2.8440    1.0085   -4.0303 C   0  0  0  0  0  0  0  0  0  0  0  0
    2.9472   -0.1569   -4.4078 O   0  0  0  0  0  0  0  0  0  0  0  0
    3.9068    1.5368   -1.8214 C   0  0  0  0  0  0  0  0  0  0  0  0
    1.8859   -0.5825   -2.2909 H   0  0  0  0  0  0  0  0  0  0  0  0
    2.0318    2.3312   -2.5389 H   0  0  0  0  0  0  0  0  0  0  0  0
    4.4854    0.6062   -1.8493 H   0  0  0  0  0  0  0  0  0  0  0  0
    4.5298    2.3264   -2.2544 H   0  0  0  0  0  0  0  0  0  0  0  0
    3.7252    1.7838   -0.7699 H   0  0  0  0  0  0  0  0  0  0  0  0
    2.9802    2.1212   -4.8485 N   0  0  0  0  0  0  0  0  0  0  0  0
    3.2639    2.0203   -6.2610 C   0  0  0  0  0  0  0  0  0  0  0  0
    2.8395    3.0485   -4.4583 H   0  0  0  0  0  0  0  0  0  0  0  0
    4.3513    2.0651   -6.4213 H   0  0  0  0  0  0  0  0  0  0  0  0
    2.8757    1.0657   -6.6456 H   0  0  0  0  0  0  0  0  0  0  0  0
    2.7805    2.8534   -6.7924 H   0  0  0  0  0  0  0  0  0  0  0  0
  1  3  1  0  0  0  0
  1  7  1  0  0  0  0
  1  2  2  0  0  0  0
 28 29  1  0  0  0  0
 29 37  1  0  0  0  0
 29 30  2  0  0  0  0
 18 19  1  0  0  0  0
 19 27  1  0  0  0  0
 19 20  2  0  0  0  0
  8  9  1  0  0  0  0
  9 17  1  0  0  0  0
  9 10  2  0  0  0  0
 28 31  1  0  0  0  0
 18 21  1  0  0  0  0
  8 11  1  0  0  0  0
 37 38  1  0  0  0  0
 27 28  1  0  0  0  0
 17 18  1  0  0  0  0
  7  8  1  0  0  0  0
  3  4  1  0  0  0  0
  3  5  1  0  0  0  0
  3  6  1  0  0  0  0
 31 34  1  0  0  0  0
 31 35  1  0  0  0  0
 31 36  1  0  0  0  0
 21 24  1  0  0  0  0
 21 25  1  0  0  0  0
 21 26  1  0  0  0  0
 11 14  1  0  0  0  0
 11 15  1  0  0  0  0
 11 16  1  0  0  0  0
 38 40  1  0  0  0  0
 38 41  1  0  0  0  0
 38 42  1  0  0  0  0
 28 33  1  0  0  0  0
 18 23  1  0  0  0  0
  8 13  1  0  0  0  0
 37 39  1  0  0  0  0
  7 12  1  0  0  0  0
 27 32  1  0  0  0  0
 17 22  1  0  0  0  0
M  END
$$$$

  -OEChem-05262214473D

 42 41  0     1  0  0  0  0  0999 V2000
   -5.7851   -0.9580    0.6237 C   0  0  0  0  0  0  0  0  0  0  0  0
   -6.2213    0.1296    0.2652 O   0  0  0  0  0  0  0  0  0  0  0  0
   -6.7088   -2.1270    0.7168 C   0  0  0  0  0  0  0  0  0  0  0  0
   -7.1713   -2.2193    1.7126 H   0  0  0  0  0  0  0  0  0  0  0  0
   -7.5511   -2.0547    0.0101 H   0  0  0  0  0  0  0  0  0  0  0  0
   -6.2485   -3.1083    0.5191 H   0  0  0  0  0  0  0  0  0  0  0  0
   -4.4733   -1.2411    0.9668 N   0  0  0  0  0  0  0  0  0  0  0  0
   -3.4203   -0.2603    0.9449 C   0  0  2  0  0  0  0  0  0  0  0  0
   -2.1242   -0.9699    0.5759 C   0  0  0  0  0  0  0  0  0  0  0  0
   -1.8694   -2.1225    0.9189 O   0  0  0  0  0  0  0  0  0  0  0  0
   -3.2916    0.4435    2.2868 C   0  0  0  0  0  0  0  0  0  0  0  0
   -4.2421   -2.1920    1.2489 H   0  0  0  0  0  0  0  0  0  0  0  0
   -3.6772    0.4622    0.1625 H   0  0  0  0  0  0  0  0  0  0  0  0
   -3.0345   -0.2644    3.0832 H   0  0  0  0  0  0  0  0  0  0  0  0
   -2.5093    1.2092    2.2599 H   0  0  0  0  0  0  0  0  0  0  0  0
   -4.2338    0.9283    2.5645 H   0  0  0  0  0  0  0  0  0  0  0  0
   -1.2626   -0.1515   -0.1463 N   0  0  0  0  0  0  0  0  0  0  0  0
    0.0431   -0.5785   -0.5755 C   0  0  2  0  0  0  0  0  0  0  0  0
    0.8292    0.6580   -0.9911 C   0  0  0  0  0  0  0  0  0  0  0  0
    0.8225    1.7050   -0.3470 O   0  0  0  0  0  0  0  0  0  0  0  0
   -0.0492   -1.5743   -1.7211 C   0  0  0  0  0  0  0  0  0  0  0  0
   -1.5766    0.7776   -0.4197 H   0  0  0  0  0  0  0  0  0  0  0  0
    0.5246   -1.0437    0.2915 H   0  0  0  0  0  0  0  0  0  0  0  0
   -0.5289   -1.1262   -2.5989 H   0  0  0  0  0  0  0  0  0  0  0  0
    0.9437   -1.9199   -2.0275 H   0  0  0  0  0  0  0  0  0  0  0  0
   -0.6400   -2.4495   -1.4301 H   0  0  0  0  0  0  0  0  0  0  0  0
    1.5076    0.4724   -2.1907 N   0  0  0  0  0  0  0  0  0  0  0  0
    2.2878    1.5085   -2.8147 C   0  0  2  0  0  0  0  0  0  0  0  0
    2.1994    1.3198   -4.3233 C   0  0  0  0  0  0  0  0  0  0  0  0
    2.1236    0.2155   -4.8579 O   0  0  0  0  0  0  0  0  0  0  0  0
    3.7340    1.4704   -2.3459 C   0  0  0  0  0  0  0  0  0  0  0  0
    1.4872   -0.4442   -2.6334 H   0  0  0  0  0  0  0  0  0  0  0  0
    1.8260    2.4624   -2.5376 H   0  0  0  0  0  0  0  0  0  0  0  0
    4.2134    0.5220   -2.6145 H   0  0  0  0  0  0  0  0  0  0  0  0
    4.3195    2.2768   -2.7996 H   0  0  0  0  0  0  0  0  0  0  0  0
    3.7938    1.5764   -1.2573 H   0  0  0  0  0  0  0  0  0  0  0  0
    2.2586    2.5275   -5.0047 N   0  0  0  0  0  0  0  0  0  0  0  0
    2.2367    2.6111   -6.4464 C   0  0  0  0  0  0  0  0  0  0  0  0
    2.2803    3.3968   -4.4797 H   0  0  0  0  0  0  0  0  0  0  0  0
    3.2677    2.6167   -6.8296 H   0  0  0  0  0  0  0  0  0  0  0  0
    1.6982    1.7437   -6.8557 H   0  0  0  0  0  0  0  0  0  0  0  0
    1.7270    3.5368   -6.7521 H   0  0  0  0  0  0  0  0  0  0  0  0
  1  3  1  0  0  0  0
  1  7  1  0  0  0  0
  1  2  2  0  0  0  0
 28 29  1  0  0  0  0
 29 37  1  0  0  0  0
 29 30  2  0  0  0  0
 18 19  1  0  0  0  0
 19 27  1  0  0  0  0
 19 20  2  0  0  0  0
  8  9  1  0  0  0  0
  9 17  1  0  0  0  0
  9 10  2  0  0  0  0
 28 31  1  0  0  0  0
 18 21  1  0  0  0  0
  8 11  1  0  0  0  0
 37 38  1  0  0  0  0
 27 28  1  0  0  0  0
 17 18  1  0  0  0  0
  7  8  1  0  0  0  0
  3  4  1  0  0  0  0
  3  5  1  0  0  0  0
  3  6  1  0  0  0  0
 31 34  1  0  0  0  0
 31 35  1  0  0  0  0
 31 36  1  0  0  0  0
 21 24  1  0  0  0  0
 21 25  1  0  0  0  0
 21 26  1  0  0  0  0
 11 14  1  0  0  0  0
 11 15  1  0  0  0  0
 11 16  1  0  0  0  0
 38 40  1  0  0  0  0
 38 41  1  0  0  0  0
 38 42  1  0  0  0  0
 28 33  1  0  0  0  0
 18 23  1  0  0  0  0
  8 13  1  0  0  0  0
 37 39  1  0  0  0  0
  7 12  1  0  0  0  0
 27 32  1  0  0  0  0
 17 22  1  0  0  0  0
M  END
$$$$

  -OEChem-05262214473D

 42 41  0     1  0  0  0  0  0999 V2000
   -5.7851   -0.9580    0.6237 C   0  0  0  0  0  0  0  0  0  0  0  0
   -6.2213    0.1296    0.2652 O   0  0  0  0  0  0  0  0  0  0  0  0
   -6.7088   -2.1270    0.7168 C   0  0  0  0  0  0  0  0  0  0  0  0
   -7.1713   -2.2193    1.7126 H   0  0  0  0  0  0  0  0  0  0  0  0
   -7.5511   -2.0547    0.0101 H   0  0  0  0  0  0  0  0  0  0  0  0
   -6.2485   -3.1083    0.5191 H   0  0  0  0  0  0  0  0  0  0  0  0
   -4.4733   -1.2411    0.9668 N   0  0  0  0  0  0  0  0  0  0  0  0
   -3.4203   -0.2603    0.9449 C   0  0  2  0  0  0  0  0  0  0  0  0
   -2.1242   -0.9699    0.5759 C   0  0  0  0  0  0  0  0  0  0  0  0
   -1.8694   -2.1225    0.9189 O   0  0  0  0  0  0  0  0  0  0  0  0
   -3.2916    0.4435    2.2868 C   0  0  0  0  0  0  0  0  0  0  0  0
   -4.2421   -2.1920    1.2489 H   0  0  0  0  0  0  0  0  0  0  0  0
   -3.6772    0.4622    0.1625 H   0  0  0  0  0  0  0  0  0  0  0  0
   -3.0345   -0.2644    3.0832 H   0  0  0  0  0  0  0  0  0  0  0  0
   -2.5093    1.2092    2.2599 H   0  0  0  0  0  0  0  0  0  0  0  0
   -4.2338    0.9283    2.5645 H   0  0  0  0  0  0  0  0  0  0  0  0
   -1.2626   -0.1515   -0.1463 N   0  0  0  0  0  0  0  0  0  0  0  0
    0.0431   -0.5785   -0.5755 C   0  0  2  0  0  0  0  0  0  0  0  0
    0.8292    0.6580   -0.9911 C   0  0  0  0  0  0  0  0  0  0  0  0
    1.0438    1.6023   -0.2339 O   0  0  0  0  0  0  0  0  0  0  0  0
   -0.0492   -1.5743   -1.7211 C   0  0  0  0  0  0  0  0  0  0  0  0
   -1.5766    0.7776   -0.4197 H   0  0  0  0  0  0  0  0  0  0  0  0
    0.5246   -1.0437    0.2915 H   0  0  0  0  0  0  0  0  0  0  0  0
   -0.5289   -1.1262   -2.5989 H   0  0  0  0  0  0  0  0  0  0  0  0
    0.9437   -1.9199   -2.0275 H   0  0  0  0  0  0  0  0  0  0  0  0
   -0.6400   -2.4495   -1.4301 H   0  0  0  0  0  0  0  0  0  0  0  0
    1.2286    0.6057   -2.3221 N   0  0  0  0  0  0  0  0  0  0  0  0
    1.9491    1.6738   -2.9634 C   0  0  2  0  0  0  0  0  0  0  0  0
    1.5372    1.7053   -4.4293 C   0  0  0  0  0  0  0  0  0  0  0  0
    1.2597    0.6935   -5.0699 O   0  0  0  0  0  0  0  0  0  0  0  0
    3.4522    1.4885   -2.8251 C   0  0  0  0  0  0  0  0  0  0  0  0
    1.0400   -0.2367   -2.8619 H   0  0  0  0  0  0  0  0  0  0  0  0
    1.6367    2.6036   -2.4757 H   0  0  0  0  0  0  0  0  0  0  0  0
    3.7839    0.5620   -3.3078 H   0  0  0  0  0  0  0  0  0  0  0  0
    3.9984    2.3166   -3.2887 H   0  0  0  0  0  0  0  0  0  0  0  0
    3.7430    1.4362   -1.7703 H   0  0  0  0  0  0  0  0  0  0  0  0
    1.5576    2.9917   -4.9497 N   0  0  0  0  0  0  0  0  0  0  0  0
    1.2472    3.2791   -6.3306 C   0  0  0  0  0  0  0  0  0  0  0  0
    1.7602    3.7756   -4.3364 H   0  0  0  0  0  0  0  0  0  0  0  0
    2.1743    3.2806   -6.9227 H   0  0  0  0  0  0  0  0  0  0  0  0
    0.5645    2.5099   -6.7207 H   0  0  0  0  0  0  0  0  0  0  0  0
    0.7661    4.2659   -6.4005 H   0  0  0  0  0  0  0  0  0  0  0  0
  1  3  1  0  0  0  0
  1  7  1  0  0  0  0
  1  2  2  0  0  0  0
 28 29  1  0  0  0  0
 29 37  1  0  0  0  0
 29 30  2  0  0  0  0
 18 19  1  0  0  0  0
 19 27  1  0  0  0  0
 19 20  2  0  0  0  0
  8  9  1  0  0  0  0
  9 17  1  0  0  0  0
  9 10  2  0  0  0  0
 28 31  1  0  0  0  0
 18 21  1  0  0  0  0
  8 11  1  0  0  0  0
 37 38  1  0  0  0  0
 27 28  1  0  0  0  0
 17 18  1  0  0  0  0
  7  8  1  0  0  0  0
  3  4  1  0  0  0  0
  3  5  1  0  0  0  0
  3  6  1  0  0  0  0
 31 34  1  0  0  0  0
 31 35  1  0  0  0  0
 31 36  1  0  0  0  0
 21 24  1  0  0  0  0
 21 25  1  0  0  0  0
 21 26  1  0  0  0  0
 11 14  1  0  0  0  0
 11 15  1  0  0  0  0
 11 16  1  0  0  0  0
 38 40  1  0  0  0  0
 38 41  1  0  0  0  0
 38 42  1  0  0  0  0
 28 33  1  0  0  0  0
 18 23  1  0  0  0  0
  8 13  1  0  0  0  0
 37 39  1  0  0  0  0
  7 12  1  0  0  0  0
 27 32  1  0  0  0  0
 17 22  1  0  0  0  0
M  END
$$$$

  -OEChem-05262214473D

 42 41  0     1  0  0  0  0  0999 V2000
   -5.7851   -0.9580    0.6237 C   0  0  0  0  0  0  0  0  0  0  0  0
   -6.2213    0.1296    0.2652 O   0  0  0  0  0  0  0  0  0  0  0  0
   -6.7088   -2.1270    0.7168 C   0  0  0  0  0  0  0  0  0  0  0  0
   -7.1713   -2.2193    1.7126 H   0  0  0  0  0  0  0  0  0  0  0  0
   -7.5511   -2.0547    0.0101 H   0  0  0  0  0  0  0  0  0  0  0  0
   -6.2485   -3.1083    0.5191 H   0  0  0  0  0  0  0  0  0  0  0  0
   -4.4733   -1.2411    0.9668 N   0  0  0  0  0  0  0  0  0  0  0  0
   -3.4203   -0.2603    0.9449 C   0  0  2  0  0  0  0  0  0  0  0  0
   -2.1242   -0.9699    0.5759 C   0  0  0  0  0  0  0  0  0  0  0  0
   -1.8694   -2.1225    0.9189 O   0  0  0  0  0  0  0  0  0  0  0  0
   -3.2916    0.4435    2.2868 C   0  0  0  0  0  0  0  0  0  0  0  0
   -4.2421   -2.1920    1.2489 H   0  0  0  0  0  0  0  0  0  0  0  0
   -3.6772    0.4622    0.1625 H   0  0  0  0  0  0  0  0  0  0  0  0
   -3.0345   -0.2644    3.0832 H   0  0  0  0  0  0  0  0  0  0  0  0
   -2.5093    1.2092    2.2599 H   0  0  0  0  0  0  0  0  0  0  0  0
   -4.2338    0.9283    2.5645 H   0  0  0  0  0  0  0  0  0  0  0  0
   -1.2626   -0.1515   -0.1463 N   0  0  0  0  0  0  0  0  0  0  0  0
    0.0431   -0.5785   -0.5755 C   0  0  2  0  0  0  0  0  0  0  0  0
    0.8292    0.6580   -0.9911 C   0  0  0  0  0  0  0  0  0  0  0  0
    1.2741    1.4724   -0.1849 O   0  0  0  0  0  0  0  0  0  0  0  0
   -0.0492   -1.5743   -1.7211 C   0  0  0  0  0  0  0  0  0  0  0  0
   -1.5766    0.7776   -0.4197 H   0  0  0  0  0  0  0  0  0  0  0  0
    0.5246   -1.0437    0.2915 H   0  0  0  0  0  0  0  0  0  0  0  0
   -0.5289   -1.1262   -2.5989 H   0  0  0  0  0  0  0  0  0  0  0  0
    0.9437   -1.9199   -2.0275 H   0  0  0  0  0  0  0  0  0  0  0  0
   -0.6400   -2.4495   -1.4301 H   0  0  0  0  0  0  0  0  0  0  0  0
    0.9409    0.7717   -2.3725 N   0  0  0  0  0  0  0  0  0  0  0  0
    1.6024    1.8773   -3.0139 C   0  0  2  0  0  0  0  0  0  0  0  0
    0.9024    2.1385   -4.3410 C   0  0  0  0  0  0  0  0  0  0  0  0
    0.4145    1.2445   -5.0294 O   0  0  0  0  0  0  0  0  0  0  0  0
    3.0806    1.5899   -3.2263 C   0  0  0  0  0  0  0  0  0  0  0  0
    0.5747    0.0259   -2.9610 H   0  0  0  0  0  0  0  0  0  0  0  0
    1.4769    2.7450   -2.3571 H   0  0  0  0  0  0  0  0  0  0  0  0
    3.2262    0.7236   -3.8819 H   0  0  0  0  0  0  0  0  0  0  0  0
    3.5882    2.4431   -3.6883 H   0  0  0  0  0  0  0  0  0  0  0  0
    3.5762    1.3730   -2.2739 H   0  0  0  0  0  0  0  0  0  0  0  0
    0.9247    3.4823   -4.6872 N   0  0  0  0  0  0  0  0  0  0  0  0
    0.3630    3.9788   -5.9217 C   0  0  0  0  0  0  0  0  0  0  0  0
    1.3148    4.1591   -4.0380 H   0  0  0  0  0  0  0  0  0  0  0  0
    1.1454    4.0116   -6.6941 H   0  0  0  0  0  0  0  0  0  0  0  0
   -0.4481    3.3120   -6.2496 H   0  0  0  0  0  0  0  0  0  0  0  0
   -0.0367    4.9910   -5.7616 H   0  0  0  0  0  0  0  0  0  0  0  0
  1  3  1  0  0  0  0
  1  7  1  0  0  0  0
  1  2  2  0  0  0  0
 28 29  1  0  0  0  0
 29 37  1  0  0  0  0
 29 30  2  0  0  0  0
 18 19  1  0  0  0  0
 19 27  1  0  0  0  0
 19 20  2  0  0  0  0
  8  9  1  0  0  0  0
  9 17  1  0  0  0  0
  9 10  2  0  0  0  0
 28 31  1  0  0  0  0
 18 21  1  0  0  0  0
  8 11  1  0  0  0  0
 37 38  1  0  0  0  0
 27 28  1  0  0  0  0
 17 18  1  0  0  0  0
  7  8  1  0  0  0  0
  3  4  1  0  0  0  0
  3  5  1  0  0  0  0
  3  6  1  0  0  0  0
 31 34  1  0  0  0  0
 31 35  1  0  0  0  0
 31 36  1  0  0  0  0
 21 24  1  0  0  0  0
 21 25  1  0  0  0  0
 21 26  1  0  0  0  0
 11 14  1  0  0  0  0
 11 15  1  0  0  0  0
 11 16  1  0  0  0  0
 38 40  1  0  0  0  0
 38 41  1  0  0  0  0
 38 42  1  0  0  0  0
 28 33  1  0  0  0  0
 18 23  1  0  0  0  0
  8 13  1  0  0  0  0
 37 39  1  0  0  0  0
  7 12  1  0  0  0  0
 27 32  1  0  0  0  0
 17 22  1  0  0  0  0
M  END
$$$$

  -OEChem-05262214473D

 42 41  0     1  0  0  0  0  0999 V2000
   -5.7851   -0.9580    0.6237 C   0  0  0  0  0  0  0  0  0  0  0  0
   -6.2213    0.1296    0.2652 O   0  0  0  0  0  0  0  0  0  0  0  0
   -6.7088   -2.1270    0.7168 C   0  0  0  0  0  0  0  0  0  0  0  0
   -7.1713   -2.2193    1.7126 H   0  0  0  0  0  0  0  0  0  0  0  0
   -7.5511   -2.0547    0.0101 H   0  0  0  0  0  0  0  0  0  0  0  0
   -6.2485   -3.1083    0.5191 H   0  0  0  0  0  0  0  0  0  0  0  0
   -4.4733   -1.2411    0.9668 N   0  0  0  0  0  0  0  0  0  0  0  0
   -3.4203   -0.2603    0.9449 C   0  0  2  0  0  0  0  0  0  0  0  0
   -2.1242   -0.9699    0.5759 C   0  0  0  0  0  0  0  0  0  0  0  0
   -1.8694   -2.1225    0.9189 O   0  0  0  0  0  0  0  0  0  0  0  0
   -3.2916    0.4435    2.2868 C   0  0  0  0  0  0  0  0  0  0  0  0
   -4.2421   -2.1920    1.2489 H   0  0  0  0  0  0  0  0  0  0  0  0
   -3.6772    0.4622    0.1625 H   0  0  0  0  0  0  0  0  0  0  0  0
   -3.0345   -0.2644    3.0832 H   0  0  0  0  0  0  0  0  0  0  0  0
   -2.5093    1.2092    2.2599 H   0  0  0  0  0  0  0  0  0  0  0  0
   -4.2338    0.9283    2.5645 H   0  0  0  0  0  0  0  0  0  0  0  0
   -1.2626   -0.1515   -0.1463 N   0  0  0  0  0  0  0  0  0  0  0  0
    0.0431   -0.5785   -0.5755 C   0  0  2  0  0  0  0  0  0  0  0  0
    0.8292    0.6580   -0.9911 C   0  0  0  0  0  0  0  0  0  0  0  0
    1.4976    1.3240   -0.2033 O   0  0  0  0  0  0  0  0  0  0  0  0
   -0.0492   -1.5743   -1.7211 C   0  0  0  0  0  0  0  0  0  0  0  0
   -1.5766    0.7776   -0.4197 H   0  0  0  0  0  0  0  0  0  0  0  0
    0.5246   -1.0437    0.2915 H   0  0  0  0  0  0  0  0  0  0  0  0
   -0.5289   -1.1262   -2.5989 H   0  0  0  0  0  0  0  0  0  0  0  0
    0.9437   -1.9199   -2.0275 H   0  0  0  0  0  0  0  0  0  0  0  0
   -0.6400   -2.4495   -1.4301 H   0  0  0  0  0  0  0  0  0  0  0  0
    0.6641    0.9590   -2.3386 N   0  0  0  0  0  0  0  0  0  0  0  0
    1.2713    2.1051   -2.9626 C   0  0  2  0  0  0  0  0  0  0  0  0
    0.3385    2.5900   -4.0645 C   0  0  0  0  0  0  0  0  0  0  0  0
   -0.3545    1.8310   -4.7389 O   0  0  0  0  0  0  0  0  0  0  0  0
    2.6445    1.7677   -3.5222 C   0  0  0  0  0  0  0  0  0  0  0  0
    0.1229    0.3256   -2.9238 H   0  0  0  0  0  0  0  0  0  0  0  0
    1.3574    2.8771   -2.1902 H   0  0  0  0  0  0  0  0  0  0  0  0
    2.5783    0.9958   -4.2976 H   0  0  0  0  0  0  0  0  0  0  0  0
    3.1170    2.6476   -3.9712 H   0  0  0  0  0  0  0  0  0  0  0  0
    3.3049    1.3910   -2.7337 H   0  0  0  0  0  0  0  0  0  0  0  0
    0.4032    3.9658   -4.2352 N   0  0  0  0  0  0  0  0  0  0  0  0
   -0.3558    4.6624   -5.2474 C   0  0  0  0  0  0  0  0  0  0  0  0
    0.9743    4.5211   -3.6050 H   0  0  0  0  0  0  0  0  0  0  0  0
    0.2513    4.7597   -6.1595 H   0  0  0  0  0  0  0  0  0  0  0  0
   -1.2706    4.0953   -5.4747 H   0  0  0  0  0  0  0  0  0  0  0  0
   -0.6267    5.6628   -4.8789 H   0  0  0  0  0  0  0  0  0  0  0  0
  1  3  1  0  0  0  0
  1  7  1  0  0  0  0
  1  2  2  0  0  0  0
 28 29  1  0  0  0  0
 29 37  1  0  0  0  0
 29 30  2  0  0  0  0
 18 19  1  0  0  0  0
 19 27  1  0  0  0  0
 19 20  2  0  0  0  0
  8  9  1  0  0  0  0
  9 17  1  0  0  0  0
  9 10  2  0  0  0  0
 28 31  1  0  0  0  0
 18 21  1  0  0  0  0
  8 11  1  0  0  0  0
 37 38  1  0  0  0  0
 27 28  1  0  0  0  0
 17 18  1  0  0  0  0
  7  8  1  0  0  0  0
  3  4  1  0  0  0  0
  3  5  1  0  0  0  0
  3  6  1  0  0  0  0
 31 34  1  0  0  0  0
 31 35  1  0  0  0  0
 31 36  1  0  0  0  0
 21 24  1  0  0  0  0
 21 25  1  0  0  0  0
 21 26  1  0  0  0  0
 11 14  1  0  0  0  0
 11 15  1  0  0  0  0
 11 16  1  0  0  0  0
 38 40  1  0  0  0  0
 38 41  1  0  0  0  0
 38 42  1  0  0  0  0
 28 33  1  0  0  0  0
 18 23  1  0  0  0  0
  8 13  1  0  0  0  0
 37 39  1  0  0  0  0
  7 12  1  0  0  0  0
 27 32  1  0  0  0  0
 17 22  1  0  0  0  0
M  END
$$$$

  -OEChem-05262214473D

 42 41  0     1  0  0  0  0  0999 V2000
   -5.7851   -0.9580    0.6237 C   0  0  0  0  0  0  0  0  0  0  0  0
   -6.2213    0.1296    0.2652 O   0  0  0  0  0  0  0  0  0  0  0  0
   -6.7088   -2.1270    0.7168 C   0  0  0  0  0  0  0  0  0  0  0  0
   -7.1713   -2.2193    1.7126 H   0  0  0  0  0  0  0  0  0  0  0  0
   -7.5511   -2.0547    0.0101 H   0  0  0  0  0  0  0  0  0  0  0  0
   -6.2485   -3.1083    0.5191 H   0  0  0  0  0  0  0  0  0  0  0  0
   -4.4733   -1.2411    0.9668 N   0  0  0  0  0  0  0  0  0  0  0  0
   -3.4203   -0.2603    0.9449 C   0  0  2  0  0  0  0  0  0  0  0  0
   -2.1242   -0.9699    0.5759 C   0  0  0  0  0  0  0  0  0  0  0  0
   -1.8694   -2.1225    0.9189 O   0  0  0  0  0  0  0  0  0  0  0  0
   -3.2916    0.4435    2.2868 C   0  0  0  0  0  0  0  0  0  0  0  0
   -4.2421   -2.1920    1.2489 H   0  0  0  0  0  0  0  0  0  0  0  0
   -3.6772    0.4622    0.1625 H   0  0  0  0  0  0  0  0  0  0  0  0
   -3.0345   -0.2644    3.0832 H   0  0  0  0  0  0  0  0  0  0  0  0
   -2.5093    1.2092    2.2599 H   0  0  0  0  0  0  0  0  0  0  0  0
   -4.2338    0.9283    2.5645 H   0  0  0  0  0  0  0  0  0  0  0  0
   -1.2626   -0.1515   -0.1463 N   0  0  0  0  0  0  0  0  0  0  0  0
    0.0431   -0.5785   -0.5755 C   0  0  2  0  0  0  0  0  0  0  0  0
    0.8292    0.6580   -0.9911 C   0  0  0  0  0  0  0  0  0  0  0  0
    1.6992    1.1674   -0.2878 O   0  0  0  0  0  0  0  0  0  0  0  0
   -0.0492   -1.5743   -1.7211 C   0  0  0  0  0  0  0  0  0  0  0  0
   -1.5766    0.7776   -0.4197 H   0  0  0  0  0  0  0  0  0  0  0  0
    0.5246   -1.0437    0.2915 H   0  0  0  0  0  0  0  0  0  0  0  0
   -0.5289   -1.1262   -2.5989 H   0  0  0  0  0  0  0  0  0  0  0  0
    0.9437   -1.9199   -2.0275 H   0  0  0  0  0  0  0  0  0  0  0  0
   -0.6400   -2.4495   -1.4301 H   0  0  0  0  0  0  0  0  0  0  0  0
    0.4171    1.1550   -2.2227 N   0  0  0  0  0  0  0  0  0  0  0  0
    0.9783    2.3416   -2.8130 C   0  0  2  0  0  0  0  0  0  0  0  0
   -0.1163    3.0290   -3.6186 C   0  0  0  0  0  0  0  0  0  0  0  0
   -0.9949    2.4131   -4.2185 O   0  0  0  0  0  0  0  0  0  0  0  0
    2.1736    2.0098   -3.6927 C   0  0  0  0  0  0  0  0  0  0  0  0
   -0.2845    0.6421   -2.7530 H   0  0  0  0  0  0  0  0  0  0  0  0
    1.2864    2.9908   -1.9862 H   0  0  0  0  0  0  0  0  0  0  0  0
    1.8844    1.3600   -4.5267 H   0  0  0  0  0  0  0  0  0  0  0  0
    2.6169    2.9162   -4.1182 H   0  0  0  0  0  0  0  0  0  0  0  0
    2.9474    1.4889   -3.1185 H   0  0  0  0  0  0  0  0  0  0  0  0
    0.0286    4.4092   -3.6244 N   0  0  0  0  0  0  0  0  0  0  0  0
   -0.8602    5.2834   -4.3538 C   0  0  0  0  0  0  0  0  0  0  0  0
    0.7620    4.8370   -3.0668 H   0  0  0  0  0  0  0  0  0  0  0  0
   -0.4473    5.4741   -5.3553 H   0  0  0  0  0  0  0  0  0  0  0  0
   -1.8469    4.8065   -4.4488 H   0  0  0  0  0  0  0  0  0  0  0  0
   -0.9636    6.2354   -3.8125 H   0  0  0  0  0  0  0  0  0  0  0  0
  1  3  1  0  0  0  0
  1  7  1  0  0  0  0
  1  2  2  0  0  0  0
 28 29  1  0  0  0  0
 29 37  1  0  0  0  0
 29 30  2  0  0  0  0
 18 19  1  0  0  0  0
 19 27  1  0  0  0  0
 19 20  2  0  0  0  0
  8  9  1  0  0  0  0
  9 17  1  0  0  0  0
  9 10  2  0  0  0  0
 28 31  1  0  0  0  0
 18 21  1  0  0  0  0
  8 11  1  0  0  0  0
 37 38  1  0  0  0  0
 27 28  1  0  0  0  0
 17 18  1  0  0  0  0
  7  8  1  0  0  0  0
  3  4  1  0  0  0  0
  3  5  1  0  0  0  0
  3  6  1  0  0  0  0
 31 34  1  0  0  0  0
 31 35  1  0  0  0  0
 31 36  1  0  0  0  0
 21 24  1  0  0  0  0
 21 25  1  0  0  0  0
 21 26  1  0  0  0  0
 11 14  1  0  0  0  0
 11 15  1  0  0  0  0
 11 16  1  0  0  0  0
 38 40  1  0  0  0  0
 38 41  1  0  0  0  0
 38 42  1  0  0  0  0
 28 33  1  0  0  0  0
 18 23  1  0  0  0  0
  8 13  1  0  0  0  0
 37 39  1  0  0  0  0
  7 12  1  0  0  0  0
 27 32  1  0  0  0  0
 17 22  1  0  0  0  0
M  END
$$$$

  -OEChem-05262214473D

 42 41  0     1  0  0  0  0  0999 V2000
   -5.7851   -0.9580    0.6237 C   0  0  0  0  0  0  0  0  0  0  0  0
   -6.2213    0.1296    0.2652 O   0  0  0  0  0  0  0  0  0  0  0  0
   -6.7088   -2.1270    0.7168 C   0  0  0  0  0  0  0  0  0  0  0  0
   -7.1713   -2.2193    1.7126 H   0  0  0  0  0  0  0  0  0  0  0  0
   -7.5511   -2.0547    0.0101 H   0  0  0  0  0  0  0  0  0  0  0  0
   -6.2485   -3.1083    0.5191 H   0  0  0  0  0  0  0  0  0  0  0  0
   -4.4733   -1.2411    0.9668 N   0  0  0  0  0  0  0  0  0  0  0  0
   -3.4203   -0.2603    0.9449 C   0  0  2  0  0  0  0  0  0  0  0  0
   -2.1242   -0.9699    0.5759 C   0  0  0  0  0  0  0  0  0  0  0  0
   -1.8694   -2.1225    0.9189 O   0  0  0  0  0  0  0  0  0  0  0  0
   -3.2916    0.4435    2.2868 C   0  0  0  0  0  0  0  0  0  0  0  0
   -4.2421   -2.1920    1.2489 H   0  0  0  0  0  0  0  0  0  0  0  0
   -3.6772    0.4622    0.1625 H   0  0  0  0  0  0  0  0  0  0  0  0
   -3.0345   -0.2644    3.0832 H   0  0  0  0  0  0  0  0  0  0  0  0
   -2.5093    1.2092    2.2599 H   0  0  0  0  0  0  0  0  0  0  0  0
   -4.2338    0.9283    2.5645 H   0  0  0  0  0  0  0  0  0  0  0  0
   -1.2626   -0.1515   -0.1463 N   0  0  0  0  0  0  0  0  0  0  0  0
    0.0431   -0.5785   -0.5755 C   0  0  2  0  0  0  0  0  0  0  0  0
    0.8292    0.6580   -0.9911 C   0  0  0  0  0  0  0  0  0  0  0  0
    1.8652    1.0132   -0.4328 O   0  0  0  0  0  0  0  0  0  0  0  0
   -0.0492   -1.5743   -1.7211 C   0  0  0  0  0  0  0  0  0  0  0  0
   -1.5766    0.7776   -0.4197 H   0  0  0  0  0  0  0  0  0  0  0  0
    0.5246   -1.0437    0.2915 H   0  0  0  0  0  0  0  0  0  0  0  0
   -0.5289   -1.1262   -2.5989 H   0  0  0  0  0  0  0  0  0  0  0  0
    0.9437   -1.9199   -2.0275 H   0  0  0  0  0  0  0  0  0  0  0  0
   -0.6400   -2.4495   -1.4301 H   0  0  0  0  0  0  0  0  0  0  0  0
    0.2167    1.3463   -2.0326 N   0  0  0  0  0  0  0  0  0  0  0  0
    0.7434    2.5708   -2.5754 C   0  0  2  0  0  0  0  0  0  0  0  0
   -0.4308    3.4256   -3.0337 C   0  0  0  0  0  0  0  0  0  0  0  0
   -1.4629    2.9510   -3.5034 O   0  0  0  0  0  0  0  0  0  0  0  0
    1.7001    2.2997   -3.7260 C   0  0  0  0  0  0  0  0  0  0  0  0
   -0.6198    0.9537   -2.4600 H   0  0  0  0  0  0  0  0  0  0  0  0
    1.2687    3.0784   -1.7590 H   0  0  0  0  0  0  0  0  0  0  0  0
    1.1916    1.7914   -4.5535 H   0  0  0  0  0  0  0  0  0  0  0  0
    2.1218    3.2306   -4.1191 H   0  0  0  0  0  0  0  0  0  0  0  0
    2.5282    1.6602   -3.4019 H   0  0  0  0  0  0  0  0  0  0  0  0
   -0.1736    4.7824   -2.8964 N   0  0  0  0  0  0  0  0  0  0  0  0
   -1.1157    5.7995   -3.3016 C   0  0  0  0  0  0  0  0  0  0  0  0
    0.6923    5.0852   -2.4601 H   0  0  0  0  0  0  0  0  0  0  0  0
   -0.9025    6.1061   -4.3363 H   0  0  0  0  0  0  0  0  0  0  0  0
   -2.1377    5.3971   -3.2417 H   0  0  0  0  0  0  0  0  0  0  0  0
   -1.0246    6.6699   -2.6352 H   0  0  0  0  0  0  0  0  0  0  0  0
  1  3  1  0  0  0  0
  1  7  1  0  0  0  0
  1  2  2  0  0  0  0
 28 29  1  0  0  0  0
 29 37  1  0  0  0  0
 29 30  2  0  0  0  0
 18 19  1  0  0  0  0
 19 27  1  0  0  0  0
 19 20  2  0  0  0  0
  8  9  1  0  0  0  0
  9 17  1  0  0  0  0
  9 10  2  0  0  0  0
 28 31  1  0  0  0  0
 18 21  1  0  0  0  0
  8 11  1  0  0  0  0
 37 38  1  0  0  0  0
 27 28  1  0  0  0  0
 17 18  1  0  0  0  0
  7  8  1  0  0  0  0
  3  4  1  0  0  0  0
  3  5  1  0  0  0  0
  3  6  1  0  0  0  0
 31 34  1  0  0  0  0
 31 35  1  0  0  0  0
 31 36  1  0  0  0  0
 21 24  1  0  0  0  0
 21 25  1  0  0  0  0
 21 26  1  0  0  0  0
 11 14  1  0  0  0  0
 11 15  1  0  0  0  0
 11 16  1  0  0  0  0
 38 40  1  0  0  0  0
 38 41  1  0  0  0  0
 38 42  1  0  0  0  0
 28 33  1  0  0  0  0
 18 23  1  0  0  0  0
  8 13  1  0  0  0  0
 37 39  1  0  0  0  0
  7 12  1  0  0  0  0
 27 32  1  0  0  0  0
 17 22  1  0  0  0  0
M  END
$$$$

  -OEChem-05262214473D

 42 41  0     1  0  0  0  0  0999 V2000
   -5.7851   -0.9580    0.6237 C   0  0  0  0  0  0  0  0  0  0  0  0
   -6.2213    0.1296    0.2652 O   0  0  0  0  0  0  0  0  0  0  0  0
   -6.7088   -2.1270    0.7168 C   0  0  0  0  0  0  0  0  0  0  0  0
   -7.1713   -2.2193    1.7126 H   0  0  0  0  0  0  0  0  0  0  0  0
   -7.5511   -2.0547    0.0101 H   0  0  0  0  0  0  0  0  0  0  0  0
   -6.2485   -3.1083    0.5191 H   0  0  0  0  0  0  0  0  0  0  0  0
   -4.4733   -1.2411    0.9668 N   0  0  0  0  0  0  0  0  0  0  0  0
   -3.4203   -0.2603    0.9449 C   0  0  2  0  0  0  0  0  0  0  0  0
   -2.1242   -0.9699    0.5759 C   0  0  0  0  0  0  0  0  0  0  0  0
   -1.8694   -2.1225    0.9189 O   0  0  0  0  0  0  0  0  0  0  0  0
   -3.2916    0.4435    2.2868 C   0  0  0  0  0  0  0  0  0  0  0  0
   -4.2421   -2.1920    1.2489 H   0  0  0  0  0  0  0  0  0  0  0  0
   -3.6772    0.4622    0.1625 H   0  0  0  0  0  0  0  0  0  0  0  0
   -3.0345   -0.2644    3.0832 H   0  0  0  0  0  0  0  0  0  0  0  0
   -2.5093    1.2092    2.2599 H   0  0  0  0  0  0  0  0  0  0  0  0
   -4.2338    0.9283    2.5645 H   0  0  0  0  0  0  0  0  0  0  0  0
   -1.2626   -0.1515   -0.1463 N   0  0  0  0  0  0  0  0  0  0  0  0
    0.0431   -0.5785   -0.5755 C   0  0  2  0  0  0  0  0  0  0  0  0
    0.8292    0.6580   -0.9911 C   0  0  0  0  0  0  0  0  0  0  0  0
    1.9841    0.8719   -0.6282 O   0  0  0  0  0  0  0  0  0  0  0  0
   -0.0492   -1.5743   -1.7211 C   0  0  0  0  0  0  0  0  0  0  0  0
   -1.5766    0.7776   -0.4197 H   0  0  0  0  0  0  0  0  0  0  0  0
    0.5246   -1.0437    0.2915 H   0  0  0  0  0  0  0  0  0  0  0  0
   -0.5289   -1.1262   -2.5989 H   0  0  0  0  0  0  0  0  0  0  0  0
    0.9437   -1.9199   -2.0275 H   0  0  0  0  0  0  0  0  0  0  0  0
   -0.6400   -2.4495   -1.4301 H   0  0  0  0  0  0  0  0  0  0  0  0
    0.0766    1.5198   -1.7814 N   0  0  0  0  0  0  0  0  0  0  0  0
    0.5827    2.7770   -2.2659 C   0  0  2  0  0  0  0  0  0  0  0  0
   -0.5838    3.7527   -2.3496 C   0  0  0  0  0  0  0  0  0  0  0  0
   -1.7268    3.4081   -2.6425 O   0  0  0  0  0  0  0  0  0  0  0  0
    1.2561    2.6175   -3.6200 C   0  0  0  0  0  0  0  0  0  0  0  0
   -0.8601    1.2392   -2.0650 H   0  0  0  0  0  0  0  0  0  0  0  0
    1.3056    3.1339   -1.5242 H   0  0  0  0  0  0  0  0  0  0  0  0
    0.5474    2.2606   -4.3762 H   0  0  0  0  0  0  0  0  0  0  0  0
    1.6657    3.5694   -3.9740 H   0  0  0  0  0  0  0  0  0  0  0  0
    2.0759    1.8931   -3.5647 H   0  0  0  0  0  0  0  0  0  0  0  0
   -0.1896    5.0600   -2.1009 N   0  0  0  0  0  0  0  0  0  0  0  0
   -1.1049    6.1754   -2.1627 C   0  0  0  0  0  0  0  0  0  0  0  0
    0.7699    5.2489   -1.8263 H   0  0  0  0  0  0  0  0  0  0  0  0
   -1.0835    6.6125   -3.1719 H   0  0  0  0  0  0  0  0  0  0  0  0
   -2.1233    5.8269   -1.9357 H   0  0  0  0  0  0  0  0  0  0  0  0
   -0.8054    6.9365   -1.4272 H   0  0  0  0  0  0  0  0  0  0  0  0
  1  3  1  0  0  0  0
  1  7  1  0  0  0  0
  1  2  2  0  0  0  0
 28 29  1  0  0  0  0
 29 37  1  0  0  0  0
 29 30  2  0  0  0  0
 18 19  1  0  0  0  0
 19 27  1  0  0  0  0
 19 20  2  0  0  0  0
  8  9  1  0  0  0  0
  9 17  1  0  0  0  0
  9 10  2  0  0  0  0
 28 31  1  0  0  0  0
 18 21  1  0  0  0  0
  8 11  1  0  0  0  0
 37 38  1  0  0  0  0
 27 28  1  0  0  0  0
 17 18  1  0  0  0  0
  7  8  1  0  0  0  0
  3  4  1  0  0  0  0
  3  5  1  0  0  0  0
  3  6  1  0  0  0  0
 31 34  1  0  0  0  0
 31 35  1  0  0  0  0
 31 36  1  0  0  0  0
 21 24  1  0  0  0  0
 21 25  1  0  0  0  0
 21 26  1  0  0  0  0
 11 14  1  0  0  0  0
 11 15  1  0  0  0  0
 11 16  1  0  0  0  0
 38 40  1  0  0  0  0
 38 41  1  0  0  0  0
 38 42  1  0  0  0  0
 28 33  1  0  0  0  0
 18 23  1  0  0  0  0
  8 13  1  0  0  0  0
 37 39  1  0  0  0  0
  7 12  1  0  0  0  0
 27 32  1  0  0  0  0
 17 22  1  0  0  0  0
M  END
$$$$

  -OEChem-05262214473D

 42 41  0     1  0  0  0  0  0999 V2000
   -5.7851   -0.9580    0.6237 C   0  0  0  0  0  0  0  0  0  0  0  0
   -6.2213    0.1296    0.2652 O   0  0  0  0  0  0  0  0  0  0  0  0
   -6.7088   -2.1270    0.7168 C   0  0  0  0  0  0  0  0  0  0  0  0
   -7.1713   -2.2193    1.7126 H   0  0  0  0  0  0  0  0  0  0  0  0
   -7.5511   -2.0547    0.0101 H   0  0  0  0  0  0  0  0  0  0  0  0
   -6.2485   -3.1083    0.5191 H   0  0  0  0  0  0  0  0  0  0  0  0
   -4.4733   -1.2411    0.9668 N   0  0  0  0  0  0  0  0  0  0  0  0
   -3.4203   -0.2603    0.9449 C   0  0  2  0  0  0  0  0  0  0  0  0
   -2.1242   -0.9699    0.5759 C   0  0  0  0  0  0  0  0  0  0  0  0
   -1.8694   -2.1225    0.9189 O   0  0  0  0  0  0  0  0  0  0  0  0
   -3.2916    0.4435    2.2868 C   0  0  0  0  0  0  0  0  0  0  0  0
   -4.2421   -2.1920    1.2489 H   0  0  0  0  0  0  0  0  0  0  0  0
   -3.6772    0.4622    0.1625 H   0  0  0  0  0  0  0  0  0  0  0  0
   -3.0345   -0.2644    3.0832 H   0  0  0  0  0  0  0  0  0  0  0  0
   -2.5093    1.2092    2.2599 H   0  0  0  0  0  0  0  0  0  0  0  0
   -4.2338    0.9283    2.5645 H   0  0  0  0  0  0  0  0  0  0  0  0
   -1.2626   -0.1515   -0.1463 N   0  0  0  0  0  0  0  0  0  0  0  0
    0.0431   -0.5785   -0.5755 C   0  0  2  0  0  0  0  0  0  0  0  0
    0.8292    0.6580   -0.9911 C   0  0  0  0  0  0  0  0  0  0  0  0
    2.0479    0.7532   -0.8609 O   0  0  0  0  0  0  0  0  0  0  0  0
   -0.0492   -1.5743   -1.7211 C   0  0  0  0  0  0  0  0  0  0  0  0
   -1.5766    0.7776   -0.4197 H   0  0  0  0  0  0  0  0  0  0  0  0
    0.5246   -1.0437    0.2915 H   0  0  0  0  0  0  0  0  0  0  0  0
   -0.5289   -1.1262   -2.5989 H   0  0  0  0  0  0  0  0  0  0  0  0
    0.9437   -1.9199   -2.0275 H   0  0  0  0  0  0  0  0  0  0  0  0
   -0.6400   -2.4495   -1.4301 H   0  0  0  0  0  0  0  0  0  0  0  0
    0.0063    1.6638   -1.4861 N   0  0  0  0  0  0  0  0  0  0  0  0
    0.5070    2.9462   -1.9056 C   0  0  2  0  0  0  0  0  0  0  0  0
   -0.5646    3.9881   -1.6130 C   0  0  0  0  0  0  0  0  0  0  0  0
   -1.7685    3.7533   -1.6944 O   0  0  0  0  0  0  0  0  0  0  0  0
    0.8721    2.9418   -3.3819 C   0  0  0  0  0  0  0  0  0  0  0  0
   -0.9890    1.4792   -1.5948 H   0  0  0  0  0  0  0  0  0  0  0  0
    1.3944    3.1536   -1.2977 H   0  0  0  0  0  0  0  0  0  0  0  0
   -0.0046    2.7357   -4.0068 H   0  0  0  0  0  0  0  0  0  0  0  0
    1.2795    3.9094   -3.6928 H   0  0  0  0  0  0  0  0  0  0  0  0
    1.6211    2.1718   -3.5958 H   0  0  0  0  0  0  0  0  0  0  0  0
   -0.0182    5.2229   -1.2921 N   0  0  0  0  0  0  0  0  0  0  0  0
   -0.8287    6.3857   -1.0146 C   0  0  0  0  0  0  0  0  0  0  0  0
    0.9897    5.3168   -1.2086 H   0  0  0  0  0  0  0  0  0  0  0  0
   -0.9779    6.9590   -1.9415 H   0  0  0  0  0  0  0  0  0  0  0  0
   -1.8046    6.0666   -0.6198 H   0  0  0  0  0  0  0  0  0  0  0  0
   -0.3210    7.0173   -0.2707 H   0  0  0  0  0  0  0  0  0  0  0  0
  1  3  1  0  0  0  0
  1  7  1  0  0  0  0
  1  2  2  0  0  0  0
 28 29  1  0  0  0  0
 29 37  1  0  0  0  0
 29 30  2  0  0  0  0
 18 19  1  0  0  0  0
 19 27  1  0  0  0  0
 19 20  2  0  0  0  0
  8  9  1  0  0  0  0
  9 17  1  0  0  0  0
  9 10  2  0  0  0  0
 28 31  1  0  0  0  0
 18 21  1  0  0  0  0
  8 11  1  0  0  0  0
 37 38  1  0  0  0  0
 27 28  1  0  0  0  0
 17 18  1  0  0  0  0
  7  8  1  0  0  0  0
  3  4  1  0  0  0  0
  3  5  1  0  0  0  0
  3  6  1  0  0  0  0
 31 34  1  0  0  0  0
 31 35  1  0  0  0  0
 31 36  1  0  0  0  0
 21 24  1  0  0  0  0
 21 25  1  0  0  0  0
 21 26  1  0  0  0  0
 11 14  1  0  0  0  0
 11 15  1  0  0  0  0
 11 16  1  0  0  0  0
 38 40  1  0  0  0  0
 38 41  1  0  0  0  0
 38 42  1  0  0  0  0
 28 33  1  0  0  0  0
 18 23  1  0  0  0  0
  8 13  1  0  0  0  0
 37 39  1  0  0  0  0
  7 12  1  0  0  0  0
 27 32  1  0  0  0  0
 17 22  1  0  0  0  0
M  END
$$$$

  -OEChem-05262214473D

 42 41  0     1  0  0  0  0  0999 V2000
   -5.7851   -0.9580    0.6237 C   0  0  0  0  0  0  0  0  0  0  0  0
   -6.2213    0.1296    0.2652 O   0  0  0  0  0  0  0  0  0  0  0  0
   -6.7088   -2.1270    0.7168 C   0  0  0  0  0  0  0  0  0  0  0  0
   -7.1713   -2.2193    1.7126 H   0  0  0  0  0  0  0  0  0  0  0  0
   -7.5511   -2.0547    0.0101 H   0  0  0  0  0  0  0  0  0  0  0  0
   -6.2485   -3.1083    0.5191 H   0  0  0  0  0  0  0  0  0  0  0  0
   -4.4733   -1.2411    0.9668 N   0  0  0  0  0  0  0  0  0  0  0  0
   -3.4203   -0.2603    0.9449 C   0  0  2  0  0  0  0  0  0  0  0  0
   -2.1242   -0.9699    0.5759 C   0  0  0  0  0  0  0  0  0  0  0  0
   -1.8694   -2.1225    0.9189 O   0  0  0  0  0  0  0  0  0  0  0  0
   -3.2916    0.4435    2.2868 C   0  0  0  0  0  0  0  0  0  0  0  0
   -4.2421   -2.1920    1.2489 H   0  0  0  0  0  0  0  0  0  0  0  0
   -3.6772    0.4622    0.1625 H   0  0  0  0  0  0  0  0  0  0  0  0
   -3.0345   -0.2644    3.0832 H   0  0  0  0  0  0  0  0  0  0  0  0
   -2.5093    1.2092    2.2599 H   0  0  0  0  0  0  0  0  0  0  0  0
   -4.2338    0.9283    2.5645 H   0  0  0  0  0  0  0  0  0  0  0  0
   -1.2626   -0.1515   -0.1463 N   0  0  0  0  0  0  0  0  0  0  0  0
    0.0431   -0.5785   -0.5755 C   0  0  2  0  0  0  0  0  0  0  0  0
    0.8292    0.6580   -0.9911 C   0  0  0  0  0  0  0  0  0  0  0  0
    2.0522    0.6650   -1.1149 O   0  0  0  0  0  0  0  0  0  0  0  0
   -0.0492   -1.5743   -1.7211 C   0  0  0  0  0  0  0  0  0  0  0  0
   -1.5766    0.7776   -0.4197 H   0  0  0  0  0  0  0  0  0  0  0  0
    0.5246   -1.0437    0.2915 H   0  0  0  0  0  0  0  0  0  0  0  0
   -0.5289   -1.1262   -2.5989 H   0  0  0  0  0  0  0  0  0  0  0  0
    0.9437   -1.9199   -2.0275 H   0  0  0  0  0  0  0  0  0  0  0  0
   -0.6400   -2.4495   -1.4301 H   0  0  0  0  0  0  0  0  0  0  0  0
    0.0107    1.7683   -1.1668 N   0  0  0  0  0  0  0  0  0  0  0  0
    0.5216    3.0669   -1.5191 C   0  0  2  0  0  0  0  0  0  0  0  0
   -0.3747    4.1157   -0.8741 C   0  0  0  0  0  0  0  0  0  0  0  0
   -1.5852    3.9630   -0.7238 O   0  0  0  0  0  0  0  0  0  0  0  0
    0.5740    3.2503   -3.0278 C   0  0  0  0  0  0  0  0  0  0  0  0
   -0.9978    1.6573   -1.0815 H   0  0  0  0  0  0  0  0  0  0  0  0
    1.5292    3.1360   -1.0949 H   0  0  0  0  0  0  0  0  0  0  0  0
   -0.4265    3.1842   -3.4706 H   0  0  0  0  0  0  0  0  0  0  0  0
    0.9895    4.2276   -3.2945 H   0  0  0  0  0  0  0  0  0  0  0  0
    1.1951    2.4772   -3.4930 H   0  0  0  0  0  0  0  0  0  0  0  0
    0.3287    5.2601   -0.5251 N   0  0  0  0  0  0  0  0  0  0  0  0
   -0.3058    6.4159    0.0644 C   0  0  0  0  0  0  0  0  0  0  0  0
    1.3366    5.2843   -0.6490 H   0  0  0  0  0  0  0  0  0  0  0  0
   -0.5929    7.1217   -0.7289 H   0  0  0  0  0  0  0  0  0  0  0  0
   -1.2033    6.0997    0.6162 H   0  0  0  0  0  0  0  0  0  0  0  0
    0.3956    6.9065    0.7553 H   0  0  0  0  0  0  0  0  0  0  0  0
  1  3  1  0  0  0  0
  1  7  1  0  0  0  0
  1  2  2  0  0  0  0
 28 29  1  0  0  0  0
 29 37  1  0  0  0  0
 29 30  2  0  0  0  0
 18 19  1  0  0  0  0
 19 27  1  0  0  0  0
 19 20  2  0  0  0  0
  8  9  1  0  0  0  0
  9 17  1  0  0  0  0
  9 10  2  0  0  0  0
 28 31  1  0  0  0  0
 18 21  1  0  0  0  0
  8 11  1  0  0  0  0
 37 38  1  0  0  0  0
 27 28  1  0  0  0  0
 17 18  1  0  0  0  0
  7  8  1  0  0  0  0
  3  4  1  0  0  0  0
  3  5  1  0  0  0  0
  3  6  1  0  0  0  0
 31 34  1  0  0  0  0
 31 35  1  0  0  0  0
 31 36  1  0  0  0  0
 21 24  1  0  0  0  0
 21 25  1  0  0  0  0
 21 26  1  0  0  0  0
 11 14  1  0  0  0  0
 11 15  1  0  0  0  0
 11 16  1  0  0  0  0
 38 40  1  0  0  0  0
 38 41  1  0  0  0  0
 38 42  1  0  0  0  0
 28 33  1  0  0  0  0
 18 23  1  0  0  0  0
  8 13  1  0  0  0  0
 37 39  1  0  0  0  0
  7 12  1  0  0  0  0
 27 32  1  0  0  0  0
 17 22  1  0  0  0  0
M  END
$$$$

  -OEChem-05262214473D

 42 41  0     1  0  0  0  0  0999 V2000
   -5.7851   -0.9580    0.6237 C   0  0  0  0  0  0  0  0  0  0  0  0
   -6.2213    0.1296    0.2652 O   0  0  0  0  0  0  0  0  0  0  0  0
   -6.7088   -2.1270    0.7168 C   0  0  0  0  0  0  0  0  0  0  0  0
   -7.1713   -2.2193    1.7126 H   0  0  0  0  0  0  0  0  0  0  0  0
   -7.5511   -2.0547    0.0101 H   0  0  0  0  0  0  0  0  0  0  0  0
   -6.2485   -3.1083    0.5191 H   0  0  0  0  0  0  0  0  0  0  0  0
   -4.4733   -1.2411    0.9668 N   0  0  0  0  0  0  0  0  0  0  0  0
   -3.4203   -0.2603    0.9449 C   0  0  2  0  0  0  0  0  0  0  0  0
   -2.1242   -0.9699    0.5759 C   0  0  0  0  0  0  0  0  0  0  0  0
   -1.8694   -2.1225    0.9189 O   0  0  0  0  0  0  0  0  0  0  0  0
   -3.2916    0.4435    2.2868 C   0  0  0  0  0  0  0  0  0  0  0  0
   -4.2421   -2.1920    1.2489 H   0  0  0  0  0  0  0  0  0  0  0  0
   -3.6772    0.4622    0.1625 H   0  0  0  0  0  0  0  0  0  0  0  0
   -3.0345   -0.2644    3.0832 H   0  0  0  0  0  0  0  0  0  0  0  0
   -2.5093    1.2092    2.2599 H   0  0  0  0  0  0  0  0  0  0  0  0
   -4.2338    0.9283    2.5645 H   0  0  0  0  0  0  0  0  0  0  0  0
   -1.2626   -0.1515   -0.1463 N   0  0  0  0  0  0  0  0  0  0  0  0
    0.0431   -0.5785   -0.5755 C   0  0  2  0  0  0  0  0  0  0  0  0
    0.8292    0.6580   -0.9911 C   0  0  0  0  0  0  0  0  0  0  0  0
    1.9968    0.6135   -1.3730 O   0  0  0  0  0  0  0  0  0  0  0  0
   -0.0492   -1.5743   -1.7211 C   0  0  0  0  0  0  0  0  0  0  0  0
   -1.5766    0.7776   -0.4197 H   0  0  0  0  0  0  0  0  0  0  0  0
    0.5246   -1.0437    0.2915 H   0  0  0  0  0  0  0  0  0  0  0  0
   -0.5289   -1.1262   -2.5989 H   0  0  0  0  0  0  0  0  0  0  0  0
    0.9437   -1.9199   -2.0275 H   0  0  0  0  0  0  0  0  0  0  0  0
   -0.6400   -2.4495   -1.4301 H   0  0  0  0  0  0  0  0  0  0  0  0
    0.0893    1.8263   -0.8454 N   0  0  0  0  0  0  0  0  0  0  0  0
    0.6254    3.1308   -1.1327 C   0  0  2  0  0  0  0  0  0  0  0  0
   -0.0270    4.1269   -0.1832 C   0  0  0  0  0  0  0  0  0  0  0  0
   -1.1894    4.0229    0.2032 O   0  0  0  0  0  0  0  0  0  0  0  0
    0.3823    3.5220   -2.5820 C   0  0  0  0  0  0  0  0  0  0  0  0
   -0.8858    1.7614   -0.5600 H   0  0  0  0  0  0  0  0  0  0  0  0
    1.7008    3.0824   -0.9298 H   0  0  0  0  0  0  0  0  0  0  0  0
   -0.6898    3.5756   -2.8041 H   0  0  0  0  0  0  0  0  0  0  0  0
    0.8157    4.5022   -2.8064 H   0  0  0  0  0  0  0  0  0  0  0  0
    0.8267    2.7886   -3.2635 H   0  0  0  0  0  0  0  0  0  0  0  0
    0.8276    5.1691    0.1478 N   0  0  0  0  0  0  0  0  0  0  0  0
    0.4282    6.2640    1.0008 C   0  0  0  0  0  0  0  0  0  0  0  0
    1.7869    5.1537   -0.1857 H   0  0  0  0  0  0  0  0  0  0  0  0
    0.0452    7.0898    0.3832 H   0  0  0  0  0  0  0  0  0  0  0  0
   -0.3605    5.9242    1.6883 H   0  0  0  0  0  0  0  0  0  0  0  0
    1.2955    6.6119    1.5811 H   0  0  0  0  0  0  0  0  0  0  0  0
  1  3  1  0  0  0  0
  1  7  1  0  0  0  0
  1  2  2  0  0  0  0
 28 29  1  0  0  0  0
 29 37  1  0  0  0  0
 29 30  2  0  0  0  0
 18 19  1  0  0  0  0
 19 27  1  0  0  0  0
 19 20  2  0  0  0  0
  8  9  1  0  0  0  0
  9 17  1  0  0  0  0
  9 10  2  0  0  0  0
 28 31  1  0  0  0  0
 18 21  1  0  0  0  0
  8 11  1  0  0  0  0
 37 38  1  0  0  0  0
 27 28  1  0  0  0  0
 17 18  1  0  0  0  0
  7  8  1  0  0  0  0
  3  4  1  0  0  0  0
  3  5  1  0  0  0  0
  3  6  1  0  0  0  0
 31 34  1  0  0  0  0
 31 35  1  0  0  0  0
 31 36  1  0  0  0  0
 21 24  1  0  0  0  0
 21 25  1  0  0  0  0
 21 26  1  0  0  0  0
 11 14  1  0  0  0  0
 11 15  1  0  0  0  0
 11 16  1  0  0  0  0
 38 40  1  0  0  0  0
 38 41  1  0  0  0  0
 38 42  1  0  0  0  0
 28 33  1  0  0  0  0
 18 23  1  0  0  0  0
  8 13  1  0  0  0  0
 37 39  1  0  0  0  0
  7 12  1  0  0  0  0
 27 32  1  0  0  0  0
 17 22  1  0  0  0  0
M  END
$$$$

  -OEChem-05262214473D

 42 41  0     1  0  0  0  0  0999 V2000
   -5.7851   -0.9580    0.6237 C   0  0  0  0  0  0  0  0  0  0  0  0
   -6.2213    0.1296    0.2652 O   0  0  0  0  0  0  0  0  0  0  0  0
   -6.7088   -2.1270    0.7168 C   0  0  0  0  0  0  0  0  0  0  0  0
   -7.1713   -2.2193    1.7126 H   0  0  0  0  0  0  0  0  0  0  0  0
   -7.5511   -2.0547    0.0101 H   0  0  0  0  0  0  0  0  0  0  0  0
   -6.2485   -3.1083    0.5191 H   0  0  0  0  0  0  0  0  0  0  0  0
   -4.4733   -1.2411    0.9668 N   0  0  0  0  0  0  0  0  0  0  0  0
   -3.4203   -0.2603    0.9449 C   0  0  2  0  0  0  0  0  0  0  0  0
   -2.1242   -0.9699    0.5759 C   0  0  0  0  0  0  0  0  0  0  0  0
   -1.8694   -2.1225    0.9189 O   0  0  0  0  0  0  0  0  0  0  0  0
   -3.2916    0.4435    2.2868 C   0  0  0  0  0  0  0  0  0  0  0  0
   -4.2421   -2.1920    1.2489 H   0  0  0  0  0  0  0  0  0  0  0  0
   -3.6772    0.4622    0.1625 H   0  0  0  0  0  0  0  0  0  0  0  0
   -3.0345   -0.2644    3.0832 H   0  0  0  0  0  0  0  0  0  0  0  0
   -2.5093    1.2092    2.2599 H   0  0  0  0  0  0  0  0  0  0  0  0
   -4.2338    0.9283    2.5645 H   0  0  0  0  0  0  0  0  0  0  0  0
   -1.2626   -0.1515   -0.1463 N   0  0  0  0  0  0  0  0  0  0  0  0
    0.0431   -0.5785   -0.5755 C   0  0  2  0  0  0  0  0  0  0  0  0
    0.8292    0.6580   -0.9911 C   0  0  0  0  0  0  0  0  0  0  0  0
    1.8854    0.6022   -1.6175 O   0  0  0  0  0  0  0  0  0  0  0  0
   -0.0492   -1.5743   -1.7211 C   0  0  0  0  0  0  0  0  0  0  0  0
   -1.5766    0.7776   -0.4197 H   0  0  0  0  0  0  0  0  0  0  0  0
    0.5246   -1.0437    0.2915 H   0  0  0  0  0  0  0  0  0  0  0  0
   -0.5289   -1.1262   -2.5989 H   0  0  0  0  0  0  0  0  0  0  0  0
    0.9437   -1.9199   -2.0275 H   0  0  0  0  0  0  0  0  0  0  0  0
   -0.6400   -2.4495   -1.4301 H   0  0  0  0  0  0  0  0  0  0  0  0
    0.2369    1.8339   -0.5437 N   0  0  0  0  0  0  0  0  0  0  0  0
    0.8113    3.1335   -0.7727 C   0  0  2  0  0  0  0  0  0  0  0  0
    0.4548    4.0208    0.4126 C   0  0  0  0  0  0  0  0  0  0  0  0
   -0.6080    3.9290    1.0236 O   0  0  0  0  0  0  0  0  0  0  0  0
    0.3100    3.7385   -2.0748 C   0  0  0  0  0  0  0  0  0  0  0  0
   -0.6608    1.7844   -0.0659 H   0  0  0  0  0  0  0  0  0  0  0  0
    1.8974    2.9965   -0.8134 H   0  0  0  0  0  0  0  0  0  0  0  0
   -0.7763    3.8831   -2.0527 H   0  0  0  0  0  0  0  0  0  0  0  0
    0.7697    4.7146   -2.2617 H   0  0  0  0  0  0  0  0  0  0  0  0
    0.5410    3.0847   -2.9227 H   0  0  0  0  0  0  0  0  0  0  0  0
    1.4445    4.9560    0.6809 N   0  0  0  0  0  0  0  0  0  0  0  0
    1.3231    5.9403    1.7308 C   0  0  0  0  0  0  0  0  0  0  0  0
    2.3101    4.9339    0.1497 H   0  0  0  0  0  0  0  0  0  0  0  0
    0.8931    6.8653    1.3191 H   0  0  0  0  0  0  0  0  0  0  0  0
    0.6665    5.5519    2.5233 H   0  0  0  0  0  0  0  0  0  0  0  0
    2.3175    6.1534    2.1502 H   0  0  0  0  0  0  0  0  0  0  0  0
  1  3  1  0  0  0  0
  1  7  1  0  0  0  0
  1  2  2  0  0  0  0
 28 29  1  0  0  0  0
 29 37  1  0  0  0  0
 29 30  2  0  0  0  0
 18 19  1  0  0  0  0
 19 27  1  0  0  0  0
 19 20  2  0  0  0  0
  8  9  1  0  0  0  0
  9 17  1  0  0  0  0
  9 10  2  0  0  0  0
 28 31  1  0  0  0  0
 18 21  1  0  0  0  0
  8 11  1  0  0  0  0
 37 38  1  0  0  0  0
 27 28  1  0  0  0  0
 17 18  1  0  0  0  0
  7  8  1  0  0  0  0
  3  4  1  0  0  0  0
  3  5  1  0  0  0  0
  3  6  1  0  0  0  0
 31 34  1  0  0  0  0
 31 35  1  0  0  0  0
 31 36  1  0  0  0  0
 21 24  1  0  0  0  0
 21 25  1  0  0  0  0
 21 26  1  0  0  0  0
 11 14  1  0  0  0  0
 11 15  1  0  0  0  0
 11 16  1  0  0  0  0
 38 40  1  0  0  0  0
 38 41  1  0  0  0  0
 38 42  1  0  0  0  0
 28 33  1  0  0  0  0
 18 23  1  0  0  0  0
  8 13  1  0  0  0  0
 37 39  1  0  0  0  0
  7 12  1  0  0  0  0
 27 32  1  0  0  0  0
 17 22  1  0  0  0  0
M  END
$$$$

  -OEChem-05262214473D

 42 41  0     1  0  0  0  0  0999 V2000
   -5.7851   -0.9580    0.6237 C   0  0  0  0  0  0  0  0  0  0  0  0
   -6.2213    0.1296    0.2652 O   0  0  0  0  0  0  0  0  0  0  0  0
   -6.7088   -2.1270    0.7168 C   0  0  0  0  0  0  0  0  0  0  0  0
   -7.1713   -2.2193    1.7126 H   0  0  0  0  0  0  0  0  0  0  0  0
   -7.5511   -2.0547    0.0101 H   0  0  0  0  0  0  0  0  0  0  0  0
   -6.2485   -3.1083    0.5191 H   0  0  0  0  0  0  0  0  0  0  0  0
   -4.4733   -1.2411    0.9668 N   0  0  0  0  0  0  0  0  0  0  0  0
   -3.4203   -0.2603    0.9449 C   0  0  2  0  0  0  0  0  0  0  0  0
   -2.1242   -0.9699    0.5759 C   0  0  0  0  0  0  0  0  0  0  0  0
   -1.8694   -2.1225    0.9189 O   0  0  0  0  0  0  0  0  0  0  0  0
   -3.2916    0.4435    2.2868 C   0  0  0  0  0  0  0  0  0  0  0  0
   -4.2421   -2.1920    1.2489 H   0  0  0  0  0  0  0  0  0  0  0  0
   -3.6772    0.4622    0.1625 H   0  0  0  0  0  0  0  0  0  0  0  0
   -3.0345   -0.2644    3.0832 H   0  0  0  0  0  0  0  0  0  0  0  0
   -2.5093    1.2092    2.2599 H   0  0  0  0  0  0  0  0  0  0  0  0
   -4.2338    0.9283    2.5645 H   0  0  0  0  0  0  0  0  0  0  0  0
   -1.2626   -0.1515   -0.1463 N   0  0  0  0  0  0  0  0  0  0  0  0
    0.0431   -0.5785   -0.5755 C   0  0  2  0  0  0  0  0  0  0  0  0
    0.8292    0.6580   -0.9911 C   0  0  0  0  0  0  0  0  0  0  0  0
    1.7257    0.6317   -1.8318 O   0  0  0  0  0  0  0  0  0  0  0  0
   -0.0492   -1.5743   -1.7211 C   0  0  0  0  0  0  0  0  0  0  0  0
   -1.5766    0.7776   -0.4197 H   0  0  0  0  0  0  0  0  0  0  0  0
    0.5246   -1.0437    0.2915 H   0  0  0  0  0  0  0  0  0  0  0  0
   -0.5289   -1.1262   -2.5989 H   0  0  0  0  0  0  0  0  0  0  0  0
    0.9437   -1.9199   -2.0275 H   0  0  0  0  0  0  0  0  0  0  0  0
   -0.6400   -2.4495   -1.4301 H   0  0  0  0  0  0  0  0  0  0  0  0
    0.4434    1.7905   -0.2823 N   0  0  0  0  0  0  0  0  0  0  0  0
    1.0668    3.0749   -0.4637 C   0  0  2  0  0  0  0  0  0  0  0  0
    1.0379    3.8047    0.8727 C   0  0  0  0  0  0  0  0  0  0  0  0
    0.1193    3.6876    1.6812 O   0  0  0  0  0  0  0  0  0  0  0  0
    0.3620    3.8849   -1.5407 C   0  0  0  0  0  0  0  0  0  0  0  0
   -0.3379    1.7247    0.3671 H   0  0  0  0  0  0  0  0  0  0  0  0
    2.1058    2.8841   -0.7538 H   0  0  0  0  0  0  0  0  0  0  0  0
   -0.6804    4.0860   -1.2677 H   0  0  0  0  0  0  0  0  0  0  0  0
    0.8547    4.8501   -1.6975 H   0  0  0  0  0  0  0  0  0  0  0  0
    0.3577    3.3454   -2.4940 H   0  0  0  0  0  0  0  0  0  0  0  0
    2.1373    4.6354    1.0376 N   0  0  0  0  0  0  0  0  0  0  0  0
    2.3182    5.4670    2.2046 C   0  0  0  0  0  0  0  0  0  0  0  0
    2.8703    4.6397    0.3344 H   0  0  0  0  0  0  0  0  0  0  0  0
    1.8928    6.4635    2.0149 H   0  0  0  0  0  0  0  0  0  0  0  0
    1.8077    5.0082    3.0643 H   0  0  0  0  0  0  0  0  0  0  0  0
    3.3918    5.5624    2.4239 H   0  0  0  0  0  0  0  0  0  0  0  0
  1  3  1  0  0  0  0
  1  7  1  0  0  0  0
  1  2  2  0  0  0  0
 28 29  1  0  0  0  0
 29 37  1  0  0  0  0
 29 30  2  0  0  0  0
 18 19  1  0  0  0  0
 19 27  1  0  0  0  0
 19 20  2  0  0  0  0
  8  9  1  0  0  0  0
  9 17  1  0  0  0  0
  9 10  2  0  0  0  0
 28 31  1  0  0  0  0
 18 21  1  0  0  0  0
  8 11  1  0  0  0  0
 37 38  1  0  0  0  0
 27 28  1  0  0  0  0
 17 18  1  0  0  0  0
  7  8  1  0  0  0  0
  3  4  1  0  0  0  0
  3  5  1  0  0  0  0
  3  6  1  0  0  0  0
 31 34  1  0  0  0  0
 31 35  1  0  0  0  0
 31 36  1  0  0  0  0
 21 24  1  0  0  0  0
 21 25  1  0  0  0  0
 21 26  1  0  0  0  0
 11 14  1  0  0  0  0
 11 15  1  0  0  0  0
 11 16  1  0  0  0  0
 38 40  1  0  0  0  0
 38 41  1  0  0  0  0
 38 42  1  0  0  0  0
 28 33  1  0  0  0  0
 18 23  1  0  0  0  0
  8 13  1  0  0  0  0
 37 39  1  0  0  0  0
  7 12  1  0  0  0  0
 27 32  1  0  0  0  0
 17 22  1  0  0  0  0
M  END
$$$$

  -OEChem-05262214473D

 42 41  0     1  0  0  0  0  0999 V2000
   -5.7851   -0.9580    0.6237 C   0  0  0  0  0  0  0  0  0  0  0  0
   -6.2213    0.1296    0.2652 O   0  0  0  0  0  0  0  0  0  0  0  0
   -6.7088   -2.1270    0.7168 C   0  0  0  0  0  0  0  0  0  0  0  0
   -7.1713   -2.2193    1.7126 H   0  0  0  0  0  0  0  0  0  0  0  0
   -7.5511   -2.0547    0.0101 H   0  0  0  0  0  0  0  0  0  0  0  0
   -6.2485   -3.1083    0.5191 H   0  0  0  0  0  0  0  0  0  0  0  0
   -4.4733   -1.2411    0.9668 N   0  0  0  0  0  0  0  0  0  0  0  0
   -3.4203   -0.2603    0.9449 C   0  0  2  0  0  0  0  0  0  0  0  0
   -2.1242   -0.9699    0.5759 C   0  0  0  0  0  0  0  0  0  0  0  0
   -1.8694   -2.1225    0.9189 O   0  0  0  0  0  0  0  0  0  0  0  0
   -3.2916    0.4435    2.2868 C   0  0  0  0  0  0  0  0  0  0  0  0
   -4.2421   -2.1920    1.2489 H   0  0  0  0  0  0  0  0  0  0  0  0
   -3.6772    0.4622    0.1625 H   0  0  0  0  0  0  0  0  0  0  0  0
   -3.0345   -0.2644    3.0832 H   0  0  0  0  0  0  0  0  0  0  0  0
   -2.5093    1.2092    2.2599 H   0  0  0  0  0  0  0  0  0  0  0  0
   -4.2338    0.9283    2.5645 H   0  0  0  0  0  0  0  0  0  0  0  0
   -1.2626   -0.1515   -0.1463 N   0  0  0  0  0  0  0  0  0  0  0  0
    0.0431   -0.5785   -0.5755 C   0  0  2  0  0  0  0  0  0  0  0  0
    0.8292    0.6580   -0.9911 C   0  0  0  0  0  0  0  0  0  0  0  0
    1.5284    0.7002   -2.0013 O   0  0  0  0  0  0  0  0  0  0  0  0
   -0.0492   -1.5743   -1.7211 C   0  0  0  0  0  0  0  0  0  0  0  0
   -1.5766    0.7776   -0.4197 H   0  0  0  0  0  0  0  0  0  0  0  0
    0.5246   -1.0437    0.2915 H   0  0  0  0  0  0  0  0  0  0  0  0
   -0.5289   -1.1262   -2.5989 H   0  0  0  0  0  0  0  0  0  0  0  0
    0.9437   -1.9199   -2.0275 H   0  0  0  0  0  0  0  0  0  0  0  0
   -0.6400   -2.4495   -1.4301 H   0  0  0  0  0  0  0  0  0  0  0  0
    0.6947    1.6990   -0.0790 N   0  0  0  0  0  0  0  0  0  0  0  0
    1.3744    2.9590   -0.2268 C   0  0  2  0  0  0  0  0  0  0  0  0
    1.6825    3.4934    1.1657 C   0  0  0  0  0  0  0  0  0  0  0  0
    0.9430    3.3152    2.1314 O   0  0  0  0  0  0  0  0  0  0  0  0
    0.5348    3.9513   -1.0162 C   0  0  0  0  0  0  0  0  0  0  0  0
    0.0607    1.5864    0.7096 H   0  0  0  0  0  0  0  0  0  0  0  0
    2.3116    2.7528   -0.7551 H   0  0  0  0  0  0  0  0  0  0  0  0
   -0.4084    4.1703   -0.5024 H   0  0  0  0  0  0  0  0  0  0  0  0
    1.0649    4.8997   -1.1523 H   0  0  0  0  0  0  0  0  0  0  0  0
    0.2890    3.5528   -2.0065 H   0  0  0  0  0  0  0  0  0  0  0  0
    2.8589    4.2292    1.1939 N   0  0  0  0  0  0  0  0  0  0  0  0
    3.3454    4.8762    2.3900 C   0  0  0  0  0  0  0  0  0  0  0  0
    3.4295    4.2914    0.3558 H   0  0  0  0  0  0  0  0  0  0  0  0
    2.9764    5.9119    2.4233 H   0  0  0  0  0  0  0  0  0  0  0  0
    2.9853    4.3301    3.2744 H   0  0  0  0  0  0  0  0  0  0  0  0
    4.4454    4.8790    2.3836 H   0  0  0  0  0  0  0  0  0  0  0  0
  1  3  1  0  0  0  0
  1  7  1  0  0  0  0
  1  2  2  0  0  0  0
 28 29  1  0  0  0  0
 29 37  1  0  0  0  0
 29 30  2  0  0  0  0
 18 19  1  0  0  0  0
 19 27  1  0  0  0  0
 19 20  2  0  0  0  0
  8  9  1  0  0  0  0
  9 17  1  0  0  0  0
  9 10  2  0  0  0  0
 28 31  1  0  0  0  0
 18 21  1  0  0  0  0
  8 11  1  0  0  0  0
 37 38  1  0  0  0  0
 27 28  1  0  0  0  0
 17 18  1  0  0  0  0
  7  8  1  0  0  0  0
  3  4  1  0  0  0  0
  3  5  1  0  0  0  0
  3  6  1  0  0  0  0
 31 34  1  0  0  0  0
 31 35  1  0  0  0  0
 31 36  1  0  0  0  0
 21 24  1  0  0  0  0
 21 25  1  0  0  0  0
 21 26  1  0  0  0  0
 11 14  1  0  0  0  0
 11 15  1  0  0  0  0
 11 16  1  0  0  0  0
 38 40  1  0  0  0  0
 38 41  1  0  0  0  0
 38 42  1  0  0  0  0
 28 33  1  0  0  0  0
 18 23  1  0  0  0  0
  8 13  1  0  0  0  0
 37 39  1  0  0  0  0
  7 12  1  0  0  0  0
 27 32  1  0  0  0  0
 17 22  1  0  0  0  0
M  END
$$$$

  -OEChem-05262214473D

 42 41  0     1  0  0  0  0  0999 V2000
   -5.7851   -0.9580    0.6237 C   0  0  0  0  0  0  0  0  0  0  0  0
   -6.2213    0.1296    0.2652 O   0  0  0  0  0  0  0  0  0  0  0  0
   -6.7088   -2.1270    0.7168 C   0  0  0  0  0  0  0  0  0  0  0  0
   -7.1713   -2.2193    1.7126 H   0  0  0  0  0  0  0  0  0  0  0  0
   -7.5511   -2.0547    0.0101 H   0  0  0  0  0  0  0  0  0  0  0  0
   -6.2485   -3.1083    0.5191 H   0  0  0  0  0  0  0  0  0  0  0  0
   -4.4733   -1.2411    0.9668 N   0  0  0  0  0  0  0  0  0  0  0  0
   -3.4203   -0.2603    0.9449 C   0  0  2  0  0  0  0  0  0  0  0  0
   -2.1242   -0.9699    0.5759 C   0  0  0  0  0  0  0  0  0  0  0  0
   -1.8694   -2.1225    0.9189 O   0  0  0  0  0  0  0  0  0  0  0  0
   -3.2916    0.4435    2.2868 C   0  0  0  0  0  0  0  0  0  0  0  0
   -4.2421   -2.1920    1.2489 H   0  0  0  0  0  0  0  0  0  0  0  0
   -3.6772    0.4622    0.1625 H   0  0  0  0  0  0  0  0  0  0  0  0
   -3.0345   -0.2644    3.0832 H   0  0  0  0  0  0  0  0  0  0  0  0
   -2.5093    1.2092    2.2599 H   0  0  0  0  0  0  0  0  0  0  0  0
   -4.2338    0.9283    2.5645 H   0  0  0  0  0  0  0  0  0  0  0  0
   -1.2626   -0.1515   -0.1463 N   0  0  0  0  0  0  0  0  0  0  0  0
    0.0431   -0.5785   -0.5755 C   0  0  2  0  0  0  0  0  0  0  0  0
    0.8292    0.6580   -0.9911 C   0  0  0  0  0  0  0  0  0  0  0  0
    1.3071    0.8029   -2.1144 O   0  0  0  0  0  0  0  0  0  0  0  0
   -0.0492   -1.5743   -1.7211 C   0  0  0  0  0  0  0  0  0  0  0  0
   -1.5766    0.7776   -0.4197 H   0  0  0  0  0  0  0  0  0  0  0  0
    0.5246   -1.0437    0.2915 H   0  0  0  0  0  0  0  0  0  0  0  0
   -0.5289   -1.1262   -2.5989 H   0  0  0  0  0  0  0  0  0  0  0  0
    0.9437   -1.9199   -2.0275 H   0  0  0  0  0  0  0  0  0  0  0  0
   -0.6400   -2.4495   -1.4301 H   0  0  0  0  0  0  0  0  0  0  0  0
    0.9738    1.5658    0.0524 N   0  0  0  0  0  0  0  0  0  0  0  0
    1.7130    2.7937   -0.0780 C   0  0  2  0  0  0  0  0  0  0  0  0
    2.3448    3.1079    1.2717 C   0  0  0  0  0  0  0  0  0  0  0  0
    1.8069    2.8373    2.3434 O   0  0  0  0  0  0  0  0  0  0  0  0
    0.8166    3.9332   -0.5370 C   0  0  0  0  0  0  0  0  0  0  0  0
    0.5079    1.3788    0.9382 H   0  0  0  0  0  0  0  0  0  0  0  0
    2.5008    2.6117   -0.8171 H   0  0  0  0  0  0  0  0  0  0  0  0
    0.0211    4.1302    0.1909 H   0  0  0  0  0  0  0  0  0  0  0  0
    1.3861    4.8599   -0.6632 H   0  0  0  0  0  0  0  0  0  0  0  0
    0.3398    3.6930   -1.4935 H   0  0  0  0  0  0  0  0  0  0  0  0
    3.5600    3.7650    1.1389 N   0  0  0  0  0  0  0  0  0  0  0  0
    4.3349    4.2082    2.2742 C   0  0  0  0  0  0  0  0  0  0  0  0
    3.9496    3.9126    0.2125 H   0  0  0  0  0  0  0  0  0  0  0  0
    4.0698    5.2480    2.5163 H   0  0  0  0  0  0  0  0  0  0  0  0
    4.1189    3.5640    3.1393 H   0  0  0  0  0  0  0  0  0  0  0  0
    5.4063    4.1499    2.0320 H   0  0  0  0  0  0  0  0  0  0  0  0
  1  3  1  0  0  0  0
  1  7  1  0  0  0  0
  1  2  2  0  0  0  0
 28 29  1  0  0  0  0
 29 37  1  0  0  0  0
 29 30  2  0  0  0  0
 18 19  1  0  0  0  0
 19 27  1  0  0  0  0
 19 20  2  0  0  0  0
  8  9  1  0  0  0  0
  9 17  1  0  0  0  0
  9 10  2  0  0  0  0
 28 31  1  0  0  0  0
 18 21  1  0  0  0  0
  8 11  1  0  0  0  0
 37 38  1  0  0  0  0
 27 28  1  0  0  0  0
 17 18  1  0  0  0  0
  7  8  1  0  0  0  0
  3  4  1  0  0  0  0
  3  5  1  0  0  0  0
  3  6  1  0  0  0  0
 31 34  1  0  0  0  0
 31 35  1  0  0  0  0
 31 36  1  0  0  0  0
 21 24  1  0  0  0  0
 21 25  1  0  0  0  0
 21 26  1  0  0  0  0
 11 14  1  0  0  0  0
 11 15  1  0  0  0  0
 11 16  1  0  0  0  0
 38 40  1  0  0  0  0
 38 41  1  0  0  0  0
 38 42  1  0  0  0  0
 28 33  1  0  0  0  0
 18 23  1  0  0  0  0
  8 13  1  0  0  0  0
 37 39  1  0  0  0  0
  7 12  1  0  0  0  0
 27 32  1  0  0  0  0
 17 22  1  0  0  0  0
M  END
$$$$

  -OEChem-05262214473D

 42 41  0     1  0  0  0  0  0999 V2000
   -5.7851   -0.9580    0.6237 C   0  0  0  0  0  0  0  0  0  0  0  0
   -6.2213    0.1296    0.2652 O   0  0  0  0  0  0  0  0  0  0  0  0
   -6.7088   -2.1270    0.7168 C   0  0  0  0  0  0  0  0  0  0  0  0
   -7.1713   -2.2193    1.7126 H   0  0  0  0  0  0  0  0  0  0  0  0
   -7.5511   -2.0547    0.0101 H   0  0  0  0  0  0  0  0  0  0  0  0
   -6.2485   -3.1083    0.5191 H   0  0  0  0  0  0  0  0  0  0  0  0
   -4.4733   -1.2411    0.9668 N   0  0  0  0  0  0  0  0  0  0  0  0
   -3.4203   -0.2603    0.9449 C   0  0  2  0  0  0  0  0  0  0  0  0
   -2.1242   -0.9699    0.5759 C   0  0  0  0  0  0  0  0  0  0  0  0
   -1.8694   -2.1225    0.9189 O   0  0  0  0  0  0  0  0  0  0  0  0
   -3.2916    0.4435    2.2868 C   0  0  0  0  0  0  0  0  0  0  0  0
   -4.2421   -2.1920    1.2489 H   0  0  0  0  0  0  0  0  0  0  0  0
   -3.6772    0.4622    0.1625 H   0  0  0  0  0  0  0  0  0  0  0  0
   -3.0345   -0.2644    3.0832 H   0  0  0  0  0  0  0  0  0  0  0  0
   -2.5093    1.2092    2.2599 H   0  0  0  0  0  0  0  0  0  0  0  0
   -4.2338    0.9283    2.5645 H   0  0  0  0  0  0  0  0  0  0  0  0
   -1.2626   -0.1515   -0.1463 N   0  0  0  0  0  0  0  0  0  0  0  0
    0.0431   -0.5785   -0.5755 C   0  0  2  0  0  0  0  0  0  0  0  0
    0.8292    0.6580   -0.9911 C   0  0  0  0  0  0  0  0  0  0  0  0
    1.0768    0.9328   -2.1634 O   0  0  0  0  0  0  0  0  0  0  0  0
   -0.0492   -1.5743   -1.7211 C   0  0  0  0  0  0  0  0  0  0  0  0
   -1.5766    0.7776   -0.4197 H   0  0  0  0  0  0  0  0  0  0  0  0
    0.5246   -1.0437    0.2915 H   0  0  0  0  0  0  0  0  0  0  0  0
   -0.5289   -1.1262   -2.5989 H   0  0  0  0  0  0  0  0  0  0  0  0
    0.9437   -1.9199   -2.0275 H   0  0  0  0  0  0  0  0  0  0  0  0
   -0.6400   -2.4495   -1.4301 H   0  0  0  0  0  0  0  0  0  0  0  0
    1.2615    1.3998    0.1028 N   0  0  0  0  0  0  0  0  0  0  0  0
    2.0598    2.5902   -0.0276 C   0  0  2  0  0  0  0  0  0  0  0  0
    2.9795    2.6747    1.1834 C   0  0  0  0  0  0  0  0  0  0  0  0
    2.6521    2.2862    2.3028 O   0  0  0  0  0  0  0  0  0  0  0  0
    1.1882    3.8318   -0.1358 C   0  0  0  0  0  0  0  0  0  0  0  0
    0.9733    1.1163    1.0372 H   0  0  0  0  0  0  0  0  0  0  0  0
    2.6606    2.4702   -0.9356 H   0  0  0  0  0  0  0  0  0  0  0  0
    0.5788    3.9686    0.7649 H   0  0  0  0  0  0  0  0  0  0  0  0
    1.7962    4.7334   -0.2636 H   0  0  0  0  0  0  0  0  0  0  0  0
    0.5066    3.7562   -0.9899 H   0  0  0  0  0  0  0  0  0  0  0  0
    4.1929    3.2744    0.8764 N   0  0  0  0  0  0  0  0  0  0  0  0
    5.2191    3.5085    1.8653 C   0  0  0  0  0  0  0  0  0  0  0  0
    4.3950    3.5291   -0.0859 H   0  0  0  0  0  0  0  0  0  0  0  0
    5.0987    4.5170    2.2878 H   0  0  0  0  0  0  0  0  0  0  0  0
    5.1315    2.7619    2.6683 H   0  0  0  0  0  0  0  0  0  0  0  0
    6.2091    3.4248    1.3931 H   0  0  0  0  0  0  0  0  0  0  0  0
  1  3  1  0  0  0  0
  1  7  1  0  0  0  0
  1  2  2  0  0  0  0
 28 29  1  0  0  0  0
 29 37  1  0  0  0  0
 29 30  2  0  0  0  0
 18 19  1  0  0  0  0
 19 27  1  0  0  0  0
 19 20  2  0  0  0  0
  8  9  1  0  0  0  0
  9 17  1  0  0  0  0
  9 10  2  0  0  0  0
 28 31  1  0  0  0  0
 18 21  1  0  0  0  0
  8 11  1  0  0  0  0
 37 38  1  0  0  0  0
 27 28  1  0  0  0  0
 17 18  1  0  0  0  0
  7  8  1  0  0  0  0
  3  4  1  0  0  0  0
  3  5  1  0  0  0  0
  3  6  1  0  0  0  0
 31 34  1  0  0  0  0
 31 35  1  0  0  0  0
 31 36  1  0  0  0  0
 21 24  1  0  0  0  0
 21 25  1  0  0  0  0
 21 26  1  0  0  0  0
 11 14  1  0  0  0  0
 11 15  1  0  0  0  0
 11 16  1  0  0  0  0
 38 40  1  0  0  0  0
 38 41  1  0  0  0  0
 38 42  1  0  0  0  0
 28 33  1  0  0  0  0
 18 23  1  0  0  0  0
  8 13  1  0  0  0  0
 37 39  1  0  0  0  0
  7 12  1  0  0  0  0
 27 32  1  0  0  0  0
 17 22  1  0  0  0  0
M  END
$$$$

  -OEChem-05262214473D

 42 41  0     1  0  0  0  0  0999 V2000
   -5.7851   -0.9580    0.6237 C   0  0  0  0  0  0  0  0  0  0  0  0
   -6.2213    0.1296    0.2652 O   0  0  0  0  0  0  0  0  0  0  0  0
   -6.7088   -2.1270    0.7168 C   0  0  0  0  0  0  0  0  0  0  0  0
   -7.1713   -2.2193    1.7126 H   0  0  0  0  0  0  0  0  0  0  0  0
   -7.5511   -2.0547    0.0101 H   0  0  0  0  0  0  0  0  0  0  0  0
   -6.2485   -3.1083    0.5191 H   0  0  0  0  0  0  0  0  0  0  0  0
   -4.4733   -1.2411    0.9668 N   0  0  0  0  0  0  0  0  0  0  0  0
   -3.4203   -0.2603    0.9449 C   0  0  2  0  0  0  0  0  0  0  0  0
   -2.1242   -0.9699    0.5759 C   0  0  0  0  0  0  0  0  0  0  0  0
   -1.8694   -2.1225    0.9189 O   0  0  0  0  0  0  0  0  0  0  0  0
   -3.2916    0.4435    2.2868 C   0  0  0  0  0  0  0  0  0  0  0  0
   -4.2421   -2.1920    1.2489 H   0  0  0  0  0  0  0  0  0  0  0  0
   -3.6772    0.4622    0.1625 H   0  0  0  0  0  0  0  0  0  0  0  0
   -3.0345   -0.2644    3.0832 H   0  0  0  0  0  0  0  0  0  0  0  0
   -2.5093    1.2092    2.2599 H   0  0  0  0  0  0  0  0  0  0  0  0
   -4.2338    0.9283    2.5645 H   0  0  0  0  0  0  0  0  0  0  0  0
   -1.2626   -0.1515   -0.1463 N   0  0  0  0  0  0  0  0  0  0  0  0
    0.0431   -0.5785   -0.5755 C   0  0  2  0  0  0  0  0  0  0  0  0
    0.8292    0.6580   -0.9911 C   0  0  0  0  0  0  0  0  0  0  0  0
    0.8533    1.0811   -2.1450 O   0  0  0  0  0  0  0  0  0  0  0  0
   -0.0492   -1.5743   -1.7211 C   0  0  0  0  0  0  0  0  0  0  0  0
   -1.5766    0.7776   -0.4197 H   0  0  0  0  0  0  0  0  0  0  0  0
    0.5246   -1.0437    0.2915 H   0  0  0  0  0  0  0  0  0  0  0  0
   -0.5289   -1.1262   -2.5989 H   0  0  0  0  0  0  0  0  0  0  0  0
    0.9437   -1.9199   -2.0275 H   0  0  0  0  0  0  0  0  0  0  0  0
   -0.6400   -2.4495   -1.4301 H   0  0  0  0  0  0  0  0  0  0  0  0
    1.5383    1.2124    0.0689 N   0  0  0  0  0  0  0  0  0  0  0  0
    2.3909    2.3625   -0.0789 C   0  0  2  0  0  0  0  0  0  0  0  0
    3.5434    2.2232    0.9069 C   0  0  0  0  0  0  0  0  0  0  0  0
    3.4211    1.6997    2.0124 O   0  0  0  0  0  0  0  0  0  0  0  0
    1.6243    3.6540    0.1601 C   0  0  0  0  0  0  0  0  0  0  0  0
    1.4251    0.8165    1.0001 H   0  0  0  0  0  0  0  0  0  0  0  0
    2.7801    2.3381   -1.1025 H   0  0  0  0  0  0  0  0  0  0  0  0
    1.2267    3.6964    1.1807 H   0  0  0  0  0  0  0  0  0  0  0  0
    2.2674    4.5289    0.0193 H   0  0  0  0  0  0  0  0  0  0  0  0
    0.7779    3.7382   -0.5301 H   0  0  0  0  0  0  0  0  0  0  0  0
    4.7144    2.7909    0.4244 N   0  0  0  0  0  0  0  0  0  0  0  0
    5.9379    2.8249    1.1910 C   0  0  0  0  0  0  0  0  0  0  0  0
    4.7355    3.1671   -0.5189 H   0  0  0  0  0  0  0  0  0  0  0  0
    5.9928    3.7688    1.7532 H   0  0  0  0  0  0  0  0  0  0  0  0
    5.9540    1.9785    1.8934 H   0  0  0  0  0  0  0  0  0  0  0  0
    6.7990    2.7530    0.5104 H   0  0  0  0  0  0  0  0  0  0  0  0
  1  3  1  0  0  0  0
  1  7  1  0  0  0  0
  1  2  2  0  0  0  0
 28 29  1  0  0  0  0
 29 37  1  0  0  0  0
 29 30  2  0  0  0  0
 18 19  1  0  0  0  0
 19 27  1  0  0  0  0
 19 20  2  0  0  0  0
  8  9  1  0  0  0  0
  9 17  1  0  0  0  0
  9 10  2  0  0  0  0
 28 31  1  0  0  0  0
 18 21  1  0  0  0  0
  8 11  1  0  0  0  0
 37 38  1  0  0  0  0
 27 28  1  0  0  0  0
 17 18  1  0  0  0  0
  7  8  1  0  0  0  0
  3  4  1  0  0  0  0
  3  5  1  0  0  0  0
  3  6  1  0  0  0  0
 31 34  1  0  0  0  0
 31 35  1  0  0  0  0
 31 36  1  0  0  0  0
 21 24  1  0  0  0  0
 21 25  1  0  0  0  0
 21 26  1  0  0  0  0
 11 14  1  0  0  0  0
 11 15  1  0  0  0  0
 11 16  1  0  0  0  0
 38 40  1  0  0  0  0
 38 41  1  0  0  0  0
 38 42  1  0  0  0  0
 28 33  1  0  0  0  0
 18 23  1  0  0  0  0
  8 13  1  0  0  0  0
 37 39  1  0  0  0  0
  7 12  1  0  0  0  0
 27 32  1  0  0  0  0
 17 22  1  0  0  0  0
M  END
$$$$

  -OEChem-05262214473D

 42 41  0     1  0  0  0  0  0999 V2000
   -5.7851   -0.9580    0.6237 C   0  0  0  0  0  0  0  0  0  0  0  0
   -6.2213    0.1296    0.2652 O   0  0  0  0  0  0  0  0  0  0  0  0
   -6.7088   -2.1270    0.7168 C   0  0  0  0  0  0  0  0  0  0  0  0
   -7.1713   -2.2193    1.7126 H   0  0  0  0  0  0  0  0  0  0  0  0
   -7.5511   -2.0547    0.0101 H   0  0  0  0  0  0  0  0  0  0  0  0
   -6.2485   -3.1083    0.5191 H   0  0  0  0  0  0  0  0  0  0  0  0
   -4.4733   -1.2411    0.9668 N   0  0  0  0  0  0  0  0  0  0  0  0
   -3.4203   -0.2603    0.9449 C   0  0  2  0  0  0  0  0  0  0  0  0
   -2.1242   -0.9699    0.5759 C   0  0  0  0  0  0  0  0  0  0  0  0
   -1.8694   -2.1225    0.9189 O   0  0  0  0  0  0  0  0  0  0  0  0
   -3.2916    0.4435    2.2868 C   0  0  0  0  0  0  0  0  0  0  0  0
   -4.2421   -2.1920    1.2489 H   0  0  0  0  0  0  0  0  0  0  0  0
   -3.6772    0.4622    0.1625 H   0  0  0  0  0  0  0  0  0  0  0  0
   -3.0345   -0.2644    3.0832 H   0  0  0  0  0  0  0  0  0  0  0  0
   -2.5093    1.2092    2.2599 H   0  0  0  0  0  0  0  0  0  0  0  0
   -4.2338    0.9283    2.5645 H   0  0  0  0  0  0  0  0  0  0  0  0
   -1.2626   -0.1515   -0.1463 N   0  0  0  0  0  0  0  0  0  0  0  0
    0.0431   -0.5785   -0.5755 C   0  0  2  0  0  0  0  0  0  0  0  0
    0.8292    0.6580   -0.9911 C   0  0  0  0  0  0  0  0  0  0  0  0
    0.6517    1.2377   -2.0604 O   0  0  0  0  0  0  0  0  0  0  0  0
   -0.0492   -1.5743   -1.7211 C   0  0  0  0  0  0  0  0  0  0  0  0
   -1.5766    0.7776   -0.4197 H   0  0  0  0  0  0  0  0  0  0  0  0
    0.5246   -1.0437    0.2915 H   0  0  0  0  0  0  0  0  0  0  0  0
   -0.5289   -1.1262   -2.5989 H   0  0  0  0  0  0  0  0  0  0  0  0
    0.9437   -1.9199   -2.0275 H   0  0  0  0  0  0  0  0  0  0  0  0
   -0.6400   -2.4495   -1.4301 H   0  0  0  0  0  0  0  0  0  0  0  0
    1.7853    1.0164   -0.0470 N   0  0  0  0  0  0  0  0  0  0  0  0
    2.6839    2.1259   -0.2284 C   0  0  2  0  0  0  0  0  0  0  0  0
    3.9982    1.7842    0.4610 C   0  0  0  0  0  0  0  0  0  0  0  0
    4.0614    1.1176    1.4919 O   0  0  0  0  0  0  0  0  0  0  0  0
    2.0952    3.4119    0.3305 C   0  0  0  0  0  0  0  0  0  0  0  0
    1.8325    0.5001    0.8292 H   0  0  0  0  0  0  0  0  0  0  0  0
    2.8511    2.2244   -1.3065 H   0  0  0  0  0  0  0  0  0  0  0  0
    1.9206    3.3322    1.4097 H   0  0  0  0  0  0  0  0  0  0  0  0
    2.7676    4.2603    0.1663 H   0  0  0  0  0  0  0  0  0  0  0  0
    1.1354    3.6403   -0.1454 H   0  0  0  0  0  0  0  0  0  0  0  0
    5.0890    2.3474   -0.1864 N   0  0  0  0  0  0  0  0  0  0  0  0
    6.4422    2.2039    0.2974 C   0  0  0  0  0  0  0  0  0  0  0  0
    4.9478    2.8512   -1.0571 H   0  0  0  0  0  0  0  0  0  0  0  0
    6.6914    3.0544    0.9490 H   0  0  0  0  0  0  0  0  0  0  0  0
    6.5303    1.2673    0.8675 H   0  0  0  0  0  0  0  0  0  0  0  0
    7.1360    2.1804   -0.5559 H   0  0  0  0  0  0  0  0  0  0  0  0
  1  3  1  0  0  0  0
  1  7  1  0  0  0  0
  1  2  2  0  0  0  0
 28 29  1  0  0  0  0
 29 37  1  0  0  0  0
 29 30  2  0  0  0  0
 18 19  1  0  0  0  0
 19 27  1  0  0  0  0
 19 20  2  0  0  0  0
  8  9  1  0  0  0  0
  9 17  1  0  0  0  0
  9 10  2  0  0  0  0
 28 31  1  0  0  0  0
 18 21  1  0  0  0  0
  8 11  1  0  0  0  0
 37 38  1  0  0  0  0
 27 28  1  0  0  0  0
 17 18  1  0  0  0  0
  7  8  1  0  0  0  0
  3  4  1  0  0  0  0
  3  5  1  0  0  0  0
  3  6  1  0  0  0  0
 31 34  1  0  0  0  0
 31 35  1  0  0  0  0
 31 36  1  0  0  0  0
 21 24  1  0  0  0  0
 21 25  1  0  0  0  0
 21 26  1  0  0  0  0
 11 14  1  0  0  0  0
 11 15  1  0  0  0  0
 11 16  1  0  0  0  0
 38 40  1  0  0  0  0
 38 41  1  0  0  0  0
 38 42  1  0  0  0  0
 28 33  1  0  0  0  0
 18 23  1  0  0  0  0
  8 13  1  0  0  0  0
 37 39  1  0  0  0  0
  7 12  1  0  0  0  0
 27 32  1  0  0  0  0
 17 22  1  0  0  0  0
M  END
$$$$

  -OEChem-05262214473D

 42 41  0     1  0  0  0  0  0999 V2000
   -5.7851   -0.9580    0.6237 C   0  0  0  0  0  0  0  0  0  0  0  0
   -6.2213    0.1296    0.2652 O   0  0  0  0  0  0  0  0  0  0  0  0
   -6.7088   -2.1270    0.7168 C   0  0  0  0  0  0  0  0  0  0  0  0
   -7.1713   -2.2193    1.7126 H   0  0  0  0  0  0  0  0  0  0  0  0
   -7.5511   -2.0547    0.0101 H   0  0  0  0  0  0  0  0  0  0  0  0
   -6.2485   -3.1083    0.5191 H   0  0  0  0  0  0  0  0  0  0  0  0
   -4.4733   -1.2411    0.9668 N   0  0  0  0  0  0  0  0  0  0  0  0
   -3.4203   -0.2603    0.9449 C   0  0  2  0  0  0  0  0  0  0  0  0
   -2.1242   -0.9699    0.5759 C   0  0  0  0  0  0  0  0  0  0  0  0
   -1.8694   -2.1225    0.9189 O   0  0  0  0  0  0  0  0  0  0  0  0
   -3.2916    0.4435    2.2868 C   0  0  0  0  0  0  0  0  0  0  0  0
   -4.2421   -2.1920    1.2489 H   0  0  0  0  0  0  0  0  0  0  0  0
   -3.6772    0.4622    0.1625 H   0  0  0  0  0  0  0  0  0  0  0  0
   -3.0345   -0.2644    3.0832 H   0  0  0  0  0  0  0  0  0  0  0  0
   -2.5093    1.2092    2.2599 H   0  0  0  0  0  0  0  0  0  0  0  0
   -4.2338    0.9283    2.5645 H   0  0  0  0  0  0  0  0  0  0  0  0
   -1.2626   -0.1515   -0.1463 N   0  0  0  0  0  0  0  0  0  0  0  0
    0.0431   -0.5785   -0.5755 C   0  0  2  0  0  0  0  0  0  0  0  0
    0.8292    0.6580   -0.9911 C   0  0  0  0  0  0  0  0  0  0  0  0
    0.4858    1.3919   -1.9155 O   0  0  0  0  0  0  0  0  0  0  0  0
   -0.0492   -1.5743   -1.7211 C   0  0  0  0  0  0  0  0  0  0  0  0
   -1.5766    0.7776   -0.4197 H   0  0  0  0  0  0  0  0  0  0  0  0
    0.5246   -1.0437    0.2915 H   0  0  0  0  0  0  0  0  0  0  0  0
   -0.5289   -1.1262   -2.5989 H   0  0  0  0  0  0  0  0  0  0  0  0
    0.9437   -1.9199   -2.0275 H   0  0  0  0  0  0  0  0  0  0  0  0
   -0.6400   -2.4495   -1.4301 H   0  0  0  0  0  0  0  0  0  0  0  0
    1.9856    0.8251   -0.2371 N   0  0  0  0  0  0  0  0  0  0  0  0
    2.9187    1.8967   -0.4661 C   0  0  2  0  0  0  0  0  0  0  0  0
    4.3128    1.3876   -0.1239 C   0  0  0  0  0  0  0  0  0  0  0  0
    4.5295    0.5797    0.7768 O   0  0  0  0  0  0  0  0  0  0  0  0
    2.5687    3.1220    0.3639 C   0  0  0  0  0  0  0  0  0  0  0  0
    2.1677    0.1885    0.5363 H   0  0  0  0  0  0  0  0  0  0  0  0
    2.8688    2.1368   -1.5337 H   0  0  0  0  0  0  0  0  0  0  0  0
    2.6134    2.9008    1.4365 H   0  0  0  0  0  0  0  0  0  0  0  0
    3.2626    3.9459    0.1672 H   0  0  0  0  0  0  0  0  0  0  0  0
    1.5546    3.4690    0.1381 H   0  0  0  0  0  0  0  0  0  0  0  0
    5.2911    1.9742   -0.9144 N   0  0  0  0  0  0  0  0  0  0  0  0
    6.6977    1.6879   -0.7548 C   0  0  0  0  0  0  0  0  0  0  0  0
    5.0175    2.6030   -1.6638 H   0  0  0  0  0  0  0  0  0  0  0  0
    7.1466    2.4225   -0.0701 H   0  0  0  0  0  0  0  0  0  0  0  0
    6.8211    0.6767   -0.3396 H   0  0  0  0  0  0  0  0  0  0  0  0
    7.1970    1.7459   -1.7332 H   0  0  0  0  0  0  0  0  0  0  0  0
  1  3  1  0  0  0  0
  1  7  1  0  0  0  0
  1  2  2  0  0  0  0
 28 29  1  0  0  0  0
 29 37  1  0  0  0  0
 29 30  2  0  0  0  0
 18 19  1  0  0  0  0
 19 27  1  0  0  0  0
 19 20  2  0  0  0  0
  8  9  1  0  0  0  0
  9 17  1  0  0  0  0
  9 10  2  0  0  0  0
 28 31  1  0  0  0  0
 18 21  1  0  0  0  0
  8 11  1  0  0  0  0
 37 38  1  0  0  0  0
 27 28  1  0  0  0  0
 17 18  1  0  0  0  0
  7  8  1  0  0  0  0
  3  4  1  0  0  0  0
  3  5  1  0  0  0  0
  3  6  1  0  0  0  0
 31 34  1  0  0  0  0
 31 35  1  0  0  0  0
 31 36  1  0  0  0  0
 21 24  1  0  0  0  0
 21 25  1  0  0  0  0
 21 26  1  0  0  0  0
 11 14  1  0  0  0  0
 11 15  1  0  0  0  0
 11 16  1  0  0  0  0
 38 40  1  0  0  0  0
 38 41  1  0  0  0  0
 38 42  1  0  0  0  0
 28 33  1  0  0  0  0
 18 23  1  0  0  0  0
  8 13  1  0  0  0  0
 37 39  1  0  0  0  0
  7 12  1  0  0  0  0
 27 32  1  0  0  0  0
 17 22  1  0  0  0  0
M  END
$$$$

  -OEChem-05262214473D

 42 41  0     1  0  0  0  0  0999 V2000
   -5.7851   -0.9580    0.6237 C   0  0  0  0  0  0  0  0  0  0  0  0
   -6.2213    0.1296    0.2652 O   0  0  0  0  0  0  0  0  0  0  0  0
   -6.7088   -2.1270    0.7168 C   0  0  0  0  0  0  0  0  0  0  0  0
   -7.1713   -2.2193    1.7126 H   0  0  0  0  0  0  0  0  0  0  0  0
   -7.5511   -2.0547    0.0101 H   0  0  0  0  0  0  0  0  0  0  0  0
   -6.2485   -3.1083    0.5191 H   0  0  0  0  0  0  0  0  0  0  0  0
   -4.4733   -1.2411    0.9668 N   0  0  0  0  0  0  0  0  0  0  0  0
   -3.4203   -0.2603    0.9449 C   0  0  2  0  0  0  0  0  0  0  0  0
   -2.1242   -0.9699    0.5759 C   0  0  0  0  0  0  0  0  0  0  0  0
   -1.8694   -2.1225    0.9189 O   0  0  0  0  0  0  0  0  0  0  0  0
   -3.2916    0.4435    2.2868 C   0  0  0  0  0  0  0  0  0  0  0  0
   -4.2421   -2.1920    1.2489 H   0  0  0  0  0  0  0  0  0  0  0  0
   -3.6772    0.4622    0.1625 H   0  0  0  0  0  0  0  0  0  0  0  0
   -3.0345   -0.2644    3.0832 H   0  0  0  0  0  0  0  0  0  0  0  0
   -2.5093    1.2092    2.2599 H   0  0  0  0  0  0  0  0  0  0  0  0
   -4.2338    0.9283    2.5645 H   0  0  0  0  0  0  0  0  0  0  0  0
   -1.2626   -0.1515   -0.1463 N   0  0  0  0  0  0  0  0  0  0  0  0
    0.0431   -0.5785   -0.5755 C   0  0  2  0  0  0  0  0  0  0  0  0
    0.8292    0.6580   -0.9911 C   0  0  0  0  0  0  0  0  0  0  0  0
    0.3669    1.5332   -1.7200 O   0  0  0  0  0  0  0  0  0  0  0  0
   -0.0492   -1.5743   -1.7211 C   0  0  0  0  0  0  0  0  0  0  0  0
   -1.5766    0.7776   -0.4197 H   0  0  0  0  0  0  0  0  0  0  0  0
    0.5246   -1.0437    0.2915 H   0  0  0  0  0  0  0  0  0  0  0  0
   -0.5289   -1.1262   -2.5989 H   0  0  0  0  0  0  0  0  0  0  0  0
    0.9437   -1.9199   -2.0275 H   0  0  0  0  0  0  0  0  0  0  0  0
   -0.6400   -2.4495   -1.4301 H   0  0  0  0  0  0  0  0  0  0  0  0
    2.1257    0.6516   -0.4883 N   0  0  0  0  0  0  0  0  0  0  0  0
    3.0795    1.6905   -0.7756 C   0  0  2  0  0  0  0  0  0  0  0  0
    4.4657    1.0605   -0.8080 C   0  0  0  0  0  0  0  0  0  0  0  0
    4.7933    0.1226   -0.0841 O   0  0  0  0  0  0  0  0  0  0  0  0
    3.0126    2.8042    0.2579 C   0  0  0  0  0  0  0  0  0  0  0  0
    2.4080   -0.0971    0.1412 H   0  0  0  0  0  0  0  0  0  0  0  0
    2.8320    2.0813   -1.7686 H   0  0  0  0  0  0  0  0  0  0  0  0
    3.2576    2.4316    1.2592 H   0  0  0  0  0  0  0  0  0  0  0  0
    3.7188    3.6071    0.0221 H   0  0  0  0  0  0  0  0  0  0  0  0
    2.0070    3.2361    0.3009 H   0  0  0  0  0  0  0  0  0  0  0  0
    5.3071    1.6967   -1.7099 N   0  0  0  0  0  0  0  0  0  0  0  0
    6.6870    1.3119   -1.8937 C   0  0  0  0  0  0  0  0  0  0  0  0
    4.9399    2.4393   -2.2976 H   0  0  0  0  0  0  0  0  0  0  0  0
    7.3276    1.9160   -1.2345 H   0  0  0  0  0  0  0  0  0  0  0  0
    6.8067    0.2469   -1.6456 H   0  0  0  0  0  0  0  0  0  0  0  0
    6.9778    1.4792   -2.9413 H   0  0  0  0  0  0  0  0  0  0  0  0
  1  3  1  0  0  0  0
  1  7  1  0  0  0  0
  1  2  2  0  0  0  0
 28 29  1  0  0  0  0
 29 37  1  0  0  0  0
 29 30  2  0  0  0  0
 18 19  1  0  0  0  0
 19 27  1  0  0  0  0
 19 20  2  0  0  0  0
  8  9  1  0  0  0  0
  9 17  1  0  0  0  0
  9 10  2  0  0  0  0
 28 31  1  0  0  0  0
 18 21  1  0  0  0  0
  8 11  1  0  0  0  0
 37 38  1  0  0  0  0
 27 28  1  0  0  0  0
 17 18  1  0  0  0  0
  7  8  1  0  0  0  0
  3  4  1  0  0  0  0
  3  5  1  0  0  0  0
  3  6  1  0  0  0  0
 31 34  1  0  0  0  0
 31 35  1  0  0  0  0
 31 36  1  0  0  0  0
 21 24  1  0  0  0  0
 21 25  1  0  0  0  0
 21 26  1  0  0  0  0
 11 14  1  0  0  0  0
 11 15  1  0  0  0  0
 11 16  1  0  0  0  0
 38 40  1  0  0  0  0
 38 41  1  0  0  0  0
 38 42  1  0  0  0  0
 28 33  1  0  0  0  0
 18 23  1  0  0  0  0
  8 13  1  0  0  0  0
 37 39  1  0  0  0  0
  7 12  1  0  0  0  0
 27 32  1  0  0  0  0
 17 22  1  0  0  0  0
M  END
$$$$

  -OEChem-05262214473D

 42 41  0     1  0  0  0  0  0999 V2000
   -5.7851   -0.9580    0.6237 C   0  0  0  0  0  0  0  0  0  0  0  0
   -6.2213    0.1296    0.2652 O   0  0  0  0  0  0  0  0  0  0  0  0
   -6.7088   -2.1270    0.7168 C   0  0  0  0  0  0  0  0  0  0  0  0
   -7.1713   -2.2193    1.7126 H   0  0  0  0  0  0  0  0  0  0  0  0
   -7.5511   -2.0547    0.0101 H   0  0  0  0  0  0  0  0  0  0  0  0
   -6.2485   -3.1083    0.5191 H   0  0  0  0  0  0  0  0  0  0  0  0
   -4.4733   -1.2411    0.9668 N   0  0  0  0  0  0  0  0  0  0  0  0
   -3.4203   -0.2603    0.9449 C   0  0  2  0  0  0  0  0  0  0  0  0
   -2.1242   -0.9699    0.5759 C   0  0  0  0  0  0  0  0  0  0  0  0
   -1.8694   -2.1225    0.9189 O   0  0  0  0  0  0  0  0  0  0  0  0
   -3.2916    0.4435    2.2868 C   0  0  0  0  0  0  0  0  0  0  0  0
   -4.2421   -2.1920    1.2489 H   0  0  0  0  0  0  0  0  0  0  0  0
   -3.6772    0.4622    0.1625 H   0  0  0  0  0  0  0  0  0  0  0  0
   -3.0345   -0.2644    3.0832 H   0  0  0  0  0  0  0  0  0  0  0  0
   -2.5093    1.2092    2.2599 H   0  0  0  0  0  0  0  0  0  0  0  0
   -4.2338    0.9283    2.5645 H   0  0  0  0  0  0  0  0  0  0  0  0
   -1.2626   -0.1515   -0.1463 N   0  0  0  0  0  0  0  0  0  0  0  0
    0.0431   -0.5785   -0.5755 C   0  0  2  0  0  0  0  0  0  0  0  0
    0.8292    0.6580   -0.9911 C   0  0  0  0  0  0  0  0  0  0  0  0
    0.3031    1.6520   -1.4873 O   0  0  0  0  0  0  0  0  0  0  0  0
   -0.0492   -1.5743   -1.7211 C   0  0  0  0  0  0  0  0  0  0  0  0
   -1.5766    0.7776   -0.4197 H   0  0  0  0  0  0  0  0  0  0  0  0
    0.5246   -1.0437    0.2915 H   0  0  0  0  0  0  0  0  0  0  0  0
   -0.5289   -1.1262   -2.5989 H   0  0  0  0  0  0  0  0  0  0  0  0
    0.9437   -1.9199   -2.0275 H   0  0  0  0  0  0  0  0  0  0  0  0
   -0.6400   -2.4495   -1.4301 H   0  0  0  0  0  0  0  0  0  0  0  0
    2.1960    0.5077   -0.7837 N   0  0  0  0  0  0  0  0  0  0  0  0
    3.1552    1.5213   -1.1359 C   0  0  2  0  0  0  0  0  0  0  0  0
    4.4465    0.8251   -1.5446 C   0  0  0  0  0  0  0  0  0  0  0  0
    4.8350   -0.2225   -1.0321 O   0  0  0  0  0  0  0  0  0  0  0  0
    3.3967    2.4799    0.0197 C   0  0  0  0  0  0  0  0  0  0  0  0
    2.5369   -0.3371   -0.3290 H   0  0  0  0  0  0  0  0  0  0  0  0
    2.7431    2.0617   -1.9951 H   0  0  0  0  0  0  0  0  0  0  0  0
    3.8096    1.9565    0.8899 H   0  0  0  0  0  0  0  0  0  0  0  0
    4.1050    3.2671   -0.2591 H   0  0  0  0  0  0  0  0  0  0  0  0
    2.4617    2.9575    0.3319 H   0  0  0  0  0  0  0  0  0  0  0  0
    5.1358    1.5338   -2.5187 N   0  0  0  0  0  0  0  0  0  0  0  0
    6.4108    1.1016   -3.0418 C   0  0  0  0  0  0  0  0  0  0  0  0
    4.7201    2.3714   -2.9153 H   0  0  0  0  0  0  0  0  0  0  0  0
    7.2220    1.5696   -2.4649 H   0  0  0  0  0  0  0  0  0  0  0  0
    6.4880    0.0073   -2.9615 H   0  0  0  0  0  0  0  0  0  0  0  0
    6.4934    1.3985   -4.0977 H   0  0  0  0  0  0  0  0  0  0  0  0
  1  3  1  0  0  0  0
  1  7  1  0  0  0  0
  1  2  2  0  0  0  0
 28 29  1  0  0  0  0
 29 37  1  0  0  0  0
 29 30  2  0  0  0  0
 18 19  1  0  0  0  0
 19 27  1  0  0  0  0
 19 20  2  0  0  0  0
  8  9  1  0  0  0  0
  9 17  1  0  0  0  0
  9 10  2  0  0  0  0
 28 31  1  0  0  0  0
 18 21  1  0  0  0  0
  8 11  1  0  0  0  0
 37 38  1  0  0  0  0
 27 28  1  0  0  0  0
 17 18  1  0  0  0  0
  7  8  1  0  0  0  0
  3  4  1  0  0  0  0
  3  5  1  0  0  0  0
  3  6  1  0  0  0  0
 31 34  1  0  0  0  0
 31 35  1  0  0  0  0
 31 36  1  0  0  0  0
 21 24  1  0  0  0  0
 21 25  1  0  0  0  0
 21 26  1  0  0  0  0
 11 14  1  0  0  0  0
 11 15  1  0  0  0  0
 11 16  1  0  0  0  0
 38 40  1  0  0  0  0
 38 41  1  0  0  0  0
 38 42  1  0  0  0  0
 28 33  1  0  0  0  0
 18 23  1  0  0  0  0
  8 13  1  0  0  0  0
 37 39  1  0  0  0  0
  7 12  1  0  0  0  0
 27 32  1  0  0  0  0
 17 22  1  0  0  0  0
M  END
$$$$

  -OEChem-05262214473D

 42 41  0     1  0  0  0  0  0999 V2000
   -5.7851   -0.9580    0.6237 C   0  0  0  0  0  0  0  0  0  0  0  0
   -6.2213    0.1296    0.2652 O   0  0  0  0  0  0  0  0  0  0  0  0
   -6.7088   -2.1270    0.7168 C   0  0  0  0  0  0  0  0  0  0  0  0
   -7.1713   -2.2193    1.7126 H   0  0  0  0  0  0  0  0  0  0  0  0
   -7.5511   -2.0547    0.0101 H   0  0  0  0  0  0  0  0  0  0  0  0
   -6.2485   -3.1083    0.5191 H   0  0  0  0  0  0  0  0  0  0  0  0
   -4.4733   -1.2411    0.9668 N   0  0  0  0  0  0  0  0  0  0  0  0
   -3.4203   -0.2603    0.9449 C   0  0  2  0  0  0  0  0  0  0  0  0
   -2.1242   -0.9699    0.5759 C   0  0  0  0  0  0  0  0  0  0  0  0
   -1.8694   -2.1225    0.9189 O   0  0  0  0  0  0  0  0  0  0  0  0
   -3.2916    0.4435    2.2868 C   0  0  0  0  0  0  0  0  0  0  0  0
   -4.2421   -2.1920    1.2489 H   0  0  0  0  0  0  0  0  0  0  0  0
   -3.6772    0.4622    0.1625 H   0  0  0  0  0  0  0  0  0  0  0  0
   -3.0345   -0.2644    3.0832 H   0  0  0  0  0  0  0  0  0  0  0  0
   -2.5093    1.2092    2.2599 H   0  0  0  0  0  0  0  0  0  0  0  0
   -4.2338    0.9283    2.5645 H   0  0  0  0  0  0  0  0  0  0  0  0
   -1.2626   -0.1515   -0.1463 N   0  0  0  0  0  0  0  0  0  0  0  0
    0.0431   -0.5785   -0.5755 C   0  0  2  0  0  0  0  0  0  0  0  0
    0.8292    0.6580   -0.9911 C   0  0  0  0  0  0  0  0  0  0  0  0
    0.2987    1.7401   -1.2333 O   0  0  0  0  0  0  0  0  0  0  0  0
   -0.0492   -1.5743   -1.7211 C   0  0  0  0  0  0  0  0  0  0  0  0
   -1.5766    0.7776   -0.4197 H   0  0  0  0  0  0  0  0  0  0  0  0
    0.5246   -1.0437    0.2915 H   0  0  0  0  0  0  0  0  0  0  0  0
   -0.5289   -1.1262   -2.5989 H   0  0  0  0  0  0  0  0  0  0  0  0
    0.9437   -1.9199   -2.0275 H   0  0  0  0  0  0  0  0  0  0  0  0
   -0.6400   -2.4495   -1.4301 H   0  0  0  0  0  0  0  0  0  0  0  0
    2.1917    0.4031   -1.1029 N   0  0  0  0  0  0  0  0  0  0  0  0
    3.1406    1.4007   -1.5224 C   0  0  2  0  0  0  0  0  0  0  0  0
    4.2567    0.6974   -2.2836 C   0  0  0  0  0  0  0  0  0  0  0  0
    4.6517   -0.4322   -2.0028 O   0  0  0  0  0  0  0  0  0  0  0  0
    3.6948    2.1714   -0.3343 C   0  0  0  0  0  0  0  0  0  0  0  0
    2.5457   -0.5152   -0.8423 H   0  0  0  0  0  0  0  0  0  0  0  0
    2.6083    2.0792   -2.1978 H   0  0  0  0  0  0  0  0  0  0  0  0
    4.2315    1.5080    0.3537 H   0  0  0  0  0  0  0  0  0  0  0  0
    4.3949    2.9489   -0.6574 H   0  0  0  0  0  0  0  0  0  0  0  0
    2.8878    2.6520    0.2292 H   0  0  0  0  0  0  0  0  0  0  0  0
    4.7888    1.4966   -3.2857 N   0  0  0  0  0  0  0  0  0  0  0  0
    5.8879    1.0714   -4.1208 C   0  0  0  0  0  0  0  0  0  0  0  0
    4.3732    2.4039   -3.4749 H   0  0  0  0  0  0  0  0  0  0  0  0
    6.8370    1.4069   -3.6775 H   0  0  0  0  0  0  0  0  0  0  0  0
    5.8867   -0.0259   -4.1976 H   0  0  0  0  0  0  0  0  0  0  0  0
    5.7768    1.5093   -5.1238 H   0  0  0  0  0  0  0  0  0  0  0  0
  1  3  1  0  0  0  0
  1  7  1  0  0  0  0
  1  2  2  0  0  0  0
 28 29  1  0  0  0  0
 29 37  1  0  0  0  0
 29 30  2  0  0  0  0
 18 19  1  0  0  0  0
 19 27  1  0  0  0  0
 19 20  2  0  0  0  0
  8  9  1  0  0  0  0
  9 17  1  0  0  0  0
  9 10  2  0  0  0  0
 28 31  1  0  0  0  0
 18 21  1  0  0  0  0
  8 11  1  0  0  0  0
 37 38  1  0  0  0  0
 27 28  1  0  0  0  0
 17 18  1  0  0  0  0
  7  8  1  0  0  0  0
  3  4  1  0  0  0  0
  3  5  1  0  0  0  0
  3  6  1  0  0  0  0
 31 34  1  0  0  0  0
 31 35  1  0  0  0  0
 31 36  1  0  0  0  0
 21 24  1  0  0  0  0
 21 25  1  0  0  0  0
 21 26  1  0  0  0  0
 11 14  1  0  0  0  0
 11 15  1  0  0  0  0
 11 16  1  0  0  0  0
 38 40  1  0  0  0  0
 38 41  1  0  0  0  0
 38 42  1  0  0  0  0
 28 33  1  0  0  0  0
 18 23  1  0  0  0  0
  8 13  1  0  0  0  0
 37 39  1  0  0  0  0
  7 12  1  0  0  0  0
 27 32  1  0  0  0  0
 17 22  1  0  0  0  0
M  END
$$$$

  -OEChem-05262214473D

 42 41  0     1  0  0  0  0  0999 V2000
   -5.7851   -0.9580    0.6237 C   0  0  0  0  0  0  0  0  0  0  0  0
   -6.2213    0.1296    0.2652 O   0  0  0  0  0  0  0  0  0  0  0  0
   -6.7088   -2.1270    0.7168 C   0  0  0  0  0  0  0  0  0  0  0  0
   -7.1713   -2.2193    1.7126 H   0  0  0  0  0  0  0  0  0  0  0  0
   -7.5511   -2.0547    0.0101 H   0  0  0  0  0  0  0  0  0  0  0  0
   -6.2485   -3.1083    0.5191 H   0  0  0  0  0  0  0  0  0  0  0  0
   -4.4733   -1.2411    0.9668 N   0  0  0  0  0  0  0  0  0  0  0  0
   -3.4203   -0.2603    0.9449 C   0  0  2  0  0  0  0  0  0  0  0  0
   -2.1242   -0.9699    0.5759 C   0  0  0  0  0  0  0  0  0  0  0  0
   -1.8694   -2.1225    0.9189 O   0  0  0  0  0  0  0  0  0  0  0  0
   -3.2916    0.4435    2.2868 C   0  0  0  0  0  0  0  0  0  0  0  0
   -4.2421   -2.1920    1.2489 H   0  0  0  0  0  0  0  0  0  0  0  0
   -3.6772    0.4622    0.1625 H   0  0  0  0  0  0  0  0  0  0  0  0
   -3.0345   -0.2644    3.0832 H   0  0  0  0  0  0  0  0  0  0  0  0
   -2.5093    1.2092    2.2599 H   0  0  0  0  0  0  0  0  0  0  0  0
   -4.2338    0.9283    2.5645 H   0  0  0  0  0  0  0  0  0  0  0  0
   -1.2626   -0.1515   -0.1463 N   0  0  0  0  0  0  0  0  0  0  0  0
    0.0431   -0.5785   -0.5755 C   0  0  2  0  0  0  0  0  0  0  0  0
    0.9443    0.6480   -0.6310 C   0  0  0  0  0  0  0  0  0  0  0  0
    0.5478    1.7838   -0.3782 O   0  0  0  0  0  0  0  0  0  0  0  0
   -0.0178   -1.2699   -1.9286 C   0  0  0  0  0  0  0  0  0  0  0  0
   -1.5766    0.7776   -0.4197 H   0  0  0  0  0  0  0  0  0  0  0  0
    0.4155   -1.2718    0.1865 H   0  0  0  0  0  0  0  0  0  0  0  0
   -0.3887   -0.5907   -2.7050 H   0  0  0  0  0  0  0  0  0  0  0  0
    0.9719   -1.6194   -2.2406 H   0  0  0  0  0  0  0  0  0  0  0  0
   -0.6897   -2.1343   -1.8947 H   0  0  0  0  0  0  0  0  0  0  0  0
    2.2364    0.3344   -1.0385 N   0  0  0  0  0  0  0  0  0  0  0  0
    3.2636    1.3278   -1.2096 C   0  0  2  0  0  0  0  0  0  0  0  0
    4.1780    0.8692   -2.3380 C   0  0  0  0  0  0  0  0  0  0  0  0
    4.4389   -0.3129   -2.5516 O   0  0  0  0  0  0  0  0  0  0  0  0
    4.0495    1.5382    0.0752 C   0  0  0  0  0  0  0  0  0  0  0  0
    2.4844   -0.6417   -1.1875 H   0  0  0  0  0  0  0  0  0  0  0  0
    2.7604    2.2562   -1.5010 H   0  0  0  0  0  0  0  0  0  0  0  0
    4.5606    0.6187    0.3829 H   0  0  0  0  0  0  0  0  0  0  0  0
    4.8118    2.3145   -0.0485 H   0  0  0  0  0  0  0  0  0  0  0  0
    3.3859    1.8392    0.8931 H   0  0  0  0  0  0  0  0  0  0  0  0
    4.7026    1.9378   -3.0516 N   0  0  0  0  0  0  0  0  0  0  0  0
    5.6311    1.7649   -4.1443 C   0  0  0  0  0  0  0  0  0  0  0  0
    4.4004    2.8822   -2.8313 H   0  0  0  0  0  0  0  0  0  0  0  0
    6.6614    1.8214   -3.7631 H   0  0  0  0  0  0  0  0  0  0  0  0
    5.4669    0.7833   -4.6129 H   0  0  0  0  0  0  0  0  0  0  0  0
    5.4719    2.5581   -4.8895 H   0  0  0  0  0  0  0  0  0  0  0  0
  1  3  1  0  0  0  0
  1  7  1  0  0  0  0
  1  2  2  0  0  0  0
 28 29  1  0  0  0  0
 29 37  1  0  0  0  0
 29 30  2  0  0  0  0
 18 19  1  0  0  0  0
 19 27  1  0  0  0  0
 19 20  2  0  0  0  0
  8  9  1  0  0  0  0
  9 17  1  0  0  0  0
  9 10  2  0  0  0  0
 28 31  1  0  0  0  0
 18 21  1  0  0  0  0
  8 11  1  0  0  0  0
 37 38  1  0  0  0  0
 27 28  1  0  0  0  0
 17 18  1  0  0  0  0
  7  8  1  0  0  0  0
  3  4  1  0  0  0  0
  3  5  1  0  0  0  0
  3  6  1  0  0  0  0
 31 34  1  0  0  0  0
 31 35  1  0  0  0  0
 31 36  1  0  0  0  0
 21 24  1  0  0  0  0
 21 25  1  0  0  0  0
 21 26  1  0  0  0  0
 11 14  1  0  0  0  0
 11 15  1  0  0  0  0
 11 16  1  0  0  0  0
 38 40  1  0  0  0  0
 38 41  1  0  0  0  0
 38 42  1  0  0  0  0
 28 33  1  0  0  0  0
 18 23  1  0  0  0  0
  8 13  1  0  0  0  0
 37 39  1  0  0  0  0
  7 12  1  0  0  0  0
 27 32  1  0  0  0  0
 17 22  1  0  0  0  0
M  END
$$$$

  -OEChem-05262214473D

 42 41  0     1  0  0  0  0  0999 V2000
   -5.7851   -0.9580    0.6237 C   0  0  0  0  0  0  0  0  0  0  0  0
   -6.2213    0.1296    0.2652 O   0  0  0  0  0  0  0  0  0  0  0  0
   -6.7088   -2.1270    0.7168 C   0  0  0  0  0  0  0  0  0  0  0  0
   -7.1713   -2.2193    1.7126 H   0  0  0  0  0  0  0  0  0  0  0  0
   -7.5511   -2.0547    0.0101 H   0  0  0  0  0  0  0  0  0  0  0  0
   -6.2485   -3.1083    0.5191 H   0  0  0  0  0  0  0  0  0  0  0  0
   -4.4733   -1.2411    0.9668 N   0  0  0  0  0  0  0  0  0  0  0  0
   -3.4203   -0.2603    0.9449 C   0  0  2  0  0  0  0  0  0  0  0  0
   -2.1242   -0.9699    0.5759 C   0  0  0  0  0  0  0  0  0  0  0  0
   -1.8694   -2.1225    0.9189 O   0  0  0  0  0  0  0  0  0  0  0  0
   -3.2916    0.4435    2.2868 C   0  0  0  0  0  0  0  0  0  0  0  0
   -4.2421   -2.1920    1.2489 H   0  0  0  0  0  0  0  0  0  0  0  0
   -3.6772    0.4622    0.1625 H   0  0  0  0  0  0  0  0  0  0  0  0
   -3.0345   -0.2644    3.0832 H   0  0  0  0  0  0  0  0  0  0  0  0
   -2.5093    1.2092    2.2599 H   0  0  0  0  0  0  0  0  0  0  0  0
   -4.2338    0.9283    2.5645 H   0  0  0  0  0  0  0  0  0  0  0  0
   -1.2626   -0.1515   -0.1463 N   0  0  0  0  0  0  0  0  0  0  0  0
    0.0431   -0.5785   -0.5755 C   0  0  2  0  0  0  0  0  0  0  0  0
    0.9443    0.6480   -0.6310 C   0  0  0  0  0  0  0  0  0  0  0  0
    0.6382    1.7285   -0.1310 O   0  0  0  0  0  0  0  0  0  0  0  0
   -0.0178   -1.2699   -1.9286 C   0  0  0  0  0  0  0  0  0  0  0  0
   -1.5766    0.7776   -0.4197 H   0  0  0  0  0  0  0  0  0  0  0  0
    0.4155   -1.2718    0.1865 H   0  0  0  0  0  0  0  0  0  0  0  0
   -0.3887   -0.5907   -2.7050 H   0  0  0  0  0  0  0  0  0  0  0  0
    0.9719   -1.6194   -2.2406 H   0  0  0  0  0  0  0  0  0  0  0  0
   -0.6897   -2.1343   -1.8947 H   0  0  0  0  0  0  0  0  0  0  0  0
    2.1151    0.4098   -1.3426 N   0  0  0  0  0  0  0  0  0  0  0  0
    3.1096    1.4246   -1.5716 C   0  0  2  0  0  0  0  0  0  0  0  0
    3.7575    1.1517   -2.9226 C   0  0  0  0  0  0  0  0  0  0  0  0
    3.9379    0.0185   -3.3633 O   0  0  0  0  0  0  0  0  0  0  0  0
    4.1502    1.4398   -0.4628 C   0  0  0  0  0  0  0  0  0  0  0  0
    2.3016   -0.5300   -1.6869 H   0  0  0  0  0  0  0  0  0  0  0  0
    2.5808    2.3834   -1.6065 H   0  0  0  0  0  0  0  0  0  0  0  0
    4.6904    0.4874   -0.4124 H   0  0  0  0  0  0  0  0  0  0  0  0
    4.8899    2.2311   -0.6237 H   0  0  0  0  0  0  0  0  0  0  0  0
    3.6789    1.6066    0.5118 H   0  0  0  0  0  0  0  0  0  0  0  0
    4.1497    2.3210   -3.5590 N   0  0  0  0  0  0  0  0  0  0  0  0
    4.8263    2.3249   -4.8351 C   0  0  0  0  0  0  0  0  0  0  0  0
    3.9242    3.2181   -3.1394 H   0  0  0  0  0  0  0  0  0  0  0  0
    5.9144    2.3290   -4.6738 H   0  0  0  0  0  0  0  0  0  0  0  0
    4.5433    1.4262   -5.4028 H   0  0  0  0  0  0  0  0  0  0  0  0
    4.5362    3.2225   -5.4010 H   0  0  0  0  0  0  0  0  0  0  0  0
  1  3  1  0  0  0  0
  1  7  1  0  0  0  0
  1  2  2  0  0  0  0
 28 29  1  0  0  0  0
 29 37  1  0  0  0  0
 29 30  2  0  0  0  0
 18 19  1  0  0  0  0
 19 27  1  0  0  0  0
 19 20  2  0  0  0  0
  8  9  1  0  0  0  0
  9 17  1  0  0  0  0
  9 10  2  0  0  0  0
 28 31  1  0  0  0  0
 18 21  1  0  0  0  0
  8 11  1  0  0  0  0
 37 38  1  0  0  0  0
 27 28  1  0  0  0  0
 17 18  1  0  0  0  0
  7  8  1  0  0  0  0
  3  4  1  0  0  0  0
  3  5  1  0  0  0  0
  3  6  1  0  0  0  0
 31 34  1  0  0  0  0
 31 35  1  0  0  0  0
 31 36  1  0  0  0  0
 21 24  1  0  0  0  0
 21 25  1  0  0  0  0
 21 26  1  0  0  0  0
 11 14  1  0  0  0  0
 11 15  1  0  0  0  0
 11 16  1  0  0  0  0
 38 40  1  0  0  0  0
 38 41  1  0  0  0  0
 38 42  1  0  0  0  0
 28 33  1  0  0  0  0
 18 23  1  0  0  0  0
  8 13  1  0  0  0  0
 37 39  1  0  0  0  0
  7 12  1  0  0  0  0
 27 32  1  0  0  0  0
 17 22  1  0  0  0  0
M  END
$$$$

  -OEChem-05262214473D

 42 41  0     1  0  0  0  0  0999 V2000
   -5.7851   -0.9580    0.6237 C   0  0  0  0  0  0  0  0  0  0  0  0
   -6.2213    0.1296    0.2652 O   0  0  0  0  0  0  0  0  0  0  0  0
   -6.7088   -2.1270    0.7168 C   0  0  0  0  0  0  0  0  0  0  0  0
   -7.1713   -2.2193    1.7126 H   0  0  0  0  0  0  0  0  0  0  0  0
   -7.5511   -2.0547    0.0101 H   0  0  0  0  0  0  0  0  0  0  0  0
   -6.2485   -3.1083    0.5191 H   0  0  0  0  0  0  0  0  0  0  0  0
   -4.4733   -1.2411    0.9668 N   0  0  0  0  0  0  0  0  0  0  0  0
   -3.4203   -0.2603    0.9449 C   0  0  2  0  0  0  0  0  0  0  0  0
   -2.1242   -0.9699    0.5759 C   0  0  0  0  0  0  0  0  0  0  0  0
   -1.8694   -2.1225    0.9189 O   0  0  0  0  0  0  0  0  0  0  0  0
   -3.2916    0.4435    2.2868 C   0  0  0  0  0  0  0  0  0  0  0  0
   -4.2421   -2.1920    1.2489 H   0  0  0  0  0  0  0  0  0  0  0  0
   -3.6772    0.4622    0.1625 H   0  0  0  0  0  0  0  0  0  0  0  0
   -3.0345   -0.2644    3.0832 H   0  0  0  0  0  0  0  0  0  0  0  0
   -2.5093    1.2092    2.2599 H   0  0  0  0  0  0  0  0  0  0  0  0
   -4.2338    0.9283    2.5645 H   0  0  0  0  0  0  0  0  0  0  0  0
   -1.2626   -0.1515   -0.1463 N   0  0  0  0  0  0  0  0  0  0  0  0
    0.0431   -0.5785   -0.5755 C   0  0  2  0  0  0  0  0  0  0  0  0
    0.9443    0.6480   -0.6310 C   0  0  0  0  0  0  0  0  0  0  0  0
    0.7766    1.6364    0.0804 O   0  0  0  0  0  0  0  0  0  0  0  0
   -0.0178   -1.2699   -1.9286 C   0  0  0  0  0  0  0  0  0  0  0  0
   -1.5766    0.7776   -0.4197 H   0  0  0  0  0  0  0  0  0  0  0  0
    0.4155   -1.2718    0.1865 H   0  0  0  0  0  0  0  0  0  0  0  0
   -0.3887   -0.5907   -2.7050 H   0  0  0  0  0  0  0  0  0  0  0  0
    0.9719   -1.6194   -2.2406 H   0  0  0  0  0  0  0  0  0  0  0  0
   -0.6897   -2.1343   -1.8947 H   0  0  0  0  0  0  0  0  0  0  0  0
    1.9353    0.5303   -1.5995 N   0  0  0  0  0  0  0  0  0  0  0  0
    2.8862    1.5751   -1.8744 C   0  0  2  0  0  0  0  0  0  0  0  0
    3.2322    1.5181   -3.3564 C   0  0  0  0  0  0  0  0  0  0  0  0
    3.2880    0.4676   -3.9923 O   0  0  0  0  0  0  0  0  0  0  0  0
    4.1345    1.4262   -1.0186 C   0  0  0  0  0  0  0  0  0  0  0  0
    2.0220   -0.3439   -2.1141 H   0  0  0  0  0  0  0  0  0  0  0  0
    2.3865    2.5241   -1.6516 H   0  0  0  0  0  0  0  0  0  0  0  0
    4.6487    0.4811   -1.2279 H   0  0  0  0  0  0  0  0  0  0  0  0
    4.8447    2.2378   -1.2083 H   0  0  0  0  0  0  0  0  0  0  0  0
    3.8803    1.4375    0.0468 H   0  0  0  0  0  0  0  0  0  0  0  0
    3.5136    2.7742   -3.8753 N   0  0  0  0  0  0  0  0  0  0  0  0
    3.9102    2.9793   -5.2488 C   0  0  0  0  0  0  0  0  0  0  0  0
    3.4032    3.5943   -3.2863 H   0  0  0  0  0  0  0  0  0  0  0  0
    5.0078    2.9659   -5.3200 H   0  0  0  0  0  0  0  0  0  0  0  0
    3.4925    2.1770   -5.8747 H   0  0  0  0  0  0  0  0  0  0  0  0
    3.5321    3.9514   -5.5982 H   0  0  0  0  0  0  0  0  0  0  0  0
  1  3  1  0  0  0  0
  1  7  1  0  0  0  0
  1  2  2  0  0  0  0
 28 29  1  0  0  0  0
 29 37  1  0  0  0  0
 29 30  2  0  0  0  0
 18 19  1  0  0  0  0
 19 27  1  0  0  0  0
 19 20  2  0  0  0  0
  8  9  1  0  0  0  0
  9 17  1  0  0  0  0
  9 10  2  0  0  0  0
 28 31  1  0  0  0  0
 18 21  1  0  0  0  0
  8 11  1  0  0  0  0
 37 38  1  0  0  0  0
 27 28  1  0  0  0  0
 17 18  1  0  0  0  0
  7  8  1  0  0  0  0
  3  4  1  0  0  0  0
  3  5  1  0  0  0  0
  3  6  1  0  0  0  0
 31 34  1  0  0  0  0
 31 35  1  0  0  0  0
 31 36  1  0  0  0  0
 21 24  1  0  0  0  0
 21 25  1  0  0  0  0
 21 26  1  0  0  0  0
 11 14  1  0  0  0  0
 11 15  1  0  0  0  0
 11 16  1  0  0  0  0
 38 40  1  0  0  0  0
 38 41  1  0  0  0  0
 38 42  1  0  0  0  0
 28 33  1  0  0  0  0
 18 23  1  0  0  0  0
  8 13  1  0  0  0  0
 37 39  1  0  0  0  0
  7 12  1  0  0  0  0
 27 32  1  0  0  0  0
 17 22  1  0  0  0  0
M  END
$$$$

  -OEChem-05262214473D

 42 41  0     1  0  0  0  0  0999 V2000
   -5.7851   -0.9580    0.6237 C   0  0  0  0  0  0  0  0  0  0  0  0
   -6.2213    0.1296    0.2652 O   0  0  0  0  0  0  0  0  0  0  0  0
   -6.7088   -2.1270    0.7168 C   0  0  0  0  0  0  0  0  0  0  0  0
   -7.1713   -2.2193    1.7126 H   0  0  0  0  0  0  0  0  0  0  0  0
   -7.5511   -2.0547    0.0101 H   0  0  0  0  0  0  0  0  0  0  0  0
   -6.2485   -3.1083    0.5191 H   0  0  0  0  0  0  0  0  0  0  0  0
   -4.4733   -1.2411    0.9668 N   0  0  0  0  0  0  0  0  0  0  0  0
   -3.4203   -0.2603    0.9449 C   0  0  2  0  0  0  0  0  0  0  0  0
   -2.1242   -0.9699    0.5759 C   0  0  0  0  0  0  0  0  0  0  0  0
   -1.8694   -2.1225    0.9189 O   0  0  0  0  0  0  0  0  0  0  0  0
   -3.2916    0.4435    2.2868 C   0  0  0  0  0  0  0  0  0  0  0  0
   -4.2421   -2.1920    1.2489 H   0  0  0  0  0  0  0  0  0  0  0  0
   -3.6772    0.4622    0.1625 H   0  0  0  0  0  0  0  0  0  0  0  0
   -3.0345   -0.2644    3.0832 H   0  0  0  0  0  0  0  0  0  0  0  0
   -2.5093    1.2092    2.2599 H   0  0  0  0  0  0  0  0  0  0  0  0
   -4.2338    0.9283    2.5645 H   0  0  0  0  0  0  0  0  0  0  0  0
   -1.2626   -0.1515   -0.1463 N   0  0  0  0  0  0  0  0  0  0  0  0
    0.0431   -0.5785   -0.5755 C   0  0  2  0  0  0  0  0  0  0  0  0
    0.9443    0.6480   -0.6310 C   0  0  0  0  0  0  0  0  0  0  0  0
    0.9534    1.5137    0.2416 O   0  0  0  0  0  0  0  0  0  0  0  0
   -0.0178   -1.2699   -1.9286 C   0  0  0  0  0  0  0  0  0  0  0  0
   -1.5766    0.7776   -0.4197 H   0  0  0  0  0  0  0  0  0  0  0  0
    0.4155   -1.2718    0.1865 H   0  0  0  0  0  0  0  0  0  0  0  0
   -0.3887   -0.5907   -2.7050 H   0  0  0  0  0  0  0  0  0  0  0  0
    0.9719   -1.6194   -2.2406 H   0  0  0  0  0  0  0  0  0  0  0  0
   -0.6897   -2.1343   -1.8947 H   0  0  0  0  0  0  0  0  0  0  0  0
    1.7092    0.6877   -1.7917 N   0  0  0  0  0  0  0  0  0  0  0  0
    2.6088    1.7688   -2.0972 C   0  0  2  0  0  0  0  0  0  0  0  0
    2.6378    1.9434   -3.6098 C   0  0  0  0  0  0  0  0  0  0  0  0
    2.5333    1.0038   -4.3956 O   0  0  0  0  0  0  0  0  0  0  0  0
    4.0033    1.4984   -1.5543 C   0  0  0  0  0  0  0  0  0  0  0  0
    1.6646   -0.0961   -2.4400 H   0  0  0  0  0  0  0  0  0  0  0  0
    2.1908    2.6688   -1.6331 H   0  0  0  0  0  0  0  0  0  0  0  0
    4.4384    0.6003   -2.0078 H   0  0  0  0  0  0  0  0  0  0  0  0
    4.6792    2.3343   -1.7626 H   0  0  0  0  0  0  0  0  0  0  0  0
    3.9764    1.3436   -0.4703 H   0  0  0  0  0  0  0  0  0  0  0  0
    2.8374    3.2663   -3.9788 N   0  0  0  0  0  0  0  0  0  0  0  0
    2.9453    3.6834   -5.3573 C   0  0  0  0  0  0  0  0  0  0  0  0
    2.8729    3.9851   -3.2620 H   0  0  0  0  0  0  0  0  0  0  0  0
    4.0034    3.6886   -5.6577 H   0  0  0  0  0  0  0  0  0  0  0  0
    2.3862    2.9843   -5.9966 H   0  0  0  0  0  0  0  0  0  0  0  0
    2.5279    4.6952   -5.4679 H   0  0  0  0  0  0  0  0  0  0  0  0
  1  3  1  0  0  0  0
  1  7  1  0  0  0  0
  1  2  2  0  0  0  0
 28 29  1  0  0  0  0
 29 37  1  0  0  0  0
 29 30  2  0  0  0  0
 18 19  1  0  0  0  0
 19 27  1  0  0  0  0
 19 20  2  0  0  0  0
  8  9  1  0  0  0  0
  9 17  1  0  0  0  0
  9 10  2  0  0  0  0
 28 31  1  0  0  0  0
 18 21  1  0  0  0  0
  8 11  1  0  0  0  0
 37 38  1  0  0  0  0
 27 28  1  0  0  0  0
 17 18  1  0  0  0  0
  7  8  1  0  0  0  0
  3  4  1  0  0  0  0
  3  5  1  0  0  0  0
  3  6  1  0  0  0  0
 31 34  1  0  0  0  0
 31 35  1  0  0  0  0
 31 36  1  0  0  0  0
 21 24  1  0  0  0  0
 21 25  1  0  0  0  0
 21 26  1  0  0  0  0
 11 14  1  0  0  0  0
 11 15  1  0  0  0  0
 11 16  1  0  0  0  0
 38 40  1  0  0  0  0
 38 41  1  0  0  0  0
 38 42  1  0  0  0  0
 28 33  1  0  0  0  0
 18 23  1  0  0  0  0
  8 13  1  0  0  0  0
 37 39  1  0  0  0  0
  7 12  1  0  0  0  0
 27 32  1  0  0  0  0
 17 22  1  0  0  0  0
M  END
$$$$

  -OEChem-05262214473D

 42 41  0     1  0  0  0  0  0999 V2000
   -5.7851   -0.9580    0.6237 C   0  0  0  0  0  0  0  0  0  0  0  0
   -6.2213    0.1296    0.2652 O   0  0  0  0  0  0  0  0  0  0  0  0
   -6.7088   -2.1270    0.7168 C   0  0  0  0  0  0  0  0  0  0  0  0
   -7.1713   -2.2193    1.7126 H   0  0  0  0  0  0  0  0  0  0  0  0
   -7.5511   -2.0547    0.0101 H   0  0  0  0  0  0  0  0  0  0  0  0
   -6.2485   -3.1083    0.5191 H   0  0  0  0  0  0  0  0  0  0  0  0
   -4.4733   -1.2411    0.9668 N   0  0  0  0  0  0  0  0  0  0  0  0
   -3.4203   -0.2603    0.9449 C   0  0  2  0  0  0  0  0  0  0  0  0
   -2.1242   -0.9699    0.5759 C   0  0  0  0  0  0  0  0  0  0  0  0
   -1.8694   -2.1225    0.9189 O   0  0  0  0  0  0  0  0  0  0  0  0
   -3.2916    0.4435    2.2868 C   0  0  0  0  0  0  0  0  0  0  0  0
   -4.2421   -2.1920    1.2489 H   0  0  0  0  0  0  0  0  0  0  0  0
   -3.6772    0.4622    0.1625 H   0  0  0  0  0  0  0  0  0  0  0  0
   -3.0345   -0.2644    3.0832 H   0  0  0  0  0  0  0  0  0  0  0  0
   -2.5093    1.2092    2.2599 H   0  0  0  0  0  0  0  0  0  0  0  0
   -4.2338    0.9283    2.5645 H   0  0  0  0  0  0  0  0  0  0  0  0
   -1.2626   -0.1515   -0.1463 N   0  0  0  0  0  0  0  0  0  0  0  0
    0.0431   -0.5785   -0.5755 C   0  0  2  0  0  0  0  0  0  0  0  0
    0.9443    0.6480   -0.6310 C   0  0  0  0  0  0  0  0  0  0  0  0
    1.1567    1.3689    0.3417 O   0  0  0  0  0  0  0  0  0  0  0  0
   -0.0178   -1.2699   -1.9286 C   0  0  0  0  0  0  0  0  0  0  0  0
   -1.5766    0.7776   -0.4197 H   0  0  0  0  0  0  0  0  0  0  0  0
    0.4155   -1.2718    0.1865 H   0  0  0  0  0  0  0  0  0  0  0  0
   -0.3887   -0.5907   -2.7050 H   0  0  0  0  0  0  0  0  0  0  0  0
    0.9719   -1.6194   -2.2406 H   0  0  0  0  0  0  0  0  0  0  0  0
   -0.6897   -2.1343   -1.8947 H   0  0  0  0  0  0  0  0  0  0  0  0
    1.4522    0.8714   -1.9062 N   0  0  0  0  0  0  0  0  0  0  0  0
    2.2962    1.9928   -2.2249 C   0  0  2  0  0  0  0  0  0  0  0  0
    2.0149    2.3986   -3.6656 C   0  0  0  0  0  0  0  0  0  0  0  0
    1.7254    1.5907   -4.5457 O   0  0  0  0  0  0  0  0  0  0  0  0
    3.7657    1.6513   -2.0334 C   0  0  0  0  0  0  0  0  0  0  0  0
    1.2539    0.1966   -2.6423 H   0  0  0  0  0  0  0  0  0  0  0  0
    2.0069    2.8076   -1.5522 H   0  0  0  0  0  0  0  0  0  0  0  0
    4.0739    0.8369   -2.6990 H   0  0  0  0  0  0  0  0  0  0  0  0
    4.4048    2.5140   -2.2487 H   0  0  0  0  0  0  0  0  0  0  0  0
    3.9605    1.3311   -1.0041 H   0  0  0  0  0  0  0  0  0  0  0  0
    2.1674    3.7639   -3.8625 N   0  0  0  0  0  0  0  0  0  0  0  0
    1.9972    4.3893   -5.1532 C   0  0  0  0  0  0  0  0  0  0  0  0
    2.3694    4.3638   -3.0681 H   0  0  0  0  0  0  0  0  0  0  0  0
    2.9697    4.4479   -5.6639 H   0  0  0  0  0  0  0  0  0  0  0  0
    1.2998    3.7933   -5.7602 H   0  0  0  0  0  0  0  0  0  0  0  0
    1.5921    5.4031   -5.0187 H   0  0  0  0  0  0  0  0  0  0  0  0
  1  3  1  0  0  0  0
  1  7  1  0  0  0  0
  1  2  2  0  0  0  0
 28 29  1  0  0  0  0
 29 37  1  0  0  0  0
 29 30  2  0  0  0  0
 18 19  1  0  0  0  0
 19 27  1  0  0  0  0
 19 20  2  0  0  0  0
  8  9  1  0  0  0  0
  9 17  1  0  0  0  0
  9 10  2  0  0  0  0
 28 31  1  0  0  0  0
 18 21  1  0  0  0  0
  8 11  1  0  0  0  0
 37 38  1  0  0  0  0
 27 28  1  0  0  0  0
 17 18  1  0  0  0  0
  7  8  1  0  0  0  0
  3  4  1  0  0  0  0
  3  5  1  0  0  0  0
  3  6  1  0  0  0  0
 31 34  1  0  0  0  0
 31 35  1  0  0  0  0
 31 36  1  0  0  0  0
 21 24  1  0  0  0  0
 21 25  1  0  0  0  0
 21 26  1  0  0  0  0
 11 14  1  0  0  0  0
 11 15  1  0  0  0  0
 11 16  1  0  0  0  0
 38 40  1  0  0  0  0
 38 41  1  0  0  0  0
 38 42  1  0  0  0  0
 28 33  1  0  0  0  0
 18 23  1  0  0  0  0
  8 13  1  0  0  0  0
 37 39  1  0  0  0  0
  7 12  1  0  0  0  0
 27 32  1  0  0  0  0
 17 22  1  0  0  0  0
M  END
$$$$

  -OEChem-05262214473D

 42 41  0     1  0  0  0  0  0999 V2000
   -5.7851   -0.9580    0.6237 C   0  0  0  0  0  0  0  0  0  0  0  0
   -6.2213    0.1296    0.2652 O   0  0  0  0  0  0  0  0  0  0  0  0
   -6.7088   -2.1270    0.7168 C   0  0  0  0  0  0  0  0  0  0  0  0
   -7.1713   -2.2193    1.7126 H   0  0  0  0  0  0  0  0  0  0  0  0
   -7.5511   -2.0547    0.0101 H   0  0  0  0  0  0  0  0  0  0  0  0
   -6.2485   -3.1083    0.5191 H   0  0  0  0  0  0  0  0  0  0  0  0
   -4.4733   -1.2411    0.9668 N   0  0  0  0  0  0  0  0  0  0  0  0
   -3.4203   -0.2603    0.9449 C   0  0  2  0  0  0  0  0  0  0  0  0
   -2.1242   -0.9699    0.5759 C   0  0  0  0  0  0  0  0  0  0  0  0
   -1.8694   -2.1225    0.9189 O   0  0  0  0  0  0  0  0  0  0  0  0
   -3.2916    0.4435    2.2868 C   0  0  0  0  0  0  0  0  0  0  0  0
   -4.2421   -2.1920    1.2489 H   0  0  0  0  0  0  0  0  0  0  0  0
   -3.6772    0.4622    0.1625 H   0  0  0  0  0  0  0  0  0  0  0  0
   -3.0345   -0.2644    3.0832 H   0  0  0  0  0  0  0  0  0  0  0  0
   -2.5093    1.2092    2.2599 H   0  0  0  0  0  0  0  0  0  0  0  0
   -4.2338    0.9283    2.5645 H   0  0  0  0  0  0  0  0  0  0  0  0
   -1.2626   -0.1515   -0.1463 N   0  0  0  0  0  0  0  0  0  0  0  0
    0.0431   -0.5785   -0.5755 C   0  0  2  0  0  0  0  0  0  0  0  0
    0.9443    0.6480   -0.6310 C   0  0  0  0  0  0  0  0  0  0  0  0
    1.3725    1.2118    0.3739 O   0  0  0  0  0  0  0  0  0  0  0  0
   -0.0178   -1.2699   -1.9286 C   0  0  0  0  0  0  0  0  0  0  0  0
   -1.5766    0.7776   -0.4197 H   0  0  0  0  0  0  0  0  0  0  0  0
    0.4155   -1.2718    0.1865 H   0  0  0  0  0  0  0  0  0  0  0  0
   -0.3887   -0.5907   -2.7050 H   0  0  0  0  0  0  0  0  0  0  0  0
    0.9719   -1.6194   -2.2406 H   0  0  0  0  0  0  0  0  0  0  0  0
   -0.6897   -2.1343   -1.8947 H   0  0  0  0  0  0  0  0  0  0  0  0
    1.1818    1.0687   -1.9350 N   0  0  0  0  0  0  0  0  0  0  0  0
    1.9697    2.2315   -2.2488 C   0  0  2  0  0  0  0  0  0  0  0  0
    1.4059    2.8527   -3.5199 C   0  0  0  0  0  0  0  0  0  0  0  0
    0.9192    2.1882   -4.4325 O   0  0  0  0  0  0  0  0  0  0  0  0
    3.4377    1.8747   -2.4231 C   0  0  0  0  0  0  0  0  0  0  0  0
    0.8177    0.5141   -2.7073 H   0  0  0  0  0  0  0  0  0  0  0  0
    1.8475    2.9309   -1.4146 H   0  0  0  0  0  0  0  0  0  0  0  0
    3.5799    1.1747   -3.2545 H   0  0  0  0  0  0  0  0  0  0  0  0
    4.0401    2.7646   -2.6336 H   0  0  0  0  0  0  0  0  0  0  0  0
    3.8337    1.4010   -1.5184 H   0  0  0  0  0  0  0  0  0  0  0  0
    1.5491    4.2330   -3.5343 N   0  0  0  0  0  0  0  0  0  0  0  0
    1.1307    5.0487   -4.6503 C   0  0  0  0  0  0  0  0  0  0  0  0
    1.9271    4.7047   -2.7179 H   0  0  0  0  0  0  0  0  0  0  0  0
    1.9771    5.1920   -5.3381 H   0  0  0  0  0  0  0  0  0  0  0  0
    0.3074    4.5487   -5.1814 H   0  0  0  0  0  0  0  0  0  0  0  0
    0.7886    6.0269   -4.2814 H   0  0  0  0  0  0  0  0  0  0  0  0
  1  3  1  0  0  0  0
  1  7  1  0  0  0  0
  1  2  2  0  0  0  0
 28 29  1  0  0  0  0
 29 37  1  0  0  0  0
 29 30  2  0  0  0  0
 18 19  1  0  0  0  0
 19 27  1  0  0  0  0
 19 20  2  0  0  0  0
  8  9  1  0  0  0  0
  9 17  1  0  0  0  0
  9 10  2  0  0  0  0
 28 31  1  0  0  0  0
 18 21  1  0  0  0  0
  8 11  1  0  0  0  0
 37 38  1  0  0  0  0
 27 28  1  0  0  0  0
 17 18  1  0  0  0  0
  7  8  1  0  0  0  0
  3  4  1  0  0  0  0
  3  5  1  0  0  0  0
  3  6  1  0  0  0  0
 31 34  1  0  0  0  0
 31 35  1  0  0  0  0
 31 36  1  0  0  0  0
 21 24  1  0  0  0  0
 21 25  1  0  0  0  0
 21 26  1  0  0  0  0
 11 14  1  0  0  0  0
 11 15  1  0  0  0  0
 11 16  1  0  0  0  0
 38 40  1  0  0  0  0
 38 41  1  0  0  0  0
 38 42  1  0  0  0  0
 28 33  1  0  0  0  0
 18 23  1  0  0  0  0
  8 13  1  0  0  0  0
 37 39  1  0  0  0  0
  7 12  1  0  0  0  0
 27 32  1  0  0  0  0
 17 22  1  0  0  0  0
M  END
$$$$

  -OEChem-05262214473D

 42 41  0     1  0  0  0  0  0999 V2000
   -5.7851   -0.9580    0.6237 C   0  0  0  0  0  0  0  0  0  0  0  0
   -6.2213    0.1296    0.2652 O   0  0  0  0  0  0  0  0  0  0  0  0
   -6.7088   -2.1270    0.7168 C   0  0  0  0  0  0  0  0  0  0  0  0
   -7.1713   -2.2193    1.7126 H   0  0  0  0  0  0  0  0  0  0  0  0
   -7.5511   -2.0547    0.0101 H   0  0  0  0  0  0  0  0  0  0  0  0
   -6.2485   -3.1083    0.5191 H   0  0  0  0  0  0  0  0  0  0  0  0
   -4.4733   -1.2411    0.9668 N   0  0  0  0  0  0  0  0  0  0  0  0
   -3.4203   -0.2603    0.9449 C   0  0  2  0  0  0  0  0  0  0  0  0
   -2.1242   -0.9699    0.5759 C   0  0  0  0  0  0  0  0  0  0  0  0
   -1.8694   -2.1225    0.9189 O   0  0  0  0  0  0  0  0  0  0  0  0
   -3.2916    0.4435    2.2868 C   0  0  0  0  0  0  0  0  0  0  0  0
   -4.2421   -2.1920    1.2489 H   0  0  0  0  0  0  0  0  0  0  0  0
   -3.6772    0.4622    0.1625 H   0  0  0  0  0  0  0  0  0  0  0  0
   -3.0345   -0.2644    3.0832 H   0  0  0  0  0  0  0  0  0  0  0  0
   -2.5093    1.2092    2.2599 H   0  0  0  0  0  0  0  0  0  0  0  0
   -4.2338    0.9283    2.5645 H   0  0  0  0  0  0  0  0  0  0  0  0
   -1.2626   -0.1515   -0.1463 N   0  0  0  0  0  0  0  0  0  0  0  0
    0.0431   -0.5785   -0.5755 C   0  0  2  0  0  0  0  0  0  0  0  0
    0.9443    0.6480   -0.6310 C   0  0  0  0  0  0  0  0  0  0  0  0
    1.5862    1.0530    0.3359 O   0  0  0  0  0  0  0  0  0  0  0  0
   -0.0178   -1.2699   -1.9286 C   0  0  0  0  0  0  0  0  0  0  0  0
   -1.5766    0.7776   -0.4197 H   0  0  0  0  0  0  0  0  0  0  0  0
    0.4155   -1.2718    0.1865 H   0  0  0  0  0  0  0  0  0  0  0  0
   -0.3887   -0.5907   -2.7050 H   0  0  0  0  0  0  0  0  0  0  0  0
    0.9719   -1.6194   -2.2406 H   0  0  0  0  0  0  0  0  0  0  0  0
   -0.6897   -2.1343   -1.8947 H   0  0  0  0  0  0  0  0  0  0  0  0
    0.9165    1.2663   -1.8763 N   0  0  0  0  0  0  0  0  0  0  0  0
    1.6517    2.4689   -2.1673 C   0  0  2  0  0  0  0  0  0  0  0  0
    0.8522    3.2747   -3.1827 C   0  0  0  0  0  0  0  0  0  0  0  0
    0.1698    2.7556   -4.0635 O   0  0  0  0  0  0  0  0  0  0  0  0
    3.0418    2.1532   -2.6970 C   0  0  0  0  0  0  0  0  0  0  0  0
    0.3858    0.8350   -2.6305 H   0  0  0  0  0  0  0  0  0  0  0  0
    1.7234    3.0305   -1.2295 H   0  0  0  0  0  0  0  0  0  0  0  0
    2.9902    1.5907   -3.6364 H   0  0  0  0  0  0  0  0  0  0  0  0
    3.6099    3.0690   -2.8909 H   0  0  0  0  0  0  0  0  0  0  0  0
    3.6048    1.5484   -1.9780 H   0  0  0  0  0  0  0  0  0  0  0  0
    1.0248    4.6418   -3.0165 N   0  0  0  0  0  0  0  0  0  0  0  0
    0.4048    5.6169   -3.8829 C   0  0  0  0  0  0  0  0  0  0  0  0
    1.5760    4.9845   -2.2352 H   0  0  0  0  0  0  0  0  0  0  0  0
    1.0933    5.8702   -4.7026 H   0  0  0  0  0  0  0  0  0  0  0  0
   -0.5235    5.1991   -4.2999 H   0  0  0  0  0  0  0  0  0  0  0  0
    0.1719    6.5242   -3.3062 H   0  0  0  0  0  0  0  0  0  0  0  0
  1  3  1  0  0  0  0
  1  7  1  0  0  0  0
  1  2  2  0  0  0  0
 28 29  1  0  0  0  0
 29 37  1  0  0  0  0
 29 30  2  0  0  0  0
 18 19  1  0  0  0  0
 19 27  1  0  0  0  0
 19 20  2  0  0  0  0
  8  9  1  0  0  0  0
  9 17  1  0  0  0  0
  9 10  2  0  0  0  0
 28 31  1  0  0  0  0
 18 21  1  0  0  0  0
  8 11  1  0  0  0  0
 37 38  1  0  0  0  0
 27 28  1  0  0  0  0
 17 18  1  0  0  0  0
  7  8  1  0  0  0  0
  3  4  1  0  0  0  0
  3  5  1  0  0  0  0
  3  6  1  0  0  0  0
 31 34  1  0  0  0  0
 31 35  1  0  0  0  0
 31 36  1  0  0  0  0
 21 24  1  0  0  0  0
 21 25  1  0  0  0  0
 21 26  1  0  0  0  0
 11 14  1  0  0  0  0
 11 15  1  0  0  0  0
 11 16  1  0  0  0  0
 38 40  1  0  0  0  0
 38 41  1  0  0  0  0
 38 42  1  0  0  0  0
 28 33  1  0  0  0  0
 18 23  1  0  0  0  0
  8 13  1  0  0  0  0
 37 39  1  0  0  0  0
  7 12  1  0  0  0  0
 27 32  1  0  0  0  0
 17 22  1  0  0  0  0
M  END
$$$$

  -OEChem-05262214473D

 42 41  0     1  0  0  0  0  0999 V2000
   -5.7851   -0.9580    0.6237 C   0  0  0  0  0  0  0  0  0  0  0  0
   -6.2213    0.1296    0.2652 O   0  0  0  0  0  0  0  0  0  0  0  0
   -6.7088   -2.1270    0.7168 C   0  0  0  0  0  0  0  0  0  0  0  0
   -7.1713   -2.2193    1.7126 H   0  0  0  0  0  0  0  0  0  0  0  0
   -7.5511   -2.0547    0.0101 H   0  0  0  0  0  0  0  0  0  0  0  0
   -6.2485   -3.1083    0.5191 H   0  0  0  0  0  0  0  0  0  0  0  0
   -4.4733   -1.2411    0.9668 N   0  0  0  0  0  0  0  0  0  0  0  0
   -3.4203   -0.2603    0.9449 C   0  0  2  0  0  0  0  0  0  0  0  0
   -2.1242   -0.9699    0.5759 C   0  0  0  0  0  0  0  0  0  0  0  0
   -1.8694   -2.1225    0.9189 O   0  0  0  0  0  0  0  0  0  0  0  0
   -3.2916    0.4435    2.2868 C   0  0  0  0  0  0  0  0  0  0  0  0
   -4.2421   -2.1920    1.2489 H   0  0  0  0  0  0  0  0  0  0  0  0
   -3.6772    0.4622    0.1625 H   0  0  0  0  0  0  0  0  0  0  0  0
   -3.0345   -0.2644    3.0832 H   0  0  0  0  0  0  0  0  0  0  0  0
   -2.5093    1.2092    2.2599 H   0  0  0  0  0  0  0  0  0  0  0  0
   -4.2338    0.9283    2.5645 H   0  0  0  0  0  0  0  0  0  0  0  0
   -1.2626   -0.1515   -0.1463 N   0  0  0  0  0  0  0  0  0  0  0  0
    0.0431   -0.5785   -0.5755 C   0  0  2  0  0  0  0  0  0  0  0  0
    0.9443    0.6480   -0.6310 C   0  0  0  0  0  0  0  0  0  0  0  0
    1.7833    0.9035    0.2304 O   0  0  0  0  0  0  0  0  0  0  0  0
   -0.0178   -1.2699   -1.9286 C   0  0  0  0  0  0  0  0  0  0  0  0
   -1.5766    0.7776   -0.4197 H   0  0  0  0  0  0  0  0  0  0  0  0
    0.4155   -1.2718    0.1865 H   0  0  0  0  0  0  0  0  0  0  0  0
   -0.3887   -0.5907   -2.7050 H   0  0  0  0  0  0  0  0  0  0  0  0
    0.9719   -1.6194   -2.2406 H   0  0  0  0  0  0  0  0  0  0  0  0
   -0.6897   -2.1343   -1.8947 H   0  0  0  0  0  0  0  0  0  0  0  0
    0.6744    1.4507   -1.7340 N   0  0  0  0  0  0  0  0  0  0  0  0
    1.3637    2.6888   -1.9859 C   0  0  2  0  0  0  0  0  0  0  0  0
    0.3917    3.6360   -2.6770 C   0  0  0  0  0  0  0  0  0  0  0  0
   -0.4719    3.2542   -3.4640 O   0  0  0  0  0  0  0  0  0  0  0  0
    2.6049    2.4679   -2.8364 C   0  0  0  0  0  0  0  0  0  0  0  0
   -0.0123    1.1371   -2.4172 H   0  0  0  0  0  0  0  0  0  0  0  0
    1.6430    3.0995   -1.0095 H   0  0  0  0  0  0  0  0  0  0  0  0
    2.3449    2.0566   -3.8186 H   0  0  0  0  0  0  0  0  0  0  0  0
    3.1437    3.4065   -3.0032 H   0  0  0  0  0  0  0  0  0  0  0  0
    3.2892    1.7634   -2.3516 H   0  0  0  0  0  0  0  0  0  0  0  0
    0.6301    4.9622   -2.3445 N   0  0  0  0  0  0  0  0  0  0  0  0
   -0.1311    6.0550   -2.9034 C   0  0  0  0  0  0  0  0  0  0  0  0
    1.3402    5.1841   -1.6530 H   0  0  0  0  0  0  0  0  0  0  0  0
    0.3784    6.4363   -3.8006 H   0  0  0  0  0  0  0  0  0  0  0  0
   -1.1361    5.7002   -3.1756 H   0  0  0  0  0  0  0  0  0  0  0  0
   -0.2158    6.8609   -2.1596 H   0  0  0  0  0  0  0  0  0  0  0  0
  1  3  1  0  0  0  0
  1  7  1  0  0  0  0
  1  2  2  0  0  0  0
 28 29  1  0  0  0  0
 29 37  1  0  0  0  0
 29 30  2  0  0  0  0
 18 19  1  0  0  0  0
 19 27  1  0  0  0  0
 19 20  2  0  0  0  0
  8  9  1  0  0  0  0
  9 17  1  0  0  0  0
  9 10  2  0  0  0  0
 28 31  1  0  0  0  0
 18 21  1  0  0  0  0
  8 11  1  0  0  0  0
 37 38  1  0  0  0  0
 27 28  1  0  0  0  0
 17 18  1  0  0  0  0
  7  8  1  0  0  0  0
  3  4  1  0  0  0  0
  3  5  1  0  0  0  0
  3  6  1  0  0  0  0
 31 34  1  0  0  0  0
 31 35  1  0  0  0  0
 31 36  1  0  0  0  0
 21 24  1  0  0  0  0
 21 25  1  0  0  0  0
 21 26  1  0  0  0  0
 11 14  1  0  0  0  0
 11 15  1  0  0  0  0
 11 16  1  0  0  0  0
 38 40  1  0  0  0  0
 38 41  1  0  0  0  0
 38 42  1  0  0  0  0
 28 33  1  0  0  0  0
 18 23  1  0  0  0  0
  8 13  1  0  0  0  0
 37 39  1  0  0  0  0
  7 12  1  0  0  0  0
 27 32  1  0  0  0  0
 17 22  1  0  0  0  0
M  END
$$$$

  -OEChem-05262214473D

 42 41  0     1  0  0  0  0  0999 V2000
   -5.7851   -0.9580    0.6237 C   0  0  0  0  0  0  0  0  0  0  0  0
   -6.2213    0.1296    0.2652 O   0  0  0  0  0  0  0  0  0  0  0  0
   -6.7088   -2.1270    0.7168 C   0  0  0  0  0  0  0  0  0  0  0  0
   -7.1713   -2.2193    1.7126 H   0  0  0  0  0  0  0  0  0  0  0  0
   -7.5511   -2.0547    0.0101 H   0  0  0  0  0  0  0  0  0  0  0  0
   -6.2485   -3.1083    0.5191 H   0  0  0  0  0  0  0  0  0  0  0  0
   -4.4733   -1.2411    0.9668 N   0  0  0  0  0  0  0  0  0  0  0  0
   -3.4203   -0.2603    0.9449 C   0  0  2  0  0  0  0  0  0  0  0  0
   -2.1242   -0.9699    0.5759 C   0  0  0  0  0  0  0  0  0  0  0  0
   -1.8694   -2.1225    0.9189 O   0  0  0  0  0  0  0  0  0  0  0  0
   -3.2916    0.4435    2.2868 C   0  0  0  0  0  0  0  0  0  0  0  0
   -4.2421   -2.1920    1.2489 H   0  0  0  0  0  0  0  0  0  0  0  0
   -3.6772    0.4622    0.1625 H   0  0  0  0  0  0  0  0  0  0  0  0
   -3.0345   -0.2644    3.0832 H   0  0  0  0  0  0  0  0  0  0  0  0
   -2.5093    1.2092    2.2599 H   0  0  0  0  0  0  0  0  0  0  0  0
   -4.2338    0.9283    2.5645 H   0  0  0  0  0  0  0  0  0  0  0  0
   -1.2626   -0.1515   -0.1463 N   0  0  0  0  0  0  0  0  0  0  0  0
    0.0431   -0.5785   -0.5755 C   0  0  2  0  0  0  0  0  0  0  0  0
    0.9443    0.6480   -0.6310 C   0  0  0  0  0  0  0  0  0  0  0  0
    1.9501    0.7734    0.0644 O   0  0  0  0  0  0  0  0  0  0  0  0
   -0.0178   -1.2699   -1.9286 C   0  0  0  0  0  0  0  0  0  0  0  0
   -1.5766    0.7776   -0.4197 H   0  0  0  0  0  0  0  0  0  0  0  0
    0.4155   -1.2718    0.1865 H   0  0  0  0  0  0  0  0  0  0  0  0
   -0.3887   -0.5907   -2.7050 H   0  0  0  0  0  0  0  0  0  0  0  0
    0.9719   -1.6194   -2.2406 H   0  0  0  0  0  0  0  0  0  0  0  0
   -0.6897   -2.1343   -1.8947 H   0  0  0  0  0  0  0  0  0  0  0  0
    0.4719    1.6093   -1.5179 N   0  0  0  0  0  0  0  0  0  0  0  0
    1.1254    2.8760   -1.7170 C   0  0  2  0  0  0  0  0  0  0  0  0
    0.0557    3.9118   -2.0371 C   0  0  0  0  0  0  0  0  0  0  0  0
   -0.9620    3.6500   -2.6749 O   0  0  0  0  0  0  0  0  0  0  0  0
    2.1568    2.7974   -2.8318 C   0  0  0  0  0  0  0  0  0  0  0  0
   -0.3495    1.4001   -2.0819 H   0  0  0  0  0  0  0  0  0  0  0  0
    1.6118    3.1333   -0.7698 H   0  0  0  0  0  0  0  0  0  0  0  0
    1.6880    2.5407   -3.7888 H   0  0  0  0  0  0  0  0  0  0  0  0
    2.6731    3.7541   -2.9628 H   0  0  0  0  0  0  0  0  0  0  0  0
    2.9086    2.0312   -2.6138 H   0  0  0  0  0  0  0  0  0  0  0  0
    0.3919    5.1725   -1.5641 N   0  0  0  0  0  0  0  0  0  0  0  0
   -0.4405    6.3332   -1.7785 C   0  0  0  0  0  0  0  0  0  0  0  0
    1.2356    5.2900   -1.0108 H   0  0  0  0  0  0  0  0  0  0  0  0
   -0.1188    6.8518   -2.6937 H   0  0  0  0  0  0  0  0  0  0  0  0
   -1.4889    6.0178   -1.8851 H   0  0  0  0  0  0  0  0  0  0  0  0
   -0.3481    7.0142   -0.9196 H   0  0  0  0  0  0  0  0  0  0  0  0
  1  3  1  0  0  0  0
  1  7  1  0  0  0  0
  1  2  2  0  0  0  0
 28 29  1  0  0  0  0
 29 37  1  0  0  0  0
 29 30  2  0  0  0  0
 18 19  1  0  0  0  0
 19 27  1  0  0  0  0
 19 20  2  0  0  0  0
  8  9  1  0  0  0  0
  9 17  1  0  0  0  0
  9 10  2  0  0  0  0
 28 31  1  0  0  0  0
 18 21  1  0  0  0  0
  8 11  1  0  0  0  0
 37 38  1  0  0  0  0
 27 28  1  0  0  0  0
 17 18  1  0  0  0  0
  7  8  1  0  0  0  0
  3  4  1  0  0  0  0
  3  5  1  0  0  0  0
  3  6  1  0  0  0  0
 31 34  1  0  0  0  0
 31 35  1  0  0  0  0
 31 36  1  0  0  0  0
 21 24  1  0  0  0  0
 21 25  1  0  0  0  0
 21 26  1  0  0  0  0
 11 14  1  0  0  0  0
 11 15  1  0  0  0  0
 11 16  1  0  0  0  0
 38 40  1  0  0  0  0
 38 41  1  0  0  0  0
 38 42  1  0  0  0  0
 28 33  1  0  0  0  0
 18 23  1  0  0  0  0
  8 13  1  0  0  0  0
 37 39  1  0  0  0  0
  7 12  1  0  0  0  0
 27 32  1  0  0  0  0
 17 22  1  0  0  0  0
M  END
$$$$

  -OEChem-05262214473D

 42 41  0     1  0  0  0  0  0999 V2000
   -5.7851   -0.9580    0.6237 C   0  0  0  0  0  0  0  0  0  0  0  0
   -6.2213    0.1296    0.2652 O   0  0  0  0  0  0  0  0  0  0  0  0
   -6.7088   -2.1270    0.7168 C   0  0  0  0  0  0  0  0  0  0  0  0
   -7.1713   -2.2193    1.7126 H   0  0  0  0  0  0  0  0  0  0  0  0
   -7.5511   -2.0547    0.0101 H   0  0  0  0  0  0  0  0  0  0  0  0
   -6.2485   -3.1083    0.5191 H   0  0  0  0  0  0  0  0  0  0  0  0
   -4.4733   -1.2411    0.9668 N   0  0  0  0  0  0  0  0  0  0  0  0
   -3.4203   -0.2603    0.9449 C   0  0  2  0  0  0  0  0  0  0  0  0
   -2.1242   -0.9699    0.5759 C   0  0  0  0  0  0  0  0  0  0  0  0
   -1.8694   -2.1225    0.9189 O   0  0  0  0  0  0  0  0  0  0  0  0
   -3.2916    0.4435    2.2868 C   0  0  0  0  0  0  0  0  0  0  0  0
   -4.2421   -2.1920    1.2489 H   0  0  0  0  0  0  0  0  0  0  0  0
   -3.6772    0.4622    0.1625 H   0  0  0  0  0  0  0  0  0  0  0  0
   -3.0345   -0.2644    3.0832 H   0  0  0  0  0  0  0  0  0  0  0  0
   -2.5093    1.2092    2.2599 H   0  0  0  0  0  0  0  0  0  0  0  0
   -4.2338    0.9283    2.5645 H   0  0  0  0  0  0  0  0  0  0  0  0
   -1.2626   -0.1515   -0.1463 N   0  0  0  0  0  0  0  0  0  0  0  0
    0.0431   -0.5785   -0.5755 C   0  0  2  0  0  0  0  0  0  0  0  0
    0.9443    0.6480   -0.6310 C   0  0  0  0  0  0  0  0  0  0  0  0
    2.0755    0.6715   -0.1505 O   0  0  0  0  0  0  0  0  0  0  0  0
   -0.0178   -1.2699   -1.9286 C   0  0  0  0  0  0  0  0  0  0  0  0
   -1.5766    0.7776   -0.4197 H   0  0  0  0  0  0  0  0  0  0  0  0
    0.4155   -1.2718    0.1865 H   0  0  0  0  0  0  0  0  0  0  0  0
   -0.3887   -0.5907   -2.7050 H   0  0  0  0  0  0  0  0  0  0  0  0
    0.9719   -1.6194   -2.2406 H   0  0  0  0  0  0  0  0  0  0  0  0
   -0.6897   -2.1343   -1.8947 H   0  0  0  0  0  0  0  0  0  0  0  0
    0.3228    1.7313   -1.2427 N   0  0  0  0  0  0  0  0  0  0  0  0
    0.9530    3.0180   -1.3789 C   0  0  2  0  0  0  0  0  0  0  0  0
   -0.1329    4.0835   -1.3068 C   0  0  0  0  0  0  0  0  0  0  0  0
   -1.2672    3.9162   -1.7498 O   0  0  0  0  0  0  0  0  0  0  0  0
    1.7280    3.1192   -2.6835 C   0  0  0  0  0  0  0  0  0  0  0  0
   -0.6029    1.6060   -1.6475 H   0  0  0  0  0  0  0  0  0  0  0  0
    1.6320    3.1294   -0.5266 H   0  0  0  0  0  0  0  0  0  0  0  0
    1.0643    3.0098   -3.5489 H   0  0  0  0  0  0  0  0  0  0  0  0
    2.2302    4.0881   -2.7725 H   0  0  0  0  0  0  0  0  0  0  0  0
    2.4888    2.3336   -2.7468 H   0  0  0  0  0  0  0  0  0  0  0  0
    0.3265    5.2584   -0.7284 N   0  0  0  0  0  0  0  0  0  0  0  0
   -0.5022    6.4326   -0.5848 C   0  0  0  0  0  0  0  0  0  0  0  0
    1.2694    5.2950   -0.3525 H   0  0  0  0  0  0  0  0  0  0  0  0
   -0.3644    7.0882   -1.4572 H   0  0  0  0  0  0  0  0  0  0  0  0
   -1.5576    6.1302   -0.5165 H   0  0  0  0  0  0  0  0  0  0  0  0
   -0.2160    6.9737    0.3292 H   0  0  0  0  0  0  0  0  0  0  0  0
  1  3  1  0  0  0  0
  1  7  1  0  0  0  0
  1  2  2  0  0  0  0
 28 29  1  0  0  0  0
 29 37  1  0  0  0  0
 29 30  2  0  0  0  0
 18 19  1  0  0  0  0
 19 27  1  0  0  0  0
 19 20  2  0  0  0  0
  8  9  1  0  0  0  0
  9 17  1  0  0  0  0
  9 10  2  0  0  0  0
 28 31  1  0  0  0  0
 18 21  1  0  0  0  0
  8 11  1  0  0  0  0
 37 38  1  0  0  0  0
 27 28  1  0  0  0  0
 17 18  1  0  0  0  0
  7  8  1  0  0  0  0
  3  4  1  0  0  0  0
  3  5  1  0  0  0  0
  3  6  1  0  0  0  0
 31 34  1  0  0  0  0
 31 35  1  0  0  0  0
 31 36  1  0  0  0  0
 21 24  1  0  0  0  0
 21 25  1  0  0  0  0
 21 26  1  0  0  0  0
 11 14  1  0  0  0  0
 11 15  1  0  0  0  0
 11 16  1  0  0  0  0
 38 40  1  0  0  0  0
 38 41  1  0  0  0  0
 38 42  1  0  0  0  0
 28 33  1  0  0  0  0
 18 23  1  0  0  0  0
  8 13  1  0  0  0  0
 37 39  1  0  0  0  0
  7 12  1  0  0  0  0
 27 32  1  0  0  0  0
 17 22  1  0  0  0  0
M  END
$$$$

  -OEChem-05262214473D

 42 41  0     1  0  0  0  0  0999 V2000
   -5.7851   -0.9580    0.6237 C   0  0  0  0  0  0  0  0  0  0  0  0
   -6.2213    0.1296    0.2652 O   0  0  0  0  0  0  0  0  0  0  0  0
   -6.7088   -2.1270    0.7168 C   0  0  0  0  0  0  0  0  0  0  0  0
   -7.1713   -2.2193    1.7126 H   0  0  0  0  0  0  0  0  0  0  0  0
   -7.5511   -2.0547    0.0101 H   0  0  0  0  0  0  0  0  0  0  0  0
   -6.2485   -3.1083    0.5191 H   0  0  0  0  0  0  0  0  0  0  0  0
   -4.4733   -1.2411    0.9668 N   0  0  0  0  0  0  0  0  0  0  0  0
   -3.4203   -0.2603    0.9449 C   0  0  2  0  0  0  0  0  0  0  0  0
   -2.1242   -0.9699    0.5759 C   0  0  0  0  0  0  0  0  0  0  0  0
   -1.8694   -2.1225    0.9189 O   0  0  0  0  0  0  0  0  0  0  0  0
   -3.2916    0.4435    2.2868 C   0  0  0  0  0  0  0  0  0  0  0  0
   -4.2421   -2.1920    1.2489 H   0  0  0  0  0  0  0  0  0  0  0  0
   -3.6772    0.4622    0.1625 H   0  0  0  0  0  0  0  0  0  0  0  0
   -3.0345   -0.2644    3.0832 H   0  0  0  0  0  0  0  0  0  0  0  0
   -2.5093    1.2092    2.2599 H   0  0  0  0  0  0  0  0  0  0  0  0
   -4.2338    0.9283    2.5645 H   0  0  0  0  0  0  0  0  0  0  0  0
   -1.2626   -0.1515   -0.1463 N   0  0  0  0  0  0  0  0  0  0  0  0
    0.0431   -0.5785   -0.5755 C   0  0  2  0  0  0  0  0  0  0  0  0
    0.9443    0.6480   -0.6310 C   0  0  0  0  0  0  0  0  0  0  0  0
    2.1509    0.6048   -0.3999 O   0  0  0  0  0  0  0  0  0  0  0  0
   -0.0178   -1.2699   -1.9286 C   0  0  0  0  0  0  0  0  0  0  0  0
   -1.5766    0.7776   -0.4197 H   0  0  0  0  0  0  0  0  0  0  0  0
    0.4155   -1.2718    0.1865 H   0  0  0  0  0  0  0  0  0  0  0  0
   -0.3887   -0.5907   -2.7050 H   0  0  0  0  0  0  0  0  0  0  0  0
    0.9719   -1.6194   -2.2406 H   0  0  0  0  0  0  0  0  0  0  0  0
   -0.6897   -2.1343   -1.8947 H   0  0  0  0  0  0  0  0  0  0  0  0
    0.2373    1.8083   -0.9270 N   0  0  0  0  0  0  0  0  0  0  0  0
    0.8583    3.1050   -0.9947 C   0  0  2  0  0  0  0  0  0  0  0  0
   -0.1612    4.1392   -0.5358 C   0  0  0  0  0  0  0  0  0  0  0  0
   -1.3668    4.0345   -0.7519 O   0  0  0  0  0  0  0  0  0  0  0  0
    1.3478    3.4113   -2.4015 C   0  0  0  0  0  0  0  0  0  0  0  0
   -0.7552    1.7407   -1.1435 H   0  0  0  0  0  0  0  0  0  0  0  0
    1.7022    3.0883   -0.2964 H   0  0  0  0  0  0  0  0  0  0  0  0
    0.5162    3.4322   -3.1153 H   0  0  0  0  0  0  0  0  0  0  0  0
    1.8453    4.3858   -2.4451 H   0  0  0  0  0  0  0  0  0  0  0  0
    2.0584    2.6501   -2.7413 H   0  0  0  0  0  0  0  0  0  0  0  0
    0.4383    5.2140    0.1057 N   0  0  0  0  0  0  0  0  0  0  0  0
   -0.3121    6.3463    0.5964 C   0  0  0  0  0  0  0  0  0  0  0  0
    1.4394    5.1986    0.2770 H   0  0  0  0  0  0  0  0  0  0  0  0
   -0.3417    7.1295   -0.1755 H   0  0  0  0  0  0  0  0  0  0  0  0
   -1.3377    6.0299    0.8370 H   0  0  0  0  0  0  0  0  0  0  0  0
    0.1715    6.7420    1.5017 H   0  0  0  0  0  0  0  0  0  0  0  0
  1  3  1  0  0  0  0
  1  7  1  0  0  0  0
  1  2  2  0  0  0  0
 28 29  1  0  0  0  0
 29 37  1  0  0  0  0
 29 30  2  0  0  0  0
 18 19  1  0  0  0  0
 19 27  1  0  0  0  0
 19 20  2  0  0  0  0
  8  9  1  0  0  0  0
  9 17  1  0  0  0  0
  9 10  2  0  0  0  0
 28 31  1  0  0  0  0
 18 21  1  0  0  0  0
  8 11  1  0  0  0  0
 37 38  1  0  0  0  0
 27 28  1  0  0  0  0
 17 18  1  0  0  0  0
  7  8  1  0  0  0  0
  3  4  1  0  0  0  0
  3  5  1  0  0  0  0
  3  6  1  0  0  0  0
 31 34  1  0  0  0  0
 31 35  1  0  0  0  0
 31 36  1  0  0  0  0
 21 24  1  0  0  0  0
 21 25  1  0  0  0  0
 21 26  1  0  0  0  0
 11 14  1  0  0  0  0
 11 15  1  0  0  0  0
 11 16  1  0  0  0  0
 38 40  1  0  0  0  0
 38 41  1  0  0  0  0
 38 42  1  0  0  0  0
 28 33  1  0  0  0  0
 18 23  1  0  0  0  0
  8 13  1  0  0  0  0
 37 39  1  0  0  0  0
  7 12  1  0  0  0  0
 27 32  1  0  0  0  0
 17 22  1  0  0  0  0
M  END
$$$$

  -OEChem-05262214473D

 42 41  0     1  0  0  0  0  0999 V2000
   -5.7851   -0.9580    0.6237 C   0  0  0  0  0  0  0  0  0  0  0  0
   -6.2213    0.1296    0.2652 O   0  0  0  0  0  0  0  0  0  0  0  0
   -6.7088   -2.1270    0.7168 C   0  0  0  0  0  0  0  0  0  0  0  0
   -7.1713   -2.2193    1.7126 H   0  0  0  0  0  0  0  0  0  0  0  0
   -7.5511   -2.0547    0.0101 H   0  0  0  0  0  0  0  0  0  0  0  0
   -6.2485   -3.1083    0.5191 H   0  0  0  0  0  0  0  0  0  0  0  0
   -4.4733   -1.2411    0.9668 N   0  0  0  0  0  0  0  0  0  0  0  0
   -3.4203   -0.2603    0.9449 C   0  0  2  0  0  0  0  0  0  0  0  0
   -2.1242   -0.9699    0.5759 C   0  0  0  0  0  0  0  0  0  0  0  0
   -1.8694   -2.1225    0.9189 O   0  0  0  0  0  0  0  0  0  0  0  0
   -3.2916    0.4435    2.2868 C   0  0  0  0  0  0  0  0  0  0  0  0
   -4.2421   -2.1920    1.2489 H   0  0  0  0  0  0  0  0  0  0  0  0
   -3.6772    0.4622    0.1625 H   0  0  0  0  0  0  0  0  0  0  0  0
   -3.0345   -0.2644    3.0832 H   0  0  0  0  0  0  0  0  0  0  0  0
   -2.5093    1.2092    2.2599 H   0  0  0  0  0  0  0  0  0  0  0  0
   -4.2338    0.9283    2.5645 H   0  0  0  0  0  0  0  0  0  0  0  0
   -1.2626   -0.1515   -0.1463 N   0  0  0  0  0  0  0  0  0  0  0  0
    0.0431   -0.5785   -0.5755 C   0  0  2  0  0  0  0  0  0  0  0  0
    0.9443    0.6480   -0.6310 C   0  0  0  0  0  0  0  0  0  0  0  0
    2.1711    0.5780   -0.6667 O   0  0  0  0  0  0  0  0  0  0  0  0
   -0.0178   -1.2699   -1.9286 C   0  0  0  0  0  0  0  0  0  0  0  0
   -1.5766    0.7776   -0.4197 H   0  0  0  0  0  0  0  0  0  0  0  0
    0.4155   -1.2718    0.1865 H   0  0  0  0  0  0  0  0  0  0  0  0
   -0.3887   -0.5907   -2.7050 H   0  0  0  0  0  0  0  0  0  0  0  0
    0.9719   -1.6194   -2.2406 H   0  0  0  0  0  0  0  0  0  0  0  0
   -0.6897   -2.1343   -1.8947 H   0  0  0  0  0  0  0  0  0  0  0  0
    0.2213    1.8353   -0.5925 N   0  0  0  0  0  0  0  0  0  0  0  0
    0.8477    3.1310   -0.5905 C   0  0  2  0  0  0  0  0  0  0  0  0
   -0.0273    4.0751    0.2234 C   0  0  0  0  0  0  0  0  0  0  0  0
   -1.2538    3.9968    0.2508 O   0  0  0  0  0  0  0  0  0  0  0  0
    1.0421    3.6539   -2.0053 C   0  0  0  0  0  0  0  0  0  0  0  0
   -0.7960    1.7950   -0.6044 H   0  0  0  0  0  0  0  0  0  0  0  0
    1.8175    3.0127   -0.0950 H   0  0  0  0  0  0  0  0  0  0  0  0
    0.0812    3.7789   -2.5176 H   0  0  0  0  0  0  0  0  0  0  0  0
    1.5445    4.6268   -2.0032 H   0  0  0  0  0  0  0  0  0  0  0  0
    1.6468    2.9590   -2.5979 H   0  0  0  0  0  0  0  0  0  0  0  0
    0.7197    5.0423    0.8812 N   0  0  0  0  0  0  0  0  0  0  0  0
    0.1169    6.0803    1.6844 C   0  0  0  0  0  0  0  0  0  0  0  0
    1.7338    5.0075    0.8350 H   0  0  0  0  0  0  0  0  0  0  0  0
   -0.0522    6.9729    1.0642 H   0  0  0  0  0  0  0  0  0  0  0  0
   -0.8441    5.7236    2.0833 H   0  0  0  0  0  0  0  0  0  0  0  0
    0.7880    6.3350    2.5179 H   0  0  0  0  0  0  0  0  0  0  0  0
  1  3  1  0  0  0  0
  1  7  1  0  0  0  0
  1  2  2  0  0  0  0
 28 29  1  0  0  0  0
 29 37  1  0  0  0  0
 29 30  2  0  0  0  0
 18 19  1  0  0  0  0
 19 27  1  0  0  0  0
 19 20  2  0  0  0  0
  8  9  1  0  0  0  0
  9 17  1  0  0  0  0
  9 10  2  0  0  0  0
 28 31  1  0  0  0  0
 18 21  1  0  0  0  0
  8 11  1  0  0  0  0
 37 38  1  0  0  0  0
 27 28  1  0  0  0  0
 17 18  1  0  0  0  0
  7  8  1  0  0  0  0
  3  4  1  0  0  0  0
  3  5  1  0  0  0  0
  3  6  1  0  0  0  0
 31 34  1  0  0  0  0
 31 35  1  0  0  0  0
 31 36  1  0  0  0  0
 21 24  1  0  0  0  0
 21 25  1  0  0  0  0
 21 26  1  0  0  0  0
 11 14  1  0  0  0  0
 11 15  1  0  0  0  0
 11 16  1  0  0  0  0
 38 40  1  0  0  0  0
 38 41  1  0  0  0  0
 38 42  1  0  0  0  0
 28 33  1  0  0  0  0
 18 23  1  0  0  0  0
  8 13  1  0  0  0  0
 37 39  1  0  0  0  0
  7 12  1  0  0  0  0
 27 32  1  0  0  0  0
 17 22  1  0  0  0  0
M  END
$$$$

  -OEChem-05262214473D

 42 41  0     1  0  0  0  0  0999 V2000
   -5.7851   -0.9580    0.6237 C   0  0  0  0  0  0  0  0  0  0  0  0
   -6.2213    0.1296    0.2652 O   0  0  0  0  0  0  0  0  0  0  0  0
   -6.7088   -2.1270    0.7168 C   0  0  0  0  0  0  0  0  0  0  0  0
   -7.1713   -2.2193    1.7126 H   0  0  0  0  0  0  0  0  0  0  0  0
   -7.5511   -2.0547    0.0101 H   0  0  0  0  0  0  0  0  0  0  0  0
   -6.2485   -3.1083    0.5191 H   0  0  0  0  0  0  0  0  0  0  0  0
   -4.4733   -1.2411    0.9668 N   0  0  0  0  0  0  0  0  0  0  0  0
   -3.4203   -0.2603    0.9449 C   0  0  2  0  0  0  0  0  0  0  0  0
   -2.1242   -0.9699    0.5759 C   0  0  0  0  0  0  0  0  0  0  0  0
   -1.8694   -2.1225    0.9189 O   0  0  0  0  0  0  0  0  0  0  0  0
   -3.2916    0.4435    2.2868 C   0  0  0  0  0  0  0  0  0  0  0  0
   -4.2421   -2.1920    1.2489 H   0  0  0  0  0  0  0  0  0  0  0  0
   -3.6772    0.4622    0.1625 H   0  0  0  0  0  0  0  0  0  0  0  0
   -3.0345   -0.2644    3.0832 H   0  0  0  0  0  0  0  0  0  0  0  0
   -2.5093    1.2092    2.2599 H   0  0  0  0  0  0  0  0  0  0  0  0
   -4.2338    0.9283    2.5645 H   0  0  0  0  0  0  0  0  0  0  0  0
   -1.2626   -0.1515   -0.1463 N   0  0  0  0  0  0  0  0  0  0  0  0
    0.0431   -0.5785   -0.5755 C   0  0  2  0  0  0  0  0  0  0  0  0
    0.9443    0.6480   -0.6310 C   0  0  0  0  0  0  0  0  0  0  0  0
    2.1347    0.5926   -0.9328 O   0  0  0  0  0  0  0  0  0  0  0  0
   -0.0178   -1.2699   -1.9286 C   0  0  0  0  0  0  0  0  0  0  0  0
   -1.5766    0.7776   -0.4197 H   0  0  0  0  0  0  0  0  0  0  0  0
    0.4155   -1.2718    0.1865 H   0  0  0  0  0  0  0  0  0  0  0  0
   -0.3887   -0.5907   -2.7050 H   0  0  0  0  0  0  0  0  0  0  0  0
    0.9719   -1.6194   -2.2406 H   0  0  0  0  0  0  0  0  0  0  0  0
   -0.6897   -2.1343   -1.8947 H   0  0  0  0  0  0  0  0  0  0  0  0
    0.2758    1.8102   -0.2620 N   0  0  0  0  0  0  0  0  0  0  0  0
    0.9220    3.0944   -0.1939 C   0  0  2  0  0  0  0  0  0  0  0  0
    0.2596    3.8958    0.9190 C   0  0  0  0  0  0  0  0  0  0  0  0
   -0.9360    3.8058    1.1901 O   0  0  0  0  0  0  0  0  0  0  0  0
    0.8317    3.8304   -1.5216 C   0  0  0  0  0  0  0  0  0  0  0  0
   -0.7224    1.7653   -0.0668 H   0  0  0  0  0  0  0  0  0  0  0  0
    1.9702    2.9076    0.0639 H   0  0  0  0  0  0  0  0  0  0  0  0
   -0.2112    4.0263   -1.7965 H   0  0  0  0  0  0  0  0  0  0  0  0
    1.3484    4.7947   -1.4766 H   0  0  0  0  0  0  0  0  0  0  0  0
    1.2821    3.2393   -2.3263 H   0  0  0  0  0  0  0  0  0  0  0  0
    1.1516    4.7551    1.5453 N   0  0  0  0  0  0  0  0  0  0  0  0
    0.7556    5.6527    2.6052 C   0  0  0  0  0  0  0  0  0  0  0  0
    2.1327    4.7347    1.2833 H   0  0  0  0  0  0  0  0  0  0  0  0
    0.4843    6.6291    2.1773 H   0  0  0  0  0  0  0  0  0  0  0  0
   -0.1105    5.2322    3.1372 H   0  0  0  0  0  0  0  0  0  0  0  0
    1.5915    5.7804    3.3088 H   0  0  0  0  0  0  0  0  0  0  0  0
  1  3  1  0  0  0  0
  1  7  1  0  0  0  0
  1  2  2  0  0  0  0
 28 29  1  0  0  0  0
 29 37  1  0  0  0  0
 29 30  2  0  0  0  0
 18 19  1  0  0  0  0
 19 27  1  0  0  0  0
 19 20  2  0  0  0  0
  8  9  1  0  0  0  0
  9 17  1  0  0  0  0
  9 10  2  0  0  0  0
 28 31  1  0  0  0  0
 18 21  1  0  0  0  0
  8 11  1  0  0  0  0
 37 38  1  0  0  0  0
 27 28  1  0  0  0  0
 17 18  1  0  0  0  0
  7  8  1  0  0  0  0
  3  4  1  0  0  0  0
  3  5  1  0  0  0  0
  3  6  1  0  0  0  0
 31 34  1  0  0  0  0
 31 35  1  0  0  0  0
 31 36  1  0  0  0  0
 21 24  1  0  0  0  0
 21 25  1  0  0  0  0
 21 26  1  0  0  0  0
 11 14  1  0  0  0  0
 11 15  1  0  0  0  0
 11 16  1  0  0  0  0
 38 40  1  0  0  0  0
 38 41  1  0  0  0  0
 38 42  1  0  0  0  0
 28 33  1  0  0  0  0
 18 23  1  0  0  0  0
  8 13  1  0  0  0  0
 37 39  1  0  0  0  0
  7 12  1  0  0  0  0
 27 32  1  0  0  0  0
 17 22  1  0  0  0  0
M  END
$$$$

  -OEChem-05262214473D

 42 41  0     1  0  0  0  0  0999 V2000
   -5.7851   -0.9580    0.6237 C   0  0  0  0  0  0  0  0  0  0  0  0
   -6.2213    0.1296    0.2652 O   0  0  0  0  0  0  0  0  0  0  0  0
   -6.7088   -2.1270    0.7168 C   0  0  0  0  0  0  0  0  0  0  0  0
   -7.1713   -2.2193    1.7126 H   0  0  0  0  0  0  0  0  0  0  0  0
   -7.5511   -2.0547    0.0101 H   0  0  0  0  0  0  0  0  0  0  0  0
   -6.2485   -3.1083    0.5191 H   0  0  0  0  0  0  0  0  0  0  0  0
   -4.4733   -1.2411    0.9668 N   0  0  0  0  0  0  0  0  0  0  0  0
   -3.4203   -0.2603    0.9449 C   0  0  2  0  0  0  0  0  0  0  0  0
   -2.1242   -0.9699    0.5759 C   0  0  0  0  0  0  0  0  0  0  0  0
   -1.8694   -2.1225    0.9189 O   0  0  0  0  0  0  0  0  0  0  0  0
   -3.2916    0.4435    2.2868 C   0  0  0  0  0  0  0  0  0  0  0  0
   -4.2421   -2.1920    1.2489 H   0  0  0  0  0  0  0  0  0  0  0  0
   -3.6772    0.4622    0.1625 H   0  0  0  0  0  0  0  0  0  0  0  0
   -3.0345   -0.2644    3.0832 H   0  0  0  0  0  0  0  0  0  0  0  0
   -2.5093    1.2092    2.2599 H   0  0  0  0  0  0  0  0  0  0  0  0
   -4.2338    0.9283    2.5645 H   0  0  0  0  0  0  0  0  0  0  0  0
   -1.2626   -0.1515   -0.1463 N   0  0  0  0  0  0  0  0  0  0  0  0
    0.0431   -0.5785   -0.5755 C   0  0  2  0  0  0  0  0  0  0  0  0
    0.9443    0.6480   -0.6310 C   0  0  0  0  0  0  0  0  0  0  0  0
    2.0442    0.6479   -1.1799 O   0  0  0  0  0  0  0  0  0  0  0  0
   -0.0178   -1.2699   -1.9286 C   0  0  0  0  0  0  0  0  0  0  0  0
   -1.5766    0.7776   -0.4197 H   0  0  0  0  0  0  0  0  0  0  0  0
    0.4155   -1.2718    0.1865 H   0  0  0  0  0  0  0  0  0  0  0  0
   -0.3887   -0.5907   -2.7050 H   0  0  0  0  0  0  0  0  0  0  0  0
    0.9719   -1.6194   -2.2406 H   0  0  0  0  0  0  0  0  0  0  0  0
   -0.6897   -2.1343   -1.8947 H   0  0  0  0  0  0  0  0  0  0  0  0
    0.3971    1.7348    0.0421 N   0  0  0  0  0  0  0  0  0  0  0  0
    1.0761    2.9975    0.1681 C   0  0  2  0  0  0  0  0  0  0  0  0
    0.6801    3.6133    1.5036 C   0  0  0  0  0  0  0  0  0  0  0  0
   -0.4350    3.4745    2.0019 O   0  0  0  0  0  0  0  0  0  0  0  0
    0.7309    3.9288   -0.9835 C   0  0  0  0  0  0  0  0  0  0  0  0
   -0.5397    1.6536    0.4327 H   0  0  0  0  0  0  0  0  0  0  0  0
    2.1498    2.7804    0.1695 H   0  0  0  0  0  0  0  0  0  0  0  0
   -0.3409    4.1577   -1.0012 H   0  0  0  0  0  0  0  0  0  0  0  0
    1.2703    4.8782   -0.9014 H   0  0  0  0  0  0  0  0  0  0  0  0
    0.9890    3.4719   -1.9450 H   0  0  0  0  0  0  0  0  0  0  0  0
    1.7044    4.3718    2.0528 N   0  0  0  0  0  0  0  0  0  0  0  0
    1.5604    5.0926    3.2960 C   0  0  0  0  0  0  0  0  0  0  0  0
    2.6089    4.3987    1.5913 H   0  0  0  0  0  0  0  0  0  0  0  0
    1.2313    6.1214    3.0880 H   0  0  0  0  0  0  0  0  0  0  0  0
    0.8132    4.5893    3.9271 H   0  0  0  0  0  0  0  0  0  0  0  0
    2.5272    5.1160    3.8202 H   0  0  0  0  0  0  0  0  0  0  0  0
  1  3  1  0  0  0  0
  1  7  1  0  0  0  0
  1  2  2  0  0  0  0
 28 29  1  0  0  0  0
 29 37  1  0  0  0  0
 29 30  2  0  0  0  0
 18 19  1  0  0  0  0
 19 27  1  0  0  0  0
 19 20  2  0  0  0  0
  8  9  1  0  0  0  0
  9 17  1  0  0  0  0
  9 10  2  0  0  0  0
 28 31  1  0  0  0  0
 18 21  1  0  0  0  0
  8 11  1  0  0  0  0
 37 38  1  0  0  0  0
 27 28  1  0  0  0  0
 17 18  1  0  0  0  0
  7  8  1  0  0  0  0
  3  4  1  0  0  0  0
  3  5  1  0  0  0  0
  3  6  1  0  0  0  0
 31 34  1  0  0  0  0
 31 35  1  0  0  0  0
 31 36  1  0  0  0  0
 21 24  1  0  0  0  0
 21 25  1  0  0  0  0
 21 26  1  0  0  0  0
 11 14  1  0  0  0  0
 11 15  1  0  0  0  0
 11 16  1  0  0  0  0
 38 40  1  0  0  0  0
 38 41  1  0  0  0  0
 38 42  1  0  0  0  0
 28 33  1  0  0  0  0
 18 23  1  0  0  0  0
  8 13  1  0  0  0  0
 37 39  1  0  0  0  0
  7 12  1  0  0  0  0
 27 32  1  0  0  0  0
 17 22  1  0  0  0  0
M  END
$$$$

  -OEChem-05262214473D

 42 41  0     1  0  0  0  0  0999 V2000
   -5.7851   -0.9580    0.6237 C   0  0  0  0  0  0  0  0  0  0  0  0
   -6.2213    0.1296    0.2652 O   0  0  0  0  0  0  0  0  0  0  0  0
   -6.7088   -2.1270    0.7168 C   0  0  0  0  0  0  0  0  0  0  0  0
   -7.1713   -2.2193    1.7126 H   0  0  0  0  0  0  0  0  0  0  0  0
   -7.5511   -2.0547    0.0101 H   0  0  0  0  0  0  0  0  0  0  0  0
   -6.2485   -3.1083    0.5191 H   0  0  0  0  0  0  0  0  0  0  0  0
   -4.4733   -1.2411    0.9668 N   0  0  0  0  0  0  0  0  0  0  0  0
   -3.4203   -0.2603    0.9449 C   0  0  2  0  0  0  0  0  0  0  0  0
   -2.1242   -0.9699    0.5759 C   0  0  0  0  0  0  0  0  0  0  0  0
   -1.8694   -2.1225    0.9189 O   0  0  0  0  0  0  0  0  0  0  0  0
   -3.2916    0.4435    2.2868 C   0  0  0  0  0  0  0  0  0  0  0  0
   -4.2421   -2.1920    1.2489 H   0  0  0  0  0  0  0  0  0  0  0  0
   -3.6772    0.4622    0.1625 H   0  0  0  0  0  0  0  0  0  0  0  0
   -3.0345   -0.2644    3.0832 H   0  0  0  0  0  0  0  0  0  0  0  0
   -2.5093    1.2092    2.2599 H   0  0  0  0  0  0  0  0  0  0  0  0
   -4.2338    0.9283    2.5645 H   0  0  0  0  0  0  0  0  0  0  0  0
   -1.2626   -0.1515   -0.1463 N   0  0  0  0  0  0  0  0  0  0  0  0
    0.0431   -0.5785   -0.5755 C   0  0  2  0  0  0  0  0  0  0  0  0
    0.9443    0.6480   -0.6310 C   0  0  0  0  0  0  0  0  0  0  0  0
    1.9059    0.7400   -1.3913 O   0  0  0  0  0  0  0  0  0  0  0  0
   -0.0178   -1.2699   -1.9286 C   0  0  0  0  0  0  0  0  0  0  0  0
   -1.5766    0.7776   -0.4197 H   0  0  0  0  0  0  0  0  0  0  0  0
    0.4155   -1.2718    0.1865 H   0  0  0  0  0  0  0  0  0  0  0  0
   -0.3887   -0.5907   -2.7050 H   0  0  0  0  0  0  0  0  0  0  0  0
    0.9719   -1.6194   -2.2406 H   0  0  0  0  0  0  0  0  0  0  0  0
   -0.6897   -2.1343   -1.8947 H   0  0  0  0  0  0  0  0  0  0  0  0
    0.5769    1.6143    0.2990 N   0  0  0  0  0  0  0  0  0  0  0  0
    1.2995    2.8471    0.4708 C   0  0  2  0  0  0  0  0  0  0  0  0
    1.2054    3.2469    1.9374 C   0  0  0  0  0  0  0  0  0  0  0  0
    0.2149    3.0254    2.6309 O   0  0  0  0  0  0  0  0  0  0  0  0
    0.7466    3.9424   -0.4277 C   0  0  0  0  0  0  0  0  0  0  0  0
   -0.2601    1.4675    0.8599 H   0  0  0  0  0  0  0  0  0  0  0  0
    2.3441    2.6397    0.2145 H   0  0  0  0  0  0  0  0  0  0  0  0
   -0.2993    4.1640   -0.1857 H   0  0  0  0  0  0  0  0  0  0  0  0
    1.3155    4.8714   -0.3168 H   0  0  0  0  0  0  0  0  0  0  0  0
    0.7876    3.6410   -1.4800 H   0  0  0  0  0  0  0  0  0  0  0  0
    2.3406    3.9187    2.3690 N   0  0  0  0  0  0  0  0  0  0  0  0
    2.4765    4.4382    3.7098 C   0  0  0  0  0  0  0  0  0  0  0  0
    3.1299    4.0225    1.7382 H   0  0  0  0  0  0  0  0  0  0  0  0
    2.1378    5.4845    3.7342 H   0  0  0  0  0  0  0  0  0  0  0  0
    1.8640    3.8385    4.3991 H   0  0  0  0  0  0  0  0  0  0  0  0
    3.5313    4.3871    4.0175 H   0  0  0  0  0  0  0  0  0  0  0  0
  1  3  1  0  0  0  0
  1  7  1  0  0  0  0
  1  2  2  0  0  0  0
 28 29  1  0  0  0  0
 29 37  1  0  0  0  0
 29 30  2  0  0  0  0
 18 19  1  0  0  0  0
 19 27  1  0  0  0  0
 19 20  2  0  0  0  0
  8  9  1  0  0  0  0
  9 17  1  0  0  0  0
  9 10  2  0  0  0  0
 28 31  1  0  0  0  0
 18 21  1  0  0  0  0
  8 11  1  0  0  0  0
 37 38  1  0  0  0  0
 27 28  1  0  0  0  0
 17 18  1  0  0  0  0
  7  8  1  0  0  0  0
  3  4  1  0  0  0  0
  3  5  1  0  0  0  0
  3  6  1  0  0  0  0
 31 34  1  0  0  0  0
 31 35  1  0  0  0  0
 31 36  1  0  0  0  0
 21 24  1  0  0  0  0
 21 25  1  0  0  0  0
 21 26  1  0  0  0  0
 11 14  1  0  0  0  0
 11 15  1  0  0  0  0
 11 16  1  0  0  0  0
 38 40  1  0  0  0  0
 38 41  1  0  0  0  0
 38 42  1  0  0  0  0
 28 33  1  0  0  0  0
 18 23  1  0  0  0  0
  8 13  1  0  0  0  0
 37 39  1  0  0  0  0
  7 12  1  0  0  0  0
 27 32  1  0  0  0  0
 17 22  1  0  0  0  0
M  END
$$$$

  -OEChem-05262214473D

 42 41  0     1  0  0  0  0  0999 V2000
   -5.7851   -0.9580    0.6237 C   0  0  0  0  0  0  0  0  0  0  0  0
   -6.2213    0.1296    0.2652 O   0  0  0  0  0  0  0  0  0  0  0  0
   -6.7088   -2.1270    0.7168 C   0  0  0  0  0  0  0  0  0  0  0  0
   -7.1713   -2.2193    1.7126 H   0  0  0  0  0  0  0  0  0  0  0  0
   -7.5511   -2.0547    0.0101 H   0  0  0  0  0  0  0  0  0  0  0  0
   -6.2485   -3.1083    0.5191 H   0  0  0  0  0  0  0  0  0  0  0  0
   -4.4733   -1.2411    0.9668 N   0  0  0  0  0  0  0  0  0  0  0  0
   -3.4203   -0.2603    0.9449 C   0  0  2  0  0  0  0  0  0  0  0  0
   -2.1242   -0.9699    0.5759 C   0  0  0  0  0  0  0  0  0  0  0  0
   -1.8694   -2.1225    0.9189 O   0  0  0  0  0  0  0  0  0  0  0  0
   -3.2916    0.4435    2.2868 C   0  0  0  0  0  0  0  0  0  0  0  0
   -4.2421   -2.1920    1.2489 H   0  0  0  0  0  0  0  0  0  0  0  0
   -3.6772    0.4622    0.1625 H   0  0  0  0  0  0  0  0  0  0  0  0
   -3.0345   -0.2644    3.0832 H   0  0  0  0  0  0  0  0  0  0  0  0
   -2.5093    1.2092    2.2599 H   0  0  0  0  0  0  0  0  0  0  0  0
   -4.2338    0.9283    2.5645 H   0  0  0  0  0  0  0  0  0  0  0  0
   -1.2626   -0.1515   -0.1463 N   0  0  0  0  0  0  0  0  0  0  0  0
    0.0431   -0.5785   -0.5755 C   0  0  2  0  0  0  0  0  0  0  0  0
    0.9443    0.6480   -0.6310 C   0  0  0  0  0  0  0  0  0  0  0  0
    1.7290    0.8627   -1.5525 O   0  0  0  0  0  0  0  0  0  0  0  0
   -0.0178   -1.2699   -1.9286 C   0  0  0  0  0  0  0  0  0  0  0  0
   -1.5766    0.7776   -0.4197 H   0  0  0  0  0  0  0  0  0  0  0  0
    0.4155   -1.2718    0.1865 H   0  0  0  0  0  0  0  0  0  0  0  0
   -0.3887   -0.5907   -2.7050 H   0  0  0  0  0  0  0  0  0  0  0  0
    0.9719   -1.6194   -2.2406 H   0  0  0  0  0  0  0  0  0  0  0  0
   -0.6897   -2.1343   -1.8947 H   0  0  0  0  0  0  0  0  0  0  0  0
    0.8030    1.4569    0.4913 N   0  0  0  0  0  0  0  0  0  0  0  0
    1.5769    2.6533    0.6936 C   0  0  2  0  0  0  0  0  0  0  0  0
    1.7998    2.8217    2.1908 C   0  0  0  0  0  0  0  0  0  0  0  0
    0.9696    2.4891    3.0341 O   0  0  0  0  0  0  0  0  0  0  0  0
    0.8778    3.8702    0.1080 C   0  0  0  0  0  0  0  0  0  0  0  0
    0.0973    1.2197    1.1857 H   0  0  0  0  0  0  0  0  0  0  0  0
    2.5399    2.4950    0.1960 H   0  0  0  0  0  0  0  0  0  0  0  0
   -0.0890    4.0447    0.5942 H   0  0  0  0  0  0  0  0  0  0  0  0
    1.4809    4.7749    0.2375 H   0  0  0  0  0  0  0  0  0  0  0  0
    0.6916    3.7349   -0.9629 H   0  0  0  0  0  0  0  0  0  0  0  0
    3.0167    3.4265    2.4725 N   0  0  0  0  0  0  0  0  0  0  0  0
    3.4414    3.7341    3.8183 C   0  0  0  0  0  0  0  0  0  0  0  0
    3.6602    3.6318    1.7139 H   0  0  0  0  0  0  0  0  0  0  0  0
    3.1422    4.7618    4.0719 H   0  0  0  0  0  0  0  0  0  0  0  0
    2.9702    3.0312    4.5210 H   0  0  0  0  0  0  0  0  0  0  0  0
    4.5355    3.6434    3.8871 H   0  0  0  0  0  0  0  0  0  0  0  0
  1  3  1  0  0  0  0
  1  7  1  0  0  0  0
  1  2  2  0  0  0  0
 28 29  1  0  0  0  0
 29 37  1  0  0  0  0
 29 30  2  0  0  0  0
 18 19  1  0  0  0  0
 19 27  1  0  0  0  0
 19 20  2  0  0  0  0
  8  9  1  0  0  0  0
  9 17  1  0  0  0  0
  9 10  2  0  0  0  0
 28 31  1  0  0  0  0
 18 21  1  0  0  0  0
  8 11  1  0  0  0  0
 37 38  1  0  0  0  0
 27 28  1  0  0  0  0
 17 18  1  0  0  0  0
  7  8  1  0  0  0  0
  3  4  1  0  0  0  0
  3  5  1  0  0  0  0
  3  6  1  0  0  0  0
 31 34  1  0  0  0  0
 31 35  1  0  0  0  0
 31 36  1  0  0  0  0
 21 24  1  0  0  0  0
 21 25  1  0  0  0  0
 21 26  1  0  0  0  0
 11 14  1  0  0  0  0
 11 15  1  0  0  0  0
 11 16  1  0  0  0  0
 38 40  1  0  0  0  0
 38 41  1  0  0  0  0
 38 42  1  0  0  0  0
 28 33  1  0  0  0  0
 18 23  1  0  0  0  0
  8 13  1  0  0  0  0
 37 39  1  0  0  0  0
  7 12  1  0  0  0  0
 27 32  1  0  0  0  0
 17 22  1  0  0  0  0
M  END
$$$$

  -OEChem-05262214473D

 42 41  0     1  0  0  0  0  0999 V2000
   -5.7851   -0.9580    0.6237 C   0  0  0  0  0  0  0  0  0  0  0  0
   -6.2213    0.1296    0.2652 O   0  0  0  0  0  0  0  0  0  0  0  0
   -6.7088   -2.1270    0.7168 C   0  0  0  0  0  0  0  0  0  0  0  0
   -7.1713   -2.2193    1.7126 H   0  0  0  0  0  0  0  0  0  0  0  0
   -7.5511   -2.0547    0.0101 H   0  0  0  0  0  0  0  0  0  0  0  0
   -6.2485   -3.1083    0.5191 H   0  0  0  0  0  0  0  0  0  0  0  0
   -4.4733   -1.2411    0.9668 N   0  0  0  0  0  0  0  0  0  0  0  0
   -3.4203   -0.2603    0.9449 C   0  0  2  0  0  0  0  0  0  0  0  0
   -2.1242   -0.9699    0.5759 C   0  0  0  0  0  0  0  0  0  0  0  0
   -1.8694   -2.1225    0.9189 O   0  0  0  0  0  0  0  0  0  0  0  0
   -3.2916    0.4435    2.2868 C   0  0  0  0  0  0  0  0  0  0  0  0
   -4.2421   -2.1920    1.2489 H   0  0  0  0  0  0  0  0  0  0  0  0
   -3.6772    0.4622    0.1625 H   0  0  0  0  0  0  0  0  0  0  0  0
   -3.0345   -0.2644    3.0832 H   0  0  0  0  0  0  0  0  0  0  0  0
   -2.5093    1.2092    2.2599 H   0  0  0  0  0  0  0  0  0  0  0  0
   -4.2338    0.9283    2.5645 H   0  0  0  0  0  0  0  0  0  0  0  0
   -1.2626   -0.1515   -0.1463 N   0  0  0  0  0  0  0  0  0  0  0  0
    0.0431   -0.5785   -0.5755 C   0  0  2  0  0  0  0  0  0  0  0  0
    0.9443    0.6480   -0.6310 C   0  0  0  0  0  0  0  0  0  0  0  0
    1.5258    1.0075   -1.6527 O   0  0  0  0  0  0  0  0  0  0  0  0
   -0.0178   -1.2699   -1.9286 C   0  0  0  0  0  0  0  0  0  0  0  0
   -1.5766    0.7776   -0.4197 H   0  0  0  0  0  0  0  0  0  0  0  0
    0.4155   -1.2718    0.1865 H   0  0  0  0  0  0  0  0  0  0  0  0
   -0.3887   -0.5907   -2.7050 H   0  0  0  0  0  0  0  0  0  0  0  0
    0.9719   -1.6194   -2.2406 H   0  0  0  0  0  0  0  0  0  0  0  0
   -0.6897   -2.1343   -1.8947 H   0  0  0  0  0  0  0  0  0  0  0  0
    1.0600    1.2732    0.6057 N   0  0  0  0  0  0  0  0  0  0  0  0
    1.8895    2.4294    0.8214 C   0  0  2  0  0  0  0  0  0  0  0  0
    2.4227    2.3665    2.2466 C   0  0  0  0  0  0  0  0  0  0  0  0
    1.7775    1.9022    3.1843 O   0  0  0  0  0  0  0  0  0  0  0  0
    1.1154    3.7173    0.5870 C   0  0  0  0  0  0  0  0  0  0  0  0
    0.5081    0.9270    1.3881 H   0  0  0  0  0  0  0  0  0  0  0  0
    2.7237    2.3563    0.1151 H   0  0  0  0  0  0  0  0  0  0  0  0
    0.2755    3.8082    1.2854 H   0  0  0  0  0  0  0  0  0  0  0  0
    1.7554    4.5953    0.7236 H   0  0  0  0  0  0  0  0  0  0  0  0
    0.7075    3.7474   -0.4291 H   0  0  0  0  0  0  0  0  0  0  0  0
    3.6867    2.9289    2.3562 N   0  0  0  0  0  0  0  0  0  0  0  0
    4.3894    3.0283    3.6141 C   0  0  0  0  0  0  0  0  0  0  0  0
    4.1637    3.2531    1.5200 H   0  0  0  0  0  0  0  0  0  0  0  0
    4.1759    4.0025    4.0781 H   0  0  0  0  0  0  0  0  0  0  0  0
    4.0566    2.2222    4.2846 H   0  0  0  0  0  0  0  0  0  0  0  0
    5.4713    2.9355    3.4380 H   0  0  0  0  0  0  0  0  0  0  0  0
  1  3  1  0  0  0  0
  1  7  1  0  0  0  0
  1  2  2  0  0  0  0
 28 29  1  0  0  0  0
 29 37  1  0  0  0  0
 29 30  2  0  0  0  0
 18 19  1  0  0  0  0
 19 27  1  0  0  0  0
 19 20  2  0  0  0  0
  8  9  1  0  0  0  0
  9 17  1  0  0  0  0
  9 10  2  0  0  0  0
 28 31  1  0  0  0  0
 18 21  1  0  0  0  0
  8 11  1  0  0  0  0
 37 38  1  0  0  0  0
 27 28  1  0  0  0  0
 17 18  1  0  0  0  0
  7  8  1  0  0  0  0
  3  4  1  0  0  0  0
  3  5  1  0  0  0  0
  3  6  1  0  0  0  0
 31 34  1  0  0  0  0
 31 35  1  0  0  0  0
 31 36  1  0  0  0  0
 21 24  1  0  0  0  0
 21 25  1  0  0  0  0
 21 26  1  0  0  0  0
 11 14  1  0  0  0  0
 11 15  1  0  0  0  0
 11 16  1  0  0  0  0
 38 40  1  0  0  0  0
 38 41  1  0  0  0  0
 38 42  1  0  0  0  0
 28 33  1  0  0  0  0
 18 23  1  0  0  0  0
  8 13  1  0  0  0  0
 37 39  1  0  0  0  0
  7 12  1  0  0  0  0
 27 32  1  0  0  0  0
 17 22  1  0  0  0  0
M  END
$$$$

  -OEChem-05262214473D

 42 41  0     1  0  0  0  0  0999 V2000
   -5.7851   -0.9580    0.6237 C   0  0  0  0  0  0  0  0  0  0  0  0
   -6.2213    0.1296    0.2652 O   0  0  0  0  0  0  0  0  0  0  0  0
   -6.7088   -2.1270    0.7168 C   0  0  0  0  0  0  0  0  0  0  0  0
   -7.1713   -2.2193    1.7126 H   0  0  0  0  0  0  0  0  0  0  0  0
   -7.5511   -2.0547    0.0101 H   0  0  0  0  0  0  0  0  0  0  0  0
   -6.2485   -3.1083    0.5191 H   0  0  0  0  0  0  0  0  0  0  0  0
   -4.4733   -1.2411    0.9668 N   0  0  0  0  0  0  0  0  0  0  0  0
   -3.4203   -0.2603    0.9449 C   0  0  2  0  0  0  0  0  0  0  0  0
   -2.1242   -0.9699    0.5759 C   0  0  0  0  0  0  0  0  0  0  0  0
   -1.8694   -2.1225    0.9189 O   0  0  0  0  0  0  0  0  0  0  0  0
   -3.2916    0.4435    2.2868 C   0  0  0  0  0  0  0  0  0  0  0  0
   -4.2421   -2.1920    1.2489 H   0  0  0  0  0  0  0  0  0  0  0  0
   -3.6772    0.4622    0.1625 H   0  0  0  0  0  0  0  0  0  0  0  0
   -3.0345   -0.2644    3.0832 H   0  0  0  0  0  0  0  0  0  0  0  0
   -2.5093    1.2092    2.2599 H   0  0  0  0  0  0  0  0  0  0  0  0
   -4.2338    0.9283    2.5645 H   0  0  0  0  0  0  0  0  0  0  0  0
   -1.2626   -0.1515   -0.1463 N   0  0  0  0  0  0  0  0  0  0  0  0
    0.0431   -0.5785   -0.5755 C   0  0  2  0  0  0  0  0  0  0  0  0
    0.9443    0.6480   -0.6310 C   0  0  0  0  0  0  0  0  0  0  0  0
    1.3099    1.1646   -1.6848 O   0  0  0  0  0  0  0  0  0  0  0  0
   -0.0178   -1.2699   -1.9286 C   0  0  0  0  0  0  0  0  0  0  0  0
   -1.5766    0.7776   -0.4197 H   0  0  0  0  0  0  0  0  0  0  0  0
    0.4155   -1.2718    0.1865 H   0  0  0  0  0  0  0  0  0  0  0  0
   -0.3887   -0.5907   -2.7050 H   0  0  0  0  0  0  0  0  0  0  0  0
    0.9719   -1.6194   -2.2406 H   0  0  0  0  0  0  0  0  0  0  0  0
   -0.6897   -2.1343   -1.8947 H   0  0  0  0  0  0  0  0  0  0  0  0
    1.3303    1.0759    0.6346 N   0  0  0  0  0  0  0  0  0  0  0  0
    2.2160    2.1906    0.8453 C   0  0  2  0  0  0  0  0  0  0  0  0
    3.0318    1.9123    2.1009 C   0  0  0  0  0  0  0  0  0  0  0  0
    2.5836    1.3047    3.0710 O   0  0  0  0  0  0  0  0  0  0  0  0
    1.4434    3.4939    0.9768 C   0  0  0  0  0  0  0  0  0  0  0  0
    0.9442    0.6095    1.4531 H   0  0  0  0  0  0  0  0  0  0  0  0
    2.8832    2.2329   -0.0225 H   0  0  0  0  0  0  0  0  0  0  0  0
    0.7695    3.4703    1.8409 H   0  0  0  0  0  0  0  0  0  0  0  0
    2.1201    4.3447    1.1085 H   0  0  0  0  0  0  0  0  0  0  0  0
    0.8342    3.6775    0.0851 H   0  0  0  0  0  0  0  0  0  0  0  0
    4.3050    2.4598    2.0280 N   0  0  0  0  0  0  0  0  0  0  0  0
    5.2559    2.3688    3.1112 C   0  0  0  0  0  0  0  0  0  0  0  0
    4.6060    2.9122    1.1698 H   0  0  0  0  0  0  0  0  0  0  0  0
    5.1685    3.2584    3.7523 H   0  0  0  0  0  0  0  0  0  0  0  0
    5.0490    1.4668    3.7058 H   0  0  0  0  0  0  0  0  0  0  0  0
    6.2748    2.3116    2.7007 H   0  0  0  0  0  0  0  0  0  0  0  0
  1  3  1  0  0  0  0
  1  7  1  0  0  0  0
  1  2  2  0  0  0  0
 28 29  1  0  0  0  0
 29 37  1  0  0  0  0
 29 30  2  0  0  0  0
 18 19  1  0  0  0  0
 19 27  1  0  0  0  0
 19 20  2  0  0  0  0
  8  9  1  0  0  0  0
  9 17  1  0  0  0  0
  9 10  2  0  0  0  0
 28 31  1  0  0  0  0
 18 21  1  0  0  0  0
  8 11  1  0  0  0  0
 37 38  1  0  0  0  0
 27 28  1  0  0  0  0
 17 18  1  0  0  0  0
  7  8  1  0  0  0  0
  3  4  1  0  0  0  0
  3  5  1  0  0  0  0
  3  6  1  0  0  0  0
 31 34  1  0  0  0  0
 31 35  1  0  0  0  0
 31 36  1  0  0  0  0
 21 24  1  0  0  0  0
 21 25  1  0  0  0  0
 21 26  1  0  0  0  0
 11 14  1  0  0  0  0
 11 15  1  0  0  0  0
 11 16  1  0  0  0  0
 38 40  1  0  0  0  0
 38 41  1  0  0  0  0
 38 42  1  0  0  0  0
 28 33  1  0  0  0  0
 18 23  1  0  0  0  0
  8 13  1  0  0  0  0
 37 39  1  0  0  0  0
  7 12  1  0  0  0  0
 27 32  1  0  0  0  0
 17 22  1  0  0  0  0
M  END
$$$$

  -OEChem-05262214473D

 42 41  0     1  0  0  0  0  0999 V2000
   -5.7851   -0.9580    0.6237 C   0  0  0  0  0  0  0  0  0  0  0  0
   -6.2213    0.1296    0.2652 O   0  0  0  0  0  0  0  0  0  0  0  0
   -6.7088   -2.1270    0.7168 C   0  0  0  0  0  0  0  0  0  0  0  0
   -7.1713   -2.2193    1.7126 H   0  0  0  0  0  0  0  0  0  0  0  0
   -7.5511   -2.0547    0.0101 H   0  0  0  0  0  0  0  0  0  0  0  0
   -6.2485   -3.1083    0.5191 H   0  0  0  0  0  0  0  0  0  0  0  0
   -4.4733   -1.2411    0.9668 N   0  0  0  0  0  0  0  0  0  0  0  0
   -3.4203   -0.2603    0.9449 C   0  0  2  0  0  0  0  0  0  0  0  0
   -2.1242   -0.9699    0.5759 C   0  0  0  0  0  0  0  0  0  0  0  0
   -1.8694   -2.1225    0.9189 O   0  0  0  0  0  0  0  0  0  0  0  0
   -3.2916    0.4435    2.2868 C   0  0  0  0  0  0  0  0  0  0  0  0
   -4.2421   -2.1920    1.2489 H   0  0  0  0  0  0  0  0  0  0  0  0
   -3.6772    0.4622    0.1625 H   0  0  0  0  0  0  0  0  0  0  0  0
   -3.0345   -0.2644    3.0832 H   0  0  0  0  0  0  0  0  0  0  0  0
   -2.5093    1.2092    2.2599 H   0  0  0  0  0  0  0  0  0  0  0  0
   -4.2338    0.9283    2.5645 H   0  0  0  0  0  0  0  0  0  0  0  0
   -1.2626   -0.1515   -0.1463 N   0  0  0  0  0  0  0  0  0  0  0  0
    0.0431   -0.5785   -0.5755 C   0  0  2  0  0  0  0  0  0  0  0  0
    0.9443    0.6480   -0.6310 C   0  0  0  0  0  0  0  0  0  0  0  0
    1.0962    1.3234   -1.6468 O   0  0  0  0  0  0  0  0  0  0  0  0
   -0.0178   -1.2699   -1.9286 C   0  0  0  0  0  0  0  0  0  0  0  0
   -1.5766    0.7776   -0.4197 H   0  0  0  0  0  0  0  0  0  0  0  0
    0.4155   -1.2718    0.1865 H   0  0  0  0  0  0  0  0  0  0  0  0
   -0.3887   -0.5907   -2.7050 H   0  0  0  0  0  0  0  0  0  0  0  0
    0.9719   -1.6194   -2.2406 H   0  0  0  0  0  0  0  0  0  0  0  0
   -0.6897   -2.1343   -1.8947 H   0  0  0  0  0  0  0  0  0  0  0  0
    1.5956    0.8783    0.5758 N   0  0  0  0  0  0  0  0  0  0  0  0
    2.5340    1.9532    0.7638 C   0  0  2  0  0  0  0  0  0  0  0  0
    3.5854    1.4903    1.7637 C   0  0  0  0  0  0  0  0  0  0  0  0
    3.3331    0.7374    2.7020 O   0  0  0  0  0  0  0  0  0  0  0  0
    1.8393    3.2154    1.2507 C   0  0  0  0  0  0  0  0  0  0  0  0
    1.3761    0.2887    1.3763 H   0  0  0  0  0  0  0  0  0  0  0  0
    3.0073    2.1333   -0.2076 H   0  0  0  0  0  0  0  0  0  0  0  0
    1.3592    3.0543    2.2228 H   0  0  0  0  0  0  0  0  0  0  0  0
    2.5502    4.0403    1.3658 H   0  0  0  0  0  0  0  0  0  0  0  0
    1.0632    3.5301    0.5447 H   0  0  0  0  0  0  0  0  0  0  0  0
    4.8293    2.0511    1.5102 N   0  0  0  0  0  0  0  0  0  0  0  0
    5.9819    1.8007    2.3439 C   0  0  0  0  0  0  0  0  0  0  0  0
    4.9571    2.6324    0.6871 H   0  0  0  0  0  0  0  0  0  0  0  0
    6.0523    2.5802    3.1168 H   0  0  0  0  0  0  0  0  0  0  0  0
    5.8799    0.8164    2.8243 H   0  0  0  0  0  0  0  0  0  0  0  0
    6.8915    1.8144    1.7255 H   0  0  0  0  0  0  0  0  0  0  0  0
  1  3  1  0  0  0  0
  1  7  1  0  0  0  0
  1  2  2  0  0  0  0
 28 29  1  0  0  0  0
 29 37  1  0  0  0  0
 29 30  2  0  0  0  0
 18 19  1  0  0  0  0
 19 27  1  0  0  0  0
 19 20  2  0  0  0  0
  8  9  1  0  0  0  0
  9 17  1  0  0  0  0
  9 10  2  0  0  0  0
 28 31  1  0  0  0  0
 18 21  1  0  0  0  0
  8 11  1  0  0  0  0
 37 38  1  0  0  0  0
 27 28  1  0  0  0  0
 17 18  1  0  0  0  0
  7  8  1  0  0  0  0
  3  4  1  0  0  0  0
  3  5  1  0  0  0  0
  3  6  1  0  0  0  0
 31 34  1  0  0  0  0
 31 35  1  0  0  0  0
 31 36  1  0  0  0  0
 21 24  1  0  0  0  0
 21 25  1  0  0  0  0
 21 26  1  0  0  0  0
 11 14  1  0  0  0  0
 11 15  1  0  0  0  0
 11 16  1  0  0  0  0
 38 40  1  0  0  0  0
 38 41  1  0  0  0  0
 38 42  1  0  0  0  0
 28 33  1  0  0  0  0
 18 23  1  0  0  0  0
  8 13  1  0  0  0  0
 37 39  1  0  0  0  0
  7 12  1  0  0  0  0
 27 32  1  0  0  0  0
 17 22  1  0  0  0  0
M  END
$$$$

  -OEChem-05262214473D

 42 41  0     1  0  0  0  0  0999 V2000
   -5.7851   -0.9580    0.6237 C   0  0  0  0  0  0  0  0  0  0  0  0
   -6.2213    0.1296    0.2652 O   0  0  0  0  0  0  0  0  0  0  0  0
   -6.7088   -2.1270    0.7168 C   0  0  0  0  0  0  0  0  0  0  0  0
   -7.1713   -2.2193    1.7126 H   0  0  0  0  0  0  0  0  0  0  0  0
   -7.5511   -2.0547    0.0101 H   0  0  0  0  0  0  0  0  0  0  0  0
   -6.2485   -3.1083    0.5191 H   0  0  0  0  0  0  0  0  0  0  0  0
   -4.4733   -1.2411    0.9668 N   0  0  0  0  0  0  0  0  0  0  0  0
   -3.4203   -0.2603    0.9449 C   0  0  2  0  0  0  0  0  0  0  0  0
   -2.1242   -0.9699    0.5759 C   0  0  0  0  0  0  0  0  0  0  0  0
   -1.8694   -2.1225    0.9189 O   0  0  0  0  0  0  0  0  0  0  0  0
   -3.2916    0.4435    2.2868 C   0  0  0  0  0  0  0  0  0  0  0  0
   -4.2421   -2.1920    1.2489 H   0  0  0  0  0  0  0  0  0  0  0  0
   -3.6772    0.4622    0.1625 H   0  0  0  0  0  0  0  0  0  0  0  0
   -3.0345   -0.2644    3.0832 H   0  0  0  0  0  0  0  0  0  0  0  0
   -2.5093    1.2092    2.2599 H   0  0  0  0  0  0  0  0  0  0  0  0
   -4.2338    0.9283    2.5645 H   0  0  0  0  0  0  0  0  0  0  0  0
   -1.2626   -0.1515   -0.1463 N   0  0  0  0  0  0  0  0  0  0  0  0
    0.0431   -0.5785   -0.5755 C   0  0  2  0  0  0  0  0  0  0  0  0
    0.9443    0.6480   -0.6310 C   0  0  0  0  0  0  0  0  0  0  0  0
    0.8992    1.4729   -1.5413 O   0  0  0  0  0  0  0  0  0  0  0  0
   -0.0178   -1.2699   -1.9286 C   0  0  0  0  0  0  0  0  0  0  0  0
   -1.5766    0.7776   -0.4197 H   0  0  0  0  0  0  0  0  0  0  0  0
    0.4155   -1.2718    0.1865 H   0  0  0  0  0  0  0  0  0  0  0  0
   -0.3887   -0.5907   -2.7050 H   0  0  0  0  0  0  0  0  0  0  0  0
    0.9719   -1.6194   -2.2406 H   0  0  0  0  0  0  0  0  0  0  0  0
   -0.6897   -2.1343   -1.8947 H   0  0  0  0  0  0  0  0  0  0  0  0
    1.8378    0.6939    0.4336 N   0  0  0  0  0  0  0  0  0  0  0  0
    2.8220    1.7334    0.5824 C   0  0  2  0  0  0  0  0  0  0  0  0
    4.0459    1.1290    1.2579 C   0  0  0  0  0  0  0  0  0  0  0  0
    3.9748    0.2388    2.1026 O   0  0  0  0  0  0  0  0  0  0  0  0
    2.2763    2.9007    1.3901 C   0  0  0  0  0  0  0  0  0  0  0  0
    1.7742   -0.0135    1.1630 H   0  0  0  0  0  0  0  0  0  0  0  0
    3.0877    2.0643   -0.4275 H   0  0  0  0  0  0  0  0  0  0  0  0
    2.0045    2.5884    2.4050 H   0  0  0  0  0  0  0  0  0  0  0  0
    3.0165    3.7028    1.4781 H   0  0  0  0  0  0  0  0  0  0  0  0
    1.3787    3.3151    0.9184 H   0  0  0  0  0  0  0  0  0  0  0  0
    5.2241    1.7306    0.8382 N   0  0  0  0  0  0  0  0  0  0  0  0
    6.5178    1.3626    1.3643 C   0  0  0  0  0  0  0  0  0  0  0  0
    5.1929    2.4327    0.1049 H   0  0  0  0  0  0  0  0  0  0  0  0
    6.7672    2.0141    2.2148 H   0  0  0  0  0  0  0  0  0  0  0  0
    6.4926    0.3153    1.7000 H   0  0  0  0  0  0  0  0  0  0  0  0
    7.2792    1.4776    0.5788 H   0  0  0  0  0  0  0  0  0  0  0  0
  1  3  1  0  0  0  0
  1  7  1  0  0  0  0
  1  2  2  0  0  0  0
 28 29  1  0  0  0  0
 29 37  1  0  0  0  0
 29 30  2  0  0  0  0
 18 19  1  0  0  0  0
 19 27  1  0  0  0  0
 19 20  2  0  0  0  0
  8  9  1  0  0  0  0
  9 17  1  0  0  0  0
  9 10  2  0  0  0  0
 28 31  1  0  0  0  0
 18 21  1  0  0  0  0
  8 11  1  0  0  0  0
 37 38  1  0  0  0  0
 27 28  1  0  0  0  0
 17 18  1  0  0  0  0
  7  8  1  0  0  0  0
  3  4  1  0  0  0  0
  3  5  1  0  0  0  0
  3  6  1  0  0  0  0
 31 34  1  0  0  0  0
 31 35  1  0  0  0  0
 31 36  1  0  0  0  0
 21 24  1  0  0  0  0
 21 25  1  0  0  0  0
 21 26  1  0  0  0  0
 11 14  1  0  0  0  0
 11 15  1  0  0  0  0
 11 16  1  0  0  0  0
 38 40  1  0  0  0  0
 38 41  1  0  0  0  0
 38 42  1  0  0  0  0
 28 33  1  0  0  0  0
 18 23  1  0  0  0  0
  8 13  1  0  0  0  0
 37 39  1  0  0  0  0
  7 12  1  0  0  0  0
 27 32  1  0  0  0  0
 17 22  1  0  0  0  0
M  END
$$$$

  -OEChem-05262214473D

 42 41  0     1  0  0  0  0  0999 V2000
   -5.7851   -0.9580    0.6237 C   0  0  0  0  0  0  0  0  0  0  0  0
   -6.2213    0.1296    0.2652 O   0  0  0  0  0  0  0  0  0  0  0  0
   -6.7088   -2.1270    0.7168 C   0  0  0  0  0  0  0  0  0  0  0  0
   -7.1713   -2.2193    1.7126 H   0  0  0  0  0  0  0  0  0  0  0  0
   -7.5511   -2.0547    0.0101 H   0  0  0  0  0  0  0  0  0  0  0  0
   -6.2485   -3.1083    0.5191 H   0  0  0  0  0  0  0  0  0  0  0  0
   -4.4733   -1.2411    0.9668 N   0  0  0  0  0  0  0  0  0  0  0  0
   -3.4203   -0.2603    0.9449 C   0  0  2  0  0  0  0  0  0  0  0  0
   -2.1242   -0.9699    0.5759 C   0  0  0  0  0  0  0  0  0  0  0  0
   -1.8694   -2.1225    0.9189 O   0  0  0  0  0  0  0  0  0  0  0  0
   -3.2916    0.4435    2.2868 C   0  0  0  0  0  0  0  0  0  0  0  0
   -4.2421   -2.1920    1.2489 H   0  0  0  0  0  0  0  0  0  0  0  0
   -3.6772    0.4622    0.1625 H   0  0  0  0  0  0  0  0  0  0  0  0
   -3.0345   -0.2644    3.0832 H   0  0  0  0  0  0  0  0  0  0  0  0
   -2.5093    1.2092    2.2599 H   0  0  0  0  0  0  0  0  0  0  0  0
   -4.2338    0.9283    2.5645 H   0  0  0  0  0  0  0  0  0  0  0  0
   -1.2626   -0.1515   -0.1463 N   0  0  0  0  0  0  0  0  0  0  0  0
    0.0431   -0.5785   -0.5755 C   0  0  2  0  0  0  0  0  0  0  0  0
    0.9443    0.6480   -0.6310 C   0  0  0  0  0  0  0  0  0  0  0  0
    0.7323    1.6030   -1.3754 O   0  0  0  0  0  0  0  0  0  0  0  0
   -0.0178   -1.2699   -1.9286 C   0  0  0  0  0  0  0  0  0  0  0  0
   -1.5766    0.7776   -0.4197 H   0  0  0  0  0  0  0  0  0  0  0  0
    0.4155   -1.2718    0.1865 H   0  0  0  0  0  0  0  0  0  0  0  0
   -0.3887   -0.5907   -2.7050 H   0  0  0  0  0  0  0  0  0  0  0  0
    0.9719   -1.6194   -2.2406 H   0  0  0  0  0  0  0  0  0  0  0  0
   -0.6897   -2.1343   -1.8947 H   0  0  0  0  0  0  0  0  0  0  0  0
    2.0403    0.5353    0.2175 N   0  0  0  0  0  0  0  0  0  0  0  0
    3.0603    1.5461    0.3135 C   0  0  2  0  0  0  0  0  0  0  0  0
    4.3819    0.8532    0.6181 C   0  0  0  0  0  0  0  0  0  0  0  0
    4.4649   -0.1571    1.3134 O   0  0  0  0  0  0  0  0  0  0  0  0
    2.7243    2.5712    1.3854 C   0  0  0  0  0  0  0  0  0  0  0  0
    2.1115   -0.2765    0.8277 H   0  0  0  0  0  0  0  0  0  0  0  0
    3.1188    2.0306   -0.6673 H   0  0  0  0  0  0  0  0  0  0  0  0
    2.6614    2.1044    2.3752 H   0  0  0  0  0  0  0  0  0  0  0  0
    3.4870    3.3552    1.4377 H   0  0  0  0  0  0  0  0  0  0  0  0
    1.7594    3.0473    1.1806 H   0  0  0  0  0  0  0  0  0  0  0  0
    5.4622    1.5203    0.0578 N   0  0  0  0  0  0  0  0  0  0  0  0
    6.8272    1.0844    0.2394 C   0  0  0  0  0  0  0  0  0  0  0  0
    5.2975    2.3268   -0.5373 H   0  0  0  0  0  0  0  0  0  0  0  0
    7.2644    1.5987    1.1079 H   0  0  0  0  0  0  0  0  0  0  0  0
    6.8453   -0.0023    0.4095 H   0  0  0  0  0  0  0  0  0  0  0  0
    7.4115    1.3243   -0.6612 H   0  0  0  0  0  0  0  0  0  0  0  0
  1  3  1  0  0  0  0
  1  7  1  0  0  0  0
  1  2  2  0  0  0  0
 28 29  1  0  0  0  0
 29 37  1  0  0  0  0
 29 30  2  0  0  0  0
 18 19  1  0  0  0  0
 19 27  1  0  0  0  0
 19 20  2  0  0  0  0
  8  9  1  0  0  0  0
  9 17  1  0  0  0  0
  9 10  2  0  0  0  0
 28 31  1  0  0  0  0
 18 21  1  0  0  0  0
  8 11  1  0  0  0  0
 37 38  1  0  0  0  0
 27 28  1  0  0  0  0
 17 18  1  0  0  0  0
  7  8  1  0  0  0  0
  3  4  1  0  0  0  0
  3  5  1  0  0  0  0
  3  6  1  0  0  0  0
 31 34  1  0  0  0  0
 31 35  1  0  0  0  0
 31 36  1  0  0  0  0
 21 24  1  0  0  0  0
 21 25  1  0  0  0  0
 21 26  1  0  0  0  0
 11 14  1  0  0  0  0
 11 15  1  0  0  0  0
 11 16  1  0  0  0  0
 38 40  1  0  0  0  0
 38 41  1  0  0  0  0
 38 42  1  0  0  0  0
 28 33  1  0  0  0  0
 18 23  1  0  0  0  0
  8 13  1  0  0  0  0
 37 39  1  0  0  0  0
  7 12  1  0  0  0  0
 27 32  1  0  0  0  0
 17 22  1  0  0  0  0
M  END
$$$$

  -OEChem-05262214473D

 42 41  0     1  0  0  0  0  0999 V2000
   -5.7851   -0.9580    0.6237 C   0  0  0  0  0  0  0  0  0  0  0  0
   -6.2213    0.1296    0.2652 O   0  0  0  0  0  0  0  0  0  0  0  0
   -6.7088   -2.1270    0.7168 C   0  0  0  0  0  0  0  0  0  0  0  0
   -7.1713   -2.2193    1.7126 H   0  0  0  0  0  0  0  0  0  0  0  0
   -7.5511   -2.0547    0.0101 H   0  0  0  0  0  0  0  0  0  0  0  0
   -6.2485   -3.1083    0.5191 H   0  0  0  0  0  0  0  0  0  0  0  0
   -4.4733   -1.2411    0.9668 N   0  0  0  0  0  0  0  0  0  0  0  0
   -3.4203   -0.2603    0.9449 C   0  0  2  0  0  0  0  0  0  0  0  0
   -2.1242   -0.9699    0.5759 C   0  0  0  0  0  0  0  0  0  0  0  0
   -1.8694   -2.1225    0.9189 O   0  0  0  0  0  0  0  0  0  0  0  0
   -3.2916    0.4435    2.2868 C   0  0  0  0  0  0  0  0  0  0  0  0
   -4.2421   -2.1920    1.2489 H   0  0  0  0  0  0  0  0  0  0  0  0
   -3.6772    0.4622    0.1625 H   0  0  0  0  0  0  0  0  0  0  0  0
   -3.0345   -0.2644    3.0832 H   0  0  0  0  0  0  0  0  0  0  0  0
   -2.5093    1.2092    2.2599 H   0  0  0  0  0  0  0  0  0  0  0  0
   -4.2338    0.9283    2.5645 H   0  0  0  0  0  0  0  0  0  0  0  0
   -1.2626   -0.1515   -0.1463 N   0  0  0  0  0  0  0  0  0  0  0  0
    0.0431   -0.5785   -0.5755 C   0  0  2  0  0  0  0  0  0  0  0  0
    0.9443    0.6480   -0.6310 C   0  0  0  0  0  0  0  0  0  0  0  0
    0.6069    1.7049   -1.1604 O   0  0  0  0  0  0  0  0  0  0  0  0
   -0.0178   -1.2699   -1.9286 C   0  0  0  0  0  0  0  0  0  0  0  0
   -1.5766    0.7776   -0.4197 H   0  0  0  0  0  0  0  0  0  0  0  0
    0.4155   -1.2718    0.1865 H   0  0  0  0  0  0  0  0  0  0  0  0
   -0.3887   -0.5907   -2.7050 H   0  0  0  0  0  0  0  0  0  0  0  0
    0.9719   -1.6194   -2.2406 H   0  0  0  0  0  0  0  0  0  0  0  0
   -0.6897   -2.1343   -1.8947 H   0  0  0  0  0  0  0  0  0  0  0  0
    2.1894    0.4134   -0.0578 N   0  0  0  0  0  0  0  0  0  0  0  0
    3.2327    1.4042   -0.0246 C   0  0  2  0  0  0  0  0  0  0  0  0
    4.5705    0.6816   -0.1122 C   0  0  0  0  0  0  0  0  0  0  0  0
    4.7701   -0.4233    0.3884 O   0  0  0  0  0  0  0  0  0  0  0  0
    3.1531    2.2494    1.2371 C   0  0  0  0  0  0  0  0  0  0  0  0
    2.3649   -0.4824    0.3933 H   0  0  0  0  0  0  0  0  0  0  0  0
    3.0987    2.0344   -0.9105 H   0  0  0  0  0  0  0  0  0  0  0  0
    3.2852    1.6352    2.1353 H   0  0  0  0  0  0  0  0  0  0  0  0
    3.9299    3.0212    1.2473 H   0  0  0  0  0  0  0  0  0  0  0  0
    2.1792    2.7449    1.3135 H   0  0  0  0  0  0  0  0  0  0  0  0
    5.5277    1.4344   -0.7779 N   0  0  0  0  0  0  0  0  0  0  0  0
    6.8889    0.9850   -0.9543 C   0  0  0  0  0  0  0  0  0  0  0  0
    5.2637    2.3219   -1.1956 H   0  0  0  0  0  0  0  0  0  0  0  0
    7.5100    1.3623   -0.1286 H   0  0  0  0  0  0  0  0  0  0  0  0
    6.9141   -0.1147   -0.9591 H   0  0  0  0  0  0  0  0  0  0  0  0
    7.2794    1.3649   -1.9099 H   0  0  0  0  0  0  0  0  0  0  0  0
  1  3  1  0  0  0  0
  1  7  1  0  0  0  0
  1  2  2  0  0  0  0
 28 29  1  0  0  0  0
 29 37  1  0  0  0  0
 29 30  2  0  0  0  0
 18 19  1  0  0  0  0
 19 27  1  0  0  0  0
 19 20  2  0  0  0  0
  8  9  1  0  0  0  0
  9 17  1  0  0  0  0
  9 10  2  0  0  0  0
 28 31  1  0  0  0  0
 18 21  1  0  0  0  0
  8 11  1  0  0  0  0
 37 38  1  0  0  0  0
 27 28  1  0  0  0  0
 17 18  1  0  0  0  0
  7  8  1  0  0  0  0
  3  4  1  0  0  0  0
  3  5  1  0  0  0  0
  3  6  1  0  0  0  0
 31 34  1  0  0  0  0
 31 35  1  0  0  0  0
 31 36  1  0  0  0  0
 21 24  1  0  0  0  0
 21 25  1  0  0  0  0
 21 26  1  0  0  0  0
 11 14  1  0  0  0  0
 11 15  1  0  0  0  0
 11 16  1  0  0  0  0
 38 40  1  0  0  0  0
 38 41  1  0  0  0  0
 38 42  1  0  0  0  0
 28 33  1  0  0  0  0
 18 23  1  0  0  0  0
  8 13  1  0  0  0  0
 37 39  1  0  0  0  0
  7 12  1  0  0  0  0
 27 32  1  0  0  0  0
 17 22  1  0  0  0  0
M  END
$$$$

  -OEChem-05262214473D

 42 41  0     1  0  0  0  0  0999 V2000
   -5.7851   -0.9580    0.6237 C   0  0  0  0  0  0  0  0  0  0  0  0
   -6.2213    0.1296    0.2652 O   0  0  0  0  0  0  0  0  0  0  0  0
   -6.7088   -2.1270    0.7168 C   0  0  0  0  0  0  0  0  0  0  0  0
   -7.1713   -2.2193    1.7126 H   0  0  0  0  0  0  0  0  0  0  0  0
   -7.5511   -2.0547    0.0101 H   0  0  0  0  0  0  0  0  0  0  0  0
   -6.2485   -3.1083    0.5191 H   0  0  0  0  0  0  0  0  0  0  0  0
   -4.4733   -1.2411    0.9668 N   0  0  0  0  0  0  0  0  0  0  0  0
   -3.4203   -0.2603    0.9449 C   0  0  2  0  0  0  0  0  0  0  0  0
   -2.1242   -0.9699    0.5759 C   0  0  0  0  0  0  0  0  0  0  0  0
   -1.8694   -2.1225    0.9189 O   0  0  0  0  0  0  0  0  0  0  0  0
   -3.2916    0.4435    2.2868 C   0  0  0  0  0  0  0  0  0  0  0  0
   -4.2421   -2.1920    1.2489 H   0  0  0  0  0  0  0  0  0  0  0  0
   -3.6772    0.4622    0.1625 H   0  0  0  0  0  0  0  0  0  0  0  0
   -3.0345   -0.2644    3.0832 H   0  0  0  0  0  0  0  0  0  0  0  0
   -2.5093    1.2092    2.2599 H   0  0  0  0  0  0  0  0  0  0  0  0
   -4.2338    0.9283    2.5645 H   0  0  0  0  0  0  0  0  0  0  0  0
   -1.2626   -0.1515   -0.1463 N   0  0  0  0  0  0  0  0  0  0  0  0
    0.0431   -0.5785   -0.5755 C   0  0  2  0  0  0  0  0  0  0  0  0
    0.9443    0.6480   -0.6310 C   0  0  0  0  0  0  0  0  0  0  0  0
    0.5316    1.7716   -0.9110 O   0  0  0  0  0  0  0  0  0  0  0  0
   -0.0178   -1.2699   -1.9286 C   0  0  0  0  0  0  0  0  0  0  0  0
   -1.5766    0.7776   -0.4197 H   0  0  0  0  0  0  0  0  0  0  0  0
    0.4155   -1.2718    0.1865 H   0  0  0  0  0  0  0  0  0  0  0  0
   -0.3887   -0.5907   -2.7050 H   0  0  0  0  0  0  0  0  0  0  0  0
    0.9719   -1.6194   -2.2406 H   0  0  0  0  0  0  0  0  0  0  0  0
   -0.6897   -2.1343   -1.8947 H   0  0  0  0  0  0  0  0  0  0  0  0
    2.2748    0.3363   -0.3734 N   0  0  0  0  0  0  0  0  0  0  0  0
    3.3274    1.3172   -0.4088 C   0  0  2  0  0  0  0  0  0  0  0  0
    4.5988    0.6259   -0.8832 C   0  0  0  0  0  0  0  0  0  0  0  0
    4.8696   -0.5415   -0.6095 O   0  0  0  0  0  0  0  0  0  0  0  0
    3.5333    1.9573    0.9552 C   0  0  0  0  0  0  0  0  0  0  0  0
    2.5171   -0.6171   -0.1107 H   0  0  0  0  0  0  0  0  0  0  0  0
    3.0285    2.0755   -1.1407 H   0  0  0  0  0  0  0  0  0  0  0  0
    3.8332    1.2129    1.7017 H   0  0  0  0  0  0  0  0  0  0  0  0
    4.3148    2.7235    0.9200 H   0  0  0  0  0  0  0  0  0  0  0  0
    2.6095    2.4284    1.3081 H   0  0  0  0  0  0  0  0  0  0  0  0
    5.4158    1.4788   -1.6119 N   0  0  0  0  0  0  0  0  0  0  0  0
    6.6987    1.0712   -2.1354 C   0  0  0  0  0  0  0  0  0  0  0  0
    5.0937    2.4183   -1.8251 H   0  0  0  0  0  0  0  0  0  0  0  0
    7.4873    1.3209   -1.4103 H   0  0  0  0  0  0  0  0  0  0  0  0
    6.6942   -0.0144   -2.3127 H   0  0  0  0  0  0  0  0  0  0  0  0
    6.8919    1.5965   -3.0824 H   0  0  0  0  0  0  0  0  0  0  0  0
  1  3  1  0  0  0  0
  1  7  1  0  0  0  0
  1  2  2  0  0  0  0
 28 29  1  0  0  0  0
 29 37  1  0  0  0  0
 29 30  2  0  0  0  0
 18 19  1  0  0  0  0
 19 27  1  0  0  0  0
 19 20  2  0  0  0  0
  8  9  1  0  0  0  0
  9 17  1  0  0  0  0
  9 10  2  0  0  0  0
 28 31  1  0  0  0  0
 18 21  1  0  0  0  0
  8 11  1  0  0  0  0
 37 38  1  0  0  0  0
 27 28  1  0  0  0  0
 17 18  1  0  0  0  0
  7  8  1  0  0  0  0
  3  4  1  0  0  0  0
  3  5  1  0  0  0  0
  3  6  1  0  0  0  0
 31 34  1  0  0  0  0
 31 35  1  0  0  0  0
 31 36  1  0  0  0  0
 21 24  1  0  0  0  0
 21 25  1  0  0  0  0
 21 26  1  0  0  0  0
 11 14  1  0  0  0  0
 11 15  1  0  0  0  0
 11 16  1  0  0  0  0
 38 40  1  0  0  0  0
 38 41  1  0  0  0  0
 38 42  1  0  0  0  0
 28 33  1  0  0  0  0
 18 23  1  0  0  0  0
  8 13  1  0  0  0  0
 37 39  1  0  0  0  0
  7 12  1  0  0  0  0
 27 32  1  0  0  0  0
 17 22  1  0  0  0  0
M  END
$$$$

  -OEChem-05262214473D

 42 41  0     1  0  0  0  0  0999 V2000
   -5.7851   -0.9580    0.6237 C   0  0  0  0  0  0  0  0  0  0  0  0
   -6.2213    0.1296    0.2652 O   0  0  0  0  0  0  0  0  0  0  0  0
   -6.7088   -2.1270    0.7168 C   0  0  0  0  0  0  0  0  0  0  0  0
   -7.1713   -2.2193    1.7126 H   0  0  0  0  0  0  0  0  0  0  0  0
   -7.5511   -2.0547    0.0101 H   0  0  0  0  0  0  0  0  0  0  0  0
   -6.2485   -3.1083    0.5191 H   0  0  0  0  0  0  0  0  0  0  0  0
   -4.4733   -1.2411    0.9668 N   0  0  0  0  0  0  0  0  0  0  0  0
   -3.4203   -0.2603    0.9449 C   0  0  2  0  0  0  0  0  0  0  0  0
   -2.1242   -0.9699    0.5759 C   0  0  0  0  0  0  0  0  0  0  0  0
   -1.8694   -2.1225    0.9189 O   0  0  0  0  0  0  0  0  0  0  0  0
   -3.2916    0.4435    2.2868 C   0  0  0  0  0  0  0  0  0  0  0  0
   -4.2421   -2.1920    1.2489 H   0  0  0  0  0  0  0  0  0  0  0  0
   -3.6772    0.4622    0.1625 H   0  0  0  0  0  0  0  0  0  0  0  0
   -3.0345   -0.2644    3.0832 H   0  0  0  0  0  0  0  0  0  0  0  0
   -2.5093    1.2092    2.2599 H   0  0  0  0  0  0  0  0  0  0  0  0
   -4.2338    0.9283    2.5645 H   0  0  0  0  0  0  0  0  0  0  0  0
   -1.2626   -0.1515   -0.1463 N   0  0  0  0  0  0  0  0  0  0  0  0
    0.0431   -0.5785   -0.5755 C   0  0  2  0  0  0  0  0  0  0  0  0
    0.9443    0.6480   -0.6310 C   0  0  0  0  0  0  0  0  0  0  0  0
    0.5114    1.7985   -0.6442 O   0  0  0  0  0  0  0  0  0  0  0  0
   -0.0178   -1.2699   -1.9286 C   0  0  0  0  0  0  0  0  0  0  0  0
   -1.5766    0.7776   -0.4197 H   0  0  0  0  0  0  0  0  0  0  0  0
    0.4155   -1.2718    0.1865 H   0  0  0  0  0  0  0  0  0  0  0  0
   -0.3887   -0.5907   -2.7050 H   0  0  0  0  0  0  0  0  0  0  0  0
    0.9719   -1.6194   -2.2406 H   0  0  0  0  0  0  0  0  0  0  0  0
   -0.6897   -2.1343   -1.8947 H   0  0  0  0  0  0  0  0  0  0  0  0
    2.2909    0.3094   -0.7079 N   0  0  0  0  0  0  0  0  0  0  0  0
    3.3379    1.2912   -0.8130 C   0  0  2  0  0  0  0  0  0  0  0  0
    4.4649    0.6899   -1.6424 C   0  0  0  0  0  0  0  0  0  0  0  0
    4.7566   -0.5039   -1.6123 O   0  0  0  0  0  0  0  0  0  0  0  0
    3.8390    1.7147    0.5589 C   0  0  0  0  0  0  0  0  0  0  0  0
    2.5579   -0.6714   -0.6499 H   0  0  0  0  0  0  0  0  0  0  0  0
    2.9131    2.1512   -1.3421 H   0  0  0  0  0  0  0  0  0  0  0  0
    4.2683    0.8662    1.1040 H   0  0  0  0  0  0  0  0  0  0  0  0
    4.6156    2.4825    0.4780 H   0  0  0  0  0  0  0  0  0  0  0  0
    3.0211    2.1195    1.1647 H   0  0  0  0  0  0  0  0  0  0  0  0
    5.1344    1.6505   -2.3874 N   0  0  0  0  0  0  0  0  0  0  0  0
    6.2697    1.3372   -3.2235 C   0  0  0  0  0  0  0  0  0  0  0  0
    4.7993    2.6094   -2.3831 H   0  0  0  0  0  0  0  0  0  0  0  0
    7.1979    1.4775   -2.6500 H   0  0  0  0  0  0  0  0  0  0  0  0
    6.2006    0.2919   -3.5589 H   0  0  0  0  0  0  0  0  0  0  0  0
    6.2754    2.0035   -4.0987 H   0  0  0  0  0  0  0  0  0  0  0  0
  1  3  1  0  0  0  0
  1  7  1  0  0  0  0
  1  2  2  0  0  0  0
 28 29  1  0  0  0  0
 29 37  1  0  0  0  0
 29 30  2  0  0  0  0
 18 19  1  0  0  0  0
 19 27  1  0  0  0  0
 19 20  2  0  0  0  0
  8  9  1  0  0  0  0
  9 17  1  0  0  0  0
  9 10  2  0  0  0  0
 28 31  1  0  0  0  0
 18 21  1  0  0  0  0
  8 11  1  0  0  0  0
 37 38  1  0  0  0  0
 27 28  1  0  0  0  0
 17 18  1  0  0  0  0
  7  8  1  0  0  0  0
  3  4  1  0  0  0  0
  3  5  1  0  0  0  0
  3  6  1  0  0  0  0
 31 34  1  0  0  0  0
 31 35  1  0  0  0  0
 31 36  1  0  0  0  0
 21 24  1  0  0  0  0
 21 25  1  0  0  0  0
 21 26  1  0  0  0  0
 11 14  1  0  0  0  0
 11 15  1  0  0  0  0
 11 16  1  0  0  0  0
 38 40  1  0  0  0  0
 38 41  1  0  0  0  0
 38 42  1  0  0  0  0
 28 33  1  0  0  0  0
 18 23  1  0  0  0  0
  8 13  1  0  0  0  0
 37 39  1  0  0  0  0
  7 12  1  0  0  0  0
 27 32  1  0  0  0  0
 17 22  1  0  0  0  0
M  END
$$$$

  -OEChem-05262214473D

 42 41  0     1  0  0  0  0  0999 V2000
   -5.7851   -0.9580    0.6237 C   0  0  0  0  0  0  0  0  0  0  0  0
   -6.2213    0.1296    0.2652 O   0  0  0  0  0  0  0  0  0  0  0  0
   -6.7088   -2.1270    0.7168 C   0  0  0  0  0  0  0  0  0  0  0  0
   -7.1713   -2.2193    1.7126 H   0  0  0  0  0  0  0  0  0  0  0  0
   -7.5511   -2.0547    0.0101 H   0  0  0  0  0  0  0  0  0  0  0  0
   -6.2485   -3.1083    0.5191 H   0  0  0  0  0  0  0  0  0  0  0  0
   -4.4733   -1.2411    0.9668 N   0  0  0  0  0  0  0  0  0  0  0  0
   -3.4203   -0.2603    0.9449 C   0  0  2  0  0  0  0  0  0  0  0  0
   -2.1242   -0.9699    0.5759 C   0  0  0  0  0  0  0  0  0  0  0  0
   -1.8694   -2.1225    0.9189 O   0  0  0  0  0  0  0  0  0  0  0  0
   -3.2916    0.4435    2.2868 C   0  0  0  0  0  0  0  0  0  0  0  0
   -4.2421   -2.1920    1.2489 H   0  0  0  0  0  0  0  0  0  0  0  0
   -3.6772    0.4622    0.1625 H   0  0  0  0  0  0  0  0  0  0  0  0
   -3.0345   -0.2644    3.0832 H   0  0  0  0  0  0  0  0  0  0  0  0
   -2.5093    1.2092    2.2599 H   0  0  0  0  0  0  0  0  0  0  0  0
   -4.2338    0.9283    2.5645 H   0  0  0  0  0  0  0  0  0  0  0  0
   -1.2626   -0.1515   -0.1463 N   0  0  0  0  0  0  0  0  0  0  0  0
    0.0431   -0.5785   -0.5755 C   0  0  2  0  0  0  0  0  0  0  0  0
    1.0271    0.5449   -0.2767 C   0  0  0  0  0  0  0  0  0  0  0  0
    0.6884    1.6210    0.2116 O   0  0  0  0  0  0  0  0  0  0  0  0
    0.0519   -0.9295   -2.0552 C   0  0  0  0  0  0  0  0  0  0  0  0
   -1.5766    0.7776   -0.4197 H   0  0  0  0  0  0  0  0  0  0  0  0
    0.3005   -1.4590    0.0231 H   0  0  0  0  0  0  0  0  0  0  0  0
   -0.2038   -0.0595   -2.6710 H   0  0  0  0  0  0  0  0  0  0  0  0
    1.0387   -1.2813   -2.3737 H   0  0  0  0  0  0  0  0  0  0  0  0
   -0.6776   -1.7169   -2.2733 H   0  0  0  0  0  0  0  0  0  0  0  0
    2.3250    0.2240   -0.6588 N   0  0  0  0  0  0  0  0  0  0  0  0
    3.4284    1.1375   -0.5190 C   0  0  2  0  0  0  0  0  0  0  0  0
    4.4031    0.8757   -1.6596 C   0  0  0  0  0  0  0  0  0  0  0  0
    4.6004   -0.2427   -2.1301 O   0  0  0  0  0  0  0  0  0  0  0  0
    4.1133    0.9757    0.8291 C   0  0  0  0  0  0  0  0  0  0  0  0
    2.5180   -0.7087   -1.0186 H   0  0  0  0  0  0  0  0  0  0  0  0
    3.0164    2.1480   -0.6145 H   0  0  0  0  0  0  0  0  0  0  0  0
    4.5324   -0.0307    0.9431 H   0  0  0  0  0  0  0  0  0  0  0  0
    4.9344    1.6907    0.9454 H   0  0  0  0  0  0  0  0  0  0  0  0
    3.4038    1.1350    1.6483 H   0  0  0  0  0  0  0  0  0  0  0  0
    5.0586    2.0312   -2.0615 N   0  0  0  0  0  0  0  0  0  0  0  0
    6.0636    2.0367   -3.0986 C   0  0  0  0  0  0  0  0  0  0  0  0
    4.8035    2.9213   -1.6439 H   0  0  0  0  0  0  0  0  0  0  0  0
    7.0588    1.9142   -2.6462 H   0  0  0  0  0  0  0  0  0  0  0  0
    5.8741    1.2085   -3.7972 H   0  0  0  0  0  0  0  0  0  0  0  0
    6.0235    2.9918   -3.6428 H   0  0  0  0  0  0  0  0  0  0  0  0
  1  3  1  0  0  0  0
  1  7  1  0  0  0  0
  1  2  2  0  0  0  0
 28 29  1  0  0  0  0
 29 37  1  0  0  0  0
 29 30  2  0  0  0  0
 18 19  1  0  0  0  0
 19 27  1  0  0  0  0
 19 20  2  0  0  0  0
  8  9  1  0  0  0  0
  9 17  1  0  0  0  0
  9 10  2  0  0  0  0
 28 31  1  0  0  0  0
 18 21  1  0  0  0  0
  8 11  1  0  0  0  0
 37 38  1  0  0  0  0
 27 28  1  0  0  0  0
 17 18  1  0  0  0  0
  7  8  1  0  0  0  0
  3  4  1  0  0  0  0
  3  5  1  0  0  0  0
  3  6  1  0  0  0  0
 31 34  1  0  0  0  0
 31 35  1  0  0  0  0
 31 36  1  0  0  0  0
 21 24  1  0  0  0  0
 21 25  1  0  0  0  0
 21 26  1  0  0  0  0
 11 14  1  0  0  0  0
 11 15  1  0  0  0  0
 11 16  1  0  0  0  0
 38 40  1  0  0  0  0
 38 41  1  0  0  0  0
 38 42  1  0  0  0  0
 28 33  1  0  0  0  0
 18 23  1  0  0  0  0
  8 13  1  0  0  0  0
 37 39  1  0  0  0  0
  7 12  1  0  0  0  0
 27 32  1  0  0  0  0
 17 22  1  0  0  0  0
M  END
$$$$

  -OEChem-05262214473D

 42 41  0     1  0  0  0  0  0999 V2000
   -5.7851   -0.9580    0.6237 C   0  0  0  0  0  0  0  0  0  0  0  0
   -6.2213    0.1296    0.2652 O   0  0  0  0  0  0  0  0  0  0  0  0
   -6.7088   -2.1270    0.7168 C   0  0  0  0  0  0  0  0  0  0  0  0
   -7.1713   -2.2193    1.7126 H   0  0  0  0  0  0  0  0  0  0  0  0
   -7.5511   -2.0547    0.0101 H   0  0  0  0  0  0  0  0  0  0  0  0
   -6.2485   -3.1083    0.5191 H   0  0  0  0  0  0  0  0  0  0  0  0
   -4.4733   -1.2411    0.9668 N   0  0  0  0  0  0  0  0  0  0  0  0
   -3.4203   -0.2603    0.9449 C   0  0  2  0  0  0  0  0  0  0  0  0
   -2.1242   -0.9699    0.5759 C   0  0  0  0  0  0  0  0  0  0  0  0
   -1.8694   -2.1225    0.9189 O   0  0  0  0  0  0  0  0  0  0  0  0
   -3.2916    0.4435    2.2868 C   0  0  0  0  0  0  0  0  0  0  0  0
   -4.2421   -2.1920    1.2489 H   0  0  0  0  0  0  0  0  0  0  0  0
   -3.6772    0.4622    0.1625 H   0  0  0  0  0  0  0  0  0  0  0  0
   -3.0345   -0.2644    3.0832 H   0  0  0  0  0  0  0  0  0  0  0  0
   -2.5093    1.2092    2.2599 H   0  0  0  0  0  0  0  0  0  0  0  0
   -4.2338    0.9283    2.5645 H   0  0  0  0  0  0  0  0  0  0  0  0
   -1.2626   -0.1515   -0.1463 N   0  0  0  0  0  0  0  0  0  0  0  0
    0.0431   -0.5785   -0.5755 C   0  0  2  0  0  0  0  0  0  0  0  0
    1.0271    0.5449   -0.2767 C   0  0  0  0  0  0  0  0  0  0  0  0
    0.7533    1.5024    0.4440 O   0  0  0  0  0  0  0  0  0  0  0  0
    0.0519   -0.9295   -2.0552 C   0  0  0  0  0  0  0  0  0  0  0  0
   -1.5766    0.7776   -0.4197 H   0  0  0  0  0  0  0  0  0  0  0  0
    0.3005   -1.4590    0.0231 H   0  0  0  0  0  0  0  0  0  0  0  0
   -0.2038   -0.0595   -2.6710 H   0  0  0  0  0  0  0  0  0  0  0  0
    1.0387   -1.2813   -2.3737 H   0  0  0  0  0  0  0  0  0  0  0  0
   -0.6776   -1.7169   -2.2733 H   0  0  0  0  0  0  0  0  0  0  0  0
    2.2358    0.3780   -0.9437 N   0  0  0  0  0  0  0  0  0  0  0  0
    3.3130    1.3285   -0.8571 C   0  0  2  0  0  0  0  0  0  0  0  0
    4.0546    1.3213   -2.1873 C   0  0  0  0  0  0  0  0  0  0  0  0
    4.1948    0.3098   -2.8717 O   0  0  0  0  0  0  0  0  0  0  0  0
    4.2531    0.9963    0.2912 C   0  0  0  0  0  0  0  0  0  0  0  0
    2.3869   -0.4689   -1.4883 H   0  0  0  0  0  0  0  0  0  0  0  0
    2.8556    2.3112   -0.6987 H   0  0  0  0  0  0  0  0  0  0  0  0
    4.7208    0.0151    0.1500 H   0  0  0  0  0  0  0  0  0  0  0  0
    5.0559    1.7364    0.3735 H   0  0  0  0  0  0  0  0  0  0  0  0
    3.7121    0.9727    1.2433 H   0  0  0  0  0  0  0  0  0  0  0  0
    4.5788    2.5679   -2.4994 N   0  0  0  0  0  0  0  0  0  0  0  0
    5.3612    2.8090   -3.6892 C   0  0  0  0  0  0  0  0  0  0  0  0
    4.3795    3.3593   -1.8947 H   0  0  0  0  0  0  0  0  0  0  0  0
    6.4292    2.6817   -3.4584 H   0  0  0  0  0  0  0  0  0  0  0  0
    5.0676    2.0943   -4.4721 H   0  0  0  0  0  0  0  0  0  0  0  0
    5.1826    3.8349   -4.0436 H   0  0  0  0  0  0  0  0  0  0  0  0
  1  3  1  0  0  0  0
  1  7  1  0  0  0  0
  1  2  2  0  0  0  0
 28 29  1  0  0  0  0
 29 37  1  0  0  0  0
 29 30  2  0  0  0  0
 18 19  1  0  0  0  0
 19 27  1  0  0  0  0
 19 20  2  0  0  0  0
  8  9  1  0  0  0  0
  9 17  1  0  0  0  0
  9 10  2  0  0  0  0
 28 31  1  0  0  0  0
 18 21  1  0  0  0  0
  8 11  1  0  0  0  0
 37 38  1  0  0  0  0
 27 28  1  0  0  0  0
 17 18  1  0  0  0  0
  7  8  1  0  0  0  0
  3  4  1  0  0  0  0
  3  5  1  0  0  0  0
  3  6  1  0  0  0  0
 31 34  1  0  0  0  0
 31 35  1  0  0  0  0
 31 36  1  0  0  0  0
 21 24  1  0  0  0  0
 21 25  1  0  0  0  0
 21 26  1  0  0  0  0
 11 14  1  0  0  0  0
 11 15  1  0  0  0  0
 11 16  1  0  0  0  0
 38 40  1  0  0  0  0
 38 41  1  0  0  0  0
 38 42  1  0  0  0  0
 28 33  1  0  0  0  0
 18 23  1  0  0  0  0
  8 13  1  0  0  0  0
 37 39  1  0  0  0  0
  7 12  1  0  0  0  0
 27 32  1  0  0  0  0
 17 22  1  0  0  0  0
M  END
$$$$

  -OEChem-05262214473D

 42 41  0     1  0  0  0  0  0999 V2000
   -5.7851   -0.9580    0.6237 C   0  0  0  0  0  0  0  0  0  0  0  0
   -6.2213    0.1296    0.2652 O   0  0  0  0  0  0  0  0  0  0  0  0
   -6.7088   -2.1270    0.7168 C   0  0  0  0  0  0  0  0  0  0  0  0
   -7.1713   -2.2193    1.7126 H   0  0  0  0  0  0  0  0  0  0  0  0
   -7.5511   -2.0547    0.0101 H   0  0  0  0  0  0  0  0  0  0  0  0
   -6.2485   -3.1083    0.5191 H   0  0  0  0  0  0  0  0  0  0  0  0
   -4.4733   -1.2411    0.9668 N   0  0  0  0  0  0  0  0  0  0  0  0
   -3.4203   -0.2603    0.9449 C   0  0  2  0  0  0  0  0  0  0  0  0
   -2.1242   -0.9699    0.5759 C   0  0  0  0  0  0  0  0  0  0  0  0
   -1.8694   -2.1225    0.9189 O   0  0  0  0  0  0  0  0  0  0  0  0
   -3.2916    0.4435    2.2868 C   0  0  0  0  0  0  0  0  0  0  0  0
   -4.2421   -2.1920    1.2489 H   0  0  0  0  0  0  0  0  0  0  0  0
   -3.6772    0.4622    0.1625 H   0  0  0  0  0  0  0  0  0  0  0  0
   -3.0345   -0.2644    3.0832 H   0  0  0  0  0  0  0  0  0  0  0  0
   -2.5093    1.2092    2.2599 H   0  0  0  0  0  0  0  0  0  0  0  0
   -4.2338    0.9283    2.5645 H   0  0  0  0  0  0  0  0  0  0  0  0
   -1.2626   -0.1515   -0.1463 N   0  0  0  0  0  0  0  0  0  0  0  0
    0.0431   -0.5785   -0.5755 C   0  0  2  0  0  0  0  0  0  0  0  0
    1.0271    0.5449   -0.2767 C   0  0  0  0  0  0  0  0  0  0  0  0
    0.8664    1.3522    0.6363 O   0  0  0  0  0  0  0  0  0  0  0  0
    0.0519   -0.9295   -2.0552 C   0  0  0  0  0  0  0  0  0  0  0  0
   -1.5766    0.7776   -0.4197 H   0  0  0  0  0  0  0  0  0  0  0  0
    0.3005   -1.4590    0.0231 H   0  0  0  0  0  0  0  0  0  0  0  0
   -0.2038   -0.0595   -2.6710 H   0  0  0  0  0  0  0  0  0  0  0  0
    1.0387   -1.2813   -2.3737 H   0  0  0  0  0  0  0  0  0  0  0  0
   -0.6776   -1.7169   -2.2733 H   0  0  0  0  0  0  0  0  0  0  0  0
    2.0873    0.5698   -1.1762 N   0  0  0  0  0  0  0  0  0  0  0  0
    3.1272    1.5637   -1.1298 C   0  0  2  0  0  0  0  0  0  0  0  0
    3.5947    1.8222   -2.5560 C   0  0  0  0  0  0  0  0  0  0  0  0
    3.6334    0.9469   -3.4182 O   0  0  0  0  0  0  0  0  0  0  0  0
    4.2843    1.1134   -0.2517 C   0  0  0  0  0  0  0  0  0  0  0  0
    2.1583   -0.1654   -1.8769 H   0  0  0  0  0  0  0  0  0  0  0  0
    2.6759    2.4748   -0.7220 H   0  0  0  0  0  0  0  0  0  0  0  0
    4.7491    0.2017   -0.6444 H   0  0  0  0  0  0  0  0  0  0  0  0
    5.0617    1.8824   -0.1945 H   0  0  0  0  0  0  0  0  0  0  0  0
    3.9408    0.8993    0.7662 H   0  0  0  0  0  0  0  0  0  0  0  0
    4.0044    3.1352   -2.7411 N   0  0  0  0  0  0  0  0  0  0  0  0
    4.5307    3.6181   -3.9964 C   0  0  0  0  0  0  0  0  0  0  0  0
    3.8999    3.8028   -1.9827 H   0  0  0  0  0  0  0  0  0  0  0  0
    5.6269    3.5268   -3.9943 H   0  0  0  0  0  0  0  0  0  0  0  0
    4.1148    3.0218   -4.8219 H   0  0  0  0  0  0  0  0  0  0  0  0
    4.2511    4.6736   -4.1293 H   0  0  0  0  0  0  0  0  0  0  0  0
  1  3  1  0  0  0  0
  1  7  1  0  0  0  0
  1  2  2  0  0  0  0
 28 29  1  0  0  0  0
 29 37  1  0  0  0  0
 29 30  2  0  0  0  0
 18 19  1  0  0  0  0
 19 27  1  0  0  0  0
 19 20  2  0  0  0  0
  8  9  1  0  0  0  0
  9 17  1  0  0  0  0
  9 10  2  0  0  0  0
 28 31  1  0  0  0  0
 18 21  1  0  0  0  0
  8 11  1  0  0  0  0
 37 38  1  0  0  0  0
 27 28  1  0  0  0  0
 17 18  1  0  0  0  0
  7  8  1  0  0  0  0
  3  4  1  0  0  0  0
  3  5  1  0  0  0  0
  3  6  1  0  0  0  0
 31 34  1  0  0  0  0
 31 35  1  0  0  0  0
 31 36  1  0  0  0  0
 21 24  1  0  0  0  0
 21 25  1  0  0  0  0
 21 26  1  0  0  0  0
 11 14  1  0  0  0  0
 11 15  1  0  0  0  0
 11 16  1  0  0  0  0
 38 40  1  0  0  0  0
 38 41  1  0  0  0  0
 38 42  1  0  0  0  0
 28 33  1  0  0  0  0
 18 23  1  0  0  0  0
  8 13  1  0  0  0  0
 37 39  1  0  0  0  0
  7 12  1  0  0  0  0
 27 32  1  0  0  0  0
 17 22  1  0  0  0  0
M  END
$$$$

  -OEChem-05262214473D

 42 41  0     1  0  0  0  0  0999 V2000
   -5.7851   -0.9580    0.6237 C   0  0  0  0  0  0  0  0  0  0  0  0
   -6.2213    0.1296    0.2652 O   0  0  0  0  0  0  0  0  0  0  0  0
   -6.7088   -2.1270    0.7168 C   0  0  0  0  0  0  0  0  0  0  0  0
   -7.1713   -2.2193    1.7126 H   0  0  0  0  0  0  0  0  0  0  0  0
   -7.5511   -2.0547    0.0101 H   0  0  0  0  0  0  0  0  0  0  0  0
   -6.2485   -3.1083    0.5191 H   0  0  0  0  0  0  0  0  0  0  0  0
   -4.4733   -1.2411    0.9668 N   0  0  0  0  0  0  0  0  0  0  0  0
   -3.4203   -0.2603    0.9449 C   0  0  2  0  0  0  0  0  0  0  0  0
   -2.1242   -0.9699    0.5759 C   0  0  0  0  0  0  0  0  0  0  0  0
   -1.8694   -2.1225    0.9189 O   0  0  0  0  0  0  0  0  0  0  0  0
   -3.2916    0.4435    2.2868 C   0  0  0  0  0  0  0  0  0  0  0  0
   -4.2421   -2.1920    1.2489 H   0  0  0  0  0  0  0  0  0  0  0  0
   -3.6772    0.4622    0.1625 H   0  0  0  0  0  0  0  0  0  0  0  0
   -3.0345   -0.2644    3.0832 H   0  0  0  0  0  0  0  0  0  0  0  0
   -2.5093    1.2092    2.2599 H   0  0  0  0  0  0  0  0  0  0  0  0
   -4.2338    0.9283    2.5645 H   0  0  0  0  0  0  0  0  0  0  0  0
   -1.2626   -0.1515   -0.1463 N   0  0  0  0  0  0  0  0  0  0  0  0
    0.0431   -0.5785   -0.5755 C   0  0  2  0  0  0  0  0  0  0  0  0
    1.0271    0.5449   -0.2767 C   0  0  0  0  0  0  0  0  0  0  0  0
    1.0200    1.1807    0.7753 O   0  0  0  0  0  0  0  0  0  0  0  0
    0.0519   -0.9295   -2.0552 C   0  0  0  0  0  0  0  0  0  0  0  0
   -1.5766    0.7776   -0.4197 H   0  0  0  0  0  0  0  0  0  0  0  0
    0.3005   -1.4590    0.0231 H   0  0  0  0  0  0  0  0  0  0  0  0
   -0.2038   -0.0595   -2.6710 H   0  0  0  0  0  0  0  0  0  0  0  0
    1.0387   -1.2813   -2.3737 H   0  0  0  0  0  0  0  0  0  0  0  0
   -0.6776   -1.7169   -2.2733 H   0  0  0  0  0  0  0  0  0  0  0  0
    1.8898    0.7864   -1.3403 N   0  0  0  0  0  0  0  0  0  0  0  0
    2.8838    1.8271   -1.3183 C   0  0  2  0  0  0  0  0  0  0  0  0
    3.0546    2.3443   -2.7406 C   0  0  0  0  0  0  0  0  0  0  0  0
    2.9545    1.6251   -3.7325 O   0  0  0  0  0  0  0  0  0  0  0  0
    4.2049    1.3188   -0.7624 C   0  0  0  0  0  0  0  0  0  0  0  0
    1.8480    0.1811   -2.1578 H   0  0  0  0  0  0  0  0  0  0  0  0
    2.4896    2.6276   -0.6829 H   0  0  0  0  0  0  0  0  0  0  0  0
    4.6153    0.5161   -1.3860 H   0  0  0  0  0  0  0  0  0  0  0  0
    4.9515    2.1187   -0.7198 H   0  0  0  0  0  0  0  0  0  0  0  0
    4.0743    0.9198    0.2493 H   0  0  0  0  0  0  0  0  0  0  0  0
    3.3747    3.6944   -2.7700 N   0  0  0  0  0  0  0  0  0  0  0  0
    3.6288    4.4088   -3.9992 C   0  0  0  0  0  0  0  0  0  0  0  0
    3.3972    4.2216   -1.9021 H   0  0  0  0  0  0  0  0  0  0  0  0
    4.7068    4.3921   -4.2175 H   0  0  0  0  0  0  0  0  0  0  0  0
    3.0806    3.9279   -4.8227 H   0  0  0  0  0  0  0  0  0  0  0  0
    3.2923    5.4508   -3.8939 H   0  0  0  0  0  0  0  0  0  0  0  0
  1  3  1  0  0  0  0
  1  7  1  0  0  0  0
  1  2  2  0  0  0  0
 28 29  1  0  0  0  0
 29 37  1  0  0  0  0
 29 30  2  0  0  0  0
 18 19  1  0  0  0  0
 19 27  1  0  0  0  0
 19 20  2  0  0  0  0
  8  9  1  0  0  0  0
  9 17  1  0  0  0  0
  9 10  2  0  0  0  0
 28 31  1  0  0  0  0
 18 21  1  0  0  0  0
  8 11  1  0  0  0  0
 37 38  1  0  0  0  0
 27 28  1  0  0  0  0
 17 18  1  0  0  0  0
  7  8  1  0  0  0  0
  3  4  1  0  0  0  0
  3  5  1  0  0  0  0
  3  6  1  0  0  0  0
 31 34  1  0  0  0  0
 31 35  1  0  0  0  0
 31 36  1  0  0  0  0
 21 24  1  0  0  0  0
 21 25  1  0  0  0  0
 21 26  1  0  0  0  0
 11 14  1  0  0  0  0
 11 15  1  0  0  0  0
 11 16  1  0  0  0  0
 38 40  1  0  0  0  0
 38 41  1  0  0  0  0
 38 42  1  0  0  0  0
 28 33  1  0  0  0  0
 18 23  1  0  0  0  0
  8 13  1  0  0  0  0
 37 39  1  0  0  0  0
  7 12  1  0  0  0  0
 27 32  1  0  0  0  0
 17 22  1  0  0  0  0
M  END
$$$$

  -OEChem-05262214473D

 42 41  0     1  0  0  0  0  0999 V2000
   -5.7851   -0.9580    0.6237 C   0  0  0  0  0  0  0  0  0  0  0  0
   -6.2213    0.1296    0.2652 O   0  0  0  0  0  0  0  0  0  0  0  0
   -6.7088   -2.1270    0.7168 C   0  0  0  0  0  0  0  0  0  0  0  0
   -7.1713   -2.2193    1.7126 H   0  0  0  0  0  0  0  0  0  0  0  0
   -7.5511   -2.0547    0.0101 H   0  0  0  0  0  0  0  0  0  0  0  0
   -6.2485   -3.1083    0.5191 H   0  0  0  0  0  0  0  0  0  0  0  0
   -4.4733   -1.2411    0.9668 N   0  0  0  0  0  0  0  0  0  0  0  0
   -3.4203   -0.2603    0.9449 C   0  0  2  0  0  0  0  0  0  0  0  0
   -2.1242   -0.9699    0.5759 C   0  0  0  0  0  0  0  0  0  0  0  0
   -1.8694   -2.1225    0.9189 O   0  0  0  0  0  0  0  0  0  0  0  0
   -3.2916    0.4435    2.2868 C   0  0  0  0  0  0  0  0  0  0  0  0
   -4.2421   -2.1920    1.2489 H   0  0  0  0  0  0  0  0  0  0  0  0
   -3.6772    0.4622    0.1625 H   0  0  0  0  0  0  0  0  0  0  0  0
   -3.0345   -0.2644    3.0832 H   0  0  0  0  0  0  0  0  0  0  0  0
   -2.5093    1.2092    2.2599 H   0  0  0  0  0  0  0  0  0  0  0  0
   -4.2338    0.9283    2.5645 H   0  0  0  0  0  0  0  0  0  0  0  0
   -1.2626   -0.1515   -0.1463 N   0  0  0  0  0  0  0  0  0  0  0  0
    0.0431   -0.5785   -0.5755 C   0  0  2  0  0  0  0  0  0  0  0  0
    1.0271    0.5449   -0.2767 C   0  0  0  0  0  0  0  0  0  0  0  0
    1.2035    0.9996    0.8516 O   0  0  0  0  0  0  0  0  0  0  0  0
    0.0519   -0.9295   -2.0552 C   0  0  0  0  0  0  0  0  0  0  0  0
   -1.5766    0.7776   -0.4197 H   0  0  0  0  0  0  0  0  0  0  0  0
    0.3005   -1.4590    0.0231 H   0  0  0  0  0  0  0  0  0  0  0  0
   -0.2038   -0.0595   -2.6710 H   0  0  0  0  0  0  0  0  0  0  0  0
    1.0387   -1.2813   -2.3737 H   0  0  0  0  0  0  0  0  0  0  0  0
   -0.6776   -1.7169   -2.2733 H   0  0  0  0  0  0  0  0  0  0  0  0
    1.6567    1.0131   -1.4248 N   0  0  0  0  0  0  0  0  0  0  0  0
    2.5993    2.1006   -1.4100 C   0  0  2  0  0  0  0  0  0  0  0  0
    2.4712    2.8521   -2.7284 C   0  0  0  0  0  0  0  0  0  0  0  0
    2.2042    2.2983   -3.7929 O   0  0  0  0  0  0  0  0  0  0  0  0
    4.0203    1.5985   -1.2063 C   0  0  0  0  0  0  0  0  0  0  0  0
    1.4770    0.5470   -2.3120 H   0  0  0  0  0  0  0  0  0  0  0  0
    2.3093    2.7592   -0.5839 H   0  0  0  0  0  0  0  0  0  0  0  0
    4.3285    0.9370   -2.0242 H   0  0  0  0  0  0  0  0  0  0  0  0
    4.7327    2.4291   -1.1666 H   0  0  0  0  0  0  0  0  0  0  0  0
    4.1036    1.0329   -0.2720 H   0  0  0  0  0  0  0  0  0  0  0  0
    2.7326    4.2074   -2.5842 N   0  0  0  0  0  0  0  0  0  0  0  0
    2.7170    5.1272   -3.6976 C   0  0  0  0  0  0  0  0  0  0  0  0
    2.9059    4.5871   -1.6582 H   0  0  0  0  0  0  0  0  0  0  0  0
    3.7315    5.2185   -4.1128 H   0  0  0  0  0  0  0  0  0  0  0  0
    2.0355    4.7507   -4.4746 H   0  0  0  0  0  0  0  0  0  0  0  0
    2.3717    6.1134   -3.3536 H   0  0  0  0  0  0  0  0  0  0  0  0
  1  3  1  0  0  0  0
  1  7  1  0  0  0  0
  1  2  2  0  0  0  0
 28 29  1  0  0  0  0
 29 37  1  0  0  0  0
 29 30  2  0  0  0  0
 18 19  1  0  0  0  0
 19 27  1  0  0  0  0
 19 20  2  0  0  0  0
  8  9  1  0  0  0  0
  9 17  1  0  0  0  0
  9 10  2  0  0  0  0
 28 31  1  0  0  0  0
 18 21  1  0  0  0  0
  8 11  1  0  0  0  0
 37 38  1  0  0  0  0
 27 28  1  0  0  0  0
 17 18  1  0  0  0  0
  7  8  1  0  0  0  0
  3  4  1  0  0  0  0
  3  5  1  0  0  0  0
  3  6  1  0  0  0  0
 31 34  1  0  0  0  0
 31 35  1  0  0  0  0
 31 36  1  0  0  0  0
 21 24  1  0  0  0  0
 21 25  1  0  0  0  0
 21 26  1  0  0  0  0
 11 14  1  0  0  0  0
 11 15  1  0  0  0  0
 11 16  1  0  0  0  0
 38 40  1  0  0  0  0
 38 41  1  0  0  0  0
 38 42  1  0  0  0  0
 28 33  1  0  0  0  0
 18 23  1  0  0  0  0
  8 13  1  0  0  0  0
 37 39  1  0  0  0  0
  7 12  1  0  0  0  0
 27 32  1  0  0  0  0
 17 22  1  0  0  0  0
M  END
$$$$

  -OEChem-05262214473D

 42 41  0     1  0  0  0  0  0999 V2000
   -5.7851   -0.9580    0.6237 C   0  0  0  0  0  0  0  0  0  0  0  0
   -6.2213    0.1296    0.2652 O   0  0  0  0  0  0  0  0  0  0  0  0
   -6.7088   -2.1270    0.7168 C   0  0  0  0  0  0  0  0  0  0  0  0
   -7.1713   -2.2193    1.7126 H   0  0  0  0  0  0  0  0  0  0  0  0
   -7.5511   -2.0547    0.0101 H   0  0  0  0  0  0  0  0  0  0  0  0
   -6.2485   -3.1083    0.5191 H   0  0  0  0  0  0  0  0  0  0  0  0
   -4.4733   -1.2411    0.9668 N   0  0  0  0  0  0  0  0  0  0  0  0
   -3.4203   -0.2603    0.9449 C   0  0  2  0  0  0  0  0  0  0  0  0
   -2.1242   -0.9699    0.5759 C   0  0  0  0  0  0  0  0  0  0  0  0
   -1.8694   -2.1225    0.9189 O   0  0  0  0  0  0  0  0  0  0  0  0
   -3.2916    0.4435    2.2868 C   0  0  0  0  0  0  0  0  0  0  0  0
   -4.2421   -2.1920    1.2489 H   0  0  0  0  0  0  0  0  0  0  0  0
   -3.6772    0.4622    0.1625 H   0  0  0  0  0  0  0  0  0  0  0  0
   -3.0345   -0.2644    3.0832 H   0  0  0  0  0  0  0  0  0  0  0  0
   -2.5093    1.2092    2.2599 H   0  0  0  0  0  0  0  0  0  0  0  0
   -4.2338    0.9283    2.5645 H   0  0  0  0  0  0  0  0  0  0  0  0
   -1.2626   -0.1515   -0.1463 N   0  0  0  0  0  0  0  0  0  0  0  0
    0.0431   -0.5785   -0.5755 C   0  0  2  0  0  0  0  0  0  0  0  0
    1.0271    0.5449   -0.2767 C   0  0  0  0  0  0  0  0  0  0  0  0
    1.4046    0.8213    0.8600 O   0  0  0  0  0  0  0  0  0  0  0  0
    0.0519   -0.9295   -2.0552 C   0  0  0  0  0  0  0  0  0  0  0  0
   -1.5766    0.7776   -0.4197 H   0  0  0  0  0  0  0  0  0  0  0  0
    0.3005   -1.4590    0.0231 H   0  0  0  0  0  0  0  0  0  0  0  0
   -0.2038   -0.0595   -2.6710 H   0  0  0  0  0  0  0  0  0  0  0  0
    1.0387   -1.2813   -2.3737 H   0  0  0  0  0  0  0  0  0  0  0  0
   -0.6776   -1.7169   -2.2733 H   0  0  0  0  0  0  0  0  0  0  0  0
    1.4039    1.2343   -1.4241 N   0  0  0  0  0  0  0  0  0  0  0  0
    2.2931    2.3657   -1.3984 C   0  0  2  0  0  0  0  0  0  0  0  0
    1.8842    3.3109   -2.5204 C   0  0  0  0  0  0  0  0  0  0  0  0
    1.4338    2.9206   -3.5956 O   0  0  0  0  0  0  0  0  0  0  0  0
    3.7430    1.9336   -1.5530 C   0  0  0  0  0  0  0  0  0  0  0  0
    1.0707    0.9074   -2.3289 H   0  0  0  0  0  0  0  0  0  0  0  0
    2.1474    2.8605   -0.4320 H   0  0  0  0  0  0  0  0  0  0  0  0
    3.9082    1.4358   -2.5154 H   0  0  0  0  0  0  0  0  0  0  0  0
    4.4203    2.7926   -1.5046 H   0  0  0  0  0  0  0  0  0  0  0  0
    4.0266    1.2307   -0.7622 H   0  0  0  0  0  0  0  0  0  0  0  0
    2.1217    4.6393   -2.1964 N   0  0  0  0  0  0  0  0  0  0  0  0
    1.8573    5.7245   -3.1120 C   0  0  0  0  0  0  0  0  0  0  0  0
    2.4593    4.8744   -1.2676 H   0  0  0  0  0  0  0  0  0  0  0  0
    2.7675    5.9496   -3.6872 H   0  0  0  0  0  0  0  0  0  0  0  0
    1.0506    5.4342   -3.8012 H   0  0  0  0  0  0  0  0  0  0  0  0
    1.5520    6.6163   -2.5451 H   0  0  0  0  0  0  0  0  0  0  0  0
  1  3  1  0  0  0  0
  1  7  1  0  0  0  0
  1  2  2  0  0  0  0
 28 29  1  0  0  0  0
 29 37  1  0  0  0  0
 29 30  2  0  0  0  0
 18 19  1  0  0  0  0
 19 27  1  0  0  0  0
 19 20  2  0  0  0  0
  8  9  1  0  0  0  0
  9 17  1  0  0  0  0
  9 10  2  0  0  0  0
 28 31  1  0  0  0  0
 18 21  1  0  0  0  0
  8 11  1  0  0  0  0
 37 38  1  0  0  0  0
 27 28  1  0  0  0  0
 17 18  1  0  0  0  0
  7  8  1  0  0  0  0
  3  4  1  0  0  0  0
  3  5  1  0  0  0  0
  3  6  1  0  0  0  0
 31 34  1  0  0  0  0
 31 35  1  0  0  0  0
 31 36  1  0  0  0  0
 21 24  1  0  0  0  0
 21 25  1  0  0  0  0
 21 26  1  0  0  0  0
 11 14  1  0  0  0  0
 11 15  1  0  0  0  0
 11 16  1  0  0  0  0
 38 40  1  0  0  0  0
 38 41  1  0  0  0  0
 38 42  1  0  0  0  0
 28 33  1  0  0  0  0
 18 23  1  0  0  0  0
  8 13  1  0  0  0  0
 37 39  1  0  0  0  0
  7 12  1  0  0  0  0
 27 32  1  0  0  0  0
 17 22  1  0  0  0  0
M  END
$$$$

  -OEChem-05262214473D

 42 41  0     1  0  0  0  0  0999 V2000
   -5.7851   -0.9580    0.6237 C   0  0  0  0  0  0  0  0  0  0  0  0
   -6.2213    0.1296    0.2652 O   0  0  0  0  0  0  0  0  0  0  0  0
   -6.7088   -2.1270    0.7168 C   0  0  0  0  0  0  0  0  0  0  0  0
   -7.1713   -2.2193    1.7126 H   0  0  0  0  0  0  0  0  0  0  0  0
   -7.5511   -2.0547    0.0101 H   0  0  0  0  0  0  0  0  0  0  0  0
   -6.2485   -3.1083    0.5191 H   0  0  0  0  0  0  0  0  0  0  0  0
   -4.4733   -1.2411    0.9668 N   0  0  0  0  0  0  0  0  0  0  0  0
   -3.4203   -0.2603    0.9449 C   0  0  2  0  0  0  0  0  0  0  0  0
   -2.1242   -0.9699    0.5759 C   0  0  0  0  0  0  0  0  0  0  0  0
   -1.8694   -2.1225    0.9189 O   0  0  0  0  0  0  0  0  0  0  0  0
   -3.2916    0.4435    2.2868 C   0  0  0  0  0  0  0  0  0  0  0  0
   -4.2421   -2.1920    1.2489 H   0  0  0  0  0  0  0  0  0  0  0  0
   -3.6772    0.4622    0.1625 H   0  0  0  0  0  0  0  0  0  0  0  0
   -3.0345   -0.2644    3.0832 H   0  0  0  0  0  0  0  0  0  0  0  0
   -2.5093    1.2092    2.2599 H   0  0  0  0  0  0  0  0  0  0  0  0
   -4.2338    0.9283    2.5645 H   0  0  0  0  0  0  0  0  0  0  0  0
   -1.2626   -0.1515   -0.1463 N   0  0  0  0  0  0  0  0  0  0  0  0
    0.0431   -0.5785   -0.5755 C   0  0  2  0  0  0  0  0  0  0  0  0
    1.0271    0.5449   -0.2767 C   0  0  0  0  0  0  0  0  0  0  0  0
    1.6095    0.6578    0.7999 O   0  0  0  0  0  0  0  0  0  0  0  0
    0.0519   -0.9295   -2.0552 C   0  0  0  0  0  0  0  0  0  0  0  0
   -1.5766    0.7776   -0.4197 H   0  0  0  0  0  0  0  0  0  0  0  0
    0.3005   -1.4590    0.0231 H   0  0  0  0  0  0  0  0  0  0  0  0
   -0.2038   -0.0595   -2.6710 H   0  0  0  0  0  0  0  0  0  0  0  0
    1.0387   -1.2813   -2.3737 H   0  0  0  0  0  0  0  0  0  0  0  0
   -0.6776   -1.7169   -2.2733 H   0  0  0  0  0  0  0  0  0  0  0  0
    1.1486    1.4351   -1.3382 N   0  0  0  0  0  0  0  0  0  0  0  0
    1.9861    2.6043   -1.2844 C   0  0  2  0  0  0  0  0  0  0  0  0
    1.3336    3.6895   -2.1307 C   0  0  0  0  0  0  0  0  0  0  0  0
    0.6957    3.4495   -3.1538 O   0  0  0  0  0  0  0  0  0  0  0  0
    3.3919    2.3011   -1.7789 C   0  0  0  0  0  0  0  0  0  0  0  0
    0.6566    1.2378   -2.2074 H   0  0  0  0  0  0  0  0  0  0  0  0
    2.0149    2.9249   -0.2373 H   0  0  0  0  0  0  0  0  0  0  0  0
    3.3832    1.9783   -2.8264 H   0  0  0  0  0  0  0  0  0  0  0  0
    4.0356    3.1843   -1.7106 H   0  0  0  0  0  0  0  0  0  0  0  0
    3.8486    1.4998   -1.1880 H   0  0  0  0  0  0  0  0  0  0  0  0
    1.5838    4.9606   -1.6329 N   0  0  0  0  0  0  0  0  0  0  0  0
    1.1084    6.1598   -2.2824 C   0  0  0  0  0  0  0  0  0  0  0  0
    2.0878    5.0640   -0.7571 H   0  0  0  0  0  0  0  0  0  0  0  0
    1.8804    6.5358   -2.9699 H   0  0  0  0  0  0  0  0  0  0  0  0
    0.1932    5.9318   -2.8485 H   0  0  0  0  0  0  0  0  0  0  0  0
    0.8890    6.9253   -1.5236 H   0  0  0  0  0  0  0  0  0  0  0  0
  1  3  1  0  0  0  0
  1  7  1  0  0  0  0
  1  2  2  0  0  0  0
 28 29  1  0  0  0  0
 29 37  1  0  0  0  0
 29 30  2  0  0  0  0
 18 19  1  0  0  0  0
 19 27  1  0  0  0  0
 19 20  2  0  0  0  0
  8  9  1  0  0  0  0
  9 17  1  0  0  0  0
  9 10  2  0  0  0  0
 28 31  1  0  0  0  0
 18 21  1  0  0  0  0
  8 11  1  0  0  0  0
 37 38  1  0  0  0  0
 27 28  1  0  0  0  0
 17 18  1  0  0  0  0
  7  8  1  0  0  0  0
  3  4  1  0  0  0  0
  3  5  1  0  0  0  0
  3  6  1  0  0  0  0
 31 34  1  0  0  0  0
 31 35  1  0  0  0  0
 31 36  1  0  0  0  0
 21 24  1  0  0  0  0
 21 25  1  0  0  0  0
 21 26  1  0  0  0  0
 11 14  1  0  0  0  0
 11 15  1  0  0  0  0
 11 16  1  0  0  0  0
 38 40  1  0  0  0  0
 38 41  1  0  0  0  0
 38 42  1  0  0  0  0
 28 33  1  0  0  0  0
 18 23  1  0  0  0  0
  8 13  1  0  0  0  0
 37 39  1  0  0  0  0
  7 12  1  0  0  0  0
 27 32  1  0  0  0  0
 17 22  1  0  0  0  0
M  END
$$$$

  -OEChem-05262214473D

 42 41  0     1  0  0  0  0  0999 V2000
   -5.7851   -0.9580    0.6237 C   0  0  0  0  0  0  0  0  0  0  0  0
   -6.2213    0.1296    0.2652 O   0  0  0  0  0  0  0  0  0  0  0  0
   -6.7088   -2.1270    0.7168 C   0  0  0  0  0  0  0  0  0  0  0  0
   -7.1713   -2.2193    1.7126 H   0  0  0  0  0  0  0  0  0  0  0  0
   -7.5511   -2.0547    0.0101 H   0  0  0  0  0  0  0  0  0  0  0  0
   -6.2485   -3.1083    0.5191 H   0  0  0  0  0  0  0  0  0  0  0  0
   -4.4733   -1.2411    0.9668 N   0  0  0  0  0  0  0  0  0  0  0  0
   -3.4203   -0.2603    0.9449 C   0  0  2  0  0  0  0  0  0  0  0  0
   -2.1242   -0.9699    0.5759 C   0  0  0  0  0  0  0  0  0  0  0  0
   -1.8694   -2.1225    0.9189 O   0  0  0  0  0  0  0  0  0  0  0  0
   -3.2916    0.4435    2.2868 C   0  0  0  0  0  0  0  0  0  0  0  0
   -4.2421   -2.1920    1.2489 H   0  0  0  0  0  0  0  0  0  0  0  0
   -3.6772    0.4622    0.1625 H   0  0  0  0  0  0  0  0  0  0  0  0
   -3.0345   -0.2644    3.0832 H   0  0  0  0  0  0  0  0  0  0  0  0
   -2.5093    1.2092    2.2599 H   0  0  0  0  0  0  0  0  0  0  0  0
   -4.2338    0.9283    2.5645 H   0  0  0  0  0  0  0  0  0  0  0  0
   -1.2626   -0.1515   -0.1463 N   0  0  0  0  0  0  0  0  0  0  0  0
    0.0431   -0.5785   -0.5755 C   0  0  2  0  0  0  0  0  0  0  0  0
    1.0271    0.5449   -0.2767 C   0  0  0  0  0  0  0  0  0  0  0  0
    1.8042    0.5204    0.6754 O   0  0  0  0  0  0  0  0  0  0  0  0
    0.0519   -0.9295   -2.0552 C   0  0  0  0  0  0  0  0  0  0  0  0
   -1.5766    0.7776   -0.4197 H   0  0  0  0  0  0  0  0  0  0  0  0
    0.3005   -1.4590    0.0231 H   0  0  0  0  0  0  0  0  0  0  0  0
   -0.2038   -0.0595   -2.6710 H   0  0  0  0  0  0  0  0  0  0  0  0
    1.0387   -1.2813   -2.3737 H   0  0  0  0  0  0  0  0  0  0  0  0
   -0.6776   -1.7169   -2.2733 H   0  0  0  0  0  0  0  0  0  0  0  0
    0.9082    1.6017   -1.1728 N   0  0  0  0  0  0  0  0  0  0  0  0
    1.6992    2.8001   -1.0759 C   0  0  2  0  0  0  0  0  0  0  0  0
    0.8570    3.9620   -1.5859 C   0  0  0  0  0  0  0  0  0  0  0  0
    0.0403    3.8491   -2.4977 O   0  0  0  0  0  0  0  0  0  0  0  0
    2.9910    2.6761   -1.8686 C   0  0  0  0  0  0  0  0  0  0  0  0
    0.2631    1.5155   -1.9558 H   0  0  0  0  0  0  0  0  0  0  0  0
    1.9208    2.9477   -0.0133 H   0  0  0  0  0  0  0  0  0  0  0  0
    2.7891    2.5277   -2.9357 H   0  0  0  0  0  0  0  0  0  0  0  0
    3.6048    3.5777   -1.7706 H   0  0  0  0  0  0  0  0  0  0  0  0
    3.5817    1.8220   -1.5202 H   0  0  0  0  0  0  0  0  0  0  0  0
    1.1555    5.1494   -0.9322 N   0  0  0  0  0  0  0  0  0  0  0  0
    0.5212    6.4035   -1.2653 C   0  0  0  0  0  0  0  0  0  0  0  0
    1.8169    5.1428   -0.1614 H   0  0  0  0  0  0  0  0  0  0  0  0
    1.1308    6.9370   -2.0096 H   0  0  0  0  0  0  0  0  0  0  0  0
   -0.4784    6.2096   -1.6813 H   0  0  0  0  0  0  0  0  0  0  0  0
    0.4280    7.0193   -0.3586 H   0  0  0  0  0  0  0  0  0  0  0  0
  1  3  1  0  0  0  0
  1  7  1  0  0  0  0
  1  2  2  0  0  0  0
 28 29  1  0  0  0  0
 29 37  1  0  0  0  0
 29 30  2  0  0  0  0
 18 19  1  0  0  0  0
 19 27  1  0  0  0  0
 19 20  2  0  0  0  0
  8  9  1  0  0  0  0
  9 17  1  0  0  0  0
  9 10  2  0  0  0  0
 28 31  1  0  0  0  0
 18 21  1  0  0  0  0
  8 11  1  0  0  0  0
 37 38  1  0  0  0  0
 27 28  1  0  0  0  0
 17 18  1  0  0  0  0
  7  8  1  0  0  0  0
  3  4  1  0  0  0  0
  3  5  1  0  0  0  0
  3  6  1  0  0  0  0
 31 34  1  0  0  0  0
 31 35  1  0  0  0  0
 31 36  1  0  0  0  0
 21 24  1  0  0  0  0
 21 25  1  0  0  0  0
 21 26  1  0  0  0  0
 11 14  1  0  0  0  0
 11 15  1  0  0  0  0
 11 16  1  0  0  0  0
 38 40  1  0  0  0  0
 38 41  1  0  0  0  0
 38 42  1  0  0  0  0
 28 33  1  0  0  0  0
 18 23  1  0  0  0  0
  8 13  1  0  0  0  0
 37 39  1  0  0  0  0
  7 12  1  0  0  0  0
 27 32  1  0  0  0  0
 17 22  1  0  0  0  0
M  END
$$$$

  -OEChem-05262214473D

 42 41  0     1  0  0  0  0  0999 V2000
   -5.7851   -0.9580    0.6237 C   0  0  0  0  0  0  0  0  0  0  0  0
   -6.2213    0.1296    0.2652 O   0  0  0  0  0  0  0  0  0  0  0  0
   -6.7088   -2.1270    0.7168 C   0  0  0  0  0  0  0  0  0  0  0  0
   -7.1713   -2.2193    1.7126 H   0  0  0  0  0  0  0  0  0  0  0  0
   -7.5511   -2.0547    0.0101 H   0  0  0  0  0  0  0  0  0  0  0  0
   -6.2485   -3.1083    0.5191 H   0  0  0  0  0  0  0  0  0  0  0  0
   -4.4733   -1.2411    0.9668 N   0  0  0  0  0  0  0  0  0  0  0  0
   -3.4203   -0.2603    0.9449 C   0  0  2  0  0  0  0  0  0  0  0  0
   -2.1242   -0.9699    0.5759 C   0  0  0  0  0  0  0  0  0  0  0  0
   -1.8694   -2.1225    0.9189 O   0  0  0  0  0  0  0  0  0  0  0  0
   -3.2916    0.4435    2.2868 C   0  0  0  0  0  0  0  0  0  0  0  0
   -4.2421   -2.1920    1.2489 H   0  0  0  0  0  0  0  0  0  0  0  0
   -3.6772    0.4622    0.1625 H   0  0  0  0  0  0  0  0  0  0  0  0
   -3.0345   -0.2644    3.0832 H   0  0  0  0  0  0  0  0  0  0  0  0
   -2.5093    1.2092    2.2599 H   0  0  0  0  0  0  0  0  0  0  0  0
   -4.2338    0.9283    2.5645 H   0  0  0  0  0  0  0  0  0  0  0  0
   -1.2626   -0.1515   -0.1463 N   0  0  0  0  0  0  0  0  0  0  0  0
    0.0431   -0.5785   -0.5755 C   0  0  2  0  0  0  0  0  0  0  0  0
    1.0271    0.5449   -0.2767 C   0  0  0  0  0  0  0  0  0  0  0  0
    1.9755    0.4183    0.4949 O   0  0  0  0  0  0  0  0  0  0  0  0
    0.0519   -0.9295   -2.0552 C   0  0  0  0  0  0  0  0  0  0  0  0
   -1.5766    0.7776   -0.4197 H   0  0  0  0  0  0  0  0  0  0  0  0
    0.3005   -1.4590    0.0231 H   0  0  0  0  0  0  0  0  0  0  0  0
   -0.2038   -0.0595   -2.6710 H   0  0  0  0  0  0  0  0  0  0  0  0
    1.0387   -1.2813   -2.3737 H   0  0  0  0  0  0  0  0  0  0  0  0
   -0.6776   -1.7169   -2.2733 H   0  0  0  0  0  0  0  0  0  0  0  0
    0.6991    1.7227   -0.9394 N   0  0  0  0  0  0  0  0  0  0  0  0
    1.4519    2.9398   -0.7869 C   0  0  2  0  0  0  0  0  0  0  0  0
    0.4867    4.1100   -0.9230 C   0  0  0  0  0  0  0  0  0  0  0  0
   -0.4878    4.0920   -1.6720 O   0  0  0  0  0  0  0  0  0  0  0  0
    2.5677    3.0330   -1.8161 C   0  0  0  0  0  0  0  0  0  0  0  0
   -0.0831    1.7217   -1.5912 H   0  0  0  0  0  0  0  0  0  0  0  0
    1.8715    2.9275    0.2250 H   0  0  0  0  0  0  0  0  0  0  0  0
    2.1666    3.0465   -2.8361 H   0  0  0  0  0  0  0  0  0  0  0  0
    3.1572    3.9457   -1.6806 H   0  0  0  0  0  0  0  0  0  0  0  0
    3.2441    2.1751   -1.7363 H   0  0  0  0  0  0  0  0  0  0  0  0
    0.8659    5.1928   -0.1421 N   0  0  0  0  0  0  0  0  0  0  0  0
    0.1359    6.4390   -0.1300 C   0  0  0  0  0  0  0  0  0  0  0  0
    1.6649    5.1056    0.4789 H   0  0  0  0  0  0  0  0  0  0  0  0
    0.5696    7.1258   -0.8718 H   0  0  0  0  0  0  0  0  0  0  0  0
   -0.9184    6.2486   -0.3792 H   0  0  0  0  0  0  0  0  0  0  0  0
    0.2002    6.8918    0.8704 H   0  0  0  0  0  0  0  0  0  0  0  0
  1  3  1  0  0  0  0
  1  7  1  0  0  0  0
  1  2  2  0  0  0  0
 28 29  1  0  0  0  0
 29 37  1  0  0  0  0
 29 30  2  0  0  0  0
 18 19  1  0  0  0  0
 19 27  1  0  0  0  0
 19 20  2  0  0  0  0
  8  9  1  0  0  0  0
  9 17  1  0  0  0  0
  9 10  2  0  0  0  0
 28 31  1  0  0  0  0
 18 21  1  0  0  0  0
  8 11  1  0  0  0  0
 37 38  1  0  0  0  0
 27 28  1  0  0  0  0
 17 18  1  0  0  0  0
  7  8  1  0  0  0  0
  3  4  1  0  0  0  0
  3  5  1  0  0  0  0
  3  6  1  0  0  0  0
 31 34  1  0  0  0  0
 31 35  1  0  0  0  0
 31 36  1  0  0  0  0
 21 24  1  0  0  0  0
 21 25  1  0  0  0  0
 21 26  1  0  0  0  0
 11 14  1  0  0  0  0
 11 15  1  0  0  0  0
 11 16  1  0  0  0  0
 38 40  1  0  0  0  0
 38 41  1  0  0  0  0
 38 42  1  0  0  0  0
 28 33  1  0  0  0  0
 18 23  1  0  0  0  0
  8 13  1  0  0  0  0
 37 39  1  0  0  0  0
  7 12  1  0  0  0  0
 27 32  1  0  0  0  0
 17 22  1  0  0  0  0
M  END
$$$$

  -OEChem-05262214473D

 42 41  0     1  0  0  0  0  0999 V2000
   -5.7851   -0.9580    0.6237 C   0  0  0  0  0  0  0  0  0  0  0  0
   -6.2213    0.1296    0.2652 O   0  0  0  0  0  0  0  0  0  0  0  0
   -6.7088   -2.1270    0.7168 C   0  0  0  0  0  0  0  0  0  0  0  0
   -7.1713   -2.2193    1.7126 H   0  0  0  0  0  0  0  0  0  0  0  0
   -7.5511   -2.0547    0.0101 H   0  0  0  0  0  0  0  0  0  0  0  0
   -6.2485   -3.1083    0.5191 H   0  0  0  0  0  0  0  0  0  0  0  0
   -4.4733   -1.2411    0.9668 N   0  0  0  0  0  0  0  0  0  0  0  0
   -3.4203   -0.2603    0.9449 C   0  0  2  0  0  0  0  0  0  0  0  0
   -2.1242   -0.9699    0.5759 C   0  0  0  0  0  0  0  0  0  0  0  0
   -1.8694   -2.1225    0.9189 O   0  0  0  0  0  0  0  0  0  0  0  0
   -3.2916    0.4435    2.2868 C   0  0  0  0  0  0  0  0  0  0  0  0
   -4.2421   -2.1920    1.2489 H   0  0  0  0  0  0  0  0  0  0  0  0
   -3.6772    0.4622    0.1625 H   0  0  0  0  0  0  0  0  0  0  0  0
   -3.0345   -0.2644    3.0832 H   0  0  0  0  0  0  0  0  0  0  0  0
   -2.5093    1.2092    2.2599 H   0  0  0  0  0  0  0  0  0  0  0  0
   -4.2338    0.9283    2.5645 H   0  0  0  0  0  0  0  0  0  0  0  0
   -1.2626   -0.1515   -0.1463 N   0  0  0  0  0  0  0  0  0  0  0  0
    0.0431   -0.5785   -0.5755 C   0  0  2  0  0  0  0  0  0  0  0  0
    1.0271    0.5449   -0.2767 C   0  0  0  0  0  0  0  0  0  0  0  0
    2.1117    0.3587    0.2709 O   0  0  0  0  0  0  0  0  0  0  0  0
    0.0519   -0.9295   -2.0552 C   0  0  0  0  0  0  0  0  0  0  0  0
   -1.5766    0.7776   -0.4197 H   0  0  0  0  0  0  0  0  0  0  0  0
    0.3005   -1.4590    0.0231 H   0  0  0  0  0  0  0  0  0  0  0  0
   -0.2038   -0.0595   -2.6710 H   0  0  0  0  0  0  0  0  0  0  0  0
    1.0387   -1.2813   -2.3737 H   0  0  0  0  0  0  0  0  0  0  0  0
   -0.6776   -1.7169   -2.2733 H   0  0  0  0  0  0  0  0  0  0  0  0
    0.5356    1.7900   -0.6537 N   0  0  0  0  0  0  0  0  0  0  0  0
    1.2612    3.0139   -0.4372 C   0  0  2  0  0  0  0  0  0  0  0  0
    0.2481    4.1233   -0.1873 C   0  0  0  0  0  0  0  0  0  0  0  0
   -0.8527    4.1619   -0.7330 O   0  0  0  0  0  0  0  0  0  0  0  0
    2.1506    3.3474   -1.6248 C   0  0  0  0  0  0  0  0  0  0  0  0
   -0.3583    1.8424   -1.1384 H   0  0  0  0  0  0  0  0  0  0  0  0
    1.8704    2.8657    0.4611 H   0  0  0  0  0  0  0  0  0  0  0  0
    1.5579    3.4994   -2.5342 H   0  0  0  0  0  0  0  0  0  0  0  0
    2.7234    4.2635   -1.4467 H   0  0  0  0  0  0  0  0  0  0  0  0
    2.8588    2.5352   -1.8215 H   0  0  0  0  0  0  0  0  0  0  0  0
    0.7349    5.0880    0.6837 N   0  0  0  0  0  0  0  0  0  0  0  0
   -0.0213    6.2639    1.0461 C   0  0  0  0  0  0  0  0  0  0  0  0
    1.6423    4.9549    1.1203 H   0  0  0  0  0  0  0  0  0  0  0  0
    0.2353    7.0895    0.3659 H   0  0  0  0  0  0  0  0  0  0  0  0
   -1.0968    6.0463    0.9690 H   0  0  0  0  0  0  0  0  0  0  0  0
    0.2214    6.5517    2.0797 H   0  0  0  0  0  0  0  0  0  0  0  0
  1  3  1  0  0  0  0
  1  7  1  0  0  0  0
  1  2  2  0  0  0  0
 28 29  1  0  0  0  0
 29 37  1  0  0  0  0
 29 30  2  0  0  0  0
 18 19  1  0  0  0  0
 19 27  1  0  0  0  0
 19 20  2  0  0  0  0
  8  9  1  0  0  0  0
  9 17  1  0  0  0  0
  9 10  2  0  0  0  0
 28 31  1  0  0  0  0
 18 21  1  0  0  0  0
  8 11  1  0  0  0  0
 37 38  1  0  0  0  0
 27 28  1  0  0  0  0
 17 18  1  0  0  0  0
  7  8  1  0  0  0  0
  3  4  1  0  0  0  0
  3  5  1  0  0  0  0
  3  6  1  0  0  0  0
 31 34  1  0  0  0  0
 31 35  1  0  0  0  0
 31 36  1  0  0  0  0
 21 24  1  0  0  0  0
 21 25  1  0  0  0  0
 21 26  1  0  0  0  0
 11 14  1  0  0  0  0
 11 15  1  0  0  0  0
 11 16  1  0  0  0  0
 38 40  1  0  0  0  0
 38 41  1  0  0  0  0
 38 42  1  0  0  0  0
 28 33  1  0  0  0  0
 18 23  1  0  0  0  0
  8 13  1  0  0  0  0
 37 39  1  0  0  0  0
  7 12  1  0  0  0  0
 27 32  1  0  0  0  0
 17 22  1  0  0  0  0
M  END
$$$$

  -OEChem-05262214473D

 42 41  0     1  0  0  0  0  0999 V2000
   -5.7851   -0.9580    0.6237 C   0  0  0  0  0  0  0  0  0  0  0  0
   -6.2213    0.1296    0.2652 O   0  0  0  0  0  0  0  0  0  0  0  0
   -6.7088   -2.1270    0.7168 C   0  0  0  0  0  0  0  0  0  0  0  0
   -7.1713   -2.2193    1.7126 H   0  0  0  0  0  0  0  0  0  0  0  0
   -7.5511   -2.0547    0.0101 H   0  0  0  0  0  0  0  0  0  0  0  0
   -6.2485   -3.1083    0.5191 H   0  0  0  0  0  0  0  0  0  0  0  0
   -4.4733   -1.2411    0.9668 N   0  0  0  0  0  0  0  0  0  0  0  0
   -3.4203   -0.2603    0.9449 C   0  0  2  0  0  0  0  0  0  0  0  0
   -2.1242   -0.9699    0.5759 C   0  0  0  0  0  0  0  0  0  0  0  0
   -1.8694   -2.1225    0.9189 O   0  0  0  0  0  0  0  0  0  0  0  0
   -3.2916    0.4435    2.2868 C   0  0  0  0  0  0  0  0  0  0  0  0
   -4.2421   -2.1920    1.2489 H   0  0  0  0  0  0  0  0  0  0  0  0
   -3.6772    0.4622    0.1625 H   0  0  0  0  0  0  0  0  0  0  0  0
   -3.0345   -0.2644    3.0832 H   0  0  0  0  0  0  0  0  0  0  0  0
   -2.5093    1.2092    2.2599 H   0  0  0  0  0  0  0  0  0  0  0  0
   -4.2338    0.9283    2.5645 H   0  0  0  0  0  0  0  0  0  0  0  0
   -1.2626   -0.1515   -0.1463 N   0  0  0  0  0  0  0  0  0  0  0  0
    0.0431   -0.5785   -0.5755 C   0  0  2  0  0  0  0  0  0  0  0  0
    1.0271    0.5449   -0.2767 C   0  0  0  0  0  0  0  0  0  0  0  0
    2.2035    0.3454    0.0185 O   0  0  0  0  0  0  0  0  0  0  0  0
    0.0519   -0.9295   -2.0552 C   0  0  0  0  0  0  0  0  0  0  0  0
   -1.5766    0.7776   -0.4197 H   0  0  0  0  0  0  0  0  0  0  0  0
    0.3005   -1.4590    0.0231 H   0  0  0  0  0  0  0  0  0  0  0  0
   -0.2038   -0.0595   -2.6710 H   0  0  0  0  0  0  0  0  0  0  0  0
    1.0387   -1.2813   -2.3737 H   0  0  0  0  0  0  0  0  0  0  0  0
   -0.6776   -1.7169   -2.2733 H   0  0  0  0  0  0  0  0  0  0  0  0
    0.4287    1.7989   -0.3354 N   0  0  0  0  0  0  0  0  0  0  0  0
    1.1399    3.0173   -0.0506 C   0  0  2  0  0  0  0  0  0  0  0  0
    0.1575    4.0010    0.5711 C   0  0  0  0  0  0  0  0  0  0  0  0
   -1.0294    4.0537    0.2554 O   0  0  0  0  0  0  0  0  0  0  0  0
    1.7683    3.5979   -1.3079 C   0  0  0  0  0  0  0  0  0  0  0  0
   -0.5438    1.8692   -0.6283 H   0  0  0  0  0  0  0  0  0  0  0  0
    1.9175    2.7664    0.6791 H   0  0  0  0  0  0  0  0  0  0  0  0
    1.0045    3.8554   -2.0507 H   0  0  0  0  0  0  0  0  0  0  0  0
    2.3328    4.5093   -1.0847 H   0  0  0  0  0  0  0  0  0  0  0  0
    2.4521    2.8778   -1.7701 H   0  0  0  0  0  0  0  0  0  0  0  0
    0.7713    4.8420    1.4888 N   0  0  0  0  0  0  0  0  0  0  0  0
    0.0602    5.8902    2.1829 C   0  0  0  0  0  0  0  0  0  0  0  0
    1.7505    4.7009    1.7188 H   0  0  0  0  0  0  0  0  0  0  0  0
    0.1504    6.8305    1.6192 H   0  0  0  0  0  0  0  0  0  0  0  0
   -1.0014    5.6163    2.2715 H   0  0  0  0  0  0  0  0  0  0  0  0
    0.4900    6.0220    3.1868 H   0  0  0  0  0  0  0  0  0  0  0  0
  1  3  1  0  0  0  0
  1  7  1  0  0  0  0
  1  2  2  0  0  0  0
 28 29  1  0  0  0  0
 29 37  1  0  0  0  0
 29 30  2  0  0  0  0
 18 19  1  0  0  0  0
 19 27  1  0  0  0  0
 19 20  2  0  0  0  0
  8  9  1  0  0  0  0
  9 17  1  0  0  0  0
  9 10  2  0  0  0  0
 28 31  1  0  0  0  0
 18 21  1  0  0  0  0
  8 11  1  0  0  0  0
 37 38  1  0  0  0  0
 27 28  1  0  0  0  0
 17 18  1  0  0  0  0
  7  8  1  0  0  0  0
  3  4  1  0  0  0  0
  3  5  1  0  0  0  0
  3  6  1  0  0  0  0
 31 34  1  0  0  0  0
 31 35  1  0  0  0  0
 31 36  1  0  0  0  0
 21 24  1  0  0  0  0
 21 25  1  0  0  0  0
 21 26  1  0  0  0  0
 11 14  1  0  0  0  0
 11 15  1  0  0  0  0
 11 16  1  0  0  0  0
 38 40  1  0  0  0  0
 38 41  1  0  0  0  0
 38 42  1  0  0  0  0
 28 33  1  0  0  0  0
 18 23  1  0  0  0  0
  8 13  1  0  0  0  0
 37 39  1  0  0  0  0
  7 12  1  0  0  0  0
 27 32  1  0  0  0  0
 17 22  1  0  0  0  0
M  END
$$$$

  -OEChem-05262214473D

 42 41  0     1  0  0  0  0  0999 V2000
   -5.7851   -0.9580    0.6237 C   0  0  0  0  0  0  0  0  0  0  0  0
   -6.2213    0.1296    0.2652 O   0  0  0  0  0  0  0  0  0  0  0  0
   -6.7088   -2.1270    0.7168 C   0  0  0  0  0  0  0  0  0  0  0  0
   -7.1713   -2.2193    1.7126 H   0  0  0  0  0  0  0  0  0  0  0  0
   -7.5511   -2.0547    0.0101 H   0  0  0  0  0  0  0  0  0  0  0  0
   -6.2485   -3.1083    0.5191 H   0  0  0  0  0  0  0  0  0  0  0  0
   -4.4733   -1.2411    0.9668 N   0  0  0  0  0  0  0  0  0  0  0  0
   -3.4203   -0.2603    0.9449 C   0  0  2  0  0  0  0  0  0  0  0  0
   -2.1242   -0.9699    0.5759 C   0  0  0  0  0  0  0  0  0  0  0  0
   -1.8694   -2.1225    0.9189 O   0  0  0  0  0  0  0  0  0  0  0  0
   -3.2916    0.4435    2.2868 C   0  0  0  0  0  0  0  0  0  0  0  0
   -4.2421   -2.1920    1.2489 H   0  0  0  0  0  0  0  0  0  0  0  0
   -3.6772    0.4622    0.1625 H   0  0  0  0  0  0  0  0  0  0  0  0
   -3.0345   -0.2644    3.0832 H   0  0  0  0  0  0  0  0  0  0  0  0
   -2.5093    1.2092    2.2599 H   0  0  0  0  0  0  0  0  0  0  0  0
   -4.2338    0.9283    2.5645 H   0  0  0  0  0  0  0  0  0  0  0  0
   -1.2626   -0.1515   -0.1463 N   0  0  0  0  0  0  0  0  0  0  0  0
    0.0431   -0.5785   -0.5755 C   0  0  2  0  0  0  0  0  0  0  0  0
    1.0271    0.5449   -0.2767 C   0  0  0  0  0  0  0  0  0  0  0  0
    2.2447    0.3794   -0.2451 O   0  0  0  0  0  0  0  0  0  0  0  0
    0.0519   -0.9295   -2.0552 C   0  0  0  0  0  0  0  0  0  0  0  0
   -1.5766    0.7776   -0.4197 H   0  0  0  0  0  0  0  0  0  0  0  0
    0.3005   -1.4590    0.0231 H   0  0  0  0  0  0  0  0  0  0  0  0
   -0.2038   -0.0595   -2.6710 H   0  0  0  0  0  0  0  0  0  0  0  0
    1.0387   -1.2813   -2.3737 H   0  0  0  0  0  0  0  0  0  0  0  0
   -0.6776   -1.7169   -2.2733 H   0  0  0  0  0  0  0  0  0  0  0  0
    0.3858    1.7488   -0.0059 N   0  0  0  0  0  0  0  0  0  0  0  0
    1.0964    2.9497    0.3465 C   0  0  2  0  0  0  0  0  0  0  0  0
    0.2209    3.7514    1.3005 C   0  0  0  0  0  0  0  0  0  0  0  0
   -1.0059    3.7751    1.2257 O   0  0  0  0  0  0  0  0  0  0  0  0
    1.4468    3.7675   -0.8868 C   0  0  0  0  0  0  0  0  0  0  0  0
   -0.6270    1.8004   -0.0957 H   0  0  0  0  0  0  0  0  0  0  0  0
    2.0097    2.6365    0.8640 H   0  0  0  0  0  0  0  0  0  0  0  0
    0.5443    4.0904   -1.4185 H   0  0  0  0  0  0  0  0  0  0  0  0
    2.0122    4.6663   -0.6195 H   0  0  0  0  0  0  0  0  0  0  0  0
    2.0517    3.1794   -1.5855 H   0  0  0  0  0  0  0  0  0  0  0  0
    0.9726    4.4716    2.2184 N   0  0  0  0  0  0  0  0  0  0  0  0
    0.3750    5.3432    3.2028 C   0  0  0  0  0  0  0  0  0  0  0  0
    1.9822    4.3610    2.2339 H   0  0  0  0  0  0  0  0  0  0  0  0
    0.3209    6.3664    2.8027 H   0  0  0  0  0  0  0  0  0  0  0  0
   -0.6388    4.9881    3.4396 H   0  0  0  0  0  0  0  0  0  0  0  0
    0.9877    5.3388    4.1164 H   0  0  0  0  0  0  0  0  0  0  0  0
  1  3  1  0  0  0  0
  1  7  1  0  0  0  0
  1  2  2  0  0  0  0
 28 29  1  0  0  0  0
 29 37  1  0  0  0  0
 29 30  2  0  0  0  0
 18 19  1  0  0  0  0
 19 27  1  0  0  0  0
 19 20  2  0  0  0  0
  8  9  1  0  0  0  0
  9 17  1  0  0  0  0
  9 10  2  0  0  0  0
 28 31  1  0  0  0  0
 18 21  1  0  0  0  0
  8 11  1  0  0  0  0
 37 38  1  0  0  0  0
 27 28  1  0  0  0  0
 17 18  1  0  0  0  0
  7  8  1  0  0  0  0
  3  4  1  0  0  0  0
  3  5  1  0  0  0  0
  3  6  1  0  0  0  0
 31 34  1  0  0  0  0
 31 35  1  0  0  0  0
 31 36  1  0  0  0  0
 21 24  1  0  0  0  0
 21 25  1  0  0  0  0
 21 26  1  0  0  0  0
 11 14  1  0  0  0  0
 11 15  1  0  0  0  0
 11 16  1  0  0  0  0
 38 40  1  0  0  0  0
 38 41  1  0  0  0  0
 38 42  1  0  0  0  0
 28 33  1  0  0  0  0
 18 23  1  0  0  0  0
  8 13  1  0  0  0  0
 37 39  1  0  0  0  0
  7 12  1  0  0  0  0
 27 32  1  0  0  0  0
 17 22  1  0  0  0  0
M  END
$$$$

  -OEChem-05262214473D

 42 41  0     1  0  0  0  0  0999 V2000
   -5.7851   -0.9580    0.6237 C   0  0  0  0  0  0  0  0  0  0  0  0
   -6.2213    0.1296    0.2652 O   0  0  0  0  0  0  0  0  0  0  0  0
   -6.7088   -2.1270    0.7168 C   0  0  0  0  0  0  0  0  0  0  0  0
   -7.1713   -2.2193    1.7126 H   0  0  0  0  0  0  0  0  0  0  0  0
   -7.5511   -2.0547    0.0101 H   0  0  0  0  0  0  0  0  0  0  0  0
   -6.2485   -3.1083    0.5191 H   0  0  0  0  0  0  0  0  0  0  0  0
   -4.4733   -1.2411    0.9668 N   0  0  0  0  0  0  0  0  0  0  0  0
   -3.4203   -0.2603    0.9449 C   0  0  2  0  0  0  0  0  0  0  0  0
   -2.1242   -0.9699    0.5759 C   0  0  0  0  0  0  0  0  0  0  0  0
   -1.8694   -2.1225    0.9189 O   0  0  0  0  0  0  0  0  0  0  0  0
   -3.2916    0.4435    2.2868 C   0  0  0  0  0  0  0  0  0  0  0  0
   -4.2421   -2.1920    1.2489 H   0  0  0  0  0  0  0  0  0  0  0  0
   -3.6772    0.4622    0.1625 H   0  0  0  0  0  0  0  0  0  0  0  0
   -3.0345   -0.2644    3.0832 H   0  0  0  0  0  0  0  0  0  0  0  0
   -2.5093    1.2092    2.2599 H   0  0  0  0  0  0  0  0  0  0  0  0
   -4.2338    0.9283    2.5645 H   0  0  0  0  0  0  0  0  0  0  0  0
   -1.2626   -0.1515   -0.1463 N   0  0  0  0  0  0  0  0  0  0  0  0
    0.0431   -0.5785   -0.5755 C   0  0  2  0  0  0  0  0  0  0  0  0
    1.0271    0.5449   -0.2767 C   0  0  0  0  0  0  0  0  0  0  0  0
    2.2324    0.4585   -0.5018 O   0  0  0  0  0  0  0  0  0  0  0  0
    0.0519   -0.9295   -2.0552 C   0  0  0  0  0  0  0  0  0  0  0  0
   -1.5766    0.7776   -0.4197 H   0  0  0  0  0  0  0  0  0  0  0  0
    0.3005   -1.4590    0.0231 H   0  0  0  0  0  0  0  0  0  0  0  0
   -0.2038   -0.0595   -2.6710 H   0  0  0  0  0  0  0  0  0  0  0  0
    1.0387   -1.2813   -2.3737 H   0  0  0  0  0  0  0  0  0  0  0  0
   -0.6776   -1.7169   -2.2733 H   0  0  0  0  0  0  0  0  0  0  0  0
    0.4099    1.6432    0.3121 N   0  0  0  0  0  0  0  0  0  0  0  0
    1.1337    2.8159    0.7271 C   0  0  2  0  0  0  0  0  0  0  0  0
    0.4341    3.3916    1.9513 C   0  0  0  0  0  0  0  0  0  0  0  0
   -0.7837    3.3448    2.1118 O   0  0  0  0  0  0  0  0  0  0  0  0
    1.2081    3.8446   -0.3904 C   0  0  0  0  0  0  0  0  0  0  0  0
   -0.6022    1.6407    0.4231 H   0  0  0  0  0  0  0  0  0  0  0  0
    2.1407    2.4847    1.0033 H   0  0  0  0  0  0  0  0  0  0  0  0
    0.2085    4.1882   -0.6807 H   0  0  0  0  0  0  0  0  0  0  0  0
    1.7834    4.7239   -0.0826 H   0  0  0  0  0  0  0  0  0  0  0  0
    1.6848    3.4195   -1.2803 H   0  0  0  0  0  0  0  0  0  0  0  0
    1.3252    4.0020    2.8228 N   0  0  0  0  0  0  0  0  0  0  0  0
    0.9015    4.6603    4.0365 C   0  0  0  0  0  0  0  0  0  0  0  0
    2.3216    3.9583    2.6303 H   0  0  0  0  0  0  0  0  0  0  0  0
    0.7350    5.7289    3.8358 H   0  0  0  0  0  0  0  0  0  0  0  0
   -0.0337    4.2043    4.3935 H   0  0  0  0  0  0  0  0  0  0  0  0
    1.6806    4.5488    4.8051 H   0  0  0  0  0  0  0  0  0  0  0  0
  1  3  1  0  0  0  0
  1  7  1  0  0  0  0
  1  2  2  0  0  0  0
 28 29  1  0  0  0  0
 29 37  1  0  0  0  0
 29 30  2  0  0  0  0
 18 19  1  0  0  0  0
 19 27  1  0  0  0  0
 19 20  2  0  0  0  0
  8  9  1  0  0  0  0
  9 17  1  0  0  0  0
  9 10  2  0  0  0  0
 28 31  1  0  0  0  0
 18 21  1  0  0  0  0
  8 11  1  0  0  0  0
 37 38  1  0  0  0  0
 27 28  1  0  0  0  0
 17 18  1  0  0  0  0
  7  8  1  0  0  0  0
  3  4  1  0  0  0  0
  3  5  1  0  0  0  0
  3  6  1  0  0  0  0
 31 34  1  0  0  0  0
 31 35  1  0  0  0  0
 31 36  1  0  0  0  0
 21 24  1  0  0  0  0
 21 25  1  0  0  0  0
 21 26  1  0  0  0  0
 11 14  1  0  0  0  0
 11 15  1  0  0  0  0
 11 16  1  0  0  0  0
 38 40  1  0  0  0  0
 38 41  1  0  0  0  0
 38 42  1  0  0  0  0
 28 33  1  0  0  0  0
 18 23  1  0  0  0  0
  8 13  1  0  0  0  0
 37 39  1  0  0  0  0
  7 12  1  0  0  0  0
 27 32  1  0  0  0  0
 17 22  1  0  0  0  0
M  END
$$$$

  -OEChem-05262214473D

 42 41  0     1  0  0  0  0  0999 V2000
   -5.7851   -0.9580    0.6237 C   0  0  0  0  0  0  0  0  0  0  0  0
   -6.2213    0.1296    0.2652 O   0  0  0  0  0  0  0  0  0  0  0  0
   -6.7088   -2.1270    0.7168 C   0  0  0  0  0  0  0  0  0  0  0  0
   -7.1713   -2.2193    1.7126 H   0  0  0  0  0  0  0  0  0  0  0  0
   -7.5511   -2.0547    0.0101 H   0  0  0  0  0  0  0  0  0  0  0  0
   -6.2485   -3.1083    0.5191 H   0  0  0  0  0  0  0  0  0  0  0  0
   -4.4733   -1.2411    0.9668 N   0  0  0  0  0  0  0  0  0  0  0  0
   -3.4203   -0.2603    0.9449 C   0  0  2  0  0  0  0  0  0  0  0  0
   -2.1242   -0.9699    0.5759 C   0  0  0  0  0  0  0  0  0  0  0  0
   -1.8694   -2.1225    0.9189 O   0  0  0  0  0  0  0  0  0  0  0  0
   -3.2916    0.4435    2.2868 C   0  0  0  0  0  0  0  0  0  0  0  0
   -4.2421   -2.1920    1.2489 H   0  0  0  0  0  0  0  0  0  0  0  0
   -3.6772    0.4622    0.1625 H   0  0  0  0  0  0  0  0  0  0  0  0
   -3.0345   -0.2644    3.0832 H   0  0  0  0  0  0  0  0  0  0  0  0
   -2.5093    1.2092    2.2599 H   0  0  0  0  0  0  0  0  0  0  0  0
   -4.2338    0.9283    2.5645 H   0  0  0  0  0  0  0  0  0  0  0  0
   -1.2626   -0.1515   -0.1463 N   0  0  0  0  0  0  0  0  0  0  0  0
    0.0431   -0.5785   -0.5755 C   0  0  2  0  0  0  0  0  0  0  0  0
    1.0271    0.5449   -0.2767 C   0  0  0  0  0  0  0  0  0  0  0  0
    2.1675    0.5771   -0.7343 O   0  0  0  0  0  0  0  0  0  0  0  0
    0.0519   -0.9295   -2.0552 C   0  0  0  0  0  0  0  0  0  0  0  0
   -1.5766    0.7776   -0.4197 H   0  0  0  0  0  0  0  0  0  0  0  0
    0.3005   -1.4590    0.0231 H   0  0  0  0  0  0  0  0  0  0  0  0
   -0.2038   -0.0595   -2.6710 H   0  0  0  0  0  0  0  0  0  0  0  0
    1.0387   -1.2813   -2.3737 H   0  0  0  0  0  0  0  0  0  0  0  0
   -0.6776   -1.7169   -2.2733 H   0  0  0  0  0  0  0  0  0  0  0  0
    0.4991    1.4892    0.5970 N   0  0  0  0  0  0  0  0  0  0  0  0
    1.2491    2.6248    1.0653 C   0  0  2  0  0  0  0  0  0  0  0  0
    0.7825    2.9461    2.4790 C   0  0  0  0  0  0  0  0  0  0  0  0
   -0.3782    2.7924    2.8534 O   0  0  0  0  0  0  0  0  0  0  0  0
    1.0683    3.8239    0.1475 C   0  0  0  0  0  0  0  0  0  0  0  0
   -0.4711    1.4009    0.8928 H   0  0  0  0  0  0  0  0  0  0  0  0
    2.3015    2.3215    1.0875 H   0  0  0  0  0  0  0  0  0  0  0  0
    0.0201    4.1423    0.1125 H   0  0  0  0  0  0  0  0  0  0  0  0
    1.6620    4.6782    0.4893 H   0  0  0  0  0  0  0  0  0  0  0  0
    1.3765    3.5818   -0.8753 H   0  0  0  0  0  0  0  0  0  0  0  0
    1.8050    3.4653    3.2607 N   0  0  0  0  0  0  0  0  0  0  0  0
    1.6040    3.8880    4.6271 C   0  0  0  0  0  0  0  0  0  0  0  0
    2.7456    3.5202    2.8811 H   0  0  0  0  0  0  0  0  0  0  0  0
    1.3647    4.9614    4.6479 H   0  0  0  0  0  0  0  0  0  0  0  0
    0.7728    3.3185    5.0684 H   0  0  0  0  0  0  0  0  0  0  0  0
    2.5214    3.7057    5.2059 H   0  0  0  0  0  0  0  0  0  0  0  0
  1  3  1  0  0  0  0
  1  7  1  0  0  0  0
  1  2  2  0  0  0  0
 28 29  1  0  0  0  0
 29 37  1  0  0  0  0
 29 30  2  0  0  0  0
 18 19  1  0  0  0  0
 19 27  1  0  0  0  0
 19 20  2  0  0  0  0
  8  9  1  0  0  0  0
  9 17  1  0  0  0  0
  9 10  2  0  0  0  0
 28 31  1  0  0  0  0
 18 21  1  0  0  0  0
  8 11  1  0  0  0  0
 37 38  1  0  0  0  0
 27 28  1  0  0  0  0
 17 18  1  0  0  0  0
  7  8  1  0  0  0  0
  3  4  1  0  0  0  0
  3  5  1  0  0  0  0
  3  6  1  0  0  0  0
 31 34  1  0  0  0  0
 31 35  1  0  0  0  0
 31 36  1  0  0  0  0
 21 24  1  0  0  0  0
 21 25  1  0  0  0  0
 21 26  1  0  0  0  0
 11 14  1  0  0  0  0
 11 15  1  0  0  0  0
 11 16  1  0  0  0  0
 38 40  1  0  0  0  0
 38 41  1  0  0  0  0
 38 42  1  0  0  0  0
 28 33  1  0  0  0  0
 18 23  1  0  0  0  0
  8 13  1  0  0  0  0
 37 39  1  0  0  0  0
  7 12  1  0  0  0  0
 27 32  1  0  0  0  0
 17 22  1  0  0  0  0
M  END
$$$$

  -OEChem-05262214473D

 42 41  0     1  0  0  0  0  0999 V2000
   -5.7851   -0.9580    0.6237 C   0  0  0  0  0  0  0  0  0  0  0  0
   -6.2213    0.1296    0.2652 O   0  0  0  0  0  0  0  0  0  0  0  0
   -6.7088   -2.1270    0.7168 C   0  0  0  0  0  0  0  0  0  0  0  0
   -7.1713   -2.2193    1.7126 H   0  0  0  0  0  0  0  0  0  0  0  0
   -7.5511   -2.0547    0.0101 H   0  0  0  0  0  0  0  0  0  0  0  0
   -6.2485   -3.1083    0.5191 H   0  0  0  0  0  0  0  0  0  0  0  0
   -4.4733   -1.2411    0.9668 N   0  0  0  0  0  0  0  0  0  0  0  0
   -3.4203   -0.2603    0.9449 C   0  0  2  0  0  0  0  0  0  0  0  0
   -2.1242   -0.9699    0.5759 C   0  0  0  0  0  0  0  0  0  0  0  0
   -1.8694   -2.1225    0.9189 O   0  0  0  0  0  0  0  0  0  0  0  0
   -3.2916    0.4435    2.2868 C   0  0  0  0  0  0  0  0  0  0  0  0
   -4.2421   -2.1920    1.2489 H   0  0  0  0  0  0  0  0  0  0  0  0
   -3.6772    0.4622    0.1625 H   0  0  0  0  0  0  0  0  0  0  0  0
   -3.0345   -0.2644    3.0832 H   0  0  0  0  0  0  0  0  0  0  0  0
   -2.5093    1.2092    2.2599 H   0  0  0  0  0  0  0  0  0  0  0  0
   -4.2338    0.9283    2.5645 H   0  0  0  0  0  0  0  0  0  0  0  0
   -1.2626   -0.1515   -0.1463 N   0  0  0  0  0  0  0  0  0  0  0  0
    0.0431   -0.5785   -0.5755 C   0  0  2  0  0  0  0  0  0  0  0  0
    1.0271    0.5449   -0.2767 C   0  0  0  0  0  0  0  0  0  0  0  0
    2.0545    0.7273   -0.9265 O   0  0  0  0  0  0  0  0  0  0  0  0
    0.0519   -0.9295   -2.0552 C   0  0  0  0  0  0  0  0  0  0  0  0
   -1.5766    0.7776   -0.4197 H   0  0  0  0  0  0  0  0  0  0  0  0
    0.3005   -1.4590    0.0231 H   0  0  0  0  0  0  0  0  0  0  0  0
   -0.2038   -0.0595   -2.6710 H   0  0  0  0  0  0  0  0  0  0  0  0
    1.0387   -1.2813   -2.3737 H   0  0  0  0  0  0  0  0  0  0  0  0
   -0.6776   -1.7169   -2.2733 H   0  0  0  0  0  0  0  0  0  0  0  0
    0.6476    1.2974    0.8295 N   0  0  0  0  0  0  0  0  0  0  0  0
    1.4349    2.3896    1.3379 C   0  0  2  0  0  0  0  0  0  0  0  0
    1.2424    2.4452    2.8477 C   0  0  0  0  0  0  0  0  0  0  0  0
    0.1832    2.1553    3.4000 O   0  0  0  0  0  0  0  0  0  0  0  0
    1.0371    3.7069    0.6904 C   0  0  0  0  0  0  0  0  0  0  0  0
   -0.2425    1.0974    1.2814 H   0  0  0  0  0  0  0  0  0  0  0  0
    2.4812    2.1579    1.1108 H   0  0  0  0  0  0  0  0  0  0  0  0
   -0.0082    3.9558    0.9069 H   0  0  0  0  0  0  0  0  0  0  0  0
    1.6562    4.5322    1.0573 H   0  0  0  0  0  0  0  0  0  0  0  0
    1.1479    3.6552   -0.3981 H   0  0  0  0  0  0  0  0  0  0  0  0
    2.3793    2.8980    3.5024 N   0  0  0  0  0  0  0  0  0  0  0  0
    2.4344    3.0789    4.9342 C   0  0  0  0  0  0  0  0  0  0  0  0
    3.2252    3.0767    2.9692 H   0  0  0  0  0  0  0  0  0  0  0  0
    2.1669    4.1163    5.1838 H   0  0  0  0  0  0  0  0  0  0  0  0
    1.7256    2.3909    5.4182 H   0  0  0  0  0  0  0  0  0  0  0  0
    3.4530    2.8670    5.2915 H   0  0  0  0  0  0  0  0  0  0  0  0
  1  3  1  0  0  0  0
  1  7  1  0  0  0  0
  1  2  2  0  0  0  0
 28 29  1  0  0  0  0
 29 37  1  0  0  0  0
 29 30  2  0  0  0  0
 18 19  1  0  0  0  0
 19 27  1  0  0  0  0
 19 20  2  0  0  0  0
  8  9  1  0  0  0  0
  9 17  1  0  0  0  0
  9 10  2  0  0  0  0
 28 31  1  0  0  0  0
 18 21  1  0  0  0  0
  8 11  1  0  0  0  0
 37 38  1  0  0  0  0
 27 28  1  0  0  0  0
 17 18  1  0  0  0  0
  7  8  1  0  0  0  0
  3  4  1  0  0  0  0
  3  5  1  0  0  0  0
  3  6  1  0  0  0  0
 31 34  1  0  0  0  0
 31 35  1  0  0  0  0
 31 36  1  0  0  0  0
 21 24  1  0  0  0  0
 21 25  1  0  0  0  0
 21 26  1  0  0  0  0
 11 14  1  0  0  0  0
 11 15  1  0  0  0  0
 11 16  1  0  0  0  0
 38 40  1  0  0  0  0
 38 41  1  0  0  0  0
 38 42  1  0  0  0  0
 28 33  1  0  0  0  0
 18 23  1  0  0  0  0
  8 13  1  0  0  0  0
 37 39  1  0  0  0  0
  7 12  1  0  0  0  0
 27 32  1  0  0  0  0
 17 22  1  0  0  0  0
M  END
$$$$

  -OEChem-05262214473D

 42 41  0     1  0  0  0  0  0999 V2000
   -5.7851   -0.9580    0.6237 C   0  0  0  0  0  0  0  0  0  0  0  0
   -6.2213    0.1296    0.2652 O   0  0  0  0  0  0  0  0  0  0  0  0
   -6.7088   -2.1270    0.7168 C   0  0  0  0  0  0  0  0  0  0  0  0
   -7.1713   -2.2193    1.7126 H   0  0  0  0  0  0  0  0  0  0  0  0
   -7.5511   -2.0547    0.0101 H   0  0  0  0  0  0  0  0  0  0  0  0
   -6.2485   -3.1083    0.5191 H   0  0  0  0  0  0  0  0  0  0  0  0
   -4.4733   -1.2411    0.9668 N   0  0  0  0  0  0  0  0  0  0  0  0
   -3.4203   -0.2603    0.9449 C   0  0  2  0  0  0  0  0  0  0  0  0
   -2.1242   -0.9699    0.5759 C   0  0  0  0  0  0  0  0  0  0  0  0
   -1.8694   -2.1225    0.9189 O   0  0  0  0  0  0  0  0  0  0  0  0
   -3.2916    0.4435    2.2868 C   0  0  0  0  0  0  0  0  0  0  0  0
   -4.2421   -2.1920    1.2489 H   0  0  0  0  0  0  0  0  0  0  0  0
   -3.6772    0.4622    0.1625 H   0  0  0  0  0  0  0  0  0  0  0  0
   -3.0345   -0.2644    3.0832 H   0  0  0  0  0  0  0  0  0  0  0  0
   -2.5093    1.2092    2.2599 H   0  0  0  0  0  0  0  0  0  0  0  0
   -4.2338    0.9283    2.5645 H   0  0  0  0  0  0  0  0  0  0  0  0
   -1.2626   -0.1515   -0.1463 N   0  0  0  0  0  0  0  0  0  0  0  0
    0.0431   -0.5785   -0.5755 C   0  0  2  0  0  0  0  0  0  0  0  0
    1.0271    0.5449   -0.2767 C   0  0  0  0  0  0  0  0  0  0  0  0
    1.9009    0.8988   -1.0656 O   0  0  0  0  0  0  0  0  0  0  0  0
    0.0519   -0.9295   -2.0552 C   0  0  0  0  0  0  0  0  0  0  0  0
   -1.5766    0.7776   -0.4197 H   0  0  0  0  0  0  0  0  0  0  0  0
    0.3005   -1.4590    0.0231 H   0  0  0  0  0  0  0  0  0  0  0  0
   -0.2038   -0.0595   -2.6710 H   0  0  0  0  0  0  0  0  0  0  0  0
    1.0387   -1.2813   -2.3737 H   0  0  0  0  0  0  0  0  0  0  0  0
   -0.6776   -1.7169   -2.2733 H   0  0  0  0  0  0  0  0  0  0  0  0
    0.8451    1.0807    0.9935 N   0  0  0  0  0  0  0  0  0  0  0  0
    1.6783    2.1263    1.5265 C   0  0  2  0  0  0  0  0  0  0  0  0
    1.7825    1.9231    3.0322 C   0  0  0  0  0  0  0  0  0  0  0  0
    0.8622    1.4771    3.7142 O   0  0  0  0  0  0  0  0  0  0  0  0
    1.1165    3.5015    1.2012 C   0  0  0  0  0  0  0  0  0  0  0  0
    0.0678    0.7509    1.5624 H   0  0  0  0  0  0  0  0  0  0  0  0
    2.6675    2.0051    1.0717 H   0  0  0  0  0  0  0  0  0  0  0  0
    0.1256    3.6414    1.6484 H   0  0  0  0  0  0  0  0  0  0  0  0
    1.7664    4.2960    1.5826 H   0  0  0  0  0  0  0  0  0  0  0  0
    1.0143    3.6347    0.1187 H   0  0  0  0  0  0  0  0  0  0  0  0
    3.0090    2.3388    3.5313 N   0  0  0  0  0  0  0  0  0  0  0  0
    3.3363    2.2882    4.9371 C   0  0  0  0  0  0  0  0  0  0  0  0
    3.7278    2.6579    2.8885 H   0  0  0  0  0  0  0  0  0  0  0  0
    3.0870    3.2510    5.4070 H   0  0  0  0  0  0  0  0  0  0  0  0
    2.7598    1.4849    5.4190 H   0  0  0  0  0  0  0  0  0  0  0  0
    4.4117    2.0899    5.0562 H   0  0  0  0  0  0  0  0  0  0  0  0
  1  3  1  0  0  0  0
  1  7  1  0  0  0  0
  1  2  2  0  0  0  0
 28 29  1  0  0  0  0
 29 37  1  0  0  0  0
 29 30  2  0  0  0  0
 18 19  1  0  0  0  0
 19 27  1  0  0  0  0
 19 20  2  0  0  0  0
  8  9  1  0  0  0  0
  9 17  1  0  0  0  0
  9 10  2  0  0  0  0
 28 31  1  0  0  0  0
 18 21  1  0  0  0  0
  8 11  1  0  0  0  0
 37 38  1  0  0  0  0
 27 28  1  0  0  0  0
 17 18  1  0  0  0  0
  7  8  1  0  0  0  0
  3  4  1  0  0  0  0
  3  5  1  0  0  0  0
  3  6  1  0  0  0  0
 31 34  1  0  0  0  0
 31 35  1  0  0  0  0
 31 36  1  0  0  0  0
 21 24  1  0  0  0  0
 21 25  1  0  0  0  0
 21 26  1  0  0  0  0
 11 14  1  0  0  0  0
 11 15  1  0  0  0  0
 11 16  1  0  0  0  0
 38 40  1  0  0  0  0
 38 41  1  0  0  0  0
 38 42  1  0  0  0  0
 28 33  1  0  0  0  0
 18 23  1  0  0  0  0
  8 13  1  0  0  0  0
 37 39  1  0  0  0  0
  7 12  1  0  0  0  0
 27 32  1  0  0  0  0
 17 22  1  0  0  0  0
M  END
$$$$

  -OEChem-05262214473D

 42 41  0     1  0  0  0  0  0999 V2000
   -5.7851   -0.9580    0.6237 C   0  0  0  0  0  0  0  0  0  0  0  0
   -6.2213    0.1296    0.2652 O   0  0  0  0  0  0  0  0  0  0  0  0
   -6.7088   -2.1270    0.7168 C   0  0  0  0  0  0  0  0  0  0  0  0
   -7.1713   -2.2193    1.7126 H   0  0  0  0  0  0  0  0  0  0  0  0
   -7.5511   -2.0547    0.0101 H   0  0  0  0  0  0  0  0  0  0  0  0
   -6.2485   -3.1083    0.5191 H   0  0  0  0  0  0  0  0  0  0  0  0
   -4.4733   -1.2411    0.9668 N   0  0  0  0  0  0  0  0  0  0  0  0
   -3.4203   -0.2603    0.9449 C   0  0  2  0  0  0  0  0  0  0  0  0
   -2.1242   -0.9699    0.5759 C   0  0  0  0  0  0  0  0  0  0  0  0
   -1.8694   -2.1225    0.9189 O   0  0  0  0  0  0  0  0  0  0  0  0
   -3.2916    0.4435    2.2868 C   0  0  0  0  0  0  0  0  0  0  0  0
   -4.2421   -2.1920    1.2489 H   0  0  0  0  0  0  0  0  0  0  0  0
   -3.6772    0.4622    0.1625 H   0  0  0  0  0  0  0  0  0  0  0  0
   -3.0345   -0.2644    3.0832 H   0  0  0  0  0  0  0  0  0  0  0  0
   -2.5093    1.2092    2.2599 H   0  0  0  0  0  0  0  0  0  0  0  0
   -4.2338    0.9283    2.5645 H   0  0  0  0  0  0  0  0  0  0  0  0
   -1.2626   -0.1515   -0.1463 N   0  0  0  0  0  0  0  0  0  0  0  0
    0.0431   -0.5785   -0.5755 C   0  0  2  0  0  0  0  0  0  0  0  0
    1.0271    0.5449   -0.2767 C   0  0  0  0  0  0  0  0  0  0  0  0
    1.7173    1.0798   -1.1419 O   0  0  0  0  0  0  0  0  0  0  0  0
    0.0519   -0.9295   -2.0552 C   0  0  0  0  0  0  0  0  0  0  0  0
   -1.5766    0.7776   -0.4197 H   0  0  0  0  0  0  0  0  0  0  0  0
    0.3005   -1.4590    0.0231 H   0  0  0  0  0  0  0  0  0  0  0  0
   -0.2038   -0.0595   -2.6710 H   0  0  0  0  0  0  0  0  0  0  0  0
    1.0387   -1.2813   -2.3737 H   0  0  0  0  0  0  0  0  0  0  0  0
   -0.6776   -1.7169   -2.2733 H   0  0  0  0  0  0  0  0  0  0  0  0
    1.0782    0.8541    1.0781 N   0  0  0  0  0  0  0  0  0  0  0  0
    1.9628    1.8527    1.6181 C   0  0  2  0  0  0  0  0  0  0  0  0
    2.3659    1.4153    3.0201 C   0  0  0  0  0  0  0  0  0  0  0  0
    1.6124    0.8039    3.7747 O   0  0  0  0  0  0  0  0  0  0  0  0
    1.3011    3.2217    1.6450 C   0  0  0  0  0  0  0  0  0  0  0  0
    0.4388    0.3849    1.7166 H   0  0  0  0  0  0  0  0  0  0  0  0
    2.8478    1.8735    0.9728 H   0  0  0  0  0  0  0  0  0  0  0  0
    0.4124    3.2204    2.2866 H   0  0  0  0  0  0  0  0  0  0  0  0
    1.9852    3.9855    2.0294 H   0  0  0  0  0  0  0  0  0  0  0  0
    0.9851    3.5217    0.6400 H   0  0  0  0  0  0  0  0  0  0  0  0
    3.6512    1.8258    3.3455 N   0  0  0  0  0  0  0  0  0  0  0  0
    4.2482    1.5698    4.6355 C   0  0  0  0  0  0  0  0  0  0  0  0
    4.2192    2.2924    2.6446 H   0  0  0  0  0  0  0  0  0  0  0  0
    4.0623    2.4246    5.3023 H   0  0  0  0  0  0  0  0  0  0  0  0
    3.8049    0.6621    5.0709 H   0  0  0  0  0  0  0  0  0  0  0  0
    5.3323    1.4272    4.5158 H   0  0  0  0  0  0  0  0  0  0  0  0
  1  3  1  0  0  0  0
  1  7  1  0  0  0  0
  1  2  2  0  0  0  0
 28 29  1  0  0  0  0
 29 37  1  0  0  0  0
 29 30  2  0  0  0  0
 18 19  1  0  0  0  0
 19 27  1  0  0  0  0
 19 20  2  0  0  0  0
  8  9  1  0  0  0  0
  9 17  1  0  0  0  0
  9 10  2  0  0  0  0
 28 31  1  0  0  0  0
 18 21  1  0  0  0  0
  8 11  1  0  0  0  0
 37 38  1  0  0  0  0
 27 28  1  0  0  0  0
 17 18  1  0  0  0  0
  7  8  1  0  0  0  0
  3  4  1  0  0  0  0
  3  5  1  0  0  0  0
  3  6  1  0  0  0  0
 31 34  1  0  0  0  0
 31 35  1  0  0  0  0
 31 36  1  0  0  0  0
 21 24  1  0  0  0  0
 21 25  1  0  0  0  0
 21 26  1  0  0  0  0
 11 14  1  0  0  0  0
 11 15  1  0  0  0  0
 11 16  1  0  0  0  0
 38 40  1  0  0  0  0
 38 41  1  0  0  0  0
 38 42  1  0  0  0  0
 28 33  1  0  0  0  0
 18 23  1  0  0  0  0
  8 13  1  0  0  0  0
 37 39  1  0  0  0  0
  7 12  1  0  0  0  0
 27 32  1  0  0  0  0
 17 22  1  0  0  0  0
M  END
$$$$

  -OEChem-05262214473D

 42 41  0     1  0  0  0  0  0999 V2000
   -5.7851   -0.9580    0.6237 C   0  0  0  0  0  0  0  0  0  0  0  0
   -6.2213    0.1296    0.2652 O   0  0  0  0  0  0  0  0  0  0  0  0
   -6.7088   -2.1270    0.7168 C   0  0  0  0  0  0  0  0  0  0  0  0
   -7.1713   -2.2193    1.7126 H   0  0  0  0  0  0  0  0  0  0  0  0
   -7.5511   -2.0547    0.0101 H   0  0  0  0  0  0  0  0  0  0  0  0
   -6.2485   -3.1083    0.5191 H   0  0  0  0  0  0  0  0  0  0  0  0
   -4.4733   -1.2411    0.9668 N   0  0  0  0  0  0  0  0  0  0  0  0
   -3.4203   -0.2603    0.9449 C   0  0  2  0  0  0  0  0  0  0  0  0
   -2.1242   -0.9699    0.5759 C   0  0  0  0  0  0  0  0  0  0  0  0
   -1.8694   -2.1225    0.9189 O   0  0  0  0  0  0  0  0  0  0  0  0
   -3.2916    0.4435    2.2868 C   0  0  0  0  0  0  0  0  0  0  0  0
   -4.2421   -2.1920    1.2489 H   0  0  0  0  0  0  0  0  0  0  0  0
   -3.6772    0.4622    0.1625 H   0  0  0  0  0  0  0  0  0  0  0  0
   -3.0345   -0.2644    3.0832 H   0  0  0  0  0  0  0  0  0  0  0  0
   -2.5093    1.2092    2.2599 H   0  0  0  0  0  0  0  0  0  0  0  0
   -4.2338    0.9283    2.5645 H   0  0  0  0  0  0  0  0  0  0  0  0
   -1.2626   -0.1515   -0.1463 N   0  0  0  0  0  0  0  0  0  0  0  0
    0.0431   -0.5785   -0.5755 C   0  0  2  0  0  0  0  0  0  0  0  0
    1.0271    0.5449   -0.2767 C   0  0  0  0  0  0  0  0  0  0  0  0
    1.5162    1.2582   -1.1503 O   0  0  0  0  0  0  0  0  0  0  0  0
    0.0519   -0.9295   -2.0552 C   0  0  0  0  0  0  0  0  0  0  0  0
   -1.5766    0.7776   -0.4197 H   0  0  0  0  0  0  0  0  0  0  0  0
    0.3005   -1.4590    0.0231 H   0  0  0  0  0  0  0  0  0  0  0  0
   -0.2038   -0.0595   -2.6710 H   0  0  0  0  0  0  0  0  0  0  0  0
    1.0387   -1.2813   -2.3737 H   0  0  0  0  0  0  0  0  0  0  0  0
   -0.6776   -1.7169   -2.2733 H   0  0  0  0  0  0  0  0  0  0  0  0
    1.3310    0.6328    1.0774 N   0  0  0  0  0  0  0  0  0  0  0  0
    2.2690    1.5876    1.6065 C   0  0  2  0  0  0  0  0  0  0  0  0
    2.9530    0.9565    2.8121 C   0  0  0  0  0  0  0  0  0  0  0  0
    2.3828    0.1816    3.5773 O   0  0  0  0  0  0  0  0  0  0  0  0
    1.5784    2.8866    1.9917 C   0  0  0  0  0  0  0  0  0  0  0  0
    0.8451    0.0245    1.7335 H   0  0  0  0  0  0  0  0  0  0  0  0
    3.0097    1.7721    0.8208 H   0  0  0  0  0  0  0  0  0  0  0  0
    0.8327    2.7217    2.7779 H   0  0  0  0  0  0  0  0  0  0  0  0
    2.2975    3.6220    2.3674 H   0  0  0  0  0  0  0  0  0  0  0  0
    1.0621    3.3238    1.1303 H   0  0  0  0  0  0  0  0  0  0  0  0
    4.2620    1.3939    2.9577 N   0  0  0  0  0  0  0  0  0  0  0  0
    5.1079    0.9725    4.0499 C   0  0  0  0  0  0  0  0  0  0  0  0
    4.6658    2.0051    2.2541 H   0  0  0  0  0  0  0  0  0  0  0  0
    5.0263    1.6935    4.8767 H   0  0  0  0  0  0  0  0  0  0  0  0
    4.7898   -0.0214    4.3975 H   0  0  0  0  0  0  0  0  0  0  0  0
    6.1521    0.9243    3.7073 H   0  0  0  0  0  0  0  0  0  0  0  0
  1  3  1  0  0  0  0
  1  7  1  0  0  0  0
  1  2  2  0  0  0  0
 28 29  1  0  0  0  0
 29 37  1  0  0  0  0
 29 30  2  0  0  0  0
 18 19  1  0  0  0  0
 19 27  1  0  0  0  0
 19 20  2  0  0  0  0
  8  9  1  0  0  0  0
  9 17  1  0  0  0  0
  9 10  2  0  0  0  0
 28 31  1  0  0  0  0
 18 21  1  0  0  0  0
  8 11  1  0  0  0  0
 37 38  1  0  0  0  0
 27 28  1  0  0  0  0
 17 18  1  0  0  0  0
  7  8  1  0  0  0  0
  3  4  1  0  0  0  0
  3  5  1  0  0  0  0
  3  6  1  0  0  0  0
 31 34  1  0  0  0  0
 31 35  1  0  0  0  0
 31 36  1  0  0  0  0
 21 24  1  0  0  0  0
 21 25  1  0  0  0  0
 21 26  1  0  0  0  0
 11 14  1  0  0  0  0
 11 15  1  0  0  0  0
 11 16  1  0  0  0  0
 38 40  1  0  0  0  0
 38 41  1  0  0  0  0
 38 42  1  0  0  0  0
 28 33  1  0  0  0  0
 18 23  1  0  0  0  0
  8 13  1  0  0  0  0
 37 39  1  0  0  0  0
  7 12  1  0  0  0  0
 27 32  1  0  0  0  0
 17 22  1  0  0  0  0
M  END
$$$$

  -OEChem-05262214473D

 42 41  0     1  0  0  0  0  0999 V2000
   -5.7851   -0.9580    0.6237 C   0  0  0  0  0  0  0  0  0  0  0  0
   -6.2213    0.1296    0.2652 O   0  0  0  0  0  0  0  0  0  0  0  0
   -6.7088   -2.1270    0.7168 C   0  0  0  0  0  0  0  0  0  0  0  0
   -7.1713   -2.2193    1.7126 H   0  0  0  0  0  0  0  0  0  0  0  0
   -7.5511   -2.0547    0.0101 H   0  0  0  0  0  0  0  0  0  0  0  0
   -6.2485   -3.1083    0.5191 H   0  0  0  0  0  0  0  0  0  0  0  0
   -4.4733   -1.2411    0.9668 N   0  0  0  0  0  0  0  0  0  0  0  0
   -3.4203   -0.2603    0.9449 C   0  0  2  0  0  0  0  0  0  0  0  0
   -2.1242   -0.9699    0.5759 C   0  0  0  0  0  0  0  0  0  0  0  0
   -1.8694   -2.1225    0.9189 O   0  0  0  0  0  0  0  0  0  0  0  0
   -3.2916    0.4435    2.2868 C   0  0  0  0  0  0  0  0  0  0  0  0
   -4.2421   -2.1920    1.2489 H   0  0  0  0  0  0  0  0  0  0  0  0
   -3.6772    0.4622    0.1625 H   0  0  0  0  0  0  0  0  0  0  0  0
   -3.0345   -0.2644    3.0832 H   0  0  0  0  0  0  0  0  0  0  0  0
   -2.5093    1.2092    2.2599 H   0  0  0  0  0  0  0  0  0  0  0  0
   -4.2338    0.9283    2.5645 H   0  0  0  0  0  0  0  0  0  0  0  0
   -1.2626   -0.1515   -0.1463 N   0  0  0  0  0  0  0  0  0  0  0  0
    0.0431   -0.5785   -0.5755 C   0  0  2  0  0  0  0  0  0  0  0  0
    1.0271    0.5449   -0.2767 C   0  0  0  0  0  0  0  0  0  0  0  0
    1.3114    1.4217   -1.0901 O   0  0  0  0  0  0  0  0  0  0  0  0
    0.0519   -0.9295   -2.0552 C   0  0  0  0  0  0  0  0  0  0  0  0
   -1.5766    0.7776   -0.4197 H   0  0  0  0  0  0  0  0  0  0  0  0
    0.3005   -1.4590    0.0231 H   0  0  0  0  0  0  0  0  0  0  0  0
   -0.2038   -0.0595   -2.6710 H   0  0  0  0  0  0  0  0  0  0  0  0
    1.0387   -1.2813   -2.3737 H   0  0  0  0  0  0  0  0  0  0  0  0
   -0.6776   -1.7169   -2.2733 H   0  0  0  0  0  0  0  0  0  0  0  0
    1.5863    0.4321    0.9915 N   0  0  0  0  0  0  0  0  0  0  0  0
    2.5760    1.3490    1.4926 C   0  0  2  0  0  0  0  0  0  0  0  0
    3.5035    0.5779    2.4224 C   0  0  0  0  0  0  0  0  0  0  0  0
    3.1209   -0.3473    3.1355 O   0  0  0  0  0  0  0  0  0  0  0  0
    1.9295    2.5191    2.2176 C   0  0  0  0  0  0  0  0  0  0  0  0
    1.2592   -0.3058    1.6120 H   0  0  0  0  0  0  0  0  0  0  0  0
    3.1422    1.7078    0.6262 H   0  0  0  0  0  0  0  0  0  0  0  0
    1.3577    2.1791    3.0888 H   0  0  0  0  0  0  0  0  0  0  0  0
    2.6823    3.2303    2.5734 H   0  0  0  0  0  0  0  0  0  0  0  0
    1.2401    3.0547    1.5560 H   0  0  0  0  0  0  0  0  0  0  0  0
    4.7999    1.0726    2.3942 N   0  0  0  0  0  0  0  0  0  0  0  0
    5.8568    0.5372    3.2203 C   0  0  0  0  0  0  0  0  0  0  0  0
    5.0372    1.8156    1.7435 H   0  0  0  0  0  0  0  0  0  0  0  0
    5.9134    1.1073    4.1594 H   0  0  0  0  0  0  0  0  0  0  0  0
    5.6472   -0.5190    3.4448 H   0  0  0  0  0  0  0  0  0  0  0  0
    6.8150    0.6153    2.6858 H   0  0  0  0  0  0  0  0  0  0  0  0
  1  3  1  0  0  0  0
  1  7  1  0  0  0  0
  1  2  2  0  0  0  0
 28 29  1  0  0  0  0
 29 37  1  0  0  0  0
 29 30  2  0  0  0  0
 18 19  1  0  0  0  0
 19 27  1  0  0  0  0
 19 20  2  0  0  0  0
  8  9  1  0  0  0  0
  9 17  1  0  0  0  0
  9 10  2  0  0  0  0
 28 31  1  0  0  0  0
 18 21  1  0  0  0  0
  8 11  1  0  0  0  0
 37 38  1  0  0  0  0
 27 28  1  0  0  0  0
 17 18  1  0  0  0  0
  7  8  1  0  0  0  0
  3  4  1  0  0  0  0
  3  5  1  0  0  0  0
  3  6  1  0  0  0  0
 31 34  1  0  0  0  0
 31 35  1  0  0  0  0
 31 36  1  0  0  0  0
 21 24  1  0  0  0  0
 21 25  1  0  0  0  0
 21 26  1  0  0  0  0
 11 14  1  0  0  0  0
 11 15  1  0  0  0  0
 11 16  1  0  0  0  0
 38 40  1  0  0  0  0
 38 41  1  0  0  0  0
 38 42  1  0  0  0  0
 28 33  1  0  0  0  0
 18 23  1  0  0  0  0
  8 13  1  0  0  0  0
 37 39  1  0  0  0  0
  7 12  1  0  0  0  0
 27 32  1  0  0  0  0
 17 22  1  0  0  0  0
M  END
$$$$

  -OEChem-05262214473D

 42 41  0     1  0  0  0  0  0999 V2000
   -5.7851   -0.9580    0.6237 C   0  0  0  0  0  0  0  0  0  0  0  0
   -6.2213    0.1296    0.2652 O   0  0  0  0  0  0  0  0  0  0  0  0
   -6.7088   -2.1270    0.7168 C   0  0  0  0  0  0  0  0  0  0  0  0
   -7.1713   -2.2193    1.7126 H   0  0  0  0  0  0  0  0  0  0  0  0
   -7.5511   -2.0547    0.0101 H   0  0  0  0  0  0  0  0  0  0  0  0
   -6.2485   -3.1083    0.5191 H   0  0  0  0  0  0  0  0  0  0  0  0
   -4.4733   -1.2411    0.9668 N   0  0  0  0  0  0  0  0  0  0  0  0
   -3.4203   -0.2603    0.9449 C   0  0  2  0  0  0  0  0  0  0  0  0
   -2.1242   -0.9699    0.5759 C   0  0  0  0  0  0  0  0  0  0  0  0
   -1.8694   -2.1225    0.9189 O   0  0  0  0  0  0  0  0  0  0  0  0
   -3.2916    0.4435    2.2868 C   0  0  0  0  0  0  0  0  0  0  0  0
   -4.2421   -2.1920    1.2489 H   0  0  0  0  0  0  0  0  0  0  0  0
   -3.6772    0.4622    0.1625 H   0  0  0  0  0  0  0  0  0  0  0  0
   -3.0345   -0.2644    3.0832 H   0  0  0  0  0  0  0  0  0  0  0  0
   -2.5093    1.2092    2.2599 H   0  0  0  0  0  0  0  0  0  0  0  0
   -4.2338    0.9283    2.5645 H   0  0  0  0  0  0  0  0  0  0  0  0
   -1.2626   -0.1515   -0.1463 N   0  0  0  0  0  0  0  0  0  0  0  0
    0.0431   -0.5785   -0.5755 C   0  0  2  0  0  0  0  0  0  0  0  0
    1.0271    0.5449   -0.2767 C   0  0  0  0  0  0  0  0  0  0  0  0
    1.1166    1.5591   -0.9656 O   0  0  0  0  0  0  0  0  0  0  0  0
    0.0519   -0.9295   -2.0552 C   0  0  0  0  0  0  0  0  0  0  0  0
   -1.5766    0.7776   -0.4197 H   0  0  0  0  0  0  0  0  0  0  0  0
    0.3005   -1.4590    0.0231 H   0  0  0  0  0  0  0  0  0  0  0  0
   -0.2038   -0.0595   -2.6710 H   0  0  0  0  0  0  0  0  0  0  0  0
    1.0387   -1.2813   -2.3737 H   0  0  0  0  0  0  0  0  0  0  0  0
   -0.6776   -1.7169   -2.2733 H   0  0  0  0  0  0  0  0  0  0  0  0
    1.8267    0.2655    0.8261 N   0  0  0  0  0  0  0  0  0  0  0  0
    2.8629    1.1532    1.2840 C   0  0  2  0  0  0  0  0  0  0  0  0
    3.9802    0.3053    1.8775 C   0  0  0  0  0  0  0  0  0  0  0  0
    3.7763   -0.7469    2.4794 O   0  0  0  0  0  0  0  0  0  0  0  0
    2.3304    2.1441    2.3073 C   0  0  0  0  0  0  0  0  0  0  0  0
    1.6527   -0.5835    1.3603 H   0  0  0  0  0  0  0  0  0  0  0  0
    3.2363    1.6850    0.4021 H   0  0  0  0  0  0  0  0  0  0  0  0
    1.9518    1.6297    3.1982 H   0  0  0  0  0  0  0  0  0  0  0  0
    3.1131    2.8370    2.6334 H   0  0  0  0  0  0  0  0  0  0  0  0
    1.5070    2.7325    1.8882 H   0  0  0  0  0  0  0  0  0  0  0  0
    5.2283    0.8838    1.6936 N   0  0  0  0  0  0  0  0  0  0  0  0
    6.4439    0.2935    2.2032 C   0  0  0  0  0  0  0  0  0  0  0  0
    5.3081    1.7368    1.1478 H   0  0  0  0  0  0  0  0  0  0  0  0
    6.6630    0.7061    3.1991 H   0  0  0  0  0  0  0  0  0  0  0  0
    6.3188   -0.7968    2.2776 H   0  0  0  0  0  0  0  0  0  0  0  0
    7.2761    0.5214    1.5209 H   0  0  0  0  0  0  0  0  0  0  0  0
  1  3  1  0  0  0  0
  1  7  1  0  0  0  0
  1  2  2  0  0  0  0
 28 29  1  0  0  0  0
 29 37  1  0  0  0  0
 29 30  2  0  0  0  0
 18 19  1  0  0  0  0
 19 27  1  0  0  0  0
 19 20  2  0  0  0  0
  8  9  1  0  0  0  0
  9 17  1  0  0  0  0
  9 10  2  0  0  0  0
 28 31  1  0  0  0  0
 18 21  1  0  0  0  0
  8 11  1  0  0  0  0
 37 38  1  0  0  0  0
 27 28  1  0  0  0  0
 17 18  1  0  0  0  0
  7  8  1  0  0  0  0
  3  4  1  0  0  0  0
  3  5  1  0  0  0  0
  3  6  1  0  0  0  0
 31 34  1  0  0  0  0
 31 35  1  0  0  0  0
 31 36  1  0  0  0  0
 21 24  1  0  0  0  0
 21 25  1  0  0  0  0
 21 26  1  0  0  0  0
 11 14  1  0  0  0  0
 11 15  1  0  0  0  0
 11 16  1  0  0  0  0
 38 40  1  0  0  0  0
 38 41  1  0  0  0  0
 38 42  1  0  0  0  0
 28 33  1  0  0  0  0
 18 23  1  0  0  0  0
  8 13  1  0  0  0  0
 37 39  1  0  0  0  0
  7 12  1  0  0  0  0
 27 32  1  0  0  0  0
 17 22  1  0  0  0  0
M  END
$$$$

  -OEChem-05262214473D

 42 41  0     1  0  0  0  0  0999 V2000
   -5.7851   -0.9580    0.6237 C   0  0  0  0  0  0  0  0  0  0  0  0
   -6.2213    0.1296    0.2652 O   0  0  0  0  0  0  0  0  0  0  0  0
   -6.7088   -2.1270    0.7168 C   0  0  0  0  0  0  0  0  0  0  0  0
   -7.1713   -2.2193    1.7126 H   0  0  0  0  0  0  0  0  0  0  0  0
   -7.5511   -2.0547    0.0101 H   0  0  0  0  0  0  0  0  0  0  0  0
   -6.2485   -3.1083    0.5191 H   0  0  0  0  0  0  0  0  0  0  0  0
   -4.4733   -1.2411    0.9668 N   0  0  0  0  0  0  0  0  0  0  0  0
   -3.4203   -0.2603    0.9449 C   0  0  2  0  0  0  0  0  0  0  0  0
   -2.1242   -0.9699    0.5759 C   0  0  0  0  0  0  0  0  0  0  0  0
   -1.8694   -2.1225    0.9189 O   0  0  0  0  0  0  0  0  0  0  0  0
   -3.2916    0.4435    2.2868 C   0  0  0  0  0  0  0  0  0  0  0  0
   -4.2421   -2.1920    1.2489 H   0  0  0  0  0  0  0  0  0  0  0  0
   -3.6772    0.4622    0.1625 H   0  0  0  0  0  0  0  0  0  0  0  0
   -3.0345   -0.2644    3.0832 H   0  0  0  0  0  0  0  0  0  0  0  0
   -2.5093    1.2092    2.2599 H   0  0  0  0  0  0  0  0  0  0  0  0
   -4.2338    0.9283    2.5645 H   0  0  0  0  0  0  0  0  0  0  0  0
   -1.2626   -0.1515   -0.1463 N   0  0  0  0  0  0  0  0  0  0  0  0
    0.0431   -0.5785   -0.5755 C   0  0  2  0  0  0  0  0  0  0  0  0
    1.0271    0.5449   -0.2767 C   0  0  0  0  0  0  0  0  0  0  0  0
    0.9453    1.6611   -0.7852 O   0  0  0  0  0  0  0  0  0  0  0  0
    0.0519   -0.9295   -2.0552 C   0  0  0  0  0  0  0  0  0  0  0  0
   -1.5766    0.7776   -0.4197 H   0  0  0  0  0  0  0  0  0  0  0  0
    0.3005   -1.4590    0.0231 H   0  0  0  0  0  0  0  0  0  0  0  0
   -0.2038   -0.0595   -2.6710 H   0  0  0  0  0  0  0  0  0  0  0  0
    1.0387   -1.2813   -2.3737 H   0  0  0  0  0  0  0  0  0  0  0  0
   -0.6776   -1.7169   -2.2733 H   0  0  0  0  0  0  0  0  0  0  0  0
    2.0358    0.1445    0.5927 N   0  0  0  0  0  0  0  0  0  0  0  0
    3.1102    1.0135    0.9950 C   0  0  2  0  0  0  0  0  0  0  0  0
    4.3504    0.1574    1.2147 C   0  0  0  0  0  0  0  0  0  0  0  0
    4.3044   -0.9899    1.6537 O   0  0  0  0  0  0  0  0  0  0  0  0
    2.7537    1.7873    2.2548 C   0  0  0  0  0  0  0  0  0  0  0  0
    1.9989   -0.7898    0.9957 H   0  0  0  0  0  0  0  0  0  0  0  0
    3.2856    1.7052    0.1639 H   0  0  0  0  0  0  0  0  0  0  0  0
    2.5743    1.1109    3.0985 H   0  0  0  0  0  0  0  0  0  0  0  0
    3.5607    2.4689    2.5434 H   0  0  0  0  0  0  0  0  0  0  0  0
    1.8446    2.3794    2.1043 H   0  0  0  0  0  0  0  0  0  0  0  0
    5.5178    0.8403    0.9034 N   0  0  0  0  0  0  0  0  0  0  0  0
    6.8293    0.2580    1.0679 C   0  0  0  0  0  0  0  0  0  0  0  0
    5.4601    1.7740    0.5075 H   0  0  0  0  0  0  0  0  0  0  0  0
    7.2242    0.5173    2.0613 H   0  0  0  0  0  0  0  0  0  0  0  0
    6.7588   -0.8359    0.9756 H   0  0  0  0  0  0  0  0  0  0  0  0
    7.5038    0.6488    0.2919 H   0  0  0  0  0  0  0  0  0  0  0  0
  1  3  1  0  0  0  0
  1  7  1  0  0  0  0
  1  2  2  0  0  0  0
 28 29  1  0  0  0  0
 29 37  1  0  0  0  0
 29 30  2  0  0  0  0
 18 19  1  0  0  0  0
 19 27  1  0  0  0  0
 19 20  2  0  0  0  0
  8  9  1  0  0  0  0
  9 17  1  0  0  0  0
  9 10  2  0  0  0  0
 28 31  1  0  0  0  0
 18 21  1  0  0  0  0
  8 11  1  0  0  0  0
 37 38  1  0  0  0  0
 27 28  1  0  0  0  0
 17 18  1  0  0  0  0
  7  8  1  0  0  0  0
  3  4  1  0  0  0  0
  3  5  1  0  0  0  0
  3  6  1  0  0  0  0
 31 34  1  0  0  0  0
 31 35  1  0  0  0  0
 31 36  1  0  0  0  0
 21 24  1  0  0  0  0
 21 25  1  0  0  0  0
 21 26  1  0  0  0  0
 11 14  1  0  0  0  0
 11 15  1  0  0  0  0
 11 16  1  0  0  0  0
 38 40  1  0  0  0  0
 38 41  1  0  0  0  0
 38 42  1  0  0  0  0
 28 33  1  0  0  0  0
 18 23  1  0  0  0  0
  8 13  1  0  0  0  0
 37 39  1  0  0  0  0
  7 12  1  0  0  0  0
 27 32  1  0  0  0  0
 17 22  1  0  0  0  0
M  END
$$$$

  -OEChem-05262214473D

 42 41  0     1  0  0  0  0  0999 V2000
   -5.7851   -0.9580    0.6237 C   0  0  0  0  0  0  0  0  0  0  0  0
   -6.2213    0.1296    0.2652 O   0  0  0  0  0  0  0  0  0  0  0  0
   -6.7088   -2.1270    0.7168 C   0  0  0  0  0  0  0  0  0  0  0  0
   -7.1713   -2.2193    1.7126 H   0  0  0  0  0  0  0  0  0  0  0  0
   -7.5511   -2.0547    0.0101 H   0  0  0  0  0  0  0  0  0  0  0  0
   -6.2485   -3.1083    0.5191 H   0  0  0  0  0  0  0  0  0  0  0  0
   -4.4733   -1.2411    0.9668 N   0  0  0  0  0  0  0  0  0  0  0  0
   -3.4203   -0.2603    0.9449 C   0  0  2  0  0  0  0  0  0  0  0  0
   -2.1242   -0.9699    0.5759 C   0  0  0  0  0  0  0  0  0  0  0  0
   -1.8694   -2.1225    0.9189 O   0  0  0  0  0  0  0  0  0  0  0  0
   -3.2916    0.4435    2.2868 C   0  0  0  0  0  0  0  0  0  0  0  0
   -4.2421   -2.1920    1.2489 H   0  0  0  0  0  0  0  0  0  0  0  0
   -3.6772    0.4622    0.1625 H   0  0  0  0  0  0  0  0  0  0  0  0
   -3.0345   -0.2644    3.0832 H   0  0  0  0  0  0  0  0  0  0  0  0
   -2.5093    1.2092    2.2599 H   0  0  0  0  0  0  0  0  0  0  0  0
   -4.2338    0.9283    2.5645 H   0  0  0  0  0  0  0  0  0  0  0  0
   -1.2626   -0.1515   -0.1463 N   0  0  0  0  0  0  0  0  0  0  0  0
    0.0431   -0.5785   -0.5755 C   0  0  2  0  0  0  0  0  0  0  0  0
    1.0271    0.5449   -0.2767 C   0  0  0  0  0  0  0  0  0  0  0  0
    0.8091    1.7208   -0.5611 O   0  0  0  0  0  0  0  0  0  0  0  0
    0.0519   -0.9295   -2.0552 C   0  0  0  0  0  0  0  0  0  0  0  0
   -1.5766    0.7776   -0.4197 H   0  0  0  0  0  0  0  0  0  0  0  0
    0.3005   -1.4590    0.0231 H   0  0  0  0  0  0  0  0  0  0  0  0
   -0.2038   -0.0595   -2.6710 H   0  0  0  0  0  0  0  0  0  0  0  0
    1.0387   -1.2813   -2.3737 H   0  0  0  0  0  0  0  0  0  0  0  0
   -0.6776   -1.7169   -2.2733 H   0  0  0  0  0  0  0  0  0  0  0  0
    2.1993    0.0772    0.3070 N   0  0  0  0  0  0  0  0  0  0  0  0
    3.3009    0.9394    0.6453 C   0  0  2  0  0  0  0  0  0  0  0  0
    4.5890    0.1441    0.4790 C   0  0  0  0  0  0  0  0  0  0  0  0
    4.6693   -1.0597    0.7147 O   0  0  0  0  0  0  0  0  0  0  0  0
    3.1708    1.4729    2.0635 C   0  0  0  0  0  0  0  0  0  0  0  0
    2.2741   -0.9104    0.5429 H   0  0  0  0  0  0  0  0  0  0  0  0
    3.2867    1.7670   -0.0723 H   0  0  0  0  0  0  0  0  0  0  0  0
    3.1830    0.6581    2.7966 H   0  0  0  0  0  0  0  0  0  0  0  0
    3.9945    2.1511    2.3094 H   0  0  0  0  0  0  0  0  0  0  0  0
    2.2299    2.0193    2.1896 H   0  0  0  0  0  0  0  0  0  0  0  0
    5.6489    0.9452    0.0776 N   0  0  0  0  0  0  0  0  0  0  0  0
    6.9865    0.4331   -0.1082 C   0  0  0  0  0  0  0  0  0  0  0  0
    5.4828    1.9247   -0.1338 H   0  0  0  0  0  0  0  0  0  0  0  0
    7.5586    0.5536    0.8236 H   0  0  0  0  0  0  0  0  0  0  0  0
    6.9372   -0.6335   -0.3727 H   0  0  0  0  0  0  0  0  0  0  0  0
    7.4827    0.9889   -0.9174 H   0  0  0  0  0  0  0  0  0  0  0  0
  1  3  1  0  0  0  0
  1  7  1  0  0  0  0
  1  2  2  0  0  0  0
 28 29  1  0  0  0  0
 29 37  1  0  0  0  0
 29 30  2  0  0  0  0
 18 19  1  0  0  0  0
 19 27  1  0  0  0  0
 19 20  2  0  0  0  0
  8  9  1  0  0  0  0
  9 17  1  0  0  0  0
  9 10  2  0  0  0  0
 28 31  1  0  0  0  0
 18 21  1  0  0  0  0
  8 11  1  0  0  0  0
 37 38  1  0  0  0  0
 27 28  1  0  0  0  0
 17 18  1  0  0  0  0
  7  8  1  0  0  0  0
  3  4  1  0  0  0  0
  3  5  1  0  0  0  0
  3  6  1  0  0  0  0
 31 34  1  0  0  0  0
 31 35  1  0  0  0  0
 31 36  1  0  0  0  0
 21 24  1  0  0  0  0
 21 25  1  0  0  0  0
 21 26  1  0  0  0  0
 11 14  1  0  0  0  0
 11 15  1  0  0  0  0
 11 16  1  0  0  0  0
 38 40  1  0  0  0  0
 38 41  1  0  0  0  0
 38 42  1  0  0  0  0
 28 33  1  0  0  0  0
 18 23  1  0  0  0  0
  8 13  1  0  0  0  0
 37 39  1  0  0  0  0
  7 12  1  0  0  0  0
 27 32  1  0  0  0  0
 17 22  1  0  0  0  0
M  END
$$$$

  -OEChem-05262214473D

 42 41  0     1  0  0  0  0  0999 V2000
   -5.7851   -0.9580    0.6237 C   0  0  0  0  0  0  0  0  0  0  0  0
   -6.2213    0.1296    0.2652 O   0  0  0  0  0  0  0  0  0  0  0  0
   -6.7088   -2.1270    0.7168 C   0  0  0  0  0  0  0  0  0  0  0  0
   -7.1713   -2.2193    1.7126 H   0  0  0  0  0  0  0  0  0  0  0  0
   -7.5511   -2.0547    0.0101 H   0  0  0  0  0  0  0  0  0  0  0  0
   -6.2485   -3.1083    0.5191 H   0  0  0  0  0  0  0  0  0  0  0  0
   -4.4733   -1.2411    0.9668 N   0  0  0  0  0  0  0  0  0  0  0  0
   -3.4203   -0.2603    0.9449 C   0  0  2  0  0  0  0  0  0  0  0  0
   -2.1242   -0.9699    0.5759 C   0  0  0  0  0  0  0  0  0  0  0  0
   -1.8694   -2.1225    0.9189 O   0  0  0  0  0  0  0  0  0  0  0  0
   -3.2916    0.4435    2.2868 C   0  0  0  0  0  0  0  0  0  0  0  0
   -4.2421   -2.1920    1.2489 H   0  0  0  0  0  0  0  0  0  0  0  0
   -3.6772    0.4622    0.1625 H   0  0  0  0  0  0  0  0  0  0  0  0
   -3.0345   -0.2644    3.0832 H   0  0  0  0  0  0  0  0  0  0  0  0
   -2.5093    1.2092    2.2599 H   0  0  0  0  0  0  0  0  0  0  0  0
   -4.2338    0.9283    2.5645 H   0  0  0  0  0  0  0  0  0  0  0  0
   -1.2626   -0.1515   -0.1463 N   0  0  0  0  0  0  0  0  0  0  0  0
    0.0431   -0.5785   -0.5755 C   0  0  2  0  0  0  0  0  0  0  0  0
    1.0271    0.5449   -0.2767 C   0  0  0  0  0  0  0  0  0  0  0  0
    0.7173    1.7341   -0.3087 O   0  0  0  0  0  0  0  0  0  0  0  0
    0.0519   -0.9295   -2.0552 C   0  0  0  0  0  0  0  0  0  0  0  0
   -1.5766    0.7776   -0.4197 H   0  0  0  0  0  0  0  0  0  0  0  0
    0.3005   -1.4590    0.0231 H   0  0  0  0  0  0  0  0  0  0  0  0
   -0.2038   -0.0595   -2.6710 H   0  0  0  0  0  0  0  0  0  0  0  0
    1.0387   -1.2813   -2.3737 H   0  0  0  0  0  0  0  0  0  0  0  0
   -0.6776   -1.7169   -2.2733 H   0  0  0  0  0  0  0  0  0  0  0  0
    2.3062    0.0683   -0.0114 N   0  0  0  0  0  0  0  0  0  0  0  0
    3.4222    0.9361    0.2587 C   0  0  2  0  0  0  0  0  0  0  0  0
    4.6797    0.2664   -0.2795 C   0  0  0  0  0  0  0  0  0  0  0  0
    4.8460   -0.9516   -0.2736 O   0  0  0  0  0  0  0  0  0  0  0  0
    3.5531    1.2223    1.7466 C   0  0  0  0  0  0  0  0  0  0  0  0
    2.4596   -0.9372    0.0328 H   0  0  0  0  0  0  0  0  0  0  0  0
    3.2396    1.8663   -0.2903 H   0  0  0  0  0  0  0  0  0  0  0  0
    3.7364    0.3021    2.3131 H   0  0  0  0  0  0  0  0  0  0  0  0
    4.3850    1.9054    1.9475 H   0  0  0  0  0  0  0  0  0  0  0  0
    2.6366    1.6767    2.1381 H   0  0  0  0  0  0  0  0  0  0  0  0
    5.6125    1.1912   -0.7275 N   0  0  0  0  0  0  0  0  0  0  0  0
    6.9050    0.8068   -1.2450 C   0  0  0  0  0  0  0  0  0  0  0  0
    5.3746    2.1787   -0.7324 H   0  0  0  0  0  0  0  0  0  0  0  0
    7.6434    0.8126   -0.4297 H   0  0  0  0  0  0  0  0  0  0  0  0
    6.8418   -0.2036   -1.6752 H   0  0  0  0  0  0  0  0  0  0  0  0
    7.2141    1.5187   -2.0246 H   0  0  0  0  0  0  0  0  0  0  0  0
  1  3  1  0  0  0  0
  1  7  1  0  0  0  0
  1  2  2  0  0  0  0
 28 29  1  0  0  0  0
 29 37  1  0  0  0  0
 29 30  2  0  0  0  0
 18 19  1  0  0  0  0
 19 27  1  0  0  0  0
 19 20  2  0  0  0  0
  8  9  1  0  0  0  0
  9 17  1  0  0  0  0
  9 10  2  0  0  0  0
 28 31  1  0  0  0  0
 18 21  1  0  0  0  0
  8 11  1  0  0  0  0
 37 38  1  0  0  0  0
 27 28  1  0  0  0  0
 17 18  1  0  0  0  0
  7  8  1  0  0  0  0
  3  4  1  0  0  0  0
  3  5  1  0  0  0  0
  3  6  1  0  0  0  0
 31 34  1  0  0  0  0
 31 35  1  0  0  0  0
 31 36  1  0  0  0  0
 21 24  1  0  0  0  0
 21 25  1  0  0  0  0
 21 26  1  0  0  0  0
 11 14  1  0  0  0  0
 11 15  1  0  0  0  0
 11 16  1  0  0  0  0
 38 40  1  0  0  0  0
 38 41  1  0  0  0  0
 38 42  1  0  0  0  0
 28 33  1  0  0  0  0
 18 23  1  0  0  0  0
  8 13  1  0  0  0  0
 37 39  1  0  0  0  0
  7 12  1  0  0  0  0
 27 32  1  0  0  0  0
 17 22  1  0  0  0  0
M  END
$$$$

  -OEChem-05262214473D

 42 41  0     1  0  0  0  0  0999 V2000
   -5.7851   -0.9580    0.6237 C   0  0  0  0  0  0  0  0  0  0  0  0
   -6.2213    0.1296    0.2652 O   0  0  0  0  0  0  0  0  0  0  0  0
   -6.7088   -2.1270    0.7168 C   0  0  0  0  0  0  0  0  0  0  0  0
   -7.1713   -2.2193    1.7126 H   0  0  0  0  0  0  0  0  0  0  0  0
   -7.5511   -2.0547    0.0101 H   0  0  0  0  0  0  0  0  0  0  0  0
   -6.2485   -3.1083    0.5191 H   0  0  0  0  0  0  0  0  0  0  0  0
   -4.4733   -1.2411    0.9668 N   0  0  0  0  0  0  0  0  0  0  0  0
   -3.4203   -0.2603    0.9449 C   0  0  2  0  0  0  0  0  0  0  0  0
   -2.1242   -0.9699    0.5759 C   0  0  0  0  0  0  0  0  0  0  0  0
   -1.8694   -2.1225    0.9189 O   0  0  0  0  0  0  0  0  0  0  0  0
   -3.2916    0.4435    2.2868 C   0  0  0  0  0  0  0  0  0  0  0  0
   -4.2421   -2.1920    1.2489 H   0  0  0  0  0  0  0  0  0  0  0  0
   -3.6772    0.4622    0.1625 H   0  0  0  0  0  0  0  0  0  0  0  0
   -3.0345   -0.2644    3.0832 H   0  0  0  0  0  0  0  0  0  0  0  0
   -2.5093    1.2092    2.2599 H   0  0  0  0  0  0  0  0  0  0  0  0
   -4.2338    0.9283    2.5645 H   0  0  0  0  0  0  0  0  0  0  0  0
   -1.2626   -0.1515   -0.1463 N   0  0  0  0  0  0  0  0  0  0  0  0
    0.0431   -0.5785   -0.5755 C   0  0  2  0  0  0  0  0  0  0  0  0
    1.0271    0.5449   -0.2767 C   0  0  0  0  0  0  0  0  0  0  0  0
    0.6762    1.7001   -0.0452 O   0  0  0  0  0  0  0  0  0  0  0  0
    0.0519   -0.9295   -2.0552 C   0  0  0  0  0  0  0  0  0  0  0  0
   -1.5766    0.7776   -0.4197 H   0  0  0  0  0  0  0  0  0  0  0  0
    0.3005   -1.4590    0.0231 H   0  0  0  0  0  0  0  0  0  0  0  0
   -0.2038   -0.0595   -2.6710 H   0  0  0  0  0  0  0  0  0  0  0  0
    1.0387   -1.2813   -2.3737 H   0  0  0  0  0  0  0  0  0  0  0  0
   -0.6776   -1.7169   -2.2733 H   0  0  0  0  0  0  0  0  0  0  0  0
    2.3491    0.1184   -0.3408 N   0  0  0  0  0  0  0  0  0  0  0  0
    3.4656    1.0036   -0.1384 C   0  0  2  0  0  0  0  0  0  0  0  0
    4.6163    0.5159   -1.0089 C   0  0  0  0  0  0  0  0  0  0  0  0
    4.8225   -0.6729   -1.2439 O   0  0  0  0  0  0  0  0  0  0  0  0
    3.8745    1.0527    1.3255 C   0  0  0  0  0  0  0  0  0  0  0  0
    2.5428   -0.8684   -0.4998 H   0  0  0  0  0  0  0  0  0  0  0  0
    3.1474    1.9962   -0.4752 H   0  0  0  0  0  0  0  0  0  0  0  0
    4.1966    0.0671    1.6809 H   0  0  0  0  0  0  0  0  0  0  0  0
    4.7056    1.7483    1.4822 H   0  0  0  0  0  0  0  0  0  0  0  0
    3.0370    1.3751    1.9535 H   0  0  0  0  0  0  0  0  0  0  0  0
    5.4111    1.5616   -1.4571 N   0  0  0  0  0  0  0  0  0  0  0  0
    6.5902    1.3538   -2.2650 C   0  0  0  0  0  0  0  0  0  0  0  0
    5.1429    2.5186   -1.2475 H   0  0  0  0  0  0  0  0  0  0  0  0
    7.4730    1.2767   -1.6132 H   0  0  0  0  0  0  0  0  0  0  0  0
    6.4792    0.4247   -2.8432 H   0  0  0  0  0  0  0  0  0  0  0  0
    6.7164    2.2018   -2.9542 H   0  0  0  0  0  0  0  0  0  0  0  0
  1  3  1  0  0  0  0
  1  7  1  0  0  0  0
  1  2  2  0  0  0  0
 28 29  1  0  0  0  0
 29 37  1  0  0  0  0
 29 30  2  0  0  0  0
 18 19  1  0  0  0  0
 19 27  1  0  0  0  0
 19 20  2  0  0  0  0
  8  9  1  0  0  0  0
  9 17  1  0  0  0  0
  9 10  2  0  0  0  0
 28 31  1  0  0  0  0
 18 21  1  0  0  0  0
  8 11  1  0  0  0  0
 37 38  1  0  0  0  0
 27 28  1  0  0  0  0
 17 18  1  0  0  0  0
  7  8  1  0  0  0  0
  3  4  1  0  0  0  0
  3  5  1  0  0  0  0
  3  6  1  0  0  0  0
 31 34  1  0  0  0  0
 31 35  1  0  0  0  0
 31 36  1  0  0  0  0
 21 24  1  0  0  0  0
 21 25  1  0  0  0  0
 21 26  1  0  0  0  0
 11 14  1  0  0  0  0
 11 15  1  0  0  0  0
 11 16  1  0  0  0  0
 38 40  1  0  0  0  0
 38 41  1  0  0  0  0
 38 42  1  0  0  0  0
 28 33  1  0  0  0  0
 18 23  1  0  0  0  0
  8 13  1  0  0  0  0
 37 39  1  0  0  0  0
  7 12  1  0  0  0  0
 27 32  1  0  0  0  0
 17 22  1  0  0  0  0
M  END
$$$$

  -OEChem-05262214473D

 42 41  0     1  0  0  0  0  0999 V2000
   -5.7851   -0.9580    0.6237 C   0  0  0  0  0  0  0  0  0  0  0  0
   -6.2213    0.1296    0.2652 O   0  0  0  0  0  0  0  0  0  0  0  0
   -6.7088   -2.1270    0.7168 C   0  0  0  0  0  0  0  0  0  0  0  0
   -7.1713   -2.2193    1.7126 H   0  0  0  0  0  0  0  0  0  0  0  0
   -7.5511   -2.0547    0.0101 H   0  0  0  0  0  0  0  0  0  0  0  0
   -6.2485   -3.1083    0.5191 H   0  0  0  0  0  0  0  0  0  0  0  0
   -4.4733   -1.2411    0.9668 N   0  0  0  0  0  0  0  0  0  0  0  0
   -3.4203   -0.2603    0.9449 C   0  0  2  0  0  0  0  0  0  0  0  0
   -2.1242   -0.9699    0.5759 C   0  0  0  0  0  0  0  0  0  0  0  0
   -1.8694   -2.1225    0.9189 O   0  0  0  0  0  0  0  0  0  0  0  0
   -3.2916    0.4435    2.2868 C   0  0  0  0  0  0  0  0  0  0  0  0
   -4.2421   -2.1920    1.2489 H   0  0  0  0  0  0  0  0  0  0  0  0
   -3.6772    0.4622    0.1625 H   0  0  0  0  0  0  0  0  0  0  0  0
   -3.0345   -0.2644    3.0832 H   0  0  0  0  0  0  0  0  0  0  0  0
   -2.5093    1.2092    2.2599 H   0  0  0  0  0  0  0  0  0  0  0  0
   -4.2338    0.9283    2.5645 H   0  0  0  0  0  0  0  0  0  0  0  0
   -1.2626   -0.1515   -0.1463 N   0  0  0  0  0  0  0  0  0  0  0  0
    0.0431   -0.5785   -0.5755 C   0  0  2  0  0  0  0  0  0  0  0  0
    1.0718    0.3558    0.0477 C   0  0  0  0  0  0  0  0  0  0  0  0
    0.7664    1.3145    0.7538 O   0  0  0  0  0  0  0  0  0  0  0  0
    0.1552   -0.5764   -2.0921 C   0  0  0  0  0  0  0  0  0  0  0  0
   -1.5766    0.7776   -0.4197 H   0  0  0  0  0  0  0  0  0  0  0  0
    0.1876   -1.5927   -0.1875 H   0  0  0  0  0  0  0  0  0  0  0  0
    0.0132    0.4314   -2.4992 H   0  0  0  0  0  0  0  0  0  0  0  0
    1.1396   -0.9286   -2.4177 H   0  0  0  0  0  0  0  0  0  0  0  0
   -0.6047   -1.2258   -2.5400 H   0  0  0  0  0  0  0  0  0  0  0  0
    2.3730    0.0213   -0.3112 N   0  0  0  0  0  0  0  0  0  0  0  0
    3.5198    0.7787    0.1161 C   0  0  2  0  0  0  0  0  0  0  0  0
    4.5689    0.7054   -0.9855 C   0  0  0  0  0  0  0  0  0  0  0  0
    4.7294   -0.2863   -1.6940 O   0  0  0  0  0  0  0  0  0  0  0  0
    4.0737    0.2503    1.4301 C   0  0  0  0  0  0  0  0  0  0  0  0
    2.5323   -0.8157   -0.8686 H   0  0  0  0  0  0  0  0  0  0  0  0
    3.1873    1.8156    0.2360 H   0  0  0  0  0  0  0  0  0  0  0  0
    4.4119   -0.7874    1.3296 H   0  0  0  0  0  0  0  0  0  0  0  0
    4.9285    0.8453    1.7683 H   0  0  0  0  0  0  0  0  0  0  0  0
    3.3088    0.2761    2.2139 H   0  0  0  0  0  0  0  0  0  0  0  0
    5.3336    1.8614   -1.0558 N   0  0  0  0  0  0  0  0  0  0  0  0
    6.4222    2.0204   -1.9916 C   0  0  0  0  0  0  0  0  0  0  0  0
    5.1047    2.6491   -0.4568 H   0  0  0  0  0  0  0  0  0  0  0  0
    7.3641    1.7109   -1.5151 H   0  0  0  0  0  0  0  0  0  0  0  0
    6.2375    1.3962   -2.8783 H   0  0  0  0  0  0  0  0  0  0  0  0
    6.4940    3.0755   -2.2944 H   0  0  0  0  0  0  0  0  0  0  0  0
  1  3  1  0  0  0  0
  1  7  1  0  0  0  0
  1  2  2  0  0  0  0
 28 29  1  0  0  0  0
 29 37  1  0  0  0  0
 29 30  2  0  0  0  0
 18 19  1  0  0  0  0
 19 27  1  0  0  0  0
 19 20  2  0  0  0  0
  8  9  1  0  0  0  0
  9 17  1  0  0  0  0
  9 10  2  0  0  0  0
 28 31  1  0  0  0  0
 18 21  1  0  0  0  0
  8 11  1  0  0  0  0
 37 38  1  0  0  0  0
 27 28  1  0  0  0  0
 17 18  1  0  0  0  0
  7  8  1  0  0  0  0
  3  4  1  0  0  0  0
  3  5  1  0  0  0  0
  3  6  1  0  0  0  0
 31 34  1  0  0  0  0
 31 35  1  0  0  0  0
 31 36  1  0  0  0  0
 21 24  1  0  0  0  0
 21 25  1  0  0  0  0
 21 26  1  0  0  0  0
 11 14  1  0  0  0  0
 11 15  1  0  0  0  0
 11 16  1  0  0  0  0
 38 40  1  0  0  0  0
 38 41  1  0  0  0  0
 38 42  1  0  0  0  0
 28 33  1  0  0  0  0
 18 23  1  0  0  0  0
  8 13  1  0  0  0  0
 37 39  1  0  0  0  0
  7 12  1  0  0  0  0
 27 32  1  0  0  0  0
 17 22  1  0  0  0  0
M  END
$$$$

  -OEChem-05262214473D

 42 41  0     1  0  0  0  0  0999 V2000
   -5.7851   -0.9580    0.6237 C   0  0  0  0  0  0  0  0  0  0  0  0
   -6.2213    0.1296    0.2652 O   0  0  0  0  0  0  0  0  0  0  0  0
   -6.7088   -2.1270    0.7168 C   0  0  0  0  0  0  0  0  0  0  0  0
   -7.1713   -2.2193    1.7126 H   0  0  0  0  0  0  0  0  0  0  0  0
   -7.5511   -2.0547    0.0101 H   0  0  0  0  0  0  0  0  0  0  0  0
   -6.2485   -3.1083    0.5191 H   0  0  0  0  0  0  0  0  0  0  0  0
   -4.4733   -1.2411    0.9668 N   0  0  0  0  0  0  0  0  0  0  0  0
   -3.4203   -0.2603    0.9449 C   0  0  2  0  0  0  0  0  0  0  0  0
   -2.1242   -0.9699    0.5759 C   0  0  0  0  0  0  0  0  0  0  0  0
   -1.8694   -2.1225    0.9189 O   0  0  0  0  0  0  0  0  0  0  0  0
   -3.2916    0.4435    2.2868 C   0  0  0  0  0  0  0  0  0  0  0  0
   -4.2421   -2.1920    1.2489 H   0  0  0  0  0  0  0  0  0  0  0  0
   -3.6772    0.4622    0.1625 H   0  0  0  0  0  0  0  0  0  0  0  0
   -3.0345   -0.2644    3.0832 H   0  0  0  0  0  0  0  0  0  0  0  0
   -2.5093    1.2092    2.2599 H   0  0  0  0  0  0  0  0  0  0  0  0
   -4.2338    0.9283    2.5645 H   0  0  0  0  0  0  0  0  0  0  0  0
   -1.2626   -0.1515   -0.1463 N   0  0  0  0  0  0  0  0  0  0  0  0
    0.0431   -0.5785   -0.5755 C   0  0  2  0  0  0  0  0  0  0  0  0
    1.0718    0.3558    0.0477 C   0  0  0  0  0  0  0  0  0  0  0  0
    0.8029    1.1401    0.9552 O   0  0  0  0  0  0  0  0  0  0  0  0
    0.1552   -0.5764   -2.0921 C   0  0  0  0  0  0  0  0  0  0  0  0
   -1.5766    0.7776   -0.4197 H   0  0  0  0  0  0  0  0  0  0  0  0
    0.1876   -1.5927   -0.1875 H   0  0  0  0  0  0  0  0  0  0  0  0
    0.0132    0.4314   -2.4992 H   0  0  0  0  0  0  0  0  0  0  0  0
    1.1396   -0.9286   -2.4177 H   0  0  0  0  0  0  0  0  0  0  0  0
   -0.6047   -1.2258   -2.5400 H   0  0  0  0  0  0  0  0  0  0  0  0
    2.3193    0.2443   -0.5567 N   0  0  0  0  0  0  0  0  0  0  0  0
    3.4472    1.0522   -0.1739 C   0  0  2  0  0  0  0  0  0  0  0  0
    4.2983    1.2894   -1.4144 C   0  0  0  0  0  0  0  0  0  0  0  0
    4.4276    0.4559   -2.3086 O   0  0  0  0  0  0  0  0  0  0  0  0
    4.2602    0.3830    0.9232 C   0  0  0  0  0  0  0  0  0  0  0  0
    2.4587   -0.4631   -1.2756 H   0  0  0  0  0  0  0  0  0  0  0  0
    3.0458    2.0071    0.1824 H   0  0  0  0  0  0  0  0  0  0  0  0
    4.6706   -0.5754    0.5847 H   0  0  0  0  0  0  0  0  0  0  0  0
    5.1015    1.0117    1.2332 H   0  0  0  0  0  0  0  0  0  0  0  0
    3.6391    0.1861    1.8037 H   0  0  0  0  0  0  0  0  0  0  0  0
    4.9308    2.5244   -1.3849 N   0  0  0  0  0  0  0  0  0  0  0  0
    5.8273    2.9663   -2.4276 C   0  0  0  0  0  0  0  0  0  0  0  0
    4.7346    3.1683   -0.6242 H   0  0  0  0  0  0  0  0  0  0  0  0
    6.8603    2.6972   -2.1621 H   0  0  0  0  0  0  0  0  0  0  0  0
    5.5542    2.4806   -3.3760 H   0  0  0  0  0  0  0  0  0  0  0  0
    5.7500    4.0579   -2.5391 H   0  0  0  0  0  0  0  0  0  0  0  0
  1  3  1  0  0  0  0
  1  7  1  0  0  0  0
  1  2  2  0  0  0  0
 28 29  1  0  0  0  0
 29 37  1  0  0  0  0
 29 30  2  0  0  0  0
 18 19  1  0  0  0  0
 19 27  1  0  0  0  0
 19 20  2  0  0  0  0
  8  9  1  0  0  0  0
  9 17  1  0  0  0  0
  9 10  2  0  0  0  0
 28 31  1  0  0  0  0
 18 21  1  0  0  0  0
  8 11  1  0  0  0  0
 37 38  1  0  0  0  0
 27 28  1  0  0  0  0
 17 18  1  0  0  0  0
  7  8  1  0  0  0  0
  3  4  1  0  0  0  0
  3  5  1  0  0  0  0
  3  6  1  0  0  0  0
 31 34  1  0  0  0  0
 31 35  1  0  0  0  0
 31 36  1  0  0  0  0
 21 24  1  0  0  0  0
 21 25  1  0  0  0  0
 21 26  1  0  0  0  0
 11 14  1  0  0  0  0
 11 15  1  0  0  0  0
 11 16  1  0  0  0  0
 38 40  1  0  0  0  0
 38 41  1  0  0  0  0
 38 42  1  0  0  0  0
 28 33  1  0  0  0  0
 18 23  1  0  0  0  0
  8 13  1  0  0  0  0
 37 39  1  0  0  0  0
  7 12  1  0  0  0  0
 27 32  1  0  0  0  0
 17 22  1  0  0  0  0
M  END
$$$$

  -OEChem-05262214473D

 42 41  0     1  0  0  0  0  0999 V2000
   -5.7851   -0.9580    0.6237 C   0  0  0  0  0  0  0  0  0  0  0  0
   -6.2213    0.1296    0.2652 O   0  0  0  0  0  0  0  0  0  0  0  0
   -6.7088   -2.1270    0.7168 C   0  0  0  0  0  0  0  0  0  0  0  0
   -7.1713   -2.2193    1.7126 H   0  0  0  0  0  0  0  0  0  0  0  0
   -7.5511   -2.0547    0.0101 H   0  0  0  0  0  0  0  0  0  0  0  0
   -6.2485   -3.1083    0.5191 H   0  0  0  0  0  0  0  0  0  0  0  0
   -4.4733   -1.2411    0.9668 N   0  0  0  0  0  0  0  0  0  0  0  0
   -3.4203   -0.2603    0.9449 C   0  0  2  0  0  0  0  0  0  0  0  0
   -2.1242   -0.9699    0.5759 C   0  0  0  0  0  0  0  0  0  0  0  0
   -1.8694   -2.1225    0.9189 O   0  0  0  0  0  0  0  0  0  0  0  0
   -3.2916    0.4435    2.2868 C   0  0  0  0  0  0  0  0  0  0  0  0
   -4.2421   -2.1920    1.2489 H   0  0  0  0  0  0  0  0  0  0  0  0
   -3.6772    0.4622    0.1625 H   0  0  0  0  0  0  0  0  0  0  0  0
   -3.0345   -0.2644    3.0832 H   0  0  0  0  0  0  0  0  0  0  0  0
   -2.5093    1.2092    2.2599 H   0  0  0  0  0  0  0  0  0  0  0  0
   -4.2338    0.9283    2.5645 H   0  0  0  0  0  0  0  0  0  0  0  0
   -1.2626   -0.1515   -0.1463 N   0  0  0  0  0  0  0  0  0  0  0  0
    0.0431   -0.5785   -0.5755 C   0  0  2  0  0  0  0  0  0  0  0  0
    1.0718    0.3558    0.0477 C   0  0  0  0  0  0  0  0  0  0  0  0
    0.8885    0.9402    1.1135 O   0  0  0  0  0  0  0  0  0  0  0  0
    0.1552   -0.5764   -2.0921 C   0  0  0  0  0  0  0  0  0  0  0  0
   -1.5766    0.7776   -0.4197 H   0  0  0  0  0  0  0  0  0  0  0  0
    0.1876   -1.5927   -0.1875 H   0  0  0  0  0  0  0  0  0  0  0  0
    0.0132    0.4314   -2.4992 H   0  0  0  0  0  0  0  0  0  0  0  0
    1.1396   -0.9286   -2.4177 H   0  0  0  0  0  0  0  0  0  0  0  0
   -0.6047   -1.2258   -2.5400 H   0  0  0  0  0  0  0  0  0  0  0  0
    2.2047    0.4968   -0.7463 N   0  0  0  0  0  0  0  0  0  0  0  0
    3.3020    1.3593   -0.3947 C   0  0  2  0  0  0  0  0  0  0  0  0
    3.9069    1.9000   -1.6836 C   0  0  0  0  0  0  0  0  0  0  0  0
    3.9600    1.2484   -2.7246 O   0  0  0  0  0  0  0  0  0  0  0  0
    4.3459    0.6195    0.4272 C   0  0  0  0  0  0  0  0  0  0  0  0
    2.2856   -0.0593   -1.5953 H   0  0  0  0  0  0  0  0  0  0  0  0
    2.8803    2.1865    0.1866 H   0  0  0  0  0  0  0  0  0  0  0  0
    4.7797   -0.2130   -0.1388 H   0  0  0  0  0  0  0  0  0  0  0  0
    5.1660    1.2843    0.7180 H   0  0  0  0  0  0  0  0  0  0  0  0
    3.9024    0.2058    1.3393 H   0  0  0  0  0  0  0  0  0  0  0  0
    4.4193    3.1797   -1.5230 N   0  0  0  0  0  0  0  0  0  0  0  0
    5.0833    3.8931   -2.5889 C   0  0  0  0  0  0  0  0  0  0  0  0
    4.2956    3.6599   -0.6365 H   0  0  0  0  0  0  0  0  0  0  0  0
    6.1665    3.7096   -2.5346 H   0  0  0  0  0  0  0  0  0  0  0  0
    4.7003    3.5426   -3.5587 H   0  0  0  0  0  0  0  0  0  0  0  0
    4.8885    4.9708   -2.4856 H   0  0  0  0  0  0  0  0  0  0  0  0
  1  3  1  0  0  0  0
  1  7  1  0  0  0  0
  1  2  2  0  0  0  0
 28 29  1  0  0  0  0
 29 37  1  0  0  0  0
 29 30  2  0  0  0  0
 18 19  1  0  0  0  0
 19 27  1  0  0  0  0
 19 20  2  0  0  0  0
  8  9  1  0  0  0  0
  9 17  1  0  0  0  0
  9 10  2  0  0  0  0
 28 31  1  0  0  0  0
 18 21  1  0  0  0  0
  8 11  1  0  0  0  0
 37 38  1  0  0  0  0
 27 28  1  0  0  0  0
 17 18  1  0  0  0  0
  7  8  1  0  0  0  0
  3  4  1  0  0  0  0
  3  5  1  0  0  0  0
  3  6  1  0  0  0  0
 31 34  1  0  0  0  0
 31 35  1  0  0  0  0
 31 36  1  0  0  0  0
 21 24  1  0  0  0  0
 21 25  1  0  0  0  0
 21 26  1  0  0  0  0
 11 14  1  0  0  0  0
 11 15  1  0  0  0  0
 11 16  1  0  0  0  0
 38 40  1  0  0  0  0
 38 41  1  0  0  0  0
 38 42  1  0  0  0  0
 28 33  1  0  0  0  0
 18 23  1  0  0  0  0
  8 13  1  0  0  0  0
 37 39  1  0  0  0  0
  7 12  1  0  0  0  0
 27 32  1  0  0  0  0
 17 22  1  0  0  0  0
M  END
$$$$

  -OEChem-05262214473D

 42 41  0     1  0  0  0  0  0999 V2000
   -5.7851   -0.9580    0.6237 C   0  0  0  0  0  0  0  0  0  0  0  0
   -6.2213    0.1296    0.2652 O   0  0  0  0  0  0  0  0  0  0  0  0
   -6.7088   -2.1270    0.7168 C   0  0  0  0  0  0  0  0  0  0  0  0
   -7.1713   -2.2193    1.7126 H   0  0  0  0  0  0  0  0  0  0  0  0
   -7.5511   -2.0547    0.0101 H   0  0  0  0  0  0  0  0  0  0  0  0
   -6.2485   -3.1083    0.5191 H   0  0  0  0  0  0  0  0  0  0  0  0
   -4.4733   -1.2411    0.9668 N   0  0  0  0  0  0  0  0  0  0  0  0
   -3.4203   -0.2603    0.9449 C   0  0  2  0  0  0  0  0  0  0  0  0
   -2.1242   -0.9699    0.5759 C   0  0  0  0  0  0  0  0  0  0  0  0
   -1.8694   -2.1225    0.9189 O   0  0  0  0  0  0  0  0  0  0  0  0
   -3.2916    0.4435    2.2868 C   0  0  0  0  0  0  0  0  0  0  0  0
   -4.2421   -2.1920    1.2489 H   0  0  0  0  0  0  0  0  0  0  0  0
   -3.6772    0.4622    0.1625 H   0  0  0  0  0  0  0  0  0  0  0  0
   -3.0345   -0.2644    3.0832 H   0  0  0  0  0  0  0  0  0  0  0  0
   -2.5093    1.2092    2.2599 H   0  0  0  0  0  0  0  0  0  0  0  0
   -4.2338    0.9283    2.5645 H   0  0  0  0  0  0  0  0  0  0  0  0
   -1.2626   -0.1515   -0.1463 N   0  0  0  0  0  0  0  0  0  0  0  0
    0.0431   -0.5785   -0.5755 C   0  0  2  0  0  0  0  0  0  0  0  0
    1.0718    0.3558    0.0477 C   0  0  0  0  0  0  0  0  0  0  0  0
    1.0175    0.7286    1.2178 O   0  0  0  0  0  0  0  0  0  0  0  0
    0.1552   -0.5764   -2.0921 C   0  0  0  0  0  0  0  0  0  0  0  0
   -1.5766    0.7776   -0.4197 H   0  0  0  0  0  0  0  0  0  0  0  0
    0.1876   -1.5927   -0.1875 H   0  0  0  0  0  0  0  0  0  0  0  0
    0.0132    0.4314   -2.4992 H   0  0  0  0  0  0  0  0  0  0  0  0
    1.1396   -0.9286   -2.4177 H   0  0  0  0  0  0  0  0  0  0  0  0
   -0.6047   -1.2258   -2.5400 H   0  0  0  0  0  0  0  0  0  0  0  0
    2.0373    0.7618   -0.8671 N   0  0  0  0  0  0  0  0  0  0  0  0
    3.0941    1.6792   -0.5313 C   0  0  2  0  0  0  0  0  0  0  0  0
    3.4214    2.4953   -1.7748 C   0  0  0  0  0  0  0  0  0  0  0  0
    3.3583    2.0370   -2.9137 O   0  0  0  0  0  0  0  0  0  0  0  0
    4.3249    0.9438   -0.0242 C   0  0  0  0  0  0  0  0  0  0  0  0
    2.0249    0.3684   -1.8061 H   0  0  0  0  0  0  0  0  0  0  0  0
    2.7021    2.3416    0.2482 H   0  0  0  0  0  0  0  0  0  0  0  0
    4.7319    0.2752   -0.7916 H   0  0  0  0  0  0  0  0  0  0  0  0
    5.1177    1.6445    0.2578 H   0  0  0  0  0  0  0  0  0  0  0  0
    4.0810    0.3340    0.8524 H   0  0  0  0  0  0  0  0  0  0  0  0
    3.8340    3.7826   -1.4606 N   0  0  0  0  0  0  0  0  0  0  0  0
    4.2408    4.7378   -2.4646 C   0  0  0  0  0  0  0  0  0  0  0  0
    3.8176    4.0903   -0.4927 H   0  0  0  0  0  0  0  0  0  0  0  0
    5.3300    4.6791   -2.6073 H   0  0  0  0  0  0  0  0  0  0  0  0
    3.7340    4.5100   -3.4139 H   0  0  0  0  0  0  0  0  0  0  0  0
    3.9681    5.7520   -2.1375 H   0  0  0  0  0  0  0  0  0  0  0  0
  1  3  1  0  0  0  0
  1  7  1  0  0  0  0
  1  2  2  0  0  0  0
 28 29  1  0  0  0  0
 29 37  1  0  0  0  0
 29 30  2  0  0  0  0
 18 19  1  0  0  0  0
 19 27  1  0  0  0  0
 19 20  2  0  0  0  0
  8  9  1  0  0  0  0
  9 17  1  0  0  0  0
  9 10  2  0  0  0  0
 28 31  1  0  0  0  0
 18 21  1  0  0  0  0
  8 11  1  0  0  0  0
 37 38  1  0  0  0  0
 27 28  1  0  0  0  0
 17 18  1  0  0  0  0
  7  8  1  0  0  0  0
  3  4  1  0  0  0  0
  3  5  1  0  0  0  0
  3  6  1  0  0  0  0
 31 34  1  0  0  0  0
 31 35  1  0  0  0  0
 31 36  1  0  0  0  0
 21 24  1  0  0  0  0
 21 25  1  0  0  0  0
 21 26  1  0  0  0  0
 11 14  1  0  0  0  0
 11 15  1  0  0  0  0
 11 16  1  0  0  0  0
 38 40  1  0  0  0  0
 38 41  1  0  0  0  0
 38 42  1  0  0  0  0
 28 33  1  0  0  0  0
 18 23  1  0  0  0  0
  8 13  1  0  0  0  0
 37 39  1  0  0  0  0
  7 12  1  0  0  0  0
 27 32  1  0  0  0  0
 17 22  1  0  0  0  0
M  END
$$$$

  -OEChem-05262214473D

 42 41  0     1  0  0  0  0  0999 V2000
   -5.7851   -0.9580    0.6237 C   0  0  0  0  0  0  0  0  0  0  0  0
   -6.2213    0.1296    0.2652 O   0  0  0  0  0  0  0  0  0  0  0  0
   -6.7088   -2.1270    0.7168 C   0  0  0  0  0  0  0  0  0  0  0  0
   -7.1713   -2.2193    1.7126 H   0  0  0  0  0  0  0  0  0  0  0  0
   -7.5511   -2.0547    0.0101 H   0  0  0  0  0  0  0  0  0  0  0  0
   -6.2485   -3.1083    0.5191 H   0  0  0  0  0  0  0  0  0  0  0  0
   -4.4733   -1.2411    0.9668 N   0  0  0  0  0  0  0  0  0  0  0  0
   -3.4203   -0.2603    0.9449 C   0  0  2  0  0  0  0  0  0  0  0  0
   -2.1242   -0.9699    0.5759 C   0  0  0  0  0  0  0  0  0  0  0  0
   -1.8694   -2.1225    0.9189 O   0  0  0  0  0  0  0  0  0  0  0  0
   -3.2916    0.4435    2.2868 C   0  0  0  0  0  0  0  0  0  0  0  0
   -4.2421   -2.1920    1.2489 H   0  0  0  0  0  0  0  0  0  0  0  0
   -3.6772    0.4622    0.1625 H   0  0  0  0  0  0  0  0  0  0  0  0
   -3.0345   -0.2644    3.0832 H   0  0  0  0  0  0  0  0  0  0  0  0
   -2.5093    1.2092    2.2599 H   0  0  0  0  0  0  0  0  0  0  0  0
   -4.2338    0.9283    2.5645 H   0  0  0  0  0  0  0  0  0  0  0  0
   -1.2626   -0.1515   -0.1463 N   0  0  0  0  0  0  0  0  0  0  0  0
    0.0431   -0.5785   -0.5755 C   0  0  2  0  0  0  0  0  0  0  0  0
    1.0718    0.3558    0.0477 C   0  0  0  0  0  0  0  0  0  0  0  0
    1.1811    0.5196    1.2610 O   0  0  0  0  0  0  0  0  0  0  0  0
    0.1552   -0.5764   -2.0921 C   0  0  0  0  0  0  0  0  0  0  0  0
   -1.5766    0.7776   -0.4197 H   0  0  0  0  0  0  0  0  0  0  0  0
    0.1876   -1.5927   -0.1875 H   0  0  0  0  0  0  0  0  0  0  0  0
    0.0132    0.4314   -2.4992 H   0  0  0  0  0  0  0  0  0  0  0  0
    1.1396   -0.9286   -2.4177 H   0  0  0  0  0  0  0  0  0  0  0  0
   -0.6047   -1.2258   -2.5400 H   0  0  0  0  0  0  0  0  0  0  0  0
    1.8283    1.0212   -0.9109 N   0  0  0  0  0  0  0  0  0  0  0  0
    2.8378    1.9901   -0.5742 C   0  0  2  0  0  0  0  0  0  0  0  0
    2.8750    3.0348   -1.6817 C   0  0  0  0  0  0  0  0  0  0  0  0
    2.6635    2.7681   -2.8629 O   0  0  0  0  0  0  0  0  0  0  0  0
    4.1986    1.3337   -0.4003 C   0  0  0  0  0  0  0  0  0  0  0  0
    1.6943    0.7907   -1.8936 H   0  0  0  0  0  0  0  0  0  0  0  0
    2.5234    2.4617    0.3632 H   0  0  0  0  0  0  0  0  0  0  0  0
    4.5303    0.8557   -1.3292 H   0  0  0  0  0  0  0  0  0  0  0  0
    4.9598    2.0677   -0.1162 H   0  0  0  0  0  0  0  0  0  0  0  0
    4.1626    0.5618    0.3761 H   0  0  0  0  0  0  0  0  0  0  0  0
    3.2146    4.2921   -1.2019 N   0  0  0  0  0  0  0  0  0  0  0  0
    3.3574    5.4427   -2.0631 C   0  0  0  0  0  0  0  0  0  0  0  0
    3.3330    4.4303   -0.2026 H   0  0  0  0  0  0  0  0  0  0  0  0
    4.4077    5.5397   -2.3751 H   0  0  0  0  0  0  0  0  0  0  0  0
    2.7212    5.3168   -2.9516 H   0  0  0  0  0  0  0  0  0  0  0  0
    3.0517    6.3483   -1.5185 H   0  0  0  0  0  0  0  0  0  0  0  0
  1  3  1  0  0  0  0
  1  7  1  0  0  0  0
  1  2  2  0  0  0  0
 28 29  1  0  0  0  0
 29 37  1  0  0  0  0
 29 30  2  0  0  0  0
 18 19  1  0  0  0  0
 19 27  1  0  0  0  0
 19 20  2  0  0  0  0
  8  9  1  0  0  0  0
  9 17  1  0  0  0  0
  9 10  2  0  0  0  0
 28 31  1  0  0  0  0
 18 21  1  0  0  0  0
  8 11  1  0  0  0  0
 37 38  1  0  0  0  0
 27 28  1  0  0  0  0
 17 18  1  0  0  0  0
  7  8  1  0  0  0  0
  3  4  1  0  0  0  0
  3  5  1  0  0  0  0
  3  6  1  0  0  0  0
 31 34  1  0  0  0  0
 31 35  1  0  0  0  0
 31 36  1  0  0  0  0
 21 24  1  0  0  0  0
 21 25  1  0  0  0  0
 21 26  1  0  0  0  0
 11 14  1  0  0  0  0
 11 15  1  0  0  0  0
 11 16  1  0  0  0  0
 38 40  1  0  0  0  0
 38 41  1  0  0  0  0
 38 42  1  0  0  0  0
 28 33  1  0  0  0  0
 18 23  1  0  0  0  0
  8 13  1  0  0  0  0
 37 39  1  0  0  0  0
  7 12  1  0  0  0  0
 27 32  1  0  0  0  0
 17 22  1  0  0  0  0
M  END
$$$$

  -OEChem-05262214473D

 42 41  0     1  0  0  0  0  0999 V2000
   -5.7851   -0.9580    0.6237 C   0  0  0  0  0  0  0  0  0  0  0  0
   -6.2213    0.1296    0.2652 O   0  0  0  0  0  0  0  0  0  0  0  0
   -6.7088   -2.1270    0.7168 C   0  0  0  0  0  0  0  0  0  0  0  0
   -7.1713   -2.2193    1.7126 H   0  0  0  0  0  0  0  0  0  0  0  0
   -7.5511   -2.0547    0.0101 H   0  0  0  0  0  0  0  0  0  0  0  0
   -6.2485   -3.1083    0.5191 H   0  0  0  0  0  0  0  0  0  0  0  0
   -4.4733   -1.2411    0.9668 N   0  0  0  0  0  0  0  0  0  0  0  0
   -3.4203   -0.2603    0.9449 C   0  0  2  0  0  0  0  0  0  0  0  0
   -2.1242   -0.9699    0.5759 C   0  0  0  0  0  0  0  0  0  0  0  0
   -1.8694   -2.1225    0.9189 O   0  0  0  0  0  0  0  0  0  0  0  0
   -3.2916    0.4435    2.2868 C   0  0  0  0  0  0  0  0  0  0  0  0
   -4.2421   -2.1920    1.2489 H   0  0  0  0  0  0  0  0  0  0  0  0
   -3.6772    0.4622    0.1625 H   0  0  0  0  0  0  0  0  0  0  0  0
   -3.0345   -0.2644    3.0832 H   0  0  0  0  0  0  0  0  0  0  0  0
   -2.5093    1.2092    2.2599 H   0  0  0  0  0  0  0  0  0  0  0  0
   -4.2338    0.9283    2.5645 H   0  0  0  0  0  0  0  0  0  0  0  0
   -1.2626   -0.1515   -0.1463 N   0  0  0  0  0  0  0  0  0  0  0  0
    0.0431   -0.5785   -0.5755 C   0  0  2  0  0  0  0  0  0  0  0  0
    1.0718    0.3558    0.0477 C   0  0  0  0  0  0  0  0  0  0  0  0
    1.3682    0.3275    1.2403 O   0  0  0  0  0  0  0  0  0  0  0  0
    0.1552   -0.5764   -2.0921 C   0  0  0  0  0  0  0  0  0  0  0  0
   -1.5766    0.7776   -0.4197 H   0  0  0  0  0  0  0  0  0  0  0  0
    0.1876   -1.5927   -0.1875 H   0  0  0  0  0  0  0  0  0  0  0  0
    0.0132    0.4314   -2.4992 H   0  0  0  0  0  0  0  0  0  0  0  0
    1.1396   -0.9286   -2.4177 H   0  0  0  0  0  0  0  0  0  0  0  0
   -0.6047   -1.2258   -2.5400 H   0  0  0  0  0  0  0  0  0  0  0  0
    1.5920    1.2572   -0.8747 N   0  0  0  0  0  0  0  0  0  0  0  0
    2.5505    2.2707   -0.5206 C   0  0  2  0  0  0  0  0  0  0  0  0
    2.3049    3.4819   -1.4107 C   0  0  0  0  0  0  0  0  0  0  0  0
    1.9231    3.3918   -2.5757 O   0  0  0  0  0  0  0  0  0  0  0  0
    3.9756    1.7626   -0.6752 C   0  0  0  0  0  0  0  0  0  0  0  0
    1.3163    1.1790   -1.8517 H   0  0  0  0  0  0  0  0  0  0  0  0
    2.3563    2.5387    0.5236 H   0  0  0  0  0  0  0  0  0  0  0  0
    4.1888    1.4891   -1.7150 H   0  0  0  0  0  0  0  0  0  0  0  0
    4.7031    2.5252   -0.3783 H   0  0  0  0  0  0  0  0  0  0  0  0
    4.1416    0.8738   -0.0570 H   0  0  0  0  0  0  0  0  0  0  0  0
    2.6034    4.6734   -0.7647 N   0  0  0  0  0  0  0  0  0  0  0  0
    2.4932    5.9599   -1.4117 C   0  0  0  0  0  0  0  0  0  0  0  0
    2.8751    4.6568    0.2139 H   0  0  0  0  0  0  0  0  0  0  0  0
    3.4626    6.2328   -1.8540 H   0  0  0  0  0  0  0  0  0  0  0  0
    1.7309    5.9080   -2.2031 H   0  0  0  0  0  0  0  0  0  0  0  0
    2.2016    6.7190   -0.6709 H   0  0  0  0  0  0  0  0  0  0  0  0
  1  3  1  0  0  0  0
  1  7  1  0  0  0  0
  1  2  2  0  0  0  0
 28 29  1  0  0  0  0
 29 37  1  0  0  0  0
 29 30  2  0  0  0  0
 18 19  1  0  0  0  0
 19 27  1  0  0  0  0
 19 20  2  0  0  0  0
  8  9  1  0  0  0  0
  9 17  1  0  0  0  0
  9 10  2  0  0  0  0
 28 31  1  0  0  0  0
 18 21  1  0  0  0  0
  8 11  1  0  0  0  0
 37 38  1  0  0  0  0
 27 28  1  0  0  0  0
 17 18  1  0  0  0  0
  7  8  1  0  0  0  0
  3  4  1  0  0  0  0
  3  5  1  0  0  0  0
  3  6  1  0  0  0  0
 31 34  1  0  0  0  0
 31 35  1  0  0  0  0
 31 36  1  0  0  0  0
 21 24  1  0  0  0  0
 21 25  1  0  0  0  0
 21 26  1  0  0  0  0
 11 14  1  0  0  0  0
 11 15  1  0  0  0  0
 11 16  1  0  0  0  0
 38 40  1  0  0  0  0
 38 41  1  0  0  0  0
 38 42  1  0  0  0  0
 28 33  1  0  0  0  0
 18 23  1  0  0  0  0
  8 13  1  0  0  0  0
 37 39  1  0  0  0  0
  7 12  1  0  0  0  0
 27 32  1  0  0  0  0
 17 22  1  0  0  0  0
M  END
$$$$

  -OEChem-05262214473D

 42 41  0     1  0  0  0  0  0999 V2000
   -5.7851   -0.9580    0.6237 C   0  0  0  0  0  0  0  0  0  0  0  0
   -6.2213    0.1296    0.2652 O   0  0  0  0  0  0  0  0  0  0  0  0
   -6.7088   -2.1270    0.7168 C   0  0  0  0  0  0  0  0  0  0  0  0
   -7.1713   -2.2193    1.7126 H   0  0  0  0  0  0  0  0  0  0  0  0
   -7.5511   -2.0547    0.0101 H   0  0  0  0  0  0  0  0  0  0  0  0
   -6.2485   -3.1083    0.5191 H   0  0  0  0  0  0  0  0  0  0  0  0
   -4.4733   -1.2411    0.9668 N   0  0  0  0  0  0  0  0  0  0  0  0
   -3.4203   -0.2603    0.9449 C   0  0  2  0  0  0  0  0  0  0  0  0
   -2.1242   -0.9699    0.5759 C   0  0  0  0  0  0  0  0  0  0  0  0
   -1.8694   -2.1225    0.9189 O   0  0  0  0  0  0  0  0  0  0  0  0
   -3.2916    0.4435    2.2868 C   0  0  0  0  0  0  0  0  0  0  0  0
   -4.2421   -2.1920    1.2489 H   0  0  0  0  0  0  0  0  0  0  0  0
   -3.6772    0.4622    0.1625 H   0  0  0  0  0  0  0  0  0  0  0  0
   -3.0345   -0.2644    3.0832 H   0  0  0  0  0  0  0  0  0  0  0  0
   -2.5093    1.2092    2.2599 H   0  0  0  0  0  0  0  0  0  0  0  0
   -4.2338    0.9283    2.5645 H   0  0  0  0  0  0  0  0  0  0  0  0
   -1.2626   -0.1515   -0.1463 N   0  0  0  0  0  0  0  0  0  0  0  0
    0.0431   -0.5785   -0.5755 C   0  0  2  0  0  0  0  0  0  0  0  0
    1.0718    0.3558    0.0477 C   0  0  0  0  0  0  0  0  0  0  0  0
    1.5659    0.1653    1.1570 O   0  0  0  0  0  0  0  0  0  0  0  0
    0.1552   -0.5764   -2.0921 C   0  0  0  0  0  0  0  0  0  0  0  0
   -1.5766    0.7776   -0.4197 H   0  0  0  0  0  0  0  0  0  0  0  0
    0.1876   -1.5927   -0.1875 H   0  0  0  0  0  0  0  0  0  0  0  0
    0.0132    0.4314   -2.4992 H   0  0  0  0  0  0  0  0  0  0  0  0
    1.1396   -0.9286   -2.4177 H   0  0  0  0  0  0  0  0  0  0  0  0
   -0.6047   -1.2258   -2.5400 H   0  0  0  0  0  0  0  0  0  0  0  0
    1.3444    1.4538   -0.7609 N   0  0  0  0  0  0  0  0  0  0  0  0
    2.2518    2.5019   -0.3742 C   0  0  2  0  0  0  0  0  0  0  0  0
    1.7498    3.8059   -0.9802 C   0  0  0  0  0  0  0  0  0  0  0  0
    1.1875    3.8656   -2.0717 O   0  0  0  0  0  0  0  0  0  0  0  0
    3.6711    2.2014   -0.8304 C   0  0  0  0  0  0  0  0  0  0  0  0
    0.9168    1.5066   -1.6834 H   0  0  0  0  0  0  0  0  0  0  0  0
    2.2122    2.5673    0.7186 H   0  0  0  0  0  0  0  0  0  0  0  0
    3.7305    2.1322   -1.9227 H   0  0  0  0  0  0  0  0  0  0  0  0
    4.3650    2.9858   -0.5107 H   0  0  0  0  0  0  0  0  0  0  0  0
    4.0196    1.2486   -0.4176 H   0  0  0  0  0  0  0  0  0  0  0  0
    2.0422    4.9005   -0.1787 N   0  0  0  0  0  0  0  0  0  0  0  0
    1.7070    6.2541   -0.5550 C   0  0  0  0  0  0  0  0  0  0  0  0
    2.4749    4.7541    0.7286 H   0  0  0  0  0  0  0  0  0  0  0  0
    2.5591    6.7110   -1.0795 H   0  0  0  0  0  0  0  0  0  0  0  0
    0.8305    6.2434   -1.2195 H   0  0  0  0  0  0  0  0  0  0  0  0
    1.4758    6.8388    0.3476 H   0  0  0  0  0  0  0  0  0  0  0  0
  1  3  1  0  0  0  0
  1  7  1  0  0  0  0
  1  2  2  0  0  0  0
 28 29  1  0  0  0  0
 29 37  1  0  0  0  0
 29 30  2  0  0  0  0
 18 19  1  0  0  0  0
 19 27  1  0  0  0  0
 19 20  2  0  0  0  0
  8  9  1  0  0  0  0
  9 17  1  0  0  0  0
  9 10  2  0  0  0  0
 28 31  1  0  0  0  0
 18 21  1  0  0  0  0
  8 11  1  0  0  0  0
 37 38  1  0  0  0  0
 27 28  1  0  0  0  0
 17 18  1  0  0  0  0
  7  8  1  0  0  0  0
  3  4  1  0  0  0  0
  3  5  1  0  0  0  0
  3  6  1  0  0  0  0
 31 34  1  0  0  0  0
 31 35  1  0  0  0  0
 31 36  1  0  0  0  0
 21 24  1  0  0  0  0
 21 25  1  0  0  0  0
 21 26  1  0  0  0  0
 11 14  1  0  0  0  0
 11 15  1  0  0  0  0
 11 16  1  0  0  0  0
 38 40  1  0  0  0  0
 38 41  1  0  0  0  0
 38 42  1  0  0  0  0
 28 33  1  0  0  0  0
 18 23  1  0  0  0  0
  8 13  1  0  0  0  0
 37 39  1  0  0  0  0
  7 12  1  0  0  0  0
 27 32  1  0  0  0  0
 17 22  1  0  0  0  0
M  END
$$$$

  -OEChem-05262214473D

 42 41  0     1  0  0  0  0  0999 V2000
   -5.7851   -0.9580    0.6237 C   0  0  0  0  0  0  0  0  0  0  0  0
   -6.2213    0.1296    0.2652 O   0  0  0  0  0  0  0  0  0  0  0  0
   -6.7088   -2.1270    0.7168 C   0  0  0  0  0  0  0  0  0  0  0  0
   -7.1713   -2.2193    1.7126 H   0  0  0  0  0  0  0  0  0  0  0  0
   -7.5511   -2.0547    0.0101 H   0  0  0  0  0  0  0  0  0  0  0  0
   -6.2485   -3.1083    0.5191 H   0  0  0  0  0  0  0  0  0  0  0  0
   -4.4733   -1.2411    0.9668 N   0  0  0  0  0  0  0  0  0  0  0  0
   -3.4203   -0.2603    0.9449 C   0  0  2  0  0  0  0  0  0  0  0  0
   -2.1242   -0.9699    0.5759 C   0  0  0  0  0  0  0  0  0  0  0  0
   -1.8694   -2.1225    0.9189 O   0  0  0  0  0  0  0  0  0  0  0  0
   -3.2916    0.4435    2.2868 C   0  0  0  0  0  0  0  0  0  0  0  0
   -4.2421   -2.1920    1.2489 H   0  0  0  0  0  0  0  0  0  0  0  0
   -3.6772    0.4622    0.1625 H   0  0  0  0  0  0  0  0  0  0  0  0
   -3.0345   -0.2644    3.0832 H   0  0  0  0  0  0  0  0  0  0  0  0
   -2.5093    1.2092    2.2599 H   0  0  0  0  0  0  0  0  0  0  0  0
   -4.2338    0.9283    2.5645 H   0  0  0  0  0  0  0  0  0  0  0  0
   -1.2626   -0.1515   -0.1463 N   0  0  0  0  0  0  0  0  0  0  0  0
    0.0431   -0.5785   -0.5755 C   0  0  2  0  0  0  0  0  0  0  0  0
    1.0718    0.3558    0.0477 C   0  0  0  0  0  0  0  0  0  0  0  0
    1.7608    0.0442    1.0169 O   0  0  0  0  0  0  0  0  0  0  0  0
    0.1552   -0.5764   -2.0921 C   0  0  0  0  0  0  0  0  0  0  0  0
   -1.5766    0.7776   -0.4197 H   0  0  0  0  0  0  0  0  0  0  0  0
    0.1876   -1.5927   -0.1875 H   0  0  0  0  0  0  0  0  0  0  0  0
    0.0132    0.4314   -2.4992 H   0  0  0  0  0  0  0  0  0  0  0  0
    1.1396   -0.9286   -2.4177 H   0  0  0  0  0  0  0  0  0  0  0  0
   -0.6047   -1.2258   -2.5400 H   0  0  0  0  0  0  0  0  0  0  0  0
    1.1026    1.5977   -0.5774 N   0  0  0  0  0  0  0  0  0  0  0  0
    1.9620    2.6681   -0.1449 C   0  0  2  0  0  0  0  0  0  0  0  0
    1.2477    3.9849   -0.4197 C   0  0  0  0  0  0  0  0  0  0  0  0
    0.5067    4.1573   -1.3852 O   0  0  0  0  0  0  0  0  0  0  0  0
    3.3058    2.6202   -0.8553 C   0  0  0  0  0  0  0  0  0  0  0  0
    0.5229    1.7514   -1.4001 H   0  0  0  0  0  0  0  0  0  0  0  0
    2.1009    2.5457    0.9348 H   0  0  0  0  0  0  0  0  0  0  0  0
    3.1868    2.7412   -1.9382 H   0  0  0  0  0  0  0  0  0  0  0  0
    3.9687    3.4180   -0.5045 H   0  0  0  0  0  0  0  0  0  0  0  0
    3.8048    1.6608   -0.6809 H   0  0  0  0  0  0  0  0  0  0  0  0
    1.5690    4.9580    0.5162 N   0  0  0  0  0  0  0  0  0  0  0  0
    1.0525    6.3051    0.4489 C   0  0  0  0  0  0  0  0  0  0  0  0
    2.1597    4.7159    1.3062 H   0  0  0  0  0  0  0  0  0  0  0  0
    1.7587    6.9419   -0.1042 H   0  0  0  0  0  0  0  0  0  0  0  0
    0.0815    6.3000   -0.0679 H   0  0  0  0  0  0  0  0  0  0  0  0
    0.9237    6.6996    1.4676 H   0  0  0  0  0  0  0  0  0  0  0  0
  1  3  1  0  0  0  0
  1  7  1  0  0  0  0
  1  2  2  0  0  0  0
 28 29  1  0  0  0  0
 29 37  1  0  0  0  0
 29 30  2  0  0  0  0
 18 19  1  0  0  0  0
 19 27  1  0  0  0  0
 19 20  2  0  0  0  0
  8  9  1  0  0  0  0
  9 17  1  0  0  0  0
  9 10  2  0  0  0  0
 28 31  1  0  0  0  0
 18 21  1  0  0  0  0
  8 11  1  0  0  0  0
 37 38  1  0  0  0  0
 27 28  1  0  0  0  0
 17 18  1  0  0  0  0
  7  8  1  0  0  0  0
  3  4  1  0  0  0  0
  3  5  1  0  0  0  0
  3  6  1  0  0  0  0
 31 34  1  0  0  0  0
 31 35  1  0  0  0  0
 31 36  1  0  0  0  0
 21 24  1  0  0  0  0
 21 25  1  0  0  0  0
 21 26  1  0  0  0  0
 11 14  1  0  0  0  0
 11 15  1  0  0  0  0
 11 16  1  0  0  0  0
 38 40  1  0  0  0  0
 38 41  1  0  0  0  0
 38 42  1  0  0  0  0
 28 33  1  0  0  0  0
 18 23  1  0  0  0  0
  8 13  1  0  0  0  0
 37 39  1  0  0  0  0
  7 12  1  0  0  0  0
 27 32  1  0  0  0  0
 17 22  1  0  0  0  0
M  END
$$$$

  -OEChem-05262214473D

 42 41  0     1  0  0  0  0  0999 V2000
   -5.7851   -0.9580    0.6237 C   0  0  0  0  0  0  0  0  0  0  0  0
   -6.2213    0.1296    0.2652 O   0  0  0  0  0  0  0  0  0  0  0  0
   -6.7088   -2.1270    0.7168 C   0  0  0  0  0  0  0  0  0  0  0  0
   -7.1713   -2.2193    1.7126 H   0  0  0  0  0  0  0  0  0  0  0  0
   -7.5511   -2.0547    0.0101 H   0  0  0  0  0  0  0  0  0  0  0  0
   -6.2485   -3.1083    0.5191 H   0  0  0  0  0  0  0  0  0  0  0  0
   -4.4733   -1.2411    0.9668 N   0  0  0  0  0  0  0  0  0  0  0  0
   -3.4203   -0.2603    0.9449 C   0  0  2  0  0  0  0  0  0  0  0  0
   -2.1242   -0.9699    0.5759 C   0  0  0  0  0  0  0  0  0  0  0  0
   -1.8694   -2.1225    0.9189 O   0  0  0  0  0  0  0  0  0  0  0  0
   -3.2916    0.4435    2.2868 C   0  0  0  0  0  0  0  0  0  0  0  0
   -4.2421   -2.1920    1.2489 H   0  0  0  0  0  0  0  0  0  0  0  0
   -3.6772    0.4622    0.1625 H   0  0  0  0  0  0  0  0  0  0  0  0
   -3.0345   -0.2644    3.0832 H   0  0  0  0  0  0  0  0  0  0  0  0
   -2.5093    1.2092    2.2599 H   0  0  0  0  0  0  0  0  0  0  0  0
   -4.2338    0.9283    2.5645 H   0  0  0  0  0  0  0  0  0  0  0  0
   -1.2626   -0.1515   -0.1463 N   0  0  0  0  0  0  0  0  0  0  0  0
    0.0431   -0.5785   -0.5755 C   0  0  2  0  0  0  0  0  0  0  0  0
    1.0718    0.3558    0.0477 C   0  0  0  0  0  0  0  0  0  0  0  0
    1.9396   -0.0276    0.8293 O   0  0  0  0  0  0  0  0  0  0  0  0
    0.1552   -0.5764   -2.0921 C   0  0  0  0  0  0  0  0  0  0  0  0
   -1.5766    0.7776   -0.4197 H   0  0  0  0  0  0  0  0  0  0  0  0
    0.1876   -1.5927   -0.1875 H   0  0  0  0  0  0  0  0  0  0  0  0
    0.0132    0.4314   -2.4992 H   0  0  0  0  0  0  0  0  0  0  0  0
    1.1396   -0.9286   -2.4177 H   0  0  0  0  0  0  0  0  0  0  0  0
   -0.6047   -1.2258   -2.5400 H   0  0  0  0  0  0  0  0  0  0  0  0
    0.8829    1.6789   -0.3365 N   0  0  0  0  0  0  0  0  0  0  0  0
    1.7009    2.7578    0.1516 C   0  0  2  0  0  0  0  0  0  0  0  0
    0.8328    4.0065    0.2328 C   0  0  0  0  0  0  0  0  0  0  0  0
   -0.0727    4.2469   -0.5631 O   0  0  0  0  0  0  0  0  0  0  0  0
    2.9047    2.9903   -0.7481 C   0  0  0  0  0  0  0  0  0  0  0  0
    0.1615    1.8966   -1.0211 H   0  0  0  0  0  0  0  0  0  0  0  0
    2.0301    2.4751    1.1575 H   0  0  0  0  0  0  0  0  0  0  0  0
    2.5947    3.2745   -1.7603 H   0  0  0  0  0  0  0  0  0  0  0  0
    3.5411    3.7924   -0.3599 H   0  0  0  0  0  0  0  0  0  0  0  0
    3.5119    2.0822   -0.8291 H   0  0  0  0  0  0  0  0  0  0  0  0
    1.2162    4.8420    1.2726 N   0  0  0  0  0  0  0  0  0  0  0  0
    0.5743    6.1097    1.5313 C   0  0  0  0  0  0  0  0  0  0  0  0
    1.9510    4.5445    1.9076 H   0  0  0  0  0  0  0  0  0  0  0  0
    1.1159    6.9096    1.0052 H   0  0  0  0  0  0  0  0  0  0  0  0
   -0.4652    6.0740    1.1733 H   0  0  0  0  0  0  0  0  0  0  0  0
    0.5830    6.3110    2.6127 H   0  0  0  0  0  0  0  0  0  0  0  0
  1  3  1  0  0  0  0
  1  7  1  0  0  0  0
  1  2  2  0  0  0  0
 28 29  1  0  0  0  0
 29 37  1  0  0  0  0
 29 30  2  0  0  0  0
 18 19  1  0  0  0  0
 19 27  1  0  0  0  0
 19 20  2  0  0  0  0
  8  9  1  0  0  0  0
  9 17  1  0  0  0  0
  9 10  2  0  0  0  0
 28 31  1  0  0  0  0
 18 21  1  0  0  0  0
  8 11  1  0  0  0  0
 37 38  1  0  0  0  0
 27 28  1  0  0  0  0
 17 18  1  0  0  0  0
  7  8  1  0  0  0  0
  3  4  1  0  0  0  0
  3  5  1  0  0  0  0
  3  6  1  0  0  0  0
 31 34  1  0  0  0  0
 31 35  1  0  0  0  0
 31 36  1  0  0  0  0
 21 24  1  0  0  0  0
 21 25  1  0  0  0  0
 21 26  1  0  0  0  0
 11 14  1  0  0  0  0
 11 15  1  0  0  0  0
 11 16  1  0  0  0  0
 38 40  1  0  0  0  0
 38 41  1  0  0  0  0
 38 42  1  0  0  0  0
 28 33  1  0  0  0  0
 18 23  1  0  0  0  0
  8 13  1  0  0  0  0
 37 39  1  0  0  0  0
  7 12  1  0  0  0  0
 27 32  1  0  0  0  0
 17 22  1  0  0  0  0
M  END
$$$$

  -OEChem-05262214473D

 42 41  0     1  0  0  0  0  0999 V2000
   -5.7851   -0.9580    0.6237 C   0  0  0  0  0  0  0  0  0  0  0  0
   -6.2213    0.1296    0.2652 O   0  0  0  0  0  0  0  0  0  0  0  0
   -6.7088   -2.1270    0.7168 C   0  0  0  0  0  0  0  0  0  0  0  0
   -7.1713   -2.2193    1.7126 H   0  0  0  0  0  0  0  0  0  0  0  0
   -7.5511   -2.0547    0.0101 H   0  0  0  0  0  0  0  0  0  0  0  0
   -6.2485   -3.1083    0.5191 H   0  0  0  0  0  0  0  0  0  0  0  0
   -4.4733   -1.2411    0.9668 N   0  0  0  0  0  0  0  0  0  0  0  0
   -3.4203   -0.2603    0.9449 C   0  0  2  0  0  0  0  0  0  0  0  0
   -2.1242   -0.9699    0.5759 C   0  0  0  0  0  0  0  0  0  0  0  0
   -1.8694   -2.1225    0.9189 O   0  0  0  0  0  0  0  0  0  0  0  0
   -3.2916    0.4435    2.2868 C   0  0  0  0  0  0  0  0  0  0  0  0
   -4.2421   -2.1920    1.2489 H   0  0  0  0  0  0  0  0  0  0  0  0
   -3.6772    0.4622    0.1625 H   0  0  0  0  0  0  0  0  0  0  0  0
   -3.0345   -0.2644    3.0832 H   0  0  0  0  0  0  0  0  0  0  0  0
   -2.5093    1.2092    2.2599 H   0  0  0  0  0  0  0  0  0  0  0  0
   -4.2338    0.9283    2.5645 H   0  0  0  0  0  0  0  0  0  0  0  0
   -1.2626   -0.1515   -0.1463 N   0  0  0  0  0  0  0  0  0  0  0  0
    0.0431   -0.5785   -0.5755 C   0  0  2  0  0  0  0  0  0  0  0  0
    1.0718    0.3558    0.0477 C   0  0  0  0  0  0  0  0  0  0  0  0
    2.0902   -0.0453    0.6072 O   0  0  0  0  0  0  0  0  0  0  0  0
    0.1552   -0.5764   -2.0921 C   0  0  0  0  0  0  0  0  0  0  0  0
   -1.5766    0.7776   -0.4197 H   0  0  0  0  0  0  0  0  0  0  0  0
    0.1876   -1.5927   -0.1875 H   0  0  0  0  0  0  0  0  0  0  0  0
    0.0132    0.4314   -2.4992 H   0  0  0  0  0  0  0  0  0  0  0  0
    1.1396   -0.9286   -2.4177 H   0  0  0  0  0  0  0  0  0  0  0  0
   -0.6047   -1.2258   -2.5400 H   0  0  0  0  0  0  0  0  0  0  0  0
    0.7004    1.6920   -0.0548 N   0  0  0  0  0  0  0  0  0  0  0  0
    1.4862    2.7650    0.4952 C   0  0  2  0  0  0  0  0  0  0  0  0
    0.5333    3.8695    0.9327 C   0  0  0  0  0  0  0  0  0  0  0  0
   -0.5114    4.1284    0.3387 O   0  0  0  0  0  0  0  0  0  0  0  0
    2.4951    3.2866   -0.5162 C   0  0  0  0  0  0  0  0  0  0  0  0
   -0.1428    1.9323   -0.5723 H   0  0  0  0  0  0  0  0  0  0  0  0
    2.0044    2.3606    1.3715 H   0  0  0  0  0  0  0  0  0  0  0  0
    1.9945    3.6959   -1.4013 H   0  0  0  0  0  0  0  0  0  0  0  0
    3.1114    4.0835   -0.0870 H   0  0  0  0  0  0  0  0  0  0  0  0
    3.1607    2.4842   -0.8521 H   0  0  0  0  0  0  0  0  0  0  0  0
    1.0078    4.5603    2.0389 N   0  0  0  0  0  0  0  0  0  0  0  0
    0.3050    5.6810    2.6187 C   0  0  0  0  0  0  0  0  0  0  0  0
    1.8631    4.2518    2.4916 H   0  0  0  0  0  0  0  0  0  0  0  0
    0.6746    6.6164    2.1733 H   0  0  0  0  0  0  0  0  0  0  0  0
   -0.7722    5.5808    2.4195 H   0  0  0  0  0  0  0  0  0  0  0  0
    0.4769    5.6992    3.7050 H   0  0  0  0  0  0  0  0  0  0  0  0
  1  3  1  0  0  0  0
  1  7  1  0  0  0  0
  1  2  2  0  0  0  0
 28 29  1  0  0  0  0
 29 37  1  0  0  0  0
 29 30  2  0  0  0  0
 18 19  1  0  0  0  0
 19 27  1  0  0  0  0
 19 20  2  0  0  0  0
  8  9  1  0  0  0  0
  9 17  1  0  0  0  0
  9 10  2  0  0  0  0
 28 31  1  0  0  0  0
 18 21  1  0  0  0  0
  8 11  1  0  0  0  0
 37 38  1  0  0  0  0
 27 28  1  0  0  0  0
 17 18  1  0  0  0  0
  7  8  1  0  0  0  0
  3  4  1  0  0  0  0
  3  5  1  0  0  0  0
  3  6  1  0  0  0  0
 31 34  1  0  0  0  0
 31 35  1  0  0  0  0
 31 36  1  0  0  0  0
 21 24  1  0  0  0  0
 21 25  1  0  0  0  0
 21 26  1  0  0  0  0
 11 14  1  0  0  0  0
 11 15  1  0  0  0  0
 11 16  1  0  0  0  0
 38 40  1  0  0  0  0
 38 41  1  0  0  0  0
 38 42  1  0  0  0  0
 28 33  1  0  0  0  0
 18 23  1  0  0  0  0
  8 13  1  0  0  0  0
 37 39  1  0  0  0  0
  7 12  1  0  0  0  0
 27 32  1  0  0  0  0
 17 22  1  0  0  0  0
M  END
$$$$

  -OEChem-05262214473D

 42 41  0     1  0  0  0  0  0999 V2000
   -5.7851   -0.9580    0.6237 C   0  0  0  0  0  0  0  0  0  0  0  0
   -6.2213    0.1296    0.2652 O   0  0  0  0  0  0  0  0  0  0  0  0
   -6.7088   -2.1270    0.7168 C   0  0  0  0  0  0  0  0  0  0  0  0
   -7.1713   -2.2193    1.7126 H   0  0  0  0  0  0  0  0  0  0  0  0
   -7.5511   -2.0547    0.0101 H   0  0  0  0  0  0  0  0  0  0  0  0
   -6.2485   -3.1083    0.5191 H   0  0  0  0  0  0  0  0  0  0  0  0
   -4.4733   -1.2411    0.9668 N   0  0  0  0  0  0  0  0  0  0  0  0
   -3.4203   -0.2603    0.9449 C   0  0  2  0  0  0  0  0  0  0  0  0
   -2.1242   -0.9699    0.5759 C   0  0  0  0  0  0  0  0  0  0  0  0
   -1.8694   -2.1225    0.9189 O   0  0  0  0  0  0  0  0  0  0  0  0
   -3.2916    0.4435    2.2868 C   0  0  0  0  0  0  0  0  0  0  0  0
   -4.2421   -2.1920    1.2489 H   0  0  0  0  0  0  0  0  0  0  0  0
   -3.6772    0.4622    0.1625 H   0  0  0  0  0  0  0  0  0  0  0  0
   -3.0345   -0.2644    3.0832 H   0  0  0  0  0  0  0  0  0  0  0  0
   -2.5093    1.2092    2.2599 H   0  0  0  0  0  0  0  0  0  0  0  0
   -4.2338    0.9283    2.5645 H   0  0  0  0  0  0  0  0  0  0  0  0
   -1.2626   -0.1515   -0.1463 N   0  0  0  0  0  0  0  0  0  0  0  0
    0.0431   -0.5785   -0.5755 C   0  0  2  0  0  0  0  0  0  0  0  0
    1.0718    0.3558    0.0477 C   0  0  0  0  0  0  0  0  0  0  0  0
    2.2023   -0.0076    0.3657 O   0  0  0  0  0  0  0  0  0  0  0  0
    0.1552   -0.5764   -2.0921 C   0  0  0  0  0  0  0  0  0  0  0  0
   -1.5766    0.7776   -0.4197 H   0  0  0  0  0  0  0  0  0  0  0  0
    0.1876   -1.5927   -0.1875 H   0  0  0  0  0  0  0  0  0  0  0  0
    0.0132    0.4314   -2.4992 H   0  0  0  0  0  0  0  0  0  0  0  0
    1.1396   -0.9286   -2.4177 H   0  0  0  0  0  0  0  0  0  0  0  0
   -0.6047   -1.2258   -2.5400 H   0  0  0  0  0  0  0  0  0  0  0  0
    0.5674    1.6360    0.2486 N   0  0  0  0  0  0  0  0  0  0  0  0
    1.3327    2.6891    0.8624 C   0  0  2  0  0  0  0  0  0  0  0  0
    0.3696    3.5830    1.6323 C   0  0  0  0  0  0  0  0  0  0  0  0
   -0.7793    3.8098    1.2587 O   0  0  0  0  0  0  0  0  0  0  0  0
    2.1049    3.4889   -0.1753 C   0  0  0  0  0  0  0  0  0  0  0  0
   -0.3693    1.8560   -0.0842 H   0  0  0  0  0  0  0  0  0  0  0  0
    2.0258    2.2098    1.5623 H   0  0  0  0  0  0  0  0  0  0  0  0
    1.4272    3.9765   -0.8855 H   0  0  0  0  0  0  0  0  0  0  0  0
    2.7088    4.2715    0.2958 H   0  0  0  0  0  0  0  0  0  0  0  0
    2.7753    2.8393   -0.7483 H   0  0  0  0  0  0  0  0  0  0  0  0
    0.9580    4.1322    2.7630 N   0  0  0  0  0  0  0  0  0  0  0  0
    0.2628    5.0483    3.6368 C   0  0  0  0  0  0  0  0  0  0  0  0
    1.9019    3.8576    3.0185 H   0  0  0  0  0  0  0  0  0  0  0  0
    0.4649    6.0823    3.3204 H   0  0  0  0  0  0  0  0  0  0  0  0
   -0.8187    4.8541    3.5858 H   0  0  0  0  0  0  0  0  0  0  0  0
    0.6126    4.9062    4.6700 H   0  0  0  0  0  0  0  0  0  0  0  0
  1  3  1  0  0  0  0
  1  7  1  0  0  0  0
  1  2  2  0  0  0  0
 28 29  1  0  0  0  0
 29 37  1  0  0  0  0
 29 30  2  0  0  0  0
 18 19  1  0  0  0  0
 19 27  1  0  0  0  0
 19 20  2  0  0  0  0
  8  9  1  0  0  0  0
  9 17  1  0  0  0  0
  9 10  2  0  0  0  0
 28 31  1  0  0  0  0
 18 21  1  0  0  0  0
  8 11  1  0  0  0  0
 37 38  1  0  0  0  0
 27 28  1  0  0  0  0
 17 18  1  0  0  0  0
  7  8  1  0  0  0  0
  3  4  1  0  0  0  0
  3  5  1  0  0  0  0
  3  6  1  0  0  0  0
 31 34  1  0  0  0  0
 31 35  1  0  0  0  0
 31 36  1  0  0  0  0
 21 24  1  0  0  0  0
 21 25  1  0  0  0  0
 21 26  1  0  0  0  0
 11 14  1  0  0  0  0
 11 15  1  0  0  0  0
 11 16  1  0  0  0  0
 38 40  1  0  0  0  0
 38 41  1  0  0  0  0
 38 42  1  0  0  0  0
 28 33  1  0  0  0  0
 18 23  1  0  0  0  0
  8 13  1  0  0  0  0
 37 39  1  0  0  0  0
  7 12  1  0  0  0  0
 27 32  1  0  0  0  0
 17 22  1  0  0  0  0
M  END
$$$$

  -OEChem-05262214473D

 42 41  0     1  0  0  0  0  0999 V2000
   -5.7851   -0.9580    0.6237 C   0  0  0  0  0  0  0  0  0  0  0  0
   -6.2213    0.1296    0.2652 O   0  0  0  0  0  0  0  0  0  0  0  0
   -6.7088   -2.1270    0.7168 C   0  0  0  0  0  0  0  0  0  0  0  0
   -7.1713   -2.2193    1.7126 H   0  0  0  0  0  0  0  0  0  0  0  0
   -7.5511   -2.0547    0.0101 H   0  0  0  0  0  0  0  0  0  0  0  0
   -6.2485   -3.1083    0.5191 H   0  0  0  0  0  0  0  0  0  0  0  0
   -4.4733   -1.2411    0.9668 N   0  0  0  0  0  0  0  0  0  0  0  0
   -3.4203   -0.2603    0.9449 C   0  0  2  0  0  0  0  0  0  0  0  0
   -2.1242   -0.9699    0.5759 C   0  0  0  0  0  0  0  0  0  0  0  0
   -1.8694   -2.1225    0.9189 O   0  0  0  0  0  0  0  0  0  0  0  0
   -3.2916    0.4435    2.2868 C   0  0  0  0  0  0  0  0  0  0  0  0
   -4.2421   -2.1920    1.2489 H   0  0  0  0  0  0  0  0  0  0  0  0
   -3.6772    0.4622    0.1625 H   0  0  0  0  0  0  0  0  0  0  0  0
   -3.0345   -0.2644    3.0832 H   0  0  0  0  0  0  0  0  0  0  0  0
   -2.5093    1.2092    2.2599 H   0  0  0  0  0  0  0  0  0  0  0  0
   -4.2338    0.9283    2.5645 H   0  0  0  0  0  0  0  0  0  0  0  0
   -1.2626   -0.1515   -0.1463 N   0  0  0  0  0  0  0  0  0  0  0  0
    0.0431   -0.5785   -0.5755 C   0  0  2  0  0  0  0  0  0  0  0  0
    1.0718    0.3558    0.0477 C   0  0  0  0  0  0  0  0  0  0  0  0
    2.2682    0.0829    0.1212 O   0  0  0  0  0  0  0  0  0  0  0  0
    0.1552   -0.5764   -2.0921 C   0  0  0  0  0  0  0  0  0  0  0  0
   -1.5766    0.7776   -0.4197 H   0  0  0  0  0  0  0  0  0  0  0  0
    0.1876   -1.5927   -0.1875 H   0  0  0  0  0  0  0  0  0  0  0  0
    0.0132    0.4314   -2.4992 H   0  0  0  0  0  0  0  0  0  0  0  0
    1.1396   -0.9286   -2.4177 H   0  0  0  0  0  0  0  0  0  0  0  0
   -0.6047   -1.2258   -2.5400 H   0  0  0  0  0  0  0  0  0  0  0  0
    0.4931    1.5149    0.5530 N   0  0  0  0  0  0  0  0  0  0  0  0
    1.2507    2.5354    1.2282 C   0  0  2  0  0  0  0  0  0  0  0  0
    0.3529    3.1667    2.2841 C   0  0  0  0  0  0  0  0  0  0  0  0
   -0.8584    3.3129    2.1342 O   0  0  0  0  0  0  0  0  0  0  0  0
    1.7607    3.5834    0.2512 C   0  0  0  0  0  0  0  0  0  0  0  0
   -0.5024    1.6731    0.4099 H   0  0  0  0  0  0  0  0  0  0  0  0
    2.0927    2.0331    1.7168 H   0  0  0  0  0  0  0  0  0  0  0  0
    0.9313    4.0974   -0.2481 H   0  0  0  0  0  0  0  0  0  0  0  0
    2.3608    4.3435    0.7623 H   0  0  0  0  0  0  0  0  0  0  0  0
    2.3820    3.1233   -0.5247 H   0  0  0  0  0  0  0  0  0  0  0  0
    1.0702    3.5868    3.3955 N   0  0  0  0  0  0  0  0  0  0  0  0
    0.4508    4.2547    4.5163 C   0  0  0  0  0  0  0  0  0  0  0  0
    2.0648    3.3888    3.4524 H   0  0  0  0  0  0  0  0  0  0  0  0
    0.5010    5.3436    4.3683 H   0  0  0  0  0  0  0  0  0  0  0  0
   -0.6015    3.9433    4.5927 H   0  0  0  0  0  0  0  0  0  0  0  0
    0.9809    3.9858    5.4418 H   0  0  0  0  0  0  0  0  0  0  0  0
  1  3  1  0  0  0  0
  1  7  1  0  0  0  0
  1  2  2  0  0  0  0
 28 29  1  0  0  0  0
 29 37  1  0  0  0  0
 29 30  2  0  0  0  0
 18 19  1  0  0  0  0
 19 27  1  0  0  0  0
 19 20  2  0  0  0  0
  8  9  1  0  0  0  0
  9 17  1  0  0  0  0
  9 10  2  0  0  0  0
 28 31  1  0  0  0  0
 18 21  1  0  0  0  0
  8 11  1  0  0  0  0
 37 38  1  0  0  0  0
 27 28  1  0  0  0  0
 17 18  1  0  0  0  0
  7  8  1  0  0  0  0
  3  4  1  0  0  0  0
  3  5  1  0  0  0  0
  3  6  1  0  0  0  0
 31 34  1  0  0  0  0
 31 35  1  0  0  0  0
 31 36  1  0  0  0  0
 21 24  1  0  0  0  0
 21 25  1  0  0  0  0
 21 26  1  0  0  0  0
 11 14  1  0  0  0  0
 11 15  1  0  0  0  0
 11 16  1  0  0  0  0
 38 40  1  0  0  0  0
 38 41  1  0  0  0  0
 38 42  1  0  0  0  0
 28 33  1  0  0  0  0
 18 23  1  0  0  0  0
  8 13  1  0  0  0  0
 37 39  1  0  0  0  0
  7 12  1  0  0  0  0
 27 32  1  0  0  0  0
 17 22  1  0  0  0  0
M  END
$$$$

  -OEChem-05262214473D

 42 41  0     1  0  0  0  0  0999 V2000
   -5.7851   -0.9580    0.6237 C   0  0  0  0  0  0  0  0  0  0  0  0
   -6.2213    0.1296    0.2652 O   0  0  0  0  0  0  0  0  0  0  0  0
   -6.7088   -2.1270    0.7168 C   0  0  0  0  0  0  0  0  0  0  0  0
   -7.1713   -2.2193    1.7126 H   0  0  0  0  0  0  0  0  0  0  0  0
   -7.5511   -2.0547    0.0101 H   0  0  0  0  0  0  0  0  0  0  0  0
   -6.2485   -3.1083    0.5191 H   0  0  0  0  0  0  0  0  0  0  0  0
   -4.4733   -1.2411    0.9668 N   0  0  0  0  0  0  0  0  0  0  0  0
   -3.4203   -0.2603    0.9449 C   0  0  2  0  0  0  0  0  0  0  0  0
   -2.1242   -0.9699    0.5759 C   0  0  0  0  0  0  0  0  0  0  0  0
   -1.8694   -2.1225    0.9189 O   0  0  0  0  0  0  0  0  0  0  0  0
   -3.2916    0.4435    2.2868 C   0  0  0  0  0  0  0  0  0  0  0  0
   -4.2421   -2.1920    1.2489 H   0  0  0  0  0  0  0  0  0  0  0  0
   -3.6772    0.4622    0.1625 H   0  0  0  0  0  0  0  0  0  0  0  0
   -3.0345   -0.2644    3.0832 H   0  0  0  0  0  0  0  0  0  0  0  0
   -2.5093    1.2092    2.2599 H   0  0  0  0  0  0  0  0  0  0  0  0
   -4.2338    0.9283    2.5645 H   0  0  0  0  0  0  0  0  0  0  0  0
   -1.2626   -0.1515   -0.1463 N   0  0  0  0  0  0  0  0  0  0  0  0
    0.0431   -0.5785   -0.5755 C   0  0  2  0  0  0  0  0  0  0  0  0
    1.0718    0.3558    0.0477 C   0  0  0  0  0  0  0  0  0  0  0  0
    2.2834    0.2201   -0.1096 O   0  0  0  0  0  0  0  0  0  0  0  0
    0.1552   -0.5764   -2.0921 C   0  0  0  0  0  0  0  0  0  0  0  0
   -1.5766    0.7776   -0.4197 H   0  0  0  0  0  0  0  0  0  0  0  0
    0.1876   -1.5927   -0.1875 H   0  0  0  0  0  0  0  0  0  0  0  0
    0.0132    0.4314   -2.4992 H   0  0  0  0  0  0  0  0  0  0  0  0
    1.1396   -0.9286   -2.4177 H   0  0  0  0  0  0  0  0  0  0  0  0
   -0.6047   -1.2258   -2.5400 H   0  0  0  0  0  0  0  0  0  0  0  0
    0.4824    1.3367    0.8377 N   0  0  0  0  0  0  0  0  0  0  0  0
    1.2459    2.3143    1.5676 C   0  0  2  0  0  0  0  0  0  0  0  0
    0.4844    2.6488    2.8434 C   0  0  0  0  0  0  0  0  0  0  0  0
   -0.7431    2.6714    2.9056 O   0  0  0  0  0  0  0  0  0  0  0  0
    1.4860    3.5636    0.7344 C   0  0  0  0  0  0  0  0  0  0  0  0
   -0.5333    1.3960    0.8763 H   0  0  0  0  0  0  0  0  0  0  0  0
    2.2006    1.8424    1.8245 H   0  0  0  0  0  0  0  0  0  0  0  0
    0.5407    4.0502    0.4674 H   0  0  0  0  0  0  0  0  0  0  0  0
    2.0911    4.2946    1.2807 H   0  0  0  0  0  0  0  0  0  0  0  0
    2.0074    3.3169   -0.1967 H   0  0  0  0  0  0  0  0  0  0  0  0
    1.3367    2.9613    3.8932 N   0  0  0  0  0  0  0  0  0  0  0  0
    0.8560    3.3543    5.1972 C   0  0  0  0  0  0  0  0  0  0  0  0
    2.3407    2.8774    3.7637 H   0  0  0  0  0  0  0  0  0  0  0  0
    0.7804    4.4507    5.2456 H   0  0  0  0  0  0  0  0  0  0  0  0
   -0.1353    2.9105    5.3715 H   0  0  0  0  0  0  0  0  0  0  0  0
    1.5566    3.0008    5.9681 H   0  0  0  0  0  0  0  0  0  0  0  0
  1  3  1  0  0  0  0
  1  7  1  0  0  0  0
  1  2  2  0  0  0  0
 28 29  1  0  0  0  0
 29 37  1  0  0  0  0
 29 30  2  0  0  0  0
 18 19  1  0  0  0  0
 19 27  1  0  0  0  0
 19 20  2  0  0  0  0
  8  9  1  0  0  0  0
  9 17  1  0  0  0  0
  9 10  2  0  0  0  0
 28 31  1  0  0  0  0
 18 21  1  0  0  0  0
  8 11  1  0  0  0  0
 37 38  1  0  0  0  0
 27 28  1  0  0  0  0
 17 18  1  0  0  0  0
  7  8  1  0  0  0  0
  3  4  1  0  0  0  0
  3  5  1  0  0  0  0
  3  6  1  0  0  0  0
 31 34  1  0  0  0  0
 31 35  1  0  0  0  0
 31 36  1  0  0  0  0
 21 24  1  0  0  0  0
 21 25  1  0  0  0  0
 21 26  1  0  0  0  0
 11 14  1  0  0  0  0
 11 15  1  0  0  0  0
 11 16  1  0  0  0  0
 38 40  1  0  0  0  0
 38 41  1  0  0  0  0
 38 42  1  0  0  0  0
 28 33  1  0  0  0  0
 18 23  1  0  0  0  0
  8 13  1  0  0  0  0
 37 39  1  0  0  0  0
  7 12  1  0  0  0  0
 27 32  1  0  0  0  0
 17 22  1  0  0  0  0
M  END
$$$$

  -OEChem-05262214473D

 42 41  0     1  0  0  0  0  0999 V2000
   -5.7851   -0.9580    0.6237 C   0  0  0  0  0  0  0  0  0  0  0  0
   -6.2213    0.1296    0.2652 O   0  0  0  0  0  0  0  0  0  0  0  0
   -6.7088   -2.1270    0.7168 C   0  0  0  0  0  0  0  0  0  0  0  0
   -7.1713   -2.2193    1.7126 H   0  0  0  0  0  0  0  0  0  0  0  0
   -7.5511   -2.0547    0.0101 H   0  0  0  0  0  0  0  0  0  0  0  0
   -6.2485   -3.1083    0.5191 H   0  0  0  0  0  0  0  0  0  0  0  0
   -4.4733   -1.2411    0.9668 N   0  0  0  0  0  0  0  0  0  0  0  0
   -3.4203   -0.2603    0.9449 C   0  0  2  0  0  0  0  0  0  0  0  0
   -2.1242   -0.9699    0.5759 C   0  0  0  0  0  0  0  0  0  0  0  0
   -1.8694   -2.1225    0.9189 O   0  0  0  0  0  0  0  0  0  0  0  0
   -3.2916    0.4435    2.2868 C   0  0  0  0  0  0  0  0  0  0  0  0
   -4.2421   -2.1920    1.2489 H   0  0  0  0  0  0  0  0  0  0  0  0
   -3.6772    0.4622    0.1625 H   0  0  0  0  0  0  0  0  0  0  0  0
   -3.0345   -0.2644    3.0832 H   0  0  0  0  0  0  0  0  0  0  0  0
   -2.5093    1.2092    2.2599 H   0  0  0  0  0  0  0  0  0  0  0  0
   -4.2338    0.9283    2.5645 H   0  0  0  0  0  0  0  0  0  0  0  0
   -1.2626   -0.1515   -0.1463 N   0  0  0  0  0  0  0  0  0  0  0  0
    0.0431   -0.5785   -0.5755 C   0  0  2  0  0  0  0  0  0  0  0  0
    1.0718    0.3558    0.0477 C   0  0  0  0  0  0  0  0  0  0  0  0
    2.2470    0.3946   -0.3110 O   0  0  0  0  0  0  0  0  0  0  0  0
    0.1552   -0.5764   -2.0921 C   0  0  0  0  0  0  0  0  0  0  0  0
   -1.5766    0.7776   -0.4197 H   0  0  0  0  0  0  0  0  0  0  0  0
    0.1876   -1.5927   -0.1875 H   0  0  0  0  0  0  0  0  0  0  0  0
    0.0132    0.4314   -2.4992 H   0  0  0  0  0  0  0  0  0  0  0  0
    1.1396   -0.9286   -2.4177 H   0  0  0  0  0  0  0  0  0  0  0  0
   -0.6047   -1.2258   -2.5400 H   0  0  0  0  0  0  0  0  0  0  0  0
    0.5362    1.1138    1.0832 N   0  0  0  0  0  0  0  0  0  0  0  0
    1.3186    2.0408    1.8576 C   0  0  2  0  0  0  0  0  0  0  0  0
    0.7551    2.0647    3.2723 C   0  0  0  0  0  0  0  0  0  0  0  0
   -0.4413    1.9292    3.5202 O   0  0  0  0  0  0  0  0  0  0  0  0
    1.2994    3.4310    1.2413 C   0  0  0  0  0  0  0  0  0  0  0  0
   -0.4596    1.0434    1.2833 H   0  0  0  0  0  0  0  0  0  0  0  0
    2.3421    1.6509    1.8781 H   0  0  0  0  0  0  0  0  0  0  0  0
    0.2821    3.8381    1.2123 H   0  0  0  0  0  0  0  0  0  0  0  0
    1.9181    4.1282    1.8158 H   0  0  0  0  0  0  0  0  0  0  0  0
    1.6772    3.4069    0.2135 H   0  0  0  0  0  0  0  0  0  0  0  0
    1.7395    2.2983    4.2224 N   0  0  0  0  0  0  0  0  0  0  0  0
    1.4509    2.4085    5.6332 C   0  0  0  0  0  0  0  0  0  0  0  0
    2.7107    2.3583    3.9312 H   0  0  0  0  0  0  0  0  0  0  0  0
    1.2842    3.4644    5.8926 H   0  0  0  0  0  0  0  0  0  0  0  0
    0.5480    1.8262    5.8693 H   0  0  0  0  0  0  0  0  0  0  0  0
    2.3006    2.0184    6.2127 H   0  0  0  0  0  0  0  0  0  0  0  0
  1  3  1  0  0  0  0
  1  7  1  0  0  0  0
  1  2  2  0  0  0  0
 28 29  1  0  0  0  0
 29 37  1  0  0  0  0
 29 30  2  0  0  0  0
 18 19  1  0  0  0  0
 19 27  1  0  0  0  0
 19 20  2  0  0  0  0
  8  9  1  0  0  0  0
  9 17  1  0  0  0  0
  9 10  2  0  0  0  0
 28 31  1  0  0  0  0
 18 21  1  0  0  0  0
  8 11  1  0  0  0  0
 37 38  1  0  0  0  0
 27 28  1  0  0  0  0
 17 18  1  0  0  0  0
  7  8  1  0  0  0  0
  3  4  1  0  0  0  0
  3  5  1  0  0  0  0
  3  6  1  0  0  0  0
 31 34  1  0  0  0  0
 31 35  1  0  0  0  0
 31 36  1  0  0  0  0
 21 24  1  0  0  0  0
 21 25  1  0  0  0  0
 21 26  1  0  0  0  0
 11 14  1  0  0  0  0
 11 15  1  0  0  0  0
 11 16  1  0  0  0  0
 38 40  1  0  0  0  0
 38 41  1  0  0  0  0
 38 42  1  0  0  0  0
 28 33  1  0  0  0  0
 18 23  1  0  0  0  0
  8 13  1  0  0  0  0
 37 39  1  0  0  0  0
  7 12  1  0  0  0  0
 27 32  1  0  0  0  0
 17 22  1  0  0  0  0
M  END
$$$$

  -OEChem-05262214473D

 42 41  0     1  0  0  0  0  0999 V2000
   -5.7851   -0.9580    0.6237 C   0  0  0  0  0  0  0  0  0  0  0  0
   -6.2213    0.1296    0.2652 O   0  0  0  0  0  0  0  0  0  0  0  0
   -6.7088   -2.1270    0.7168 C   0  0  0  0  0  0  0  0  0  0  0  0
   -7.1713   -2.2193    1.7126 H   0  0  0  0  0  0  0  0  0  0  0  0
   -7.5511   -2.0547    0.0101 H   0  0  0  0  0  0  0  0  0  0  0  0
   -6.2485   -3.1083    0.5191 H   0  0  0  0  0  0  0  0  0  0  0  0
   -4.4733   -1.2411    0.9668 N   0  0  0  0  0  0  0  0  0  0  0  0
   -3.4203   -0.2603    0.9449 C   0  0  2  0  0  0  0  0  0  0  0  0
   -2.1242   -0.9699    0.5759 C   0  0  0  0  0  0  0  0  0  0  0  0
   -1.8694   -2.1225    0.9189 O   0  0  0  0  0  0  0  0  0  0  0  0
   -3.2916    0.4435    2.2868 C   0  0  0  0  0  0  0  0  0  0  0  0
   -4.2421   -2.1920    1.2489 H   0  0  0  0  0  0  0  0  0  0  0  0
   -3.6772    0.4622    0.1625 H   0  0  0  0  0  0  0  0  0  0  0  0
   -3.0345   -0.2644    3.0832 H   0  0  0  0  0  0  0  0  0  0  0  0
   -2.5093    1.2092    2.2599 H   0  0  0  0  0  0  0  0  0  0  0  0
   -4.2338    0.9283    2.5645 H   0  0  0  0  0  0  0  0  0  0  0  0
   -1.2626   -0.1515   -0.1463 N   0  0  0  0  0  0  0  0  0  0  0  0
    0.0431   -0.5785   -0.5755 C   0  0  2  0  0  0  0  0  0  0  0  0
    1.0718    0.3558    0.0477 C   0  0  0  0  0  0  0  0  0  0  0  0
    2.1613    0.5944   -0.4692 O   0  0  0  0  0  0  0  0  0  0  0  0
    0.1552   -0.5764   -2.0921 C   0  0  0  0  0  0  0  0  0  0  0  0
   -1.5766    0.7776   -0.4197 H   0  0  0  0  0  0  0  0  0  0  0  0
    0.1876   -1.5927   -0.1875 H   0  0  0  0  0  0  0  0  0  0  0  0
    0.0132    0.4314   -2.4992 H   0  0  0  0  0  0  0  0  0  0  0  0
    1.1396   -0.9286   -2.4177 H   0  0  0  0  0  0  0  0  0  0  0  0
   -0.6047   -1.2258   -2.5400 H   0  0  0  0  0  0  0  0  0  0  0  0
    0.6507    0.8612    1.2728 N   0  0  0  0  0  0  0  0  0  0  0  0
    1.4638    1.7337    2.0784 C   0  0  2  0  0  0  0  0  0  0  0  0
    1.1464    1.4542    3.5415 C   0  0  0  0  0  0  0  0  0  0  0  0
    0.0264    1.1368    3.9362 O   0  0  0  0  0  0  0  0  0  0  0  0
    1.2137    3.1945    1.7374 C   0  0  0  0  0  0  0  0  0  0  0  0
   -0.2865    0.6396    1.6030 H   0  0  0  0  0  0  0  0  0  0  0  0
    2.5076    1.4714    1.8740 H   0  0  0  0  0  0  0  0  0  0  0  0
    0.1730    3.4757    1.9357 H   0  0  0  0  0  0  0  0  0  0  0  0
    1.8536    3.8557    2.3310 H   0  0  0  0  0  0  0  0  0  0  0  0
    1.4139    3.3871    0.6779 H   0  0  0  0  0  0  0  0  0  0  0  0
    2.2510    1.6430    4.3604 N   0  0  0  0  0  0  0  0  0  0  0  0
    2.1949    1.4816    5.7946 C   0  0  0  0  0  0  0  0  0  0  0  0
    3.1497    1.8667    3.9434 H   0  0  0  0  0  0  0  0  0  0  0  0
    1.9780    2.4520    6.2651 H   0  0  0  0  0  0  0  0  0  0  0  0
    1.4019    0.7641    6.0520 H   0  0  0  0  0  0  0  0  0  0  0  0
    3.1622    1.1055    6.1592 H   0  0  0  0  0  0  0  0  0  0  0  0
  1  3  1  0  0  0  0
  1  7  1  0  0  0  0
  1  2  2  0  0  0  0
 28 29  1  0  0  0  0
 29 37  1  0  0  0  0
 29 30  2  0  0  0  0
 18 19  1  0  0  0  0
 19 27  1  0  0  0  0
 19 20  2  0  0  0  0
  8  9  1  0  0  0  0
  9 17  1  0  0  0  0
  9 10  2  0  0  0  0
 28 31  1  0  0  0  0
 18 21  1  0  0  0  0
  8 11  1  0  0  0  0
 37 38  1  0  0  0  0
 27 28  1  0  0  0  0
 17 18  1  0  0  0  0
  7  8  1  0  0  0  0
  3  4  1  0  0  0  0
  3  5  1  0  0  0  0
  3  6  1  0  0  0  0
 31 34  1  0  0  0  0
 31 35  1  0  0  0  0
 31 36  1  0  0  0  0
 21 24  1  0  0  0  0
 21 25  1  0  0  0  0
 21 26  1  0  0  0  0
 11 14  1  0  0  0  0
 11 15  1  0  0  0  0
 11 16  1  0  0  0  0
 38 40  1  0  0  0  0
 38 41  1  0  0  0  0
 38 42  1  0  0  0  0
 28 33  1  0  0  0  0
 18 23  1  0  0  0  0
  8 13  1  0  0  0  0
 37 39  1  0  0  0  0
  7 12  1  0  0  0  0
 27 32  1  0  0  0  0
 17 22  1  0  0  0  0
M  END
$$$$

  -OEChem-05262214473D

 42 41  0     1  0  0  0  0  0999 V2000
   -5.7851   -0.9580    0.6237 C   0  0  0  0  0  0  0  0  0  0  0  0
   -6.2213    0.1296    0.2652 O   0  0  0  0  0  0  0  0  0  0  0  0
   -6.7088   -2.1270    0.7168 C   0  0  0  0  0  0  0  0  0  0  0  0
   -7.1713   -2.2193    1.7126 H   0  0  0  0  0  0  0  0  0  0  0  0
   -7.5511   -2.0547    0.0101 H   0  0  0  0  0  0  0  0  0  0  0  0
   -6.2485   -3.1083    0.5191 H   0  0  0  0  0  0  0  0  0  0  0  0
   -4.4733   -1.2411    0.9668 N   0  0  0  0  0  0  0  0  0  0  0  0
   -3.4203   -0.2603    0.9449 C   0  0  2  0  0  0  0  0  0  0  0  0
   -2.1242   -0.9699    0.5759 C   0  0  0  0  0  0  0  0  0  0  0  0
   -1.8694   -2.1225    0.9189 O   0  0  0  0  0  0  0  0  0  0  0  0
   -3.2916    0.4435    2.2868 C   0  0  0  0  0  0  0  0  0  0  0  0
   -4.2421   -2.1920    1.2489 H   0  0  0  0  0  0  0  0  0  0  0  0
   -3.6772    0.4622    0.1625 H   0  0  0  0  0  0  0  0  0  0  0  0
   -3.0345   -0.2644    3.0832 H   0  0  0  0  0  0  0  0  0  0  0  0
   -2.5093    1.2092    2.2599 H   0  0  0  0  0  0  0  0  0  0  0  0
   -4.2338    0.9283    2.5645 H   0  0  0  0  0  0  0  0  0  0  0  0
   -1.2626   -0.1515   -0.1463 N   0  0  0  0  0  0  0  0  0  0  0  0
    0.0431   -0.5785   -0.5755 C   0  0  2  0  0  0  0  0  0  0  0  0
    1.0718    0.3558    0.0477 C   0  0  0  0  0  0  0  0  0  0  0  0
    2.0323    0.8060   -0.5735 O   0  0  0  0  0  0  0  0  0  0  0  0
    0.1552   -0.5764   -2.0921 C   0  0  0  0  0  0  0  0  0  0  0  0
   -1.5766    0.7776   -0.4197 H   0  0  0  0  0  0  0  0  0  0  0  0
    0.1876   -1.5927   -0.1875 H   0  0  0  0  0  0  0  0  0  0  0  0
    0.0132    0.4314   -2.4992 H   0  0  0  0  0  0  0  0  0  0  0  0
    1.1396   -0.9286   -2.4177 H   0  0  0  0  0  0  0  0  0  0  0  0
   -0.6047   -1.2258   -2.5400 H   0  0  0  0  0  0  0  0  0  0  0  0
    0.8182    0.5962    1.3936 N   0  0  0  0  0  0  0  0  0  0  0  0
    1.6716    1.4138    2.2149 C   0  0  2  0  0  0  0  0  0  0  0  0
    1.6319    0.8589    3.6327 C   0  0  0  0  0  0  0  0  0  0  0  0
    0.6281    0.3481    4.1252 O   0  0  0  0  0  0  0  0  0  0  0  0
    1.2347    2.8702    2.1888 C   0  0  0  0  0  0  0  0  0  0  0  0
   -0.0258    0.2119    1.8138 H   0  0  0  0  0  0  0  0  0  0  0  0
    2.6857    1.3164    1.8123 H   0  0  0  0  0  0  0  0  0  0  0  0
    0.2208    2.9876    2.5885 H   0  0  0  0  0  0  0  0  0  0  0  0
    1.9019    3.4955    2.7912 H   0  0  0  0  0  0  0  0  0  0  0  0
    1.2353    3.2590    1.1648 H   0  0  0  0  0  0  0  0  0  0  0  0
    2.8363    1.0401    4.2980 N   0  0  0  0  0  0  0  0  0  0  0  0
    3.0373    0.6370    5.6702 C   0  0  0  0  0  0  0  0  0  0  0  0
    3.6278    1.4363    3.7996 H   0  0  0  0  0  0  0  0  0  0  0  0
    2.8146    1.4824    6.3377 H   0  0  0  0  0  0  0  0  0  0  0  0
    2.3682   -0.2033    5.9072 H   0  0  0  0  0  0  0  0  0  0  0  0
    4.0825    0.3243    5.8111 H   0  0  0  0  0  0  0  0  0  0  0  0
  1  3  1  0  0  0  0
  1  7  1  0  0  0  0
  1  2  2  0  0  0  0
 28 29  1  0  0  0  0
 29 37  1  0  0  0  0
 29 30  2  0  0  0  0
 18 19  1  0  0  0  0
 19 27  1  0  0  0  0
 19 20  2  0  0  0  0
  8  9  1  0  0  0  0
  9 17  1  0  0  0  0
  9 10  2  0  0  0  0
 28 31  1  0  0  0  0
 18 21  1  0  0  0  0
  8 11  1  0  0  0  0
 37 38  1  0  0  0  0
 27 28  1  0  0  0  0
 17 18  1  0  0  0  0
  7  8  1  0  0  0  0
  3  4  1  0  0  0  0
  3  5  1  0  0  0  0
  3  6  1  0  0  0  0
 31 34  1  0  0  0  0
 31 35  1  0  0  0  0
 31 36  1  0  0  0  0
 21 24  1  0  0  0  0
 21 25  1  0  0  0  0
 21 26  1  0  0  0  0
 11 14  1  0  0  0  0
 11 15  1  0  0  0  0
 11 16  1  0  0  0  0
 38 40  1  0  0  0  0
 38 41  1  0  0  0  0
 38 42  1  0  0  0  0
 28 33  1  0  0  0  0
 18 23  1  0  0  0  0
  8 13  1  0  0  0  0
 37 39  1  0  0  0  0
  7 12  1  0  0  0  0
 27 32  1  0  0  0  0
 17 22  1  0  0  0  0
M  END
$$$$

  -OEChem-05262214473D

 42 41  0     1  0  0  0  0  0999 V2000
   -5.7851   -0.9580    0.6237 C   0  0  0  0  0  0  0  0  0  0  0  0
   -6.2213    0.1296    0.2652 O   0  0  0  0  0  0  0  0  0  0  0  0
   -6.7088   -2.1270    0.7168 C   0  0  0  0  0  0  0  0  0  0  0  0
   -7.1713   -2.2193    1.7126 H   0  0  0  0  0  0  0  0  0  0  0  0
   -7.5511   -2.0547    0.0101 H   0  0  0  0  0  0  0  0  0  0  0  0
   -6.2485   -3.1083    0.5191 H   0  0  0  0  0  0  0  0  0  0  0  0
   -4.4733   -1.2411    0.9668 N   0  0  0  0  0  0  0  0  0  0  0  0
   -3.4203   -0.2603    0.9449 C   0  0  2  0  0  0  0  0  0  0  0  0
   -2.1242   -0.9699    0.5759 C   0  0  0  0  0  0  0  0  0  0  0  0
   -1.8694   -2.1225    0.9189 O   0  0  0  0  0  0  0  0  0  0  0  0
   -3.2916    0.4435    2.2868 C   0  0  0  0  0  0  0  0  0  0  0  0
   -4.2421   -2.1920    1.2489 H   0  0  0  0  0  0  0  0  0  0  0  0
   -3.6772    0.4622    0.1625 H   0  0  0  0  0  0  0  0  0  0  0  0
   -3.0345   -0.2644    3.0832 H   0  0  0  0  0  0  0  0  0  0  0  0
   -2.5093    1.2092    2.2599 H   0  0  0  0  0  0  0  0  0  0  0  0
   -4.2338    0.9283    2.5645 H   0  0  0  0  0  0  0  0  0  0  0  0
   -1.2626   -0.1515   -0.1463 N   0  0  0  0  0  0  0  0  0  0  0  0
    0.0431   -0.5785   -0.5755 C   0  0  2  0  0  0  0  0  0  0  0  0
    1.0718    0.3558    0.0477 C   0  0  0  0  0  0  0  0  0  0  0  0
    1.8687    1.0150   -0.6168 O   0  0  0  0  0  0  0  0  0  0  0  0
    0.1552   -0.5764   -2.0921 C   0  0  0  0  0  0  0  0  0  0  0  0
   -1.5766    0.7776   -0.4197 H   0  0  0  0  0  0  0  0  0  0  0  0
    0.1876   -1.5927   -0.1875 H   0  0  0  0  0  0  0  0  0  0  0  0
    0.0132    0.4314   -2.4992 H   0  0  0  0  0  0  0  0  0  0  0  0
    1.1396   -0.9286   -2.4177 H   0  0  0  0  0  0  0  0  0  0  0  0
   -0.6047   -1.2258   -2.5400 H   0  0  0  0  0  0  0  0  0  0  0  0
    1.0272    0.3369    1.4374 N   0  0  0  0  0  0  0  0  0  0  0  0
    1.9279    1.1029    2.2579 C   0  0  2  0  0  0  0  0  0  0  0  0
    2.1783    0.3193    3.5396 C   0  0  0  0  0  0  0  0  0  0  0  0
    1.3228   -0.3829    4.0744 O   0  0  0  0  0  0  0  0  0  0  0  0
    1.3610    2.4803    2.5648 C   0  0  0  0  0  0  0  0  0  0  0  0
    0.3048   -0.2105    1.9013 H   0  0  0  0  0  0  0  0  0  0  0  0
    2.8645    1.1963    1.6973 H   0  0  0  0  0  0  0  0  0  0  0  0
    0.4224    2.4071    3.1262 H   0  0  0  0  0  0  0  0  0  0  0  0
    2.0598    3.0722    3.1652 H   0  0  0  0  0  0  0  0  0  0  0  0
    1.1537    3.0311    1.6410 H   0  0  0  0  0  0  0  0  0  0  0  0
    3.4557    0.5306    4.0394 N   0  0  0  0  0  0  0  0  0  0  0  0
    3.9208   -0.0680    5.2687 C   0  0  0  0  0  0  0  0  0  0  0  0
    4.1123    1.0962    3.5095 H   0  0  0  0  0  0  0  0  0  0  0  0
    3.7368    0.6218    6.1056 H   0  0  0  0  0  0  0  0  0  0  0  0
    3.3810   -1.0101    5.4448 H   0  0  0  0  0  0  0  0  0  0  0  0
    4.9990   -0.2719    5.1921 H   0  0  0  0  0  0  0  0  0  0  0  0
  1  3  1  0  0  0  0
  1  7  1  0  0  0  0
  1  2  2  0  0  0  0
 28 29  1  0  0  0  0
 29 37  1  0  0  0  0
 29 30  2  0  0  0  0
 18 19  1  0  0  0  0
 19 27  1  0  0  0  0
 19 20  2  0  0  0  0
  8  9  1  0  0  0  0
  9 17  1  0  0  0  0
  9 10  2  0  0  0  0
 28 31  1  0  0  0  0
 18 21  1  0  0  0  0
  8 11  1  0  0  0  0
 37 38  1  0  0  0  0
 27 28  1  0  0  0  0
 17 18  1  0  0  0  0
  7  8  1  0  0  0  0
  3  4  1  0  0  0  0
  3  5  1  0  0  0  0
  3  6  1  0  0  0  0
 31 34  1  0  0  0  0
 31 35  1  0  0  0  0
 31 36  1  0  0  0  0
 21 24  1  0  0  0  0
 21 25  1  0  0  0  0
 21 26  1  0  0  0  0
 11 14  1  0  0  0  0
 11 15  1  0  0  0  0
 11 16  1  0  0  0  0
 38 40  1  0  0  0  0
 38 41  1  0  0  0  0
 38 42  1  0  0  0  0
 28 33  1  0  0  0  0
 18 23  1  0  0  0  0
  8 13  1  0  0  0  0
 37 39  1  0  0  0  0
  7 12  1  0  0  0  0
 27 32  1  0  0  0  0
 17 22  1  0  0  0  0
M  END
$$$$

  -OEChem-05262214473D

 42 41  0     1  0  0  0  0  0999 V2000
   -5.7851   -0.9580    0.6237 C   0  0  0  0  0  0  0  0  0  0  0  0
   -6.2213    0.1296    0.2652 O   0  0  0  0  0  0  0  0  0  0  0  0
   -6.7088   -2.1270    0.7168 C   0  0  0  0  0  0  0  0  0  0  0  0
   -7.1713   -2.2193    1.7126 H   0  0  0  0  0  0  0  0  0  0  0  0
   -7.5511   -2.0547    0.0101 H   0  0  0  0  0  0  0  0  0  0  0  0
   -6.2485   -3.1083    0.5191 H   0  0  0  0  0  0  0  0  0  0  0  0
   -4.4733   -1.2411    0.9668 N   0  0  0  0  0  0  0  0  0  0  0  0
   -3.4203   -0.2603    0.9449 C   0  0  2  0  0  0  0  0  0  0  0  0
   -2.1242   -0.9699    0.5759 C   0  0  0  0  0  0  0  0  0  0  0  0
   -1.8694   -2.1225    0.9189 O   0  0  0  0  0  0  0  0  0  0  0  0
   -3.2916    0.4435    2.2868 C   0  0  0  0  0  0  0  0  0  0  0  0
   -4.2421   -2.1920    1.2489 H   0  0  0  0  0  0  0  0  0  0  0  0
   -3.6772    0.4622    0.1625 H   0  0  0  0  0  0  0  0  0  0  0  0
   -3.0345   -0.2644    3.0832 H   0  0  0  0  0  0  0  0  0  0  0  0
   -2.5093    1.2092    2.2599 H   0  0  0  0  0  0  0  0  0  0  0  0
   -4.2338    0.9283    2.5645 H   0  0  0  0  0  0  0  0  0  0  0  0
   -1.2626   -0.1515   -0.1463 N   0  0  0  0  0  0  0  0  0  0  0  0
    0.0431   -0.5785   -0.5755 C   0  0  2  0  0  0  0  0  0  0  0  0
    1.0718    0.3558    0.0477 C   0  0  0  0  0  0  0  0  0  0  0  0
    1.6817    1.2071   -0.5961 O   0  0  0  0  0  0  0  0  0  0  0  0
    0.1552   -0.5764   -2.0921 C   0  0  0  0  0  0  0  0  0  0  0  0
   -1.5766    0.7776   -0.4197 H   0  0  0  0  0  0  0  0  0  0  0  0
    0.1876   -1.5927   -0.1875 H   0  0  0  0  0  0  0  0  0  0  0  0
    0.0132    0.4314   -2.4992 H   0  0  0  0  0  0  0  0  0  0  0  0
    1.1396   -0.9286   -2.4177 H   0  0  0  0  0  0  0  0  0  0  0  0
   -0.6047   -1.2258   -2.5400 H   0  0  0  0  0  0  0  0  0  0  0  0
    1.2635    0.1008    1.4012 N   0  0  0  0  0  0  0  0  0  0  0  0
    2.2152    0.8223    2.2043 C   0  0  2  0  0  0  0  0  0  0  0  0
    2.7485   -0.1277    3.2686 C   0  0  0  0  0  0  0  0  0  0  0  0
    2.0632   -1.0066    3.7872 O   0  0  0  0  0  0  0  0  0  0  0  0
    1.5840    2.0513    2.8398 C   0  0  0  0  0  0  0  0  0  0  0  0
    0.6827   -0.5987    1.8594 H   0  0  0  0  0  0  0  0  0  0  0  0
    3.0316    1.1193    1.5369 H   0  0  0  0  0  0  0  0  0  0  0  0
    0.7639    1.7737    3.5120 H   0  0  0  0  0  0  0  0  0  0  0  0
    2.3165    2.6147    3.4273 H   0  0  0  0  0  0  0  0  0  0  0  0
    1.1746    2.7192    2.0742 H   0  0  0  0  0  0  0  0  0  0  0  0
    4.0669    0.1493    3.6021 N   0  0  0  0  0  0  0  0  0  0  0  0
    4.7850   -0.5851    4.6174 C   0  0  0  0  0  0  0  0  0  0  0  0
    4.5703    0.8698    3.0930 H   0  0  0  0  0  0  0  0  0  0  0  0
    4.6819   -0.0712    5.5845 H   0  0  0  0  0  0  0  0  0  0  0  0
    4.3713   -1.6013    4.6963 H   0  0  0  0  0  0  0  0  0  0  0  0
    5.8491   -0.6426    4.3445 H   0  0  0  0  0  0  0  0  0  0  0  0
  1  3  1  0  0  0  0
  1  7  1  0  0  0  0
  1  2  2  0  0  0  0
 28 29  1  0  0  0  0
 29 37  1  0  0  0  0
 29 30  2  0  0  0  0
 18 19  1  0  0  0  0
 19 27  1  0  0  0  0
 19 20  2  0  0  0  0
  8  9  1  0  0  0  0
  9 17  1  0  0  0  0
  9 10  2  0  0  0  0
 28 31  1  0  0  0  0
 18 21  1  0  0  0  0
  8 11  1  0  0  0  0
 37 38  1  0  0  0  0
 27 28  1  0  0  0  0
 17 18  1  0  0  0  0
  7  8  1  0  0  0  0
  3  4  1  0  0  0  0
  3  5  1  0  0  0  0
  3  6  1  0  0  0  0
 31 34  1  0  0  0  0
 31 35  1  0  0  0  0
 31 36  1  0  0  0  0
 21 24  1  0  0  0  0
 21 25  1  0  0  0  0
 21 26  1  0  0  0  0
 11 14  1  0  0  0  0
 11 15  1  0  0  0  0
 11 16  1  0  0  0  0
 38 40  1  0  0  0  0
 38 41  1  0  0  0  0
 38 42  1  0  0  0  0
 28 33  1  0  0  0  0
 18 23  1  0  0  0  0
  8 13  1  0  0  0  0
 37 39  1  0  0  0  0
  7 12  1  0  0  0  0
 27 32  1  0  0  0  0
 17 22  1  0  0  0  0
M  END
$$$$

  -OEChem-05262214473D

 42 41  0     1  0  0  0  0  0999 V2000
   -5.7851   -0.9580    0.6237 C   0  0  0  0  0  0  0  0  0  0  0  0
   -6.2213    0.1296    0.2652 O   0  0  0  0  0  0  0  0  0  0  0  0
   -6.7088   -2.1270    0.7168 C   0  0  0  0  0  0  0  0  0  0  0  0
   -7.1713   -2.2193    1.7126 H   0  0  0  0  0  0  0  0  0  0  0  0
   -7.5511   -2.0547    0.0101 H   0  0  0  0  0  0  0  0  0  0  0  0
   -6.2485   -3.1083    0.5191 H   0  0  0  0  0  0  0  0  0  0  0  0
   -4.4733   -1.2411    0.9668 N   0  0  0  0  0  0  0  0  0  0  0  0
   -3.4203   -0.2603    0.9449 C   0  0  2  0  0  0  0  0  0  0  0  0
   -2.1242   -0.9699    0.5759 C   0  0  0  0  0  0  0  0  0  0  0  0
   -1.8694   -2.1225    0.9189 O   0  0  0  0  0  0  0  0  0  0  0  0
   -3.2916    0.4435    2.2868 C   0  0  0  0  0  0  0  0  0  0  0  0
   -4.2421   -2.1920    1.2489 H   0  0  0  0  0  0  0  0  0  0  0  0
   -3.6772    0.4622    0.1625 H   0  0  0  0  0  0  0  0  0  0  0  0
   -3.0345   -0.2644    3.0832 H   0  0  0  0  0  0  0  0  0  0  0  0
   -2.5093    1.2092    2.2599 H   0  0  0  0  0  0  0  0  0  0  0  0
   -4.2338    0.9283    2.5645 H   0  0  0  0  0  0  0  0  0  0  0  0
   -1.2626   -0.1515   -0.1463 N   0  0  0  0  0  0  0  0  0  0  0  0
    0.0431   -0.5785   -0.5755 C   0  0  2  0  0  0  0  0  0  0  0  0
    1.0718    0.3558    0.0477 C   0  0  0  0  0  0  0  0  0  0  0  0
    1.4840    1.3693   -0.5128 O   0  0  0  0  0  0  0  0  0  0  0  0
    0.1552   -0.5764   -2.0921 C   0  0  0  0  0  0  0  0  0  0  0  0
   -1.5766    0.7776   -0.4197 H   0  0  0  0  0  0  0  0  0  0  0  0
    0.1876   -1.5927   -0.1875 H   0  0  0  0  0  0  0  0  0  0  0  0
    0.0132    0.4314   -2.4992 H   0  0  0  0  0  0  0  0  0  0  0  0
    1.1396   -0.9286   -2.4177 H   0  0  0  0  0  0  0  0  0  0  0  0
   -0.6047   -1.2258   -2.5400 H   0  0  0  0  0  0  0  0  0  0  0  0
    1.5110   -0.0958    1.2874 N   0  0  0  0  0  0  0  0  0  0  0  0
    2.5140    0.5910    2.0579 C   0  0  2  0  0  0  0  0  0  0  0  0
    3.3035   -0.4517    2.8381 C   0  0  0  0  0  0  0  0  0  0  0  0
    2.7989   -1.4805    3.2832 O   0  0  0  0  0  0  0  0  0  0  0  0
    1.8886    1.6125    2.9950 C   0  0  0  0  0  0  0  0  0  0  0  0
    1.0823   -0.9263    1.6911 H   0  0  0  0  0  0  0  0  0  0  0  0
    3.1757    1.0906    1.3420 H   0  0  0  0  0  0  0  0  0  0  0  0
    1.2222    1.1306    3.7197 H   0  0  0  0  0  0  0  0  0  0  0  0
    2.6546    2.1541    3.5597 H   0  0  0  0  0  0  0  0  0  0  0  0
    1.2966    2.3443    2.4347 H   0  0  0  0  0  0  0  0  0  0  0  0
    4.6281   -0.0778    3.0161 N   0  0  0  0  0  0  0  0  0  0  0  0
    5.5712   -0.8793    3.7606 C   0  0  0  0  0  0  0  0  0  0  0  0
    4.9705    0.7724    2.5783 H   0  0  0  0  0  0  0  0  0  0  0  0
    5.5854   -0.5495    4.8099 H   0  0  0  0  0  0  0  0  0  0  0  0
    5.2717   -1.9367    3.7128 H   0  0  0  0  0  0  0  0  0  0  0  0
    6.5749   -0.7625    3.3260 H   0  0  0  0  0  0  0  0  0  0  0  0
  1  3  1  0  0  0  0
  1  7  1  0  0  0  0
  1  2  2  0  0  0  0
 28 29  1  0  0  0  0
 29 37  1  0  0  0  0
 29 30  2  0  0  0  0
 18 19  1  0  0  0  0
 19 27  1  0  0  0  0
 19 20  2  0  0  0  0
  8  9  1  0  0  0  0
  9 17  1  0  0  0  0
  9 10  2  0  0  0  0
 28 31  1  0  0  0  0
 18 21  1  0  0  0  0
  8 11  1  0  0  0  0
 37 38  1  0  0  0  0
 27 28  1  0  0  0  0
 17 18  1  0  0  0  0
  7  8  1  0  0  0  0
  3  4  1  0  0  0  0
  3  5  1  0  0  0  0
  3  6  1  0  0  0  0
 31 34  1  0  0  0  0
 31 35  1  0  0  0  0
 31 36  1  0  0  0  0
 21 24  1  0  0  0  0
 21 25  1  0  0  0  0
 21 26  1  0  0  0  0
 11 14  1  0  0  0  0
 11 15  1  0  0  0  0
 11 16  1  0  0  0  0
 38 40  1  0  0  0  0
 38 41  1  0  0  0  0
 38 42  1  0  0  0  0
 28 33  1  0  0  0  0
 18 23  1  0  0  0  0
  8 13  1  0  0  0  0
 37 39  1  0  0  0  0
  7 12  1  0  0  0  0
 27 32  1  0  0  0  0
 17 22  1  0  0  0  0
M  END
$$$$

  -OEChem-05262214473D

 42 41  0     1  0  0  0  0  0999 V2000
   -5.7851   -0.9580    0.6237 C   0  0  0  0  0  0  0  0  0  0  0  0
   -6.2213    0.1296    0.2652 O   0  0  0  0  0  0  0  0  0  0  0  0
   -6.7088   -2.1270    0.7168 C   0  0  0  0  0  0  0  0  0  0  0  0
   -7.1713   -2.2193    1.7126 H   0  0  0  0  0  0  0  0  0  0  0  0
   -7.5511   -2.0547    0.0101 H   0  0  0  0  0  0  0  0  0  0  0  0
   -6.2485   -3.1083    0.5191 H   0  0  0  0  0  0  0  0  0  0  0  0
   -4.4733   -1.2411    0.9668 N   0  0  0  0  0  0  0  0  0  0  0  0
   -3.4203   -0.2603    0.9449 C   0  0  2  0  0  0  0  0  0  0  0  0
   -2.1242   -0.9699    0.5759 C   0  0  0  0  0  0  0  0  0  0  0  0
   -1.8694   -2.1225    0.9189 O   0  0  0  0  0  0  0  0  0  0  0  0
   -3.2916    0.4435    2.2868 C   0  0  0  0  0  0  0  0  0  0  0  0
   -4.2421   -2.1920    1.2489 H   0  0  0  0  0  0  0  0  0  0  0  0
   -3.6772    0.4622    0.1625 H   0  0  0  0  0  0  0  0  0  0  0  0
   -3.0345   -0.2644    3.0832 H   0  0  0  0  0  0  0  0  0  0  0  0
   -2.5093    1.2092    2.2599 H   0  0  0  0  0  0  0  0  0  0  0  0
   -4.2338    0.9283    2.5645 H   0  0  0  0  0  0  0  0  0  0  0  0
   -1.2626   -0.1515   -0.1463 N   0  0  0  0  0  0  0  0  0  0  0  0
    0.0431   -0.5785   -0.5755 C   0  0  2  0  0  0  0  0  0  0  0  0
    1.0718    0.3558    0.0477 C   0  0  0  0  0  0  0  0  0  0  0  0
    1.2891    1.4904   -0.3726 O   0  0  0  0  0  0  0  0  0  0  0  0
    0.1552   -0.5764   -2.0921 C   0  0  0  0  0  0  0  0  0  0  0  0
   -1.5766    0.7776   -0.4197 H   0  0  0  0  0  0  0  0  0  0  0  0
    0.1876   -1.5927   -0.1875 H   0  0  0  0  0  0  0  0  0  0  0  0
    0.0132    0.4314   -2.4992 H   0  0  0  0  0  0  0  0  0  0  0  0
    1.1396   -0.9286   -2.4177 H   0  0  0  0  0  0  0  0  0  0  0  0
   -0.6047   -1.2258   -2.5400 H   0  0  0  0  0  0  0  0  0  0  0  0
    1.7528   -0.2396    1.1038 N   0  0  0  0  0  0  0  0  0  0  0  0
    2.8038    0.4249    1.8286 C   0  0  2  0  0  0  0  0  0  0  0  0
    3.8056   -0.6307    2.2776 C   0  0  0  0  0  0  0  0  0  0  0  0
    3.4796   -1.7722    2.5968 O   0  0  0  0  0  0  0  0  0  0  0  0
    2.2538    1.1938    3.0199 C   0  0  0  0  0  0  0  0  0  0  0  0
    1.4761   -1.1711    1.4078 H   0  0  0  0  0  0  0  0  0  0  0  0
    3.2869    1.1123    1.1258 H   0  0  0  0  0  0  0  0  0  0  0  0
    1.7659    0.5216    3.7351 H   0  0  0  0  0  0  0  0  0  0  0  0
    3.0509    1.7219    3.5535 H   0  0  0  0  0  0  0  0  0  0  0  0
    1.5115    1.9322    2.6981 H   0  0  0  0  0  0  0  0  0  0  0  0
    5.1013   -0.1353    2.3212 N   0  0  0  0  0  0  0  0  0  0  0  0
    6.2257   -0.9304    2.7568 C   0  0  0  0  0  0  0  0  0  0  0  0
    5.2857    0.8107    2.0007 H   0  0  0  0  0  0  0  0  0  0  0  0
    6.3859   -0.7803    3.8347 H   0  0  0  0  0  0  0  0  0  0  0  0
    6.0207   -1.9933    2.5611 H   0  0  0  0  0  0  0  0  0  0  0  0
    7.1270   -0.6233    2.2060 H   0  0  0  0  0  0  0  0  0  0  0  0
  1  3  1  0  0  0  0
  1  7  1  0  0  0  0
  1  2  2  0  0  0  0
 28 29  1  0  0  0  0
 29 37  1  0  0  0  0
 29 30  2  0  0  0  0
 18 19  1  0  0  0  0
 19 27  1  0  0  0  0
 19 20  2  0  0  0  0
  8  9  1  0  0  0  0
  9 17  1  0  0  0  0
  9 10  2  0  0  0  0
 28 31  1  0  0  0  0
 18 21  1  0  0  0  0
  8 11  1  0  0  0  0
 37 38  1  0  0  0  0
 27 28  1  0  0  0  0
 17 18  1  0  0  0  0
  7  8  1  0  0  0  0
  3  4  1  0  0  0  0
  3  5  1  0  0  0  0
  3  6  1  0  0  0  0
 31 34  1  0  0  0  0
 31 35  1  0  0  0  0
 31 36  1  0  0  0  0
 21 24  1  0  0  0  0
 21 25  1  0  0  0  0
 21 26  1  0  0  0  0
 11 14  1  0  0  0  0
 11 15  1  0  0  0  0
 11 16  1  0  0  0  0
 38 40  1  0  0  0  0
 38 41  1  0  0  0  0
 38 42  1  0  0  0  0
 28 33  1  0  0  0  0
 18 23  1  0  0  0  0
  8 13  1  0  0  0  0
 37 39  1  0  0  0  0
  7 12  1  0  0  0  0
 27 32  1  0  0  0  0
 17 22  1  0  0  0  0
M  END
$$$$

  -OEChem-05262214473D

 42 41  0     1  0  0  0  0  0999 V2000
   -5.7851   -0.9580    0.6237 C   0  0  0  0  0  0  0  0  0  0  0  0
   -6.2213    0.1296    0.2652 O   0  0  0  0  0  0  0  0  0  0  0  0
   -6.7088   -2.1270    0.7168 C   0  0  0  0  0  0  0  0  0  0  0  0
   -7.1713   -2.2193    1.7126 H   0  0  0  0  0  0  0  0  0  0  0  0
   -7.5511   -2.0547    0.0101 H   0  0  0  0  0  0  0  0  0  0  0  0
   -6.2485   -3.1083    0.5191 H   0  0  0  0  0  0  0  0  0  0  0  0
   -4.4733   -1.2411    0.9668 N   0  0  0  0  0  0  0  0  0  0  0  0
   -3.4203   -0.2603    0.9449 C   0  0  2  0  0  0  0  0  0  0  0  0
   -2.1242   -0.9699    0.5759 C   0  0  0  0  0  0  0  0  0  0  0  0
   -1.8694   -2.1225    0.9189 O   0  0  0  0  0  0  0  0  0  0  0  0
   -3.2916    0.4435    2.2868 C   0  0  0  0  0  0  0  0  0  0  0  0
   -4.2421   -2.1920    1.2489 H   0  0  0  0  0  0  0  0  0  0  0  0
   -3.6772    0.4622    0.1625 H   0  0  0  0  0  0  0  0  0  0  0  0
   -3.0345   -0.2644    3.0832 H   0  0  0  0  0  0  0  0  0  0  0  0
   -2.5093    1.2092    2.2599 H   0  0  0  0  0  0  0  0  0  0  0  0
   -4.2338    0.9283    2.5645 H   0  0  0  0  0  0  0  0  0  0  0  0
   -1.2626   -0.1515   -0.1463 N   0  0  0  0  0  0  0  0  0  0  0  0
    0.0431   -0.5785   -0.5755 C   0  0  2  0  0  0  0  0  0  0  0  0
    1.0718    0.3558    0.0477 C   0  0  0  0  0  0  0  0  0  0  0  0
    1.1102    1.5622   -0.1851 O   0  0  0  0  0  0  0  0  0  0  0  0
    0.1552   -0.5764   -2.0921 C   0  0  0  0  0  0  0  0  0  0  0  0
   -1.5766    0.7776   -0.4197 H   0  0  0  0  0  0  0  0  0  0  0  0
    0.1876   -1.5927   -0.1875 H   0  0  0  0  0  0  0  0  0  0  0  0
    0.0132    0.4314   -2.4992 H   0  0  0  0  0  0  0  0  0  0  0  0
    1.1396   -0.9286   -2.4177 H   0  0  0  0  0  0  0  0  0  0  0  0
   -0.6047   -1.2258   -2.5400 H   0  0  0  0  0  0  0  0  0  0  0  0
    1.9725   -0.3208    0.8630 N   0  0  0  0  0  0  0  0  0  0  0  0
    3.0649    0.3352    1.5321 C   0  0  2  0  0  0  0  0  0  0  0  0
    4.2206   -0.6524    1.6251 C   0  0  0  0  0  0  0  0  0  0  0  0
    4.0591   -1.8618    1.7746 O   0  0  0  0  0  0  0  0  0  0  0  0
    2.6549    0.8236    2.9127 C   0  0  0  0  0  0  0  0  0  0  0  0
    1.8376   -1.3163    1.0288 H   0  0  0  0  0  0  0  0  0  0  0  0
    3.3578    1.1828    0.9031 H   0  0  0  0  0  0  0  0  0  0  0  0
    2.3580   -0.0117    3.5573 H   0  0  0  0  0  0  0  0  0  0  0  0
    3.4785    1.3475    3.4090 H   0  0  0  0  0  0  0  0  0  0  0  0
    1.8044    1.5107    2.8463 H   0  0  0  0  0  0  0  0  0  0  0  0
    5.4541   -0.0193    1.5648 N   0  0  0  0  0  0  0  0  0  0  0  0
    6.7039   -0.7349    1.6743 C   0  0  0  0  0  0  0  0  0  0  0  0
    5.4943    0.9821    1.3993 H   0  0  0  0  0  0  0  0  0  0  0  0
    7.0286   -0.7481    2.7252 H   0  0  0  0  0  0  0  0  0  0  0  0
    6.5674   -1.7673    1.3199 H   0  0  0  0  0  0  0  0  0  0  0  0
    7.4677   -0.2346    1.0609 H   0  0  0  0  0  0  0  0  0  0  0  0
  1  3  1  0  0  0  0
  1  7  1  0  0  0  0
  1  2  2  0  0  0  0
 28 29  1  0  0  0  0
 29 37  1  0  0  0  0
 29 30  2  0  0  0  0
 18 19  1  0  0  0  0
 19 27  1  0  0  0  0
 19 20  2  0  0  0  0
  8  9  1  0  0  0  0
  9 17  1  0  0  0  0
  9 10  2  0  0  0  0
 28 31  1  0  0  0  0
 18 21  1  0  0  0  0
  8 11  1  0  0  0  0
 37 38  1  0  0  0  0
 27 28  1  0  0  0  0
 17 18  1  0  0  0  0
  7  8  1  0  0  0  0
  3  4  1  0  0  0  0
  3  5  1  0  0  0  0
  3  6  1  0  0  0  0
 31 34  1  0  0  0  0
 31 35  1  0  0  0  0
 31 36  1  0  0  0  0
 21 24  1  0  0  0  0
 21 25  1  0  0  0  0
 21 26  1  0  0  0  0
 11 14  1  0  0  0  0
 11 15  1  0  0  0  0
 11 16  1  0  0  0  0
 38 40  1  0  0  0  0
 38 41  1  0  0  0  0
 38 42  1  0  0  0  0
 28 33  1  0  0  0  0
 18 23  1  0  0  0  0
  8 13  1  0  0  0  0
 37 39  1  0  0  0  0
  7 12  1  0  0  0  0
 27 32  1  0  0  0  0
 17 22  1  0  0  0  0
M  END
$$$$

  -OEChem-05262214473D

 42 41  0     1  0  0  0  0  0999 V2000
   -5.7851   -0.9580    0.6237 C   0  0  0  0  0  0  0  0  0  0  0  0
   -6.2213    0.1296    0.2652 O   0  0  0  0  0  0  0  0  0  0  0  0
   -6.7088   -2.1270    0.7168 C   0  0  0  0  0  0  0  0  0  0  0  0
   -7.1713   -2.2193    1.7126 H   0  0  0  0  0  0  0  0  0  0  0  0
   -7.5511   -2.0547    0.0101 H   0  0  0  0  0  0  0  0  0  0  0  0
   -6.2485   -3.1083    0.5191 H   0  0  0  0  0  0  0  0  0  0  0  0
   -4.4733   -1.2411    0.9668 N   0  0  0  0  0  0  0  0  0  0  0  0
   -3.4203   -0.2603    0.9449 C   0  0  2  0  0  0  0  0  0  0  0  0
   -2.1242   -0.9699    0.5759 C   0  0  0  0  0  0  0  0  0  0  0  0
   -1.8694   -2.1225    0.9189 O   0  0  0  0  0  0  0  0  0  0  0  0
   -3.2916    0.4435    2.2868 C   0  0  0  0  0  0  0  0  0  0  0  0
   -4.2421   -2.1920    1.2489 H   0  0  0  0  0  0  0  0  0  0  0  0
   -3.6772    0.4622    0.1625 H   0  0  0  0  0  0  0  0  0  0  0  0
   -3.0345   -0.2644    3.0832 H   0  0  0  0  0  0  0  0  0  0  0  0
   -2.5093    1.2092    2.2599 H   0  0  0  0  0  0  0  0  0  0  0  0
   -4.2338    0.9283    2.5645 H   0  0  0  0  0  0  0  0  0  0  0  0
   -1.2626   -0.1515   -0.1463 N   0  0  0  0  0  0  0  0  0  0  0  0
    0.0431   -0.5785   -0.5755 C   0  0  2  0  0  0  0  0  0  0  0  0
    1.0718    0.3558    0.0477 C   0  0  0  0  0  0  0  0  0  0  0  0
    0.9596    1.5799    0.0370 O   0  0  0  0  0  0  0  0  0  0  0  0
    0.1552   -0.5764   -2.0921 C   0  0  0  0  0  0  0  0  0  0  0  0
   -1.5766    0.7776   -0.4197 H   0  0  0  0  0  0  0  0  0  0  0  0
    0.1876   -1.5927   -0.1875 H   0  0  0  0  0  0  0  0  0  0  0  0
    0.0132    0.4314   -2.4992 H   0  0  0  0  0  0  0  0  0  0  0  0
    1.1396   -0.9286   -2.4177 H   0  0  0  0  0  0  0  0  0  0  0  0
   -0.6047   -1.2258   -2.5400 H   0  0  0  0  0  0  0  0  0  0  0  0
    2.1550   -0.3339    0.5812 N   0  0  0  0  0  0  0  0  0  0  0  0
    3.2795    0.3280    1.1885 C   0  0  2  0  0  0  0  0  0  0  0  0
    4.5201   -0.5153    0.9252 C   0  0  0  0  0  0  0  0  0  0  0  0
    4.4977   -1.7433    0.8728 O   0  0  0  0  0  0  0  0  0  0  0  0
    3.0645    0.5273    2.6808 C   0  0  0  0  0  0  0  0  0  0  0  0
    2.1419   -1.3520    0.5800 H   0  0  0  0  0  0  0  0  0  0  0  0
    3.3834    1.2974    0.6891 H   0  0  0  0  0  0  0  0  0  0  0  0
    2.9582   -0.4331    3.1982 H   0  0  0  0  0  0  0  0  0  0  0  0
    3.9082    1.0564    3.1360 H   0  0  0  0  0  0  0  0  0  0  0  0
    2.1555    1.1088    2.8693 H   0  0  0  0  0  0  0  0  0  0  0  0
    5.6625    0.2624    0.7985 N   0  0  0  0  0  0  0  0  0  0  0  0
    6.9732   -0.3062    0.5870 C   0  0  0  0  0  0  0  0  0  0  0  0
    5.5822    1.2748    0.8153 H   0  0  0  0  0  0  0  0  0  0  0  0
    7.4699   -0.4548    1.5572 H   0  0  0  0  0  0  0  0  0  0  0  0
    6.8744   -1.2741    0.0737 H   0  0  0  0  0  0  0  0  0  0  0  0
    7.5738    0.3771   -0.0314 H   0  0  0  0  0  0  0  0  0  0  0  0
  1  3  1  0  0  0  0
  1  7  1  0  0  0  0
  1  2  2  0  0  0  0
 28 29  1  0  0  0  0
 29 37  1  0  0  0  0
 29 30  2  0  0  0  0
 18 19  1  0  0  0  0
 19 27  1  0  0  0  0
 19 20  2  0  0  0  0
  8  9  1  0  0  0  0
  9 17  1  0  0  0  0
  9 10  2  0  0  0  0
 28 31  1  0  0  0  0
 18 21  1  0  0  0  0
  8 11  1  0  0  0  0
 37 38  1  0  0  0  0
 27 28  1  0  0  0  0
 17 18  1  0  0  0  0
  7  8  1  0  0  0  0
  3  4  1  0  0  0  0
  3  5  1  0  0  0  0
  3  6  1  0  0  0  0
 31 34  1  0  0  0  0
 31 35  1  0  0  0  0
 31 36  1  0  0  0  0
 21 24  1  0  0  0  0
 21 25  1  0  0  0  0
 21 26  1  0  0  0  0
 11 14  1  0  0  0  0
 11 15  1  0  0  0  0
 11 16  1  0  0  0  0
 38 40  1  0  0  0  0
 38 41  1  0  0  0  0
 38 42  1  0  0  0  0
 28 33  1  0  0  0  0
 18 23  1  0  0  0  0
  8 13  1  0  0  0  0
 37 39  1  0  0  0  0
  7 12  1  0  0  0  0
 27 32  1  0  0  0  0
 17 22  1  0  0  0  0
M  END
$$$$

  -OEChem-05262214473D

 42 41  0     1  0  0  0  0  0999 V2000
   -5.7851   -0.9580    0.6237 C   0  0  0  0  0  0  0  0  0  0  0  0
   -6.2213    0.1296    0.2652 O   0  0  0  0  0  0  0  0  0  0  0  0
   -6.7088   -2.1270    0.7168 C   0  0  0  0  0  0  0  0  0  0  0  0
   -7.1713   -2.2193    1.7126 H   0  0  0  0  0  0  0  0  0  0  0  0
   -7.5511   -2.0547    0.0101 H   0  0  0  0  0  0  0  0  0  0  0  0
   -6.2485   -3.1083    0.5191 H   0  0  0  0  0  0  0  0  0  0  0  0
   -4.4733   -1.2411    0.9668 N   0  0  0  0  0  0  0  0  0  0  0  0
   -3.4203   -0.2603    0.9449 C   0  0  2  0  0  0  0  0  0  0  0  0
   -2.1242   -0.9699    0.5759 C   0  0  0  0  0  0  0  0  0  0  0  0
   -1.8694   -2.1225    0.9189 O   0  0  0  0  0  0  0  0  0  0  0  0
   -3.2916    0.4435    2.2868 C   0  0  0  0  0  0  0  0  0  0  0  0
   -4.2421   -2.1920    1.2489 H   0  0  0  0  0  0  0  0  0  0  0  0
   -3.6772    0.4622    0.1625 H   0  0  0  0  0  0  0  0  0  0  0  0
   -3.0345   -0.2644    3.0832 H   0  0  0  0  0  0  0  0  0  0  0  0
   -2.5093    1.2092    2.2599 H   0  0  0  0  0  0  0  0  0  0  0  0
   -4.2338    0.9283    2.5645 H   0  0  0  0  0  0  0  0  0  0  0  0
   -1.2626   -0.1515   -0.1463 N   0  0  0  0  0  0  0  0  0  0  0  0
    0.0431   -0.5785   -0.5755 C   0  0  2  0  0  0  0  0  0  0  0  0
    1.0718    0.3558    0.0477 C   0  0  0  0  0  0  0  0  0  0  0  0
    0.8476    1.5422    0.2785 O   0  0  0  0  0  0  0  0  0  0  0  0
    0.1552   -0.5764   -2.0921 C   0  0  0  0  0  0  0  0  0  0  0  0
   -1.5766    0.7776   -0.4197 H   0  0  0  0  0  0  0  0  0  0  0  0
    0.1876   -1.5927   -0.1875 H   0  0  0  0  0  0  0  0  0  0  0  0
    0.0132    0.4314   -2.4992 H   0  0  0  0  0  0  0  0  0  0  0  0
    1.1396   -0.9286   -2.4177 H   0  0  0  0  0  0  0  0  0  0  0  0
   -0.6047   -1.2258   -2.5400 H   0  0  0  0  0  0  0  0  0  0  0  0
    2.2880   -0.2780    0.2778 N   0  0  0  0  0  0  0  0  0  0  0  0
    3.4330    0.4039    0.8213 C   0  0  2  0  0  0  0  0  0  0  0  0
    4.6837   -0.2289    0.2255 C   0  0  0  0  0  0  0  0  0  0  0  0
    4.7657   -1.4247   -0.0472 O   0  0  0  0  0  0  0  0  0  0  0  0
    3.4547    0.3250    2.3399 C   0  0  0  0  0  0  0  0  0  0  0  0
    2.3683   -1.2758    0.0919 H   0  0  0  0  0  0  0  0  0  0  0  0
    3.3620    1.4482    0.4983 H   0  0  0  0  0  0  0  0  0  0  0  0
    3.5255   -0.7138    2.6824 H   0  0  0  0  0  0  0  0  0  0  0  0
    4.3108    0.8684    2.7532 H   0  0  0  0  0  0  0  0  0  0  0  0
    2.5409    0.7537    2.7655 H   0  0  0  0  0  0  0  0  0  0  0  0
    5.7123    0.6905    0.0744 N   0  0  0  0  0  0  0  0  0  0  0  0
    7.0154    0.3265   -0.4311 C   0  0  0  0  0  0  0  0  0  0  0  0
    5.5434    1.6690    0.2884 H   0  0  0  0  0  0  0  0  0  0  0  0
    7.6797    0.0793    0.4101 H   0  0  0  0  0  0  0  0  0  0  0  0
    6.9209   -0.5474   -1.0926 H   0  0  0  0  0  0  0  0  0  0  0  0
    7.4381    1.1702   -0.9964 H   0  0  0  0  0  0  0  0  0  0  0  0
  1  3  1  0  0  0  0
  1  7  1  0  0  0  0
  1  2  2  0  0  0  0
 28 29  1  0  0  0  0
 29 37  1  0  0  0  0
 29 30  2  0  0  0  0
 18 19  1  0  0  0  0
 19 27  1  0  0  0  0
 19 20  2  0  0  0  0
  8  9  1  0  0  0  0
  9 17  1  0  0  0  0
  9 10  2  0  0  0  0
 28 31  1  0  0  0  0
 18 21  1  0  0  0  0
  8 11  1  0  0  0  0
 37 38  1  0  0  0  0
 27 28  1  0  0  0  0
 17 18  1  0  0  0  0
  7  8  1  0  0  0  0
  3  4  1  0  0  0  0
  3  5  1  0  0  0  0
  3  6  1  0  0  0  0
 31 34  1  0  0  0  0
 31 35  1  0  0  0  0
 31 36  1  0  0  0  0
 21 24  1  0  0  0  0
 21 25  1  0  0  0  0
 21 26  1  0  0  0  0
 11 14  1  0  0  0  0
 11 15  1  0  0  0  0
 11 16  1  0  0  0  0
 38 40  1  0  0  0  0
 38 41  1  0  0  0  0
 38 42  1  0  0  0  0
 28 33  1  0  0  0  0
 18 23  1  0  0  0  0
  8 13  1  0  0  0  0
 37 39  1  0  0  0  0
  7 12  1  0  0  0  0
 27 32  1  0  0  0  0
 17 22  1  0  0  0  0
M  END
$$$$

  -OEChem-05262214473D

 42 41  0     1  0  0  0  0  0999 V2000
   -5.7851   -0.9580    0.6237 C   0  0  0  0  0  0  0  0  0  0  0  0
   -6.2213    0.1296    0.2652 O   0  0  0  0  0  0  0  0  0  0  0  0
   -6.7088   -2.1270    0.7168 C   0  0  0  0  0  0  0  0  0  0  0  0
   -7.1713   -2.2193    1.7126 H   0  0  0  0  0  0  0  0  0  0  0  0
   -7.5511   -2.0547    0.0101 H   0  0  0  0  0  0  0  0  0  0  0  0
   -6.2485   -3.1083    0.5191 H   0  0  0  0  0  0  0  0  0  0  0  0
   -4.4733   -1.2411    0.9668 N   0  0  0  0  0  0  0  0  0  0  0  0
   -3.4203   -0.2603    0.9449 C   0  0  2  0  0  0  0  0  0  0  0  0
   -2.1242   -0.9699    0.5759 C   0  0  0  0  0  0  0  0  0  0  0  0
   -1.8694   -2.1225    0.9189 O   0  0  0  0  0  0  0  0  0  0  0  0
   -3.2916    0.4435    2.2868 C   0  0  0  0  0  0  0  0  0  0  0  0
   -4.2421   -2.1920    1.2489 H   0  0  0  0  0  0  0  0  0  0  0  0
   -3.6772    0.4622    0.1625 H   0  0  0  0  0  0  0  0  0  0  0  0
   -3.0345   -0.2644    3.0832 H   0  0  0  0  0  0  0  0  0  0  0  0
   -2.5093    1.2092    2.2599 H   0  0  0  0  0  0  0  0  0  0  0  0
   -4.2338    0.9283    2.5645 H   0  0  0  0  0  0  0  0  0  0  0  0
   -1.2626   -0.1515   -0.1463 N   0  0  0  0  0  0  0  0  0  0  0  0
    0.0431   -0.5785   -0.5755 C   0  0  2  0  0  0  0  0  0  0  0  0
    1.0718    0.3558    0.0477 C   0  0  0  0  0  0  0  0  0  0  0  0
    0.7817    1.4517    0.5230 O   0  0  0  0  0  0  0  0  0  0  0  0
    0.1552   -0.5764   -2.0921 C   0  0  0  0  0  0  0  0  0  0  0  0
   -1.5766    0.7776   -0.4197 H   0  0  0  0  0  0  0  0  0  0  0  0
    0.1876   -1.5927   -0.1875 H   0  0  0  0  0  0  0  0  0  0  0  0
    0.0132    0.4314   -2.4992 H   0  0  0  0  0  0  0  0  0  0  0  0
    1.1396   -0.9286   -2.4177 H   0  0  0  0  0  0  0  0  0  0  0  0
   -0.6047   -1.2258   -2.5400 H   0  0  0  0  0  0  0  0  0  0  0  0
    2.3624   -0.1568   -0.0266 N   0  0  0  0  0  0  0  0  0  0  0  0
    3.5150    0.5576    0.4555 C   0  0  2  0  0  0  0  0  0  0  0  0
    4.7004    0.1875   -0.4262 C   0  0  0  0  0  0  0  0  0  0  0  0
    4.8447   -0.9277   -0.9227 O   0  0  0  0  0  0  0  0  0  0  0  0
    3.7989    0.2306    1.9133 C   0  0  0  0  0  0  0  0  0  0  0  0
    2.5015   -1.0928   -0.4022 H   0  0  0  0  0  0  0  0  0  0  0  0
    3.2951    1.6249    0.3438 H   0  0  0  0  0  0  0  0  0  0  0  0
    4.0214   -0.8346    2.0450 H   0  0  0  0  0  0  0  0  0  0  0  0
    4.6588    0.7964    2.2867 H   0  0  0  0  0  0  0  0  0  0  0  0
    2.9343    0.4697    2.5419 H   0  0  0  0  0  0  0  0  0  0  0  0
    5.6001    1.2359   -0.5581 N   0  0  0  0  0  0  0  0  0  0  0  0
    6.8274    1.1200   -1.3106 C   0  0  0  0  0  0  0  0  0  0  0  0
    5.3805    2.1378   -0.1455 H   0  0  0  0  0  0  0  0  0  0  0  0
    7.6436    0.8180   -0.6378 H   0  0  0  0  0  0  0  0  0  0  0  0
    6.7037    0.3634   -2.0994 H   0  0  0  0  0  0  0  0  0  0  0  0
    7.0698    2.0905   -1.7682 H   0  0  0  0  0  0  0  0  0  0  0  0
  1  3  1  0  0  0  0
  1  7  1  0  0  0  0
  1  2  2  0  0  0  0
 28 29  1  0  0  0  0
 29 37  1  0  0  0  0
 29 30  2  0  0  0  0
 18 19  1  0  0  0  0
 19 27  1  0  0  0  0
 19 20  2  0  0  0  0
  8  9  1  0  0  0  0
  9 17  1  0  0  0  0
  9 10  2  0  0  0  0
 28 31  1  0  0  0  0
 18 21  1  0  0  0  0
  8 11  1  0  0  0  0
 37 38  1  0  0  0  0
 27 28  1  0  0  0  0
 17 18  1  0  0  0  0
  7  8  1  0  0  0  0
  3  4  1  0  0  0  0
  3  5  1  0  0  0  0
  3  6  1  0  0  0  0
 31 34  1  0  0  0  0
 31 35  1  0  0  0  0
 31 36  1  0  0  0  0
 21 24  1  0  0  0  0
 21 25  1  0  0  0  0
 21 26  1  0  0  0  0
 11 14  1  0  0  0  0
 11 15  1  0  0  0  0
 11 16  1  0  0  0  0
 38 40  1  0  0  0  0
 38 41  1  0  0  0  0
 38 42  1  0  0  0  0
 28 33  1  0  0  0  0
 18 23  1  0  0  0  0
  8 13  1  0  0  0  0
 37 39  1  0  0  0  0
  7 12  1  0  0  0  0
 27 32  1  0  0  0  0
 17 22  1  0  0  0  0
M  END
$$$$

  -OEChem-05262214473D

 42 41  0     1  0  0  0  0  0999 V2000
   -5.7851   -0.9580    0.6237 C   0  0  0  0  0  0  0  0  0  0  0  0
   -6.2213    0.1296    0.2652 O   0  0  0  0  0  0  0  0  0  0  0  0
   -6.7088   -2.1270    0.7168 C   0  0  0  0  0  0  0  0  0  0  0  0
   -7.1713   -2.2193    1.7126 H   0  0  0  0  0  0  0  0  0  0  0  0
   -7.5511   -2.0547    0.0101 H   0  0  0  0  0  0  0  0  0  0  0  0
   -6.2485   -3.1083    0.5191 H   0  0  0  0  0  0  0  0  0  0  0  0
   -4.4733   -1.2411    0.9668 N   0  0  0  0  0  0  0  0  0  0  0  0
   -3.4203   -0.2603    0.9449 C   0  0  2  0  0  0  0  0  0  0  0  0
   -2.1242   -0.9699    0.5759 C   0  0  0  0  0  0  0  0  0  0  0  0
   -1.8694   -2.1225    0.9189 O   0  0  0  0  0  0  0  0  0  0  0  0
   -3.2916    0.4435    2.2868 C   0  0  0  0  0  0  0  0  0  0  0  0
   -4.2421   -2.1920    1.2489 H   0  0  0  0  0  0  0  0  0  0  0  0
   -3.6772    0.4622    0.1625 H   0  0  0  0  0  0  0  0  0  0  0  0
   -3.0345   -0.2644    3.0832 H   0  0  0  0  0  0  0  0  0  0  0  0
   -2.5093    1.2092    2.2599 H   0  0  0  0  0  0  0  0  0  0  0  0
   -4.2338    0.9283    2.5645 H   0  0  0  0  0  0  0  0  0  0  0  0
   -1.2626   -0.1515   -0.1463 N   0  0  0  0  0  0  0  0  0  0  0  0
    0.0431   -0.5785   -0.5755 C   0  0  2  0  0  0  0  0  0  0  0  0
    1.0756    0.0935    0.3200 C   0  0  0  0  0  0  0  0  0  0  0  0
    0.7765    0.8851    1.2116 O   0  0  0  0  0  0  0  0  0  0  0  0
    0.2851   -0.2346   -2.0370 C   0  0  0  0  0  0  0  0  0  0  0  0
   -1.5766    0.7776   -0.4197 H   0  0  0  0  0  0  0  0  0  0  0  0
    0.0844   -1.6636   -0.4310 H   0  0  0  0  0  0  0  0  0  0  0  0
    0.2475    0.8485   -2.2013 H   0  0  0  0  0  0  0  0  0  0  0  0
    1.2676   -0.5854   -2.3697 H   0  0  0  0  0  0  0  0  0  0  0  0
   -0.4759   -0.6944   -2.6767 H   0  0  0  0  0  0  0  0  0  0  0  0
    2.3770   -0.2598   -0.0193 N   0  0  0  0  0  0  0  0  0  0  0  0
    3.5317    0.2760    0.6523 C   0  0  2  0  0  0  0  0  0  0  0  0
    4.6642    0.3697   -0.3617 C   0  0  0  0  0  0  0  0  0  0  0  0
    4.8172   -0.4408   -1.2732 O   0  0  0  0  0  0  0  0  0  0  0  0
    3.9332   -0.5884    1.8373 C   0  0  0  0  0  0  0  0  0  0  0  0
    2.5264   -0.9553   -0.7477 H   0  0  0  0  0  0  0  0  0  0  0  0
    3.2613    1.2816    0.9926 H   0  0  0  0  0  0  0  0  0  0  0  0
    4.2076   -1.5998    1.5159 H   0  0  0  0  0  0  0  0  0  0  0  0
    4.7943   -0.1641    2.3642 H   0  0  0  0  0  0  0  0  0  0  0  0
    3.1074   -0.6790    2.5511 H   0  0  0  0  0  0  0  0  0  0  0  0
    5.5089    1.4401   -0.1032 N   0  0  0  0  0  0  0  0  0  0  0  0
    6.6823    1.7171   -0.8985 C   0  0  0  0  0  0  0  0  0  0  0  0
    5.2834    2.0842    0.6491 H   0  0  0  0  0  0  0  0  0  0  0  0
    7.5565    1.2254   -0.4469 H   0  0  0  0  0  0  0  0  0  0  0  0
    6.5325    1.3337   -1.9186 H   0  0  0  0  0  0  0  0  0  0  0  0
    6.8515    2.8033   -0.9362 H   0  0  0  0  0  0  0  0  0  0  0  0
  1  3  1  0  0  0  0
  1  7  1  0  0  0  0
  1  2  2  0  0  0  0
 28 29  1  0  0  0  0
 29 37  1  0  0  0  0
 29 30  2  0  0  0  0
 18 19  1  0  0  0  0
 19 27  1  0  0  0  0
 19 20  2  0  0  0  0
  8  9  1  0  0  0  0
  9 17  1  0  0  0  0
  9 10  2  0  0  0  0
 28 31  1  0  0  0  0
 18 21  1  0  0  0  0
  8 11  1  0  0  0  0
 37 38  1  0  0  0  0
 27 28  1  0  0  0  0
 17 18  1  0  0  0  0
  7  8  1  0  0  0  0
  3  4  1  0  0  0  0
  3  5  1  0  0  0  0
  3  6  1  0  0  0  0
 31 34  1  0  0  0  0
 31 35  1  0  0  0  0
 31 36  1  0  0  0  0
 21 24  1  0  0  0  0
 21 25  1  0  0  0  0
 21 26  1  0  0  0  0
 11 14  1  0  0  0  0
 11 15  1  0  0  0  0
 11 16  1  0  0  0  0
 38 40  1  0  0  0  0
 38 41  1  0  0  0  0
 38 42  1  0  0  0  0
 28 33  1  0  0  0  0
 18 23  1  0  0  0  0
  8 13  1  0  0  0  0
 37 39  1  0  0  0  0
  7 12  1  0  0  0  0
 27 32  1  0  0  0  0
 17 22  1  0  0  0  0
M  END
$$$$

  -OEChem-05262214473D

 42 41  0     1  0  0  0  0  0999 V2000
   -5.7851   -0.9580    0.6237 C   0  0  0  0  0  0  0  0  0  0  0  0
   -6.2213    0.1296    0.2652 O   0  0  0  0  0  0  0  0  0  0  0  0
   -6.7088   -2.1270    0.7168 C   0  0  0  0  0  0  0  0  0  0  0  0
   -7.1713   -2.2193    1.7126 H   0  0  0  0  0  0  0  0  0  0  0  0
   -7.5511   -2.0547    0.0101 H   0  0  0  0  0  0  0  0  0  0  0  0
   -6.2485   -3.1083    0.5191 H   0  0  0  0  0  0  0  0  0  0  0  0
   -4.4733   -1.2411    0.9668 N   0  0  0  0  0  0  0  0  0  0  0  0
   -3.4203   -0.2603    0.9449 C   0  0  2  0  0  0  0  0  0  0  0  0
   -2.1242   -0.9699    0.5759 C   0  0  0  0  0  0  0  0  0  0  0  0
   -1.8694   -2.1225    0.9189 O   0  0  0  0  0  0  0  0  0  0  0  0
   -3.2916    0.4435    2.2868 C   0  0  0  0  0  0  0  0  0  0  0  0
   -4.2421   -2.1920    1.2489 H   0  0  0  0  0  0  0  0  0  0  0  0
   -3.6772    0.4622    0.1625 H   0  0  0  0  0  0  0  0  0  0  0  0
   -3.0345   -0.2644    3.0832 H   0  0  0  0  0  0  0  0  0  0  0  0
   -2.5093    1.2092    2.2599 H   0  0  0  0  0  0  0  0  0  0  0  0
   -4.2338    0.9283    2.5645 H   0  0  0  0  0  0  0  0  0  0  0  0
   -1.2626   -0.1515   -0.1463 N   0  0  0  0  0  0  0  0  0  0  0  0
    0.0431   -0.5785   -0.5755 C   0  0  2  0  0  0  0  0  0  0  0  0
    1.0756    0.0935    0.3200 C   0  0  0  0  0  0  0  0  0  0  0  0
    0.7835    0.6662    1.3677 O   0  0  0  0  0  0  0  0  0  0  0  0
    0.2851   -0.2346   -2.0370 C   0  0  0  0  0  0  0  0  0  0  0  0
   -1.5766    0.7776   -0.4197 H   0  0  0  0  0  0  0  0  0  0  0  0
    0.0844   -1.6636   -0.4310 H   0  0  0  0  0  0  0  0  0  0  0  0
    0.2475    0.8485   -2.2013 H   0  0  0  0  0  0  0  0  0  0  0  0
    1.2676   -0.5854   -2.3697 H   0  0  0  0  0  0  0  0  0  0  0  0
   -0.4759   -0.6944   -2.6767 H   0  0  0  0  0  0  0  0  0  0  0  0
    2.3599    0.0178   -0.2078 N   0  0  0  0  0  0  0  0  0  0  0  0
    3.5030    0.6145    0.4314 C   0  0  2  0  0  0  0  0  0  0  0  0
    4.4718    1.0584   -0.6567 C   0  0  0  0  0  0  0  0  0  0  0  0
    4.6206    0.4469   -1.7126 O   0  0  0  0  0  0  0  0  0  0  0  0
    4.1713   -0.3584    1.3903 C   0  0  0  0  0  0  0  0  0  0  0  0
    2.5122   -0.5130   -1.0632 H   0  0  0  0  0  0  0  0  0  0  0  0
    3.1383    1.4918    0.9767 H   0  0  0  0  0  0  0  0  0  0  0  0
    4.5431   -1.2440    0.8620 H   0  0  0  0  0  0  0  0  0  0  0  0
    5.0236    0.1062    1.8970 H   0  0  0  0  0  0  0  0  0  0  0  0
    3.4648   -0.6997    2.1546 H   0  0  0  0  0  0  0  0  0  0  0  0
    5.1820    2.1936   -0.2916 N   0  0  0  0  0  0  0  0  0  0  0  0
    6.1928    2.7860   -1.1363 C   0  0  0  0  0  0  0  0  0  0  0  0
    4.9653    2.6580    0.5853 H   0  0  0  0  0  0  0  0  0  0  0  0
    7.1784    2.3745   -0.8732 H   0  0  0  0  0  0  0  0  0  0  0  0
    5.9698    2.5588   -2.1892 H   0  0  0  0  0  0  0  0  0  0  0  0
    6.1998    3.8762   -0.9899 H   0  0  0  0  0  0  0  0  0  0  0  0
  1  3  1  0  0  0  0
  1  7  1  0  0  0  0
  1  2  2  0  0  0  0
 28 29  1  0  0  0  0
 29 37  1  0  0  0  0
 29 30  2  0  0  0  0
 18 19  1  0  0  0  0
 19 27  1  0  0  0  0
 19 20  2  0  0  0  0
  8  9  1  0  0  0  0
  9 17  1  0  0  0  0
  9 10  2  0  0  0  0
 28 31  1  0  0  0  0
 18 21  1  0  0  0  0
  8 11  1  0  0  0  0
 37 38  1  0  0  0  0
 27 28  1  0  0  0  0
 17 18  1  0  0  0  0
  7  8  1  0  0  0  0
  3  4  1  0  0  0  0
  3  5  1  0  0  0  0
  3  6  1  0  0  0  0
 31 34  1  0  0  0  0
 31 35  1  0  0  0  0
 31 36  1  0  0  0  0
 21 24  1  0  0  0  0
 21 25  1  0  0  0  0
 21 26  1  0  0  0  0
 11 14  1  0  0  0  0
 11 15  1  0  0  0  0
 11 16  1  0  0  0  0
 38 40  1  0  0  0  0
 38 41  1  0  0  0  0
 38 42  1  0  0  0  0
 28 33  1  0  0  0  0
 18 23  1  0  0  0  0
  8 13  1  0  0  0  0
 37 39  1  0  0  0  0
  7 12  1  0  0  0  0
 27 32  1  0  0  0  0
 17 22  1  0  0  0  0
M  END
$$$$

  -OEChem-05262214473D

 42 41  0     1  0  0  0  0  0999 V2000
   -5.7851   -0.9580    0.6237 C   0  0  0  0  0  0  0  0  0  0  0  0
   -6.2213    0.1296    0.2652 O   0  0  0  0  0  0  0  0  0  0  0  0
   -6.7088   -2.1270    0.7168 C   0  0  0  0  0  0  0  0  0  0  0  0
   -7.1713   -2.2193    1.7126 H   0  0  0  0  0  0  0  0  0  0  0  0
   -7.5511   -2.0547    0.0101 H   0  0  0  0  0  0  0  0  0  0  0  0
   -6.2485   -3.1083    0.5191 H   0  0  0  0  0  0  0  0  0  0  0  0
   -4.4733   -1.2411    0.9668 N   0  0  0  0  0  0  0  0  0  0  0  0
   -3.4203   -0.2603    0.9449 C   0  0  2  0  0  0  0  0  0  0  0  0
   -2.1242   -0.9699    0.5759 C   0  0  0  0  0  0  0  0  0  0  0  0
   -1.8694   -2.1225    0.9189 O   0  0  0  0  0  0  0  0  0  0  0  0
   -3.2916    0.4435    2.2868 C   0  0  0  0  0  0  0  0  0  0  0  0
   -4.2421   -2.1920    1.2489 H   0  0  0  0  0  0  0  0  0  0  0  0
   -3.6772    0.4622    0.1625 H   0  0  0  0  0  0  0  0  0  0  0  0
   -3.0345   -0.2644    3.0832 H   0  0  0  0  0  0  0  0  0  0  0  0
   -2.5093    1.2092    2.2599 H   0  0  0  0  0  0  0  0  0  0  0  0
   -4.2338    0.9283    2.5645 H   0  0  0  0  0  0  0  0  0  0  0  0
   -1.2626   -0.1515   -0.1463 N   0  0  0  0  0  0  0  0  0  0  0  0
    0.0431   -0.5785   -0.5755 C   0  0  2  0  0  0  0  0  0  0  0  0
    1.0756    0.0935    0.3200 C   0  0  0  0  0  0  0  0  0  0  0  0
    0.8415    0.4285    1.4793 O   0  0  0  0  0  0  0  0  0  0  0  0
    0.2851   -0.2346   -2.0370 C   0  0  0  0  0  0  0  0  0  0  0  0
   -1.5766    0.7776   -0.4197 H   0  0  0  0  0  0  0  0  0  0  0  0
    0.0844   -1.6636   -0.4310 H   0  0  0  0  0  0  0  0  0  0  0  0
    0.2475    0.8485   -2.2013 H   0  0  0  0  0  0  0  0  0  0  0  0
    1.2676   -0.5854   -2.3697 H   0  0  0  0  0  0  0  0  0  0  0  0
   -0.4759   -0.6944   -2.6767 H   0  0  0  0  0  0  0  0  0  0  0  0
    2.2795    0.3163   -0.3392 N   0  0  0  0  0  0  0  0  0  0  0  0
    3.3986    0.9758    0.2807 C   0  0  2  0  0  0  0  0  0  0  0  0
    4.1474    1.7462   -0.7988 C   0  0  0  0  0  0  0  0  0  0  0  0
    4.2454    1.3515   -1.9588 O   0  0  0  0  0  0  0  0  0  0  0  0
    4.3152   -0.0217    0.9717 C   0  0  0  0  0  0  0  0  0  0  0  0
    2.3951   -0.0327   -1.2887 H   0  0  0  0  0  0  0  0  0  0  0  0
    2.9857    1.6790    1.0122 H   0  0  0  0  0  0  0  0  0  0  0  0
    4.7385   -0.7345    0.2546 H   0  0  0  0  0  0  0  0  0  0  0  0
    5.1506    0.4842    1.4670 H   0  0  0  0  0  0  0  0  0  0  0  0
    3.7678   -0.5956    1.7271 H   0  0  0  0  0  0  0  0  0  0  0  0
    4.7300    2.9046   -0.3041 N   0  0  0  0  0  0  0  0  0  0  0  0
    5.5302    3.7857   -1.1224 C   0  0  0  0  0  0  0  0  0  0  0  0
    4.5634    3.1751    0.6607 H   0  0  0  0  0  0  0  0  0  0  0  0
    6.5897    3.5017   -1.0403 H   0  0  0  0  0  0  0  0  0  0  0  0
    5.2090    3.7039   -2.1713 H   0  0  0  0  0  0  0  0  0  0  0  0
    5.4010    4.8227   -0.7792 H   0  0  0  0  0  0  0  0  0  0  0  0
  1  3  1  0  0  0  0
  1  7  1  0  0  0  0
  1  2  2  0  0  0  0
 28 29  1  0  0  0  0
 29 37  1  0  0  0  0
 29 30  2  0  0  0  0
 18 19  1  0  0  0  0
 19 27  1  0  0  0  0
 19 20  2  0  0  0  0
  8  9  1  0  0  0  0
  9 17  1  0  0  0  0
  9 10  2  0  0  0  0
 28 31  1  0  0  0  0
 18 21  1  0  0  0  0
  8 11  1  0  0  0  0
 37 38  1  0  0  0  0
 27 28  1  0  0  0  0
 17 18  1  0  0  0  0
  7  8  1  0  0  0  0
  3  4  1  0  0  0  0
  3  5  1  0  0  0  0
  3  6  1  0  0  0  0
 31 34  1  0  0  0  0
 31 35  1  0  0  0  0
 31 36  1  0  0  0  0
 21 24  1  0  0  0  0
 21 25  1  0  0  0  0
 21 26  1  0  0  0  0
 11 14  1  0  0  0  0
 11 15  1  0  0  0  0
 11 16  1  0  0  0  0
 38 40  1  0  0  0  0
 38 41  1  0  0  0  0
 38 42  1  0  0  0  0
 28 33  1  0  0  0  0
 18 23  1  0  0  0  0
  8 13  1  0  0  0  0
 37 39  1  0  0  0  0
  7 12  1  0  0  0  0
 27 32  1  0  0  0  0
 17 22  1  0  0  0  0
M  END
$$$$

  -OEChem-05262214473D

 42 41  0     1  0  0  0  0  0999 V2000
   -5.7851   -0.9580    0.6237 C   0  0  0  0  0  0  0  0  0  0  0  0
   -6.2213    0.1296    0.2652 O   0  0  0  0  0  0  0  0  0  0  0  0
   -6.7088   -2.1270    0.7168 C   0  0  0  0  0  0  0  0  0  0  0  0
   -7.1713   -2.2193    1.7126 H   0  0  0  0  0  0  0  0  0  0  0  0
   -7.5511   -2.0547    0.0101 H   0  0  0  0  0  0  0  0  0  0  0  0
   -6.2485   -3.1083    0.5191 H   0  0  0  0  0  0  0  0  0  0  0  0
   -4.4733   -1.2411    0.9668 N   0  0  0  0  0  0  0  0  0  0  0  0
   -3.4203   -0.2603    0.9449 C   0  0  2  0  0  0  0  0  0  0  0  0
   -2.1242   -0.9699    0.5759 C   0  0  0  0  0  0  0  0  0  0  0  0
   -1.8694   -2.1225    0.9189 O   0  0  0  0  0  0  0  0  0  0  0  0
   -3.2916    0.4435    2.2868 C   0  0  0  0  0  0  0  0  0  0  0  0
   -4.2421   -2.1920    1.2489 H   0  0  0  0  0  0  0  0  0  0  0  0
   -3.6772    0.4622    0.1625 H   0  0  0  0  0  0  0  0  0  0  0  0
   -3.0345   -0.2644    3.0832 H   0  0  0  0  0  0  0  0  0  0  0  0
   -2.5093    1.2092    2.2599 H   0  0  0  0  0  0  0  0  0  0  0  0
   -4.2338    0.9283    2.5645 H   0  0  0  0  0  0  0  0  0  0  0  0
   -1.2626   -0.1515   -0.1463 N   0  0  0  0  0  0  0  0  0  0  0  0
    0.0431   -0.5785   -0.5755 C   0  0  2  0  0  0  0  0  0  0  0  0
    1.0756    0.0935    0.3200 C   0  0  0  0  0  0  0  0  0  0  0  0
    0.9463    0.1882    1.5388 O   0  0  0  0  0  0  0  0  0  0  0  0
    0.2851   -0.2346   -2.0370 C   0  0  0  0  0  0  0  0  0  0  0  0
   -1.5766    0.7776   -0.4197 H   0  0  0  0  0  0  0  0  0  0  0  0
    0.0844   -1.6636   -0.4310 H   0  0  0  0  0  0  0  0  0  0  0  0
    0.2475    0.8485   -2.2013 H   0  0  0  0  0  0  0  0  0  0  0  0
    1.2676   -0.5854   -2.3697 H   0  0  0  0  0  0  0  0  0  0  0  0
   -0.4759   -0.6944   -2.6767 H   0  0  0  0  0  0  0  0  0  0  0  0
    2.1415    0.6156   -0.4046 N   0  0  0  0  0  0  0  0  0  0  0  0
    3.2255    1.3353    0.2104 C   0  0  2  0  0  0  0  0  0  0  0  0
    3.7133    2.3860   -0.7783 C   0  0  0  0  0  0  0  0  0  0  0  0
    3.7172    2.2114   -1.9951 O   0  0  0  0  0  0  0  0  0  0  0  0
    4.3552    0.3989    0.6100 C   0  0  0  0  0  0  0  0  0  0  0  0
    2.1832    0.4531   -1.4088 H   0  0  0  0  0  0  0  0  0  0  0  0
    2.8138    1.8303    1.0968 H   0  0  0  0  0  0  0  0  0  0  0  0
    4.7802   -0.1061   -0.2651 H   0  0  0  0  0  0  0  0  0  0  0  0
    5.1666    0.9440    1.1034 H   0  0  0  0  0  0  0  0  0  0  0  0
    3.9959   -0.3740    1.2979 H   0  0  0  0  0  0  0  0  0  0  0  0
    4.1838    3.5249   -0.1398 N   0  0  0  0  0  0  0  0  0  0  0  0
    4.7395    4.6480   -0.8580 C   0  0  0  0  0  0  0  0  0  0  0  0
    4.1052    3.6001    0.8701 H   0  0  0  0  0  0  0  0  0  0  0  0
    5.8304    4.5302   -0.9366 H   0  0  0  0  0  0  0  0  0  0  0  0
    4.3019    4.6911   -1.8663 H   0  0  0  0  0  0  0  0  0  0  0  0
    4.5093    5.5784   -0.3183 H   0  0  0  0  0  0  0  0  0  0  0  0
  1  3  1  0  0  0  0
  1  7  1  0  0  0  0
  1  2  2  0  0  0  0
 28 29  1  0  0  0  0
 29 37  1  0  0  0  0
 29 30  2  0  0  0  0
 18 19  1  0  0  0  0
 19 27  1  0  0  0  0
 19 20  2  0  0  0  0
  8  9  1  0  0  0  0
  9 17  1  0  0  0  0
  9 10  2  0  0  0  0
 28 31  1  0  0  0  0
 18 21  1  0  0  0  0
  8 11  1  0  0  0  0
 37 38  1  0  0  0  0
 27 28  1  0  0  0  0
 17 18  1  0  0  0  0
  7  8  1  0  0  0  0
  3  4  1  0  0  0  0
  3  5  1  0  0  0  0
  3  6  1  0  0  0  0
 31 34  1  0  0  0  0
 31 35  1  0  0  0  0
 31 36  1  0  0  0  0
 21 24  1  0  0  0  0
 21 25  1  0  0  0  0
 21 26  1  0  0  0  0
 11 14  1  0  0  0  0
 11 15  1  0  0  0  0
 11 16  1  0  0  0  0
 38 40  1  0  0  0  0
 38 41  1  0  0  0  0
 38 42  1  0  0  0  0
 28 33  1  0  0  0  0
 18 23  1  0  0  0  0
  8 13  1  0  0  0  0
 37 39  1  0  0  0  0
  7 12  1  0  0  0  0
 27 32  1  0  0  0  0
 17 22  1  0  0  0  0
M  END
$$$$

  -OEChem-05262214473D

 42 41  0     1  0  0  0  0  0999 V2000
   -5.7851   -0.9580    0.6237 C   0  0  0  0  0  0  0  0  0  0  0  0
   -6.2213    0.1296    0.2652 O   0  0  0  0  0  0  0  0  0  0  0  0
   -6.7088   -2.1270    0.7168 C   0  0  0  0  0  0  0  0  0  0  0  0
   -7.1713   -2.2193    1.7126 H   0  0  0  0  0  0  0  0  0  0  0  0
   -7.5511   -2.0547    0.0101 H   0  0  0  0  0  0  0  0  0  0  0  0
   -6.2485   -3.1083    0.5191 H   0  0  0  0  0  0  0  0  0  0  0  0
   -4.4733   -1.2411    0.9668 N   0  0  0  0  0  0  0  0  0  0  0  0
   -3.4203   -0.2603    0.9449 C   0  0  2  0  0  0  0  0  0  0  0  0
   -2.1242   -0.9699    0.5759 C   0  0  0  0  0  0  0  0  0  0  0  0
   -1.8694   -2.1225    0.9189 O   0  0  0  0  0  0  0  0  0  0  0  0
   -3.2916    0.4435    2.2868 C   0  0  0  0  0  0  0  0  0  0  0  0
   -4.2421   -2.1920    1.2489 H   0  0  0  0  0  0  0  0  0  0  0  0
   -3.6772    0.4622    0.1625 H   0  0  0  0  0  0  0  0  0  0  0  0
   -3.0345   -0.2644    3.0832 H   0  0  0  0  0  0  0  0  0  0  0  0
   -2.5093    1.2092    2.2599 H   0  0  0  0  0  0  0  0  0  0  0  0
   -4.2338    0.9283    2.5645 H   0  0  0  0  0  0  0  0  0  0  0  0
   -1.2626   -0.1515   -0.1463 N   0  0  0  0  0  0  0  0  0  0  0  0
    0.0431   -0.5785   -0.5755 C   0  0  2  0  0  0  0  0  0  0  0  0
    1.0756    0.0935    0.3200 C   0  0  0  0  0  0  0  0  0  0  0  0
    1.0910   -0.0385    1.5421 O   0  0  0  0  0  0  0  0  0  0  0  0
    0.2851   -0.2346   -2.0370 C   0  0  0  0  0  0  0  0  0  0  0  0
   -1.5766    0.7776   -0.4197 H   0  0  0  0  0  0  0  0  0  0  0  0
    0.0844   -1.6636   -0.4310 H   0  0  0  0  0  0  0  0  0  0  0  0
    0.2475    0.8485   -2.2013 H   0  0  0  0  0  0  0  0  0  0  0  0
    1.2676   -0.5854   -2.3697 H   0  0  0  0  0  0  0  0  0  0  0  0
   -0.4759   -0.6944   -2.6767 H   0  0  0  0  0  0  0  0  0  0  0  0
    1.9551    0.8951   -0.3995 N   0  0  0  0  0  0  0  0  0  0  0  0
    2.9956    1.6686    0.2254 C   0  0  2  0  0  0  0  0  0  0  0  0
    3.1988    2.9344   -0.5967 C   0  0  0  0  0  0  0  0  0  0  0  0
    3.0720    2.9680   -1.8189 O   0  0  0  0  0  0  0  0  0  0  0  0
    4.2885    0.8748    0.3298 C   0  0  0  0  0  0  0  0  0  0  0  0
    1.8908    0.9111   -1.4154 H   0  0  0  0  0  0  0  0  0  0  0  0
    2.6345    1.9355    1.2247 H   0  0  0  0  0  0  0  0  0  0  0  0
    4.6656    0.5984   -0.6616 H   0  0  0  0  0  0  0  0  0  0  0  0
    5.0706    1.4545    0.8311 H   0  0  0  0  0  0  0  0  0  0  0  0
    4.1334   -0.0499    0.8961 H   0  0  0  0  0  0  0  0  0  0  0  0
    3.5806    4.0121    0.1901 N   0  0  0  0  0  0  0  0  0  0  0  0
    3.8748    5.3142   -0.3610 C   0  0  0  0  0  0  0  0  0  0  0  0
    3.6218    3.9042    1.1993 H   0  0  0  0  0  0  0  0  0  0  0  0
    4.9523    5.3899   -0.5693 H   0  0  0  0  0  0  0  0  0  0  0  0
    3.3103    5.4531   -1.2948 H   0  0  0  0  0  0  0  0  0  0  0  0
    3.5857    6.0918    0.3614 H   0  0  0  0  0  0  0  0  0  0  0  0
  1  3  1  0  0  0  0
  1  7  1  0  0  0  0
  1  2  2  0  0  0  0
 28 29  1  0  0  0  0
 29 37  1  0  0  0  0
 29 30  2  0  0  0  0
 18 19  1  0  0  0  0
 19 27  1  0  0  0  0
 19 20  2  0  0  0  0
  8  9  1  0  0  0  0
  9 17  1  0  0  0  0
  9 10  2  0  0  0  0
 28 31  1  0  0  0  0
 18 21  1  0  0  0  0
  8 11  1  0  0  0  0
 37 38  1  0  0  0  0
 27 28  1  0  0  0  0
 17 18  1  0  0  0  0
  7  8  1  0  0  0  0
  3  4  1  0  0  0  0
  3  5  1  0  0  0  0
  3  6  1  0  0  0  0
 31 34  1  0  0  0  0
 31 35  1  0  0  0  0
 31 36  1  0  0  0  0
 21 24  1  0  0  0  0
 21 25  1  0  0  0  0
 21 26  1  0  0  0  0
 11 14  1  0  0  0  0
 11 15  1  0  0  0  0
 11 16  1  0  0  0  0
 38 40  1  0  0  0  0
 38 41  1  0  0  0  0
 38 42  1  0  0  0  0
 28 33  1  0  0  0  0
 18 23  1  0  0  0  0
  8 13  1  0  0  0  0
 37 39  1  0  0  0  0
  7 12  1  0  0  0  0
 27 32  1  0  0  0  0
 17 22  1  0  0  0  0
M  END
$$$$

  -OEChem-05262214473D

 42 41  0     1  0  0  0  0  0999 V2000
   -5.7851   -0.9580    0.6237 C   0  0  0  0  0  0  0  0  0  0  0  0
   -6.2213    0.1296    0.2652 O   0  0  0  0  0  0  0  0  0  0  0  0
   -6.7088   -2.1270    0.7168 C   0  0  0  0  0  0  0  0  0  0  0  0
   -7.1713   -2.2193    1.7126 H   0  0  0  0  0  0  0  0  0  0  0  0
   -7.5511   -2.0547    0.0101 H   0  0  0  0  0  0  0  0  0  0  0  0
   -6.2485   -3.1083    0.5191 H   0  0  0  0  0  0  0  0  0  0  0  0
   -4.4733   -1.2411    0.9668 N   0  0  0  0  0  0  0  0  0  0  0  0
   -3.4203   -0.2603    0.9449 C   0  0  2  0  0  0  0  0  0  0  0  0
   -2.1242   -0.9699    0.5759 C   0  0  0  0  0  0  0  0  0  0  0  0
   -1.8694   -2.1225    0.9189 O   0  0  0  0  0  0  0  0  0  0  0  0
   -3.2916    0.4435    2.2868 C   0  0  0  0  0  0  0  0  0  0  0  0
   -4.2421   -2.1920    1.2489 H   0  0  0  0  0  0  0  0  0  0  0  0
   -3.6772    0.4622    0.1625 H   0  0  0  0  0  0  0  0  0  0  0  0
   -3.0345   -0.2644    3.0832 H   0  0  0  0  0  0  0  0  0  0  0  0
   -2.5093    1.2092    2.2599 H   0  0  0  0  0  0  0  0  0  0  0  0
   -4.2338    0.9283    2.5645 H   0  0  0  0  0  0  0  0  0  0  0  0
   -1.2626   -0.1515   -0.1463 N   0  0  0  0  0  0  0  0  0  0  0  0
    0.0431   -0.5785   -0.5755 C   0  0  2  0  0  0  0  0  0  0  0  0
    1.0756    0.0935    0.3200 C   0  0  0  0  0  0  0  0  0  0  0  0
    1.2656   -0.2360    1.4889 O   0  0  0  0  0  0  0  0  0  0  0  0
    0.2851   -0.2346   -2.0370 C   0  0  0  0  0  0  0  0  0  0  0  0
   -1.5766    0.7776   -0.4197 H   0  0  0  0  0  0  0  0  0  0  0  0
    0.0844   -1.6636   -0.4310 H   0  0  0  0  0  0  0  0  0  0  0  0
    0.2475    0.8485   -2.2013 H   0  0  0  0  0  0  0  0  0  0  0  0
    1.2676   -0.5854   -2.3697 H   0  0  0  0  0  0  0  0  0  0  0  0
   -0.4759   -0.6944   -2.6767 H   0  0  0  0  0  0  0  0  0  0  0  0
    1.7332    1.1358   -0.3242 N   0  0  0  0  0  0  0  0  0  0  0  0
    2.7245    1.9529    0.3247 C   0  0  2  0  0  0  0  0  0  0  0  0
    2.6392    3.3540   -0.2663 C   0  0  0  0  0  0  0  0  0  0  0  0
    2.3538    3.5697   -1.4424 O   0  0  0  0  0  0  0  0  0  0  0  0
    4.1196    1.3734    0.1503 C   0  0  0  0  0  0  0  0  0  0  0  0
    1.5379    1.3102   -1.3081 H   0  0  0  0  0  0  0  0  0  0  0  0
    2.4598    1.9873    1.3871 H   0  0  0  0  0  0  0  0  0  0  0  0
    4.4024    1.3310   -0.9079 H   0  0  0  0  0  0  0  0  0  0  0  0
    4.8691    1.9807    0.6686 H   0  0  0  0  0  0  0  0  0  0  0  0
    4.1711    0.3546    0.5492 H   0  0  0  0  0  0  0  0  0  0  0  0
    2.9614    4.3329    0.6632 N   0  0  0  0  0  0  0  0  0  0  0  0
    2.9950    5.7390    0.3347 C   0  0  0  0  0  0  0  0  0  0  0  0
    3.1461    4.0666    1.6258 H   0  0  0  0  0  0  0  0  0  0  0  0
    4.0152    6.0222    0.0366 H   0  0  0  0  0  0  0  0  0  0  0  0
    2.3018    5.9380   -0.4959 H   0  0  0  0  0  0  0  0  0  0  0  0
    2.6930    6.3279    1.2134 H   0  0  0  0  0  0  0  0  0  0  0  0
  1  3  1  0  0  0  0
  1  7  1  0  0  0  0
  1  2  2  0  0  0  0
 28 29  1  0  0  0  0
 29 37  1  0  0  0  0
 29 30  2  0  0  0  0
 18 19  1  0  0  0  0
 19 27  1  0  0  0  0
 19 20  2  0  0  0  0
  8  9  1  0  0  0  0
  9 17  1  0  0  0  0
  9 10  2  0  0  0  0
 28 31  1  0  0  0  0
 18 21  1  0  0  0  0
  8 11  1  0  0  0  0
 37 38  1  0  0  0  0
 27 28  1  0  0  0  0
 17 18  1  0  0  0  0
  7  8  1  0  0  0  0
  3  4  1  0  0  0  0
  3  5  1  0  0  0  0
  3  6  1  0  0  0  0
 31 34  1  0  0  0  0
 31 35  1  0  0  0  0
 31 36  1  0  0  0  0
 21 24  1  0  0  0  0
 21 25  1  0  0  0  0
 21 26  1  0  0  0  0
 11 14  1  0  0  0  0
 11 15  1  0  0  0  0
 11 16  1  0  0  0  0
 38 40  1  0  0  0  0
 38 41  1  0  0  0  0
 38 42  1  0  0  0  0
 28 33  1  0  0  0  0
 18 23  1  0  0  0  0
  8 13  1  0  0  0  0
 37 39  1  0  0  0  0
  7 12  1  0  0  0  0
 27 32  1  0  0  0  0
 17 22  1  0  0  0  0
M  END
$$$$

  -OEChem-05262214473D

 42 41  0     1  0  0  0  0  0999 V2000
   -5.7851   -0.9580    0.6237 C   0  0  0  0  0  0  0  0  0  0  0  0
   -6.2213    0.1296    0.2652 O   0  0  0  0  0  0  0  0  0  0  0  0
   -6.7088   -2.1270    0.7168 C   0  0  0  0  0  0  0  0  0  0  0  0
   -7.1713   -2.2193    1.7126 H   0  0  0  0  0  0  0  0  0  0  0  0
   -7.5511   -2.0547    0.0101 H   0  0  0  0  0  0  0  0  0  0  0  0
   -6.2485   -3.1083    0.5191 H   0  0  0  0  0  0  0  0  0  0  0  0
   -4.4733   -1.2411    0.9668 N   0  0  0  0  0  0  0  0  0  0  0  0
   -3.4203   -0.2603    0.9449 C   0  0  2  0  0  0  0  0  0  0  0  0
   -2.1242   -0.9699    0.5759 C   0  0  0  0  0  0  0  0  0  0  0  0
   -1.8694   -2.1225    0.9189 O   0  0  0  0  0  0  0  0  0  0  0  0
   -3.2916    0.4435    2.2868 C   0  0  0  0  0  0  0  0  0  0  0  0
   -4.2421   -2.1920    1.2489 H   0  0  0  0  0  0  0  0  0  0  0  0
   -3.6772    0.4622    0.1625 H   0  0  0  0  0  0  0  0  0  0  0  0
   -3.0345   -0.2644    3.0832 H   0  0  0  0  0  0  0  0  0  0  0  0
   -2.5093    1.2092    2.2599 H   0  0  0  0  0  0  0  0  0  0  0  0
   -4.2338    0.9283    2.5645 H   0  0  0  0  0  0  0  0  0  0  0  0
   -1.2626   -0.1515   -0.1463 N   0  0  0  0  0  0  0  0  0  0  0  0
    0.0431   -0.5785   -0.5755 C   0  0  2  0  0  0  0  0  0  0  0  0
    1.0756    0.0935    0.3200 C   0  0  0  0  0  0  0  0  0  0  0  0
    1.4583   -0.3909    1.3830 O   0  0  0  0  0  0  0  0  0  0  0  0
    0.2851   -0.2346   -2.0370 C   0  0  0  0  0  0  0  0  0  0  0  0
   -1.5766    0.7776   -0.4197 H   0  0  0  0  0  0  0  0  0  0  0  0
    0.0844   -1.6636   -0.4310 H   0  0  0  0  0  0  0  0  0  0  0  0
    0.2475    0.8485   -2.2013 H   0  0  0  0  0  0  0  0  0  0  0  0
    1.2676   -0.5854   -2.3697 H   0  0  0  0  0  0  0  0  0  0  0  0
   -0.4759   -0.6944   -2.6767 H   0  0  0  0  0  0  0  0  0  0  0  0
    1.4908    1.3213   -0.1839 N   0  0  0  0  0  0  0  0  0  0  0  0
    2.4307    2.1688    0.5013 C   0  0  2  0  0  0  0  0  0  0  0  0
    2.0725    3.6161    0.1903 C   0  0  0  0  0  0  0  0  0  0  0  0
    1.6115    3.9755   -0.8910 O   0  0  0  0  0  0  0  0  0  0  0  0
    3.8602    1.8609    0.0837 C   0  0  0  0  0  0  0  0  0  0  0  0
    1.1486    1.6232   -1.0941 H   0  0  0  0  0  0  0  0  0  0  0  0
    2.3018    1.9823    1.5731 H   0  0  0  0  0  0  0  0  0  0  0  0
    4.0085    2.0418   -0.9871 H   0  0  0  0  0  0  0  0  0  0  0  0
    4.5758    2.4868    0.6269 H   0  0  0  0  0  0  0  0  0  0  0  0
    4.1063    0.8119    0.2807 H   0  0  0  0  0  0  0  0  0  0  0  0
    2.3686    4.4657    1.2471 N   0  0  0  0  0  0  0  0  0  0  0  0
    2.1599    5.8933    1.1817 C   0  0  0  0  0  0  0  0  0  0  0  0
    2.7107    4.0762    2.1206 H   0  0  0  0  0  0  0  0  0  0  0  0
    3.0830    6.3841    0.8398 H   0  0  0  0  0  0  0  0  0  0  0  0
    1.3451    6.1127    0.4761 H   0  0  0  0  0  0  0  0  0  0  0  0
    1.8922    6.2706    2.1797 H   0  0  0  0  0  0  0  0  0  0  0  0
  1  3  1  0  0  0  0
  1  7  1  0  0  0  0
  1  2  2  0  0  0  0
 28 29  1  0  0  0  0
 29 37  1  0  0  0  0
 29 30  2  0  0  0  0
 18 19  1  0  0  0  0
 19 27  1  0  0  0  0
 19 20  2  0  0  0  0
  8  9  1  0  0  0  0
  9 17  1  0  0  0  0
  9 10  2  0  0  0  0
 28 31  1  0  0  0  0
 18 21  1  0  0  0  0
  8 11  1  0  0  0  0
 37 38  1  0  0  0  0
 27 28  1  0  0  0  0
 17 18  1  0  0  0  0
  7  8  1  0  0  0  0
  3  4  1  0  0  0  0
  3  5  1  0  0  0  0
  3  6  1  0  0  0  0
 31 34  1  0  0  0  0
 31 35  1  0  0  0  0
 31 36  1  0  0  0  0
 21 24  1  0  0  0  0
 21 25  1  0  0  0  0
 21 26  1  0  0  0  0
 11 14  1  0  0  0  0
 11 15  1  0  0  0  0
 11 16  1  0  0  0  0
 38 40  1  0  0  0  0
 38 41  1  0  0  0  0
 38 42  1  0  0  0  0
 28 33  1  0  0  0  0
 18 23  1  0  0  0  0
  8 13  1  0  0  0  0
 37 39  1  0  0  0  0
  7 12  1  0  0  0  0
 27 32  1  0  0  0  0
 17 22  1  0  0  0  0
M  END
$$$$

  -OEChem-05262214473D

 42 41  0     1  0  0  0  0  0999 V2000
   -5.7851   -0.9580    0.6237 C   0  0  0  0  0  0  0  0  0  0  0  0
   -6.2213    0.1296    0.2652 O   0  0  0  0  0  0  0  0  0  0  0  0
   -6.7088   -2.1270    0.7168 C   0  0  0  0  0  0  0  0  0  0  0  0
   -7.1713   -2.2193    1.7126 H   0  0  0  0  0  0  0  0  0  0  0  0
   -7.5511   -2.0547    0.0101 H   0  0  0  0  0  0  0  0  0  0  0  0
   -6.2485   -3.1083    0.5191 H   0  0  0  0  0  0  0  0  0  0  0  0
   -4.4733   -1.2411    0.9668 N   0  0  0  0  0  0  0  0  0  0  0  0
   -3.4203   -0.2603    0.9449 C   0  0  2  0  0  0  0  0  0  0  0  0
   -2.1242   -0.9699    0.5759 C   0  0  0  0  0  0  0  0  0  0  0  0
   -1.8694   -2.1225    0.9189 O   0  0  0  0  0  0  0  0  0  0  0  0
   -3.2916    0.4435    2.2868 C   0  0  0  0  0  0  0  0  0  0  0  0
   -4.2421   -2.1920    1.2489 H   0  0  0  0  0  0  0  0  0  0  0  0
   -3.6772    0.4622    0.1625 H   0  0  0  0  0  0  0  0  0  0  0  0
   -3.0345   -0.2644    3.0832 H   0  0  0  0  0  0  0  0  0  0  0  0
   -2.5093    1.2092    2.2599 H   0  0  0  0  0  0  0  0  0  0  0  0
   -4.2338    0.9283    2.5645 H   0  0  0  0  0  0  0  0  0  0  0  0
   -1.2626   -0.1515   -0.1463 N   0  0  0  0  0  0  0  0  0  0  0  0
    0.0431   -0.5785   -0.5755 C   0  0  2  0  0  0  0  0  0  0  0  0
    1.0756    0.0935    0.3200 C   0  0  0  0  0  0  0  0  0  0  0  0
    1.6558   -0.4925    1.2316 O   0  0  0  0  0  0  0  0  0  0  0  0
    0.2851   -0.2346   -2.0370 C   0  0  0  0  0  0  0  0  0  0  0  0
   -1.5766    0.7776   -0.4197 H   0  0  0  0  0  0  0  0  0  0  0  0
    0.0844   -1.6636   -0.4310 H   0  0  0  0  0  0  0  0  0  0  0  0
    0.2475    0.8485   -2.2013 H   0  0  0  0  0  0  0  0  0  0  0  0
    1.2676   -0.5854   -2.3697 H   0  0  0  0  0  0  0  0  0  0  0  0
   -0.4759   -0.6944   -2.6767 H   0  0  0  0  0  0  0  0  0  0  0  0
    1.2444    1.4390    0.0118 N   0  0  0  0  0  0  0  0  0  0  0  0
    2.1342    2.3017    0.7435 C   0  0  2  0  0  0  0  0  0  0  0  0
    1.5374    3.7029    0.7421 C   0  0  0  0  0  0  0  0  0  0  0  0
    0.8956    4.1578   -0.2025 O   0  0  0  0  0  0  0  0  0  0  0  0
    3.5277    2.3039    0.1346 C   0  0  0  0  0  0  0  0  0  0  0  0
    0.7494    1.8287   -0.7880 H   0  0  0  0  0  0  0  0  0  0  0  0
    2.1711    1.9208    1.7699 H   0  0  0  0  0  0  0  0  0  0  0  0
    3.5108    2.6824   -0.8940 H   0  0  0  0  0  0  0  0  0  0  0  0
    4.2107    2.9383    0.7090 H   0  0  0  0  0  0  0  0  0  0  0  0
    3.9435    1.2908    0.1091 H   0  0  0  0  0  0  0  0  0  0  0  0
    1.8424    4.4012    1.9021 N   0  0  0  0  0  0  0  0  0  0  0  0
    1.4265    5.7666    2.1223 C   0  0  0  0  0  0  0  0  0  0  0  0
    2.3452    3.9324    2.6499 H   0  0  0  0  0  0  0  0  0  0  0  0
    2.2192    6.4508    1.7856 H   0  0  0  0  0  0  0  0  0  0  0  0
    0.5054    5.9653    1.5548 H   0  0  0  0  0  0  0  0  0  0  0  0
    1.2376    5.9239    3.1945 H   0  0  0  0  0  0  0  0  0  0  0  0
  1  3  1  0  0  0  0
  1  7  1  0  0  0  0
  1  2  2  0  0  0  0
 28 29  1  0  0  0  0
 29 37  1  0  0  0  0
 29 30  2  0  0  0  0
 18 19  1  0  0  0  0
 19 27  1  0  0  0  0
 19 20  2  0  0  0  0
  8  9  1  0  0  0  0
  9 17  1  0  0  0  0
  9 10  2  0  0  0  0
 28 31  1  0  0  0  0
 18 21  1  0  0  0  0
  8 11  1  0  0  0  0
 37 38  1  0  0  0  0
 27 28  1  0  0  0  0
 17 18  1  0  0  0  0
  7  8  1  0  0  0  0
  3  4  1  0  0  0  0
  3  5  1  0  0  0  0
  3  6  1  0  0  0  0
 31 34  1  0  0  0  0
 31 35  1  0  0  0  0
 31 36  1  0  0  0  0
 21 24  1  0  0  0  0
 21 25  1  0  0  0  0
 21 26  1  0  0  0  0
 11 14  1  0  0  0  0
 11 15  1  0  0  0  0
 11 16  1  0  0  0  0
 38 40  1  0  0  0  0
 38 41  1  0  0  0  0
 38 42  1  0  0  0  0
 28 33  1  0  0  0  0
 18 23  1  0  0  0  0
  8 13  1  0  0  0  0
 37 39  1  0  0  0  0
  7 12  1  0  0  0  0
 27 32  1  0  0  0  0
 17 22  1  0  0  0  0
M  END
$$$$

  -OEChem-05262214473D

 42 41  0     1  0  0  0  0  0999 V2000
   -5.7851   -0.9580    0.6237 C   0  0  0  0  0  0  0  0  0  0  0  0
   -6.2213    0.1296    0.2652 O   0  0  0  0  0  0  0  0  0  0  0  0
   -6.7088   -2.1270    0.7168 C   0  0  0  0  0  0  0  0  0  0  0  0
   -7.1713   -2.2193    1.7126 H   0  0  0  0  0  0  0  0  0  0  0  0
   -7.5511   -2.0547    0.0101 H   0  0  0  0  0  0  0  0  0  0  0  0
   -6.2485   -3.1083    0.5191 H   0  0  0  0  0  0  0  0  0  0  0  0
   -4.4733   -1.2411    0.9668 N   0  0  0  0  0  0  0  0  0  0  0  0
   -3.4203   -0.2603    0.9449 C   0  0  2  0  0  0  0  0  0  0  0  0
   -2.1242   -0.9699    0.5759 C   0  0  0  0  0  0  0  0  0  0  0  0
   -1.8694   -2.1225    0.9189 O   0  0  0  0  0  0  0  0  0  0  0  0
   -3.2916    0.4435    2.2868 C   0  0  0  0  0  0  0  0  0  0  0  0
   -4.2421   -2.1920    1.2489 H   0  0  0  0  0  0  0  0  0  0  0  0
   -3.6772    0.4622    0.1625 H   0  0  0  0  0  0  0  0  0  0  0  0
   -3.0345   -0.2644    3.0832 H   0  0  0  0  0  0  0  0  0  0  0  0
   -2.5093    1.2092    2.2599 H   0  0  0  0  0  0  0  0  0  0  0  0
   -4.2338    0.9283    2.5645 H   0  0  0  0  0  0  0  0  0  0  0  0
   -1.2626   -0.1515   -0.1463 N   0  0  0  0  0  0  0  0  0  0  0  0
    0.0431   -0.5785   -0.5755 C   0  0  2  0  0  0  0  0  0  0  0  0
    1.0756    0.0935    0.3200 C   0  0  0  0  0  0  0  0  0  0  0  0
    1.8448   -0.5341    1.0448 O   0  0  0  0  0  0  0  0  0  0  0  0
    0.2851   -0.2346   -2.0370 C   0  0  0  0  0  0  0  0  0  0  0  0
   -1.5766    0.7776   -0.4197 H   0  0  0  0  0  0  0  0  0  0  0  0
    0.0844   -1.6636   -0.4310 H   0  0  0  0  0  0  0  0  0  0  0  0
    0.2475    0.8485   -2.2013 H   0  0  0  0  0  0  0  0  0  0  0  0
    1.2676   -0.5854   -2.3697 H   0  0  0  0  0  0  0  0  0  0  0  0
   -0.4759   -0.6944   -2.6767 H   0  0  0  0  0  0  0  0  0  0  0  0
    1.0108    1.4808    0.2497 N   0  0  0  0  0  0  0  0  0  0  0  0
    1.8553    2.3425    1.0345 C   0  0  2  0  0  0  0  0  0  0  0  0
    1.0703    3.6085    1.3515 C   0  0  0  0  0  0  0  0  0  0  0  0
    0.2551    4.1041    0.5763 O   0  0  0  0  0  0  0  0  0  0  0  0
    3.1450    2.6723    0.2993 C   0  0  0  0  0  0  0  0  0  0  0  0
    0.3674    1.9127   -0.4107 H   0  0  0  0  0  0  0  0  0  0  0  0
    2.0767    1.8070    1.9641 H   0  0  0  0  0  0  0  0  0  0  0  0
    2.9432    3.2091   -0.6348 H   0  0  0  0  0  0  0  0  0  0  0  0
    3.7988    3.3046    0.9092 H   0  0  0  0  0  0  0  0  0  0  0  0
    3.6937    1.7588    0.0459 H   0  0  0  0  0  0  0  0  0  0  0  0
    1.4188    4.1439    2.5836 N   0  0  0  0  0  0  0  0  0  0  0  0
    0.8448    5.3676    3.0924 C   0  0  0  0  0  0  0  0  0  0  0  0
    2.0744    3.6450    3.1778 H   0  0  0  0  0  0  0  0  0  0  0  0
    1.4827    6.2179    2.8095 H   0  0  0  0  0  0  0  0  0  0  0  0
   -0.1601    5.5058    2.6668 H   0  0  0  0  0  0  0  0  0  0  0  0
    0.7741    5.3112    4.1887 H   0  0  0  0  0  0  0  0  0  0  0  0
  1  3  1  0  0  0  0
  1  7  1  0  0  0  0
  1  2  2  0  0  0  0
 28 29  1  0  0  0  0
 29 37  1  0  0  0  0
 29 30  2  0  0  0  0
 18 19  1  0  0  0  0
 19 27  1  0  0  0  0
 19 20  2  0  0  0  0
  8  9  1  0  0  0  0
  9 17  1  0  0  0  0
  9 10  2  0  0  0  0
 28 31  1  0  0  0  0
 18 21  1  0  0  0  0
  8 11  1  0  0  0  0
 37 38  1  0  0  0  0
 27 28  1  0  0  0  0
 17 18  1  0  0  0  0
  7  8  1  0  0  0  0
  3  4  1  0  0  0  0
  3  5  1  0  0  0  0
  3  6  1  0  0  0  0
 31 34  1  0  0  0  0
 31 35  1  0  0  0  0
 31 36  1  0  0  0  0
 21 24  1  0  0  0  0
 21 25  1  0  0  0  0
 21 26  1  0  0  0  0
 11 14  1  0  0  0  0
 11 15  1  0  0  0  0
 11 16  1  0  0  0  0
 38 40  1  0  0  0  0
 38 41  1  0  0  0  0
 38 42  1  0  0  0  0
 28 33  1  0  0  0  0
 18 23  1  0  0  0  0
  8 13  1  0  0  0  0
 37 39  1  0  0  0  0
  7 12  1  0  0  0  0
 27 32  1  0  0  0  0
 17 22  1  0  0  0  0
M  END
$$$$

  -OEChem-05262214473D

 42 41  0     1  0  0  0  0  0999 V2000
   -5.7851   -0.9580    0.6237 C   0  0  0  0  0  0  0  0  0  0  0  0
   -6.2213    0.1296    0.2652 O   0  0  0  0  0  0  0  0  0  0  0  0
   -6.7088   -2.1270    0.7168 C   0  0  0  0  0  0  0  0  0  0  0  0
   -7.1713   -2.2193    1.7126 H   0  0  0  0  0  0  0  0  0  0  0  0
   -7.5511   -2.0547    0.0101 H   0  0  0  0  0  0  0  0  0  0  0  0
   -6.2485   -3.1083    0.5191 H   0  0  0  0  0  0  0  0  0  0  0  0
   -4.4733   -1.2411    0.9668 N   0  0  0  0  0  0  0  0  0  0  0  0
   -3.4203   -0.2603    0.9449 C   0  0  2  0  0  0  0  0  0  0  0  0
   -2.1242   -0.9699    0.5759 C   0  0  0  0  0  0  0  0  0  0  0  0
   -1.8694   -2.1225    0.9189 O   0  0  0  0  0  0  0  0  0  0  0  0
   -3.2916    0.4435    2.2868 C   0  0  0  0  0  0  0  0  0  0  0  0
   -4.2421   -2.1920    1.2489 H   0  0  0  0  0  0  0  0  0  0  0  0
   -3.6772    0.4622    0.1625 H   0  0  0  0  0  0  0  0  0  0  0  0
   -3.0345   -0.2644    3.0832 H   0  0  0  0  0  0  0  0  0  0  0  0
   -2.5093    1.2092    2.2599 H   0  0  0  0  0  0  0  0  0  0  0  0
   -4.2338    0.9283    2.5645 H   0  0  0  0  0  0  0  0  0  0  0  0
   -1.2626   -0.1515   -0.1463 N   0  0  0  0  0  0  0  0  0  0  0  0
    0.0431   -0.5785   -0.5755 C   0  0  2  0  0  0  0  0  0  0  0  0
    1.0756    0.0935    0.3200 C   0  0  0  0  0  0  0  0  0  0  0  0
    2.0124   -0.5128    0.8356 O   0  0  0  0  0  0  0  0  0  0  0  0
    0.2851   -0.2346   -2.0370 C   0  0  0  0  0  0  0  0  0  0  0  0
   -1.5766    0.7776   -0.4197 H   0  0  0  0  0  0  0  0  0  0  0  0
    0.0844   -1.6636   -0.4310 H   0  0  0  0  0  0  0  0  0  0  0  0
    0.2475    0.8485   -2.2013 H   0  0  0  0  0  0  0  0  0  0  0  0
    1.2676   -0.5854   -2.3697 H   0  0  0  0  0  0  0  0  0  0  0  0
   -0.4759   -0.6944   -2.6767 H   0  0  0  0  0  0  0  0  0  0  0  0
    0.8061    1.4440    0.5134 N   0  0  0  0  0  0  0  0  0  0  0  0
    1.6129    2.2883    1.3546 C   0  0  2  0  0  0  0  0  0  0  0  0
    0.7031    3.3393    1.9768 C   0  0  0  0  0  0  0  0  0  0  0  0
   -0.2665    3.8181    1.3923 O   0  0  0  0  0  0  0  0  0  0  0  0
    2.7381    2.9410    0.5669 C   0  0  0  0  0  0  0  0  0  0  0  0
    0.0288    1.8695    0.0122 H   0  0  0  0  0  0  0  0  0  0  0  0
    2.0251    1.6486    2.1425 H   0  0  0  0  0  0  0  0  0  0  0  0
    2.3444    3.5859   -0.2272 H   0  0  0  0  0  0  0  0  0  0  0  0
    3.3680    3.5605    1.2139 H   0  0  0  0  0  0  0  0  0  0  0  0
    3.3740    2.1839    0.0955 H   0  0  0  0  0  0  0  0  0  0  0  0
    1.1266    3.7113    3.2451 N   0  0  0  0  0  0  0  0  0  0  0  0
    0.4544    4.7235    4.0258 C   0  0  0  0  0  0  0  0  0  0  0  0
    1.9169    3.2336    3.6681 H   0  0  0  0  0  0  0  0  0  0  0  0
    0.9237    5.7011    3.8417 H   0  0  0  0  0  0  0  0  0  0  0  0
   -0.6060    4.7656    3.7363 H   0  0  0  0  0  0  0  0  0  0  0  0
    0.5331    4.4745    5.0944 H   0  0  0  0  0  0  0  0  0  0  0  0
  1  3  1  0  0  0  0
  1  7  1  0  0  0  0
  1  2  2  0  0  0  0
 28 29  1  0  0  0  0
 29 37  1  0  0  0  0
 29 30  2  0  0  0  0
 18 19  1  0  0  0  0
 19 27  1  0  0  0  0
 19 20  2  0  0  0  0
  8  9  1  0  0  0  0
  9 17  1  0  0  0  0
  9 10  2  0  0  0  0
 28 31  1  0  0  0  0
 18 21  1  0  0  0  0
  8 11  1  0  0  0  0
 37 38  1  0  0  0  0
 27 28  1  0  0  0  0
 17 18  1  0  0  0  0
  7  8  1  0  0  0  0
  3  4  1  0  0  0  0
  3  5  1  0  0  0  0
  3  6  1  0  0  0  0
 31 34  1  0  0  0  0
 31 35  1  0  0  0  0
 31 36  1  0  0  0  0
 21 24  1  0  0  0  0
 21 25  1  0  0  0  0
 21 26  1  0  0  0  0
 11 14  1  0  0  0  0
 11 15  1  0  0  0  0
 11 16  1  0  0  0  0
 38 40  1  0  0  0  0
 38 41  1  0  0  0  0
 38 42  1  0  0  0  0
 28 33  1  0  0  0  0
 18 23  1  0  0  0  0
  8 13  1  0  0  0  0
 37 39  1  0  0  0  0
  7 12  1  0  0  0  0
 27 32  1  0  0  0  0
 17 22  1  0  0  0  0
M  END
$$$$

  -OEChem-05262214473D

 42 41  0     1  0  0  0  0  0999 V2000
   -5.7851   -0.9580    0.6237 C   0  0  0  0  0  0  0  0  0  0  0  0
   -6.2213    0.1296    0.2652 O   0  0  0  0  0  0  0  0  0  0  0  0
   -6.7088   -2.1270    0.7168 C   0  0  0  0  0  0  0  0  0  0  0  0
   -7.1713   -2.2193    1.7126 H   0  0  0  0  0  0  0  0  0  0  0  0
   -7.5511   -2.0547    0.0101 H   0  0  0  0  0  0  0  0  0  0  0  0
   -6.2485   -3.1083    0.5191 H   0  0  0  0  0  0  0  0  0  0  0  0
   -4.4733   -1.2411    0.9668 N   0  0  0  0  0  0  0  0  0  0  0  0
   -3.4203   -0.2603    0.9449 C   0  0  2  0  0  0  0  0  0  0  0  0
   -2.1242   -0.9699    0.5759 C   0  0  0  0  0  0  0  0  0  0  0  0
   -1.8694   -2.1225    0.9189 O   0  0  0  0  0  0  0  0  0  0  0  0
   -3.2916    0.4435    2.2868 C   0  0  0  0  0  0  0  0  0  0  0  0
   -4.2421   -2.1920    1.2489 H   0  0  0  0  0  0  0  0  0  0  0  0
   -3.6772    0.4622    0.1625 H   0  0  0  0  0  0  0  0  0  0  0  0
   -3.0345   -0.2644    3.0832 H   0  0  0  0  0  0  0  0  0  0  0  0
   -2.5093    1.2092    2.2599 H   0  0  0  0  0  0  0  0  0  0  0  0
   -4.2338    0.9283    2.5645 H   0  0  0  0  0  0  0  0  0  0  0  0
   -1.2626   -0.1515   -0.1463 N   0  0  0  0  0  0  0  0  0  0  0  0
    0.0431   -0.5785   -0.5755 C   0  0  2  0  0  0  0  0  0  0  0  0
    1.0756    0.0935    0.3200 C   0  0  0  0  0  0  0  0  0  0  0  0
    2.1471   -0.4299    0.6181 O   0  0  0  0  0  0  0  0  0  0  0  0
    0.2851   -0.2346   -2.0370 C   0  0  0  0  0  0  0  0  0  0  0  0
   -1.5766    0.7776   -0.4197 H   0  0  0  0  0  0  0  0  0  0  0  0
    0.0844   -1.6636   -0.4310 H   0  0  0  0  0  0  0  0  0  0  0  0
    0.2475    0.8485   -2.2013 H   0  0  0  0  0  0  0  0  0  0  0  0
    1.2676   -0.5854   -2.3697 H   0  0  0  0  0  0  0  0  0  0  0  0
   -0.4759   -0.6944   -2.6767 H   0  0  0  0  0  0  0  0  0  0  0  0
    0.6440    1.3309    0.7851 N   0  0  0  0  0  0  0  0  0  0  0  0
    1.4235    2.1430    1.6820 C   0  0  2  0  0  0  0  0  0  0  0  0
    0.4608    2.9137    2.5756 C   0  0  0  0  0  0  0  0  0  0  0  0
   -0.6337    3.3193    2.1899 O   0  0  0  0  0  0  0  0  0  0  0  0
    2.3347    3.0917    0.9189 C   0  0  0  0  0  0  0  0  0  0  0  0
   -0.2435    1.7021    0.4517 H   0  0  0  0  0  0  0  0  0  0  0  0
    2.0196    1.4564    2.2930 H   0  0  0  0  0  0  0  0  0  0  0  0
    1.7552    3.7873    0.3009 H   0  0  0  0  0  0  0  0  0  0  0  0
    2.9477    3.6886    1.6023 H   0  0  0  0  0  0  0  0  0  0  0  0
    3.0062    2.5372    0.2545 H   0  0  0  0  0  0  0  0  0  0  0  0
    0.9857    3.1329    3.8415 N   0  0  0  0  0  0  0  0  0  0  0  0
    0.2819    3.8781    4.8590 C   0  0  0  0  0  0  0  0  0  0  0  0
    1.8833    2.7261    4.0875 H   0  0  0  0  0  0  0  0  0  0  0  0
    0.5803    4.9358    4.8120 H   0  0  0  0  0  0  0  0  0  0  0  0
   -0.8019    3.7951    4.6904 H   0  0  0  0  0  0  0  0  0  0  0  0
    0.5310    3.4707    5.8500 H   0  0  0  0  0  0  0  0  0  0  0  0
  1  3  1  0  0  0  0
  1  7  1  0  0  0  0
  1  2  2  0  0  0  0
 28 29  1  0  0  0  0
 29 37  1  0  0  0  0
 29 30  2  0  0  0  0
 18 19  1  0  0  0  0
 19 27  1  0  0  0  0
 19 20  2  0  0  0  0
  8  9  1  0  0  0  0
  9 17  1  0  0  0  0
  9 10  2  0  0  0  0
 28 31  1  0  0  0  0
 18 21  1  0  0  0  0
  8 11  1  0  0  0  0
 37 38  1  0  0  0  0
 27 28  1  0  0  0  0
 17 18  1  0  0  0  0
  7  8  1  0  0  0  0
  3  4  1  0  0  0  0
  3  5  1  0  0  0  0
  3  6  1  0  0  0  0
 31 34  1  0  0  0  0
 31 35  1  0  0  0  0
 31 36  1  0  0  0  0
 21 24  1  0  0  0  0
 21 25  1  0  0  0  0
 21 26  1  0  0  0  0
 11 14  1  0  0  0  0
 11 15  1  0  0  0  0
 11 16  1  0  0  0  0
 38 40  1  0  0  0  0
 38 41  1  0  0  0  0
 38 42  1  0  0  0  0
 28 33  1  0  0  0  0
 18 23  1  0  0  0  0
  8 13  1  0  0  0  0
 37 39  1  0  0  0  0
  7 12  1  0  0  0  0
 27 32  1  0  0  0  0
 17 22  1  0  0  0  0
M  END
$$$$

  -OEChem-05262214473D

 42 41  0     1  0  0  0  0  0999 V2000
   -5.7851   -0.9580    0.6237 C   0  0  0  0  0  0  0  0  0  0  0  0
   -6.2213    0.1296    0.2652 O   0  0  0  0  0  0  0  0  0  0  0  0
   -6.7088   -2.1270    0.7168 C   0  0  0  0  0  0  0  0  0  0  0  0
   -7.1713   -2.2193    1.7126 H   0  0  0  0  0  0  0  0  0  0  0  0
   -7.5511   -2.0547    0.0101 H   0  0  0  0  0  0  0  0  0  0  0  0
   -6.2485   -3.1083    0.5191 H   0  0  0  0  0  0  0  0  0  0  0  0
   -4.4733   -1.2411    0.9668 N   0  0  0  0  0  0  0  0  0  0  0  0
   -3.4203   -0.2603    0.9449 C   0  0  2  0  0  0  0  0  0  0  0  0
   -2.1242   -0.9699    0.5759 C   0  0  0  0  0  0  0  0  0  0  0  0
   -1.8694   -2.1225    0.9189 O   0  0  0  0  0  0  0  0  0  0  0  0
   -3.2916    0.4435    2.2868 C   0  0  0  0  0  0  0  0  0  0  0  0
   -4.2421   -2.1920    1.2489 H   0  0  0  0  0  0  0  0  0  0  0  0
   -3.6772    0.4622    0.1625 H   0  0  0  0  0  0  0  0  0  0  0  0
   -3.0345   -0.2644    3.0832 H   0  0  0  0  0  0  0  0  0  0  0  0
   -2.5093    1.2092    2.2599 H   0  0  0  0  0  0  0  0  0  0  0  0
   -4.2338    0.9283    2.5645 H   0  0  0  0  0  0  0  0  0  0  0  0
   -1.2626   -0.1515   -0.1463 N   0  0  0  0  0  0  0  0  0  0  0  0
    0.0431   -0.5785   -0.5755 C   0  0  2  0  0  0  0  0  0  0  0  0
    1.0756    0.0935    0.3200 C   0  0  0  0  0  0  0  0  0  0  0  0
    2.2398   -0.2912    0.4072 O   0  0  0  0  0  0  0  0  0  0  0  0
    0.2851   -0.2346   -2.0370 C   0  0  0  0  0  0  0  0  0  0  0  0
   -1.5766    0.7776   -0.4197 H   0  0  0  0  0  0  0  0  0  0  0  0
    0.0844   -1.6636   -0.4310 H   0  0  0  0  0  0  0  0  0  0  0  0
    0.2475    0.8485   -2.2013 H   0  0  0  0  0  0  0  0  0  0  0  0
    1.2676   -0.5854   -2.3697 H   0  0  0  0  0  0  0  0  0  0  0  0
   -0.4759   -0.6944   -2.6767 H   0  0  0  0  0  0  0  0  0  0  0  0
    0.5357    1.1494    1.0462 N   0  0  0  0  0  0  0  0  0  0  0  0
    1.3001    1.9163    1.9943 C   0  0  2  0  0  0  0  0  0  0  0  0
    0.3598    2.3607    3.1069 C   0  0  0  0  0  0  0  0  0  0  0  0
   -0.8213    2.6417    2.9147 O   0  0  0  0  0  0  0  0  0  0  0  0
    1.9623    3.1141    1.3314 C   0  0  0  0  0  0  0  0  0  0  0  0
   -0.4308    1.4219    0.8779 H   0  0  0  0  0  0  0  0  0  0  0  0
    2.0608    1.2436    2.4052 H   0  0  0  0  0  0  0  0  0  0  0  0
    1.2158    3.7995    0.9138 H   0  0  0  0  0  0  0  0  0  0  0  0
    2.5665    3.6803    2.0479 H   0  0  0  0  0  0  0  0  0  0  0  0
    2.6153    2.7945    0.5121 H   0  0  0  0  0  0  0  0  0  0  0  0
    1.0057    2.4482    4.3322 N   0  0  0  0  0  0  0  0  0  0  0  0
    0.3391    2.8891    5.5352 C   0  0  0  0  0  0  0  0  0  0  0  0
    1.9760    2.1573    4.4075 H   0  0  0  0  0  0  0  0  0  0  0  0
    0.4758    3.9741    5.6541 H   0  0  0  0  0  0  0  0  0  0  0  0
   -0.7345    2.6605    5.4641 H   0  0  0  0  0  0  0  0  0  0  0  0
    0.7681    2.3682    6.4039 H   0  0  0  0  0  0  0  0  0  0  0  0
  1  3  1  0  0  0  0
  1  7  1  0  0  0  0
  1  2  2  0  0  0  0
 28 29  1  0  0  0  0
 29 37  1  0  0  0  0
 29 30  2  0  0  0  0
 18 19  1  0  0  0  0
 19 27  1  0  0  0  0
 19 20  2  0  0  0  0
  8  9  1  0  0  0  0
  9 17  1  0  0  0  0
  9 10  2  0  0  0  0
 28 31  1  0  0  0  0
 18 21  1  0  0  0  0
  8 11  1  0  0  0  0
 37 38  1  0  0  0  0
 27 28  1  0  0  0  0
 17 18  1  0  0  0  0
  7  8  1  0  0  0  0
  3  4  1  0  0  0  0
  3  5  1  0  0  0  0
  3  6  1  0  0  0  0
 31 34  1  0  0  0  0
 31 35  1  0  0  0  0
 31 36  1  0  0  0  0
 21 24  1  0  0  0  0
 21 25  1  0  0  0  0
 21 26  1  0  0  0  0
 11 14  1  0  0  0  0
 11 15  1  0  0  0  0
 11 16  1  0  0  0  0
 38 40  1  0  0  0  0
 38 41  1  0  0  0  0
 38 42  1  0  0  0  0
 28 33  1  0  0  0  0
 18 23  1  0  0  0  0
  8 13  1  0  0  0  0
 37 39  1  0  0  0  0
  7 12  1  0  0  0  0
 27 32  1  0  0  0  0
 17 22  1  0  0  0  0
M  END
$$$$

  -OEChem-05262214473D

 42 41  0     1  0  0  0  0  0999 V2000
   -5.7851   -0.9580    0.6237 C   0  0  0  0  0  0  0  0  0  0  0  0
   -6.2213    0.1296    0.2652 O   0  0  0  0  0  0  0  0  0  0  0  0
   -6.7088   -2.1270    0.7168 C   0  0  0  0  0  0  0  0  0  0  0  0
   -7.1713   -2.2193    1.7126 H   0  0  0  0  0  0  0  0  0  0  0  0
   -7.5511   -2.0547    0.0101 H   0  0  0  0  0  0  0  0  0  0  0  0
   -6.2485   -3.1083    0.5191 H   0  0  0  0  0  0  0  0  0  0  0  0
   -4.4733   -1.2411    0.9668 N   0  0  0  0  0  0  0  0  0  0  0  0
   -3.4203   -0.2603    0.9449 C   0  0  2  0  0  0  0  0  0  0  0  0
   -2.1242   -0.9699    0.5759 C   0  0  0  0  0  0  0  0  0  0  0  0
   -1.8694   -2.1225    0.9189 O   0  0  0  0  0  0  0  0  0  0  0  0
   -3.2916    0.4435    2.2868 C   0  0  0  0  0  0  0  0  0  0  0  0
   -4.2421   -2.1920    1.2489 H   0  0  0  0  0  0  0  0  0  0  0  0
   -3.6772    0.4622    0.1625 H   0  0  0  0  0  0  0  0  0  0  0  0
   -3.0345   -0.2644    3.0832 H   0  0  0  0  0  0  0  0  0  0  0  0
   -2.5093    1.2092    2.2599 H   0  0  0  0  0  0  0  0  0  0  0  0
   -4.2338    0.9283    2.5645 H   0  0  0  0  0  0  0  0  0  0  0  0
   -1.2626   -0.1515   -0.1463 N   0  0  0  0  0  0  0  0  0  0  0  0
    0.0431   -0.5785   -0.5755 C   0  0  2  0  0  0  0  0  0  0  0  0
    1.0756    0.0935    0.3200 C   0  0  0  0  0  0  0  0  0  0  0  0
    2.2842   -0.1062    0.2172 O   0  0  0  0  0  0  0  0  0  0  0  0
    0.2851   -0.2346   -2.0370 C   0  0  0  0  0  0  0  0  0  0  0  0
   -1.5766    0.7776   -0.4197 H   0  0  0  0  0  0  0  0  0  0  0  0
    0.0844   -1.6636   -0.4310 H   0  0  0  0  0  0  0  0  0  0  0  0
    0.2475    0.8485   -2.2013 H   0  0  0  0  0  0  0  0  0  0  0  0
    1.2676   -0.5854   -2.3697 H   0  0  0  0  0  0  0  0  0  0  0  0
   -0.4759   -0.6944   -2.6767 H   0  0  0  0  0  0  0  0  0  0  0  0
    0.4885    0.9117    1.2790 N   0  0  0  0  0  0  0  0  0  0  0  0
    1.2511    1.6238    2.2703 C   0  0  2  0  0  0  0  0  0  0  0  0
    0.4072    1.7179    3.5346 C   0  0  0  0  0  0  0  0  0  0  0  0
   -0.8167    1.8314    3.5173 O   0  0  0  0  0  0  0  0  0  0  0  0
    1.6463    3.0067    1.7764 C   0  0  0  0  0  0  0  0  0  0  0  0
   -0.5204    1.0478    1.2618 H   0  0  0  0  0  0  0  0  0  0  0  0
    2.1458    1.0246    2.4715 H   0  0  0  0  0  0  0  0  0  0  0  0
    0.7628    3.6216    1.5694 H   0  0  0  0  0  0  0  0  0  0  0  0
    2.2506    3.5361    2.5204 H   0  0  0  0  0  0  0  0  0  0  0  0
    2.2279    2.9384    0.8507 H   0  0  0  0  0  0  0  0  0  0  0  0
    1.1853    1.7037    4.6837 N   0  0  0  0  0  0  0  0  0  0  0  0
    0.6221    1.8238    6.0082 C   0  0  0  0  0  0  0  0  0  0  0  0
    2.1887    1.5659    4.6061 H   0  0  0  0  0  0  0  0  0  0  0  0
    0.6174    2.8814    6.3107 H   0  0  0  0  0  0  0  0  0  0  0  0
   -0.4084    1.4390    6.0046 H   0  0  0  0  0  0  0  0  0  0  0  0
    1.2282    1.2422    6.7184 H   0  0  0  0  0  0  0  0  0  0  0  0
  1  3  1  0  0  0  0
  1  7  1  0  0  0  0
  1  2  2  0  0  0  0
 28 29  1  0  0  0  0
 29 37  1  0  0  0  0
 29 30  2  0  0  0  0
 18 19  1  0  0  0  0
 19 27  1  0  0  0  0
 19 20  2  0  0  0  0
  8  9  1  0  0  0  0
  9 17  1  0  0  0  0
  9 10  2  0  0  0  0
 28 31  1  0  0  0  0
 18 21  1  0  0  0  0
  8 11  1  0  0  0  0
 37 38  1  0  0  0  0
 27 28  1  0  0  0  0
 17 18  1  0  0  0  0
  7  8  1  0  0  0  0
  3  4  1  0  0  0  0
  3  5  1  0  0  0  0
  3  6  1  0  0  0  0
 31 34  1  0  0  0  0
 31 35  1  0  0  0  0
 31 36  1  0  0  0  0
 21 24  1  0  0  0  0
 21 25  1  0  0  0  0
 21 26  1  0  0  0  0
 11 14  1  0  0  0  0
 11 15  1  0  0  0  0
 11 16  1  0  0  0  0
 38 40  1  0  0  0  0
 38 41  1  0  0  0  0
 38 42  1  0  0  0  0
 28 33  1  0  0  0  0
 18 23  1  0  0  0  0
  8 13  1  0  0  0  0
 37 39  1  0  0  0  0
  7 12  1  0  0  0  0
 27 32  1  0  0  0  0
 17 22  1  0  0  0  0
M  END
$$$$

  -OEChem-05262214473D

 42 41  0     1  0  0  0  0  0999 V2000
   -5.7851   -0.9580    0.6237 C   0  0  0  0  0  0  0  0  0  0  0  0
   -6.2213    0.1296    0.2652 O   0  0  0  0  0  0  0  0  0  0  0  0
   -6.7088   -2.1270    0.7168 C   0  0  0  0  0  0  0  0  0  0  0  0
   -7.1713   -2.2193    1.7126 H   0  0  0  0  0  0  0  0  0  0  0  0
   -7.5511   -2.0547    0.0101 H   0  0  0  0  0  0  0  0  0  0  0  0
   -6.2485   -3.1083    0.5191 H   0  0  0  0  0  0  0  0  0  0  0  0
   -4.4733   -1.2411    0.9668 N   0  0  0  0  0  0  0  0  0  0  0  0
   -3.4203   -0.2603    0.9449 C   0  0  2  0  0  0  0  0  0  0  0  0
   -2.1242   -0.9699    0.5759 C   0  0  0  0  0  0  0  0  0  0  0  0
   -1.8694   -2.1225    0.9189 O   0  0  0  0  0  0  0  0  0  0  0  0
   -3.2916    0.4435    2.2868 C   0  0  0  0  0  0  0  0  0  0  0  0
   -4.2421   -2.1920    1.2489 H   0  0  0  0  0  0  0  0  0  0  0  0
   -3.6772    0.4622    0.1625 H   0  0  0  0  0  0  0  0  0  0  0  0
   -3.0345   -0.2644    3.0832 H   0  0  0  0  0  0  0  0  0  0  0  0
   -2.5093    1.2092    2.2599 H   0  0  0  0  0  0  0  0  0  0  0  0
   -4.2338    0.9283    2.5645 H   0  0  0  0  0  0  0  0  0  0  0  0
   -1.2626   -0.1515   -0.1463 N   0  0  0  0  0  0  0  0  0  0  0  0
    0.0431   -0.5785   -0.5755 C   0  0  2  0  0  0  0  0  0  0  0  0
    1.0756    0.0935    0.3200 C   0  0  0  0  0  0  0  0  0  0  0  0
    2.2771    0.1127    0.0611 O   0  0  0  0  0  0  0  0  0  0  0  0
    0.2851   -0.2346   -2.0370 C   0  0  0  0  0  0  0  0  0  0  0  0
   -1.5766    0.7776   -0.4197 H   0  0  0  0  0  0  0  0  0  0  0  0
    0.0844   -1.6636   -0.4310 H   0  0  0  0  0  0  0  0  0  0  0  0
    0.2475    0.8485   -2.2013 H   0  0  0  0  0  0  0  0  0  0  0  0
    1.2676   -0.5854   -2.3697 H   0  0  0  0  0  0  0  0  0  0  0  0
   -0.4759   -0.6944   -2.6767 H   0  0  0  0  0  0  0  0  0  0  0  0
    0.5056    0.6342    1.4674 N   0  0  0  0  0  0  0  0  0  0  0  0
    1.2798    1.2853    2.4912 C   0  0  2  0  0  0  0  0  0  0  0  0
    0.5996    1.0292    3.8296 C   0  0  0  0  0  0  0  0  0  0  0  0
   -0.6201    0.9437    3.9567 O   0  0  0  0  0  0  0  0  0  0  0  0
    1.4082    2.7768    2.2234 C   0  0  0  0  0  0  0  0  0  0  0  0
   -0.5061    0.6056    1.5773 H   0  0  0  0  0  0  0  0  0  0  0  0
    2.2688    0.8143    2.4875 H   0  0  0  0  0  0  0  0  0  0  0  0
    0.4273    3.2659    2.2233 H   0  0  0  0  0  0  0  0  0  0  0  0
    2.0213    3.2658    2.9876 H   0  0  0  0  0  0  0  0  0  0  0  0
    1.8705    2.9590    1.2472 H   0  0  0  0  0  0  0  0  0  0  0  0
    1.5123    0.9503    4.8722 N   0  0  0  0  0  0  0  0  0  0  0  0
    1.1116    0.7549    6.2460 C   0  0  0  0  0  0  0  0  0  0  0  0
    2.5068    0.9920    4.6699 H   0  0  0  0  0  0  0  0  0  0  0  0
    0.9954    1.7323    6.7371 H   0  0  0  0  0  0  0  0  0  0  0  0
    0.1542    0.2140    6.2752 H   0  0  0  0  0  0  0  0  0  0  0  0
    1.8798    0.1693    6.7721 H   0  0  0  0  0  0  0  0  0  0  0  0
  1  3  1  0  0  0  0
  1  7  1  0  0  0  0
  1  2  2  0  0  0  0
 28 29  1  0  0  0  0
 29 37  1  0  0  0  0
 29 30  2  0  0  0  0
 18 19  1  0  0  0  0
 19 27  1  0  0  0  0
 19 20  2  0  0  0  0
  8  9  1  0  0  0  0
  9 17  1  0  0  0  0
  9 10  2  0  0  0  0
 28 31  1  0  0  0  0
 18 21  1  0  0  0  0
  8 11  1  0  0  0  0
 37 38  1  0  0  0  0
 27 28  1  0  0  0  0
 17 18  1  0  0  0  0
  7  8  1  0  0  0  0
  3  4  1  0  0  0  0
  3  5  1  0  0  0  0
  3  6  1  0  0  0  0
 31 34  1  0  0  0  0
 31 35  1  0  0  0  0
 31 36  1  0  0  0  0
 21 24  1  0  0  0  0
 21 25  1  0  0  0  0
 21 26  1  0  0  0  0
 11 14  1  0  0  0  0
 11 15  1  0  0  0  0
 11 16  1  0  0  0  0
 38 40  1  0  0  0  0
 38 41  1  0  0  0  0
 38 42  1  0  0  0  0
 28 33  1  0  0  0  0
 18 23  1  0  0  0  0
  8 13  1  0  0  0  0
 37 39  1  0  0  0  0
  7 12  1  0  0  0  0
 27 32  1  0  0  0  0
 17 22  1  0  0  0  0
M  END
$$$$

  -OEChem-05262214473D

 42 41  0     1  0  0  0  0  0999 V2000
   -5.7851   -0.9580    0.6237 C   0  0  0  0  0  0  0  0  0  0  0  0
   -6.2213    0.1296    0.2652 O   0  0  0  0  0  0  0  0  0  0  0  0
   -6.7088   -2.1270    0.7168 C   0  0  0  0  0  0  0  0  0  0  0  0
   -7.1713   -2.2193    1.7126 H   0  0  0  0  0  0  0  0  0  0  0  0
   -7.5511   -2.0547    0.0101 H   0  0  0  0  0  0  0  0  0  0  0  0
   -6.2485   -3.1083    0.5191 H   0  0  0  0  0  0  0  0  0  0  0  0
   -4.4733   -1.2411    0.9668 N   0  0  0  0  0  0  0  0  0  0  0  0
   -3.4203   -0.2603    0.9449 C   0  0  2  0  0  0  0  0  0  0  0  0
   -2.1242   -0.9699    0.5759 C   0  0  0  0  0  0  0  0  0  0  0  0
   -1.8694   -2.1225    0.9189 O   0  0  0  0  0  0  0  0  0  0  0  0
   -3.2916    0.4435    2.2868 C   0  0  0  0  0  0  0  0  0  0  0  0
   -4.2421   -2.1920    1.2489 H   0  0  0  0  0  0  0  0  0  0  0  0
   -3.6772    0.4622    0.1625 H   0  0  0  0  0  0  0  0  0  0  0  0
   -3.0345   -0.2644    3.0832 H   0  0  0  0  0  0  0  0  0  0  0  0
   -2.5093    1.2092    2.2599 H   0  0  0  0  0  0  0  0  0  0  0  0
   -4.2338    0.9283    2.5645 H   0  0  0  0  0  0  0  0  0  0  0  0
   -1.2626   -0.1515   -0.1463 N   0  0  0  0  0  0  0  0  0  0  0  0
    0.0431   -0.5785   -0.5755 C   0  0  2  0  0  0  0  0  0  0  0  0
    1.0756    0.0935    0.3200 C   0  0  0  0  0  0  0  0  0  0  0  0
    2.2192    0.3504   -0.0505 O   0  0  0  0  0  0  0  0  0  0  0  0
    0.2851   -0.2346   -2.0370 C   0  0  0  0  0  0  0  0  0  0  0  0
   -1.5766    0.7776   -0.4197 H   0  0  0  0  0  0  0  0  0  0  0  0
    0.0844   -1.6636   -0.4310 H   0  0  0  0  0  0  0  0  0  0  0  0
    0.2475    0.8485   -2.2013 H   0  0  0  0  0  0  0  0  0  0  0  0
    1.2676   -0.5854   -2.3697 H   0  0  0  0  0  0  0  0  0  0  0  0
   -0.4759   -0.6944   -2.6767 H   0  0  0  0  0  0  0  0  0  0  0  0
    0.5860    0.3356    1.5989 N   0  0  0  0  0  0  0  0  0  0  0  0
    1.3842    0.9240    2.6419 C   0  0  2  0  0  0  0  0  0  0  0  0
    0.9240    0.3415    3.9717 C   0  0  0  0  0  0  0  0  0  0  0  0
   -0.2449    0.0391    4.2029 O   0  0  0  0  0  0  0  0  0  0  0  0
    1.2643    2.4400    2.6420 C   0  0  0  0  0  0  0  0  0  0  0  0
   -0.3891    0.1252    1.8028 H   0  0  0  0  0  0  0  0  0  0  0  0
    2.4215    0.6272    2.4520 H   0  0  0  0  0  0  0  0  0  0  0  0
    0.2319    2.7564    2.8307 H   0  0  0  0  0  0  0  0  0  0  0  0
    1.8943    2.8878    3.4176 H   0  0  0  0  0  0  0  0  0  0  0  0
    1.5675    2.8550    1.6747 H   0  0  0  0  0  0  0  0  0  0  0  0
    1.9642    0.2392    4.8847 N   0  0  0  0  0  0  0  0  0  0  0  0
    1.7742   -0.2447    6.2321 C   0  0  0  0  0  0  0  0  0  0  0  0
    2.9087    0.4750    4.5945 H   0  0  0  0  0  0  0  0  0  0  0  0
    1.5842    0.6051    6.9041 H   0  0  0  0  0  0  0  0  0  0  0  0
    0.9150   -0.9312    6.2573 H   0  0  0  0  0  0  0  0  0  0  0  0
    2.6787   -0.7772    6.5613 H   0  0  0  0  0  0  0  0  0  0  0  0
  1  3  1  0  0  0  0
  1  7  1  0  0  0  0
  1  2  2  0  0  0  0
 28 29  1  0  0  0  0
 29 37  1  0  0  0  0
 29 30  2  0  0  0  0
 18 19  1  0  0  0  0
 19 27  1  0  0  0  0
 19 20  2  0  0  0  0
  8  9  1  0  0  0  0
  9 17  1  0  0  0  0
  9 10  2  0  0  0  0
 28 31  1  0  0  0  0
 18 21  1  0  0  0  0
  8 11  1  0  0  0  0
 37 38  1  0  0  0  0
 27 28  1  0  0  0  0
 17 18  1  0  0  0  0
  7  8  1  0  0  0  0
  3  4  1  0  0  0  0
  3  5  1  0  0  0  0
  3  6  1  0  0  0  0
 31 34  1  0  0  0  0
 31 35  1  0  0  0  0
 31 36  1  0  0  0  0
 21 24  1  0  0  0  0
 21 25  1  0  0  0  0
 21 26  1  0  0  0  0
 11 14  1  0  0  0  0
 11 15  1  0  0  0  0
 11 16  1  0  0  0  0
 38 40  1  0  0  0  0
 38 41  1  0  0  0  0
 38 42  1  0  0  0  0
 28 33  1  0  0  0  0
 18 23  1  0  0  0  0
  8 13  1  0  0  0  0
 37 39  1  0  0  0  0
  7 12  1  0  0  0  0
 27 32  1  0  0  0  0
 17 22  1  0  0  0  0
M  END
$$$$

  -OEChem-05262214473D

 42 41  0     1  0  0  0  0  0999 V2000
   -5.7851   -0.9580    0.6237 C   0  0  0  0  0  0  0  0  0  0  0  0
   -6.2213    0.1296    0.2652 O   0  0  0  0  0  0  0  0  0  0  0  0
   -6.7088   -2.1270    0.7168 C   0  0  0  0  0  0  0  0  0  0  0  0
   -7.1713   -2.2193    1.7126 H   0  0  0  0  0  0  0  0  0  0  0  0
   -7.5511   -2.0547    0.0101 H   0  0  0  0  0  0  0  0  0  0  0  0
   -6.2485   -3.1083    0.5191 H   0  0  0  0  0  0  0  0  0  0  0  0
   -4.4733   -1.2411    0.9668 N   0  0  0  0  0  0  0  0  0  0  0  0
   -3.4203   -0.2603    0.9449 C   0  0  2  0  0  0  0  0  0  0  0  0
   -2.1242   -0.9699    0.5759 C   0  0  0  0  0  0  0  0  0  0  0  0
   -1.8694   -2.1225    0.9189 O   0  0  0  0  0  0  0  0  0  0  0  0
   -3.2916    0.4435    2.2868 C   0  0  0  0  0  0  0  0  0  0  0  0
   -4.2421   -2.1920    1.2489 H   0  0  0  0  0  0  0  0  0  0  0  0
   -3.6772    0.4622    0.1625 H   0  0  0  0  0  0  0  0  0  0  0  0
   -3.0345   -0.2644    3.0832 H   0  0  0  0  0  0  0  0  0  0  0  0
   -2.5093    1.2092    2.2599 H   0  0  0  0  0  0  0  0  0  0  0  0
   -4.2338    0.9283    2.5645 H   0  0  0  0  0  0  0  0  0  0  0  0
   -1.2626   -0.1515   -0.1463 N   0  0  0  0  0  0  0  0  0  0  0  0
    0.0431   -0.5785   -0.5755 C   0  0  2  0  0  0  0  0  0  0  0  0
    1.0756    0.0935    0.3200 C   0  0  0  0  0  0  0  0  0  0  0  0
    2.1143    0.5908   -0.1099 O   0  0  0  0  0  0  0  0  0  0  0  0
    0.2851   -0.2346   -2.0370 C   0  0  0  0  0  0  0  0  0  0  0  0
   -1.5766    0.7776   -0.4197 H   0  0  0  0  0  0  0  0  0  0  0  0
    0.0844   -1.6636   -0.4310 H   0  0  0  0  0  0  0  0  0  0  0  0
    0.2475    0.8485   -2.2013 H   0  0  0  0  0  0  0  0  0  0  0  0
    1.2676   -0.5854   -2.3697 H   0  0  0  0  0  0  0  0  0  0  0  0
   -0.4759   -0.6944   -2.6767 H   0  0  0  0  0  0  0  0  0  0  0  0
    0.7240    0.0364    1.6642 N   0  0  0  0  0  0  0  0  0  0  0  0
    1.5573    0.5644    2.7122 C   0  0  2  0  0  0  0  0  0  0  0  0
    1.3581   -0.2984    3.9512 C   0  0  0  0  0  0  0  0  0  0  0  0
    0.2833   -0.8208    4.2392 O   0  0  0  0  0  0  0  0  0  0  0  0
    1.2243    2.0194    3.0037 C   0  0  0  0  0  0  0  0  0  0  0  0
   -0.1771   -0.3606    1.9229 H   0  0  0  0  0  0  0  0  0  0  0  0
    2.5933    0.4758    2.3674 H   0  0  0  0  0  0  0  0  0  0  0  0
    0.1902    2.1280    3.3504 H   0  0  0  0  0  0  0  0  0  0  0  0
    1.8782    2.4280    3.7812 H   0  0  0  0  0  0  0  0  0  0  0  0
    1.3394    2.6334    2.1039 H   0  0  0  0  0  0  0  0  0  0  0  0
    2.5104   -0.3811    4.7203 N   0  0  0  0  0  0  0  0  0  0  0  0
    2.5648   -1.1071    5.9677 C   0  0  0  0  0  0  0  0  0  0  0  0
    3.3669    0.0500    4.3851 H   0  0  0  0  0  0  0  0  0  0  0  0
    2.3435   -0.4234    6.8005 H   0  0  0  0  0  0  0  0  0  0  0  0
    1.8222   -1.9184    5.9523 H   0  0  0  0  0  0  0  0  0  0  0  0
    3.5703   -1.5329    6.1004 H   0  0  0  0  0  0  0  0  0  0  0  0
  1  3  1  0  0  0  0
  1  7  1  0  0  0  0
  1  2  2  0  0  0  0
 28 29  1  0  0  0  0
 29 37  1  0  0  0  0
 29 30  2  0  0  0  0
 18 19  1  0  0  0  0
 19 27  1  0  0  0  0
 19 20  2  0  0  0  0
  8  9  1  0  0  0  0
  9 17  1  0  0  0  0
  9 10  2  0  0  0  0
 28 31  1  0  0  0  0
 18 21  1  0  0  0  0
  8 11  1  0  0  0  0
 37 38  1  0  0  0  0
 27 28  1  0  0  0  0
 17 18  1  0  0  0  0
  7  8  1  0  0  0  0
  3  4  1  0  0  0  0
  3  5  1  0  0  0  0
  3  6  1  0  0  0  0
 31 34  1  0  0  0  0
 31 35  1  0  0  0  0
 31 36  1  0  0  0  0
 21 24  1  0  0  0  0
 21 25  1  0  0  0  0
 21 26  1  0  0  0  0
 11 14  1  0  0  0  0
 11 15  1  0  0  0  0
 11 16  1  0  0  0  0
 38 40  1  0  0  0  0
 38 41  1  0  0  0  0
 38 42  1  0  0  0  0
 28 33  1  0  0  0  0
 18 23  1  0  0  0  0
  8 13  1  0  0  0  0
 37 39  1  0  0  0  0
  7 12  1  0  0  0  0
 27 32  1  0  0  0  0
 17 22  1  0  0  0  0
M  END
$$$$

  -OEChem-05262214473D

 42 41  0     1  0  0  0  0  0999 V2000
   -5.7851   -0.9580    0.6237 C   0  0  0  0  0  0  0  0  0  0  0  0
   -6.2213    0.1296    0.2652 O   0  0  0  0  0  0  0  0  0  0  0  0
   -6.7088   -2.1270    0.7168 C   0  0  0  0  0  0  0  0  0  0  0  0
   -7.1713   -2.2193    1.7126 H   0  0  0  0  0  0  0  0  0  0  0  0
   -7.5511   -2.0547    0.0101 H   0  0  0  0  0  0  0  0  0  0  0  0
   -6.2485   -3.1083    0.5191 H   0  0  0  0  0  0  0  0  0  0  0  0
   -4.4733   -1.2411    0.9668 N   0  0  0  0  0  0  0  0  0  0  0  0
   -3.4203   -0.2603    0.9449 C   0  0  2  0  0  0  0  0  0  0  0  0
   -2.1242   -0.9699    0.5759 C   0  0  0  0  0  0  0  0  0  0  0  0
   -1.8694   -2.1225    0.9189 O   0  0  0  0  0  0  0  0  0  0  0  0
   -3.2916    0.4435    2.2868 C   0  0  0  0  0  0  0  0  0  0  0  0
   -4.2421   -2.1920    1.2489 H   0  0  0  0  0  0  0  0  0  0  0  0
   -3.6772    0.4622    0.1625 H   0  0  0  0  0  0  0  0  0  0  0  0
   -3.0345   -0.2644    3.0832 H   0  0  0  0  0  0  0  0  0  0  0  0
   -2.5093    1.2092    2.2599 H   0  0  0  0  0  0  0  0  0  0  0  0
   -4.2338    0.9283    2.5645 H   0  0  0  0  0  0  0  0  0  0  0  0
   -1.2626   -0.1515   -0.1463 N   0  0  0  0  0  0  0  0  0  0  0  0
    0.0431   -0.5785   -0.5755 C   0  0  2  0  0  0  0  0  0  0  0  0
    1.0756    0.0935    0.3200 C   0  0  0  0  0  0  0  0  0  0  0  0
    1.9696    0.8174   -0.1132 O   0  0  0  0  0  0  0  0  0  0  0  0
    0.2851   -0.2346   -2.0370 C   0  0  0  0  0  0  0  0  0  0  0  0
   -1.5766    0.7776   -0.4197 H   0  0  0  0  0  0  0  0  0  0  0  0
    0.0844   -1.6636   -0.4310 H   0  0  0  0  0  0  0  0  0  0  0  0
    0.2475    0.8485   -2.2013 H   0  0  0  0  0  0  0  0  0  0  0  0
    1.2676   -0.5854   -2.3697 H   0  0  0  0  0  0  0  0  0  0  0  0
   -0.4759   -0.6944   -2.6767 H   0  0  0  0  0  0  0  0  0  0  0  0
    0.9104   -0.2431    1.6591 N   0  0  0  0  0  0  0  0  0  0  0  0
    1.7872    0.2312    2.6971 C   0  0  2  0  0  0  0  0  0  0  0  0
    1.8726   -0.8468    3.7696 C   0  0  0  0  0  0  0  0  0  0  0  0
    0.9285   -1.5773    4.0630 O   0  0  0  0  0  0  0  0  0  0  0  0
    1.2910    1.5435    3.2838 C   0  0  0  0  0  0  0  0  0  0  0  0
    0.1152   -0.8186    1.9296 H   0  0  0  0  0  0  0  0  0  0  0  0
    2.7727    0.3707    2.2395 H   0  0  0  0  0  0  0  0  0  0  0  0
    0.3048    1.4235    3.7469 H   0  0  0  0  0  0  0  0  0  0  0  0
    1.9742    1.9175    4.0535 H   0  0  0  0  0  0  0  0  0  0  0  0
    1.2019    2.3093    2.5057 H   0  0  0  0  0  0  0  0  0  0  0  0
    3.1137   -0.8682    4.3904 N   0  0  0  0  0  0  0  0  0  0  0  0
    3.4295   -1.7733    5.4707 C   0  0  0  0  0  0  0  0  0  0  0  0
    3.8504   -0.2541    4.0559 H   0  0  0  0  0  0  0  0  0  0  0  0
    3.2216   -1.2831    6.4332 H   0  0  0  0  0  0  0  0  0  0  0  0
    2.8138   -2.6804    5.3808 H   0  0  0  0  0  0  0  0  0  0  0  0
    4.4939   -2.0463    5.4208 H   0  0  0  0  0  0  0  0  0  0  0  0
  1  3  1  0  0  0  0
  1  7  1  0  0  0  0
  1  2  2  0  0  0  0
 28 29  1  0  0  0  0
 29 37  1  0  0  0  0
 29 30  2  0  0  0  0
 18 19  1  0  0  0  0
 19 27  1  0  0  0  0
 19 20  2  0  0  0  0
  8  9  1  0  0  0  0
  9 17  1  0  0  0  0
  9 10  2  0  0  0  0
 28 31  1  0  0  0  0
 18 21  1  0  0  0  0
  8 11  1  0  0  0  0
 37 38  1  0  0  0  0
 27 28  1  0  0  0  0
 17 18  1  0  0  0  0
  7  8  1  0  0  0  0
  3  4  1  0  0  0  0
  3  5  1  0  0  0  0
  3  6  1  0  0  0  0
 31 34  1  0  0  0  0
 31 35  1  0  0  0  0
 31 36  1  0  0  0  0
 21 24  1  0  0  0  0
 21 25  1  0  0  0  0
 21 26  1  0  0  0  0
 11 14  1  0  0  0  0
 11 15  1  0  0  0  0
 11 16  1  0  0  0  0
 38 40  1  0  0  0  0
 38 41  1  0  0  0  0
 38 42  1  0  0  0  0
 28 33  1  0  0  0  0
 18 23  1  0  0  0  0
  8 13  1  0  0  0  0
 37 39  1  0  0  0  0
  7 12  1  0  0  0  0
 27 32  1  0  0  0  0
 17 22  1  0  0  0  0
M  END
$$$$

  -OEChem-05262214473D

 42 41  0     1  0  0  0  0  0999 V2000
   -5.7851   -0.9580    0.6237 C   0  0  0  0  0  0  0  0  0  0  0  0
   -6.2213    0.1296    0.2652 O   0  0  0  0  0  0  0  0  0  0  0  0
   -6.7088   -2.1270    0.7168 C   0  0  0  0  0  0  0  0  0  0  0  0
   -7.1713   -2.2193    1.7126 H   0  0  0  0  0  0  0  0  0  0  0  0
   -7.5511   -2.0547    0.0101 H   0  0  0  0  0  0  0  0  0  0  0  0
   -6.2485   -3.1083    0.5191 H   0  0  0  0  0  0  0  0  0  0  0  0
   -4.4733   -1.2411    0.9668 N   0  0  0  0  0  0  0  0  0  0  0  0
   -3.4203   -0.2603    0.9449 C   0  0  2  0  0  0  0  0  0  0  0  0
   -2.1242   -0.9699    0.5759 C   0  0  0  0  0  0  0  0  0  0  0  0
   -1.8694   -2.1225    0.9189 O   0  0  0  0  0  0  0  0  0  0  0  0
   -3.2916    0.4435    2.2868 C   0  0  0  0  0  0  0  0  0  0  0  0
   -4.2421   -2.1920    1.2489 H   0  0  0  0  0  0  0  0  0  0  0  0
   -3.6772    0.4622    0.1625 H   0  0  0  0  0  0  0  0  0  0  0  0
   -3.0345   -0.2644    3.0832 H   0  0  0  0  0  0  0  0  0  0  0  0
   -2.5093    1.2092    2.2599 H   0  0  0  0  0  0  0  0  0  0  0  0
   -4.2338    0.9283    2.5645 H   0  0  0  0  0  0  0  0  0  0  0  0
   -1.2626   -0.1515   -0.1463 N   0  0  0  0  0  0  0  0  0  0  0  0
    0.0431   -0.5785   -0.5755 C   0  0  2  0  0  0  0  0  0  0  0  0
    1.0756    0.0935    0.3200 C   0  0  0  0  0  0  0  0  0  0  0  0
    1.7950    1.0149   -0.0601 O   0  0  0  0  0  0  0  0  0  0  0  0
    0.2851   -0.2346   -2.0370 C   0  0  0  0  0  0  0  0  0  0  0  0
   -1.5766    0.7776   -0.4197 H   0  0  0  0  0  0  0  0  0  0  0  0
    0.0844   -1.6636   -0.4310 H   0  0  0  0  0  0  0  0  0  0  0  0
    0.2475    0.8485   -2.2013 H   0  0  0  0  0  0  0  0  0  0  0  0
    1.2676   -0.5854   -2.3697 H   0  0  0  0  0  0  0  0  0  0  0  0
   -0.4759   -0.6944   -2.6767 H   0  0  0  0  0  0  0  0  0  0  0  0
    1.1323   -0.4838    1.5838 N   0  0  0  0  0  0  0  0  0  0  0  0
    2.0583   -0.0531    2.5979 C   0  0  2  0  0  0  0  0  0  0  0  0
    2.4322   -1.2663    3.4392 C   0  0  0  0  0  0  0  0  0  0  0  0
    1.6467   -2.1790    3.6865 O   0  0  0  0  0  0  0  0  0  0  0  0
    1.4599    1.0449    3.4633 C   0  0  0  0  0  0  0  0  0  0  0  0
    0.4681   -1.2177    1.8222 H   0  0  0  0  0  0  0  0  0  0  0  0
    2.9473    0.3188    2.0770 H   0  0  0  0  0  0  0  0  0  0  0  0
    0.5680    0.6909    3.9932 H   0  0  0  0  0  0  0  0  0  0  0  0
    2.1757    1.3913    4.2160 H   0  0  0  0  0  0  0  0  0  0  0  0
    1.1642    1.9048    2.8527 H   0  0  0  0  0  0  0  0  0  0  0  0
    3.7328   -1.1891    3.9174 N   0  0  0  0  0  0  0  0  0  0  0  0
    4.3094   -2.1981    4.7750 C   0  0  0  0  0  0  0  0  0  0  0  0
    4.3260   -0.4165    3.6294 H   0  0  0  0  0  0  0  0  0  0  0  0
    4.1587   -1.9154    5.8273 H   0  0  0  0  0  0  0  0  0  0  0  0
    3.8223   -3.1653    4.5819 H   0  0  0  0  0  0  0  0  0  0  0  0
    5.3866   -2.2824    4.5688 H   0  0  0  0  0  0  0  0  0  0  0  0
  1  3  1  0  0  0  0
  1  7  1  0  0  0  0
  1  2  2  0  0  0  0
 28 29  1  0  0  0  0
 29 37  1  0  0  0  0
 29 30  2  0  0  0  0
 18 19  1  0  0  0  0
 19 27  1  0  0  0  0
 19 20  2  0  0  0  0
  8  9  1  0  0  0  0
  9 17  1  0  0  0  0
  9 10  2  0  0  0  0
 28 31  1  0  0  0  0
 18 21  1  0  0  0  0
  8 11  1  0  0  0  0
 37 38  1  0  0  0  0
 27 28  1  0  0  0  0
 17 18  1  0  0  0  0
  7  8  1  0  0  0  0
  3  4  1  0  0  0  0
  3  5  1  0  0  0  0
  3  6  1  0  0  0  0
 31 34  1  0  0  0  0
 31 35  1  0  0  0  0
 31 36  1  0  0  0  0
 21 24  1  0  0  0  0
 21 25  1  0  0  0  0
 21 26  1  0  0  0  0
 11 14  1  0  0  0  0
 11 15  1  0  0  0  0
 11 16  1  0  0  0  0
 38 40  1  0  0  0  0
 38 41  1  0  0  0  0
 38 42  1  0  0  0  0
 28 33  1  0  0  0  0
 18 23  1  0  0  0  0
  8 13  1  0  0  0  0
 37 39  1  0  0  0  0
  7 12  1  0  0  0  0
 27 32  1  0  0  0  0
 17 22  1  0  0  0  0
M  END
$$$$

  -OEChem-05262214473D

 42 41  0     1  0  0  0  0  0999 V2000
   -5.7851   -0.9580    0.6237 C   0  0  0  0  0  0  0  0  0  0  0  0
   -6.2213    0.1296    0.2652 O   0  0  0  0  0  0  0  0  0  0  0  0
   -6.7088   -2.1270    0.7168 C   0  0  0  0  0  0  0  0  0  0  0  0
   -7.1713   -2.2193    1.7126 H   0  0  0  0  0  0  0  0  0  0  0  0
   -7.5511   -2.0547    0.0101 H   0  0  0  0  0  0  0  0  0  0  0  0
   -6.2485   -3.1083    0.5191 H   0  0  0  0  0  0  0  0  0  0  0  0
   -4.4733   -1.2411    0.9668 N   0  0  0  0  0  0  0  0  0  0  0  0
   -3.4203   -0.2603    0.9449 C   0  0  2  0  0  0  0  0  0  0  0  0
   -2.1242   -0.9699    0.5759 C   0  0  0  0  0  0  0  0  0  0  0  0
   -1.8694   -2.1225    0.9189 O   0  0  0  0  0  0  0  0  0  0  0  0
   -3.2916    0.4435    2.2868 C   0  0  0  0  0  0  0  0  0  0  0  0
   -4.2421   -2.1920    1.2489 H   0  0  0  0  0  0  0  0  0  0  0  0
   -3.6772    0.4622    0.1625 H   0  0  0  0  0  0  0  0  0  0  0  0
   -3.0345   -0.2644    3.0832 H   0  0  0  0  0  0  0  0  0  0  0  0
   -2.5093    1.2092    2.2599 H   0  0  0  0  0  0  0  0  0  0  0  0
   -4.2338    0.9283    2.5645 H   0  0  0  0  0  0  0  0  0  0  0  0
   -1.2626   -0.1515   -0.1463 N   0  0  0  0  0  0  0  0  0  0  0  0
    0.0431   -0.5785   -0.5755 C   0  0  2  0  0  0  0  0  0  0  0  0
    1.0756    0.0935    0.3200 C   0  0  0  0  0  0  0  0  0  0  0  0
    1.6024    1.1698    0.0458 O   0  0  0  0  0  0  0  0  0  0  0  0
    0.2851   -0.2346   -2.0370 C   0  0  0  0  0  0  0  0  0  0  0  0
   -1.5766    0.7776   -0.4197 H   0  0  0  0  0  0  0  0  0  0  0  0
    0.0844   -1.6636   -0.4310 H   0  0  0  0  0  0  0  0  0  0  0  0
    0.2475    0.8485   -2.2013 H   0  0  0  0  0  0  0  0  0  0  0  0
    1.2676   -0.5854   -2.3697 H   0  0  0  0  0  0  0  0  0  0  0  0
   -0.4759   -0.6944   -2.6767 H   0  0  0  0  0  0  0  0  0  0  0  0
    1.3747   -0.6694    1.4435 N   0  0  0  0  0  0  0  0  0  0  0  0
    2.3521   -0.2691    2.4212 C   0  0  2  0  0  0  0  0  0  0  0  0
    2.9989   -1.5285    2.9826 C   0  0  0  0  0  0  0  0  0  0  0  0
    2.3891   -2.5848    3.1351 O   0  0  0  0  0  0  0  0  0  0  0  0
    1.7194    0.5575    3.5299 C   0  0  0  0  0  0  0  0  0  0  0  0
    0.8574   -1.5306    1.6082 H   0  0  0  0  0  0  0  0  0  0  0  0
    3.1054    0.3238    1.8911 H   0  0  0  0  0  0  0  0  0  0  0  0
    0.9619   -0.0200    4.0724 H   0  0  0  0  0  0  0  0  0  0  0  0
    2.4690    0.8852    4.2577 H   0  0  0  0  0  0  0  0  0  0  0  0
    1.2290    1.4475    3.1211 H   0  0  0  0  0  0  0  0  0  0  0  0
    4.3257   -1.3218    3.3334 N   0  0  0  0  0  0  0  0  0  0  0  0
    5.1445   -2.3524    3.9280 C   0  0  0  0  0  0  0  0  0  0  0  0
    4.7614   -0.4261    3.1346 H   0  0  0  0  0  0  0  0  0  0  0  0
    5.0908   -2.2773    5.0241 H   0  0  0  0  0  0  0  0  0  0  0  0
    4.7790   -3.3399    3.6099 H   0  0  0  0  0  0  0  0  0  0  0  0
    6.1875   -2.2251    3.6025 H   0  0  0  0  0  0  0  0  0  0  0  0
  1  3  1  0  0  0  0
  1  7  1  0  0  0  0
  1  2  2  0  0  0  0
 28 29  1  0  0  0  0
 29 37  1  0  0  0  0
 29 30  2  0  0  0  0
 18 19  1  0  0  0  0
 19 27  1  0  0  0  0
 19 20  2  0  0  0  0
  8  9  1  0  0  0  0
  9 17  1  0  0  0  0
  9 10  2  0  0  0  0
 28 31  1  0  0  0  0
 18 21  1  0  0  0  0
  8 11  1  0  0  0  0
 37 38  1  0  0  0  0
 27 28  1  0  0  0  0
 17 18  1  0  0  0  0
  7  8  1  0  0  0  0
  3  4  1  0  0  0  0
  3  5  1  0  0  0  0
  3  6  1  0  0  0  0
 31 34  1  0  0  0  0
 31 35  1  0  0  0  0
 31 36  1  0  0  0  0
 21 24  1  0  0  0  0
 21 25  1  0  0  0  0
 21 26  1  0  0  0  0
 11 14  1  0  0  0  0
 11 15  1  0  0  0  0
 11 16  1  0  0  0  0
 38 40  1  0  0  0  0
 38 41  1  0  0  0  0
 38 42  1  0  0  0  0
 28 33  1  0  0  0  0
 18 23  1  0  0  0  0
  8 13  1  0  0  0  0
 37 39  1  0  0  0  0
  7 12  1  0  0  0  0
 27 32  1  0  0  0  0
 17 22  1  0  0  0  0
M  END
$$$$

  -OEChem-05262214473D

 42 41  0     1  0  0  0  0  0999 V2000
   -5.7851   -0.9580    0.6237 C   0  0  0  0  0  0  0  0  0  0  0  0
   -6.2213    0.1296    0.2652 O   0  0  0  0  0  0  0  0  0  0  0  0
   -6.7088   -2.1270    0.7168 C   0  0  0  0  0  0  0  0  0  0  0  0
   -7.1713   -2.2193    1.7126 H   0  0  0  0  0  0  0  0  0  0  0  0
   -7.5511   -2.0547    0.0101 H   0  0  0  0  0  0  0  0  0  0  0  0
   -6.2485   -3.1083    0.5191 H   0  0  0  0  0  0  0  0  0  0  0  0
   -4.4733   -1.2411    0.9668 N   0  0  0  0  0  0  0  0  0  0  0  0
   -3.4203   -0.2603    0.9449 C   0  0  2  0  0  0  0  0  0  0  0  0
   -2.1242   -0.9699    0.5759 C   0  0  0  0  0  0  0  0  0  0  0  0
   -1.8694   -2.1225    0.9189 O   0  0  0  0  0  0  0  0  0  0  0  0
   -3.2916    0.4435    2.2868 C   0  0  0  0  0  0  0  0  0  0  0  0
   -4.2421   -2.1920    1.2489 H   0  0  0  0  0  0  0  0  0  0  0  0
   -3.6772    0.4622    0.1625 H   0  0  0  0  0  0  0  0  0  0  0  0
   -3.0345   -0.2644    3.0832 H   0  0  0  0  0  0  0  0  0  0  0  0
   -2.5093    1.2092    2.2599 H   0  0  0  0  0  0  0  0  0  0  0  0
   -4.2338    0.9283    2.5645 H   0  0  0  0  0  0  0  0  0  0  0  0
   -1.2626   -0.1515   -0.1463 N   0  0  0  0  0  0  0  0  0  0  0  0
    0.0431   -0.5785   -0.5755 C   0  0  2  0  0  0  0  0  0  0  0  0
    1.0756    0.0935    0.3200 C   0  0  0  0  0  0  0  0  0  0  0  0
    1.4048    1.2715    0.1973 O   0  0  0  0  0  0  0  0  0  0  0  0
    0.2851   -0.2346   -2.0370 C   0  0  0  0  0  0  0  0  0  0  0  0
   -1.5766    0.7776   -0.4197 H   0  0  0  0  0  0  0  0  0  0  0  0
    0.0844   -1.6636   -0.4310 H   0  0  0  0  0  0  0  0  0  0  0  0
    0.2475    0.8485   -2.2013 H   0  0  0  0  0  0  0  0  0  0  0  0
    1.2676   -0.5854   -2.3697 H   0  0  0  0  0  0  0  0  0  0  0  0
   -0.4759   -0.6944   -2.6767 H   0  0  0  0  0  0  0  0  0  0  0  0
    1.6211   -0.7870    1.2478 N   0  0  0  0  0  0  0  0  0  0  0  0
    2.6486   -0.4019    2.1791 C   0  0  2  0  0  0  0  0  0  0  0  0
    3.5340   -1.6153    2.4308 C   0  0  0  0  0  0  0  0  0  0  0  0
    3.1049   -2.7671    2.4466 O   0  0  0  0  0  0  0  0  0  0  0  0
    2.0518    0.1144    3.4791 C   0  0  0  0  0  0  0  0  0  0  0  0
    1.2566   -1.7361    1.3021 H   0  0  0  0  0  0  0  0  0  0  0  0
    3.2361    0.3853    1.6942 H   0  0  0  0  0  0  0  0  0  0  0  0
    1.4596   -0.6605    3.9793 H   0  0  0  0  0  0  0  0  0  0  0  0
    2.8341    0.4337    4.1756 H   0  0  0  0  0  0  0  0  0  0  0  0
    1.3918    0.9685    3.2928 H   0  0  0  0  0  0  0  0  0  0  0  0
    4.8518   -1.2573    2.6784 N   0  0  0  0  0  0  0  0  0  0  0  0
    5.8779   -2.2257    2.9874 C   0  0  0  0  0  0  0  0  0  0  0  0
    5.1270   -0.2823    2.6053 H   0  0  0  0  0  0  0  0  0  0  0  0
    5.9546   -2.3440    4.0783 H   0  0  0  0  0  0  0  0  0  0  0  0
    5.6187   -3.1925    2.5312 H   0  0  0  0  0  0  0  0  0  0  0  0
    6.8420   -1.8784    2.5876 H   0  0  0  0  0  0  0  0  0  0  0  0
  1  3  1  0  0  0  0
  1  7  1  0  0  0  0
  1  2  2  0  0  0  0
 28 29  1  0  0  0  0
 29 37  1  0  0  0  0
 29 30  2  0  0  0  0
 18 19  1  0  0  0  0
 19 27  1  0  0  0  0
 19 20  2  0  0  0  0
  8  9  1  0  0  0  0
  9 17  1  0  0  0  0
  9 10  2  0  0  0  0
 28 31  1  0  0  0  0
 18 21  1  0  0  0  0
  8 11  1  0  0  0  0
 37 38  1  0  0  0  0
 27 28  1  0  0  0  0
 17 18  1  0  0  0  0
  7  8  1  0  0  0  0
  3  4  1  0  0  0  0
  3  5  1  0  0  0  0
  3  6  1  0  0  0  0
 31 34  1  0  0  0  0
 31 35  1  0  0  0  0
 31 36  1  0  0  0  0
 21 24  1  0  0  0  0
 21 25  1  0  0  0  0
 21 26  1  0  0  0  0
 11 14  1  0  0  0  0
 11 15  1  0  0  0  0
 11 16  1  0  0  0  0
 38 40  1  0  0  0  0
 38 41  1  0  0  0  0
 38 42  1  0  0  0  0
 28 33  1  0  0  0  0
 18 23  1  0  0  0  0
  8 13  1  0  0  0  0
 37 39  1  0  0  0  0
  7 12  1  0  0  0  0
 27 32  1  0  0  0  0
 17 22  1  0  0  0  0
M  END
$$$$

  -OEChem-05262214473D

 42 41  0     1  0  0  0  0  0999 V2000
   -5.7851   -0.9580    0.6237 C   0  0  0  0  0  0  0  0  0  0  0  0
   -6.2213    0.1296    0.2652 O   0  0  0  0  0  0  0  0  0  0  0  0
   -6.7088   -2.1270    0.7168 C   0  0  0  0  0  0  0  0  0  0  0  0
   -7.1713   -2.2193    1.7126 H   0  0  0  0  0  0  0  0  0  0  0  0
   -7.5511   -2.0547    0.0101 H   0  0  0  0  0  0  0  0  0  0  0  0
   -6.2485   -3.1083    0.5191 H   0  0  0  0  0  0  0  0  0  0  0  0
   -4.4733   -1.2411    0.9668 N   0  0  0  0  0  0  0  0  0  0  0  0
   -3.4203   -0.2603    0.9449 C   0  0  2  0  0  0  0  0  0  0  0  0
   -2.1242   -0.9699    0.5759 C   0  0  0  0  0  0  0  0  0  0  0  0
   -1.8694   -2.1225    0.9189 O   0  0  0  0  0  0  0  0  0  0  0  0
   -3.2916    0.4435    2.2868 C   0  0  0  0  0  0  0  0  0  0  0  0
   -4.2421   -2.1920    1.2489 H   0  0  0  0  0  0  0  0  0  0  0  0
   -3.6772    0.4622    0.1625 H   0  0  0  0  0  0  0  0  0  0  0  0
   -3.0345   -0.2644    3.0832 H   0  0  0  0  0  0  0  0  0  0  0  0
   -2.5093    1.2092    2.2599 H   0  0  0  0  0  0  0  0  0  0  0  0
   -4.2338    0.9283    2.5645 H   0  0  0  0  0  0  0  0  0  0  0  0
   -1.2626   -0.1515   -0.1463 N   0  0  0  0  0  0  0  0  0  0  0  0
    0.0431   -0.5785   -0.5755 C   0  0  2  0  0  0  0  0  0  0  0  0
    1.0756    0.0935    0.3200 C   0  0  0  0  0  0  0  0  0  0  0  0
    1.2158    1.3131    0.3840 O   0  0  0  0  0  0  0  0  0  0  0  0
    0.2851   -0.2346   -2.0370 C   0  0  0  0  0  0  0  0  0  0  0  0
   -1.5766    0.7776   -0.4197 H   0  0  0  0  0  0  0  0  0  0  0  0
    0.0844   -1.6636   -0.4310 H   0  0  0  0  0  0  0  0  0  0  0  0
    0.2475    0.8485   -2.2013 H   0  0  0  0  0  0  0  0  0  0  0  0
    1.2676   -0.5854   -2.3697 H   0  0  0  0  0  0  0  0  0  0  0  0
   -0.4759   -0.6944   -2.6767 H   0  0  0  0  0  0  0  0  0  0  0  0
    1.8547   -0.8289    1.0099 N   0  0  0  0  0  0  0  0  0  0  0  0
    2.9275   -0.4427    1.8881 C   0  0  2  0  0  0  0  0  0  0  0  0
    4.0011   -1.5209    1.8215 C   0  0  0  0  0  0  0  0  0  0  0  0
    3.7455   -2.7134    1.6678 O   0  0  0  0  0  0  0  0  0  0  0  0
    2.4345   -0.2540    3.3143 C   0  0  0  0  0  0  0  0  0  0  0  0
    1.6386   -1.8202    0.9248 H   0  0  0  0  0  0  0  0  0  0  0  0
    3.3304    0.4992    1.5000 H   0  0  0  0  0  0  0  0  0  0  0  0
    2.0272   -1.1872    3.7201 H   0  0  0  0  0  0  0  0  0  0  0  0
    3.2461    0.0674    3.9754 H   0  0  0  0  0  0  0  0  0  0  0  0
    1.6416    0.5006    3.3559 H   0  0  0  0  0  0  0  0  0  0  0  0
    5.2755   -1.0000    1.9969 N   0  0  0  0  0  0  0  0  0  0  0  0
    6.4596   -1.8267    2.0173 C   0  0  0  0  0  0  0  0  0  0  0  0
    5.3977    0.0051    2.0775 H   0  0  0  0  0  0  0  0  0  0  0  0
    6.6911   -2.1111    3.0544 H   0  0  0  0  0  0  0  0  0  0  0  0
    6.2842   -2.7331    1.4192 H   0  0  0  0  0  0  0  0  0  0  0  0
    7.3056   -1.2657    1.5935 H   0  0  0  0  0  0  0  0  0  0  0  0
  1  3  1  0  0  0  0
  1  7  1  0  0  0  0
  1  2  2  0  0  0  0
 28 29  1  0  0  0  0
 29 37  1  0  0  0  0
 29 30  2  0  0  0  0
 18 19  1  0  0  0  0
 19 27  1  0  0  0  0
 19 20  2  0  0  0  0
  8  9  1  0  0  0  0
  9 17  1  0  0  0  0
  9 10  2  0  0  0  0
 28 31  1  0  0  0  0
 18 21  1  0  0  0  0
  8 11  1  0  0  0  0
 37 38  1  0  0  0  0
 27 28  1  0  0  0  0
 17 18  1  0  0  0  0
  7  8  1  0  0  0  0
  3  4  1  0  0  0  0
  3  5  1  0  0  0  0
  3  6  1  0  0  0  0
 31 34  1  0  0  0  0
 31 35  1  0  0  0  0
 31 36  1  0  0  0  0
 21 24  1  0  0  0  0
 21 25  1  0  0  0  0
 21 26  1  0  0  0  0
 11 14  1  0  0  0  0
 11 15  1  0  0  0  0
 11 16  1  0  0  0  0
 38 40  1  0  0  0  0
 38 41  1  0  0  0  0
 38 42  1  0  0  0  0
 28 33  1  0  0  0  0
 18 23  1  0  0  0  0
  8 13  1  0  0  0  0
 37 39  1  0  0  0  0
  7 12  1  0  0  0  0
 27 32  1  0  0  0  0
 17 22  1  0  0  0  0
M  END
$$$$

  -OEChem-05262214473D

 42 41  0     1  0  0  0  0  0999 V2000
   -5.7851   -0.9580    0.6237 C   0  0  0  0  0  0  0  0  0  0  0  0
   -6.2213    0.1296    0.2652 O   0  0  0  0  0  0  0  0  0  0  0  0
   -6.7088   -2.1270    0.7168 C   0  0  0  0  0  0  0  0  0  0  0  0
   -7.1713   -2.2193    1.7126 H   0  0  0  0  0  0  0  0  0  0  0  0
   -7.5511   -2.0547    0.0101 H   0  0  0  0  0  0  0  0  0  0  0  0
   -6.2485   -3.1083    0.5191 H   0  0  0  0  0  0  0  0  0  0  0  0
   -4.4733   -1.2411    0.9668 N   0  0  0  0  0  0  0  0  0  0  0  0
   -3.4203   -0.2603    0.9449 C   0  0  2  0  0  0  0  0  0  0  0  0
   -2.1242   -0.9699    0.5759 C   0  0  0  0  0  0  0  0  0  0  0  0
   -1.8694   -2.1225    0.9189 O   0  0  0  0  0  0  0  0  0  0  0  0
   -3.2916    0.4435    2.2868 C   0  0  0  0  0  0  0  0  0  0  0  0
   -4.2421   -2.1920    1.2489 H   0  0  0  0  0  0  0  0  0  0  0  0
   -3.6772    0.4622    0.1625 H   0  0  0  0  0  0  0  0  0  0  0  0
   -3.0345   -0.2644    3.0832 H   0  0  0  0  0  0  0  0  0  0  0  0
   -2.5093    1.2092    2.2599 H   0  0  0  0  0  0  0  0  0  0  0  0
   -4.2338    0.9283    2.5645 H   0  0  0  0  0  0  0  0  0  0  0  0
   -1.2626   -0.1515   -0.1463 N   0  0  0  0  0  0  0  0  0  0  0  0
    0.0431   -0.5785   -0.5755 C   0  0  2  0  0  0  0  0  0  0  0  0
    1.0756    0.0935    0.3200 C   0  0  0  0  0  0  0  0  0  0  0  0
    1.0482    1.2917    0.5932 O   0  0  0  0  0  0  0  0  0  0  0  0
    0.2851   -0.2346   -2.0370 C   0  0  0  0  0  0  0  0  0  0  0  0
   -1.5766    0.7776   -0.4197 H   0  0  0  0  0  0  0  0  0  0  0  0
    0.0844   -1.6636   -0.4310 H   0  0  0  0  0  0  0  0  0  0  0  0
    0.2475    0.8485   -2.2013 H   0  0  0  0  0  0  0  0  0  0  0  0
    1.2676   -0.5854   -2.3697 H   0  0  0  0  0  0  0  0  0  0  0  0
   -0.4759   -0.6944   -2.6767 H   0  0  0  0  0  0  0  0  0  0  0  0
    2.0594   -0.7920    0.7462 N   0  0  0  0  0  0  0  0  0  0  0  0
    3.1699   -0.3885    1.5680 C   0  0  2  0  0  0  0  0  0  0  0  0
    4.3683   -1.2517    1.1961 C   0  0  0  0  0  0  0  0  0  0  0  0
    4.2671   -2.4274    0.8518 O   0  0  0  0  0  0  0  0  0  0  0  0
    2.8414   -0.5227    3.0468 C   0  0  0  0  0  0  0  0  0  0  0  0
    1.9772   -1.7770    0.5020 H   0  0  0  0  0  0  0  0  0  0  0  0
    3.3821    0.6575    1.3216 H   0  0  0  0  0  0  0  0  0  0  0  0
    2.6260   -1.5641    3.3126 H   0  0  0  0  0  0  0  0  0  0  0  0
    3.6769   -0.1885    3.6707 H   0  0  0  0  0  0  0  0  0  0  0  0
    1.9613    0.0755    3.3063 H   0  0  0  0  0  0  0  0  0  0  0  0
    5.5677   -0.5675    1.3355 N   0  0  0  0  0  0  0  0  0  0  0  0
    6.8500   -1.1826    1.0839 C   0  0  0  0  0  0  0  0  0  0  0  0
    5.5553    0.4165    1.5871 H   0  0  0  0  0  0  0  0  0  0  0  0
    7.2501   -1.5943    2.0221 H   0  0  0  0  0  0  0  0  0  0  0  0
    6.7301   -1.9929    0.3497 H   0  0  0  0  0  0  0  0  0  0  0  0
    7.5466   -0.4290    0.6878 H   0  0  0  0  0  0  0  0  0  0  0  0
  1  3  1  0  0  0  0
  1  7  1  0  0  0  0
  1  2  2  0  0  0  0
 28 29  1  0  0  0  0
 29 37  1  0  0  0  0
 29 30  2  0  0  0  0
 18 19  1  0  0  0  0
 19 27  1  0  0  0  0
 19 20  2  0  0  0  0
  8  9  1  0  0  0  0
  9 17  1  0  0  0  0
  9 10  2  0  0  0  0
 28 31  1  0  0  0  0
 18 21  1  0  0  0  0
  8 11  1  0  0  0  0
 37 38  1  0  0  0  0
 27 28  1  0  0  0  0
 17 18  1  0  0  0  0
  7  8  1  0  0  0  0
  3  4  1  0  0  0  0
  3  5  1  0  0  0  0
  3  6  1  0  0  0  0
 31 34  1  0  0  0  0
 31 35  1  0  0  0  0
 31 36  1  0  0  0  0
 21 24  1  0  0  0  0
 21 25  1  0  0  0  0
 21 26  1  0  0  0  0
 11 14  1  0  0  0  0
 11 15  1  0  0  0  0
 11 16  1  0  0  0  0
 38 40  1  0  0  0  0
 38 41  1  0  0  0  0
 38 42  1  0  0  0  0
 28 33  1  0  0  0  0
 18 23  1  0  0  0  0
  8 13  1  0  0  0  0
 37 39  1  0  0  0  0
  7 12  1  0  0  0  0
 27 32  1  0  0  0  0
 17 22  1  0  0  0  0
M  END
$$$$

  -OEChem-05262214473D

 42 41  0     1  0  0  0  0  0999 V2000
   -5.7851   -0.9580    0.6237 C   0  0  0  0  0  0  0  0  0  0  0  0
   -6.2213    0.1296    0.2652 O   0  0  0  0  0  0  0  0  0  0  0  0
   -6.7088   -2.1270    0.7168 C   0  0  0  0  0  0  0  0  0  0  0  0
   -7.1713   -2.2193    1.7126 H   0  0  0  0  0  0  0  0  0  0  0  0
   -7.5511   -2.0547    0.0101 H   0  0  0  0  0  0  0  0  0  0  0  0
   -6.2485   -3.1083    0.5191 H   0  0  0  0  0  0  0  0  0  0  0  0
   -4.4733   -1.2411    0.9668 N   0  0  0  0  0  0  0  0  0  0  0  0
   -3.4203   -0.2603    0.9449 C   0  0  2  0  0  0  0  0  0  0  0  0
   -2.1242   -0.9699    0.5759 C   0  0  0  0  0  0  0  0  0  0  0  0
   -1.8694   -2.1225    0.9189 O   0  0  0  0  0  0  0  0  0  0  0  0
   -3.2916    0.4435    2.2868 C   0  0  0  0  0  0  0  0  0  0  0  0
   -4.2421   -2.1920    1.2489 H   0  0  0  0  0  0  0  0  0  0  0  0
   -3.6772    0.4622    0.1625 H   0  0  0  0  0  0  0  0  0  0  0  0
   -3.0345   -0.2644    3.0832 H   0  0  0  0  0  0  0  0  0  0  0  0
   -2.5093    1.2092    2.2599 H   0  0  0  0  0  0  0  0  0  0  0  0
   -4.2338    0.9283    2.5645 H   0  0  0  0  0  0  0  0  0  0  0  0
   -1.2626   -0.1515   -0.1463 N   0  0  0  0  0  0  0  0  0  0  0  0
    0.0431   -0.5785   -0.5755 C   0  0  2  0  0  0  0  0  0  0  0  0
    1.0756    0.0935    0.3200 C   0  0  0  0  0  0  0  0  0  0  0  0
    0.9135    1.2089    0.8107 O   0  0  0  0  0  0  0  0  0  0  0  0
    0.2851   -0.2346   -2.0370 C   0  0  0  0  0  0  0  0  0  0  0  0
   -1.5766    0.7776   -0.4197 H   0  0  0  0  0  0  0  0  0  0  0  0
    0.0844   -1.6636   -0.4310 H   0  0  0  0  0  0  0  0  0  0  0  0
    0.2475    0.8485   -2.2013 H   0  0  0  0  0  0  0  0  0  0  0  0
    1.2676   -0.5854   -2.3697 H   0  0  0  0  0  0  0  0  0  0  0  0
   -0.4759   -0.6944   -2.6767 H   0  0  0  0  0  0  0  0  0  0  0  0
    2.2215   -0.6790    0.4745 N   0  0  0  0  0  0  0  0  0  0  0  0
    3.3593   -0.2432    1.2406 C   0  0  2  0  0  0  0  0  0  0  0  0
    4.6106   -0.8261    0.5974 C   0  0  0  0  0  0  0  0  0  0  0  0
    4.6342   -1.9286    0.0542 O   0  0  0  0  0  0  0  0  0  0  0  0
    3.2448   -0.6734    2.6948 C   0  0  0  0  0  0  0  0  0  0  0  0
    2.2495   -1.6096    0.0625 H   0  0  0  0  0  0  0  0  0  0  0  0
    3.3875    0.8497    1.1712 H   0  0  0  0  0  0  0  0  0  0  0  0
    3.2152   -1.7654    2.7844 H   0  0  0  0  0  0  0  0  0  0  0  0
    4.0972   -0.3166    3.2824 H   0  0  0  0  0  0  0  0  0  0  0  0
    2.3291   -0.2778    3.1473 H   0  0  0  0  0  0  0  0  0  0  0  0
    5.7086    0.0109    0.7390 N   0  0  0  0  0  0  0  0  0  0  0  0
    7.0225   -0.3372    0.2507 C   0  0  0  0  0  0  0  0  0  0  0  0
    5.5888    0.9240    1.1677 H   0  0  0  0  0  0  0  0  0  0  0  0
    7.5936   -0.8290    1.0519 H   0  0  0  0  0  0  0  0  0  0  0  0
    6.9260   -1.0224   -0.6044 H   0  0  0  0  0  0  0  0  0  0  0  0
    7.5486    0.5748   -0.0678 H   0  0  0  0  0  0  0  0  0  0  0  0
  1  3  1  0  0  0  0
  1  7  1  0  0  0  0
  1  2  2  0  0  0  0
 28 29  1  0  0  0  0
 29 37  1  0  0  0  0
 29 30  2  0  0  0  0
 18 19  1  0  0  0  0
 19 27  1  0  0  0  0
 19 20  2  0  0  0  0
  8  9  1  0  0  0  0
  9 17  1  0  0  0  0
  9 10  2  0  0  0  0
 28 31  1  0  0  0  0
 18 21  1  0  0  0  0
  8 11  1  0  0  0  0
 37 38  1  0  0  0  0
 27 28  1  0  0  0  0
 17 18  1  0  0  0  0
  7  8  1  0  0  0  0
  3  4  1  0  0  0  0
  3  5  1  0  0  0  0
  3  6  1  0  0  0  0
 31 34  1  0  0  0  0
 31 35  1  0  0  0  0
 31 36  1  0  0  0  0
 21 24  1  0  0  0  0
 21 25  1  0  0  0  0
 21 26  1  0  0  0  0
 11 14  1  0  0  0  0
 11 15  1  0  0  0  0
 11 16  1  0  0  0  0
 38 40  1  0  0  0  0
 38 41  1  0  0  0  0
 38 42  1  0  0  0  0
 28 33  1  0  0  0  0
 18 23  1  0  0  0  0
  8 13  1  0  0  0  0
 37 39  1  0  0  0  0
  7 12  1  0  0  0  0
 27 32  1  0  0  0  0
 17 22  1  0  0  0  0
M  END
$$$$

  -OEChem-05262214473D

 42 41  0     1  0  0  0  0  0999 V2000
   -5.7851   -0.9580    0.6237 C   0  0  0  0  0  0  0  0  0  0  0  0
   -6.2213    0.1296    0.2652 O   0  0  0  0  0  0  0  0  0  0  0  0
   -6.7088   -2.1270    0.7168 C   0  0  0  0  0  0  0  0  0  0  0  0
   -7.1713   -2.2193    1.7126 H   0  0  0  0  0  0  0  0  0  0  0  0
   -7.5511   -2.0547    0.0101 H   0  0  0  0  0  0  0  0  0  0  0  0
   -6.2485   -3.1083    0.5191 H   0  0  0  0  0  0  0  0  0  0  0  0
   -4.4733   -1.2411    0.9668 N   0  0  0  0  0  0  0  0  0  0  0  0
   -3.4203   -0.2603    0.9449 C   0  0  2  0  0  0  0  0  0  0  0  0
   -2.1242   -0.9699    0.5759 C   0  0  0  0  0  0  0  0  0  0  0  0
   -1.8694   -2.1225    0.9189 O   0  0  0  0  0  0  0  0  0  0  0  0
   -3.2916    0.4435    2.2868 C   0  0  0  0  0  0  0  0  0  0  0  0
   -4.2421   -2.1920    1.2489 H   0  0  0  0  0  0  0  0  0  0  0  0
   -3.6772    0.4622    0.1625 H   0  0  0  0  0  0  0  0  0  0  0  0
   -3.0345   -0.2644    3.0832 H   0  0  0  0  0  0  0  0  0  0  0  0
   -2.5093    1.2092    2.2599 H   0  0  0  0  0  0  0  0  0  0  0  0
   -4.2338    0.9283    2.5645 H   0  0  0  0  0  0  0  0  0  0  0  0
   -1.2626   -0.1515   -0.1463 N   0  0  0  0  0  0  0  0  0  0  0  0
    0.0431   -0.5785   -0.5755 C   0  0  2  0  0  0  0  0  0  0  0  0
    1.0756    0.0935    0.3200 C   0  0  0  0  0  0  0  0  0  0  0  0
    0.8208    1.0702    1.0217 O   0  0  0  0  0  0  0  0  0  0  0  0
    0.2851   -0.2346   -2.0370 C   0  0  0  0  0  0  0  0  0  0  0  0
   -1.5766    0.7776   -0.4197 H   0  0  0  0  0  0  0  0  0  0  0  0
    0.0844   -1.6636   -0.4310 H   0  0  0  0  0  0  0  0  0  0  0  0
    0.2475    0.8485   -2.2013 H   0  0  0  0  0  0  0  0  0  0  0  0
    1.2676   -0.5854   -2.3697 H   0  0  0  0  0  0  0  0  0  0  0  0
   -0.4759   -0.6944   -2.6767 H   0  0  0  0  0  0  0  0  0  0  0  0
    2.3298   -0.4974    0.2134 N   0  0  0  0  0  0  0  0  0  0  0  0
    3.4827   -0.0165    0.9283 C   0  0  2  0  0  0  0  0  0  0  0  0
    4.7116   -0.2731    0.0660 C   0  0  0  0  0  0  0  0  0  0  0  0
    4.8219   -1.2510   -0.6706 O   0  0  0  0  0  0  0  0  0  0  0  0
    3.6172   -0.6958    2.2822 C   0  0  0  0  0  0  0  0  0  0  0  0
    2.4368   -1.3293   -0.3638 H   0  0  0  0  0  0  0  0  0  0  0  0
    3.3463    1.0626    1.0590 H   0  0  0  0  0  0  0  0  0  0  0  0
    3.7546   -1.7776    2.1716 H   0  0  0  0  0  0  0  0  0  0  0  0
    4.4783   -0.3083    2.8367 H   0  0  0  0  0  0  0  0  0  0  0  0
    2.7200   -0.5351    2.8897 H   0  0  0  0  0  0  0  0  0  0  0  0
    5.6885    0.6957    0.2483 N   0  0  0  0  0  0  0  0  0  0  0  0
    6.9653    0.6518   -0.4255 C   0  0  0  0  0  0  0  0  0  0  0  0
    5.4961    1.4928    0.8478 H   0  0  0  0  0  0  0  0  0  0  0  0
    7.6981    0.1328    0.2098 H   0  0  0  0  0  0  0  0  0  0  0  0
    6.8586    0.1122   -1.3781 H   0  0  0  0  0  0  0  0  0  0  0  0
    7.3115    1.6773   -0.6217 H   0  0  0  0  0  0  0  0  0  0  0  0
  1  3  1  0  0  0  0
  1  7  1  0  0  0  0
  1  2  2  0  0  0  0
 28 29  1  0  0  0  0
 29 37  1  0  0  0  0
 29 30  2  0  0  0  0
 18 19  1  0  0  0  0
 19 27  1  0  0  0  0
 19 20  2  0  0  0  0
  8  9  1  0  0  0  0
  9 17  1  0  0  0  0
  9 10  2  0  0  0  0
 28 31  1  0  0  0  0
 18 21  1  0  0  0  0
  8 11  1  0  0  0  0
 37 38  1  0  0  0  0
 27 28  1  0  0  0  0
 17 18  1  0  0  0  0
  7  8  1  0  0  0  0
  3  4  1  0  0  0  0
  3  5  1  0  0  0  0
  3  6  1  0  0  0  0
 31 34  1  0  0  0  0
 31 35  1  0  0  0  0
 31 36  1  0  0  0  0
 21 24  1  0  0  0  0
 21 25  1  0  0  0  0
 21 26  1  0  0  0  0
 11 14  1  0  0  0  0
 11 15  1  0  0  0  0
 11 16  1  0  0  0  0
 38 40  1  0  0  0  0
 38 41  1  0  0  0  0
 38 42  1  0  0  0  0
 28 33  1  0  0  0  0
 18 23  1  0  0  0  0
  8 13  1  0  0  0  0
 37 39  1  0  0  0  0
  7 12  1  0  0  0  0
 27 32  1  0  0  0  0
 17 22  1  0  0  0  0
M  END
$$$$

  -OEChem-05262214473D

 42 41  0     1  0  0  0  0  0999 V2000
   -5.7851   -0.9580    0.6237 C   0  0  0  0  0  0  0  0  0  0  0  0
   -6.2213    0.1296    0.2652 O   0  0  0  0  0  0  0  0  0  0  0  0
   -6.7088   -2.1270    0.7168 C   0  0  0  0  0  0  0  0  0  0  0  0
   -7.1713   -2.2193    1.7126 H   0  0  0  0  0  0  0  0  0  0  0  0
   -7.5511   -2.0547    0.0101 H   0  0  0  0  0  0  0  0  0  0  0  0
   -6.2485   -3.1083    0.5191 H   0  0  0  0  0  0  0  0  0  0  0  0
   -4.4733   -1.2411    0.9668 N   0  0  0  0  0  0  0  0  0  0  0  0
   -3.4203   -0.2603    0.9449 C   0  0  2  0  0  0  0  0  0  0  0  0
   -2.1242   -0.9699    0.5759 C   0  0  0  0  0  0  0  0  0  0  0  0
   -1.8694   -2.1225    0.9189 O   0  0  0  0  0  0  0  0  0  0  0  0
   -3.2916    0.4435    2.2868 C   0  0  0  0  0  0  0  0  0  0  0  0
   -4.2421   -2.1920    1.2489 H   0  0  0  0  0  0  0  0  0  0  0  0
   -3.6772    0.4622    0.1625 H   0  0  0  0  0  0  0  0  0  0  0  0
   -3.0345   -0.2644    3.0832 H   0  0  0  0  0  0  0  0  0  0  0  0
   -2.5093    1.2092    2.2599 H   0  0  0  0  0  0  0  0  0  0  0  0
   -4.2338    0.9283    2.5645 H   0  0  0  0  0  0  0  0  0  0  0  0
   -1.2626   -0.1515   -0.1463 N   0  0  0  0  0  0  0  0  0  0  0  0
    0.0431   -0.5785   -0.5755 C   0  0  2  0  0  0  0  0  0  0  0  0
    1.0380   -0.2241    0.5218 C   0  0  0  0  0  0  0  0  0  0  0  0
    0.7179    0.3620    1.5538 O   0  0  0  0  0  0  0  0  0  0  0  0
    0.4327    0.0726   -1.8935 C   0  0  0  0  0  0  0  0  0  0  0  0
   -1.5766    0.7776   -0.4197 H   0  0  0  0  0  0  0  0  0  0  0  0
   -0.0021   -1.6669   -0.6907 H   0  0  0  0  0  0  0  0  0  0  0  0
    0.4832    1.1634   -1.7976 H   0  0  0  0  0  0  0  0  0  0  0  0
    1.4140   -0.2750   -2.2329 H   0  0  0  0  0  0  0  0  0  0  0  0
   -0.2999   -0.1589   -2.6741 H   0  0  0  0  0  0  0  0  0  0  0  0
    2.3368   -0.6001    0.1969 N   0  0  0  0  0  0  0  0  0  0  0  0
    3.4632   -0.3364    1.0531 C   0  0  2  0  0  0  0  0  0  0  0  0
    4.6824   -0.1083    0.1694 C   0  0  0  0  0  0  0  0  0  0  0  0
    4.8578   -0.6956   -0.8962 O   0  0  0  0  0  0  0  0  0  0  0  0
    3.7016   -1.4832    2.0229 C   0  0  0  0  0  0  0  0  0  0  0  0
    2.5006   -1.1181   -0.6642 H   0  0  0  0  0  0  0  0  0  0  0  0
    3.2336    0.5824    1.6037 H   0  0  0  0  0  0  0  0  0  0  0  0
    3.9331   -2.4124    1.4895 H   0  0  0  0  0  0  0  0  0  0  0  0
    4.5410   -1.2686    2.6925 H   0  0  0  0  0  0  0  0  0  0  0  0
    2.8132   -1.6652    2.6372 H   0  0  0  0  0  0  0  0  0  0  0  0
    5.5726    0.7959    0.7315 N   0  0  0  0  0  0  0  0  0  0  0  0
    6.8261    1.1473    0.1060 C   0  0  0  0  0  0  0  0  0  0  0  0
    5.3276    1.2651    1.5984 H   0  0  0  0  0  0  0  0  0  0  0  0
    7.6228    0.4908    0.4858 H   0  0  0  0  0  0  0  0  0  0  0  0
    6.7389    1.0253   -0.9837 H   0  0  0  0  0  0  0  0  0  0  0  0
    7.0714    2.1940    0.3392 H   0  0  0  0  0  0  0  0  0  0  0  0
  1  3  1  0  0  0  0
  1  7  1  0  0  0  0
  1  2  2  0  0  0  0
 28 29  1  0  0  0  0
 29 37  1  0  0  0  0
 29 30  2  0  0  0  0
 18 19  1  0  0  0  0
 19 27  1  0  0  0  0
 19 20  2  0  0  0  0
  8  9  1  0  0  0  0
  9 17  1  0  0  0  0
  9 10  2  0  0  0  0
 28 31  1  0  0  0  0
 18 21  1  0  0  0  0
  8 11  1  0  0  0  0
 37 38  1  0  0  0  0
 27 28  1  0  0  0  0
 17 18  1  0  0  0  0
  7  8  1  0  0  0  0
  3  4  1  0  0  0  0
  3  5  1  0  0  0  0
  3  6  1  0  0  0  0
 31 34  1  0  0  0  0
 31 35  1  0  0  0  0
 31 36  1  0  0  0  0
 21 24  1  0  0  0  0
 21 25  1  0  0  0  0
 21 26  1  0  0  0  0
 11 14  1  0  0  0  0
 11 15  1  0  0  0  0
 11 16  1  0  0  0  0
 38 40  1  0  0  0  0
 38 41  1  0  0  0  0
 38 42  1  0  0  0  0
 28 33  1  0  0  0  0
 18 23  1  0  0  0  0
  8 13  1  0  0  0  0
 37 39  1  0  0  0  0
  7 12  1  0  0  0  0
 27 32  1  0  0  0  0
 17 22  1  0  0  0  0
M  END
$$$$

  -OEChem-05262214473D

 42 41  0     1  0  0  0  0  0999 V2000
   -5.7851   -0.9580    0.6237 C   0  0  0  0  0  0  0  0  0  0  0  0
   -6.2213    0.1296    0.2652 O   0  0  0  0  0  0  0  0  0  0  0  0
   -6.7088   -2.1270    0.7168 C   0  0  0  0  0  0  0  0  0  0  0  0
   -7.1713   -2.2193    1.7126 H   0  0  0  0  0  0  0  0  0  0  0  0
   -7.5511   -2.0547    0.0101 H   0  0  0  0  0  0  0  0  0  0  0  0
   -6.2485   -3.1083    0.5191 H   0  0  0  0  0  0  0  0  0  0  0  0
   -4.4733   -1.2411    0.9668 N   0  0  0  0  0  0  0  0  0  0  0  0
   -3.4203   -0.2603    0.9449 C   0  0  2  0  0  0  0  0  0  0  0  0
   -2.1242   -0.9699    0.5759 C   0  0  0  0  0  0  0  0  0  0  0  0
   -1.8694   -2.1225    0.9189 O   0  0  0  0  0  0  0  0  0  0  0  0
   -3.2916    0.4435    2.2868 C   0  0  0  0  0  0  0  0  0  0  0  0
   -4.2421   -2.1920    1.2489 H   0  0  0  0  0  0  0  0  0  0  0  0
   -3.6772    0.4622    0.1625 H   0  0  0  0  0  0  0  0  0  0  0  0
   -3.0345   -0.2644    3.0832 H   0  0  0  0  0  0  0  0  0  0  0  0
   -2.5093    1.2092    2.2599 H   0  0  0  0  0  0  0  0  0  0  0  0
   -4.2338    0.9283    2.5645 H   0  0  0  0  0  0  0  0  0  0  0  0
   -1.2626   -0.1515   -0.1463 N   0  0  0  0  0  0  0  0  0  0  0  0
    0.0431   -0.5785   -0.5755 C   0  0  2  0  0  0  0  0  0  0  0  0
    1.0380   -0.2241    0.5218 C   0  0  0  0  0  0  0  0  0  0  0  0
    0.6966    0.1132    1.6535 O   0  0  0  0  0  0  0  0  0  0  0  0
    0.4327    0.0726   -1.8935 C   0  0  0  0  0  0  0  0  0  0  0  0
   -1.5766    0.7776   -0.4197 H   0  0  0  0  0  0  0  0  0  0  0  0
   -0.0021   -1.6669   -0.6907 H   0  0  0  0  0  0  0  0  0  0  0  0
    0.4832    1.1634   -1.7976 H   0  0  0  0  0  0  0  0  0  0  0  0
    1.4140   -0.2750   -2.2329 H   0  0  0  0  0  0  0  0  0  0  0  0
   -0.2999   -0.1589   -2.6741 H   0  0  0  0  0  0  0  0  0  0  0  0
    2.3548   -0.2860    0.0791 N   0  0  0  0  0  0  0  0  0  0  0  0
    3.4767    0.0453    0.9176 C   0  0  2  0  0  0  0  0  0  0  0  0
    4.5634    0.6440    0.0344 C   0  0  0  0  0  0  0  0  0  0  0  0
    4.7605    0.2834   -1.1242 O   0  0  0  0  0  0  0  0  0  0  0  0
    3.9923   -1.1774    1.6605 C   0  0  0  0  0  0  0  0  0  0  0  0
    2.5437   -0.6152   -0.8657 H   0  0  0  0  0  0  0  0  0  0  0  0
    3.1270    0.8004    1.6300 H   0  0  0  0  0  0  0  0  0  0  0  0
    4.3471   -1.9451    0.9632 H   0  0  0  0  0  0  0  0  0  0  0  0
    4.8275   -0.9182    2.3196 H   0  0  0  0  0  0  0  0  0  0  0  0
    3.2011   -1.6242    2.2722 H   0  0  0  0  0  0  0  0  0  0  0  0
    5.3151    1.5979    0.7060 N   0  0  0  0  0  0  0  0  0  0  0  0
    6.4327    2.2804    0.0968 C   0  0  0  0  0  0  0  0  0  0  0  0
    5.0559    1.8634    1.6516 H   0  0  0  0  0  0  0  0  0  0  0  0
    7.3618    1.7356    0.3204 H   0  0  0  0  0  0  0  0  0  0  0  0
    6.2862    2.3235   -0.9925 H   0  0  0  0  0  0  0  0  0  0  0  0
    6.5013    3.3022    0.4983 H   0  0  0  0  0  0  0  0  0  0  0  0
  1  3  1  0  0  0  0
  1  7  1  0  0  0  0
  1  2  2  0  0  0  0
 28 29  1  0  0  0  0
 29 37  1  0  0  0  0
 29 30  2  0  0  0  0
 18 19  1  0  0  0  0
 19 27  1  0  0  0  0
 19 20  2  0  0  0  0
  8  9  1  0  0  0  0
  9 17  1  0  0  0  0
  9 10  2  0  0  0  0
 28 31  1  0  0  0  0
 18 21  1  0  0  0  0
  8 11  1  0  0  0  0
 37 38  1  0  0  0  0
 27 28  1  0  0  0  0
 17 18  1  0  0  0  0
  7  8  1  0  0  0  0
  3  4  1  0  0  0  0
  3  5  1  0  0  0  0
  3  6  1  0  0  0  0
 31 34  1  0  0  0  0
 31 35  1  0  0  0  0
 31 36  1  0  0  0  0
 21 24  1  0  0  0  0
 21 25  1  0  0  0  0
 21 26  1  0  0  0  0
 11 14  1  0  0  0  0
 11 15  1  0  0  0  0
 11 16  1  0  0  0  0
 38 40  1  0  0  0  0
 38 41  1  0  0  0  0
 38 42  1  0  0  0  0
 28 33  1  0  0  0  0
 18 23  1  0  0  0  0
  8 13  1  0  0  0  0
 37 39  1  0  0  0  0
  7 12  1  0  0  0  0
 27 32  1  0  0  0  0
 17 22  1  0  0  0  0
M  END
$$$$

  -OEChem-05262214473D

 42 41  0     1  0  0  0  0  0999 V2000
   -5.7851   -0.9580    0.6237 C   0  0  0  0  0  0  0  0  0  0  0  0
   -6.2213    0.1296    0.2652 O   0  0  0  0  0  0  0  0  0  0  0  0
   -6.7088   -2.1270    0.7168 C   0  0  0  0  0  0  0  0  0  0  0  0
   -7.1713   -2.2193    1.7126 H   0  0  0  0  0  0  0  0  0  0  0  0
   -7.5511   -2.0547    0.0101 H   0  0  0  0  0  0  0  0  0  0  0  0
   -6.2485   -3.1083    0.5191 H   0  0  0  0  0  0  0  0  0  0  0  0
   -4.4733   -1.2411    0.9668 N   0  0  0  0  0  0  0  0  0  0  0  0
   -3.4203   -0.2603    0.9449 C   0  0  2  0  0  0  0  0  0  0  0  0
   -2.1242   -0.9699    0.5759 C   0  0  0  0  0  0  0  0  0  0  0  0
   -1.8694   -2.1225    0.9189 O   0  0  0  0  0  0  0  0  0  0  0  0
   -3.2916    0.4435    2.2868 C   0  0  0  0  0  0  0  0  0  0  0  0
   -4.2421   -2.1920    1.2489 H   0  0  0  0  0  0  0  0  0  0  0  0
   -3.6772    0.4622    0.1625 H   0  0  0  0  0  0  0  0  0  0  0  0
   -3.0345   -0.2644    3.0832 H   0  0  0  0  0  0  0  0  0  0  0  0
   -2.5093    1.2092    2.2599 H   0  0  0  0  0  0  0  0  0  0  0  0
   -4.2338    0.9283    2.5645 H   0  0  0  0  0  0  0  0  0  0  0  0
   -1.2626   -0.1515   -0.1463 N   0  0  0  0  0  0  0  0  0  0  0  0
    0.0431   -0.5785   -0.5755 C   0  0  2  0  0  0  0  0  0  0  0  0
    1.0380   -0.2241    0.5218 C   0  0  0  0  0  0  0  0  0  0  0  0
    0.7284   -0.1480    1.7090 O   0  0  0  0  0  0  0  0  0  0  0  0
    0.4327    0.0726   -1.8935 C   0  0  0  0  0  0  0  0  0  0  0  0
   -1.5766    0.7776   -0.4197 H   0  0  0  0  0  0  0  0  0  0  0  0
   -0.0021   -1.6669   -0.6907 H   0  0  0  0  0  0  0  0  0  0  0  0
    0.4832    1.1634   -1.7976 H   0  0  0  0  0  0  0  0  0  0  0  0
    1.4140   -0.2750   -2.2329 H   0  0  0  0  0  0  0  0  0  0  0  0
   -0.2999   -0.1589   -2.6741 H   0  0  0  0  0  0  0  0  0  0  0  0
    2.3066    0.0407    0.0173 N   0  0  0  0  0  0  0  0  0  0  0  0
    3.4104    0.4393    0.8504 C   0  0  2  0  0  0  0  0  0  0  0  0
    4.3000    1.3713    0.0383 C   0  0  0  0  0  0  0  0  0  0  0  0
    4.4703    1.2493   -1.1730 O   0  0  0  0  0  0  0  0  0  0  0  0
    4.1943   -0.7665    1.3447 C   0  0  0  0  0  0  0  0  0  0  0  0
    2.4794   -0.0874   -0.9778 H   0  0  0  0  0  0  0  0  0  0  0  0
    2.9849    0.9867    1.6986 H   0  0  0  0  0  0  0  0  0  0  0  0
    4.6281   -1.3275    0.5089 H   0  0  0  0  0  0  0  0  0  0  0  0
    5.0164   -0.4633    2.0014 H   0  0  0  0  0  0  0  0  0  0  0  0
    3.5462   -1.4505    1.9032 H   0  0  0  0  0  0  0  0  0  0  0  0
    4.9153    2.3288    0.8325 N   0  0  0  0  0  0  0  0  0  0  0  0
    5.8409    3.3030    0.3032 C   0  0  0  0  0  0  0  0  0  0  0  0
    4.6852    2.3816    1.8204 H   0  0  0  0  0  0  0  0  0  0  0  0
    6.8677    2.9173    0.3868 H   0  0  0  0  0  0  0  0  0  0  0  0
    5.6064    3.4947   -0.7543 H   0  0  0  0  0  0  0  0  0  0  0  0
    5.7535    4.2394    0.8737 H   0  0  0  0  0  0  0  0  0  0  0  0
  1  3  1  0  0  0  0
  1  7  1  0  0  0  0
  1  2  2  0  0  0  0
 28 29  1  0  0  0  0
 29 37  1  0  0  0  0
 29 30  2  0  0  0  0
 18 19  1  0  0  0  0
 19 27  1  0  0  0  0
 19 20  2  0  0  0  0
  8  9  1  0  0  0  0
  9 17  1  0  0  0  0
  9 10  2  0  0  0  0
 28 31  1  0  0  0  0
 18 21  1  0  0  0  0
  8 11  1  0  0  0  0
 37 38  1  0  0  0  0
 27 28  1  0  0  0  0
 17 18  1  0  0  0  0
  7  8  1  0  0  0  0
  3  4  1  0  0  0  0
  3  5  1  0  0  0  0
  3  6  1  0  0  0  0
 31 34  1  0  0  0  0
 31 35  1  0  0  0  0
 31 36  1  0  0  0  0
 21 24  1  0  0  0  0
 21 25  1  0  0  0  0
 21 26  1  0  0  0  0
 11 14  1  0  0  0  0
 11 15  1  0  0  0  0
 11 16  1  0  0  0  0
 38 40  1  0  0  0  0
 38 41  1  0  0  0  0
 38 42  1  0  0  0  0
 28 33  1  0  0  0  0
 18 23  1  0  0  0  0
  8 13  1  0  0  0  0
 37 39  1  0  0  0  0
  7 12  1  0  0  0  0
 27 32  1  0  0  0  0
 17 22  1  0  0  0  0
M  END
$$$$

  -OEChem-05262214473D

 42 41  0     1  0  0  0  0  0999 V2000
   -5.7851   -0.9580    0.6237 C   0  0  0  0  0  0  0  0  0  0  0  0
   -6.2213    0.1296    0.2652 O   0  0  0  0  0  0  0  0  0  0  0  0
   -6.7088   -2.1270    0.7168 C   0  0  0  0  0  0  0  0  0  0  0  0
   -7.1713   -2.2193    1.7126 H   0  0  0  0  0  0  0  0  0  0  0  0
   -7.5511   -2.0547    0.0101 H   0  0  0  0  0  0  0  0  0  0  0  0
   -6.2485   -3.1083    0.5191 H   0  0  0  0  0  0  0  0  0  0  0  0
   -4.4733   -1.2411    0.9668 N   0  0  0  0  0  0  0  0  0  0  0  0
   -3.4203   -0.2603    0.9449 C   0  0  2  0  0  0  0  0  0  0  0  0
   -2.1242   -0.9699    0.5759 C   0  0  0  0  0  0  0  0  0  0  0  0
   -1.8694   -2.1225    0.9189 O   0  0  0  0  0  0  0  0  0  0  0  0
   -3.2916    0.4435    2.2868 C   0  0  0  0  0  0  0  0  0  0  0  0
   -4.2421   -2.1920    1.2489 H   0  0  0  0  0  0  0  0  0  0  0  0
   -3.6772    0.4622    0.1625 H   0  0  0  0  0  0  0  0  0  0  0  0
   -3.0345   -0.2644    3.0832 H   0  0  0  0  0  0  0  0  0  0  0  0
   -2.5093    1.2092    2.2599 H   0  0  0  0  0  0  0  0  0  0  0  0
   -4.2338    0.9283    2.5645 H   0  0  0  0  0  0  0  0  0  0  0  0
   -1.2626   -0.1515   -0.1463 N   0  0  0  0  0  0  0  0  0  0  0  0
    0.0431   -0.5785   -0.5755 C   0  0  2  0  0  0  0  0  0  0  0  0
    1.0380   -0.2241    0.5218 C   0  0  0  0  0  0  0  0  0  0  0  0
    0.8112   -0.4037    1.7165 O   0  0  0  0  0  0  0  0  0  0  0  0
    0.4327    0.0726   -1.8935 C   0  0  0  0  0  0  0  0  0  0  0  0
   -1.5766    0.7776   -0.4197 H   0  0  0  0  0  0  0  0  0  0  0  0
   -0.0021   -1.6669   -0.6907 H   0  0  0  0  0  0  0  0  0  0  0  0
    0.4832    1.1634   -1.7976 H   0  0  0  0  0  0  0  0  0  0  0  0
    1.4140   -0.2750   -2.2329 H   0  0  0  0  0  0  0  0  0  0  0  0
   -0.2999   -0.1589   -2.6741 H   0  0  0  0  0  0  0  0  0  0  0  0
    2.1953    0.3577    0.0158 N   0  0  0  0  0  0  0  0  0  0  0  0
    3.2689    0.8189    0.8562 C   0  0  2  0  0  0  0  0  0  0  0  0
    3.9102    2.0240    0.1810 C   0  0  0  0  0  0  0  0  0  0  0  0
    4.0069    2.1365   -1.0393 O   0  0  0  0  0  0  0  0  0  0  0  0
    4.2937   -0.2786    1.0969 C   0  0  0  0  0  0  0  0  0  0  0  0
    2.3121    0.4294   -0.9930 H   0  0  0  0  0  0  0  0  0  0  0  0
    2.8171    1.1286    1.8049 H   0  0  0  0  0  0  0  0  0  0  0  0
    4.7571   -0.6018    0.1577 H   0  0  0  0  0  0  0  0  0  0  0  0
    5.0949    0.0651    1.7596 H   0  0  0  0  0  0  0  0  0  0  0  0
    3.8248   -1.1559    1.5554 H   0  0  0  0  0  0  0  0  0  0  0  0
    4.4004    2.9388    1.1023 N   0  0  0  0  0  0  0  0  0  0  0  0
    5.0910    4.1455    0.7111 C   0  0  0  0  0  0  0  0  0  0  0  0
    4.2405    2.7844    2.0934 H   0  0  0  0  0  0  0  0  0  0  0  0
    6.1740    3.9554    0.6806 H   0  0  0  0  0  0  0  0  0  0  0  0
    4.7456    4.4588   -0.2852 H   0  0  0  0  0  0  0  0  0  0  0  0
    4.8790    4.9418    1.4398 H   0  0  0  0  0  0  0  0  0  0  0  0
  1  3  1  0  0  0  0
  1  7  1  0  0  0  0
  1  2  2  0  0  0  0
 28 29  1  0  0  0  0
 29 37  1  0  0  0  0
 29 30  2  0  0  0  0
 18 19  1  0  0  0  0
 19 27  1  0  0  0  0
 19 20  2  0  0  0  0
  8  9  1  0  0  0  0
  9 17  1  0  0  0  0
  9 10  2  0  0  0  0
 28 31  1  0  0  0  0
 18 21  1  0  0  0  0
  8 11  1  0  0  0  0
 37 38  1  0  0  0  0
 27 28  1  0  0  0  0
 17 18  1  0  0  0  0
  7  8  1  0  0  0  0
  3  4  1  0  0  0  0
  3  5  1  0  0  0  0
  3  6  1  0  0  0  0
 31 34  1  0  0  0  0
 31 35  1  0  0  0  0
 31 36  1  0  0  0  0
 21 24  1  0  0  0  0
 21 25  1  0  0  0  0
 21 26  1  0  0  0  0
 11 14  1  0  0  0  0
 11 15  1  0  0  0  0
 11 16  1  0  0  0  0
 38 40  1  0  0  0  0
 38 41  1  0  0  0  0
 38 42  1  0  0  0  0
 28 33  1  0  0  0  0
 18 23  1  0  0  0  0
  8 13  1  0  0  0  0
 37 39  1  0  0  0  0
  7 12  1  0  0  0  0
 27 32  1  0  0  0  0
 17 22  1  0  0  0  0
M  END
$$$$

  -OEChem-05262214473D

 42 41  0     1  0  0  0  0  0999 V2000
   -5.7851   -0.9580    0.6237 C   0  0  0  0  0  0  0  0  0  0  0  0
   -6.2213    0.1296    0.2652 O   0  0  0  0  0  0  0  0  0  0  0  0
   -6.7088   -2.1270    0.7168 C   0  0  0  0  0  0  0  0  0  0  0  0
   -7.1713   -2.2193    1.7126 H   0  0  0  0  0  0  0  0  0  0  0  0
   -7.5511   -2.0547    0.0101 H   0  0  0  0  0  0  0  0  0  0  0  0
   -6.2485   -3.1083    0.5191 H   0  0  0  0  0  0  0  0  0  0  0  0
   -4.4733   -1.2411    0.9668 N   0  0  0  0  0  0  0  0  0  0  0  0
   -3.4203   -0.2603    0.9449 C   0  0  2  0  0  0  0  0  0  0  0  0
   -2.1242   -0.9699    0.5759 C   0  0  0  0  0  0  0  0  0  0  0  0
   -1.8694   -2.1225    0.9189 O   0  0  0  0  0  0  0  0  0  0  0  0
   -3.2916    0.4435    2.2868 C   0  0  0  0  0  0  0  0  0  0  0  0
   -4.2421   -2.1920    1.2489 H   0  0  0  0  0  0  0  0  0  0  0  0
   -3.6772    0.4622    0.1625 H   0  0  0  0  0  0  0  0  0  0  0  0
   -3.0345   -0.2644    3.0832 H   0  0  0  0  0  0  0  0  0  0  0  0
   -2.5093    1.2092    2.2599 H   0  0  0  0  0  0  0  0  0  0  0  0
   -4.2338    0.9283    2.5645 H   0  0  0  0  0  0  0  0  0  0  0  0
   -1.2626   -0.1515   -0.1463 N   0  0  0  0  0  0  0  0  0  0  0  0
    0.0431   -0.5785   -0.5755 C   0  0  2  0  0  0  0  0  0  0  0  0
    1.0380   -0.2241    0.5218 C   0  0  0  0  0  0  0  0  0  0  0  0
    0.9393   -0.6366    1.6755 O   0  0  0  0  0  0  0  0  0  0  0  0
    0.4327    0.0726   -1.8935 C   0  0  0  0  0  0  0  0  0  0  0  0
   -1.5766    0.7776   -0.4197 H   0  0  0  0  0  0  0  0  0  0  0  0
   -0.0021   -1.6669   -0.6907 H   0  0  0  0  0  0  0  0  0  0  0  0
    0.4832    1.1634   -1.7976 H   0  0  0  0  0  0  0  0  0  0  0  0
    1.4140   -0.2750   -2.2329 H   0  0  0  0  0  0  0  0  0  0  0  0
   -0.2999   -0.1589   -2.6741 H   0  0  0  0  0  0  0  0  0  0  0  0
    2.0287    0.6434    0.0747 N   0  0  0  0  0  0  0  0  0  0  0  0
    3.0617    1.1582    0.9345 C   0  0  2  0  0  0  0  0  0  0  0  0
    3.4205    2.5577    0.4526 C   0  0  0  0  0  0  0  0  0  0  0  0
    3.4019    2.8845   -0.7323 O   0  0  0  0  0  0  0  0  0  0  0  0
    4.2839    0.2532    0.9342 C   0  0  0  0  0  0  0  0  0  0  0  0
    2.0532    0.9000   -0.9103 H   0  0  0  0  0  0  0  0  0  0  0  0
    2.6350    1.2163    1.9417 H   0  0  0  0  0  0  0  0  0  0  0  0
    4.7252    0.1826   -0.0667 H   0  0  0  0  0  0  0  0  0  0  0  0
    5.0576    0.6311    1.6106 H   0  0  0  0  0  0  0  0  0  0  0  0
    4.0182   -0.7606    1.2525 H   0  0  0  0  0  0  0  0  0  0  0  0
    3.8056    3.3865    1.4971 N   0  0  0  0  0  0  0  0  0  0  0  0
    4.2340    4.7505    1.2927 C   0  0  0  0  0  0  0  0  0  0  0  0
    3.7524    3.0445    2.4521 H   0  0  0  0  0  0  0  0  0  0  0  0
    5.3280    4.7791    1.1816 H   0  0  0  0  0  0  0  0  0  0  0  0
    3.7627    5.1503    0.3827 H   0  0  0  0  0  0  0  0  0  0  0  0
    3.9374    5.3615    2.1580 H   0  0  0  0  0  0  0  0  0  0  0  0
  1  3  1  0  0  0  0
  1  7  1  0  0  0  0
  1  2  2  0  0  0  0
 28 29  1  0  0  0  0
 29 37  1  0  0  0  0
 29 30  2  0  0  0  0
 18 19  1  0  0  0  0
 19 27  1  0  0  0  0
 19 20  2  0  0  0  0
  8  9  1  0  0  0  0
  9 17  1  0  0  0  0
  9 10  2  0  0  0  0
 28 31  1  0  0  0  0
 18 21  1  0  0  0  0
  8 11  1  0  0  0  0
 37 38  1  0  0  0  0
 27 28  1  0  0  0  0
 17 18  1  0  0  0  0
  7  8  1  0  0  0  0
  3  4  1  0  0  0  0
  3  5  1  0  0  0  0
  3  6  1  0  0  0  0
 31 34  1  0  0  0  0
 31 35  1  0  0  0  0
 31 36  1  0  0  0  0
 21 24  1  0  0  0  0
 21 25  1  0  0  0  0
 21 26  1  0  0  0  0
 11 14  1  0  0  0  0
 11 15  1  0  0  0  0
 11 16  1  0  0  0  0
 38 40  1  0  0  0  0
 38 41  1  0  0  0  0
 38 42  1  0  0  0  0
 28 33  1  0  0  0  0
 18 23  1  0  0  0  0
  8 13  1  0  0  0  0
 37 39  1  0  0  0  0
  7 12  1  0  0  0  0
 27 32  1  0  0  0  0
 17 22  1  0  0  0  0
M  END
$$$$

  -OEChem-05262214473D

 42 41  0     1  0  0  0  0  0999 V2000
   -5.7851   -0.9580    0.6237 C   0  0  0  0  0  0  0  0  0  0  0  0
   -6.2213    0.1296    0.2652 O   0  0  0  0  0  0  0  0  0  0  0  0
   -6.7088   -2.1270    0.7168 C   0  0  0  0  0  0  0  0  0  0  0  0
   -7.1713   -2.2193    1.7126 H   0  0  0  0  0  0  0  0  0  0  0  0
   -7.5511   -2.0547    0.0101 H   0  0  0  0  0  0  0  0  0  0  0  0
   -6.2485   -3.1083    0.5191 H   0  0  0  0  0  0  0  0  0  0  0  0
   -4.4733   -1.2411    0.9668 N   0  0  0  0  0  0  0  0  0  0  0  0
   -3.4203   -0.2603    0.9449 C   0  0  2  0  0  0  0  0  0  0  0  0
   -2.1242   -0.9699    0.5759 C   0  0  0  0  0  0  0  0  0  0  0  0
   -1.8694   -2.1225    0.9189 O   0  0  0  0  0  0  0  0  0  0  0  0
   -3.2916    0.4435    2.2868 C   0  0  0  0  0  0  0  0  0  0  0  0
   -4.2421   -2.1920    1.2489 H   0  0  0  0  0  0  0  0  0  0  0  0
   -3.6772    0.4622    0.1625 H   0  0  0  0  0  0  0  0  0  0  0  0
   -3.0345   -0.2644    3.0832 H   0  0  0  0  0  0  0  0  0  0  0  0
   -2.5093    1.2092    2.2599 H   0  0  0  0  0  0  0  0  0  0  0  0
   -4.2338    0.9283    2.5645 H   0  0  0  0  0  0  0  0  0  0  0  0
   -1.2626   -0.1515   -0.1463 N   0  0  0  0  0  0  0  0  0  0  0  0
    0.0431   -0.5785   -0.5755 C   0  0  2  0  0  0  0  0  0  0  0  0
    1.0380   -0.2241    0.5218 C   0  0  0  0  0  0  0  0  0  0  0  0
    1.1040   -0.8307    1.5889 O   0  0  0  0  0  0  0  0  0  0  0  0
    0.4327    0.0726   -1.8935 C   0  0  0  0  0  0  0  0  0  0  0  0
   -1.5766    0.7776   -0.4197 H   0  0  0  0  0  0  0  0  0  0  0  0
   -0.0021   -1.6669   -0.6907 H   0  0  0  0  0  0  0  0  0  0  0  0
    0.4832    1.1634   -1.7976 H   0  0  0  0  0  0  0  0  0  0  0  0
    1.4140   -0.2750   -2.2329 H   0  0  0  0  0  0  0  0  0  0  0  0
   -0.2999   -0.1589   -2.6741 H   0  0  0  0  0  0  0  0  0  0  0  0
    1.8180    0.8783    0.1899 N   0  0  0  0  0  0  0  0  0  0  0  0
    2.8030    1.4341    1.0799 C   0  0  2  0  0  0  0  0  0  0  0  0
    2.8644    2.9359    0.8347 C   0  0  0  0  0  0  0  0  0  0  0  0
    2.6965    3.4422   -0.2728 O   0  0  0  0  0  0  0  0  0  0  0  0
    4.1654    0.7925    0.8674 C   0  0  0  0  0  0  0  0  0  0  0  0
    1.7204    1.2923   -0.7352 H   0  0  0  0  0  0  0  0  0  0  0  0
    2.4509    1.2440    2.0997 H   0  0  0  0  0  0  0  0  0  0  0  0
    4.5345    0.9723   -0.1489 H   0  0  0  0  0  0  0  0  0  0  0  0
    4.9071    1.1961    1.5646 H   0  0  0  0  0  0  0  0  0  0  0  0
    4.1130   -0.2916    1.0151 H   0  0  0  0  0  0  0  0  0  0  0  0
    3.1713    3.6412    1.9899 N   0  0  0  0  0  0  0  0  0  0  0  0
    3.3285    5.0768    2.0084 C   0  0  0  0  0  0  0  0  0  0  0  0
    3.2540    3.1440    2.8718 H   0  0  0  0  0  0  0  0  0  0  0  0
    4.3875    5.3322    1.8558 H   0  0  0  0  0  0  0  0  0  0  0  0
    2.7245    5.5220    1.2040 H   0  0  0  0  0  0  0  0  0  0  0  0
    2.9929    5.4698    2.9794 H   0  0  0  0  0  0  0  0  0  0  0  0
  1  3  1  0  0  0  0
  1  7  1  0  0  0  0
  1  2  2  0  0  0  0
 28 29  1  0  0  0  0
 29 37  1  0  0  0  0
 29 30  2  0  0  0  0
 18 19  1  0  0  0  0
 19 27  1  0  0  0  0
 19 20  2  0  0  0  0
  8  9  1  0  0  0  0
  9 17  1  0  0  0  0
  9 10  2  0  0  0  0
 28 31  1  0  0  0  0
 18 21  1  0  0  0  0
  8 11  1  0  0  0  0
 37 38  1  0  0  0  0
 27 28  1  0  0  0  0
 17 18  1  0  0  0  0
  7  8  1  0  0  0  0
  3  4  1  0  0  0  0
  3  5  1  0  0  0  0
  3  6  1  0  0  0  0
 31 34  1  0  0  0  0
 31 35  1  0  0  0  0
 31 36  1  0  0  0  0
 21 24  1  0  0  0  0
 21 25  1  0  0  0  0
 21 26  1  0  0  0  0
 11 14  1  0  0  0  0
 11 15  1  0  0  0  0
 11 16  1  0  0  0  0
 38 40  1  0  0  0  0
 38 41  1  0  0  0  0
 38 42  1  0  0  0  0
 28 33  1  0  0  0  0
 18 23  1  0  0  0  0
  8 13  1  0  0  0  0
 37 39  1  0  0  0  0
  7 12  1  0  0  0  0
 27 32  1  0  0  0  0
 17 22  1  0  0  0  0
M  END
$$$$

  -OEChem-05262214473D

 42 41  0     1  0  0  0  0  0999 V2000
   -5.7851   -0.9580    0.6237 C   0  0  0  0  0  0  0  0  0  0  0  0
   -6.2213    0.1296    0.2652 O   0  0  0  0  0  0  0  0  0  0  0  0
   -6.7088   -2.1270    0.7168 C   0  0  0  0  0  0  0  0  0  0  0  0
   -7.1713   -2.2193    1.7126 H   0  0  0  0  0  0  0  0  0  0  0  0
   -7.5511   -2.0547    0.0101 H   0  0  0  0  0  0  0  0  0  0  0  0
   -6.2485   -3.1083    0.5191 H   0  0  0  0  0  0  0  0  0  0  0  0
   -4.4733   -1.2411    0.9668 N   0  0  0  0  0  0  0  0  0  0  0  0
   -3.4203   -0.2603    0.9449 C   0  0  2  0  0  0  0  0  0  0  0  0
   -2.1242   -0.9699    0.5759 C   0  0  0  0  0  0  0  0  0  0  0  0
   -1.8694   -2.1225    0.9189 O   0  0  0  0  0  0  0  0  0  0  0  0
   -3.2916    0.4435    2.2868 C   0  0  0  0  0  0  0  0  0  0  0  0
   -4.2421   -2.1920    1.2489 H   0  0  0  0  0  0  0  0  0  0  0  0
   -3.6772    0.4622    0.1625 H   0  0  0  0  0  0  0  0  0  0  0  0
   -3.0345   -0.2644    3.0832 H   0  0  0  0  0  0  0  0  0  0  0  0
   -2.5093    1.2092    2.2599 H   0  0  0  0  0  0  0  0  0  0  0  0
   -4.2338    0.9283    2.5645 H   0  0  0  0  0  0  0  0  0  0  0  0
   -1.2626   -0.1515   -0.1463 N   0  0  0  0  0  0  0  0  0  0  0  0
    0.0431   -0.5785   -0.5755 C   0  0  2  0  0  0  0  0  0  0  0  0
    1.0380   -0.2241    0.5218 C   0  0  0  0  0  0  0  0  0  0  0  0
    1.2941   -0.9729    1.4625 O   0  0  0  0  0  0  0  0  0  0  0  0
    0.4327    0.0726   -1.8935 C   0  0  0  0  0  0  0  0  0  0  0  0
   -1.5766    0.7776   -0.4197 H   0  0  0  0  0  0  0  0  0  0  0  0
   -0.0021   -1.6669   -0.6907 H   0  0  0  0  0  0  0  0  0  0  0  0
    0.4832    1.1634   -1.7976 H   0  0  0  0  0  0  0  0  0  0  0  0
    1.4140   -0.2750   -2.2329 H   0  0  0  0  0  0  0  0  0  0  0  0
   -0.2999   -0.1589   -2.6741 H   0  0  0  0  0  0  0  0  0  0  0  0
    1.5776    1.0465    0.3535 N   0  0  0  0  0  0  0  0  0  0  0  0
    2.5105    1.6277    1.2826 C   0  0  2  0  0  0  0  0  0  0  0  0
    2.2797    3.1330    1.3012 C   0  0  0  0  0  0  0  0  0  0  0  0
    1.9388    3.7717    0.3078 O   0  0  0  0  0  0  0  0  0  0  0  0
    3.9463    1.3027    0.9013 C   0  0  0  0  0  0  0  0  0  0  0  0
    1.3363    1.5795   -0.4797 H   0  0  0  0  0  0  0  0  0  0  0  0
    2.2775    1.2097    2.2680 H   0  0  0  0  0  0  0  0  0  0  0  0
    4.1982    1.7134   -0.0833 H   0  0  0  0  0  0  0  0  0  0  0  0
    4.6535    1.7214    1.6248 H   0  0  0  0  0  0  0  0  0  0  0  0
    4.1027    0.2193    0.8593 H   0  0  0  0  0  0  0  0  0  0  0  0
    2.5409    3.6856    2.5472 N   0  0  0  0  0  0  0  0  0  0  0  0
    2.4361    5.1021    2.8093 C   0  0  0  0  0  0  0  0  0  0  0  0
    2.7793    3.0762    3.3241 H   0  0  0  0  0  0  0  0  0  0  0  0
    3.4165    5.5772    2.6571 H   0  0  0  0  0  0  0  0  0  0  0  0
    1.7018    5.5486    2.1227 H   0  0  0  0  0  0  0  0  0  0  0  0
    2.1098    5.2595    3.8480 H   0  0  0  0  0  0  0  0  0  0  0  0
  1  3  1  0  0  0  0
  1  7  1  0  0  0  0
  1  2  2  0  0  0  0
 28 29  1  0  0  0  0
 29 37  1  0  0  0  0
 29 30  2  0  0  0  0
 18 19  1  0  0  0  0
 19 27  1  0  0  0  0
 19 20  2  0  0  0  0
  8  9  1  0  0  0  0
  9 17  1  0  0  0  0
  9 10  2  0  0  0  0
 28 31  1  0  0  0  0
 18 21  1  0  0  0  0
  8 11  1  0  0  0  0
 37 38  1  0  0  0  0
 27 28  1  0  0  0  0
 17 18  1  0  0  0  0
  7  8  1  0  0  0  0
  3  4  1  0  0  0  0
  3  5  1  0  0  0  0
  3  6  1  0  0  0  0
 31 34  1  0  0  0  0
 31 35  1  0  0  0  0
 31 36  1  0  0  0  0
 21 24  1  0  0  0  0
 21 25  1  0  0  0  0
 21 26  1  0  0  0  0
 11 14  1  0  0  0  0
 11 15  1  0  0  0  0
 11 16  1  0  0  0  0
 38 40  1  0  0  0  0
 38 41  1  0  0  0  0
 38 42  1  0  0  0  0
 28 33  1  0  0  0  0
 18 23  1  0  0  0  0
  8 13  1  0  0  0  0
 37 39  1  0  0  0  0
  7 12  1  0  0  0  0
 27 32  1  0  0  0  0
 17 22  1  0  0  0  0
M  END
$$$$

  -OEChem-05262214473D

 42 41  0     1  0  0  0  0  0999 V2000
   -5.7851   -0.9580    0.6237 C   0  0  0  0  0  0  0  0  0  0  0  0
   -6.2213    0.1296    0.2652 O   0  0  0  0  0  0  0  0  0  0  0  0
   -6.7088   -2.1270    0.7168 C   0  0  0  0  0  0  0  0  0  0  0  0
   -7.1713   -2.2193    1.7126 H   0  0  0  0  0  0  0  0  0  0  0  0
   -7.5511   -2.0547    0.0101 H   0  0  0  0  0  0  0  0  0  0  0  0
   -6.2485   -3.1083    0.5191 H   0  0  0  0  0  0  0  0  0  0  0  0
   -4.4733   -1.2411    0.9668 N   0  0  0  0  0  0  0  0  0  0  0  0
   -3.4203   -0.2603    0.9449 C   0  0  2  0  0  0  0  0  0  0  0  0
   -2.1242   -0.9699    0.5759 C   0  0  0  0  0  0  0  0  0  0  0  0
   -1.8694   -2.1225    0.9189 O   0  0  0  0  0  0  0  0  0  0  0  0
   -3.2916    0.4435    2.2868 C   0  0  0  0  0  0  0  0  0  0  0  0
   -4.2421   -2.1920    1.2489 H   0  0  0  0  0  0  0  0  0  0  0  0
   -3.6772    0.4622    0.1625 H   0  0  0  0  0  0  0  0  0  0  0  0
   -3.0345   -0.2644    3.0832 H   0  0  0  0  0  0  0  0  0  0  0  0
   -2.5093    1.2092    2.2599 H   0  0  0  0  0  0  0  0  0  0  0  0
   -4.2338    0.9283    2.5645 H   0  0  0  0  0  0  0  0  0  0  0  0
   -1.2626   -0.1515   -0.1463 N   0  0  0  0  0  0  0  0  0  0  0  0
    0.0431   -0.5785   -0.5755 C   0  0  2  0  0  0  0  0  0  0  0  0
    1.0380   -0.2241    0.5218 C   0  0  0  0  0  0  0  0  0  0  0  0
    1.4965   -1.0533    1.3049 O   0  0  0  0  0  0  0  0  0  0  0  0
    0.4327    0.0726   -1.8935 C   0  0  0  0  0  0  0  0  0  0  0  0
   -1.5766    0.7776   -0.4197 H   0  0  0  0  0  0  0  0  0  0  0  0
   -0.0021   -1.6669   -0.6907 H   0  0  0  0  0  0  0  0  0  0  0  0
    0.4832    1.1634   -1.7976 H   0  0  0  0  0  0  0  0  0  0  0  0
    1.4140   -0.2750   -2.2329 H   0  0  0  0  0  0  0  0  0  0  0  0
   -0.2999   -0.1589   -2.6741 H   0  0  0  0  0  0  0  0  0  0  0  0
    1.3238    1.1364    0.5545 N   0  0  0  0  0  0  0  0  0  0  0  0
    2.2040    1.7259    1.5288 C   0  0  2  0  0  0  0  0  0  0  0  0
    1.7062    3.1354    1.8204 C   0  0  0  0  0  0  0  0  0  0  0  0
    1.1805    3.8505    0.9699 O   0  0  0  0  0  0  0  0  0  0  0  0
    3.6417    1.7488    1.0334 C   0  0  0  0  0  0  0  0  0  0  0  0
    0.9271    1.7421   -0.1612 H   0  0  0  0  0  0  0  0  0  0  0  0
    2.1265    1.1157    2.4352 H   0  0  0  0  0  0  0  0  0  0  0  0
    3.7391    2.3555    0.1257 H   0  0  0  0  0  0  0  0  0  0  0  0
    4.3143    2.1714    1.7871 H   0  0  0  0  0  0  0  0  0  0  0  0
    3.9882    0.7373    0.7959 H   0  0  0  0  0  0  0  0  0  0  0  0
    1.9571    3.5168    3.1310 N   0  0  0  0  0  0  0  0  0  0  0  0
    1.6176    4.8246    3.6411 C   0  0  0  0  0  0  0  0  0  0  0  0
    2.3607    2.8458    3.7781 H   0  0  0  0  0  0  0  0  0  0  0  0
    2.4811    5.4972    3.5310 H   0  0  0  0  0  0  0  0  0  0  0  0
    0.7644    5.2282    3.0762 H   0  0  0  0  0  0  0  0  0  0  0  0
    1.3484    4.7448    4.7046 H   0  0  0  0  0  0  0  0  0  0  0  0
  1  3  1  0  0  0  0
  1  7  1  0  0  0  0
  1  2  2  0  0  0  0
 28 29  1  0  0  0  0
 29 37  1  0  0  0  0
 29 30  2  0  0  0  0
 18 19  1  0  0  0  0
 19 27  1  0  0  0  0
 19 20  2  0  0  0  0
  8  9  1  0  0  0  0
  9 17  1  0  0  0  0
  9 10  2  0  0  0  0
 28 31  1  0  0  0  0
 18 21  1  0  0  0  0
  8 11  1  0  0  0  0
 37 38  1  0  0  0  0
 27 28  1  0  0  0  0
 17 18  1  0  0  0  0
  7  8  1  0  0  0  0
  3  4  1  0  0  0  0
  3  5  1  0  0  0  0
  3  6  1  0  0  0  0
 31 34  1  0  0  0  0
 31 35  1  0  0  0  0
 31 36  1  0  0  0  0
 21 24  1  0  0  0  0
 21 25  1  0  0  0  0
 21 26  1  0  0  0  0
 11 14  1  0  0  0  0
 11 15  1  0  0  0  0
 11 16  1  0  0  0  0
 38 40  1  0  0  0  0
 38 41  1  0  0  0  0
 38 42  1  0  0  0  0
 28 33  1  0  0  0  0
 18 23  1  0  0  0  0
  8 13  1  0  0  0  0
 37 39  1  0  0  0  0
  7 12  1  0  0  0  0
 27 32  1  0  0  0  0
 17 22  1  0  0  0  0
M  END
$$$$

  -OEChem-05262214473D

 42 41  0     1  0  0  0  0  0999 V2000
   -5.7851   -0.9580    0.6237 C   0  0  0  0  0  0  0  0  0  0  0  0
   -6.2213    0.1296    0.2652 O   0  0  0  0  0  0  0  0  0  0  0  0
   -6.7088   -2.1270    0.7168 C   0  0  0  0  0  0  0  0  0  0  0  0
   -7.1713   -2.2193    1.7126 H   0  0  0  0  0  0  0  0  0  0  0  0
   -7.5511   -2.0547    0.0101 H   0  0  0  0  0  0  0  0  0  0  0  0
   -6.2485   -3.1083    0.5191 H   0  0  0  0  0  0  0  0  0  0  0  0
   -4.4733   -1.2411    0.9668 N   0  0  0  0  0  0  0  0  0  0  0  0
   -3.4203   -0.2603    0.9449 C   0  0  2  0  0  0  0  0  0  0  0  0
   -2.1242   -0.9699    0.5759 C   0  0  0  0  0  0  0  0  0  0  0  0
   -1.8694   -2.1225    0.9189 O   0  0  0  0  0  0  0  0  0  0  0  0
   -3.2916    0.4435    2.2868 C   0  0  0  0  0  0  0  0  0  0  0  0
   -4.2421   -2.1920    1.2489 H   0  0  0  0  0  0  0  0  0  0  0  0
   -3.6772    0.4622    0.1625 H   0  0  0  0  0  0  0  0  0  0  0  0
   -3.0345   -0.2644    3.0832 H   0  0  0  0  0  0  0  0  0  0  0  0
   -2.5093    1.2092    2.2599 H   0  0  0  0  0  0  0  0  0  0  0  0
   -4.2338    0.9283    2.5645 H   0  0  0  0  0  0  0  0  0  0  0  0
   -1.2626   -0.1515   -0.1463 N   0  0  0  0  0  0  0  0  0  0  0  0
    0.0431   -0.5785   -0.5755 C   0  0  2  0  0  0  0  0  0  0  0  0
    1.0380   -0.2241    0.5218 C   0  0  0  0  0  0  0  0  0  0  0  0
    1.6976   -1.0667    1.1268 O   0  0  0  0  0  0  0  0  0  0  0  0
    0.4327    0.0726   -1.8935 C   0  0  0  0  0  0  0  0  0  0  0  0
   -1.5766    0.7776   -0.4197 H   0  0  0  0  0  0  0  0  0  0  0  0
   -0.0021   -1.6669   -0.6907 H   0  0  0  0  0  0  0  0  0  0  0  0
    0.4832    1.1634   -1.7976 H   0  0  0  0  0  0  0  0  0  0  0  0
    1.4140   -0.2750   -2.2329 H   0  0  0  0  0  0  0  0  0  0  0  0
   -0.2999   -0.1589   -2.6741 H   0  0  0  0  0  0  0  0  0  0  0  0
    1.0741    1.1420    0.7792 N   0  0  0  0  0  0  0  0  0  0  0  0
    1.9045    1.7220    1.8016 C   0  0  2  0  0  0  0  0  0  0  0  0
    1.1831    2.9430    2.3568 C   0  0  0  0  0  0  0  0  0  0  0  0
    0.4732    3.6733    1.6685 O   0  0  0  0  0  0  0  0  0  0  0  0
    3.2722    2.1007    1.2549 C   0  0  0  0  0  0  0  0  0  0  0  0
    0.5207    1.7691    0.1986 H   0  0  0  0  0  0  0  0  0  0  0  0
    2.0083    0.9686    2.5900 H   0  0  0  0  0  0  0  0  0  0  0  0
    3.1884    2.8547    0.4637 H   0  0  0  0  0  0  0  0  0  0  0  0
    3.9125    2.5154    2.0403 H   0  0  0  0  0  0  0  0  0  0  0  0
    3.7772    1.2269    0.8291 H   0  0  0  0  0  0  0  0  0  0  0  0
    1.4600    3.1461    3.7015 N   0  0  0  0  0  0  0  0  0  0  0  0
    0.9289    4.2634    4.4468 C   0  0  0  0  0  0  0  0  0  0  0  0
    2.0266    2.4683    4.2029 H   0  0  0  0  0  0  0  0  0  0  0  0
    1.6451    5.0977    4.4180 H   0  0  0  0  0  0  0  0  0  0  0  0
   -0.0240    4.5827    3.9994 H   0  0  0  0  0  0  0  0  0  0  0  0
    0.7605    3.9608    5.4909 H   0  0  0  0  0  0  0  0  0  0  0  0
  1  3  1  0  0  0  0
  1  7  1  0  0  0  0
  1  2  2  0  0  0  0
 28 29  1  0  0  0  0
 29 37  1  0  0  0  0
 29 30  2  0  0  0  0
 18 19  1  0  0  0  0
 19 27  1  0  0  0  0
 19 20  2  0  0  0  0
  8  9  1  0  0  0  0
  9 17  1  0  0  0  0
  9 10  2  0  0  0  0
 28 31  1  0  0  0  0
 18 21  1  0  0  0  0
  8 11  1  0  0  0  0
 37 38  1  0  0  0  0
 27 28  1  0  0  0  0
 17 18  1  0  0  0  0
  7  8  1  0  0  0  0
  3  4  1  0  0  0  0
  3  5  1  0  0  0  0
  3  6  1  0  0  0  0
 31 34  1  0  0  0  0
 31 35  1  0  0  0  0
 31 36  1  0  0  0  0
 21 24  1  0  0  0  0
 21 25  1  0  0  0  0
 21 26  1  0  0  0  0
 11 14  1  0  0  0  0
 11 15  1  0  0  0  0
 11 16  1  0  0  0  0
 38 40  1  0  0  0  0
 38 41  1  0  0  0  0
 38 42  1  0  0  0  0
 28 33  1  0  0  0  0
 18 23  1  0  0  0  0
  8 13  1  0  0  0  0
 37 39  1  0  0  0  0
  7 12  1  0  0  0  0
 27 32  1  0  0  0  0
 17 22  1  0  0  0  0
M  END
$$$$

  -OEChem-05262214473D

 42 41  0     1  0  0  0  0  0999 V2000
   -5.7851   -0.9580    0.6237 C   0  0  0  0  0  0  0  0  0  0  0  0
   -6.2213    0.1296    0.2652 O   0  0  0  0  0  0  0  0  0  0  0  0
   -6.7088   -2.1270    0.7168 C   0  0  0  0  0  0  0  0  0  0  0  0
   -7.1713   -2.2193    1.7126 H   0  0  0  0  0  0  0  0  0  0  0  0
   -7.5511   -2.0547    0.0101 H   0  0  0  0  0  0  0  0  0  0  0  0
   -6.2485   -3.1083    0.5191 H   0  0  0  0  0  0  0  0  0  0  0  0
   -4.4733   -1.2411    0.9668 N   0  0  0  0  0  0  0  0  0  0  0  0
   -3.4203   -0.2603    0.9449 C   0  0  2  0  0  0  0  0  0  0  0  0
   -2.1242   -0.9699    0.5759 C   0  0  0  0  0  0  0  0  0  0  0  0
   -1.8694   -2.1225    0.9189 O   0  0  0  0  0  0  0  0  0  0  0  0
   -3.2916    0.4435    2.2868 C   0  0  0  0  0  0  0  0  0  0  0  0
   -4.2421   -2.1920    1.2489 H   0  0  0  0  0  0  0  0  0  0  0  0
   -3.6772    0.4622    0.1625 H   0  0  0  0  0  0  0  0  0  0  0  0
   -3.0345   -0.2644    3.0832 H   0  0  0  0  0  0  0  0  0  0  0  0
   -2.5093    1.2092    2.2599 H   0  0  0  0  0  0  0  0  0  0  0  0
   -4.2338    0.9283    2.5645 H   0  0  0  0  0  0  0  0  0  0  0  0
   -1.2626   -0.1515   -0.1463 N   0  0  0  0  0  0  0  0  0  0  0  0
    0.0431   -0.5785   -0.5755 C   0  0  2  0  0  0  0  0  0  0  0  0
    1.0380   -0.2241    0.5218 C   0  0  0  0  0  0  0  0  0  0  0  0
    1.8836   -1.0120    0.9405 O   0  0  0  0  0  0  0  0  0  0  0  0
    0.4327    0.0726   -1.8935 C   0  0  0  0  0  0  0  0  0  0  0  0
   -1.5766    0.7776   -0.4197 H   0  0  0  0  0  0  0  0  0  0  0  0
   -0.0021   -1.6669   -0.6907 H   0  0  0  0  0  0  0  0  0  0  0  0
    0.4832    1.1634   -1.7976 H   0  0  0  0  0  0  0  0  0  0  0  0
    1.4140   -0.2750   -2.2329 H   0  0  0  0  0  0  0  0  0  0  0  0
   -0.2999   -0.1589   -2.6741 H   0  0  0  0  0  0  0  0  0  0  0  0
    0.8453    1.0628    1.0122 N   0  0  0  0  0  0  0  0  0  0  0  0
    1.6324    1.6163    2.0825 C   0  0  2  0  0  0  0  0  0  0  0  0
    0.7461    2.5690    2.8739 C   0  0  0  0  0  0  0  0  0  0  0  0
   -0.1349    3.2521    2.3559 O   0  0  0  0  0  0  0  0  0  0  0  0
    2.8629    2.3342    1.5505 C   0  0  0  0  0  0  0  0  0  0  0  0
    0.1448    1.6585    0.5751 H   0  0  0  0  0  0  0  0  0  0  0  0
    1.9308    0.7782    2.7217 H   0  0  0  0  0  0  0  0  0  0  0  0
    2.5838    3.1771    0.9078 H   0  0  0  0  0  0  0  0  0  0  0  0
    3.4755    2.7300    2.3673 H   0  0  0  0  0  0  0  0  0  0  0  0
    3.4841    1.6549    0.9567 H   0  0  0  0  0  0  0  0  0  0  0  0
    1.0832    2.5988    4.2199 N   0  0  0  0  0  0  0  0  0  0  0  0
    0.4167    3.4566    5.1717 C   0  0  0  0  0  0  0  0  0  0  0  0
    1.7999    1.9696    4.5695 H   0  0  0  0  0  0  0  0  0  0  0  0
    0.9656    4.4061    5.2575 H   0  0  0  0  0  0  0  0  0  0  0  0
   -0.6095    3.6561    4.8295 H   0  0  0  0  0  0  0  0  0  0  0  0
    0.3861    2.9609    6.1532 H   0  0  0  0  0  0  0  0  0  0  0  0
  1  3  1  0  0  0  0
  1  7  1  0  0  0  0
  1  2  2  0  0  0  0
 28 29  1  0  0  0  0
 29 37  1  0  0  0  0
 29 30  2  0  0  0  0
 18 19  1  0  0  0  0
 19 27  1  0  0  0  0
 19 20  2  0  0  0  0
  8  9  1  0  0  0  0
  9 17  1  0  0  0  0
  9 10  2  0  0  0  0
 28 31  1  0  0  0  0
 18 21  1  0  0  0  0
  8 11  1  0  0  0  0
 37 38  1  0  0  0  0
 27 28  1  0  0  0  0
 17 18  1  0  0  0  0
  7  8  1  0  0  0  0
  3  4  1  0  0  0  0
  3  5  1  0  0  0  0
  3  6  1  0  0  0  0
 31 34  1  0  0  0  0
 31 35  1  0  0  0  0
 31 36  1  0  0  0  0
 21 24  1  0  0  0  0
 21 25  1  0  0  0  0
 21 26  1  0  0  0  0
 11 14  1  0  0  0  0
 11 15  1  0  0  0  0
 11 16  1  0  0  0  0
 38 40  1  0  0  0  0
 38 41  1  0  0  0  0
 38 42  1  0  0  0  0
 28 33  1  0  0  0  0
 18 23  1  0  0  0  0
  8 13  1  0  0  0  0
 37 39  1  0  0  0  0
  7 12  1  0  0  0  0
 27 32  1  0  0  0  0
 17 22  1  0  0  0  0
M  END
$$$$

  -OEChem-05262214473D

 42 41  0     1  0  0  0  0  0999 V2000
   -5.7851   -0.9580    0.6237 C   0  0  0  0  0  0  0  0  0  0  0  0
   -6.2213    0.1296    0.2652 O   0  0  0  0  0  0  0  0  0  0  0  0
   -6.7088   -2.1270    0.7168 C   0  0  0  0  0  0  0  0  0  0  0  0
   -7.1713   -2.2193    1.7126 H   0  0  0  0  0  0  0  0  0  0  0  0
   -7.5511   -2.0547    0.0101 H   0  0  0  0  0  0  0  0  0  0  0  0
   -6.2485   -3.1083    0.5191 H   0  0  0  0  0  0  0  0  0  0  0  0
   -4.4733   -1.2411    0.9668 N   0  0  0  0  0  0  0  0  0  0  0  0
   -3.4203   -0.2603    0.9449 C   0  0  2  0  0  0  0  0  0  0  0  0
   -2.1242   -0.9699    0.5759 C   0  0  0  0  0  0  0  0  0  0  0  0
   -1.8694   -2.1225    0.9189 O   0  0  0  0  0  0  0  0  0  0  0  0
   -3.2916    0.4435    2.2868 C   0  0  0  0  0  0  0  0  0  0  0  0
   -4.2421   -2.1920    1.2489 H   0  0  0  0  0  0  0  0  0  0  0  0
   -3.6772    0.4622    0.1625 H   0  0  0  0  0  0  0  0  0  0  0  0
   -3.0345   -0.2644    3.0832 H   0  0  0  0  0  0  0  0  0  0  0  0
   -2.5093    1.2092    2.2599 H   0  0  0  0  0  0  0  0  0  0  0  0
   -4.2338    0.9283    2.5645 H   0  0  0  0  0  0  0  0  0  0  0  0
   -1.2626   -0.1515   -0.1463 N   0  0  0  0  0  0  0  0  0  0  0  0
    0.0431   -0.5785   -0.5755 C   0  0  2  0  0  0  0  0  0  0  0  0
    1.0380   -0.2241    0.5218 C   0  0  0  0  0  0  0  0  0  0  0  0
    2.0419   -0.8929    0.7586 O   0  0  0  0  0  0  0  0  0  0  0  0
    0.4327    0.0726   -1.8935 C   0  0  0  0  0  0  0  0  0  0  0  0
   -1.5766    0.7776   -0.4197 H   0  0  0  0  0  0  0  0  0  0  0  0
   -0.0021   -1.6669   -0.6907 H   0  0  0  0  0  0  0  0  0  0  0  0
    0.4832    1.1634   -1.7976 H   0  0  0  0  0  0  0  0  0  0  0  0
    1.4140   -0.2750   -2.2329 H   0  0  0  0  0  0  0  0  0  0  0  0
   -0.2999   -0.1589   -2.6741 H   0  0  0  0  0  0  0  0  0  0  0  0
    0.6532    0.9043    1.2376 N   0  0  0  0  0  0  0  0  0  0  0  0
    1.4061    1.4159    2.3524 C   0  0  2  0  0  0  0  0  0  0  0  0
    0.4248    2.0387    3.3365 C   0  0  0  0  0  0  0  0  0  0  0  0
   -0.6024    2.6156    2.9853 O   0  0  0  0  0  0  0  0  0  0  0  0
    2.4420    2.4334    1.9002 C   0  0  0  0  0  0  0  0  0  0  0  0
   -0.1750    1.4179    0.9428 H   0  0  0  0  0  0  0  0  0  0  0  0
    1.8994    0.5576    2.8214 H   0  0  0  0  0  0  0  0  0  0  0  0
    1.9664    3.3007    1.4277 H   0  0  0  0  0  0  0  0  0  0  0  0
    3.0331    2.8004    2.7457 H   0  0  0  0  0  0  0  0  0  0  0  0
    3.1288    1.9921    1.1699 H   0  0  0  0  0  0  0  0  0  0  0  0
    0.8525    1.9124    4.6507 N   0  0  0  0  0  0  0  0  0  0  0  0
    0.1162    2.4593    5.7663 C   0  0  0  0  0  0  0  0  0  0  0  0
    1.6959    1.3837    4.8530 H   0  0  0  0  0  0  0  0  0  0  0  0
    0.4887    3.4693    5.9925 H   0  0  0  0  0  0  0  0  0  0  0  0
   -0.9523    2.5116    5.5100 H   0  0  0  0  0  0  0  0  0  0  0  0
    0.2509    1.8133    6.6464 H   0  0  0  0  0  0  0  0  0  0  0  0
  1  3  1  0  0  0  0
  1  7  1  0  0  0  0
  1  2  2  0  0  0  0
 28 29  1  0  0  0  0
 29 37  1  0  0  0  0
 29 30  2  0  0  0  0
 18 19  1  0  0  0  0
 19 27  1  0  0  0  0
 19 20  2  0  0  0  0
  8  9  1  0  0  0  0
  9 17  1  0  0  0  0
  9 10  2  0  0  0  0
 28 31  1  0  0  0  0
 18 21  1  0  0  0  0
  8 11  1  0  0  0  0
 37 38  1  0  0  0  0
 27 28  1  0  0  0  0
 17 18  1  0  0  0  0
  7  8  1  0  0  0  0
  3  4  1  0  0  0  0
  3  5  1  0  0  0  0
  3  6  1  0  0  0  0
 31 34  1  0  0  0  0
 31 35  1  0  0  0  0
 31 36  1  0  0  0  0
 21 24  1  0  0  0  0
 21 25  1  0  0  0  0
 21 26  1  0  0  0  0
 11 14  1  0  0  0  0
 11 15  1  0  0  0  0
 11 16  1  0  0  0  0
 38 40  1  0  0  0  0
 38 41  1  0  0  0  0
 38 42  1  0  0  0  0
 28 33  1  0  0  0  0
 18 23  1  0  0  0  0
  8 13  1  0  0  0  0
 37 39  1  0  0  0  0
  7 12  1  0  0  0  0
 27 32  1  0  0  0  0
 17 22  1  0  0  0  0
M  END
$$$$

  -OEChem-05262214473D

 42 41  0     1  0  0  0  0  0999 V2000
   -5.7851   -0.9580    0.6237 C   0  0  0  0  0  0  0  0  0  0  0  0
   -6.2213    0.1296    0.2652 O   0  0  0  0  0  0  0  0  0  0  0  0
   -6.7088   -2.1270    0.7168 C   0  0  0  0  0  0  0  0  0  0  0  0
   -7.1713   -2.2193    1.7126 H   0  0  0  0  0  0  0  0  0  0  0  0
   -7.5511   -2.0547    0.0101 H   0  0  0  0  0  0  0  0  0  0  0  0
   -6.2485   -3.1083    0.5191 H   0  0  0  0  0  0  0  0  0  0  0  0
   -4.4733   -1.2411    0.9668 N   0  0  0  0  0  0  0  0  0  0  0  0
   -3.4203   -0.2603    0.9449 C   0  0  2  0  0  0  0  0  0  0  0  0
   -2.1242   -0.9699    0.5759 C   0  0  0  0  0  0  0  0  0  0  0  0
   -1.8694   -2.1225    0.9189 O   0  0  0  0  0  0  0  0  0  0  0  0
   -3.2916    0.4435    2.2868 C   0  0  0  0  0  0  0  0  0  0  0  0
   -4.2421   -2.1920    1.2489 H   0  0  0  0  0  0  0  0  0  0  0  0
   -3.6772    0.4622    0.1625 H   0  0  0  0  0  0  0  0  0  0  0  0
   -3.0345   -0.2644    3.0832 H   0  0  0  0  0  0  0  0  0  0  0  0
   -2.5093    1.2092    2.2599 H   0  0  0  0  0  0  0  0  0  0  0  0
   -4.2338    0.9283    2.5645 H   0  0  0  0  0  0  0  0  0  0  0  0
   -1.2626   -0.1515   -0.1463 N   0  0  0  0  0  0  0  0  0  0  0  0
    0.0431   -0.5785   -0.5755 C   0  0  2  0  0  0  0  0  0  0  0  0
    1.0380   -0.2241    0.5218 C   0  0  0  0  0  0  0  0  0  0  0  0
    2.1616   -0.7176    0.5934 O   0  0  0  0  0  0  0  0  0  0  0  0
    0.4327    0.0726   -1.8935 C   0  0  0  0  0  0  0  0  0  0  0  0
   -1.5766    0.7776   -0.4197 H   0  0  0  0  0  0  0  0  0  0  0  0
   -0.0021   -1.6669   -0.6907 H   0  0  0  0  0  0  0  0  0  0  0  0
    0.4832    1.1634   -1.7976 H   0  0  0  0  0  0  0  0  0  0  0  0
    1.4140   -0.2750   -2.2329 H   0  0  0  0  0  0  0  0  0  0  0  0
   -0.2999   -0.1589   -2.6741 H   0  0  0  0  0  0  0  0  0  0  0  0
    0.5107    0.6772    1.4401 N   0  0  0  0  0  0  0  0  0  0  0  0
    1.2412    1.1345    2.5928 C   0  0  2  0  0  0  0  0  0  0  0  0
    0.2411    1.3884    3.7130 C   0  0  0  0  0  0  0  0  0  0  0  0
   -0.8973    1.8072    3.5137 O   0  0  0  0  0  0  0  0  0  0  0  0
    2.0378    2.3916    2.2801 C   0  0  0  0  0  0  0  0  0  0  0  0
   -0.4169    1.0637    1.2765 H   0  0  0  0  0  0  0  0  0  0  0  0
    1.9162    0.3218    2.8823 H   0  0  0  0  0  0  0  0  0  0  0  0
    1.3784    3.2170    1.9879 H   0  0  0  0  0  0  0  0  0  0  0  0
    2.6153    2.7220    3.1498 H   0  0  0  0  0  0  0  0  0  0  0  0
    2.7356    2.2155    1.4543 H   0  0  0  0  0  0  0  0  0  0  0  0
    0.7837    1.1334    4.9647 N   0  0  0  0  0  0  0  0  0  0  0  0
    0.0476    1.3393    6.1901 C   0  0  0  0  0  0  0  0  0  0  0  0
    1.7219    0.7504    5.0340 H   0  0  0  0  0  0  0  0  0  0  0  0
    0.2470    2.3512    6.5727 H   0  0  0  0  0  0  0  0  0  0  0  0
   -1.0290    1.2270    5.9943 H   0  0  0  0  0  0  0  0  0  0  0  0
    0.3639    0.5962    6.9370 H   0  0  0  0  0  0  0  0  0  0  0  0
  1  3  1  0  0  0  0
  1  7  1  0  0  0  0
  1  2  2  0  0  0  0
 28 29  1  0  0  0  0
 29 37  1  0  0  0  0
 29 30  2  0  0  0  0
 18 19  1  0  0  0  0
 19 27  1  0  0  0  0
 19 20  2  0  0  0  0
  8  9  1  0  0  0  0
  9 17  1  0  0  0  0
  9 10  2  0  0  0  0
 28 31  1  0  0  0  0
 18 21  1  0  0  0  0
  8 11  1  0  0  0  0
 37 38  1  0  0  0  0
 27 28  1  0  0  0  0
 17 18  1  0  0  0  0
  7  8  1  0  0  0  0
  3  4  1  0  0  0  0
  3  5  1  0  0  0  0
  3  6  1  0  0  0  0
 31 34  1  0  0  0  0
 31 35  1  0  0  0  0
 31 36  1  0  0  0  0
 21 24  1  0  0  0  0
 21 25  1  0  0  0  0
 21 26  1  0  0  0  0
 11 14  1  0  0  0  0
 11 15  1  0  0  0  0
 11 16  1  0  0  0  0
 38 40  1  0  0  0  0
 38 41  1  0  0  0  0
 38 42  1  0  0  0  0
 28 33  1  0  0  0  0
 18 23  1  0  0  0  0
  8 13  1  0  0  0  0
 37 39  1  0  0  0  0
  7 12  1  0  0  0  0
 27 32  1  0  0  0  0
 17 22  1  0  0  0  0
M  END
$$$$

  -OEChem-05262214473D

 42 41  0     1  0  0  0  0  0999 V2000
   -5.7851   -0.9580    0.6237 C   0  0  0  0  0  0  0  0  0  0  0  0
   -6.2213    0.1296    0.2652 O   0  0  0  0  0  0  0  0  0  0  0  0
   -6.7088   -2.1270    0.7168 C   0  0  0  0  0  0  0  0  0  0  0  0
   -7.1713   -2.2193    1.7126 H   0  0  0  0  0  0  0  0  0  0  0  0
   -7.5511   -2.0547    0.0101 H   0  0  0  0  0  0  0  0  0  0  0  0
   -6.2485   -3.1083    0.5191 H   0  0  0  0  0  0  0  0  0  0  0  0
   -4.4733   -1.2411    0.9668 N   0  0  0  0  0  0  0  0  0  0  0  0
   -3.4203   -0.2603    0.9449 C   0  0  2  0  0  0  0  0  0  0  0  0
   -2.1242   -0.9699    0.5759 C   0  0  0  0  0  0  0  0  0  0  0  0
   -1.8694   -2.1225    0.9189 O   0  0  0  0  0  0  0  0  0  0  0  0
   -3.2916    0.4435    2.2868 C   0  0  0  0  0  0  0  0  0  0  0  0
   -4.2421   -2.1920    1.2489 H   0  0  0  0  0  0  0  0  0  0  0  0
   -3.6772    0.4622    0.1625 H   0  0  0  0  0  0  0  0  0  0  0  0
   -3.0345   -0.2644    3.0832 H   0  0  0  0  0  0  0  0  0  0  0  0
   -2.5093    1.2092    2.2599 H   0  0  0  0  0  0  0  0  0  0  0  0
   -4.2338    0.9283    2.5645 H   0  0  0  0  0  0  0  0  0  0  0  0
   -1.2626   -0.1515   -0.1463 N   0  0  0  0  0  0  0  0  0  0  0  0
    0.0431   -0.5785   -0.5755 C   0  0  2  0  0  0  0  0  0  0  0  0
    1.0380   -0.2241    0.5218 C   0  0  0  0  0  0  0  0  0  0  0  0
    2.2346   -0.4981    0.4564 O   0  0  0  0  0  0  0  0  0  0  0  0
    0.4327    0.0726   -1.8935 C   0  0  0  0  0  0  0  0  0  0  0  0
   -1.5766    0.7776   -0.4197 H   0  0  0  0  0  0  0  0  0  0  0  0
   -0.0021   -1.6669   -0.6907 H   0  0  0  0  0  0  0  0  0  0  0  0
    0.4832    1.1634   -1.7976 H   0  0  0  0  0  0  0  0  0  0  0  0
    1.4140   -0.2750   -2.2329 H   0  0  0  0  0  0  0  0  0  0  0  0
   -0.2999   -0.1589   -2.6741 H   0  0  0  0  0  0  0  0  0  0  0  0
    0.4276    0.3971    1.6059 N   0  0  0  0  0  0  0  0  0  0  0  0
    1.1488    0.7914    2.7873 C   0  0  2  0  0  0  0  0  0  0  0  0
    0.2077    0.6624    3.9778 C   0  0  0  0  0  0  0  0  0  0  0  0
   -0.9996    0.8821    3.9053 O   0  0  0  0  0  0  0  0  0  0  0  0
    1.6782    2.2117    2.6643 C   0  0  0  0  0  0  0  0  0  0  0  0
   -0.5644    0.6201    1.5535 H   0  0  0  0  0  0  0  0  0  0  0  0
    1.9801    0.0869    2.9002 H   0  0  0  0  0  0  0  0  0  0  0  0
    0.8597    2.9318    2.5503 H   0  0  0  0  0  0  0  0  0  0  0  0
    2.2508    2.5000    3.5520 H   0  0  0  0  0  0  0  0  0  0  0  0
    2.3313    2.3099    1.7904 H   0  0  0  0  0  0  0  0  0  0  0  0
    0.8814    0.3151    5.1404 N   0  0  0  0  0  0  0  0  0  0  0  0
    0.2158    0.1731    6.4143 C   0  0  0  0  0  0  0  0  0  0  0  0
    1.8760    0.1129    5.1002 H   0  0  0  0  0  0  0  0  0  0  0  0
    0.2570    1.1281    6.9586 H   0  0  0  0  0  0  0  0  0  0  0  0
   -0.8344   -0.1099    6.2496 H   0  0  0  0  0  0  0  0  0  0  0  0
    0.7176   -0.6074    7.0050 H   0  0  0  0  0  0  0  0  0  0  0  0
  1  3  1  0  0  0  0
  1  7  1  0  0  0  0
  1  2  2  0  0  0  0
 28 29  1  0  0  0  0
 29 37  1  0  0  0  0
 29 30  2  0  0  0  0
 18 19  1  0  0  0  0
 19 27  1  0  0  0  0
 19 20  2  0  0  0  0
  8  9  1  0  0  0  0
  9 17  1  0  0  0  0
  9 10  2  0  0  0  0
 28 31  1  0  0  0  0
 18 21  1  0  0  0  0
  8 11  1  0  0  0  0
 37 38  1  0  0  0  0
 27 28  1  0  0  0  0
 17 18  1  0  0  0  0
  7  8  1  0  0  0  0
  3  4  1  0  0  0  0
  3  5  1  0  0  0  0
  3  6  1  0  0  0  0
 31 34  1  0  0  0  0
 31 35  1  0  0  0  0
 31 36  1  0  0  0  0
 21 24  1  0  0  0  0
 21 25  1  0  0  0  0
 21 26  1  0  0  0  0
 11 14  1  0  0  0  0
 11 15  1  0  0  0  0
 11 16  1  0  0  0  0
 38 40  1  0  0  0  0
 38 41  1  0  0  0  0
 38 42  1  0  0  0  0
 28 33  1  0  0  0  0
 18 23  1  0  0  0  0
  8 13  1  0  0  0  0
 37 39  1  0  0  0  0
  7 12  1  0  0  0  0
 27 32  1  0  0  0  0
 17 22  1  0  0  0  0
M  END
$$$$

  -OEChem-05262214473D

 42 41  0     1  0  0  0  0  0999 V2000
   -5.7851   -0.9580    0.6237 C   0  0  0  0  0  0  0  0  0  0  0  0
   -6.2213    0.1296    0.2652 O   0  0  0  0  0  0  0  0  0  0  0  0
   -6.7088   -2.1270    0.7168 C   0  0  0  0  0  0  0  0  0  0  0  0
   -7.1713   -2.2193    1.7126 H   0  0  0  0  0  0  0  0  0  0  0  0
   -7.5511   -2.0547    0.0101 H   0  0  0  0  0  0  0  0  0  0  0  0
   -6.2485   -3.1083    0.5191 H   0  0  0  0  0  0  0  0  0  0  0  0
   -4.4733   -1.2411    0.9668 N   0  0  0  0  0  0  0  0  0  0  0  0
   -3.4203   -0.2603    0.9449 C   0  0  2  0  0  0  0  0  0  0  0  0
   -2.1242   -0.9699    0.5759 C   0  0  0  0  0  0  0  0  0  0  0  0
   -1.8694   -2.1225    0.9189 O   0  0  0  0  0  0  0  0  0  0  0  0
   -3.2916    0.4435    2.2868 C   0  0  0  0  0  0  0  0  0  0  0  0
   -4.2421   -2.1920    1.2489 H   0  0  0  0  0  0  0  0  0  0  0  0
   -3.6772    0.4622    0.1625 H   0  0  0  0  0  0  0  0  0  0  0  0
   -3.0345   -0.2644    3.0832 H   0  0  0  0  0  0  0  0  0  0  0  0
   -2.5093    1.2092    2.2599 H   0  0  0  0  0  0  0  0  0  0  0  0
   -4.2338    0.9283    2.5645 H   0  0  0  0  0  0  0  0  0  0  0  0
   -1.2626   -0.1515   -0.1463 N   0  0  0  0  0  0  0  0  0  0  0  0
    0.0431   -0.5785   -0.5755 C   0  0  2  0  0  0  0  0  0  0  0  0
    1.0380   -0.2241    0.5218 C   0  0  0  0  0  0  0  0  0  0  0  0
    2.2559   -0.2493    0.3567 O   0  0  0  0  0  0  0  0  0  0  0  0
    0.4327    0.0726   -1.8935 C   0  0  0  0  0  0  0  0  0  0  0  0
   -1.5766    0.7776   -0.4197 H   0  0  0  0  0  0  0  0  0  0  0  0
   -0.0021   -1.6669   -0.6907 H   0  0  0  0  0  0  0  0  0  0  0  0
    0.4832    1.1634   -1.7976 H   0  0  0  0  0  0  0  0  0  0  0  0
    1.4140   -0.2750   -2.2329 H   0  0  0  0  0  0  0  0  0  0  0  0
   -0.2999   -0.1589   -2.6741 H   0  0  0  0  0  0  0  0  0  0  0  0
    0.4096    0.0830    1.7237 N   0  0  0  0  0  0  0  0  0  0  0  0
    1.1353    0.4097    2.9228 C   0  0  2  0  0  0  0  0  0  0  0  0
    0.3267   -0.0899    4.1128 C   0  0  0  0  0  0  0  0  0  0  0  0
   -0.9023   -0.0969    4.1332 O   0  0  0  0  0  0  0  0  0  0  0  0
    1.3875    1.9059    3.0267 C   0  0  0  0  0  0  0  0  0  0  0  0
   -0.6075    0.1172    1.7550 H   0  0  0  0  0  0  0  0  0  0  0  0
    2.0867   -0.1311    2.8740 H   0  0  0  0  0  0  0  0  0  0  0  0
    0.4457    2.4645    3.0766 H   0  0  0  0  0  0  0  0  0  0  0  0
    1.9643    2.1496    3.9249 H   0  0  0  0  0  0  0  0  0  0  0  0
    1.9433    2.2688    2.1554 H   0  0  0  0  0  0  0  0  0  0  0  0
    1.1389   -0.4868    5.1659 N   0  0  0  0  0  0  0  0  0  0  0  0
    0.6092   -0.9599    6.4235 C   0  0  0  0  0  0  0  0  0  0  0  0
    2.1476   -0.4854    5.0470 H   0  0  0  0  0  0  0  0  0  0  0  0
    0.5180   -0.1167    7.1240 H   0  0  0  0  0  0  0  0  0  0  0  0
   -0.3817   -1.4082    6.2585 H   0  0  0  0  0  0  0  0  0  0  0  0
    1.2877   -1.7156    6.8460 H   0  0  0  0  0  0  0  0  0  0  0  0
  1  3  1  0  0  0  0
  1  7  1  0  0  0  0
  1  2  2  0  0  0  0
 28 29  1  0  0  0  0
 29 37  1  0  0  0  0
 29 30  2  0  0  0  0
 18 19  1  0  0  0  0
 19 27  1  0  0  0  0
 19 20  2  0  0  0  0
  8  9  1  0  0  0  0
  9 17  1  0  0  0  0
  9 10  2  0  0  0  0
 28 31  1  0  0  0  0
 18 21  1  0  0  0  0
  8 11  1  0  0  0  0
 37 38  1  0  0  0  0
 27 28  1  0  0  0  0
 17 18  1  0  0  0  0
  7  8  1  0  0  0  0
  3  4  1  0  0  0  0
  3  5  1  0  0  0  0
  3  6  1  0  0  0  0
 31 34  1  0  0  0  0
 31 35  1  0  0  0  0
 31 36  1  0  0  0  0
 21 24  1  0  0  0  0
 21 25  1  0  0  0  0
 21 26  1  0  0  0  0
 11 14  1  0  0  0  0
 11 15  1  0  0  0  0
 11 16  1  0  0  0  0
 38 40  1  0  0  0  0
 38 41  1  0  0  0  0
 38 42  1  0  0  0  0
 28 33  1  0  0  0  0
 18 23  1  0  0  0  0
  8 13  1  0  0  0  0
 37 39  1  0  0  0  0
  7 12  1  0  0  0  0
 27 32  1  0  0  0  0
 17 22  1  0  0  0  0
M  END
$$$$

  -OEChem-05262214473D

 42 41  0     1  0  0  0  0  0999 V2000
   -5.7851   -0.9580    0.6237 C   0  0  0  0  0  0  0  0  0  0  0  0
   -6.2213    0.1296    0.2652 O   0  0  0  0  0  0  0  0  0  0  0  0
   -6.7088   -2.1270    0.7168 C   0  0  0  0  0  0  0  0  0  0  0  0
   -7.1713   -2.2193    1.7126 H   0  0  0  0  0  0  0  0  0  0  0  0
   -7.5511   -2.0547    0.0101 H   0  0  0  0  0  0  0  0  0  0  0  0
   -6.2485   -3.1083    0.5191 H   0  0  0  0  0  0  0  0  0  0  0  0
   -4.4733   -1.2411    0.9668 N   0  0  0  0  0  0  0  0  0  0  0  0
   -3.4203   -0.2603    0.9449 C   0  0  2  0  0  0  0  0  0  0  0  0
   -2.1242   -0.9699    0.5759 C   0  0  0  0  0  0  0  0  0  0  0  0
   -1.8694   -2.1225    0.9189 O   0  0  0  0  0  0  0  0  0  0  0  0
   -3.2916    0.4435    2.2868 C   0  0  0  0  0  0  0  0  0  0  0  0
   -4.2421   -2.1920    1.2489 H   0  0  0  0  0  0  0  0  0  0  0  0
   -3.6772    0.4622    0.1625 H   0  0  0  0  0  0  0  0  0  0  0  0
   -3.0345   -0.2644    3.0832 H   0  0  0  0  0  0  0  0  0  0  0  0
   -2.5093    1.2092    2.2599 H   0  0  0  0  0  0  0  0  0  0  0  0
   -4.2338    0.9283    2.5645 H   0  0  0  0  0  0  0  0  0  0  0  0
   -1.2626   -0.1515   -0.1463 N   0  0  0  0  0  0  0  0  0  0  0  0
    0.0431   -0.5785   -0.5755 C   0  0  2  0  0  0  0  0  0  0  0  0
    1.0380   -0.2241    0.5218 C   0  0  0  0  0  0  0  0  0  0  0  0
    2.2241    0.0119    0.3012 O   0  0  0  0  0  0  0  0  0  0  0  0
    0.4327    0.0726   -1.8935 C   0  0  0  0  0  0  0  0  0  0  0  0
   -1.5766    0.7776   -0.4197 H   0  0  0  0  0  0  0  0  0  0  0  0
   -0.0021   -1.6669   -0.6907 H   0  0  0  0  0  0  0  0  0  0  0  0
    0.4832    1.1634   -1.7976 H   0  0  0  0  0  0  0  0  0  0  0  0
    1.4140   -0.2750   -2.2329 H   0  0  0  0  0  0  0  0  0  0  0  0
   -0.2999   -0.1589   -2.6741 H   0  0  0  0  0  0  0  0  0  0  0  0
    0.4579   -0.2437    1.7854 N   0  0  0  0  0  0  0  0  0  0  0  0
    1.2016    0.0157    2.9900 C   0  0  2  0  0  0  0  0  0  0  0  0
    0.5901   -0.8172    4.1088 C   0  0  0  0  0  0  0  0  0  0  0  0
   -0.6121   -1.0628    4.1820 O   0  0  0  0  0  0  0  0  0  0  0  0
    1.1855    1.4950    3.3425 C   0  0  0  0  0  0  0  0  0  0  0  0
   -0.5432   -0.4106    1.8671 H   0  0  0  0  0  0  0  0  0  0  0  0
    2.2287   -0.3174    2.8054 H   0  0  0  0  0  0  0  0  0  0  0  0
    0.1647    1.8469    3.5309 H   0  0  0  0  0  0  0  0  0  0  0  0
    1.7754    1.6947    4.2431 H   0  0  0  0  0  0  0  0  0  0  0  0
    1.5983    2.0951    2.5244 H   0  0  0  0  0  0  0  0  0  0  0  0
    1.5387   -1.2177    5.0394 N   0  0  0  0  0  0  0  0  0  0  0  0
    1.2010   -1.9826    6.2171 C   0  0  0  0  0  0  0  0  0  0  0  0
    2.5184   -1.0036    4.8782 H   0  0  0  0  0  0  0  0  0  0  0  0
    1.0121   -1.2985    7.0575 H   0  0  0  0  0  0  0  0  0  0  0  0
    0.2982   -2.5793    6.0202 H   0  0  0  0  0  0  0  0  0  0  0  0
    2.0355   -2.6529    6.4706 H   0  0  0  0  0  0  0  0  0  0  0  0
  1  3  1  0  0  0  0
  1  7  1  0  0  0  0
  1  2  2  0  0  0  0
 28 29  1  0  0  0  0
 29 37  1  0  0  0  0
 29 30  2  0  0  0  0
 18 19  1  0  0  0  0
 19 27  1  0  0  0  0
 19 20  2  0  0  0  0
  8  9  1  0  0  0  0
  9 17  1  0  0  0  0
  9 10  2  0  0  0  0
 28 31  1  0  0  0  0
 18 21  1  0  0  0  0
  8 11  1  0  0  0  0
 37 38  1  0  0  0  0
 27 28  1  0  0  0  0
 17 18  1  0  0  0  0
  7  8  1  0  0  0  0
  3  4  1  0  0  0  0
  3  5  1  0  0  0  0
  3  6  1  0  0  0  0
 31 34  1  0  0  0  0
 31 35  1  0  0  0  0
 31 36  1  0  0  0  0
 21 24  1  0  0  0  0
 21 25  1  0  0  0  0
 21 26  1  0  0  0  0
 11 14  1  0  0  0  0
 11 15  1  0  0  0  0
 11 16  1  0  0  0  0
 38 40  1  0  0  0  0
 38 41  1  0  0  0  0
 38 42  1  0  0  0  0
 28 33  1  0  0  0  0
 18 23  1  0  0  0  0
  8 13  1  0  0  0  0
 37 39  1  0  0  0  0
  7 12  1  0  0  0  0
 27 32  1  0  0  0  0
 17 22  1  0  0  0  0
M  END
$$$$

  -OEChem-05262214473D

 42 41  0     1  0  0  0  0  0999 V2000
   -5.7851   -0.9580    0.6237 C   0  0  0  0  0  0  0  0  0  0  0  0
   -6.2213    0.1296    0.2652 O   0  0  0  0  0  0  0  0  0  0  0  0
   -6.7088   -2.1270    0.7168 C   0  0  0  0  0  0  0  0  0  0  0  0
   -7.1713   -2.2193    1.7126 H   0  0  0  0  0  0  0  0  0  0  0  0
   -7.5511   -2.0547    0.0101 H   0  0  0  0  0  0  0  0  0  0  0  0
   -6.2485   -3.1083    0.5191 H   0  0  0  0  0  0  0  0  0  0  0  0
   -4.4733   -1.2411    0.9668 N   0  0  0  0  0  0  0  0  0  0  0  0
   -3.4203   -0.2603    0.9449 C   0  0  2  0  0  0  0  0  0  0  0  0
   -2.1242   -0.9699    0.5759 C   0  0  0  0  0  0  0  0  0  0  0  0
   -1.8694   -2.1225    0.9189 O   0  0  0  0  0  0  0  0  0  0  0  0
   -3.2916    0.4435    2.2868 C   0  0  0  0  0  0  0  0  0  0  0  0
   -4.2421   -2.1920    1.2489 H   0  0  0  0  0  0  0  0  0  0  0  0
   -3.6772    0.4622    0.1625 H   0  0  0  0  0  0  0  0  0  0  0  0
   -3.0345   -0.2644    3.0832 H   0  0  0  0  0  0  0  0  0  0  0  0
   -2.5093    1.2092    2.2599 H   0  0  0  0  0  0  0  0  0  0  0  0
   -4.2338    0.9283    2.5645 H   0  0  0  0  0  0  0  0  0  0  0  0
   -1.2626   -0.1515   -0.1463 N   0  0  0  0  0  0  0  0  0  0  0  0
    0.0431   -0.5785   -0.5755 C   0  0  2  0  0  0  0  0  0  0  0  0
    1.0380   -0.2241    0.5218 C   0  0  0  0  0  0  0  0  0  0  0  0
    2.1413    0.2677    0.2936 O   0  0  0  0  0  0  0  0  0  0  0  0
    0.4327    0.0726   -1.8935 C   0  0  0  0  0  0  0  0  0  0  0  0
   -1.5766    0.7776   -0.4197 H   0  0  0  0  0  0  0  0  0  0  0  0
   -0.0021   -1.6669   -0.6907 H   0  0  0  0  0  0  0  0  0  0  0  0
    0.4832    1.1634   -1.7976 H   0  0  0  0  0  0  0  0  0  0  0  0
    1.4140   -0.2750   -2.2329 H   0  0  0  0  0  0  0  0  0  0  0  0
   -0.2999   -0.1589   -2.6741 H   0  0  0  0  0  0  0  0  0  0  0  0
    0.5691   -0.5607    1.7869 N   0  0  0  0  0  0  0  0  0  0  0  0
    1.3432   -0.3639    2.9842 C   0  0  2  0  0  0  0  0  0  0  0  0
    0.9800   -1.4699    3.9662 C   0  0  0  0  0  0  0  0  0  0  0  0
   -0.1487   -1.9500    4.0483 O   0  0  0  0  0  0  0  0  0  0  0  0
    1.0861    1.0070    3.5902 C   0  0  0  0  0  0  0  0  0  0  0  0
   -0.3759   -0.9274    1.8823 H   0  0  0  0  0  0  0  0  0  0  0  0
    2.3965   -0.4593    2.6990 H   0  0  0  0  0  0  0  0  0  0  0  0
    0.0357    1.1212    3.8821 H   0  0  0  0  0  0  0  0  0  0  0  0
    1.6969    1.1662    4.4849 H   0  0  0  0  0  0  0  0  0  0  0  0
    1.3196    1.8006    2.8722 H   0  0  0  0  0  0  0  0  0  0  0  0
    2.0535   -1.8278    4.7696 N   0  0  0  0  0  0  0  0  0  0  0  0
    1.9509   -2.8251    5.8092 C   0  0  0  0  0  0  0  0  0  0  0  0
    2.9630   -1.4064    4.6052 H   0  0  0  0  0  0  0  0  0  0  0  0
    1.7058   -2.3365    6.7638 H   0  0  0  0  0  0  0  0  0  0  0  0
    1.1589   -3.5435    5.5511 H   0  0  0  0  0  0  0  0  0  0  0  0
    2.9100   -3.3553    5.9045 H   0  0  0  0  0  0  0  0  0  0  0  0
  1  3  1  0  0  0  0
  1  7  1  0  0  0  0
  1  2  2  0  0  0  0
 28 29  1  0  0  0  0
 29 37  1  0  0  0  0
 29 30  2  0  0  0  0
 18 19  1  0  0  0  0
 19 27  1  0  0  0  0
 19 20  2  0  0  0  0
  8  9  1  0  0  0  0
  9 17  1  0  0  0  0
  9 10  2  0  0  0  0
 28 31  1  0  0  0  0
 18 21  1  0  0  0  0
  8 11  1  0  0  0  0
 37 38  1  0  0  0  0
 27 28  1  0  0  0  0
 17 18  1  0  0  0  0
  7  8  1  0  0  0  0
  3  4  1  0  0  0  0
  3  5  1  0  0  0  0
  3  6  1  0  0  0  0
 31 34  1  0  0  0  0
 31 35  1  0  0  0  0
 31 36  1  0  0  0  0
 21 24  1  0  0  0  0
 21 25  1  0  0  0  0
 21 26  1  0  0  0  0
 11 14  1  0  0  0  0
 11 15  1  0  0  0  0
 11 16  1  0  0  0  0
 38 40  1  0  0  0  0
 38 41  1  0  0  0  0
 38 42  1  0  0  0  0
 28 33  1  0  0  0  0
 18 23  1  0  0  0  0
  8 13  1  0  0  0  0
 37 39  1  0  0  0  0
  7 12  1  0  0  0  0
 27 32  1  0  0  0  0
 17 22  1  0  0  0  0
M  END
$$$$

  -OEChem-05262214473D

 42 41  0     1  0  0  0  0  0999 V2000
   -5.7851   -0.9580    0.6237 C   0  0  0  0  0  0  0  0  0  0  0  0
   -6.2213    0.1296    0.2652 O   0  0  0  0  0  0  0  0  0  0  0  0
   -6.7088   -2.1270    0.7168 C   0  0  0  0  0  0  0  0  0  0  0  0
   -7.1713   -2.2193    1.7126 H   0  0  0  0  0  0  0  0  0  0  0  0
   -7.5511   -2.0547    0.0101 H   0  0  0  0  0  0  0  0  0  0  0  0
   -6.2485   -3.1083    0.5191 H   0  0  0  0  0  0  0  0  0  0  0  0
   -4.4733   -1.2411    0.9668 N   0  0  0  0  0  0  0  0  0  0  0  0
   -3.4203   -0.2603    0.9449 C   0  0  2  0  0  0  0  0  0  0  0  0
   -2.1242   -0.9699    0.5759 C   0  0  0  0  0  0  0  0  0  0  0  0
   -1.8694   -2.1225    0.9189 O   0  0  0  0  0  0  0  0  0  0  0  0
   -3.2916    0.4435    2.2868 C   0  0  0  0  0  0  0  0  0  0  0  0
   -4.2421   -2.1920    1.2489 H   0  0  0  0  0  0  0  0  0  0  0  0
   -3.6772    0.4622    0.1625 H   0  0  0  0  0  0  0  0  0  0  0  0
   -3.0345   -0.2644    3.0832 H   0  0  0  0  0  0  0  0  0  0  0  0
   -2.5093    1.2092    2.2599 H   0  0  0  0  0  0  0  0  0  0  0  0
   -4.2338    0.9283    2.5645 H   0  0  0  0  0  0  0  0  0  0  0  0
   -1.2626   -0.1515   -0.1463 N   0  0  0  0  0  0  0  0  0  0  0  0
    0.0431   -0.5785   -0.5755 C   0  0  2  0  0  0  0  0  0  0  0  0
    1.0380   -0.2241    0.5218 C   0  0  0  0  0  0  0  0  0  0  0  0
    2.0132    0.5005    0.3346 O   0  0  0  0  0  0  0  0  0  0  0  0
    0.4327    0.0726   -1.8935 C   0  0  0  0  0  0  0  0  0  0  0  0
   -1.5766    0.7776   -0.4197 H   0  0  0  0  0  0  0  0  0  0  0  0
   -0.0021   -1.6669   -0.6907 H   0  0  0  0  0  0  0  0  0  0  0  0
    0.4832    1.1634   -1.7976 H   0  0  0  0  0  0  0  0  0  0  0  0
    1.4140   -0.2750   -2.2329 H   0  0  0  0  0  0  0  0  0  0  0  0
   -0.2999   -0.1589   -2.6741 H   0  0  0  0  0  0  0  0  0  0  0  0
    0.7358   -0.8464    1.7281 N   0  0  0  0  0  0  0  0  0  0  0  0
    1.5503   -0.7032    2.9059 C   0  0  2  0  0  0  0  0  0  0  0  0
    1.4696   -2.0036    3.6945 C   0  0  0  0  0  0  0  0  0  0  0  0
    0.4563   -2.6979    3.7413 O   0  0  0  0  0  0  0  0  0  0  0  0
    1.0959    0.4753    3.7530 C   0  0  0  0  0  0  0  0  0  0  0  0
   -0.1170   -1.3980    1.7996 H   0  0  0  0  0  0  0  0  0  0  0  0
    2.5787   -0.5470    2.5622 H   0  0  0  0  0  0  0  0  0  0  0  0
    0.0676    0.3368    4.1065 H   0  0  0  0  0  0  0  0  0  0  0  0
    1.7342    0.6002    4.6339 H   0  0  0  0  0  0  0  0  0  0  0  0
    1.1263    1.4053    3.1751 H   0  0  0  0  0  0  0  0  0  0  0  0
    2.6484   -2.2754    4.3748 N   0  0  0  0  0  0  0  0  0  0  0  0
    2.8079   -3.4301    5.2276 C   0  0  0  0  0  0  0  0  0  0  0  0
    3.4512   -1.6665    4.2465 H   0  0  0  0  0  0  0  0  0  0  0  0
    2.5517   -3.1602    6.2628 H   0  0  0  0  0  0  0  0  0  0  0  0
    2.1419   -4.2350    4.8832 H   0  0  0  0  0  0  0  0  0  0  0  0
    3.8516   -3.7749    5.1863 H   0  0  0  0  0  0  0  0  0  0  0  0
  1  3  1  0  0  0  0
  1  7  1  0  0  0  0
  1  2  2  0  0  0  0
 28 29  1  0  0  0  0
 29 37  1  0  0  0  0
 29 30  2  0  0  0  0
 18 19  1  0  0  0  0
 19 27  1  0  0  0  0
 19 20  2  0  0  0  0
  8  9  1  0  0  0  0
  9 17  1  0  0  0  0
  9 10  2  0  0  0  0
 28 31  1  0  0  0  0
 18 21  1  0  0  0  0
  8 11  1  0  0  0  0
 37 38  1  0  0  0  0
 27 28  1  0  0  0  0
 17 18  1  0  0  0  0
  7  8  1  0  0  0  0
  3  4  1  0  0  0  0
  3  5  1  0  0  0  0
  3  6  1  0  0  0  0
 31 34  1  0  0  0  0
 31 35  1  0  0  0  0
 31 36  1  0  0  0  0
 21 24  1  0  0  0  0
 21 25  1  0  0  0  0
 21 26  1  0  0  0  0
 11 14  1  0  0  0  0
 11 15  1  0  0  0  0
 11 16  1  0  0  0  0
 38 40  1  0  0  0  0
 38 41  1  0  0  0  0
 38 42  1  0  0  0  0
 28 33  1  0  0  0  0
 18 23  1  0  0  0  0
  8 13  1  0  0  0  0
 37 39  1  0  0  0  0
  7 12  1  0  0  0  0
 27 32  1  0  0  0  0
 17 22  1  0  0  0  0
M  END
$$$$

  -OEChem-05262214473D

 42 41  0     1  0  0  0  0  0999 V2000
   -5.7851   -0.9580    0.6237 C   0  0  0  0  0  0  0  0  0  0  0  0
   -6.2213    0.1296    0.2652 O   0  0  0  0  0  0  0  0  0  0  0  0
   -6.7088   -2.1270    0.7168 C   0  0  0  0  0  0  0  0  0  0  0  0
   -7.1713   -2.2193    1.7126 H   0  0  0  0  0  0  0  0  0  0  0  0
   -7.5511   -2.0547    0.0101 H   0  0  0  0  0  0  0  0  0  0  0  0
   -6.2485   -3.1083    0.5191 H   0  0  0  0  0  0  0  0  0  0  0  0
   -4.4733   -1.2411    0.9668 N   0  0  0  0  0  0  0  0  0  0  0  0
   -3.4203   -0.2603    0.9449 C   0  0  2  0  0  0  0  0  0  0  0  0
   -2.1242   -0.9699    0.5759 C   0  0  0  0  0  0  0  0  0  0  0  0
   -1.8694   -2.1225    0.9189 O   0  0  0  0  0  0  0  0  0  0  0  0
   -3.2916    0.4435    2.2868 C   0  0  0  0  0  0  0  0  0  0  0  0
   -4.2421   -2.1920    1.2489 H   0  0  0  0  0  0  0  0  0  0  0  0
   -3.6772    0.4622    0.1625 H   0  0  0  0  0  0  0  0  0  0  0  0
   -3.0345   -0.2644    3.0832 H   0  0  0  0  0  0  0  0  0  0  0  0
   -2.5093    1.2092    2.2599 H   0  0  0  0  0  0  0  0  0  0  0  0
   -4.2338    0.9283    2.5645 H   0  0  0  0  0  0  0  0  0  0  0  0
   -1.2626   -0.1515   -0.1463 N   0  0  0  0  0  0  0  0  0  0  0  0
    0.0431   -0.5785   -0.5755 C   0  0  2  0  0  0  0  0  0  0  0  0
    1.0380   -0.2241    0.5218 C   0  0  0  0  0  0  0  0  0  0  0  0
    1.8485    0.6947    0.4212 O   0  0  0  0  0  0  0  0  0  0  0  0
    0.4327    0.0726   -1.8935 C   0  0  0  0  0  0  0  0  0  0  0  0
   -1.5766    0.7776   -0.4197 H   0  0  0  0  0  0  0  0  0  0  0  0
   -0.0021   -1.6669   -0.6907 H   0  0  0  0  0  0  0  0  0  0  0  0
    0.4832    1.1634   -1.7976 H   0  0  0  0  0  0  0  0  0  0  0  0
    1.4140   -0.2750   -2.2329 H   0  0  0  0  0  0  0  0  0  0  0  0
   -0.2999   -0.1589   -2.6741 H   0  0  0  0  0  0  0  0  0  0  0  0
    0.9465   -1.0813    1.6129 N   0  0  0  0  0  0  0  0  0  0  0  0
    1.8090   -0.9791    2.7605 C   0  0  2  0  0  0  0  0  0  0  0  0
    2.0258   -2.3819    3.3124 C   0  0  0  0  0  0  0  0  0  0  0  0
    1.1617   -3.2557    3.2818 O   0  0  0  0  0  0  0  0  0  0  0  0
    1.2144   -0.0641    3.8197 C   0  0  0  0  0  0  0  0  0  0  0  0
    0.2158   -1.7903    1.6245 H   0  0  0  0  0  0  0  0  0  0  0  0
    2.7627   -0.5747    2.4043 H   0  0  0  0  0  0  0  0  0  0  0  0
    0.2583   -0.4529    4.1887 H   0  0  0  0  0  0  0  0  0  0  0  0
    1.8848    0.0353    4.6798 H   0  0  0  0  0  0  0  0  0  0  0  0
    1.0315    0.9362    3.4126 H   0  0  0  0  0  0  0  0  0  0  0  0
    3.2826   -2.5302    3.8820 N   0  0  0  0  0  0  0  0  0  0  0  0
    3.7134   -3.7564    4.5119 C   0  0  0  0  0  0  0  0  0  0  0  0
    3.9496   -1.7660    3.8268 H   0  0  0  0  0  0  0  0  0  0  0  0
    3.4923   -3.7134    5.5886 H   0  0  0  0  0  0  0  0  0  0  0  0
    3.1800   -4.6067    4.0619 H   0  0  0  0  0  0  0  0  0  0  0  0
    4.7961   -3.8833    4.3649 H   0  0  0  0  0  0  0  0  0  0  0  0
  1  3  1  0  0  0  0
  1  7  1  0  0  0  0
  1  2  2  0  0  0  0
 28 29  1  0  0  0  0
 29 37  1  0  0  0  0
 29 30  2  0  0  0  0
 18 19  1  0  0  0  0
 19 27  1  0  0  0  0
 19 20  2  0  0  0  0
  8  9  1  0  0  0  0
  9 17  1  0  0  0  0
  9 10  2  0  0  0  0
 28 31  1  0  0  0  0
 18 21  1  0  0  0  0
  8 11  1  0  0  0  0
 37 38  1  0  0  0  0
 27 28  1  0  0  0  0
 17 18  1  0  0  0  0
  7  8  1  0  0  0  0
  3  4  1  0  0  0  0
  3  5  1  0  0  0  0
  3  6  1  0  0  0  0
 31 34  1  0  0  0  0
 31 35  1  0  0  0  0
 31 36  1  0  0  0  0
 21 24  1  0  0  0  0
 21 25  1  0  0  0  0
 21 26  1  0  0  0  0
 11 14  1  0  0  0  0
 11 15  1  0  0  0  0
 11 16  1  0  0  0  0
 38 40  1  0  0  0  0
 38 41  1  0  0  0  0
 38 42  1  0  0  0  0
 28 33  1  0  0  0  0
 18 23  1  0  0  0  0
  8 13  1  0  0  0  0
 37 39  1  0  0  0  0
  7 12  1  0  0  0  0
 27 32  1  0  0  0  0
 17 22  1  0  0  0  0
M  END
$$$$

  -OEChem-05262214473D

 42 41  0     1  0  0  0  0  0999 V2000
   -5.7851   -0.9580    0.6237 C   0  0  0  0  0  0  0  0  0  0  0  0
   -6.2213    0.1296    0.2652 O   0  0  0  0  0  0  0  0  0  0  0  0
   -6.7088   -2.1270    0.7168 C   0  0  0  0  0  0  0  0  0  0  0  0
   -7.1713   -2.2193    1.7126 H   0  0  0  0  0  0  0  0  0  0  0  0
   -7.5511   -2.0547    0.0101 H   0  0  0  0  0  0  0  0  0  0  0  0
   -6.2485   -3.1083    0.5191 H   0  0  0  0  0  0  0  0  0  0  0  0
   -4.4733   -1.2411    0.9668 N   0  0  0  0  0  0  0  0  0  0  0  0
   -3.4203   -0.2603    0.9449 C   0  0  2  0  0  0  0  0  0  0  0  0
   -2.1242   -0.9699    0.5759 C   0  0  0  0  0  0  0  0  0  0  0  0
   -1.8694   -2.1225    0.9189 O   0  0  0  0  0  0  0  0  0  0  0  0
   -3.2916    0.4435    2.2868 C   0  0  0  0  0  0  0  0  0  0  0  0
   -4.2421   -2.1920    1.2489 H   0  0  0  0  0  0  0  0  0  0  0  0
   -3.6772    0.4622    0.1625 H   0  0  0  0  0  0  0  0  0  0  0  0
   -3.0345   -0.2644    3.0832 H   0  0  0  0  0  0  0  0  0  0  0  0
   -2.5093    1.2092    2.2599 H   0  0  0  0  0  0  0  0  0  0  0  0
   -4.2338    0.9283    2.5645 H   0  0  0  0  0  0  0  0  0  0  0  0
   -1.2626   -0.1515   -0.1463 N   0  0  0  0  0  0  0  0  0  0  0  0
    0.0431   -0.5785   -0.5755 C   0  0  2  0  0  0  0  0  0  0  0  0
    1.0380   -0.2241    0.5218 C   0  0  0  0  0  0  0  0  0  0  0  0
    1.6584    0.8368    0.5477 O   0  0  0  0  0  0  0  0  0  0  0  0
    0.4327    0.0726   -1.8935 C   0  0  0  0  0  0  0  0  0  0  0  0
   -1.5766    0.7776   -0.4197 H   0  0  0  0  0  0  0  0  0  0  0  0
   -0.0021   -1.6669   -0.6907 H   0  0  0  0  0  0  0  0  0  0  0  0
    0.4832    1.1634   -1.7976 H   0  0  0  0  0  0  0  0  0  0  0  0
    1.4140   -0.2750   -2.2329 H   0  0  0  0  0  0  0  0  0  0  0  0
   -0.2999   -0.1589   -2.6741 H   0  0  0  0  0  0  0  0  0  0  0  0
    1.1869   -1.2495    1.4492 N   0  0  0  0  0  0  0  0  0  0  0  0
    2.1015   -1.1727    2.5578 C   0  0  2  0  0  0  0  0  0  0  0  0
    2.6105   -2.5789    2.8459 C   0  0  0  0  0  0  0  0  0  0  0  0
    1.9194   -3.5852    2.7013 O   0  0  0  0  0  0  0  0  0  0  0  0
    1.4334   -0.5742    3.7859 C   0  0  0  0  0  0  0  0  0  0  0  0
    0.5999   -2.0775    1.3690 H   0  0  0  0  0  0  0  0  0  0  0  0
    2.9362   -0.5404    2.2360 H   0  0  0  0  0  0  0  0  0  0  0  0
    0.5946   -1.1940    4.1231 H   0  0  0  0  0  0  0  0  0  0  0  0
    2.1383   -0.4901    4.6196 H   0  0  0  0  0  0  0  0  0  0  0  0
    1.0417    0.4253    3.5683 H   0  0  0  0  0  0  0  0  0  0  0  0
    3.9131   -2.5746    3.3247 N   0  0  0  0  0  0  0  0  0  0  0  0
    4.6058   -3.7816    3.7110 C   0  0  0  0  0  0  0  0  0  0  0  0
    4.4243   -1.6982    3.3745 H   0  0  0  0  0  0  0  0  0  0  0  0
    4.4633   -3.9583    4.7873 H   0  0  0  0  0  0  0  0  0  0  0  0
    4.2027   -4.6332    3.1432 H   0  0  0  0  0  0  0  0  0  0  0  0
    5.6792   -3.6730    3.4963 H   0  0  0  0  0  0  0  0  0  0  0  0
  1  3  1  0  0  0  0
  1  7  1  0  0  0  0
  1  2  2  0  0  0  0
 28 29  1  0  0  0  0
 29 37  1  0  0  0  0
 29 30  2  0  0  0  0
 18 19  1  0  0  0  0
 19 27  1  0  0  0  0
 19 20  2  0  0  0  0
  8  9  1  0  0  0  0
  9 17  1  0  0  0  0
  9 10  2  0  0  0  0
 28 31  1  0  0  0  0
 18 21  1  0  0  0  0
  8 11  1  0  0  0  0
 37 38  1  0  0  0  0
 27 28  1  0  0  0  0
 17 18  1  0  0  0  0
  7  8  1  0  0  0  0
  3  4  1  0  0  0  0
  3  5  1  0  0  0  0
  3  6  1  0  0  0  0
 31 34  1  0  0  0  0
 31 35  1  0  0  0  0
 31 36  1  0  0  0  0
 21 24  1  0  0  0  0
 21 25  1  0  0  0  0
 21 26  1  0  0  0  0
 11 14  1  0  0  0  0
 11 15  1  0  0  0  0
 11 16  1  0  0  0  0
 38 40  1  0  0  0  0
 38 41  1  0  0  0  0
 38 42  1  0  0  0  0
 28 33  1  0  0  0  0
 18 23  1  0  0  0  0
  8 13  1  0  0  0  0
 37 39  1  0  0  0  0
  7 12  1  0  0  0  0
 27 32  1  0  0  0  0
 17 22  1  0  0  0  0
M  END
$$$$

  -OEChem-05262214473D

 42 41  0     1  0  0  0  0  0999 V2000
   -5.7851   -0.9580    0.6237 C   0  0  0  0  0  0  0  0  0  0  0  0
   -6.2213    0.1296    0.2652 O   0  0  0  0  0  0  0  0  0  0  0  0
   -6.7088   -2.1270    0.7168 C   0  0  0  0  0  0  0  0  0  0  0  0
   -7.1713   -2.2193    1.7126 H   0  0  0  0  0  0  0  0  0  0  0  0
   -7.5511   -2.0547    0.0101 H   0  0  0  0  0  0  0  0  0  0  0  0
   -6.2485   -3.1083    0.5191 H   0  0  0  0  0  0  0  0  0  0  0  0
   -4.4733   -1.2411    0.9668 N   0  0  0  0  0  0  0  0  0  0  0  0
   -3.4203   -0.2603    0.9449 C   0  0  2  0  0  0  0  0  0  0  0  0
   -2.1242   -0.9699    0.5759 C   0  0  0  0  0  0  0  0  0  0  0  0
   -1.8694   -2.1225    0.9189 O   0  0  0  0  0  0  0  0  0  0  0  0
   -3.2916    0.4435    2.2868 C   0  0  0  0  0  0  0  0  0  0  0  0
   -4.2421   -2.1920    1.2489 H   0  0  0  0  0  0  0  0  0  0  0  0
   -3.6772    0.4622    0.1625 H   0  0  0  0  0  0  0  0  0  0  0  0
   -3.0345   -0.2644    3.0832 H   0  0  0  0  0  0  0  0  0  0  0  0
   -2.5093    1.2092    2.2599 H   0  0  0  0  0  0  0  0  0  0  0  0
   -4.2338    0.9283    2.5645 H   0  0  0  0  0  0  0  0  0  0  0  0
   -1.2626   -0.1515   -0.1463 N   0  0  0  0  0  0  0  0  0  0  0  0
    0.0431   -0.5785   -0.5755 C   0  0  2  0  0  0  0  0  0  0  0  0
    1.0380   -0.2241    0.5218 C   0  0  0  0  0  0  0  0  0  0  0  0
    1.4559    0.9173    0.7053 O   0  0  0  0  0  0  0  0  0  0  0  0
    0.4327    0.0726   -1.8935 C   0  0  0  0  0  0  0  0  0  0  0  0
   -1.5766    0.7776   -0.4197 H   0  0  0  0  0  0  0  0  0  0  0  0
   -0.0021   -1.6669   -0.6907 H   0  0  0  0  0  0  0  0  0  0  0  0
    0.4832    1.1634   -1.7976 H   0  0  0  0  0  0  0  0  0  0  0  0
    1.4140   -0.2750   -2.2329 H   0  0  0  0  0  0  0  0  0  0  0  0
   -0.2999   -0.1589   -2.6741 H   0  0  0  0  0  0  0  0  0  0  0  0
    1.4406   -1.3395    1.2482 N   0  0  0  0  0  0  0  0  0  0  0  0
    2.4080   -1.2709    2.3116 C   0  0  2  0  0  0  0  0  0  0  0  0
    3.1839   -2.5813    2.3267 C   0  0  0  0  0  0  0  0  0  0  0  0
    2.6777   -3.6640    2.0391 O   0  0  0  0  0  0  0  0  0  0  0  0
    1.7381   -1.0204    3.6537 C   0  0  0  0  0  0  0  0  0  0  0  0
    1.0091   -2.2402    1.0505 H   0  0  0  0  0  0  0  0  0  0  0  0
    3.0871   -0.4465    2.0687 H   0  0  0  0  0  0  0  0  0  0  0  0
    1.0537   -1.8361    3.9141 H   0  0  0  0  0  0  0  0  0  0  0  0
    2.4775   -0.9401    4.4574 H   0  0  0  0  0  0  0  0  0  0  0  0
    1.1562   -0.0926    3.6317 H   0  0  0  0  0  0  0  0  0  0  0  0
    4.4968   -2.4057    2.7409 N   0  0  0  0  0  0  0  0  0  0  0  0
    5.4243   -3.5042    2.8792 C   0  0  0  0  0  0  0  0  0  0  0  0
    4.8429   -1.4678    2.9205 H   0  0  0  0  0  0  0  0  0  0  0  0
    5.3987   -3.8783    3.9133 H   0  0  0  0  0  0  0  0  0  0  0  0
    5.1402   -4.3128    2.1898 H   0  0  0  0  0  0  0  0  0  0  0  0
    6.4406   -3.1583    2.6397 H   0  0  0  0  0  0  0  0  0  0  0  0
  1  3  1  0  0  0  0
  1  7  1  0  0  0  0
  1  2  2  0  0  0  0
 28 29  1  0  0  0  0
 29 37  1  0  0  0  0
 29 30  2  0  0  0  0
 18 19  1  0  0  0  0
 19 27  1  0  0  0  0
 19 20  2  0  0  0  0
  8  9  1  0  0  0  0
  9 17  1  0  0  0  0
  9 10  2  0  0  0  0
 28 31  1  0  0  0  0
 18 21  1  0  0  0  0
  8 11  1  0  0  0  0
 37 38  1  0  0  0  0
 27 28  1  0  0  0  0
 17 18  1  0  0  0  0
  7  8  1  0  0  0  0
  3  4  1  0  0  0  0
  3  5  1  0  0  0  0
  3  6  1  0  0  0  0
 31 34  1  0  0  0  0
 31 35  1  0  0  0  0
 31 36  1  0  0  0  0
 21 24  1  0  0  0  0
 21 25  1  0  0  0  0
 21 26  1  0  0  0  0
 11 14  1  0  0  0  0
 11 15  1  0  0  0  0
 11 16  1  0  0  0  0
 38 40  1  0  0  0  0
 38 41  1  0  0  0  0
 38 42  1  0  0  0  0
 28 33  1  0  0  0  0
 18 23  1  0  0  0  0
  8 13  1  0  0  0  0
 37 39  1  0  0  0  0
  7 12  1  0  0  0  0
 27 32  1  0  0  0  0
 17 22  1  0  0  0  0
M  END
$$$$

  -OEChem-05262214473D

 42 41  0     1  0  0  0  0  0999 V2000
   -5.7851   -0.9580    0.6237 C   0  0  0  0  0  0  0  0  0  0  0  0
   -6.2213    0.1296    0.2652 O   0  0  0  0  0  0  0  0  0  0  0  0
   -6.7088   -2.1270    0.7168 C   0  0  0  0  0  0  0  0  0  0  0  0
   -7.1713   -2.2193    1.7126 H   0  0  0  0  0  0  0  0  0  0  0  0
   -7.5511   -2.0547    0.0101 H   0  0  0  0  0  0  0  0  0  0  0  0
   -6.2485   -3.1083    0.5191 H   0  0  0  0  0  0  0  0  0  0  0  0
   -4.4733   -1.2411    0.9668 N   0  0  0  0  0  0  0  0  0  0  0  0
   -3.4203   -0.2603    0.9449 C   0  0  2  0  0  0  0  0  0  0  0  0
   -2.1242   -0.9699    0.5759 C   0  0  0  0  0  0  0  0  0  0  0  0
   -1.8694   -2.1225    0.9189 O   0  0  0  0  0  0  0  0  0  0  0  0
   -3.2916    0.4435    2.2868 C   0  0  0  0  0  0  0  0  0  0  0  0
   -4.2421   -2.1920    1.2489 H   0  0  0  0  0  0  0  0  0  0  0  0
   -3.6772    0.4622    0.1625 H   0  0  0  0  0  0  0  0  0  0  0  0
   -3.0345   -0.2644    3.0832 H   0  0  0  0  0  0  0  0  0  0  0  0
   -2.5093    1.2092    2.2599 H   0  0  0  0  0  0  0  0  0  0  0  0
   -4.2338    0.9283    2.5645 H   0  0  0  0  0  0  0  0  0  0  0  0
   -1.2626   -0.1515   -0.1463 N   0  0  0  0  0  0  0  0  0  0  0  0
    0.0431   -0.5785   -0.5755 C   0  0  2  0  0  0  0  0  0  0  0  0
    1.0380   -0.2241    0.5218 C   0  0  0  0  0  0  0  0  0  0  0  0
    1.2548    0.9306    0.8833 O   0  0  0  0  0  0  0  0  0  0  0  0
    0.4327    0.0726   -1.8935 C   0  0  0  0  0  0  0  0  0  0  0  0
   -1.5766    0.7776   -0.4197 H   0  0  0  0  0  0  0  0  0  0  0  0
   -0.0021   -1.6669   -0.6907 H   0  0  0  0  0  0  0  0  0  0  0  0
    0.4832    1.1634   -1.7976 H   0  0  0  0  0  0  0  0  0  0  0  0
    1.4140   -0.2750   -2.2329 H   0  0  0  0  0  0  0  0  0  0  0  0
   -0.2999   -0.1589   -2.6741 H   0  0  0  0  0  0  0  0  0  0  0  0
    1.6904   -1.3450    1.0236 N   0  0  0  0  0  0  0  0  0  0  0  0
    2.7075   -1.2670    2.0388 C   0  0  2  0  0  0  0  0  0  0  0  0
    3.7070   -2.3890    1.7903 C   0  0  0  0  0  0  0  0  0  0  0  0
    3.3850   -3.4868    1.3406 O   0  0  0  0  0  0  0  0  0  0  0  0
    2.1076   -1.3722    3.4323 C   0  0  0  0  0  0  0  0  0  0  0  0
    1.4155   -2.2671    0.6907 H   0  0  0  0  0  0  0  0  0  0  0  0
    3.2054   -0.2993    1.9140 H   0  0  0  0  0  0  0  0  0  0  0  0
    1.6044   -2.3353    3.5761 H   0  0  0  0  0  0  0  0  0  0  0  0
    2.8793   -1.2841    4.2042 H   0  0  0  0  0  0  0  0  0  0  0  0
    1.3672   -0.5823    3.5985 H   0  0  0  0  0  0  0  0  0  0  0  0
    4.9940   -2.0350    2.1704 N   0  0  0  0  0  0  0  0  0  0  0  0
    6.1130   -2.9430    2.0735 C   0  0  0  0  0  0  0  0  0  0  0  0
    5.1770   -1.0903    2.4957 H   0  0  0  0  0  0  0  0  0  0  0  0
    6.2346   -3.4789    3.0264 H   0  0  0  0  0  0  0  0  0  0  0  0
    5.9285   -3.6674    1.2665 H   0  0  0  0  0  0  0  0  0  0  0  0
    7.0285   -2.3743    1.8534 H   0  0  0  0  0  0  0  0  0  0  0  0
  1  3  1  0  0  0  0
  1  7  1  0  0  0  0
  1  2  2  0  0  0  0
 28 29  1  0  0  0  0
 29 37  1  0  0  0  0
 29 30  2  0  0  0  0
 18 19  1  0  0  0  0
 19 27  1  0  0  0  0
 19 20  2  0  0  0  0
  8  9  1  0  0  0  0
  9 17  1  0  0  0  0
  9 10  2  0  0  0  0
 28 31  1  0  0  0  0
 18 21  1  0  0  0  0
  8 11  1  0  0  0  0
 37 38  1  0  0  0  0
 27 28  1  0  0  0  0
 17 18  1  0  0  0  0
  7  8  1  0  0  0  0
  3  4  1  0  0  0  0
  3  5  1  0  0  0  0
  3  6  1  0  0  0  0
 31 34  1  0  0  0  0
 31 35  1  0  0  0  0
 31 36  1  0  0  0  0
 21 24  1  0  0  0  0
 21 25  1  0  0  0  0
 21 26  1  0  0  0  0
 11 14  1  0  0  0  0
 11 15  1  0  0  0  0
 11 16  1  0  0  0  0
 38 40  1  0  0  0  0
 38 41  1  0  0  0  0
 38 42  1  0  0  0  0
 28 33  1  0  0  0  0
 18 23  1  0  0  0  0
  8 13  1  0  0  0  0
 37 39  1  0  0  0  0
  7 12  1  0  0  0  0
 27 32  1  0  0  0  0
 17 22  1  0  0  0  0
M  END
$$$$

  -OEChem-05262214473D

 42 41  0     1  0  0  0  0  0999 V2000
   -5.7851   -0.9580    0.6237 C   0  0  0  0  0  0  0  0  0  0  0  0
   -6.2213    0.1296    0.2652 O   0  0  0  0  0  0  0  0  0  0  0  0
   -6.7088   -2.1270    0.7168 C   0  0  0  0  0  0  0  0  0  0  0  0
   -7.1713   -2.2193    1.7126 H   0  0  0  0  0  0  0  0  0  0  0  0
   -7.5511   -2.0547    0.0101 H   0  0  0  0  0  0  0  0  0  0  0  0
   -6.2485   -3.1083    0.5191 H   0  0  0  0  0  0  0  0  0  0  0  0
   -4.4733   -1.2411    0.9668 N   0  0  0  0  0  0  0  0  0  0  0  0
   -3.4203   -0.2603    0.9449 C   0  0  2  0  0  0  0  0  0  0  0  0
   -2.1242   -0.9699    0.5759 C   0  0  0  0  0  0  0  0  0  0  0  0
   -1.8694   -2.1225    0.9189 O   0  0  0  0  0  0  0  0  0  0  0  0
   -3.2916    0.4435    2.2868 C   0  0  0  0  0  0  0  0  0  0  0  0
   -4.2421   -2.1920    1.2489 H   0  0  0  0  0  0  0  0  0  0  0  0
   -3.6772    0.4622    0.1625 H   0  0  0  0  0  0  0  0  0  0  0  0
   -3.0345   -0.2644    3.0832 H   0  0  0  0  0  0  0  0  0  0  0  0
   -2.5093    1.2092    2.2599 H   0  0  0  0  0  0  0  0  0  0  0  0
   -4.2338    0.9283    2.5645 H   0  0  0  0  0  0  0  0  0  0  0  0
   -1.2626   -0.1515   -0.1463 N   0  0  0  0  0  0  0  0  0  0  0  0
    0.0431   -0.5785   -0.5755 C   0  0  2  0  0  0  0  0  0  0  0  0
    1.0380   -0.2241    0.5218 C   0  0  0  0  0  0  0  0  0  0  0  0
    1.0688    0.8759    1.0696 O   0  0  0  0  0  0  0  0  0  0  0  0
    0.4327    0.0726   -1.8935 C   0  0  0  0  0  0  0  0  0  0  0  0
   -1.5766    0.7776   -0.4197 H   0  0  0  0  0  0  0  0  0  0  0  0
   -0.0021   -1.6669   -0.6907 H   0  0  0  0  0  0  0  0  0  0  0  0
    0.4832    1.1634   -1.7976 H   0  0  0  0  0  0  0  0  0  0  0  0
    1.4140   -0.2750   -2.2329 H   0  0  0  0  0  0  0  0  0  0  0  0
   -0.2999   -0.1589   -2.6741 H   0  0  0  0  0  0  0  0  0  0  0  0
    1.9191   -1.2659    0.7906 N   0  0  0  0  0  0  0  0  0  0  0  0
    2.9797   -1.1613    1.7579 C   0  0  2  0  0  0  0  0  0  0  0  0
    4.1441   -2.0149    1.2732 C   0  0  0  0  0  0  0  0  0  0  0  0
    3.9931   -3.0656    0.6532 O   0  0  0  0  0  0  0  0  0  0  0  0
    2.5168   -1.6057    3.1367 C   0  0  0  0  0  0  0  0  0  0  0  0
    1.7914   -2.1565    0.3142 H   0  0  0  0  0  0  0  0  0  0  0  0
    3.2829   -0.1089    1.7823 H   0  0  0  0  0  0  0  0  0  0  0  0
    2.2090   -2.6577    3.1320 H   0  0  0  0  0  0  0  0  0  0  0  0
    3.3163   -1.4986    3.8772 H   0  0  0  0  0  0  0  0  0  0  0  0
    1.6604   -1.0103    3.4709 H   0  0  0  0  0  0  0  0  0  0  0  0
    5.3708   -1.4878    1.6520 N   0  0  0  0  0  0  0  0  0  0  0  0
    6.6252   -2.1362    1.3486 C   0  0  0  0  0  0  0  0  0  0  0  0
    5.4037   -0.5916    2.1290 H   0  0  0  0  0  0  0  0  0  0  0  0
    6.9142   -2.7872    2.1868 H   0  0  0  0  0  0  0  0  0  0  0  0
    6.5140   -2.7408    0.4364 H   0  0  0  0  0  0  0  0  0  0  0  0
    7.4029   -1.3744    1.1911 H   0  0  0  0  0  0  0  0  0  0  0  0
  1  3  1  0  0  0  0
  1  7  1  0  0  0  0
  1  2  2  0  0  0  0
 28 29  1  0  0  0  0
 29 37  1  0  0  0  0
 29 30  2  0  0  0  0
 18 19  1  0  0  0  0
 19 27  1  0  0  0  0
 19 20  2  0  0  0  0
  8  9  1  0  0  0  0
  9 17  1  0  0  0  0
  9 10  2  0  0  0  0
 28 31  1  0  0  0  0
 18 21  1  0  0  0  0
  8 11  1  0  0  0  0
 37 38  1  0  0  0  0
 27 28  1  0  0  0  0
 17 18  1  0  0  0  0
  7  8  1  0  0  0  0
  3  4  1  0  0  0  0
  3  5  1  0  0  0  0
  3  6  1  0  0  0  0
 31 34  1  0  0  0  0
 31 35  1  0  0  0  0
 31 36  1  0  0  0  0
 21 24  1  0  0  0  0
 21 25  1  0  0  0  0
 21 26  1  0  0  0  0
 11 14  1  0  0  0  0
 11 15  1  0  0  0  0
 11 16  1  0  0  0  0
 38 40  1  0  0  0  0
 38 41  1  0  0  0  0
 38 42  1  0  0  0  0
 28 33  1  0  0  0  0
 18 23  1  0  0  0  0
  8 13  1  0  0  0  0
 37 39  1  0  0  0  0
  7 12  1  0  0  0  0
 27 32  1  0  0  0  0
 17 22  1  0  0  0  0
M  END
$$$$

  -OEChem-05262214473D

 42 41  0     1  0  0  0  0  0999 V2000
   -5.7851   -0.9580    0.6237 C   0  0  0  0  0  0  0  0  0  0  0  0
   -6.2213    0.1296    0.2652 O   0  0  0  0  0  0  0  0  0  0  0  0
   -6.7088   -2.1270    0.7168 C   0  0  0  0  0  0  0  0  0  0  0  0
   -7.1713   -2.2193    1.7126 H   0  0  0  0  0  0  0  0  0  0  0  0
   -7.5511   -2.0547    0.0101 H   0  0  0  0  0  0  0  0  0  0  0  0
   -6.2485   -3.1083    0.5191 H   0  0  0  0  0  0  0  0  0  0  0  0
   -4.4733   -1.2411    0.9668 N   0  0  0  0  0  0  0  0  0  0  0  0
   -3.4203   -0.2603    0.9449 C   0  0  2  0  0  0  0  0  0  0  0  0
   -2.1242   -0.9699    0.5759 C   0  0  0  0  0  0  0  0  0  0  0  0
   -1.8694   -2.1225    0.9189 O   0  0  0  0  0  0  0  0  0  0  0  0
   -3.2916    0.4435    2.2868 C   0  0  0  0  0  0  0  0  0  0  0  0
   -4.2421   -2.1920    1.2489 H   0  0  0  0  0  0  0  0  0  0  0  0
   -3.6772    0.4622    0.1625 H   0  0  0  0  0  0  0  0  0  0  0  0
   -3.0345   -0.2644    3.0832 H   0  0  0  0  0  0  0  0  0  0  0  0
   -2.5093    1.2092    2.2599 H   0  0  0  0  0  0  0  0  0  0  0  0
   -4.2338    0.9283    2.5645 H   0  0  0  0  0  0  0  0  0  0  0  0
   -1.2626   -0.1515   -0.1463 N   0  0  0  0  0  0  0  0  0  0  0  0
    0.0431   -0.5785   -0.5755 C   0  0  2  0  0  0  0  0  0  0  0  0
    1.0380   -0.2241    0.5218 C   0  0  0  0  0  0  0  0  0  0  0  0
    0.9106    0.7568    1.2516 O   0  0  0  0  0  0  0  0  0  0  0  0
    0.4327    0.0726   -1.8935 C   0  0  0  0  0  0  0  0  0  0  0  0
   -1.5766    0.7776   -0.4197 H   0  0  0  0  0  0  0  0  0  0  0  0
   -0.0021   -1.6669   -0.6907 H   0  0  0  0  0  0  0  0  0  0  0  0
    0.4832    1.1634   -1.7976 H   0  0  0  0  0  0  0  0  0  0  0  0
    1.4140   -0.2750   -2.2329 H   0  0  0  0  0  0  0  0  0  0  0  0
   -0.2999   -0.1589   -2.6741 H   0  0  0  0  0  0  0  0  0  0  0  0
    2.1113   -1.1073    0.5652 N   0  0  0  0  0  0  0  0  0  0  0  0
    3.2059   -0.9609    1.4880 C   0  0  2  0  0  0  0  0  0  0  0  0
    4.4654   -1.4847    0.8107 C   0  0  0  0  0  0  0  0  0  0  0  0
    4.4606   -2.4291    0.0238 O   0  0  0  0  0  0  0  0  0  0  0  0
    2.9378   -1.7049    2.7870 C   0  0  0  0  0  0  0  0  0  0  0  0
    2.1112   -1.9159   -0.0535 H   0  0  0  0  0  0  0  0  0  0  0  0
    3.3143    0.1117    1.6826 H   0  0  0  0  0  0  0  0  0  0  0  0
    2.8264   -2.7813    2.6121 H   0  0  0  0  0  0  0  0  0  0  0  0
    3.7588   -1.5691    3.4988 H   0  0  0  0  0  0  0  0  0  0  0  0
    2.0156   -1.3475    3.2577 H   0  0  0  0  0  0  0  0  0  0  0  0
    5.6014   -0.8013    1.2212 N   0  0  0  0  0  0  0  0  0  0  0  0
    6.9257   -1.1389    0.7540 C   0  0  0  0  0  0  0  0  0  0  0  0
    5.5076   -0.0057    1.8456 H   0  0  0  0  0  0  0  0  0  0  0  0
    7.3911   -1.8504    1.4519 H   0  0  0  0  0  0  0  0  0  0  0  0
    6.8568   -1.5962   -0.2440 H   0  0  0  0  0  0  0  0  0  0  0  0
    7.5381   -0.2268    0.6978 H   0  0  0  0  0  0  0  0  0  0  0  0
  1  3  1  0  0  0  0
  1  7  1  0  0  0  0
  1  2  2  0  0  0  0
 28 29  1  0  0  0  0
 29 37  1  0  0  0  0
 29 30  2  0  0  0  0
 18 19  1  0  0  0  0
 19 27  1  0  0  0  0
 19 20  2  0  0  0  0
  8  9  1  0  0  0  0
  9 17  1  0  0  0  0
  9 10  2  0  0  0  0
 28 31  1  0  0  0  0
 18 21  1  0  0  0  0
  8 11  1  0  0  0  0
 37 38  1  0  0  0  0
 27 28  1  0  0  0  0
 17 18  1  0  0  0  0
  7  8  1  0  0  0  0
  3  4  1  0  0  0  0
  3  5  1  0  0  0  0
  3  6  1  0  0  0  0
 31 34  1  0  0  0  0
 31 35  1  0  0  0  0
 31 36  1  0  0  0  0
 21 24  1  0  0  0  0
 21 25  1  0  0  0  0
 21 26  1  0  0  0  0
 11 14  1  0  0  0  0
 11 15  1  0  0  0  0
 11 16  1  0  0  0  0
 38 40  1  0  0  0  0
 38 41  1  0  0  0  0
 38 42  1  0  0  0  0
 28 33  1  0  0  0  0
 18 23  1  0  0  0  0
  8 13  1  0  0  0  0
 37 39  1  0  0  0  0
  7 12  1  0  0  0  0
 27 32  1  0  0  0  0
 17 22  1  0  0  0  0
M  END
$$$$

  -OEChem-05262214473D

 42 41  0     1  0  0  0  0  0999 V2000
   -5.7851   -0.9580    0.6237 C   0  0  0  0  0  0  0  0  0  0  0  0
   -6.2213    0.1296    0.2652 O   0  0  0  0  0  0  0  0  0  0  0  0
   -6.7088   -2.1270    0.7168 C   0  0  0  0  0  0  0  0  0  0  0  0
   -7.1713   -2.2193    1.7126 H   0  0  0  0  0  0  0  0  0  0  0  0
   -7.5511   -2.0547    0.0101 H   0  0  0  0  0  0  0  0  0  0  0  0
   -6.2485   -3.1083    0.5191 H   0  0  0  0  0  0  0  0  0  0  0  0
   -4.4733   -1.2411    0.9668 N   0  0  0  0  0  0  0  0  0  0  0  0
   -3.4203   -0.2603    0.9449 C   0  0  2  0  0  0  0  0  0  0  0  0
   -2.1242   -0.9699    0.5759 C   0  0  0  0  0  0  0  0  0  0  0  0
   -1.8694   -2.1225    0.9189 O   0  0  0  0  0  0  0  0  0  0  0  0
   -3.2916    0.4435    2.2868 C   0  0  0  0  0  0  0  0  0  0  0  0
   -4.2421   -2.1920    1.2489 H   0  0  0  0  0  0  0  0  0  0  0  0
   -3.6772    0.4622    0.1625 H   0  0  0  0  0  0  0  0  0  0  0  0
   -3.0345   -0.2644    3.0832 H   0  0  0  0  0  0  0  0  0  0  0  0
   -2.5093    1.2092    2.2599 H   0  0  0  0  0  0  0  0  0  0  0  0
   -4.2338    0.9283    2.5645 H   0  0  0  0  0  0  0  0  0  0  0  0
   -1.2626   -0.1515   -0.1463 N   0  0  0  0  0  0  0  0  0  0  0  0
    0.0431   -0.5785   -0.5755 C   0  0  2  0  0  0  0  0  0  0  0  0
    1.0380   -0.2241    0.5218 C   0  0  0  0  0  0  0  0  0  0  0  0
    0.7909    0.5816    1.4167 O   0  0  0  0  0  0  0  0  0  0  0  0
    0.4327    0.0726   -1.8935 C   0  0  0  0  0  0  0  0  0  0  0  0
   -1.5766    0.7776   -0.4197 H   0  0  0  0  0  0  0  0  0  0  0  0
   -0.0021   -1.6669   -0.6907 H   0  0  0  0  0  0  0  0  0  0  0  0
    0.4832    1.1634   -1.7976 H   0  0  0  0  0  0  0  0  0  0  0  0
    1.4140   -0.2750   -2.2329 H   0  0  0  0  0  0  0  0  0  0  0  0
   -0.2999   -0.1589   -2.6741 H   0  0  0  0  0  0  0  0  0  0  0  0
    2.2537   -0.8803    0.3627 N   0  0  0  0  0  0  0  0  0  0  0  0
    3.3708   -0.6795    1.2476 C   0  0  2  0  0  0  0  0  0  0  0  0
    4.6490   -0.8344    0.4342 C   0  0  0  0  0  0  0  0  0  0  0  0
    4.7555   -1.6207   -0.5047 O   0  0  0  0  0  0  0  0  0  0  0  0
    3.3419   -1.6632    2.4071 C   0  0  0  0  0  0  0  0  0  0  0  0
    2.3531   -1.5617   -0.3872 H   0  0  0  0  0  0  0  0  0  0  0  0
    3.2974    0.3475    1.6217 H   0  0  0  0  0  0  0  0  0  0  0  0
    3.4144   -2.6976    2.0519 H   0  0  0  0  0  0  0  0  0  0  0  0
    4.1765   -1.4906    3.0947 H   0  0  0  0  0  0  0  0  0  0  0  0
    2.4088   -1.5709    2.9733 H   0  0  0  0  0  0  0  0  0  0  0  0
    5.6703   -0.0224    0.9072 N   0  0  0  0  0  0  0  0  0  0  0  0
    6.9943   -0.0189    0.3301 C   0  0  0  0  0  0  0  0  0  0  0  0
    5.4817    0.6276    1.6646 H   0  0  0  0  0  0  0  0  0  0  0  0
    7.6328   -0.7324    0.8717 H   0  0  0  0  0  0  0  0  0  0  0  0
    6.9335   -0.3117   -0.7284 H   0  0  0  0  0  0  0  0  0  0  0  0
    7.4251    0.9903    0.4073 H   0  0  0  0  0  0  0  0  0  0  0  0
  1  3  1  0  0  0  0
  1  7  1  0  0  0  0
  1  2  2  0  0  0  0
 28 29  1  0  0  0  0
 29 37  1  0  0  0  0
 29 30  2  0  0  0  0
 18 19  1  0  0  0  0
 19 27  1  0  0  0  0
 19 20  2  0  0  0  0
  8  9  1  0  0  0  0
  9 17  1  0  0  0  0
  9 10  2  0  0  0  0
 28 31  1  0  0  0  0
 18 21  1  0  0  0  0
  8 11  1  0  0  0  0
 37 38  1  0  0  0  0
 27 28  1  0  0  0  0
 17 18  1  0  0  0  0
  7  8  1  0  0  0  0
  3  4  1  0  0  0  0
  3  5  1  0  0  0  0
  3  6  1  0  0  0  0
 31 34  1  0  0  0  0
 31 35  1  0  0  0  0
 31 36  1  0  0  0  0
 21 24  1  0  0  0  0
 21 25  1  0  0  0  0
 21 26  1  0  0  0  0
 11 14  1  0  0  0  0
 11 15  1  0  0  0  0
 11 16  1  0  0  0  0
 38 40  1  0  0  0  0
 38 41  1  0  0  0  0
 38 42  1  0  0  0  0
 28 33  1  0  0  0  0
 18 23  1  0  0  0  0
  8 13  1  0  0  0  0
 37 39  1  0  0  0  0
  7 12  1  0  0  0  0
 27 32  1  0  0  0  0
 17 22  1  0  0  0  0
M  END
$$$$

  -OEChem-05262214473D

 42 41  0     1  0  0  0  0  0999 V2000
   -5.7851   -0.9580    0.6237 C   0  0  0  0  0  0  0  0  0  0  0  0
   -6.2213    0.1296    0.2652 O   0  0  0  0  0  0  0  0  0  0  0  0
   -6.7088   -2.1270    0.7168 C   0  0  0  0  0  0  0  0  0  0  0  0
   -7.1713   -2.2193    1.7126 H   0  0  0  0  0  0  0  0  0  0  0  0
   -7.5511   -2.0547    0.0101 H   0  0  0  0  0  0  0  0  0  0  0  0
   -6.2485   -3.1083    0.5191 H   0  0  0  0  0  0  0  0  0  0  0  0
   -4.4733   -1.2411    0.9668 N   0  0  0  0  0  0  0  0  0  0  0  0
   -3.4203   -0.2603    0.9449 C   0  0  2  0  0  0  0  0  0  0  0  0
   -2.1242   -0.9699    0.5759 C   0  0  0  0  0  0  0  0  0  0  0  0
   -1.8694   -2.1225    0.9189 O   0  0  0  0  0  0  0  0  0  0  0  0
   -3.2916    0.4435    2.2868 C   0  0  0  0  0  0  0  0  0  0  0  0
   -4.2421   -2.1920    1.2489 H   0  0  0  0  0  0  0  0  0  0  0  0
   -3.6772    0.4622    0.1625 H   0  0  0  0  0  0  0  0  0  0  0  0
   -3.0345   -0.2644    3.0832 H   0  0  0  0  0  0  0  0  0  0  0  0
   -2.5093    1.2092    2.2599 H   0  0  0  0  0  0  0  0  0  0  0  0
   -4.2338    0.9283    2.5645 H   0  0  0  0  0  0  0  0  0  0  0  0
   -1.2626   -0.1515   -0.1463 N   0  0  0  0  0  0  0  0  0  0  0  0
    0.0431   -0.5785   -0.5755 C   0  0  2  0  0  0  0  0  0  0  0  0
    0.9618   -0.5754    0.6392 C   0  0  0  0  0  0  0  0  0  0  0  0
    0.5947   -0.2190    1.7569 O   0  0  0  0  0  0  0  0  0  0  0  0
    0.5880    0.3242   -1.6714 C   0  0  0  0  0  0  0  0  0  0  0  0
   -1.5766    0.7776   -0.4197 H   0  0  0  0  0  0  0  0  0  0  0  0
   -0.0659   -1.6025   -0.9491 H   0  0  0  0  0  0  0  0  0  0  0  0
    0.7041    1.3545   -1.3157 H   0  0  0  0  0  0  0  0  0  0  0  0
    1.5689   -0.0187   -2.0167 H   0  0  0  0  0  0  0  0  0  0  0  0
   -0.0888    0.3441   -2.5324 H   0  0  0  0  0  0  0  0  0  0  0  0
    2.2551   -0.9766    0.3227 N   0  0  0  0  0  0  0  0  0  0  0  0
    3.3190   -1.0167    1.2912 C   0  0  2  0  0  0  0  0  0  0  0  0
    4.6224   -0.6962    0.5715 C   0  0  0  0  0  0  0  0  0  0  0  0
    4.8484   -1.0333   -0.5888 O   0  0  0  0  0  0  0  0  0  0  0  0
    3.3945   -2.3733    1.9742 C   0  0  0  0  0  0  0  0  0  0  0  0
    2.4567   -1.2930   -0.6238 H   0  0  0  0  0  0  0  0  0  0  0  0
    3.1059   -0.2343    2.0277 H   0  0  0  0  0  0  0  0  0  0  0  0
    3.6074   -3.1700    1.2520 H   0  0  0  0  0  0  0  0  0  0  0  0
    4.1859   -2.3931    2.7308 H   0  0  0  0  0  0  0  0  0  0  0  0
    2.4463   -2.6154    2.4661 H   0  0  0  0  0  0  0  0  0  0  0  0
    5.5204   -0.0272    1.3914 N   0  0  0  0  0  0  0  0  0  0  0  0
    6.8440    0.3500    0.9536 C   0  0  0  0  0  0  0  0  0  0  0  0
    5.2342    0.2476    2.3264 H   0  0  0  0  0  0  0  0  0  0  0  0
    7.5585   -0.4430    1.2192 H   0  0  0  0  0  0  0  0  0  0  0  0
    6.8427    0.4919   -0.1372 H   0  0  0  0  0  0  0  0  0  0  0  0
    7.1389    1.2889    1.4451 H   0  0  0  0  0  0  0  0  0  0  0  0
  1  3  1  0  0  0  0
  1  7  1  0  0  0  0
  1  2  2  0  0  0  0
 28 29  1  0  0  0  0
 29 37  1  0  0  0  0
 29 30  2  0  0  0  0
 18 19  1  0  0  0  0
 19 27  1  0  0  0  0
 19 20  2  0  0  0  0
  8  9  1  0  0  0  0
  9 17  1  0  0  0  0
  9 10  2  0  0  0  0
 28 31  1  0  0  0  0
 18 21  1  0  0  0  0
  8 11  1  0  0  0  0
 37 38  1  0  0  0  0
 27 28  1  0  0  0  0
 17 18  1  0  0  0  0
  7  8  1  0  0  0  0
  3  4  1  0  0  0  0
  3  5  1  0  0  0  0
  3  6  1  0  0  0  0
 31 34  1  0  0  0  0
 31 35  1  0  0  0  0
 31 36  1  0  0  0  0
 21 24  1  0  0  0  0
 21 25  1  0  0  0  0
 21 26  1  0  0  0  0
 11 14  1  0  0  0  0
 11 15  1  0  0  0  0
 11 16  1  0  0  0  0
 38 40  1  0  0  0  0
 38 41  1  0  0  0  0
 38 42  1  0  0  0  0
 28 33  1  0  0  0  0
 18 23  1  0  0  0  0
  8 13  1  0  0  0  0
 37 39  1  0  0  0  0
  7 12  1  0  0  0  0
 27 32  1  0  0  0  0
 17 22  1  0  0  0  0
M  END
$$$$

  -OEChem-05262214473D

 42 41  0     1  0  0  0  0  0999 V2000
   -5.7851   -0.9580    0.6237 C   0  0  0  0  0  0  0  0  0  0  0  0
   -6.2213    0.1296    0.2652 O   0  0  0  0  0  0  0  0  0  0  0  0
   -6.7088   -2.1270    0.7168 C   0  0  0  0  0  0  0  0  0  0  0  0
   -7.1713   -2.2193    1.7126 H   0  0  0  0  0  0  0  0  0  0  0  0
   -7.5511   -2.0547    0.0101 H   0  0  0  0  0  0  0  0  0  0  0  0
   -6.2485   -3.1083    0.5191 H   0  0  0  0  0  0  0  0  0  0  0  0
   -4.4733   -1.2411    0.9668 N   0  0  0  0  0  0  0  0  0  0  0  0
   -3.4203   -0.2603    0.9449 C   0  0  2  0  0  0  0  0  0  0  0  0
   -2.1242   -0.9699    0.5759 C   0  0  0  0  0  0  0  0  0  0  0  0
   -1.8694   -2.1225    0.9189 O   0  0  0  0  0  0  0  0  0  0  0  0
   -3.2916    0.4435    2.2868 C   0  0  0  0  0  0  0  0  0  0  0  0
   -4.2421   -2.1920    1.2489 H   0  0  0  0  0  0  0  0  0  0  0  0
   -3.6772    0.4622    0.1625 H   0  0  0  0  0  0  0  0  0  0  0  0
   -3.0345   -0.2644    3.0832 H   0  0  0  0  0  0  0  0  0  0  0  0
   -2.5093    1.2092    2.2599 H   0  0  0  0  0  0  0  0  0  0  0  0
   -4.2338    0.9283    2.5645 H   0  0  0  0  0  0  0  0  0  0  0  0
   -1.2626   -0.1515   -0.1463 N   0  0  0  0  0  0  0  0  0  0  0  0
    0.0431   -0.5785   -0.5755 C   0  0  2  0  0  0  0  0  0  0  0  0
    0.9618   -0.5754    0.6392 C   0  0  0  0  0  0  0  0  0  0  0  0
    0.5480   -0.4814    1.7929 O   0  0  0  0  0  0  0  0  0  0  0  0
    0.5880    0.3242   -1.6714 C   0  0  0  0  0  0  0  0  0  0  0  0
   -1.5766    0.7776   -0.4197 H   0  0  0  0  0  0  0  0  0  0  0  0
   -0.0659   -1.6025   -0.9491 H   0  0  0  0  0  0  0  0  0  0  0  0
    0.7041    1.3545   -1.3157 H   0  0  0  0  0  0  0  0  0  0  0  0
    1.5689   -0.0187   -2.0167 H   0  0  0  0  0  0  0  0  0  0  0  0
   -0.0888    0.3441   -2.5324 H   0  0  0  0  0  0  0  0  0  0  0  0
    2.3045   -0.6465    0.2845 N   0  0  0  0  0  0  0  0  0  0  0  0
    3.3700   -0.6167    1.2516 C   0  0  2  0  0  0  0  0  0  0  0  0
    4.5668    0.0743    0.6116 C   0  0  0  0  0  0  0  0  0  0  0  0
    4.8379   -0.0236   -0.5834 O   0  0  0  0  0  0  0  0  0  0  0  0
    3.7355   -2.0181    1.7155 C   0  0  0  0  0  0  0  0  0  0  0  0
    2.5510   -0.7628   -0.6965 H   0  0  0  0  0  0  0  0  0  0  0  0
    3.0125   -0.0199    2.0978 H   0  0  0  0  0  0  0  0  0  0  0  0
    4.0959   -2.6309    0.8812 H   0  0  0  0  0  0  0  0  0  0  0  0
    4.5265   -1.9919    2.4722 H   0  0  0  0  0  0  0  0  0  0  0  0
    2.8660   -2.5245    2.1485 H   0  0  0  0  0  0  0  0  0  0  0  0
    5.3211    0.7780    1.5400 N   0  0  0  0  0  0  0  0  0  0  0  0
    6.5308    1.4840    1.1875 C   0  0  0  0  0  0  0  0  0  0  0  0
    5.0002    0.8384    2.5018 H   0  0  0  0  0  0  0  0  0  0  0  0
    7.3980    0.8240    1.3374 H   0  0  0  0  0  0  0  0  0  0  0  0
    6.4818    1.7909    0.1324 H   0  0  0  0  0  0  0  0  0  0  0  0
    6.6339    2.3750    1.8242 H   0  0  0  0  0  0  0  0  0  0  0  0
  1  3  1  0  0  0  0
  1  7  1  0  0  0  0
  1  2  2  0  0  0  0
 28 29  1  0  0  0  0
 29 37  1  0  0  0  0
 29 30  2  0  0  0  0
 18 19  1  0  0  0  0
 19 27  1  0  0  0  0
 19 20  2  0  0  0  0
  8  9  1  0  0  0  0
  9 17  1  0  0  0  0
  9 10  2  0  0  0  0
 28 31  1  0  0  0  0
 18 21  1  0  0  0  0
  8 11  1  0  0  0  0
 37 38  1  0  0  0  0
 27 28  1  0  0  0  0
 17 18  1  0  0  0  0
  7  8  1  0  0  0  0
  3  4  1  0  0  0  0
  3  5  1  0  0  0  0
  3  6  1  0  0  0  0
 31 34  1  0  0  0  0
 31 35  1  0  0  0  0
 31 36  1  0  0  0  0
 21 24  1  0  0  0  0
 21 25  1  0  0  0  0
 21 26  1  0  0  0  0
 11 14  1  0  0  0  0
 11 15  1  0  0  0  0
 11 16  1  0  0  0  0
 38 40  1  0  0  0  0
 38 41  1  0  0  0  0
 38 42  1  0  0  0  0
 28 33  1  0  0  0  0
 18 23  1  0  0  0  0
  8 13  1  0  0  0  0
 37 39  1  0  0  0  0
  7 12  1  0  0  0  0
 27 32  1  0  0  0  0
 17 22  1  0  0  0  0
M  END
$$$$

  -OEChem-05262214473D

 42 41  0     1  0  0  0  0  0999 V2000
   -5.7851   -0.9580    0.6237 C   0  0  0  0  0  0  0  0  0  0  0  0
   -6.2213    0.1296    0.2652 O   0  0  0  0  0  0  0  0  0  0  0  0
   -6.7088   -2.1270    0.7168 C   0  0  0  0  0  0  0  0  0  0  0  0
   -7.1713   -2.2193    1.7126 H   0  0  0  0  0  0  0  0  0  0  0  0
   -7.5511   -2.0547    0.0101 H   0  0  0  0  0  0  0  0  0  0  0  0
   -6.2485   -3.1083    0.5191 H   0  0  0  0  0  0  0  0  0  0  0  0
   -4.4733   -1.2411    0.9668 N   0  0  0  0  0  0  0  0  0  0  0  0
   -3.4203   -0.2603    0.9449 C   0  0  2  0  0  0  0  0  0  0  0  0
   -2.1242   -0.9699    0.5759 C   0  0  0  0  0  0  0  0  0  0  0  0
   -1.8694   -2.1225    0.9189 O   0  0  0  0  0  0  0  0  0  0  0  0
   -3.2916    0.4435    2.2868 C   0  0  0  0  0  0  0  0  0  0  0  0
   -4.2421   -2.1920    1.2489 H   0  0  0  0  0  0  0  0  0  0  0  0
   -3.6772    0.4622    0.1625 H   0  0  0  0  0  0  0  0  0  0  0  0
   -3.0345   -0.2644    3.0832 H   0  0  0  0  0  0  0  0  0  0  0  0
   -2.5093    1.2092    2.2599 H   0  0  0  0  0  0  0  0  0  0  0  0
   -4.2338    0.9283    2.5645 H   0  0  0  0  0  0  0  0  0  0  0  0
   -1.2626   -0.1515   -0.1463 N   0  0  0  0  0  0  0  0  0  0  0  0
    0.0431   -0.5785   -0.5755 C   0  0  2  0  0  0  0  0  0  0  0  0
    0.9618   -0.5754    0.6392 C   0  0  0  0  0  0  0  0  0  0  0  0
    0.5571   -0.7501    1.7867 O   0  0  0  0  0  0  0  0  0  0  0  0
    0.5880    0.3242   -1.6714 C   0  0  0  0  0  0  0  0  0  0  0  0
   -1.5766    0.7776   -0.4197 H   0  0  0  0  0  0  0  0  0  0  0  0
   -0.0659   -1.6025   -0.9491 H   0  0  0  0  0  0  0  0  0  0  0  0
    0.7041    1.3545   -1.3157 H   0  0  0  0  0  0  0  0  0  0  0  0
    1.5689   -0.0187   -2.0167 H   0  0  0  0  0  0  0  0  0  0  0  0
   -0.0888    0.3441   -2.5324 H   0  0  0  0  0  0  0  0  0  0  0  0
    2.2841   -0.3114    0.2991 N   0  0  0  0  0  0  0  0  0  0  0  0
    3.3367   -0.2136    1.2757 C   0  0  2  0  0  0  0  0  0  0  0  0
    4.3541    0.8008    0.7706 C   0  0  0  0  0  0  0  0  0  0  0  0
    4.6193    0.9487   -0.4206 O   0  0  0  0  0  0  0  0  0  0  0  0
    3.9913   -1.5642    1.5208 C   0  0  0  0  0  0  0  0  0  0  0  0
    2.5327   -0.2198   -0.6839 H   0  0  0  0  0  0  0  0  0  0  0  0
    2.8781    0.1569    2.1990 H   0  0  0  0  0  0  0  0  0  0  0  0
    4.4563   -1.9516    0.6069 H   0  0  0  0  0  0  0  0  0  0  0  0
    4.7726   -1.4936    2.2848 H   0  0  0  0  0  0  0  0  0  0  0  0
    3.2526   -2.3004    1.8556 H   0  0  0  0  0  0  0  0  0  0  0  0
    4.9626    1.4914    1.8094 N   0  0  0  0  0  0  0  0  0  0  0  0
    5.9943    2.4781    1.5907 C   0  0  0  0  0  0  0  0  0  0  0  0
    4.6524    1.3334    2.7636 H   0  0  0  0  0  0  0  0  0  0  0  0
    6.9815    1.9963    1.6494 H   0  0  0  0  0  0  0  0  0  0  0  0
    5.8652    2.9292    0.5958 H   0  0  0  0  0  0  0  0  0  0  0  0
    5.9221    3.2607    2.3603 H   0  0  0  0  0  0  0  0  0  0  0  0
  1  3  1  0  0  0  0
  1  7  1  0  0  0  0
  1  2  2  0  0  0  0
 28 29  1  0  0  0  0
 29 37  1  0  0  0  0
 29 30  2  0  0  0  0
 18 19  1  0  0  0  0
 19 27  1  0  0  0  0
 19 20  2  0  0  0  0
  8  9  1  0  0  0  0
  9 17  1  0  0  0  0
  9 10  2  0  0  0  0
 28 31  1  0  0  0  0
 18 21  1  0  0  0  0
  8 11  1  0  0  0  0
 37 38  1  0  0  0  0
 27 28  1  0  0  0  0
 17 18  1  0  0  0  0
  7  8  1  0  0  0  0
  3  4  1  0  0  0  0
  3  5  1  0  0  0  0
  3  6  1  0  0  0  0
 31 34  1  0  0  0  0
 31 35  1  0  0  0  0
 31 36  1  0  0  0  0
 21 24  1  0  0  0  0
 21 25  1  0  0  0  0
 21 26  1  0  0  0  0
 11 14  1  0  0  0  0
 11 15  1  0  0  0  0
 11 16  1  0  0  0  0
 38 40  1  0  0  0  0
 38 41  1  0  0  0  0
 38 42  1  0  0  0  0
 28 33  1  0  0  0  0
 18 23  1  0  0  0  0
  8 13  1  0  0  0  0
 37 39  1  0  0  0  0
  7 12  1  0  0  0  0
 27 32  1  0  0  0  0
 17 22  1  0  0  0  0
M  END
$$$$

  -OEChem-05262214473D

 42 41  0     1  0  0  0  0  0999 V2000
   -5.7851   -0.9580    0.6237 C   0  0  0  0  0  0  0  0  0  0  0  0
   -6.2213    0.1296    0.2652 O   0  0  0  0  0  0  0  0  0  0  0  0
   -6.7088   -2.1270    0.7168 C   0  0  0  0  0  0  0  0  0  0  0  0
   -7.1713   -2.2193    1.7126 H   0  0  0  0  0  0  0  0  0  0  0  0
   -7.5511   -2.0547    0.0101 H   0  0  0  0  0  0  0  0  0  0  0  0
   -6.2485   -3.1083    0.5191 H   0  0  0  0  0  0  0  0  0  0  0  0
   -4.4733   -1.2411    0.9668 N   0  0  0  0  0  0  0  0  0  0  0  0
   -3.4203   -0.2603    0.9449 C   0  0  2  0  0  0  0  0  0  0  0  0
   -2.1242   -0.9699    0.5759 C   0  0  0  0  0  0  0  0  0  0  0  0
   -1.8694   -2.1225    0.9189 O   0  0  0  0  0  0  0  0  0  0  0  0
   -3.2916    0.4435    2.2868 C   0  0  0  0  0  0  0  0  0  0  0  0
   -4.2421   -2.1920    1.2489 H   0  0  0  0  0  0  0  0  0  0  0  0
   -3.6772    0.4622    0.1625 H   0  0  0  0  0  0  0  0  0  0  0  0
   -3.0345   -0.2644    3.0832 H   0  0  0  0  0  0  0  0  0  0  0  0
   -2.5093    1.2092    2.2599 H   0  0  0  0  0  0  0  0  0  0  0  0
   -4.2338    0.9283    2.5645 H   0  0  0  0  0  0  0  0  0  0  0  0
   -1.2626   -0.1515   -0.1463 N   0  0  0  0  0  0  0  0  0  0  0  0
    0.0431   -0.5785   -0.5755 C   0  0  2  0  0  0  0  0  0  0  0  0
    0.9618   -0.5754    0.6392 C   0  0  0  0  0  0  0  0  0  0  0  0
    0.6213   -1.0068    1.7388 O   0  0  0  0  0  0  0  0  0  0  0  0
    0.5880    0.3242   -1.6714 C   0  0  0  0  0  0  0  0  0  0  0  0
   -1.5766    0.7776   -0.4197 H   0  0  0  0  0  0  0  0  0  0  0  0
   -0.0659   -1.6025   -0.9491 H   0  0  0  0  0  0  0  0  0  0  0  0
    0.7041    1.3545   -1.3157 H   0  0  0  0  0  0  0  0  0  0  0  0
    1.5689   -0.0187   -2.0167 H   0  0  0  0  0  0  0  0  0  0  0  0
   -0.0888    0.3441   -2.5324 H   0  0  0  0  0  0  0  0  0  0  0  0
    2.1952    0.0057    0.3655 N   0  0  0  0  0  0  0  0  0  0  0  0
    3.2213    0.1651    1.3620 C   0  0  2  0  0  0  0  0  0  0  0  0
    3.9988    1.4338    1.0377 C   0  0  0  0  0  0  0  0  0  0  0  0
    4.2075    1.8174   -0.1114 O   0  0  0  0  0  0  0  0  0  0  0  0
    4.1447   -1.0426    1.4035 C   0  0  0  0  0  0  0  0  0  0  0  0
    2.4028    0.2989   -0.5871 H   0  0  0  0  0  0  0  0  0  0  0  0
    2.7118    0.2842    2.3244 H   0  0  0  0  0  0  0  0  0  0  0  0
    4.6640   -1.1781    0.4478 H   0  0  0  0  0  0  0  0  0  0  0  0
    4.9074   -0.9323    2.1814 H   0  0  0  0  0  0  0  0  0  0  0  0
    3.5795   -1.9585    1.6074 H   0  0  0  0  0  0  0  0  0  0  0  0
    4.4691    2.0644    2.1811 N   0  0  0  0  0  0  0  0  0  0  0  0
    5.2712    3.2646    2.1357 C   0  0  0  0  0  0  0  0  0  0  0  0
    4.2144    1.6988    3.0940 H   0  0  0  0  0  0  0  0  0  0  0  0
    6.3373    2.9939    2.1341 H   0  0  0  0  0  0  0  0  0  0  0  0
    5.0349    3.8289    1.2215 H   0  0  0  0  0  0  0  0  0  0  0  0
    5.0519    3.8856    3.0168 H   0  0  0  0  0  0  0  0  0  0  0  0
  1  3  1  0  0  0  0
  1  7  1  0  0  0  0
  1  2  2  0  0  0  0
 28 29  1  0  0  0  0
 29 37  1  0  0  0  0
 29 30  2  0  0  0  0
 18 19  1  0  0  0  0
 19 27  1  0  0  0  0
 19 20  2  0  0  0  0
  8  9  1  0  0  0  0
  9 17  1  0  0  0  0
  9 10  2  0  0  0  0
 28 31  1  0  0  0  0
 18 21  1  0  0  0  0
  8 11  1  0  0  0  0
 37 38  1  0  0  0  0
 27 28  1  0  0  0  0
 17 18  1  0  0  0  0
  7  8  1  0  0  0  0
  3  4  1  0  0  0  0
  3  5  1  0  0  0  0
  3  6  1  0  0  0  0
 31 34  1  0  0  0  0
 31 35  1  0  0  0  0
 31 36  1  0  0  0  0
 21 24  1  0  0  0  0
 21 25  1  0  0  0  0
 21 26  1  0  0  0  0
 11 14  1  0  0  0  0
 11 15  1  0  0  0  0
 11 16  1  0  0  0  0
 38 40  1  0  0  0  0
 38 41  1  0  0  0  0
 38 42  1  0  0  0  0
 28 33  1  0  0  0  0
 18 23  1  0  0  0  0
  8 13  1  0  0  0  0
 37 39  1  0  0  0  0
  7 12  1  0  0  0  0
 27 32  1  0  0  0  0
 17 22  1  0  0  0  0
M  END
$$$$

  -OEChem-05262214473D

 42 41  0     1  0  0  0  0  0999 V2000
   -5.7851   -0.9580    0.6237 C   0  0  0  0  0  0  0  0  0  0  0  0
   -6.2213    0.1296    0.2652 O   0  0  0  0  0  0  0  0  0  0  0  0
   -6.7088   -2.1270    0.7168 C   0  0  0  0  0  0  0  0  0  0  0  0
   -7.1713   -2.2193    1.7126 H   0  0  0  0  0  0  0  0  0  0  0  0
   -7.5511   -2.0547    0.0101 H   0  0  0  0  0  0  0  0  0  0  0  0
   -6.2485   -3.1083    0.5191 H   0  0  0  0  0  0  0  0  0  0  0  0
   -4.4733   -1.2411    0.9668 N   0  0  0  0  0  0  0  0  0  0  0  0
   -3.4203   -0.2603    0.9449 C   0  0  2  0  0  0  0  0  0  0  0  0
   -2.1242   -0.9699    0.5759 C   0  0  0  0  0  0  0  0  0  0  0  0
   -1.8694   -2.1225    0.9189 O   0  0  0  0  0  0  0  0  0  0  0  0
   -3.2916    0.4435    2.2868 C   0  0  0  0  0  0  0  0  0  0  0  0
   -4.2421   -2.1920    1.2489 H   0  0  0  0  0  0  0  0  0  0  0  0
   -3.6772    0.4622    0.1625 H   0  0  0  0  0  0  0  0  0  0  0  0
   -3.0345   -0.2644    3.0832 H   0  0  0  0  0  0  0  0  0  0  0  0
   -2.5093    1.2092    2.2599 H   0  0  0  0  0  0  0  0  0  0  0  0
   -4.2338    0.9283    2.5645 H   0  0  0  0  0  0  0  0  0  0  0  0
   -1.2626   -0.1515   -0.1463 N   0  0  0  0  0  0  0  0  0  0  0  0
    0.0431   -0.5785   -0.5755 C   0  0  2  0  0  0  0  0  0  0  0  0
    0.9618   -0.5754    0.6392 C   0  0  0  0  0  0  0  0  0  0  0  0
    0.7363   -1.2340    1.6524 O   0  0  0  0  0  0  0  0  0  0  0  0
    0.5880    0.3242   -1.6714 C   0  0  0  0  0  0  0  0  0  0  0  0
   -1.5766    0.7776   -0.4197 H   0  0  0  0  0  0  0  0  0  0  0  0
   -0.0659   -1.6025   -0.9491 H   0  0  0  0  0  0  0  0  0  0  0  0
    0.7041    1.3545   -1.3157 H   0  0  0  0  0  0  0  0  0  0  0  0
    1.5689   -0.0187   -2.0167 H   0  0  0  0  0  0  0  0  0  0  0  0
   -0.0888    0.3441   -2.5324 H   0  0  0  0  0  0  0  0  0  0  0  0
    2.0439    0.2832    0.4792 N   0  0  0  0  0  0  0  0  0  0  0  0
    3.0317    0.4936    1.5045 C   0  0  2  0  0  0  0  0  0  0  0  0
    3.5250    1.9303    1.3947 C   0  0  0  0  0  0  0  0  0  0  0  0
    3.6306    2.5232    0.3231 O   0  0  0  0  0  0  0  0  0  0  0  0
    4.1850   -0.4888    1.3716 C   0  0  0  0  0  0  0  0  0  0  0  0
    2.1704    0.7581   -0.4125 H   0  0  0  0  0  0  0  0  0  0  0  0
    2.5249    0.3533    2.4655 H   0  0  0  0  0  0  0  0  0  0  0  0
    4.7049   -0.3633    0.4148 H   0  0  0  0  0  0  0  0  0  0  0  0
    4.9216   -0.3462    2.1692 H   0  0  0  0  0  0  0  0  0  0  0  0
    3.8246   -1.5220    1.4210 H   0  0  0  0  0  0  0  0  0  0  0  0
    3.8743    2.4580    2.6299 N   0  0  0  0  0  0  0  0  0  0  0  0
    4.4105    3.7900    2.7852 C   0  0  0  0  0  0  0  0  0  0  0  0
    3.7161    1.9098    3.4703 H   0  0  0  0  0  0  0  0  0  0  0  0
    5.5094    3.7489    2.7583 H   0  0  0  0  0  0  0  0  0  0  0  0
    4.0474    4.4290    1.9667 H   0  0  0  0  0  0  0  0  0  0  0  0
    4.0828    4.2070    3.7489 H   0  0  0  0  0  0  0  0  0  0  0  0
  1  3  1  0  0  0  0
  1  7  1  0  0  0  0
  1  2  2  0  0  0  0
 28 29  1  0  0  0  0
 29 37  1  0  0  0  0
 29 30  2  0  0  0  0
 18 19  1  0  0  0  0
 19 27  1  0  0  0  0
 19 20  2  0  0  0  0
  8  9  1  0  0  0  0
  9 17  1  0  0  0  0
  9 10  2  0  0  0  0
 28 31  1  0  0  0  0
 18 21  1  0  0  0  0
  8 11  1  0  0  0  0
 37 38  1  0  0  0  0
 27 28  1  0  0  0  0
 17 18  1  0  0  0  0
  7  8  1  0  0  0  0
  3  4  1  0  0  0  0
  3  5  1  0  0  0  0
  3  6  1  0  0  0  0
 31 34  1  0  0  0  0
 31 35  1  0  0  0  0
 31 36  1  0  0  0  0
 21 24  1  0  0  0  0
 21 25  1  0  0  0  0
 21 26  1  0  0  0  0
 11 14  1  0  0  0  0
 11 15  1  0  0  0  0
 11 16  1  0  0  0  0
 38 40  1  0  0  0  0
 38 41  1  0  0  0  0
 38 42  1  0  0  0  0
 28 33  1  0  0  0  0
 18 23  1  0  0  0  0
  8 13  1  0  0  0  0
 37 39  1  0  0  0  0
  7 12  1  0  0  0  0
 27 32  1  0  0  0  0
 17 22  1  0  0  0  0
M  END
$$$$

  -OEChem-05262214473D

 42 41  0     1  0  0  0  0  0999 V2000
   -5.7851   -0.9580    0.6237 C   0  0  0  0  0  0  0  0  0  0  0  0
   -6.2213    0.1296    0.2652 O   0  0  0  0  0  0  0  0  0  0  0  0
   -6.7088   -2.1270    0.7168 C   0  0  0  0  0  0  0  0  0  0  0  0
   -7.1713   -2.2193    1.7126 H   0  0  0  0  0  0  0  0  0  0  0  0
   -7.5511   -2.0547    0.0101 H   0  0  0  0  0  0  0  0  0  0  0  0
   -6.2485   -3.1083    0.5191 H   0  0  0  0  0  0  0  0  0  0  0  0
   -4.4733   -1.2411    0.9668 N   0  0  0  0  0  0  0  0  0  0  0  0
   -3.4203   -0.2603    0.9449 C   0  0  2  0  0  0  0  0  0  0  0  0
   -2.1242   -0.9699    0.5759 C   0  0  0  0  0  0  0  0  0  0  0  0
   -1.8694   -2.1225    0.9189 O   0  0  0  0  0  0  0  0  0  0  0  0
   -3.2916    0.4435    2.2868 C   0  0  0  0  0  0  0  0  0  0  0  0
   -4.2421   -2.1920    1.2489 H   0  0  0  0  0  0  0  0  0  0  0  0
   -3.6772    0.4622    0.1625 H   0  0  0  0  0  0  0  0  0  0  0  0
   -3.0345   -0.2644    3.0832 H   0  0  0  0  0  0  0  0  0  0  0  0
   -2.5093    1.2092    2.2599 H   0  0  0  0  0  0  0  0  0  0  0  0
   -4.2338    0.9283    2.5645 H   0  0  0  0  0  0  0  0  0  0  0  0
   -1.2626   -0.1515   -0.1463 N   0  0  0  0  0  0  0  0  0  0  0  0
    0.0431   -0.5785   -0.5755 C   0  0  2  0  0  0  0  0  0  0  0  0
    0.9618   -0.5754    0.6392 C   0  0  0  0  0  0  0  0  0  0  0  0
    0.8943   -1.4162    1.5334 O   0  0  0  0  0  0  0  0  0  0  0  0
    0.5880    0.3242   -1.6714 C   0  0  0  0  0  0  0  0  0  0  0  0
   -1.5766    0.7776   -0.4197 H   0  0  0  0  0  0  0  0  0  0  0  0
   -0.0659   -1.6025   -0.9491 H   0  0  0  0  0  0  0  0  0  0  0  0
    0.7041    1.3545   -1.3157 H   0  0  0  0  0  0  0  0  0  0  0  0
    1.5689   -0.0187   -2.0167 H   0  0  0  0  0  0  0  0  0  0  0  0
   -0.0888    0.3441   -2.5324 H   0  0  0  0  0  0  0  0  0  0  0  0
    1.8405    0.5024    0.6325 N   0  0  0  0  0  0  0  0  0  0  0  0
    2.7809    0.7495    1.6936 C   0  0  2  0  0  0  0  0  0  0  0  0
    2.9651    2.2562    1.8174 C   0  0  0  0  0  0  0  0  0  0  0  0
    2.9279    3.0180    0.8533 O   0  0  0  0  0  0  0  0  0  0  0  0
    4.1097    0.0595    1.4272 C   0  0  0  0  0  0  0  0  0  0  0  0
    1.8512    1.1263   -0.1720 H   0  0  0  0  0  0  0  0  0  0  0  0
    2.3303    0.3593    2.6127 H   0  0  0  0  0  0  0  0  0  0  0  0
    4.5762    0.4374    0.5101 H   0  0  0  0  0  0  0  0  0  0  0  0
    4.8144    0.2248    2.2489 H   0  0  0  0  0  0  0  0  0  0  0  0
    3.9711   -1.0206    1.3089 H   0  0  0  0  0  0  0  0  0  0  0  0
    3.2188    2.6453    3.1252 N   0  0  0  0  0  0  0  0  0  0  0  0
    3.4711    4.0184    3.4951 C   0  0  0  0  0  0  0  0  0  0  0  0
    3.1913    1.9520    3.8670 H   0  0  0  0  0  0  0  0  0  0  0  0
    4.5542    4.2099    3.4795 H   0  0  0  0  0  0  0  0  0  0  0  0
    2.9702    4.6884    2.7808 H   0  0  0  0  0  0  0  0  0  0  0  0
    3.0807    4.2032    4.5067 H   0  0  0  0  0  0  0  0  0  0  0  0
  1  3  1  0  0  0  0
  1  7  1  0  0  0  0
  1  2  2  0  0  0  0
 28 29  1  0  0  0  0
 29 37  1  0  0  0  0
 29 30  2  0  0  0  0
 18 19  1  0  0  0  0
 19 27  1  0  0  0  0
 19 20  2  0  0  0  0
  8  9  1  0  0  0  0
  9 17  1  0  0  0  0
  9 10  2  0  0  0  0
 28 31  1  0  0  0  0
 18 21  1  0  0  0  0
  8 11  1  0  0  0  0
 37 38  1  0  0  0  0
 27 28  1  0  0  0  0
 17 18  1  0  0  0  0
  7  8  1  0  0  0  0
  3  4  1  0  0  0  0
  3  5  1  0  0  0  0
  3  6  1  0  0  0  0
 31 34  1  0  0  0  0
 31 35  1  0  0  0  0
 31 36  1  0  0  0  0
 21 24  1  0  0  0  0
 21 25  1  0  0  0  0
 21 26  1  0  0  0  0
 11 14  1  0  0  0  0
 11 15  1  0  0  0  0
 11 16  1  0  0  0  0
 38 40  1  0  0  0  0
 38 41  1  0  0  0  0
 38 42  1  0  0  0  0
 28 33  1  0  0  0  0
 18 23  1  0  0  0  0
  8 13  1  0  0  0  0
 37 39  1  0  0  0  0
  7 12  1  0  0  0  0
 27 32  1  0  0  0  0
 17 22  1  0  0  0  0
M  END
$$$$

  -OEChem-05262214473D

 42 41  0     1  0  0  0  0  0999 V2000
   -5.7851   -0.9580    0.6237 C   0  0  0  0  0  0  0  0  0  0  0  0
   -6.2213    0.1296    0.2652 O   0  0  0  0  0  0  0  0  0  0  0  0
   -6.7088   -2.1270    0.7168 C   0  0  0  0  0  0  0  0  0  0  0  0
   -7.1713   -2.2193    1.7126 H   0  0  0  0  0  0  0  0  0  0  0  0
   -7.5511   -2.0547    0.0101 H   0  0  0  0  0  0  0  0  0  0  0  0
   -6.2485   -3.1083    0.5191 H   0  0  0  0  0  0  0  0  0  0  0  0
   -4.4733   -1.2411    0.9668 N   0  0  0  0  0  0  0  0  0  0  0  0
   -3.4203   -0.2603    0.9449 C   0  0  2  0  0  0  0  0  0  0  0  0
   -2.1242   -0.9699    0.5759 C   0  0  0  0  0  0  0  0  0  0  0  0
   -1.8694   -2.1225    0.9189 O   0  0  0  0  0  0  0  0  0  0  0  0
   -3.2916    0.4435    2.2868 C   0  0  0  0  0  0  0  0  0  0  0  0
   -4.2421   -2.1920    1.2489 H   0  0  0  0  0  0  0  0  0  0  0  0
   -3.6772    0.4622    0.1625 H   0  0  0  0  0  0  0  0  0  0  0  0
   -3.0345   -0.2644    3.0832 H   0  0  0  0  0  0  0  0  0  0  0  0
   -2.5093    1.2092    2.2599 H   0  0  0  0  0  0  0  0  0  0  0  0
   -4.2338    0.9283    2.5645 H   0  0  0  0  0  0  0  0  0  0  0  0
   -1.2626   -0.1515   -0.1463 N   0  0  0  0  0  0  0  0  0  0  0  0
    0.0431   -0.5785   -0.5755 C   0  0  2  0  0  0  0  0  0  0  0  0
    0.9618   -0.5754    0.6392 C   0  0  0  0  0  0  0  0  0  0  0  0
    1.0844   -1.5410    1.3899 O   0  0  0  0  0  0  0  0  0  0  0  0
    0.5880    0.3242   -1.6714 C   0  0  0  0  0  0  0  0  0  0  0  0
   -1.5766    0.7776   -0.4197 H   0  0  0  0  0  0  0  0  0  0  0  0
   -0.0659   -1.6025   -0.9491 H   0  0  0  0  0  0  0  0  0  0  0  0
    0.7041    1.3545   -1.3157 H   0  0  0  0  0  0  0  0  0  0  0  0
    1.5689   -0.0187   -2.0167 H   0  0  0  0  0  0  0  0  0  0  0  0
   -0.0888    0.3441   -2.5324 H   0  0  0  0  0  0  0  0  0  0  0  0
    1.5989    0.6481    0.8148 N   0  0  0  0  0  0  0  0  0  0  0  0
    2.4859    0.9154    1.9163 C   0  0  2  0  0  0  0  0  0  0  0  0
    2.3572    2.3895    2.2768 C   0  0  0  0  0  0  0  0  0  0  0  0
    2.1473    3.2681    1.4430 O   0  0  0  0  0  0  0  0  0  0  0  0
    3.9237    0.5648    1.5665 C   0  0  0  0  0  0  0  0  0  0  0  0
    1.4670    1.3786    0.1179 H   0  0  0  0  0  0  0  0  0  0  0  0
    2.1411    0.3021    2.7560 H   0  0  0  0  0  0  0  0  0  0  0  0
    4.2867    1.1693    0.7273 H   0  0  0  0  0  0  0  0  0  0  0  0
    4.5929    0.7418    2.4150 H   0  0  0  0  0  0  0  0  0  0  0  0
    4.0091   -0.4886    1.2788 H   0  0  0  0  0  0  0  0  0  0  0  0
    2.5472    2.6136    3.6332 N   0  0  0  0  0  0  0  0  0  0  0  0
    2.5169    3.9343    4.2169 C   0  0  0  0  0  0  0  0  0  0  0  0
    2.6760    1.8225    4.2571 H   0  0  0  0  0  0  0  0  0  0  0  0
    3.5368    4.3453    4.2486 H   0  0  0  0  0  0  0  0  0  0  0  0
    1.8765    4.5895    3.6082 H   0  0  0  0  0  0  0  0  0  0  0  0
    2.1140    3.8743    5.2387 H   0  0  0  0  0  0  0  0  0  0  0  0
  1  3  1  0  0  0  0
  1  7  1  0  0  0  0
  1  2  2  0  0  0  0
 28 29  1  0  0  0  0
 29 37  1  0  0  0  0
 29 30  2  0  0  0  0
 18 19  1  0  0  0  0
 19 27  1  0  0  0  0
 19 20  2  0  0  0  0
  8  9  1  0  0  0  0
  9 17  1  0  0  0  0
  9 10  2  0  0  0  0
 28 31  1  0  0  0  0
 18 21  1  0  0  0  0
  8 11  1  0  0  0  0
 37 38  1  0  0  0  0
 27 28  1  0  0  0  0
 17 18  1  0  0  0  0
  7  8  1  0  0  0  0
  3  4  1  0  0  0  0
  3  5  1  0  0  0  0
  3  6  1  0  0  0  0
 31 34  1  0  0  0  0
 31 35  1  0  0  0  0
 31 36  1  0  0  0  0
 21 24  1  0  0  0  0
 21 25  1  0  0  0  0
 21 26  1  0  0  0  0
 11 14  1  0  0  0  0
 11 15  1  0  0  0  0
 11 16  1  0  0  0  0
 38 40  1  0  0  0  0
 38 41  1  0  0  0  0
 38 42  1  0  0  0  0
 28 33  1  0  0  0  0
 18 23  1  0  0  0  0
  8 13  1  0  0  0  0
 37 39  1  0  0  0  0
  7 12  1  0  0  0  0
 27 32  1  0  0  0  0
 17 22  1  0  0  0  0
M  END
$$$$

  -OEChem-05262214473D

 42 41  0     1  0  0  0  0  0999 V2000
   -5.7851   -0.9580    0.6237 C   0  0  0  0  0  0  0  0  0  0  0  0
   -6.2213    0.1296    0.2652 O   0  0  0  0  0  0  0  0  0  0  0  0
   -6.7088   -2.1270    0.7168 C   0  0  0  0  0  0  0  0  0  0  0  0
   -7.1713   -2.2193    1.7126 H   0  0  0  0  0  0  0  0  0  0  0  0
   -7.5511   -2.0547    0.0101 H   0  0  0  0  0  0  0  0  0  0  0  0
   -6.2485   -3.1083    0.5191 H   0  0  0  0  0  0  0  0  0  0  0  0
   -4.4733   -1.2411    0.9668 N   0  0  0  0  0  0  0  0  0  0  0  0
   -3.4203   -0.2603    0.9449 C   0  0  2  0  0  0  0  0  0  0  0  0
   -2.1242   -0.9699    0.5759 C   0  0  0  0  0  0  0  0  0  0  0  0
   -1.8694   -2.1225    0.9189 O   0  0  0  0  0  0  0  0  0  0  0  0
   -3.2916    0.4435    2.2868 C   0  0  0  0  0  0  0  0  0  0  0  0
   -4.2421   -2.1920    1.2489 H   0  0  0  0  0  0  0  0  0  0  0  0
   -3.6772    0.4622    0.1625 H   0  0  0  0  0  0  0  0  0  0  0  0
   -3.0345   -0.2644    3.0832 H   0  0  0  0  0  0  0  0  0  0  0  0
   -2.5093    1.2092    2.2599 H   0  0  0  0  0  0  0  0  0  0  0  0
   -4.2338    0.9283    2.5645 H   0  0  0  0  0  0  0  0  0  0  0  0
   -1.2626   -0.1515   -0.1463 N   0  0  0  0  0  0  0  0  0  0  0  0
    0.0431   -0.5785   -0.5755 C   0  0  2  0  0  0  0  0  0  0  0  0
    0.9618   -0.5754    0.6392 C   0  0  0  0  0  0  0  0  0  0  0  0
    1.2938   -1.6000    1.2317 O   0  0  0  0  0  0  0  0  0  0  0  0
    0.5880    0.3242   -1.6714 C   0  0  0  0  0  0  0  0  0  0  0  0
   -1.5766    0.7776   -0.4197 H   0  0  0  0  0  0  0  0  0  0  0  0
   -0.0659   -1.6025   -0.9491 H   0  0  0  0  0  0  0  0  0  0  0  0
    0.7041    1.3545   -1.3157 H   0  0  0  0  0  0  0  0  0  0  0  0
    1.5689   -0.0187   -2.0167 H   0  0  0  0  0  0  0  0  0  0  0  0
   -0.0888    0.3441   -2.5324 H   0  0  0  0  0  0  0  0  0  0  0  0
    1.3356    0.7106    1.0138 N   0  0  0  0  0  0  0  0  0  0  0  0
    2.1668    0.9800    2.1575 C   0  0  2  0  0  0  0  0  0  0  0  0
    1.7427    2.3210    2.7416 C   0  0  0  0  0  0  0  0  0  0  0  0
    1.3419    3.2564    2.0521 O   0  0  0  0  0  0  0  0  0  0  0  0
    3.6399    0.9928    1.7801 C   0  0  0  0  0  0  0  0  0  0  0  0
    1.0439    1.4977    0.4376 H   0  0  0  0  0  0  0  0  0  0  0  0
    1.9703    0.1853    2.8855 H   0  0  0  0  0  0  0  0  0  0  0  0
    3.8560    1.7826    1.0514 H   0  0  0  0  0  0  0  0  0  0  0  0
    4.2724    1.1695    2.6563 H   0  0  0  0  0  0  0  0  0  0  0  0
    3.9360    0.0378    1.3328 H   0  0  0  0  0  0  0  0  0  0  0  0
    1.9053    2.3651    4.1192 N   0  0  0  0  0  0  0  0  0  0  0  0
    1.6130    3.5434    4.9015 C   0  0  0  0  0  0  0  0  0  0  0  0
    2.2051    1.5301    4.6139 H   0  0  0  0  0  0  0  0  0  0  0  0
    2.5264    4.1460    5.0132 H   0  0  0  0  0  0  0  0  0  0  0  0
    0.8409    4.1390    4.3925 H   0  0  0  0  0  0  0  0  0  0  0  0
    1.2485    3.2427    5.8949 H   0  0  0  0  0  0  0  0  0  0  0  0
  1  3  1  0  0  0  0
  1  7  1  0  0  0  0
  1  2  2  0  0  0  0
 28 29  1  0  0  0  0
 29 37  1  0  0  0  0
 29 30  2  0  0  0  0
 18 19  1  0  0  0  0
 19 27  1  0  0  0  0
 19 20  2  0  0  0  0
  8  9  1  0  0  0  0
  9 17  1  0  0  0  0
  9 10  2  0  0  0  0
 28 31  1  0  0  0  0
 18 21  1  0  0  0  0
  8 11  1  0  0  0  0
 37 38  1  0  0  0  0
 27 28  1  0  0  0  0
 17 18  1  0  0  0  0
  7  8  1  0  0  0  0
  3  4  1  0  0  0  0
  3  5  1  0  0  0  0
  3  6  1  0  0  0  0
 31 34  1  0  0  0  0
 31 35  1  0  0  0  0
 31 36  1  0  0  0  0
 21 24  1  0  0  0  0
 21 25  1  0  0  0  0
 21 26  1  0  0  0  0
 11 14  1  0  0  0  0
 11 15  1  0  0  0  0
 11 16  1  0  0  0  0
 38 40  1  0  0  0  0
 38 41  1  0  0  0  0
 38 42  1  0  0  0  0
 28 33  1  0  0  0  0
 18 23  1  0  0  0  0
  8 13  1  0  0  0  0
 37 39  1  0  0  0  0
  7 12  1  0  0  0  0
 27 32  1  0  0  0  0
 17 22  1  0  0  0  0
M  END
$$$$

  -OEChem-05262214473D

 42 41  0     1  0  0  0  0  0999 V2000
   -5.7851   -0.9580    0.6237 C   0  0  0  0  0  0  0  0  0  0  0  0
   -6.2213    0.1296    0.2652 O   0  0  0  0  0  0  0  0  0  0  0  0
   -6.7088   -2.1270    0.7168 C   0  0  0  0  0  0  0  0  0  0  0  0
   -7.1713   -2.2193    1.7126 H   0  0  0  0  0  0  0  0  0  0  0  0
   -7.5511   -2.0547    0.0101 H   0  0  0  0  0  0  0  0  0  0  0  0
   -6.2485   -3.1083    0.5191 H   0  0  0  0  0  0  0  0  0  0  0  0
   -4.4733   -1.2411    0.9668 N   0  0  0  0  0  0  0  0  0  0  0  0
   -3.4203   -0.2603    0.9449 C   0  0  2  0  0  0  0  0  0  0  0  0
   -2.1242   -0.9699    0.5759 C   0  0  0  0  0  0  0  0  0  0  0  0
   -1.8694   -2.1225    0.9189 O   0  0  0  0  0  0  0  0  0  0  0  0
   -3.2916    0.4435    2.2868 C   0  0  0  0  0  0  0  0  0  0  0  0
   -4.2421   -2.1920    1.2489 H   0  0  0  0  0  0  0  0  0  0  0  0
   -3.6772    0.4622    0.1625 H   0  0  0  0  0  0  0  0  0  0  0  0
   -3.0345   -0.2644    3.0832 H   0  0  0  0  0  0  0  0  0  0  0  0
   -2.5093    1.2092    2.2599 H   0  0  0  0  0  0  0  0  0  0  0  0
   -4.2338    0.9283    2.5645 H   0  0  0  0  0  0  0  0  0  0  0  0
   -1.2626   -0.1515   -0.1463 N   0  0  0  0  0  0  0  0  0  0  0  0
    0.0431   -0.5785   -0.5755 C   0  0  2  0  0  0  0  0  0  0  0  0
    0.9618   -0.5754    0.6392 C   0  0  0  0  0  0  0  0  0  0  0  0
    1.5081   -1.5890    1.0697 O   0  0  0  0  0  0  0  0  0  0  0  0
    0.5880    0.3242   -1.6714 C   0  0  0  0  0  0  0  0  0  0  0  0
   -1.5766    0.7776   -0.4197 H   0  0  0  0  0  0  0  0  0  0  0  0
   -0.0659   -1.6025   -0.9491 H   0  0  0  0  0  0  0  0  0  0  0  0
    0.7041    1.3545   -1.3157 H   0  0  0  0  0  0  0  0  0  0  0  0
    1.5689   -0.0187   -2.0167 H   0  0  0  0  0  0  0  0  0  0  0  0
   -0.0888    0.3441   -2.5324 H   0  0  0  0  0  0  0  0  0  0  0  0
    1.0684    0.6855    1.2159 N   0  0  0  0  0  0  0  0  0  0  0  0
    1.8453    0.9388    2.4007 C   0  0  2  0  0  0  0  0  0  0  0  0
    1.1636    2.0555    3.1803 C   0  0  0  0  0  0  0  0  0  0  0  0
    0.5668    2.9839    2.6390 O   0  0  0  0  0  0  0  0  0  0  0  0
    3.2775    1.3143    2.0534 C   0  0  0  0  0  0  0  0  0  0  0  0
    0.6109    1.4755    0.7651 H   0  0  0  0  0  0  0  0  0  0  0  0
    1.8294    0.0171    2.9924 H   0  0  0  0  0  0  0  0  0  0  0  0
    3.3136    2.2355    1.4605 H   0  0  0  0  0  0  0  0  0  0  0  0
    3.8746    1.4788    2.9564 H   0  0  0  0  0  0  0  0  0  0  0  0
    3.7567    0.5228    1.4671 H   0  0  0  0  0  0  0  0  0  0  0  0
    1.3369    1.9166    4.5503 N   0  0  0  0  0  0  0  0  0  0  0  0
    0.8209    2.8723    5.5023 C   0  0  0  0  0  0  0  0  0  0  0  0
    1.8109    1.0948    4.9132 H   0  0  0  0  0  0  0  0  0  0  0  0
    1.5921    3.6256    5.7212 H   0  0  0  0  0  0  0  0  0  0  0  0
   -0.0660    3.3677    5.0803 H   0  0  0  0  0  0  0  0  0  0  0  0
    0.5431    2.3516    6.4306 H   0  0  0  0  0  0  0  0  0  0  0  0
  1  3  1  0  0  0  0
  1  7  1  0  0  0  0
  1  2  2  0  0  0  0
 28 29  1  0  0  0  0
 29 37  1  0  0  0  0
 29 30  2  0  0  0  0
 18 19  1  0  0  0  0
 19 27  1  0  0  0  0
 19 20  2  0  0  0  0
  8  9  1  0  0  0  0
  9 17  1  0  0  0  0
  9 10  2  0  0  0  0
 28 31  1  0  0  0  0
 18 21  1  0  0  0  0
  8 11  1  0  0  0  0
 37 38  1  0  0  0  0
 27 28  1  0  0  0  0
 17 18  1  0  0  0  0
  7  8  1  0  0  0  0
  3  4  1  0  0  0  0
  3  5  1  0  0  0  0
  3  6  1  0  0  0  0
 31 34  1  0  0  0  0
 31 35  1  0  0  0  0
 31 36  1  0  0  0  0
 21 24  1  0  0  0  0
 21 25  1  0  0  0  0
 21 26  1  0  0  0  0
 11 14  1  0  0  0  0
 11 15  1  0  0  0  0
 11 16  1  0  0  0  0
 38 40  1  0  0  0  0
 38 41  1  0  0  0  0
 38 42  1  0  0  0  0
 28 33  1  0  0  0  0
 18 23  1  0  0  0  0
  8 13  1  0  0  0  0
 37 39  1  0  0  0  0
  7 12  1  0  0  0  0
 27 32  1  0  0  0  0
 17 22  1  0  0  0  0
M  END
$$$$

  -OEChem-05262214473D

 42 41  0     1  0  0  0  0  0999 V2000
   -5.7851   -0.9580    0.6237 C   0  0  0  0  0  0  0  0  0  0  0  0
   -6.2213    0.1296    0.2652 O   0  0  0  0  0  0  0  0  0  0  0  0
   -6.7088   -2.1270    0.7168 C   0  0  0  0  0  0  0  0  0  0  0  0
   -7.1713   -2.2193    1.7126 H   0  0  0  0  0  0  0  0  0  0  0  0
   -7.5511   -2.0547    0.0101 H   0  0  0  0  0  0  0  0  0  0  0  0
   -6.2485   -3.1083    0.5191 H   0  0  0  0  0  0  0  0  0  0  0  0
   -4.4733   -1.2411    0.9668 N   0  0  0  0  0  0  0  0  0  0  0  0
   -3.4203   -0.2603    0.9449 C   0  0  2  0  0  0  0  0  0  0  0  0
   -2.1242   -0.9699    0.5759 C   0  0  0  0  0  0  0  0  0  0  0  0
   -1.8694   -2.1225    0.9189 O   0  0  0  0  0  0  0  0  0  0  0  0
   -3.2916    0.4435    2.2868 C   0  0  0  0  0  0  0  0  0  0  0  0
   -4.2421   -2.1920    1.2489 H   0  0  0  0  0  0  0  0  0  0  0  0
   -3.6772    0.4622    0.1625 H   0  0  0  0  0  0  0  0  0  0  0  0
   -3.0345   -0.2644    3.0832 H   0  0  0  0  0  0  0  0  0  0  0  0
   -2.5093    1.2092    2.2599 H   0  0  0  0  0  0  0  0  0  0  0  0
   -4.2338    0.9283    2.5645 H   0  0  0  0  0  0  0  0  0  0  0  0
   -1.2626   -0.1515   -0.1463 N   0  0  0  0  0  0  0  0  0  0  0  0
    0.0431   -0.5785   -0.5755 C   0  0  2  0  0  0  0  0  0  0  0  0
    0.9618   -0.5754    0.6392 C   0  0  0  0  0  0  0  0  0  0  0  0
    1.7127   -1.5088    0.9147 O   0  0  0  0  0  0  0  0  0  0  0  0
    0.5880    0.3242   -1.6714 C   0  0  0  0  0  0  0  0  0  0  0  0
   -1.5766    0.7776   -0.4197 H   0  0  0  0  0  0  0  0  0  0  0  0
   -0.0659   -1.6025   -0.9491 H   0  0  0  0  0  0  0  0  0  0  0  0
    0.7041    1.3545   -1.3157 H   0  0  0  0  0  0  0  0  0  0  0  0
    1.5689   -0.0187   -2.0167 H   0  0  0  0  0  0  0  0  0  0  0  0
   -0.0888    0.3441   -2.5324 H   0  0  0  0  0  0  0  0  0  0  0  0
    0.8156    0.5745    1.4074 N   0  0  0  0  0  0  0  0  0  0  0  0
    1.5434    0.7947    2.6293 C   0  0  2  0  0  0  0  0  0  0  0  0
    0.6592    1.6109    3.5629 C   0  0  0  0  0  0  0  0  0  0  0  0
   -0.1254    2.4689    3.1638 O   0  0  0  0  0  0  0  0  0  0  0  0
    2.8612    1.5074    2.3677 C   0  0  0  0  0  0  0  0  0  0  0  0
    0.1974    1.3135    1.0783 H   0  0  0  0  0  0  0  0  0  0  0  0
    1.7281   -0.1912    3.0695 H   0  0  0  0  0  0  0  0  0  0  0  0
    2.6963    2.4972    1.9266 H   0  0  0  0  0  0  0  0  0  0  0  0
    3.4267    1.6487    3.2947 H   0  0  0  0  0  0  0  0  0  0  0  0
    3.4835    0.9332    1.6727 H   0  0  0  0  0  0  0  0  0  0  0  0
    0.8806    1.2988    4.8969 N   0  0  0  0  0  0  0  0  0  0  0  0
    0.1946    1.9668    5.9782 C   0  0  0  0  0  0  0  0  0  0  0  0
    1.5201    0.5462    5.1345 H   0  0  0  0  0  0  0  0  0  0  0  0
    0.7973    2.8194    6.3242 H   0  0  0  0  0  0  0  0  0  0  0  0
   -0.7824    2.3280    5.6247 H   0  0  0  0  0  0  0  0  0  0  0  0
    0.0461    1.2616    6.8092 H   0  0  0  0  0  0  0  0  0  0  0  0
  1  3  1  0  0  0  0
  1  7  1  0  0  0  0
  1  2  2  0  0  0  0
 28 29  1  0  0  0  0
 29 37  1  0  0  0  0
 29 30  2  0  0  0  0
 18 19  1  0  0  0  0
 19 27  1  0  0  0  0
 19 20  2  0  0  0  0
  8  9  1  0  0  0  0
  9 17  1  0  0  0  0
  9 10  2  0  0  0  0
 28 31  1  0  0  0  0
 18 21  1  0  0  0  0
  8 11  1  0  0  0  0
 37 38  1  0  0  0  0
 27 28  1  0  0  0  0
 17 18  1  0  0  0  0
  7  8  1  0  0  0  0
  3  4  1  0  0  0  0
  3  5  1  0  0  0  0
  3  6  1  0  0  0  0
 31 34  1  0  0  0  0
 31 35  1  0  0  0  0
 31 36  1  0  0  0  0
 21 24  1  0  0  0  0
 21 25  1  0  0  0  0
 21 26  1  0  0  0  0
 11 14  1  0  0  0  0
 11 15  1  0  0  0  0
 11 16  1  0  0  0  0
 38 40  1  0  0  0  0
 38 41  1  0  0  0  0
 38 42  1  0  0  0  0
 28 33  1  0  0  0  0
 18 23  1  0  0  0  0
  8 13  1  0  0  0  0
 37 39  1  0  0  0  0
  7 12  1  0  0  0  0
 27 32  1  0  0  0  0
 17 22  1  0  0  0  0
M  END
$$$$

  -OEChem-05262214473D

 42 41  0     1  0  0  0  0  0999 V2000
   -5.7851   -0.9580    0.6237 C   0  0  0  0  0  0  0  0  0  0  0  0
   -6.2213    0.1296    0.2652 O   0  0  0  0  0  0  0  0  0  0  0  0
   -6.7088   -2.1270    0.7168 C   0  0  0  0  0  0  0  0  0  0  0  0
   -7.1713   -2.2193    1.7126 H   0  0  0  0  0  0  0  0  0  0  0  0
   -7.5511   -2.0547    0.0101 H   0  0  0  0  0  0  0  0  0  0  0  0
   -6.2485   -3.1083    0.5191 H   0  0  0  0  0  0  0  0  0  0  0  0
   -4.4733   -1.2411    0.9668 N   0  0  0  0  0  0  0  0  0  0  0  0
   -3.4203   -0.2603    0.9449 C   0  0  2  0  0  0  0  0  0  0  0  0
   -2.1242   -0.9699    0.5759 C   0  0  0  0  0  0  0  0  0  0  0  0
   -1.8694   -2.1225    0.9189 O   0  0  0  0  0  0  0  0  0  0  0  0
   -3.2916    0.4435    2.2868 C   0  0  0  0  0  0  0  0  0  0  0  0
   -4.2421   -2.1920    1.2489 H   0  0  0  0  0  0  0  0  0  0  0  0
   -3.6772    0.4622    0.1625 H   0  0  0  0  0  0  0  0  0  0  0  0
   -3.0345   -0.2644    3.0832 H   0  0  0  0  0  0  0  0  0  0  0  0
   -2.5093    1.2092    2.2599 H   0  0  0  0  0  0  0  0  0  0  0  0
   -4.2338    0.9283    2.5645 H   0  0  0  0  0  0  0  0  0  0  0  0
   -1.2626   -0.1515   -0.1463 N   0  0  0  0  0  0  0  0  0  0  0  0
    0.0431   -0.5785   -0.5755 C   0  0  2  0  0  0  0  0  0  0  0  0
    0.9618   -0.5754    0.6392 C   0  0  0  0  0  0  0  0  0  0  0  0
    1.8937   -1.3650    0.7774 O   0  0  0  0  0  0  0  0  0  0  0  0
    0.5880    0.3242   -1.6714 C   0  0  0  0  0  0  0  0  0  0  0  0
   -1.5766    0.7776   -0.4197 H   0  0  0  0  0  0  0  0  0  0  0  0
   -0.0659   -1.6025   -0.9491 H   0  0  0  0  0  0  0  0  0  0  0  0
    0.7041    1.3545   -1.3157 H   0  0  0  0  0  0  0  0  0  0  0  0
    1.5689   -0.0187   -2.0167 H   0  0  0  0  0  0  0  0  0  0  0  0
   -0.0888    0.3441   -2.5324 H   0  0  0  0  0  0  0  0  0  0  0  0
    0.5944    0.3853    1.5751 N   0  0  0  0  0  0  0  0  0  0  0  0
    1.2817    0.5576    2.8279 C   0  0  2  0  0  0  0  0  0  0  0  0
    0.2640    1.0177    3.8633 C   0  0  0  0  0  0  0  0  0  0  0  0
   -0.6875    1.7467    3.5907 O   0  0  0  0  0  0  0  0  0  0  0  0
    2.4194    1.5588    2.7017 C   0  0  0  0  0  0  0  0  0  0  0  0
   -0.1685    1.0228    1.3557 H   0  0  0  0  0  0  0  0  0  0  0  0
    1.6733   -0.4254    3.1116 H   0  0  0  0  0  0  0  0  0  0  0  0
    2.0464    2.5497    2.4180 H   0  0  0  0  0  0  0  0  0  0  0  0
    2.9592    1.6674    3.6482 H   0  0  0  0  0  0  0  0  0  0  0  0
    3.1349    1.2412    1.9355 H   0  0  0  0  0  0  0  0  0  0  0  0
    0.5676    0.5537    5.1355 N   0  0  0  0  0  0  0  0  0  0  0  0
   -0.2231    0.8886    6.2968 C   0  0  0  0  0  0  0  0  0  0  0  0
    1.3526   -0.0783    5.2628 H   0  0  0  0  0  0  0  0  0  0  0  0
    0.1964    1.7826    6.7813 H   0  0  0  0  0  0  0  0  0  0  0  0
   -1.2595    1.0909    5.9887 H   0  0  0  0  0  0  0  0  0  0  0  0
   -0.2088    0.0471    7.0051 H   0  0  0  0  0  0  0  0  0  0  0  0
  1  3  1  0  0  0  0
  1  7  1  0  0  0  0
  1  2  2  0  0  0  0
 28 29  1  0  0  0  0
 29 37  1  0  0  0  0
 29 30  2  0  0  0  0
 18 19  1  0  0  0  0
 19 27  1  0  0  0  0
 19 20  2  0  0  0  0
  8  9  1  0  0  0  0
  9 17  1  0  0  0  0
  9 10  2  0  0  0  0
 28 31  1  0  0  0  0
 18 21  1  0  0  0  0
  8 11  1  0  0  0  0
 37 38  1  0  0  0  0
 27 28  1  0  0  0  0
 17 18  1  0  0  0  0
  7  8  1  0  0  0  0
  3  4  1  0  0  0  0
  3  5  1  0  0  0  0
  3  6  1  0  0  0  0
 31 34  1  0  0  0  0
 31 35  1  0  0  0  0
 31 36  1  0  0  0  0
 21 24  1  0  0  0  0
 21 25  1  0  0  0  0
 21 26  1  0  0  0  0
 11 14  1  0  0  0  0
 11 15  1  0  0  0  0
 11 16  1  0  0  0  0
 38 40  1  0  0  0  0
 38 41  1  0  0  0  0
 38 42  1  0  0  0  0
 28 33  1  0  0  0  0
 18 23  1  0  0  0  0
  8 13  1  0  0  0  0
 37 39  1  0  0  0  0
  7 12  1  0  0  0  0
 27 32  1  0  0  0  0
 17 22  1  0  0  0  0
M  END
$$$$

  -OEChem-05262214473D

 42 41  0     1  0  0  0  0  0999 V2000
   -5.7851   -0.9580    0.6237 C   0  0  0  0  0  0  0  0  0  0  0  0
   -6.2213    0.1296    0.2652 O   0  0  0  0  0  0  0  0  0  0  0  0
   -6.7088   -2.1270    0.7168 C   0  0  0  0  0  0  0  0  0  0  0  0
   -7.1713   -2.2193    1.7126 H   0  0  0  0  0  0  0  0  0  0  0  0
   -7.5511   -2.0547    0.0101 H   0  0  0  0  0  0  0  0  0  0  0  0
   -6.2485   -3.1083    0.5191 H   0  0  0  0  0  0  0  0  0  0  0  0
   -4.4733   -1.2411    0.9668 N   0  0  0  0  0  0  0  0  0  0  0  0
   -3.4203   -0.2603    0.9449 C   0  0  2  0  0  0  0  0  0  0  0  0
   -2.1242   -0.9699    0.5759 C   0  0  0  0  0  0  0  0  0  0  0  0
   -1.8694   -2.1225    0.9189 O   0  0  0  0  0  0  0  0  0  0  0  0
   -3.2916    0.4435    2.2868 C   0  0  0  0  0  0  0  0  0  0  0  0
   -4.2421   -2.1920    1.2489 H   0  0  0  0  0  0  0  0  0  0  0  0
   -3.6772    0.4622    0.1625 H   0  0  0  0  0  0  0  0  0  0  0  0
   -3.0345   -0.2644    3.0832 H   0  0  0  0  0  0  0  0  0  0  0  0
   -2.5093    1.2092    2.2599 H   0  0  0  0  0  0  0  0  0  0  0  0
   -4.2338    0.9283    2.5645 H   0  0  0  0  0  0  0  0  0  0  0  0
   -1.2626   -0.1515   -0.1463 N   0  0  0  0  0  0  0  0  0  0  0  0
    0.0431   -0.5785   -0.5755 C   0  0  2  0  0  0  0  0  0  0  0  0
    0.9618   -0.5754    0.6392 C   0  0  0  0  0  0  0  0  0  0  0  0
    2.0388   -1.1672    0.6672 O   0  0  0  0  0  0  0  0  0  0  0  0
    0.5880    0.3242   -1.6714 C   0  0  0  0  0  0  0  0  0  0  0  0
   -1.5766    0.7776   -0.4197 H   0  0  0  0  0  0  0  0  0  0  0  0
   -0.0659   -1.6025   -0.9491 H   0  0  0  0  0  0  0  0  0  0  0  0
    0.7041    1.3545   -1.3157 H   0  0  0  0  0  0  0  0  0  0  0  0
    1.5689   -0.0187   -2.0167 H   0  0  0  0  0  0  0  0  0  0  0  0
   -0.0888    0.3441   -2.5324 H   0  0  0  0  0  0  0  0  0  0  0  0
    0.4200    0.1306    1.7077 N   0  0  0  0  0  0  0  0  0  0  0  0
    1.0780    0.2435    2.9827 C   0  0  2  0  0  0  0  0  0  0  0  0
    0.0049    0.3162    4.0610 C   0  0  0  0  0  0  0  0  0  0  0  0
   -1.0810    0.8664    3.8906 O   0  0  0  0  0  0  0  0  0  0  0  0
    1.9822    1.4652    3.0325 C   0  0  0  0  0  0  0  0  0  0  0  0
   -0.4617    0.6231    1.5785 H   0  0  0  0  0  0  0  0  0  0  0  0
    1.6688   -0.6694    3.1156 H   0  0  0  0  0  0  0  0  0  0  0  0
    1.4080    2.3896    2.9012 H   0  0  0  0  0  0  0  0  0  0  0  0
    2.5039    1.5338    3.9928 H   0  0  0  0  0  0  0  0  0  0  0  0
    2.7348    1.4257    2.2377 H   0  0  0  0  0  0  0  0  0  0  0  0
    0.4192   -0.2679    5.2499 N   0  0  0  0  0  0  0  0  0  0  0  0
   -0.4038   -0.2889    6.4365 C   0  0  0  0  0  0  0  0  0  0  0  0
    1.3197   -0.7361    5.2893 H   0  0  0  0  0  0  0  0  0  0  0  0
   -0.1697    0.5857    7.0613 H   0  0  0  0  0  0  0  0  0  0  0  0
   -1.4647   -0.2593    6.1473 H   0  0  0  0  0  0  0  0  0  0  0  0
   -0.2042   -1.2093    7.0048 H   0  0  0  0  0  0  0  0  0  0  0  0
  1  3  1  0  0  0  0
  1  7  1  0  0  0  0
  1  2  2  0  0  0  0
 28 29  1  0  0  0  0
 29 37  1  0  0  0  0
 29 30  2  0  0  0  0
 18 19  1  0  0  0  0
 19 27  1  0  0  0  0
 19 20  2  0  0  0  0
  8  9  1  0  0  0  0
  9 17  1  0  0  0  0
  9 10  2  0  0  0  0
 28 31  1  0  0  0  0
 18 21  1  0  0  0  0
  8 11  1  0  0  0  0
 37 38  1  0  0  0  0
 27 28  1  0  0  0  0
 17 18  1  0  0  0  0
  7  8  1  0  0  0  0
  3  4  1  0  0  0  0
  3  5  1  0  0  0  0
  3  6  1  0  0  0  0
 31 34  1  0  0  0  0
 31 35  1  0  0  0  0
 31 36  1  0  0  0  0
 21 24  1  0  0  0  0
 21 25  1  0  0  0  0
 21 26  1  0  0  0  0
 11 14  1  0  0  0  0
 11 15  1  0  0  0  0
 11 16  1  0  0  0  0
 38 40  1  0  0  0  0
 38 41  1  0  0  0  0
 38 42  1  0  0  0  0
 28 33  1  0  0  0  0
 18 23  1  0  0  0  0
  8 13  1  0  0  0  0
 37 39  1  0  0  0  0
  7 12  1  0  0  0  0
 27 32  1  0  0  0  0
 17 22  1  0  0  0  0
M  END
$$$$

  -OEChem-05262214473D

 42 41  0     1  0  0  0  0  0999 V2000
   -5.7851   -0.9580    0.6237 C   0  0  0  0  0  0  0  0  0  0  0  0
   -6.2213    0.1296    0.2652 O   0  0  0  0  0  0  0  0  0  0  0  0
   -6.7088   -2.1270    0.7168 C   0  0  0  0  0  0  0  0  0  0  0  0
   -7.1713   -2.2193    1.7126 H   0  0  0  0  0  0  0  0  0  0  0  0
   -7.5511   -2.0547    0.0101 H   0  0  0  0  0  0  0  0  0  0  0  0
   -6.2485   -3.1083    0.5191 H   0  0  0  0  0  0  0  0  0  0  0  0
   -4.4733   -1.2411    0.9668 N   0  0  0  0  0  0  0  0  0  0  0  0
   -3.4203   -0.2603    0.9449 C   0  0  2  0  0  0  0  0  0  0  0  0
   -2.1242   -0.9699    0.5759 C   0  0  0  0  0  0  0  0  0  0  0  0
   -1.8694   -2.1225    0.9189 O   0  0  0  0  0  0  0  0  0  0  0  0
   -3.2916    0.4435    2.2868 C   0  0  0  0  0  0  0  0  0  0  0  0
   -4.2421   -2.1920    1.2489 H   0  0  0  0  0  0  0  0  0  0  0  0
   -3.6772    0.4622    0.1625 H   0  0  0  0  0  0  0  0  0  0  0  0
   -3.0345   -0.2644    3.0832 H   0  0  0  0  0  0  0  0  0  0  0  0
   -2.5093    1.2092    2.2599 H   0  0  0  0  0  0  0  0  0  0  0  0
   -4.2338    0.9283    2.5645 H   0  0  0  0  0  0  0  0  0  0  0  0
   -1.2626   -0.1515   -0.1463 N   0  0  0  0  0  0  0  0  0  0  0  0
    0.0431   -0.5785   -0.5755 C   0  0  2  0  0  0  0  0  0  0  0  0
    0.9618   -0.5754    0.6392 C   0  0  0  0  0  0  0  0  0  0  0  0
    2.1381   -0.9290    0.5915 O   0  0  0  0  0  0  0  0  0  0  0  0
    0.5880    0.3242   -1.6714 C   0  0  0  0  0  0  0  0  0  0  0  0
   -1.5766    0.7776   -0.4197 H   0  0  0  0  0  0  0  0  0  0  0  0
   -0.0659   -1.6025   -0.9491 H   0  0  0  0  0  0  0  0  0  0  0  0
    0.7041    1.3545   -1.3157 H   0  0  0  0  0  0  0  0  0  0  0  0
    1.5689   -0.0187   -2.0167 H   0  0  0  0  0  0  0  0  0  0  0  0
   -0.0888    0.3441   -2.5324 H   0  0  0  0  0  0  0  0  0  0  0  0
    0.3041   -0.1721    1.7962 N   0  0  0  0  0  0  0  0  0  0  0  0
    0.9461   -0.1262    3.0834 C   0  0  2  0  0  0  0  0  0  0  0  0
   -0.1005   -0.4458    4.1426 C   0  0  0  0  0  0  0  0  0  0  0  0
   -1.2793   -0.1119    4.0431 O   0  0  0  0  0  0  0  0  0  0  0  0
    1.5794    1.2328    3.3377 C   0  0  0  0  0  0  0  0  0  0  0  0
   -0.6623    0.1418    1.7314 H   0  0  0  0  0  0  0  0  0  0  0  0
    1.7148   -0.9067    3.0815 H   0  0  0  0  0  0  0  0  0  0  0  0
    0.8246    2.0276    3.3433 H   0  0  0  0  0  0  0  0  0  0  0  0
    2.0919    1.2570    4.3051 H   0  0  0  0  0  0  0  0  0  0  0  0
    2.3104    1.4741    2.5585 H   0  0  0  0  0  0  0  0  0  0  0  0
    0.4455   -1.1100    5.2321 N   0  0  0  0  0  0  0  0  0  0  0  0
   -0.3353   -1.4854    6.3877 C   0  0  0  0  0  0  0  0  0  0  0  0
    1.4238   -1.3825    5.2122 H   0  0  0  0  0  0  0  0  0  0  0  0
   -0.2762   -0.6898    7.1450 H   0  0  0  0  0  0  0  0  0  0  0  0
   -1.3842   -1.6307    6.0899 H   0  0  0  0  0  0  0  0  0  0  0  0
    0.0596   -2.4219    6.8084 H   0  0  0  0  0  0  0  0  0  0  0  0
  1  3  1  0  0  0  0
  1  7  1  0  0  0  0
  1  2  2  0  0  0  0
 28 29  1  0  0  0  0
 29 37  1  0  0  0  0
 29 30  2  0  0  0  0
 18 19  1  0  0  0  0
 19 27  1  0  0  0  0
 19 20  2  0  0  0  0
  8  9  1  0  0  0  0
  9 17  1  0  0  0  0
  9 10  2  0  0  0  0
 28 31  1  0  0  0  0
 18 21  1  0  0  0  0
  8 11  1  0  0  0  0
 37 38  1  0  0  0  0
 27 28  1  0  0  0  0
 17 18  1  0  0  0  0
  7  8  1  0  0  0  0
  3  4  1  0  0  0  0
  3  5  1  0  0  0  0
  3  6  1  0  0  0  0
 31 34  1  0  0  0  0
 31 35  1  0  0  0  0
 31 36  1  0  0  0  0
 21 24  1  0  0  0  0
 21 25  1  0  0  0  0
 21 26  1  0  0  0  0
 11 14  1  0  0  0  0
 11 15  1  0  0  0  0
 11 16  1  0  0  0  0
 38 40  1  0  0  0  0
 38 41  1  0  0  0  0
 38 42  1  0  0  0  0
 28 33  1  0  0  0  0
 18 23  1  0  0  0  0
  8 13  1  0  0  0  0
 37 39  1  0  0  0  0
  7 12  1  0  0  0  0
 27 32  1  0  0  0  0
 17 22  1  0  0  0  0
M  END
$$$$

  -OEChem-05262214473D

 42 41  0     1  0  0  0  0  0999 V2000
   -5.7851   -0.9580    0.6237 C   0  0  0  0  0  0  0  0  0  0  0  0
   -6.2213    0.1296    0.2652 O   0  0  0  0  0  0  0  0  0  0  0  0
   -6.7088   -2.1270    0.7168 C   0  0  0  0  0  0  0  0  0  0  0  0
   -7.1713   -2.2193    1.7126 H   0  0  0  0  0  0  0  0  0  0  0  0
   -7.5511   -2.0547    0.0101 H   0  0  0  0  0  0  0  0  0  0  0  0
   -6.2485   -3.1083    0.5191 H   0  0  0  0  0  0  0  0  0  0  0  0
   -4.4733   -1.2411    0.9668 N   0  0  0  0  0  0  0  0  0  0  0  0
   -3.4203   -0.2603    0.9449 C   0  0  2  0  0  0  0  0  0  0  0  0
   -2.1242   -0.9699    0.5759 C   0  0  0  0  0  0  0  0  0  0  0  0
   -1.8694   -2.1225    0.9189 O   0  0  0  0  0  0  0  0  0  0  0  0
   -3.2916    0.4435    2.2868 C   0  0  0  0  0  0  0  0  0  0  0  0
   -4.2421   -2.1920    1.2489 H   0  0  0  0  0  0  0  0  0  0  0  0
   -3.6772    0.4622    0.1625 H   0  0  0  0  0  0  0  0  0  0  0  0
   -3.0345   -0.2644    3.0832 H   0  0  0  0  0  0  0  0  0  0  0  0
   -2.5093    1.2092    2.2599 H   0  0  0  0  0  0  0  0  0  0  0  0
   -4.2338    0.9283    2.5645 H   0  0  0  0  0  0  0  0  0  0  0  0
   -1.2626   -0.1515   -0.1463 N   0  0  0  0  0  0  0  0  0  0  0  0
    0.0431   -0.5785   -0.5755 C   0  0  2  0  0  0  0  0  0  0  0  0
    0.9618   -0.5754    0.6392 C   0  0  0  0  0  0  0  0  0  0  0  0
    2.1848   -0.6666    0.5555 O   0  0  0  0  0  0  0  0  0  0  0  0
    0.5880    0.3242   -1.6714 C   0  0  0  0  0  0  0  0  0  0  0  0
   -1.5766    0.7776   -0.4197 H   0  0  0  0  0  0  0  0  0  0  0  0
   -0.0659   -1.6025   -0.9491 H   0  0  0  0  0  0  0  0  0  0  0  0
    0.7041    1.3545   -1.3157 H   0  0  0  0  0  0  0  0  0  0  0  0
    1.5689   -0.0187   -2.0167 H   0  0  0  0  0  0  0  0  0  0  0  0
   -0.0888    0.3441   -2.5324 H   0  0  0  0  0  0  0  0  0  0  0  0
    0.2547   -0.5022    1.8344 N   0  0  0  0  0  0  0  0  0  0  0  0
    0.8951   -0.5262    3.1230 C   0  0  2  0  0  0  0  0  0  0  0  0
   -0.0449   -1.2163    4.1026 C   0  0  0  0  0  0  0  0  0  0  0  0
   -1.2688   -1.1216    4.0377 O   0  0  0  0  0  0  0  0  0  0  0  0
    1.2385    0.8776    3.5965 C   0  0  0  0  0  0  0  0  0  0  0  0
   -0.7566   -0.3884    1.8041 H   0  0  0  0  0  0  0  0  0  0  0  0
    1.8081   -1.1211    3.0114 H   0  0  0  0  0  0  0  0  0  0  0  0
    0.3361    1.4886    3.7141 H   0  0  0  0  0  0  0  0  0  0  0  0
    1.7513    0.8558    4.5638 H   0  0  0  0  0  0  0  0  0  0  0  0
    1.8907    1.3832    2.8762 H   0  0  0  0  0  0  0  0  0  0  0  0
    0.6447   -1.9151    5.0835 N   0  0  0  0  0  0  0  0  0  0  0  0
   -0.0221   -2.6193    6.1537 C   0  0  0  0  0  0  0  0  0  0  0  0
    1.6577   -1.9732    5.0368 H   0  0  0  0  0  0  0  0  0  0  0  0
   -0.1157   -1.9568    7.0269 H   0  0  0  0  0  0  0  0  0  0  0  0
   -1.0233   -2.9298    5.8203 H   0  0  0  0  0  0  0  0  0  0  0  0
    0.5646   -3.5080    6.4292 H   0  0  0  0  0  0  0  0  0  0  0  0
  1  3  1  0  0  0  0
  1  7  1  0  0  0  0
  1  2  2  0  0  0  0
 28 29  1  0  0  0  0
 29 37  1  0  0  0  0
 29 30  2  0  0  0  0
 18 19  1  0  0  0  0
 19 27  1  0  0  0  0
 19 20  2  0  0  0  0
  8  9  1  0  0  0  0
  9 17  1  0  0  0  0
  9 10  2  0  0  0  0
 28 31  1  0  0  0  0
 18 21  1  0  0  0  0
  8 11  1  0  0  0  0
 37 38  1  0  0  0  0
 27 28  1  0  0  0  0
 17 18  1  0  0  0  0
  7  8  1  0  0  0  0
  3  4  1  0  0  0  0
  3  5  1  0  0  0  0
  3  6  1  0  0  0  0
 31 34  1  0  0  0  0
 31 35  1  0  0  0  0
 31 36  1  0  0  0  0
 21 24  1  0  0  0  0
 21 25  1  0  0  0  0
 21 26  1  0  0  0  0
 11 14  1  0  0  0  0
 11 15  1  0  0  0  0
 11 16  1  0  0  0  0
 38 40  1  0  0  0  0
 38 41  1  0  0  0  0
 38 42  1  0  0  0  0
 28 33  1  0  0  0  0
 18 23  1  0  0  0  0
  8 13  1  0  0  0  0
 37 39  1  0  0  0  0
  7 12  1  0  0  0  0
 27 32  1  0  0  0  0
 17 22  1  0  0  0  0
M  END
$$$$

  -OEChem-05262214473D

 42 41  0     1  0  0  0  0  0999 V2000
   -5.7851   -0.9580    0.6237 C   0  0  0  0  0  0  0  0  0  0  0  0
   -6.2213    0.1296    0.2652 O   0  0  0  0  0  0  0  0  0  0  0  0
   -6.7088   -2.1270    0.7168 C   0  0  0  0  0  0  0  0  0  0  0  0
   -7.1713   -2.2193    1.7126 H   0  0  0  0  0  0  0  0  0  0  0  0
   -7.5511   -2.0547    0.0101 H   0  0  0  0  0  0  0  0  0  0  0  0
   -6.2485   -3.1083    0.5191 H   0  0  0  0  0  0  0  0  0  0  0  0
   -4.4733   -1.2411    0.9668 N   0  0  0  0  0  0  0  0  0  0  0  0
   -3.4203   -0.2603    0.9449 C   0  0  2  0  0  0  0  0  0  0  0  0
   -2.1242   -0.9699    0.5759 C   0  0  0  0  0  0  0  0  0  0  0  0
   -1.8694   -2.1225    0.9189 O   0  0  0  0  0  0  0  0  0  0  0  0
   -3.2916    0.4435    2.2868 C   0  0  0  0  0  0  0  0  0  0  0  0
   -4.2421   -2.1920    1.2489 H   0  0  0  0  0  0  0  0  0  0  0  0
   -3.6772    0.4622    0.1625 H   0  0  0  0  0  0  0  0  0  0  0  0
   -3.0345   -0.2644    3.0832 H   0  0  0  0  0  0  0  0  0  0  0  0
   -2.5093    1.2092    2.2599 H   0  0  0  0  0  0  0  0  0  0  0  0
   -4.2338    0.9283    2.5645 H   0  0  0  0  0  0  0  0  0  0  0  0
   -1.2626   -0.1515   -0.1463 N   0  0  0  0  0  0  0  0  0  0  0  0
    0.0431   -0.5785   -0.5755 C   0  0  2  0  0  0  0  0  0  0  0  0
    0.9618   -0.5754    0.6392 C   0  0  0  0  0  0  0  0  0  0  0  0
    2.1757   -0.3979    0.5617 O   0  0  0  0  0  0  0  0  0  0  0  0
    0.5880    0.3242   -1.6714 C   0  0  0  0  0  0  0  0  0  0  0  0
   -1.5766    0.7776   -0.4197 H   0  0  0  0  0  0  0  0  0  0  0  0
   -0.0659   -1.6025   -0.9491 H   0  0  0  0  0  0  0  0  0  0  0  0
    0.7041    1.3545   -1.3157 H   0  0  0  0  0  0  0  0  0  0  0  0
    1.5689   -0.0187   -2.0167 H   0  0  0  0  0  0  0  0  0  0  0  0
   -0.0888    0.3441   -2.5324 H   0  0  0  0  0  0  0  0  0  0  0  0
    0.2751   -0.8372    1.8198 N   0  0  0  0  0  0  0  0  0  0  0  0
    0.9284   -0.9292    3.0989 C   0  0  2  0  0  0  0  0  0  0  0  0
    0.1678   -1.9428    3.9436 C   0  0  0  0  0  0  0  0  0  0  0  0
   -1.0502   -2.0940    3.8748 O   0  0  0  0  0  0  0  0  0  0  0  0
    0.9827    0.4237    3.7911 C   0  0  0  0  0  0  0  0  0  0  0  0
   -0.7383   -0.9314    1.7916 H   0  0  0  0  0  0  0  0  0  0  0  0
    1.9426   -1.2979    2.9102 H   0  0  0  0  0  0  0  0  0  0  0  0
   -0.0243    0.8092    3.9884 H   0  0  0  0  0  0  0  0  0  0  0  0
    1.5052    0.3575    4.7512 H   0  0  0  0  0  0  0  0  0  0  0  0
    1.5041    1.1592    3.1691 H   0  0  0  0  0  0  0  0  0  0  0  0
    1.0033   -2.6285    4.8141 N   0  0  0  0  0  0  0  0  0  0  0  0
    0.5144   -3.6134    5.7506 C   0  0  0  0  0  0  0  0  0  0  0  0
    2.0056   -2.4682    4.7750 H   0  0  0  0  0  0  0  0  0  0  0  0
    0.3009   -3.1291    6.7148 H   0  0  0  0  0  0  0  0  0  0  0  0
   -0.4067   -4.0680    5.3568 H   0  0  0  0  0  0  0  0  0  0  0  0
    1.2765   -4.3937    5.8931 H   0  0  0  0  0  0  0  0  0  0  0  0
  1  3  1  0  0  0  0
  1  7  1  0  0  0  0
  1  2  2  0  0  0  0
 28 29  1  0  0  0  0
 29 37  1  0  0  0  0
 29 30  2  0  0  0  0
 18 19  1  0  0  0  0
 19 27  1  0  0  0  0
 19 20  2  0  0  0  0
  8  9  1  0  0  0  0
  9 17  1  0  0  0  0
  9 10  2  0  0  0  0
 28 31  1  0  0  0  0
 18 21  1  0  0  0  0
  8 11  1  0  0  0  0
 37 38  1  0  0  0  0
 27 28  1  0  0  0  0
 17 18  1  0  0  0  0
  7  8  1  0  0  0  0
  3  4  1  0  0  0  0
  3  5  1  0  0  0  0
  3  6  1  0  0  0  0
 31 34  1  0  0  0  0
 31 35  1  0  0  0  0
 31 36  1  0  0  0  0
 21 24  1  0  0  0  0
 21 25  1  0  0  0  0
 21 26  1  0  0  0  0
 11 14  1  0  0  0  0
 11 15  1  0  0  0  0
 11 16  1  0  0  0  0
 38 40  1  0  0  0  0
 38 41  1  0  0  0  0
 38 42  1  0  0  0  0
 28 33  1  0  0  0  0
 18 23  1  0  0  0  0
  8 13  1  0  0  0  0
 37 39  1  0  0  0  0
  7 12  1  0  0  0  0
 27 32  1  0  0  0  0
 17 22  1  0  0  0  0
M  END
$$$$

  -OEChem-05262214473D

 42 41  0     1  0  0  0  0  0999 V2000
   -5.7851   -0.9580    0.6237 C   0  0  0  0  0  0  0  0  0  0  0  0
   -6.2213    0.1296    0.2652 O   0  0  0  0  0  0  0  0  0  0  0  0
   -6.7088   -2.1270    0.7168 C   0  0  0  0  0  0  0  0  0  0  0  0
   -7.1713   -2.2193    1.7126 H   0  0  0  0  0  0  0  0  0  0  0  0
   -7.5511   -2.0547    0.0101 H   0  0  0  0  0  0  0  0  0  0  0  0
   -6.2485   -3.1083    0.5191 H   0  0  0  0  0  0  0  0  0  0  0  0
   -4.4733   -1.2411    0.9668 N   0  0  0  0  0  0  0  0  0  0  0  0
   -3.4203   -0.2603    0.9449 C   0  0  2  0  0  0  0  0  0  0  0  0
   -2.1242   -0.9699    0.5759 C   0  0  0  0  0  0  0  0  0  0  0  0
   -1.8694   -2.1225    0.9189 O   0  0  0  0  0  0  0  0  0  0  0  0
   -3.2916    0.4435    2.2868 C   0  0  0  0  0  0  0  0  0  0  0  0
   -4.2421   -2.1920    1.2489 H   0  0  0  0  0  0  0  0  0  0  0  0
   -3.6772    0.4622    0.1625 H   0  0  0  0  0  0  0  0  0  0  0  0
   -3.0345   -0.2644    3.0832 H   0  0  0  0  0  0  0  0  0  0  0  0
   -2.5093    1.2092    2.2599 H   0  0  0  0  0  0  0  0  0  0  0  0
   -4.2338    0.9283    2.5645 H   0  0  0  0  0  0  0  0  0  0  0  0
   -1.2626   -0.1515   -0.1463 N   0  0  0  0  0  0  0  0  0  0  0  0
    0.0431   -0.5785   -0.5755 C   0  0  2  0  0  0  0  0  0  0  0  0
    0.9618   -0.5754    0.6392 C   0  0  0  0  0  0  0  0  0  0  0  0
    2.1114   -0.1413    0.6097 O   0  0  0  0  0  0  0  0  0  0  0  0
    0.5880    0.3242   -1.6714 C   0  0  0  0  0  0  0  0  0  0  0  0
   -1.5766    0.7776   -0.4197 H   0  0  0  0  0  0  0  0  0  0  0  0
   -0.0659   -1.6025   -0.9491 H   0  0  0  0  0  0  0  0  0  0  0  0
    0.7041    1.3545   -1.3157 H   0  0  0  0  0  0  0  0  0  0  0  0
    1.5689   -0.0187   -2.0167 H   0  0  0  0  0  0  0  0  0  0  0  0
   -0.0888    0.3441   -2.5324 H   0  0  0  0  0  0  0  0  0  0  0  0
    0.3640   -1.1543    1.7533 N   0  0  0  0  0  0  0  0  0  0  0  0
    1.0438   -1.3079    3.0126 C   0  0  2  0  0  0  0  0  0  0  0  0
    0.5231   -2.5759    3.6765 C   0  0  0  0  0  0  0  0  0  0  0  0
   -0.6385   -2.9626    3.5656 O   0  0  0  0  0  0  0  0  0  0  0  0
    0.8293   -0.0979    3.9084 C   0  0  0  0  0  0  0  0  0  0  0  0
   -0.6084   -1.4501    1.6947 H   0  0  0  0  0  0  0  0  0  0  0  0
    2.1088   -1.4252    2.7847 H   0  0  0  0  0  0  0  0  0  0  0  0
   -0.2320    0.0358    4.1475 H   0  0  0  0  0  0  0  0  0  0  0  0
    1.3704   -0.2038    4.8545 H   0  0  0  0  0  0  0  0  0  0  0  0
    1.1772    0.8172    3.4172 H   0  0  0  0  0  0  0  0  0  0  0  0
    1.4968   -3.2015    4.4424 N   0  0  0  0  0  0  0  0  0  0  0  0
    1.2375   -4.4000    5.2056 C   0  0  0  0  0  0  0  0  0  0  0  0
    2.4436   -2.8337    4.4447 H   0  0  0  0  0  0  0  0  0  0  0  0
    0.9450   -4.1267    6.2302 H   0  0  0  0  0  0  0  0  0  0  0  0
    0.4236   -4.9678    4.7312 H   0  0  0  0  0  0  0  0  0  0  0  0
    2.1466   -5.0186    5.2367 H   0  0  0  0  0  0  0  0  0  0  0  0
  1  3  1  0  0  0  0
  1  7  1  0  0  0  0
  1  2  2  0  0  0  0
 28 29  1  0  0  0  0
 29 37  1  0  0  0  0
 29 30  2  0  0  0  0
 18 19  1  0  0  0  0
 19 27  1  0  0  0  0
 19 20  2  0  0  0  0
  8  9  1  0  0  0  0
  9 17  1  0  0  0  0
  9 10  2  0  0  0  0
 28 31  1  0  0  0  0
 18 21  1  0  0  0  0
  8 11  1  0  0  0  0
 37 38  1  0  0  0  0
 27 28  1  0  0  0  0
 17 18  1  0  0  0  0
  7  8  1  0  0  0  0
  3  4  1  0  0  0  0
  3  5  1  0  0  0  0
  3  6  1  0  0  0  0
 31 34  1  0  0  0  0
 31 35  1  0  0  0  0
 31 36  1  0  0  0  0
 21 24  1  0  0  0  0
 21 25  1  0  0  0  0
 21 26  1  0  0  0  0
 11 14  1  0  0  0  0
 11 15  1  0  0  0  0
 11 16  1  0  0  0  0
 38 40  1  0  0  0  0
 38 41  1  0  0  0  0
 38 42  1  0  0  0  0
 28 33  1  0  0  0  0
 18 23  1  0  0  0  0
  8 13  1  0  0  0  0
 37 39  1  0  0  0  0
  7 12  1  0  0  0  0
 27 32  1  0  0  0  0
 17 22  1  0  0  0  0
M  END
$$$$

  -OEChem-05262214473D

 42 41  0     1  0  0  0  0  0999 V2000
   -5.7851   -0.9580    0.6237 C   0  0  0  0  0  0  0  0  0  0  0  0
   -6.2213    0.1296    0.2652 O   0  0  0  0  0  0  0  0  0  0  0  0
   -6.7088   -2.1270    0.7168 C   0  0  0  0  0  0  0  0  0  0  0  0
   -7.1713   -2.2193    1.7126 H   0  0  0  0  0  0  0  0  0  0  0  0
   -7.5511   -2.0547    0.0101 H   0  0  0  0  0  0  0  0  0  0  0  0
   -6.2485   -3.1083    0.5191 H   0  0  0  0  0  0  0  0  0  0  0  0
   -4.4733   -1.2411    0.9668 N   0  0  0  0  0  0  0  0  0  0  0  0
   -3.4203   -0.2603    0.9449 C   0  0  2  0  0  0  0  0  0  0  0  0
   -2.1242   -0.9699    0.5759 C   0  0  0  0  0  0  0  0  0  0  0  0
   -1.8694   -2.1225    0.9189 O   0  0  0  0  0  0  0  0  0  0  0  0
   -3.2916    0.4435    2.2868 C   0  0  0  0  0  0  0  0  0  0  0  0
   -4.2421   -2.1920    1.2489 H   0  0  0  0  0  0  0  0  0  0  0  0
   -3.6772    0.4622    0.1625 H   0  0  0  0  0  0  0  0  0  0  0  0
   -3.0345   -0.2644    3.0832 H   0  0  0  0  0  0  0  0  0  0  0  0
   -2.5093    1.2092    2.2599 H   0  0  0  0  0  0  0  0  0  0  0  0
   -4.2338    0.9283    2.5645 H   0  0  0  0  0  0  0  0  0  0  0  0
   -1.2626   -0.1515   -0.1463 N   0  0  0  0  0  0  0  0  0  0  0  0
    0.0431   -0.5785   -0.5755 C   0  0  2  0  0  0  0  0  0  0  0  0
    0.9618   -0.5754    0.6392 C   0  0  0  0  0  0  0  0  0  0  0  0
    1.9964    0.0859    0.6961 O   0  0  0  0  0  0  0  0  0  0  0  0
    0.5880    0.3242   -1.6714 C   0  0  0  0  0  0  0  0  0  0  0  0
   -1.5766    0.7776   -0.4197 H   0  0  0  0  0  0  0  0  0  0  0  0
   -0.0659   -1.6025   -0.9491 H   0  0  0  0  0  0  0  0  0  0  0  0
    0.7041    1.3545   -1.3157 H   0  0  0  0  0  0  0  0  0  0  0  0
    1.5689   -0.0187   -2.0167 H   0  0  0  0  0  0  0  0  0  0  0  0
   -0.0888    0.3441   -2.5324 H   0  0  0  0  0  0  0  0  0  0  0  0
    0.5153   -1.4318    1.6396 N   0  0  0  0  0  0  0  0  0  0  0  0
    1.2333   -1.6364    2.8700 C   0  0  2  0  0  0  0  0  0  0  0  0
    0.9969   -3.0723    3.3194 C   0  0  0  0  0  0  0  0  0  0  0  0
   -0.0616   -3.6684    3.1311 O   0  0  0  0  0  0  0  0  0  0  0  0
    0.7890   -0.6517    3.9404 C   0  0  0  0  0  0  0  0  0  0  0  0
   -0.3760   -1.9093    1.5201 H   0  0  0  0  0  0  0  0  0  0  0  0
    2.2957   -1.4943    2.6436 H   0  0  0  0  0  0  0  0  0  0  0  0
   -0.2729   -0.7790    4.1805 H   0  0  0  0  0  0  0  0  0  0  0  0
    1.3562   -0.7899    4.8667 H   0  0  0  0  0  0  0  0  0  0  0  0
    0.9321    0.3807    3.6037 H   0  0  0  0  0  0  0  0  0  0  0  0
    2.0915   -3.5951    3.9936 N   0  0  0  0  0  0  0  0  0  0  0  0
    2.0982   -4.9254    4.5561 C   0  0  0  0  0  0  0  0  0  0  0  0
    2.9419   -3.0447    4.0684 H   0  0  0  0  0  0  0  0  0  0  0  0
    1.7729   -4.8817    5.6060 H   0  0  0  0  0  0  0  0  0  0  0  0
    1.4111   -5.5679    3.9859 H   0  0  0  0  0  0  0  0  0  0  0  0
    3.1157   -5.3400    4.5045 H   0  0  0  0  0  0  0  0  0  0  0  0
  1  3  1  0  0  0  0
  1  7  1  0  0  0  0
  1  2  2  0  0  0  0
 28 29  1  0  0  0  0
 29 37  1  0  0  0  0
 29 30  2  0  0  0  0
 18 19  1  0  0  0  0
 19 27  1  0  0  0  0
 19 20  2  0  0  0  0
  8  9  1  0  0  0  0
  9 17  1  0  0  0  0
  9 10  2  0  0  0  0
 28 31  1  0  0  0  0
 18 21  1  0  0  0  0
  8 11  1  0  0  0  0
 37 38  1  0  0  0  0
 27 28  1  0  0  0  0
 17 18  1  0  0  0  0
  7  8  1  0  0  0  0
  3  4  1  0  0  0  0
  3  5  1  0  0  0  0
  3  6  1  0  0  0  0
 31 34  1  0  0  0  0
 31 35  1  0  0  0  0
 31 36  1  0  0  0  0
 21 24  1  0  0  0  0
 21 25  1  0  0  0  0
 21 26  1  0  0  0  0
 11 14  1  0  0  0  0
 11 15  1  0  0  0  0
 11 16  1  0  0  0  0
 38 40  1  0  0  0  0
 38 41  1  0  0  0  0
 38 42  1  0  0  0  0
 28 33  1  0  0  0  0
 18 23  1  0  0  0  0
  8 13  1  0  0  0  0
 37 39  1  0  0  0  0
  7 12  1  0  0  0  0
 27 32  1  0  0  0  0
 17 22  1  0  0  0  0
M  END
$$$$

  -OEChem-05262214473D

 42 41  0     1  0  0  0  0  0999 V2000
   -5.7851   -0.9580    0.6237 C   0  0  0  0  0  0  0  0  0  0  0  0
   -6.2213    0.1296    0.2652 O   0  0  0  0  0  0  0  0  0  0  0  0
   -6.7088   -2.1270    0.7168 C   0  0  0  0  0  0  0  0  0  0  0  0
   -7.1713   -2.2193    1.7126 H   0  0  0  0  0  0  0  0  0  0  0  0
   -7.5511   -2.0547    0.0101 H   0  0  0  0  0  0  0  0  0  0  0  0
   -6.2485   -3.1083    0.5191 H   0  0  0  0  0  0  0  0  0  0  0  0
   -4.4733   -1.2411    0.9668 N   0  0  0  0  0  0  0  0  0  0  0  0
   -3.4203   -0.2603    0.9449 C   0  0  2  0  0  0  0  0  0  0  0  0
   -2.1242   -0.9699    0.5759 C   0  0  0  0  0  0  0  0  0  0  0  0
   -1.8694   -2.1225    0.9189 O   0  0  0  0  0  0  0  0  0  0  0  0
   -3.2916    0.4435    2.2868 C   0  0  0  0  0  0  0  0  0  0  0  0
   -4.2421   -2.1920    1.2489 H   0  0  0  0  0  0  0  0  0  0  0  0
   -3.6772    0.4622    0.1625 H   0  0  0  0  0  0  0  0  0  0  0  0
   -3.0345   -0.2644    3.0832 H   0  0  0  0  0  0  0  0  0  0  0  0
   -2.5093    1.2092    2.2599 H   0  0  0  0  0  0  0  0  0  0  0  0
   -4.2338    0.9283    2.5645 H   0  0  0  0  0  0  0  0  0  0  0  0
   -1.2626   -0.1515   -0.1463 N   0  0  0  0  0  0  0  0  0  0  0  0
    0.0431   -0.5785   -0.5755 C   0  0  2  0  0  0  0  0  0  0  0  0
    0.9618   -0.5754    0.6392 C   0  0  0  0  0  0  0  0  0  0  0  0
    1.8385    0.2682    0.8151 O   0  0  0  0  0  0  0  0  0  0  0  0
    0.5880    0.3242   -1.6714 C   0  0  0  0  0  0  0  0  0  0  0  0
   -1.5766    0.7776   -0.4197 H   0  0  0  0  0  0  0  0  0  0  0  0
   -0.0659   -1.6025   -0.9491 H   0  0  0  0  0  0  0  0  0  0  0  0
    0.7041    1.3545   -1.3157 H   0  0  0  0  0  0  0  0  0  0  0  0
    1.5689   -0.0187   -2.0167 H   0  0  0  0  0  0  0  0  0  0  0  0
   -0.0888    0.3441   -2.5324 H   0  0  0  0  0  0  0  0  0  0  0  0
    0.7186   -1.6510    1.4864 N   0  0  0  0  0  0  0  0  0  0  0  0
    1.4842   -1.8924    2.6810 C   0  0  2  0  0  0  0  0  0  0  0  0
    1.5568   -3.3982    2.8968 C   0  0  0  0  0  0  0  0  0  0  0  0
    0.6411   -4.1632    2.6010 O   0  0  0  0  0  0  0  0  0  0  0  0
    0.8643   -1.2000    3.8848 C   0  0  0  0  0  0  0  0  0  0  0  0
   -0.0568   -2.2775    1.2796 H   0  0  0  0  0  0  0  0  0  0  0  0
    2.4903   -1.5004    2.4964 H   0  0  0  0  0  0  0  0  0  0  0  0
   -0.1442   -1.5797    4.0852 H   0  0  0  0  0  0  0  0  0  0  0  0
    1.4634   -1.3609    4.7871 H   0  0  0  0  0  0  0  0  0  0  0  0
    0.7856   -0.1206    3.7157 H   0  0  0  0  0  0  0  0  0  0  0  0
    2.7470   -3.7825    3.4983 N   0  0  0  0  0  0  0  0  0  0  0  0
    3.0376   -5.1538    3.8462 C   0  0  0  0  0  0  0  0  0  0  0  0
    3.4666   -3.0868    3.6716 H   0  0  0  0  0  0  0  0  0  0  0  0
    2.7282   -5.3426    4.8848 H   0  0  0  0  0  0  0  0  0  0  0  0
    2.4884   -5.8273    3.1719 H   0  0  0  0  0  0  0  0  0  0  0  0
    4.1178   -5.3362    3.7467 H   0  0  0  0  0  0  0  0  0  0  0  0
  1  3  1  0  0  0  0
  1  7  1  0  0  0  0
  1  2  2  0  0  0  0
 28 29  1  0  0  0  0
 29 37  1  0  0  0  0
 29 30  2  0  0  0  0
 18 19  1  0  0  0  0
 19 27  1  0  0  0  0
 19 20  2  0  0  0  0
  8  9  1  0  0  0  0
  9 17  1  0  0  0  0
  9 10  2  0  0  0  0
 28 31  1  0  0  0  0
 18 21  1  0  0  0  0
  8 11  1  0  0  0  0
 37 38  1  0  0  0  0
 27 28  1  0  0  0  0
 17 18  1  0  0  0  0
  7  8  1  0  0  0  0
  3  4  1  0  0  0  0
  3  5  1  0  0  0  0
  3  6  1  0  0  0  0
 31 34  1  0  0  0  0
 31 35  1  0  0  0  0
 31 36  1  0  0  0  0
 21 24  1  0  0  0  0
 21 25  1  0  0  0  0
 21 26  1  0  0  0  0
 11 14  1  0  0  0  0
 11 15  1  0  0  0  0
 11 16  1  0  0  0  0
 38 40  1  0  0  0  0
 38 41  1  0  0  0  0
 38 42  1  0  0  0  0
 28 33  1  0  0  0  0
 18 23  1  0  0  0  0
  8 13  1  0  0  0  0
 37 39  1  0  0  0  0
  7 12  1  0  0  0  0
 27 32  1  0  0  0  0
 17 22  1  0  0  0  0
M  END
$$$$

  -OEChem-05262214473D

 42 41  0     1  0  0  0  0  0999 V2000
   -5.7851   -0.9580    0.6237 C   0  0  0  0  0  0  0  0  0  0  0  0
   -6.2213    0.1296    0.2652 O   0  0  0  0  0  0  0  0  0  0  0  0
   -6.7088   -2.1270    0.7168 C   0  0  0  0  0  0  0  0  0  0  0  0
   -7.1713   -2.2193    1.7126 H   0  0  0  0  0  0  0  0  0  0  0  0
   -7.5511   -2.0547    0.0101 H   0  0  0  0  0  0  0  0  0  0  0  0
   -6.2485   -3.1083    0.5191 H   0  0  0  0  0  0  0  0  0  0  0  0
   -4.4733   -1.2411    0.9668 N   0  0  0  0  0  0  0  0  0  0  0  0
   -3.4203   -0.2603    0.9449 C   0  0  2  0  0  0  0  0  0  0  0  0
   -2.1242   -0.9699    0.5759 C   0  0  0  0  0  0  0  0  0  0  0  0
   -1.8694   -2.1225    0.9189 O   0  0  0  0  0  0  0  0  0  0  0  0
   -3.2916    0.4435    2.2868 C   0  0  0  0  0  0  0  0  0  0  0  0
   -4.2421   -2.1920    1.2489 H   0  0  0  0  0  0  0  0  0  0  0  0
   -3.6772    0.4622    0.1625 H   0  0  0  0  0  0  0  0  0  0  0  0
   -3.0345   -0.2644    3.0832 H   0  0  0  0  0  0  0  0  0  0  0  0
   -2.5093    1.2092    2.2599 H   0  0  0  0  0  0  0  0  0  0  0  0
   -4.2338    0.9283    2.5645 H   0  0  0  0  0  0  0  0  0  0  0  0
   -1.2626   -0.1515   -0.1463 N   0  0  0  0  0  0  0  0  0  0  0  0
    0.0431   -0.5785   -0.5755 C   0  0  2  0  0  0  0  0  0  0  0  0
    0.9618   -0.5754    0.6392 C   0  0  0  0  0  0  0  0  0  0  0  0
    1.6483    0.3930    0.9585 O   0  0  0  0  0  0  0  0  0  0  0  0
    0.5880    0.3242   -1.6714 C   0  0  0  0  0  0  0  0  0  0  0  0
   -1.5766    0.7776   -0.4197 H   0  0  0  0  0  0  0  0  0  0  0  0
   -0.0659   -1.6025   -0.9491 H   0  0  0  0  0  0  0  0  0  0  0  0
    0.7041    1.3545   -1.3157 H   0  0  0  0  0  0  0  0  0  0  0  0
    1.5689   -0.0187   -2.0167 H   0  0  0  0  0  0  0  0  0  0  0  0
   -0.0888    0.3441   -2.5324 H   0  0  0  0  0  0  0  0  0  0  0  0
    0.9602   -1.7967    1.3040 N   0  0  0  0  0  0  0  0  0  0  0  0
    1.7792   -2.0583    2.4583 C   0  0  2  0  0  0  0  0  0  0  0  0
    2.1647   -3.5315    2.4374 C   0  0  0  0  0  0  0  0  0  0  0  0
    1.4218   -4.4133    2.0112 O   0  0  0  0  0  0  0  0  0  0  0  0
    1.0503   -1.7053    3.7454 C   0  0  0  0  0  0  0  0  0  0  0  0
    0.3274   -2.5298    0.9897 H   0  0  0  0  0  0  0  0  0  0  0  0
    2.6795   -1.4431    2.3532 H   0  0  0  0  0  0  0  0  0  0  0  0
    0.1453   -2.3116    3.8681 H   0  0  0  0  0  0  0  0  0  0  0  0
    1.6849   -1.8779    4.6209 H   0  0  0  0  0  0  0  0  0  0  0  0
    0.7476   -0.6526    3.7458 H   0  0  0  0  0  0  0  0  0  0  0  0
    3.4186   -3.7508    2.9903 N   0  0  0  0  0  0  0  0  0  0  0  0
    3.9918   -5.0697    3.1244 C   0  0  0  0  0  0  0  0  0  0  0  0
    3.9820   -2.9573    3.2816 H   0  0  0  0  0  0  0  0  0  0  0  0
    3.7456   -5.4780    4.1156 H   0  0  0  0  0  0  0  0  0  0  0  0
    3.5821   -5.7284    2.3445 H   0  0  0  0  0  0  0  0  0  0  0  0
    5.0845   -5.0073    3.0147 H   0  0  0  0  0  0  0  0  0  0  0  0
  1  3  1  0  0  0  0
  1  7  1  0  0  0  0
  1  2  2  0  0  0  0
 28 29  1  0  0  0  0
 29 37  1  0  0  0  0
 29 30  2  0  0  0  0
 18 19  1  0  0  0  0
 19 27  1  0  0  0  0
 19 20  2  0  0  0  0
  8  9  1  0  0  0  0
  9 17  1  0  0  0  0
  9 10  2  0  0  0  0
 28 31  1  0  0  0  0
 18 21  1  0  0  0  0
  8 11  1  0  0  0  0
 37 38  1  0  0  0  0
 27 28  1  0  0  0  0
 17 18  1  0  0  0  0
  7  8  1  0  0  0  0
  3  4  1  0  0  0  0
  3  5  1  0  0  0  0
  3  6  1  0  0  0  0
 31 34  1  0  0  0  0
 31 35  1  0  0  0  0
 31 36  1  0  0  0  0
 21 24  1  0  0  0  0
 21 25  1  0  0  0  0
 21 26  1  0  0  0  0
 11 14  1  0  0  0  0
 11 15  1  0  0  0  0
 11 16  1  0  0  0  0
 38 40  1  0  0  0  0
 38 41  1  0  0  0  0
 38 42  1  0  0  0  0
 28 33  1  0  0  0  0
 18 23  1  0  0  0  0
  8 13  1  0  0  0  0
 37 39  1  0  0  0  0
  7 12  1  0  0  0  0
 27 32  1  0  0  0  0
 17 22  1  0  0  0  0
M  END
$$$$

  -OEChem-05262214473D

 42 41  0     1  0  0  0  0  0999 V2000
   -5.7851   -0.9580    0.6237 C   0  0  0  0  0  0  0  0  0  0  0  0
   -6.2213    0.1296    0.2652 O   0  0  0  0  0  0  0  0  0  0  0  0
   -6.7088   -2.1270    0.7168 C   0  0  0  0  0  0  0  0  0  0  0  0
   -7.1713   -2.2193    1.7126 H   0  0  0  0  0  0  0  0  0  0  0  0
   -7.5511   -2.0547    0.0101 H   0  0  0  0  0  0  0  0  0  0  0  0
   -6.2485   -3.1083    0.5191 H   0  0  0  0  0  0  0  0  0  0  0  0
   -4.4733   -1.2411    0.9668 N   0  0  0  0  0  0  0  0  0  0  0  0
   -3.4203   -0.2603    0.9449 C   0  0  2  0  0  0  0  0  0  0  0  0
   -2.1242   -0.9699    0.5759 C   0  0  0  0  0  0  0  0  0  0  0  0
   -1.8694   -2.1225    0.9189 O   0  0  0  0  0  0  0  0  0  0  0  0
   -3.2916    0.4435    2.2868 C   0  0  0  0  0  0  0  0  0  0  0  0
   -4.2421   -2.1920    1.2489 H   0  0  0  0  0  0  0  0  0  0  0  0
   -3.6772    0.4622    0.1625 H   0  0  0  0  0  0  0  0  0  0  0  0
   -3.0345   -0.2644    3.0832 H   0  0  0  0  0  0  0  0  0  0  0  0
   -2.5093    1.2092    2.2599 H   0  0  0  0  0  0  0  0  0  0  0  0
   -4.2338    0.9283    2.5645 H   0  0  0  0  0  0  0  0  0  0  0  0
   -1.2626   -0.1515   -0.1463 N   0  0  0  0  0  0  0  0  0  0  0  0
    0.0431   -0.5785   -0.5755 C   0  0  2  0  0  0  0  0  0  0  0  0
    0.9618   -0.5754    0.6392 C   0  0  0  0  0  0  0  0  0  0  0  0
    1.4390    0.4519    1.1167 O   0  0  0  0  0  0  0  0  0  0  0  0
    0.5880    0.3242   -1.6714 C   0  0  0  0  0  0  0  0  0  0  0  0
   -1.5766    0.7776   -0.4197 H   0  0  0  0  0  0  0  0  0  0  0  0
   -0.0659   -1.6025   -0.9491 H   0  0  0  0  0  0  0  0  0  0  0  0
    0.7041    1.3545   -1.3157 H   0  0  0  0  0  0  0  0  0  0  0  0
    1.5689   -0.0187   -2.0167 H   0  0  0  0  0  0  0  0  0  0  0  0
   -0.0888    0.3441   -2.5324 H   0  0  0  0  0  0  0  0  0  0  0  0
    1.2236   -1.8592    1.1050 N   0  0  0  0  0  0  0  0  0  0  0  0
    2.0983   -2.1228    2.2171 C   0  0  2  0  0  0  0  0  0  0  0  0
    2.7792   -3.4630    1.9725 C   0  0  0  0  0  0  0  0  0  0  0  0
    2.2271   -4.4017    1.4021 O   0  0  0  0  0  0  0  0  0  0  0  0
    1.3341   -2.1333    3.5319 C   0  0  0  0  0  0  0  0  0  0  0  0
    0.7504   -2.6488    0.6701 H   0  0  0  0  0  0  0  0  0  0  0  0
    2.8504   -1.3263    2.2237 H   0  0  0  0  0  0  0  0  0  0  0  0
    0.5760   -2.9249    3.5439 H   0  0  0  0  0  0  0  0  0  0  0  0
    2.0054   -2.3056    4.3796 H   0  0  0  0  0  0  0  0  0  0  0  0
    0.8207   -1.1791    3.6918 H   0  0  0  0  0  0  0  0  0  0  0  0
    4.0605   -3.5022    2.5043 N   0  0  0  0  0  0  0  0  0  0  0  0
    4.8957   -4.6787    2.4398 C   0  0  0  0  0  0  0  0  0  0  0  0
    4.4528   -2.6649    2.9247 H   0  0  0  0  0  0  0  0  0  0  0  0
    4.7559   -5.2787    3.3511 H   0  0  0  0  0  0  0  0  0  0  0  0
    4.6176   -5.2779    1.5602 H   0  0  0  0  0  0  0  0  0  0  0  0
    5.9501   -4.3758    2.3586 H   0  0  0  0  0  0  0  0  0  0  0  0
  1  3  1  0  0  0  0
  1  7  1  0  0  0  0
  1  2  2  0  0  0  0
 28 29  1  0  0  0  0
 29 37  1  0  0  0  0
 29 30  2  0  0  0  0
 18 19  1  0  0  0  0
 19 27  1  0  0  0  0
 19 20  2  0  0  0  0
  8  9  1  0  0  0  0
  9 17  1  0  0  0  0
  9 10  2  0  0  0  0
 28 31  1  0  0  0  0
 18 21  1  0  0  0  0
  8 11  1  0  0  0  0
 37 38  1  0  0  0  0
 27 28  1  0  0  0  0
 17 18  1  0  0  0  0
  7  8  1  0  0  0  0
  3  4  1  0  0  0  0
  3  5  1  0  0  0  0
  3  6  1  0  0  0  0
 31 34  1  0  0  0  0
 31 35  1  0  0  0  0
 31 36  1  0  0  0  0
 21 24  1  0  0  0  0
 21 25  1  0  0  0  0
 21 26  1  0  0  0  0
 11 14  1  0  0  0  0
 11 15  1  0  0  0  0
 11 16  1  0  0  0  0
 38 40  1  0  0  0  0
 38 41  1  0  0  0  0
 38 42  1  0  0  0  0
 28 33  1  0  0  0  0
 18 23  1  0  0  0  0
  8 13  1  0  0  0  0
 37 39  1  0  0  0  0
  7 12  1  0  0  0  0
 27 32  1  0  0  0  0
 17 22  1  0  0  0  0
M  END
$$$$

  -OEChem-05262214473D

 42 41  0     1  0  0  0  0  0999 V2000
   -5.7851   -0.9580    0.6237 C   0  0  0  0  0  0  0  0  0  0  0  0
   -6.2213    0.1296    0.2652 O   0  0  0  0  0  0  0  0  0  0  0  0
   -6.7088   -2.1270    0.7168 C   0  0  0  0  0  0  0  0  0  0  0  0
   -7.1713   -2.2193    1.7126 H   0  0  0  0  0  0  0  0  0  0  0  0
   -7.5511   -2.0547    0.0101 H   0  0  0  0  0  0  0  0  0  0  0  0
   -6.2485   -3.1083    0.5191 H   0  0  0  0  0  0  0  0  0  0  0  0
   -4.4733   -1.2411    0.9668 N   0  0  0  0  0  0  0  0  0  0  0  0
   -3.4203   -0.2603    0.9449 C   0  0  2  0  0  0  0  0  0  0  0  0
   -2.1242   -0.9699    0.5759 C   0  0  0  0  0  0  0  0  0  0  0  0
   -1.8694   -2.1225    0.9189 O   0  0  0  0  0  0  0  0  0  0  0  0
   -3.2916    0.4435    2.2868 C   0  0  0  0  0  0  0  0  0  0  0  0
   -4.2421   -2.1920    1.2489 H   0  0  0  0  0  0  0  0  0  0  0  0
   -3.6772    0.4622    0.1625 H   0  0  0  0  0  0  0  0  0  0  0  0
   -3.0345   -0.2644    3.0832 H   0  0  0  0  0  0  0  0  0  0  0  0
   -2.5093    1.2092    2.2599 H   0  0  0  0  0  0  0  0  0  0  0  0
   -4.2338    0.9283    2.5645 H   0  0  0  0  0  0  0  0  0  0  0  0
   -1.2626   -0.1515   -0.1463 N   0  0  0  0  0  0  0  0  0  0  0  0
    0.0431   -0.5785   -0.5755 C   0  0  2  0  0  0  0  0  0  0  0  0
    0.9618   -0.5754    0.6392 C   0  0  0  0  0  0  0  0  0  0  0  0
    1.2247    0.4409    1.2788 O   0  0  0  0  0  0  0  0  0  0  0  0
    0.5880    0.3242   -1.6714 C   0  0  0  0  0  0  0  0  0  0  0  0
   -1.5766    0.7776   -0.4197 H   0  0  0  0  0  0  0  0  0  0  0  0
   -0.0659   -1.6025   -0.9491 H   0  0  0  0  0  0  0  0  0  0  0  0
    0.7041    1.3545   -1.3157 H   0  0  0  0  0  0  0  0  0  0  0  0
    1.5689   -0.0187   -2.0167 H   0  0  0  0  0  0  0  0  0  0  0  0
   -0.0888    0.3441   -2.5324 H   0  0  0  0  0  0  0  0  0  0  0  0
    1.4908   -1.8341    0.9029 N   0  0  0  0  0  0  0  0  0  0  0  0
    2.4198   -2.0817    1.9739 C   0  0  2  0  0  0  0  0  0  0  0  0
    3.3583   -3.1975    1.5339 C   0  0  0  0  0  0  0  0  0  0  0  0
    3.0023   -4.1291    0.8152 O   0  0  0  0  0  0  0  0  0  0  0  0
    1.6965   -2.4548    3.2586 C   0  0  0  0  0  0  0  0  0  0  0  0
    1.1835   -2.6266    0.3425 H   0  0  0  0  0  0  0  0  0  0  0  0
    2.9912   -1.1581    2.1167 H   0  0  0  0  0  0  0  0  0  0  0  0
    1.1184   -3.3778    3.1348 H   0  0  0  0  0  0  0  0  0  0  0  0
    2.4032   -2.6150    4.0796 H   0  0  0  0  0  0  0  0  0  0  0  0
    1.0000   -1.6640    3.5575 H   0  0  0  0  0  0  0  0  0  0  0  0
    4.6290   -3.0537    2.0732 N   0  0  0  0  0  0  0  0  0  0  0  0
    5.6878   -4.0077    1.8390 C   0  0  0  0  0  0  0  0  0  0  0  0
    4.8471   -2.2296    2.6255 H   0  0  0  0  0  0  0  0  0  0  0  0
    5.6903   -4.7583    2.6431 H   0  0  0  0  0  0  0  0  0  0  0  0
    5.5245   -4.5066    0.8724 H   0  0  0  0  0  0  0  0  0  0  0  0
    6.6554   -3.4846    1.8229 H   0  0  0  0  0  0  0  0  0  0  0  0
  1  3  1  0  0  0  0
  1  7  1  0  0  0  0
  1  2  2  0  0  0  0
 28 29  1  0  0  0  0
 29 37  1  0  0  0  0
 29 30  2  0  0  0  0
 18 19  1  0  0  0  0
 19 27  1  0  0  0  0
 19 20  2  0  0  0  0
  8  9  1  0  0  0  0
  9 17  1  0  0  0  0
  9 10  2  0  0  0  0
 28 31  1  0  0  0  0
 18 21  1  0  0  0  0
  8 11  1  0  0  0  0
 37 38  1  0  0  0  0
 27 28  1  0  0  0  0
 17 18  1  0  0  0  0
  7  8  1  0  0  0  0
  3  4  1  0  0  0  0
  3  5  1  0  0  0  0
  3  6  1  0  0  0  0
 31 34  1  0  0  0  0
 31 35  1  0  0  0  0
 31 36  1  0  0  0  0
 21 24  1  0  0  0  0
 21 25  1  0  0  0  0
 21 26  1  0  0  0  0
 11 14  1  0  0  0  0
 11 15  1  0  0  0  0
 11 16  1  0  0  0  0
 38 40  1  0  0  0  0
 38 41  1  0  0  0  0
 38 42  1  0  0  0  0
 28 33  1  0  0  0  0
 18 23  1  0  0  0  0
  8 13  1  0  0  0  0
 37 39  1  0  0  0  0
  7 12  1  0  0  0  0
 27 32  1  0  0  0  0
 17 22  1  0  0  0  0
M  END
$$$$

  -OEChem-05262214473D

 42 41  0     1  0  0  0  0  0999 V2000
   -5.7851   -0.9580    0.6237 C   0  0  0  0  0  0  0  0  0  0  0  0
   -6.2213    0.1296    0.2652 O   0  0  0  0  0  0  0  0  0  0  0  0
   -6.7088   -2.1270    0.7168 C   0  0  0  0  0  0  0  0  0  0  0  0
   -7.1713   -2.2193    1.7126 H   0  0  0  0  0  0  0  0  0  0  0  0
   -7.5511   -2.0547    0.0101 H   0  0  0  0  0  0  0  0  0  0  0  0
   -6.2485   -3.1083    0.5191 H   0  0  0  0  0  0  0  0  0  0  0  0
   -4.4733   -1.2411    0.9668 N   0  0  0  0  0  0  0  0  0  0  0  0
   -3.4203   -0.2603    0.9449 C   0  0  2  0  0  0  0  0  0  0  0  0
   -2.1242   -0.9699    0.5759 C   0  0  0  0  0  0  0  0  0  0  0  0
   -1.8694   -2.1225    0.9189 O   0  0  0  0  0  0  0  0  0  0  0  0
   -3.2916    0.4435    2.2868 C   0  0  0  0  0  0  0  0  0  0  0  0
   -4.2421   -2.1920    1.2489 H   0  0  0  0  0  0  0  0  0  0  0  0
   -3.6772    0.4622    0.1625 H   0  0  0  0  0  0  0  0  0  0  0  0
   -3.0345   -0.2644    3.0832 H   0  0  0  0  0  0  0  0  0  0  0  0
   -2.5093    1.2092    2.2599 H   0  0  0  0  0  0  0  0  0  0  0  0
   -4.2338    0.9283    2.5645 H   0  0  0  0  0  0  0  0  0  0  0  0
   -1.2626   -0.1515   -0.1463 N   0  0  0  0  0  0  0  0  0  0  0  0
    0.0431   -0.5785   -0.5755 C   0  0  2  0  0  0  0  0  0  0  0  0
    0.9618   -0.5754    0.6392 C   0  0  0  0  0  0  0  0  0  0  0  0
    1.0201    0.3608    1.4337 O   0  0  0  0  0  0  0  0  0  0  0  0
    0.5880    0.3242   -1.6714 C   0  0  0  0  0  0  0  0  0  0  0  0
   -1.5766    0.7776   -0.4197 H   0  0  0  0  0  0  0  0  0  0  0  0
   -0.0659   -1.6025   -0.9491 H   0  0  0  0  0  0  0  0  0  0  0  0
    0.7041    1.3545   -1.3157 H   0  0  0  0  0  0  0  0  0  0  0  0
    1.5689   -0.0187   -2.0167 H   0  0  0  0  0  0  0  0  0  0  0  0
   -0.0888    0.3441   -2.5324 H   0  0  0  0  0  0  0  0  0  0  0  0
    1.7436   -1.7231    0.7115 N   0  0  0  0  0  0  0  0  0  0  0  0
    2.7216   -1.9376    1.7453 C   0  0  2  0  0  0  0  0  0  0  0  0
    3.8627   -2.7529    1.1513 C   0  0  0  0  0  0  0  0  0  0  0  0
    3.6945   -3.6141    0.2904 O   0  0  0  0  0  0  0  0  0  0  0  0
    2.1128   -2.6478    2.9443 C   0  0  0  0  0  0  0  0  0  0  0  0
    1.5970   -2.4647    0.0294 H   0  0  0  0  0  0  0  0  0  0  0  0
    3.0925   -0.9498    2.0396 H   0  0  0  0  0  0  0  0  0  0  0  0
    1.7357   -3.6395    2.6687 H   0  0  0  0  0  0  0  0  0  0  0  0
    2.8511   -2.7848    3.7413 H   0  0  0  0  0  0  0  0  0  0  0  0
    1.2732   -2.0745    3.3519 H   0  0  0  0  0  0  0  0  0  0  0  0
    5.0852   -2.4359    1.7266 N   0  0  0  0  0  0  0  0  0  0  0  0
    6.3141   -3.1021    1.3631 C   0  0  0  0  0  0  0  0  0  0  0  0
    5.1379   -1.6810    2.4041 H   0  0  0  0  0  0  0  0  0  0  0  0
    6.4850   -3.9522    2.0400 H   0  0  0  0  0  0  0  0  0  0  0  0
    6.2409   -3.4669    0.3279 H   0  0  0  0  0  0  0  0  0  0  0  0
    7.1524   -2.3947    1.4442 H   0  0  0  0  0  0  0  0  0  0  0  0
  1  3  1  0  0  0  0
  1  7  1  0  0  0  0
  1  2  2  0  0  0  0
 28 29  1  0  0  0  0
 29 37  1  0  0  0  0
 29 30  2  0  0  0  0
 18 19  1  0  0  0  0
 19 27  1  0  0  0  0
 19 20  2  0  0  0  0
  8  9  1  0  0  0  0
  9 17  1  0  0  0  0
  9 10  2  0  0  0  0
 28 31  1  0  0  0  0
 18 21  1  0  0  0  0
  8 11  1  0  0  0  0
 37 38  1  0  0  0  0
 27 28  1  0  0  0  0
 17 18  1  0  0  0  0
  7  8  1  0  0  0  0
  3  4  1  0  0  0  0
  3  5  1  0  0  0  0
  3  6  1  0  0  0  0
 31 34  1  0  0  0  0
 31 35  1  0  0  0  0
 31 36  1  0  0  0  0
 21 24  1  0  0  0  0
 21 25  1  0  0  0  0
 21 26  1  0  0  0  0
 11 14  1  0  0  0  0
 11 15  1  0  0  0  0
 11 16  1  0  0  0  0
 38 40  1  0  0  0  0
 38 41  1  0  0  0  0
 38 42  1  0  0  0  0
 28 33  1  0  0  0  0
 18 23  1  0  0  0  0
  8 13  1  0  0  0  0
 37 39  1  0  0  0  0
  7 12  1  0  0  0  0
 27 32  1  0  0  0  0
 17 22  1  0  0  0  0
M  END
$$$$

  -OEChem-05262214473D

 42 41  0     1  0  0  0  0  0999 V2000
   -5.7851   -0.9580    0.6237 C   0  0  0  0  0  0  0  0  0  0  0  0
   -6.2213    0.1296    0.2652 O   0  0  0  0  0  0  0  0  0  0  0  0
   -6.7088   -2.1270    0.7168 C   0  0  0  0  0  0  0  0  0  0  0  0
   -7.1713   -2.2193    1.7126 H   0  0  0  0  0  0  0  0  0  0  0  0
   -7.5511   -2.0547    0.0101 H   0  0  0  0  0  0  0  0  0  0  0  0
   -6.2485   -3.1083    0.5191 H   0  0  0  0  0  0  0  0  0  0  0  0
   -4.4733   -1.2411    0.9668 N   0  0  0  0  0  0  0  0  0  0  0  0
   -3.4203   -0.2603    0.9449 C   0  0  2  0  0  0  0  0  0  0  0  0
   -2.1242   -0.9699    0.5759 C   0  0  0  0  0  0  0  0  0  0  0  0
   -1.8694   -2.1225    0.9189 O   0  0  0  0  0  0  0  0  0  0  0  0
   -3.2916    0.4435    2.2868 C   0  0  0  0  0  0  0  0  0  0  0  0
   -4.2421   -2.1920    1.2489 H   0  0  0  0  0  0  0  0  0  0  0  0
   -3.6772    0.4622    0.1625 H   0  0  0  0  0  0  0  0  0  0  0  0
   -3.0345   -0.2644    3.0832 H   0  0  0  0  0  0  0  0  0  0  0  0
   -2.5093    1.2092    2.2599 H   0  0  0  0  0  0  0  0  0  0  0  0
   -4.2338    0.9283    2.5645 H   0  0  0  0  0  0  0  0  0  0  0  0
   -1.2626   -0.1515   -0.1463 N   0  0  0  0  0  0  0  0  0  0  0  0
    0.0431   -0.5785   -0.5755 C   0  0  2  0  0  0  0  0  0  0  0  0
    0.9618   -0.5754    0.6392 C   0  0  0  0  0  0  0  0  0  0  0  0
    0.8390    0.2169    1.5710 O   0  0  0  0  0  0  0  0  0  0  0  0
    0.5880    0.3242   -1.6714 C   0  0  0  0  0  0  0  0  0  0  0  0
   -1.5766    0.7776   -0.4197 H   0  0  0  0  0  0  0  0  0  0  0  0
   -0.0659   -1.6025   -0.9491 H   0  0  0  0  0  0  0  0  0  0  0  0
    0.7041    1.3545   -1.3157 H   0  0  0  0  0  0  0  0  0  0  0  0
    1.5689   -0.0187   -2.0167 H   0  0  0  0  0  0  0  0  0  0  0  0
   -0.0888    0.3441   -2.5324 H   0  0  0  0  0  0  0  0  0  0  0  0
    1.9647   -1.5339    0.5437 N   0  0  0  0  0  0  0  0  0  0  0  0
    2.9834   -1.7005    1.5467 C   0  0  2  0  0  0  0  0  0  0  0  0
    4.2579   -2.1597    0.8509 C   0  0  0  0  0  0  0  0  0  0  0  0
    4.2565   -2.8919   -0.1365 O   0  0  0  0  0  0  0  0  0  0  0  0
    2.5546   -2.6993    2.6103 C   0  0  0  0  0  0  0  0  0  0  0  0
    1.9629   -2.1739   -0.2481 H   0  0  0  0  0  0  0  0  0  0  0  0
    3.1473   -0.7156    1.9976 H   0  0  0  0  0  0  0  0  0  0  0  0
    2.3856   -3.6920    2.1773 H   0  0  0  0  0  0  0  0  0  0  0  0
    3.3186   -2.8035    3.3878 H   0  0  0  0  0  0  0  0  0  0  0  0
    1.6218   -2.3824    3.0891 H   0  0  0  0  0  0  0  0  0  0  0  0
    5.3983   -1.6908    1.4880 N   0  0  0  0  0  0  0  0  0  0  0  0
    6.7318   -2.0239    1.0445 C   0  0  0  0  0  0  0  0  0  0  0  0
    5.3054   -1.0565    2.2759 H   0  0  0  0  0  0  0  0  0  0  0  0
    7.0859   -2.9153    1.5829 H   0  0  0  0  0  0  0  0  0  0  0  0
    6.7180   -2.2298   -0.0360 H   0  0  0  0  0  0  0  0  0  0  0  0
    7.4074   -1.1801    1.2483 H   0  0  0  0  0  0  0  0  0  0  0  0
  1  3  1  0  0  0  0
  1  7  1  0  0  0  0
  1  2  2  0  0  0  0
 28 29  1  0  0  0  0
 29 37  1  0  0  0  0
 29 30  2  0  0  0  0
 18 19  1  0  0  0  0
 19 27  1  0  0  0  0
 19 20  2  0  0  0  0
  8  9  1  0  0  0  0
  9 17  1  0  0  0  0
  9 10  2  0  0  0  0
 28 31  1  0  0  0  0
 18 21  1  0  0  0  0
  8 11  1  0  0  0  0
 37 38  1  0  0  0  0
 27 28  1  0  0  0  0
 17 18  1  0  0  0  0
  7  8  1  0  0  0  0
  3  4  1  0  0  0  0
  3  5  1  0  0  0  0
  3  6  1  0  0  0  0
 31 34  1  0  0  0  0
 31 35  1  0  0  0  0
 31 36  1  0  0  0  0
 21 24  1  0  0  0  0
 21 25  1  0  0  0  0
 21 26  1  0  0  0  0
 11 14  1  0  0  0  0
 11 15  1  0  0  0  0
 11 16  1  0  0  0  0
 38 40  1  0  0  0  0
 38 41  1  0  0  0  0
 38 42  1  0  0  0  0
 28 33  1  0  0  0  0
 18 23  1  0  0  0  0
  8 13  1  0  0  0  0
 37 39  1  0  0  0  0
  7 12  1  0  0  0  0
 27 32  1  0  0  0  0
 17 22  1  0  0  0  0
M  END
$$$$

  -OEChem-05262214473D

 42 41  0     1  0  0  0  0  0999 V2000
   -5.7851   -0.9580    0.6237 C   0  0  0  0  0  0  0  0  0  0  0  0
   -6.2213    0.1296    0.2652 O   0  0  0  0  0  0  0  0  0  0  0  0
   -6.7088   -2.1270    0.7168 C   0  0  0  0  0  0  0  0  0  0  0  0
   -7.1713   -2.2193    1.7126 H   0  0  0  0  0  0  0  0  0  0  0  0
   -7.5511   -2.0547    0.0101 H   0  0  0  0  0  0  0  0  0  0  0  0
   -6.2485   -3.1083    0.5191 H   0  0  0  0  0  0  0  0  0  0  0  0
   -4.4733   -1.2411    0.9668 N   0  0  0  0  0  0  0  0  0  0  0  0
   -3.4203   -0.2603    0.9449 C   0  0  2  0  0  0  0  0  0  0  0  0
   -2.1242   -0.9699    0.5759 C   0  0  0  0  0  0  0  0  0  0  0  0
   -1.8694   -2.1225    0.9189 O   0  0  0  0  0  0  0  0  0  0  0  0
   -3.2916    0.4435    2.2868 C   0  0  0  0  0  0  0  0  0  0  0  0
   -4.2421   -2.1920    1.2489 H   0  0  0  0  0  0  0  0  0  0  0  0
   -3.6772    0.4622    0.1625 H   0  0  0  0  0  0  0  0  0  0  0  0
   -3.0345   -0.2644    3.0832 H   0  0  0  0  0  0  0  0  0  0  0  0
   -2.5093    1.2092    2.2599 H   0  0  0  0  0  0  0  0  0  0  0  0
   -4.2338    0.9283    2.5645 H   0  0  0  0  0  0  0  0  0  0  0  0
   -1.2626   -0.1515   -0.1463 N   0  0  0  0  0  0  0  0  0  0  0  0
    0.0431   -0.5785   -0.5755 C   0  0  2  0  0  0  0  0  0  0  0  0
    0.9618   -0.5754    0.6392 C   0  0  0  0  0  0  0  0  0  0  0  0
    0.6939    0.0192    1.6813 O   0  0  0  0  0  0  0  0  0  0  0  0
    0.5880    0.3242   -1.6714 C   0  0  0  0  0  0  0  0  0  0  0  0
   -1.5766    0.7776   -0.4197 H   0  0  0  0  0  0  0  0  0  0  0  0
   -0.0659   -1.6025   -0.9491 H   0  0  0  0  0  0  0  0  0  0  0  0
    0.7041    1.3545   -1.3157 H   0  0  0  0  0  0  0  0  0  0  0  0
    1.5689   -0.0187   -2.0167 H   0  0  0  0  0  0  0  0  0  0  0  0
   -0.0888    0.3441   -2.5324 H   0  0  0  0  0  0  0  0  0  0  0  0
    2.1392   -1.2792    0.4111 N   0  0  0  0  0  0  0  0  0  0  0  0
    3.1871   -1.3863    1.3918 C   0  0  2  0  0  0  0  0  0  0  0  0
    4.5170   -1.4582    0.6531 C   0  0  0  0  0  0  0  0  0  0  0  0
    4.6501   -2.0117   -0.4364 O   0  0  0  0  0  0  0  0  0  0  0  0
    2.9918   -2.6057    2.2794 C   0  0  0  0  0  0  0  0  0  0  0  0
    2.2561   -1.7743   -0.4708 H   0  0  0  0  0  0  0  0  0  0  0  0
    3.1518   -0.4716    1.9935 H   0  0  0  0  0  0  0  0  0  0  0  0
    3.0240   -3.5319    1.6941 H   0  0  0  0  0  0  0  0  0  0  0  0
    3.7739   -2.6699    3.0431 H   0  0  0  0  0  0  0  0  0  0  0  0
    2.0219   -2.5669    2.7870 H   0  0  0  0  0  0  0  0  0  0  0  0
    5.5467   -0.8693    1.3736 N   0  0  0  0  0  0  0  0  0  0  0  0
    6.9125   -0.8464    0.9048 C   0  0  0  0  0  0  0  0  0  0  0  0
    5.3383   -0.3987    2.2494 H   0  0  0  0  0  0  0  0  0  0  0  0
    7.4521   -1.7184    1.3030 H   0  0  0  0  0  0  0  0  0  0  0  0
    6.9233   -0.8795   -0.1947 H   0  0  0  0  0  0  0  0  0  0  0  0
    7.4028    0.0763    1.2486 H   0  0  0  0  0  0  0  0  0  0  0  0
  1  3  1  0  0  0  0
  1  7  1  0  0  0  0
  1  2  2  0  0  0  0
 28 29  1  0  0  0  0
 29 37  1  0  0  0  0
 29 30  2  0  0  0  0
 18 19  1  0  0  0  0
 19 27  1  0  0  0  0
 19 20  2  0  0  0  0
  8  9  1  0  0  0  0
  9 17  1  0  0  0  0
  9 10  2  0  0  0  0
 28 31  1  0  0  0  0
 18 21  1  0  0  0  0
  8 11  1  0  0  0  0
 37 38  1  0  0  0  0
 27 28  1  0  0  0  0
 17 18  1  0  0  0  0
  7  8  1  0  0  0  0
  3  4  1  0  0  0  0
  3  5  1  0  0  0  0
  3  6  1  0  0  0  0
 31 34  1  0  0  0  0
 31 35  1  0  0  0  0
 31 36  1  0  0  0  0
 21 24  1  0  0  0  0
 21 25  1  0  0  0  0
 21 26  1  0  0  0  0
 11 14  1  0  0  0  0
 11 15  1  0  0  0  0
 11 16  1  0  0  0  0
 38 40  1  0  0  0  0
 38 41  1  0  0  0  0
 38 42  1  0  0  0  0
 28 33  1  0  0  0  0
 18 23  1  0  0  0  0
  8 13  1  0  0  0  0
 37 39  1  0  0  0  0
  7 12  1  0  0  0  0
 27 32  1  0  0  0  0
 17 22  1  0  0  0  0
M  END
$$$$

  -OEChem-05262214473D

 42 41  0     1  0  0  0  0  0999 V2000
   -5.7851   -0.9580    0.6237 C   0  0  0  0  0  0  0  0  0  0  0  0
   -6.2213    0.1296    0.2652 O   0  0  0  0  0  0  0  0  0  0  0  0
   -6.7088   -2.1270    0.7168 C   0  0  0  0  0  0  0  0  0  0  0  0
   -7.1713   -2.2193    1.7126 H   0  0  0  0  0  0  0  0  0  0  0  0
   -7.5511   -2.0547    0.0101 H   0  0  0  0  0  0  0  0  0  0  0  0
   -6.2485   -3.1083    0.5191 H   0  0  0  0  0  0  0  0  0  0  0  0
   -4.4733   -1.2411    0.9668 N   0  0  0  0  0  0  0  0  0  0  0  0
   -3.4203   -0.2603    0.9449 C   0  0  2  0  0  0  0  0  0  0  0  0
   -2.1242   -0.9699    0.5759 C   0  0  0  0  0  0  0  0  0  0  0  0
   -1.8694   -2.1225    0.9189 O   0  0  0  0  0  0  0  0  0  0  0  0
   -3.2916    0.4435    2.2868 C   0  0  0  0  0  0  0  0  0  0  0  0
   -4.2421   -2.1920    1.2489 H   0  0  0  0  0  0  0  0  0  0  0  0
   -3.6772    0.4622    0.1625 H   0  0  0  0  0  0  0  0  0  0  0  0
   -3.0345   -0.2644    3.0832 H   0  0  0  0  0  0  0  0  0  0  0  0
   -2.5093    1.2092    2.2599 H   0  0  0  0  0  0  0  0  0  0  0  0
   -4.2338    0.9283    2.5645 H   0  0  0  0  0  0  0  0  0  0  0  0
   -1.2626   -0.1515   -0.1463 N   0  0  0  0  0  0  0  0  0  0  0  0
    0.0431   -0.5785   -0.5755 C   0  0  2  0  0  0  0  0  0  0  0  0
    0.8520   -0.9364    0.6643 C   0  0  0  0  0  0  0  0  0  0  0  0
    0.4152   -0.8185    1.8073 O   0  0  0  0  0  0  0  0  0  0  0  0
    0.7404    0.5032   -1.3859 C   0  0  0  0  0  0  0  0  0  0  0  0
   -1.5766    0.7776   -0.4197 H   0  0  0  0  0  0  0  0  0  0  0  0
   -0.1028   -1.4746   -1.1884 H   0  0  0  0  0  0  0  0  0  0  0  0
    0.8952    1.4090   -0.7884 H   0  0  0  0  0  0  0  0  0  0  0  0
    1.7217    0.1663   -1.7357 H   0  0  0  0  0  0  0  0  0  0  0  0
    0.1430    0.7804   -2.2611 H   0  0  0  0  0  0  0  0  0  0  0  0
    2.1374   -1.3634    0.3496 N   0  0  0  0  0  0  0  0  0  0  0  0
    3.1089   -1.7186    1.3503 C   0  0  2  0  0  0  0  0  0  0  0  0
    4.4881   -1.3539    0.8173 C   0  0  0  0  0  0  0  0  0  0  0  0
    4.7896   -1.4310   -0.3719 O   0  0  0  0  0  0  0  0  0  0  0  0
    3.0330   -3.1980    1.6946 C   0  0  0  0  0  0  0  0  0  0  0  0
    2.3977   -1.4680   -0.6291 H   0  0  0  0  0  0  0  0  0  0  0  0
    2.8869   -1.1129    2.2357 H   0  0  0  0  0  0  0  0  0  0  0  0
    3.2525   -3.8208    0.8198 H   0  0  0  0  0  0  0  0  0  0  0  0
    3.7531   -3.4608    2.4765 H   0  0  0  0  0  0  0  0  0  0  0  0
    2.0317   -3.4646    2.0497 H   0  0  0  0  0  0  0  0  0  0  0  0
    5.3557   -0.9732    1.8315 N   0  0  0  0  0  0  0  0  0  0  0  0
    6.7346   -0.6205    1.5864 C   0  0  0  0  0  0  0  0  0  0  0  0
    5.0095   -0.8989    2.7835 H   0  0  0  0  0  0  0  0  0  0  0  0
    7.3681   -1.5122    1.7035 H   0  0  0  0  0  0  0  0  0  0  0  0
    6.8368   -0.2301    0.5631 H   0  0  0  0  0  0  0  0  0  0  0  0
    7.0494    0.1498    2.3059 H   0  0  0  0  0  0  0  0  0  0  0  0
  1  3  1  0  0  0  0
  1  7  1  0  0  0  0
  1  2  2  0  0  0  0
 28 29  1  0  0  0  0
 29 37  1  0  0  0  0
 29 30  2  0  0  0  0
 18 19  1  0  0  0  0
 19 27  1  0  0  0  0
 19 20  2  0  0  0  0
  8  9  1  0  0  0  0
  9 17  1  0  0  0  0
  9 10  2  0  0  0  0
 28 31  1  0  0  0  0
 18 21  1  0  0  0  0
  8 11  1  0  0  0  0
 37 38  1  0  0  0  0
 27 28  1  0  0  0  0
 17 18  1  0  0  0  0
  7  8  1  0  0  0  0
  3  4  1  0  0  0  0
  3  5  1  0  0  0  0
  3  6  1  0  0  0  0
 31 34  1  0  0  0  0
 31 35  1  0  0  0  0
 31 36  1  0  0  0  0
 21 24  1  0  0  0  0
 21 25  1  0  0  0  0
 21 26  1  0  0  0  0
 11 14  1  0  0  0  0
 11 15  1  0  0  0  0
 11 16  1  0  0  0  0
 38 40  1  0  0  0  0
 38 41  1  0  0  0  0
 38 42  1  0  0  0  0
 28 33  1  0  0  0  0
 18 23  1  0  0  0  0
  8 13  1  0  0  0  0
 37 39  1  0  0  0  0
  7 12  1  0  0  0  0
 27 32  1  0  0  0  0
 17 22  1  0  0  0  0
M  END
$$$$

  -OEChem-05262214473D

 42 41  0     1  0  0  0  0  0999 V2000
   -5.7851   -0.9580    0.6237 C   0  0  0  0  0  0  0  0  0  0  0  0
   -6.2213    0.1296    0.2652 O   0  0  0  0  0  0  0  0  0  0  0  0
   -6.7088   -2.1270    0.7168 C   0  0  0  0  0  0  0  0  0  0  0  0
   -7.1713   -2.2193    1.7126 H   0  0  0  0  0  0  0  0  0  0  0  0
   -7.5511   -2.0547    0.0101 H   0  0  0  0  0  0  0  0  0  0  0  0
   -6.2485   -3.1083    0.5191 H   0  0  0  0  0  0  0  0  0  0  0  0
   -4.4733   -1.2411    0.9668 N   0  0  0  0  0  0  0  0  0  0  0  0
   -3.4203   -0.2603    0.9449 C   0  0  2  0  0  0  0  0  0  0  0  0
   -2.1242   -0.9699    0.5759 C   0  0  0  0  0  0  0  0  0  0  0  0
   -1.8694   -2.1225    0.9189 O   0  0  0  0  0  0  0  0  0  0  0  0
   -3.2916    0.4435    2.2868 C   0  0  0  0  0  0  0  0  0  0  0  0
   -4.2421   -2.1920    1.2489 H   0  0  0  0  0  0  0  0  0  0  0  0
   -3.6772    0.4622    0.1625 H   0  0  0  0  0  0  0  0  0  0  0  0
   -3.0345   -0.2644    3.0832 H   0  0  0  0  0  0  0  0  0  0  0  0
   -2.5093    1.2092    2.2599 H   0  0  0  0  0  0  0  0  0  0  0  0
   -4.2338    0.9283    2.5645 H   0  0  0  0  0  0  0  0  0  0  0  0
   -1.2626   -0.1515   -0.1463 N   0  0  0  0  0  0  0  0  0  0  0  0
    0.0431   -0.5785   -0.5755 C   0  0  2  0  0  0  0  0  0  0  0  0
    0.8520   -0.9364    0.6643 C   0  0  0  0  0  0  0  0  0  0  0  0
    0.3479   -1.0770    1.7766 O   0  0  0  0  0  0  0  0  0  0  0  0
    0.7404    0.5032   -1.3859 C   0  0  0  0  0  0  0  0  0  0  0  0
   -1.5766    0.7776   -0.4197 H   0  0  0  0  0  0  0  0  0  0  0  0
   -0.1028   -1.4746   -1.1884 H   0  0  0  0  0  0  0  0  0  0  0  0
    0.8952    1.4090   -0.7884 H   0  0  0  0  0  0  0  0  0  0  0  0
    1.7217    0.1663   -1.7357 H   0  0  0  0  0  0  0  0  0  0  0  0
    0.1430    0.7804   -2.2611 H   0  0  0  0  0  0  0  0  0  0  0  0
    2.2123   -1.0390    0.3944 N   0  0  0  0  0  0  0  0  0  0  0  0
    3.1902   -1.3263    1.4105 C   0  0  2  0  0  0  0  0  0  0  0  0
    4.4819   -0.6118    1.0356 C   0  0  0  0  0  0  0  0  0  0  0  0
    4.8474   -0.4530   -0.1273 O   0  0  0  0  0  0  0  0  0  0  0  0
    3.4183   -2.8232    1.5514 C   0  0  0  0  0  0  0  0  0  0  0  0
    2.5338   -0.9456   -0.5671 H   0  0  0  0  0  0  0  0  0  0  0  0
    2.8027   -0.9133    2.3482 H   0  0  0  0  0  0  0  0  0  0  0  0
    3.8066   -3.2548    0.6217 H   0  0  0  0  0  0  0  0  0  0  0  0
    4.1413   -3.0415    2.3443 H   0  0  0  0  0  0  0  0  0  0  0  0
    2.4824   -3.3391    1.7918 H   0  0  0  0  0  0  0  0  0  0  0  0
    5.1996   -0.2103    2.1535 N   0  0  0  0  0  0  0  0  0  0  0  0
    6.4803    0.4510    2.0616 C   0  0  0  0  0  0  0  0  0  0  0  0
    4.8021   -0.3470    3.0782 H   0  0  0  0  0  0  0  0  0  0  0  0
    7.2846   -0.2980    2.1085 H   0  0  0  0  0  0  0  0  0  0  0  0
    6.5433    0.9972    1.1089 H   0  0  0  0  0  0  0  0  0  0  0  0
    6.5887    1.1579    2.8974 H   0  0  0  0  0  0  0  0  0  0  0  0
  1  3  1  0  0  0  0
  1  7  1  0  0  0  0
  1  2  2  0  0  0  0
 28 29  1  0  0  0  0
 29 37  1  0  0  0  0
 29 30  2  0  0  0  0
 18 19  1  0  0  0  0
 19 27  1  0  0  0  0
 19 20  2  0  0  0  0
  8  9  1  0  0  0  0
  9 17  1  0  0  0  0
  9 10  2  0  0  0  0
 28 31  1  0  0  0  0
 18 21  1  0  0  0  0
  8 11  1  0  0  0  0
 37 38  1  0  0  0  0
 27 28  1  0  0  0  0
 17 18  1  0  0  0  0
  7  8  1  0  0  0  0
  3  4  1  0  0  0  0
  3  5  1  0  0  0  0
  3  6  1  0  0  0  0
 31 34  1  0  0  0  0
 31 35  1  0  0  0  0
 31 36  1  0  0  0  0
 21 24  1  0  0  0  0
 21 25  1  0  0  0  0
 21 26  1  0  0  0  0
 11 14  1  0  0  0  0
 11 15  1  0  0  0  0
 11 16  1  0  0  0  0
 38 40  1  0  0  0  0
 38 41  1  0  0  0  0
 38 42  1  0  0  0  0
 28 33  1  0  0  0  0
 18 23  1  0  0  0  0
  8 13  1  0  0  0  0
 37 39  1  0  0  0  0
  7 12  1  0  0  0  0
 27 32  1  0  0  0  0
 17 22  1  0  0  0  0
M  END
$$$$

  -OEChem-05262214473D

 42 41  0     1  0  0  0  0  0999 V2000
   -5.7851   -0.9580    0.6237 C   0  0  0  0  0  0  0  0  0  0  0  0
   -6.2213    0.1296    0.2652 O   0  0  0  0  0  0  0  0  0  0  0  0
   -6.7088   -2.1270    0.7168 C   0  0  0  0  0  0  0  0  0  0  0  0
   -7.1713   -2.2193    1.7126 H   0  0  0  0  0  0  0  0  0  0  0  0
   -7.5511   -2.0547    0.0101 H   0  0  0  0  0  0  0  0  0  0  0  0
   -6.2485   -3.1083    0.5191 H   0  0  0  0  0  0  0  0  0  0  0  0
   -4.4733   -1.2411    0.9668 N   0  0  0  0  0  0  0  0  0  0  0  0
   -3.4203   -0.2603    0.9449 C   0  0  2  0  0  0  0  0  0  0  0  0
   -2.1242   -0.9699    0.5759 C   0  0  0  0  0  0  0  0  0  0  0  0
   -1.8694   -2.1225    0.9189 O   0  0  0  0  0  0  0  0  0  0  0  0
   -3.2916    0.4435    2.2868 C   0  0  0  0  0  0  0  0  0  0  0  0
   -4.2421   -2.1920    1.2489 H   0  0  0  0  0  0  0  0  0  0  0  0
   -3.6772    0.4622    0.1625 H   0  0  0  0  0  0  0  0  0  0  0  0
   -3.0345   -0.2644    3.0832 H   0  0  0  0  0  0  0  0  0  0  0  0
   -2.5093    1.2092    2.2599 H   0  0  0  0  0  0  0  0  0  0  0  0
   -4.2338    0.9283    2.5645 H   0  0  0  0  0  0  0  0  0  0  0  0
   -1.2626   -0.1515   -0.1463 N   0  0  0  0  0  0  0  0  0  0  0  0
    0.0431   -0.5785   -0.5755 C   0  0  2  0  0  0  0  0  0  0  0  0
    0.8520   -0.9364    0.6643 C   0  0  0  0  0  0  0  0  0  0  0  0
    0.3392   -1.3367    1.7073 O   0  0  0  0  0  0  0  0  0  0  0  0
    0.7404    0.5032   -1.3859 C   0  0  0  0  0  0  0  0  0  0  0  0
   -1.5766    0.7776   -0.4197 H   0  0  0  0  0  0  0  0  0  0  0  0
   -0.1028   -1.4746   -1.1884 H   0  0  0  0  0  0  0  0  0  0  0  0
    0.8952    1.4090   -0.7884 H   0  0  0  0  0  0  0  0  0  0  0  0
    1.7217    0.1663   -1.7357 H   0  0  0  0  0  0  0  0  0  0  0  0
    0.1430    0.7804   -2.2611 H   0  0  0  0  0  0  0  0  0  0  0  0
    2.2135   -0.7160    0.4869 N   0  0  0  0  0  0  0  0  0  0  0  0
    3.1824   -0.9385    1.5276 C   0  0  2  0  0  0  0  0  0  0  0  0
    4.3062    0.0737    1.3481 C   0  0  0  0  0  0  0  0  0  0  0  0
    4.6822    0.4702    0.2470 O   0  0  0  0  0  0  0  0  0  0  0  0
    3.7202   -2.3604    1.4881 C   0  0  0  0  0  0  0  0  0  0  0  0
    2.5514   -0.4208   -0.4271 H   0  0  0  0  0  0  0  0  0  0  0  0
    2.6724   -0.7538    2.4793 H   0  0  0  0  0  0  0  0  0  0  0  0
    4.2346   -2.5640    0.5418 H   0  0  0  0  0  0  0  0  0  0  0  0
    4.4359   -2.5366    2.2979 H   0  0  0  0  0  0  0  0  0  0  0  0
    2.9070   -3.0875    1.5874 H   0  0  0  0  0  0  0  0  0  0  0  0
    4.8686    0.4494    2.5600 N   0  0  0  0  0  0  0  0  0  0  0  0
    5.9800    1.3671    2.6525 C   0  0  0  0  0  0  0  0  0  0  0  0
    4.4675    0.1020    3.4261 H   0  0  0  0  0  0  0  0  0  0  0  0
    6.9234    0.8015    2.6615 H   0  0  0  0  0  0  0  0  0  0  0  0
    5.9679    2.0459    1.7870 H   0  0  0  0  0  0  0  0  0  0  0  0
    5.8952    1.9532    3.5794 H   0  0  0  0  0  0  0  0  0  0  0  0
  1  3  1  0  0  0  0
  1  7  1  0  0  0  0
  1  2  2  0  0  0  0
 28 29  1  0  0  0  0
 29 37  1  0  0  0  0
 29 30  2  0  0  0  0
 18 19  1  0  0  0  0
 19 27  1  0  0  0  0
 19 20  2  0  0  0  0
  8  9  1  0  0  0  0
  9 17  1  0  0  0  0
  9 10  2  0  0  0  0
 28 31  1  0  0  0  0
 18 21  1  0  0  0  0
  8 11  1  0  0  0  0
 37 38  1  0  0  0  0
 27 28  1  0  0  0  0
 17 18  1  0  0  0  0
  7  8  1  0  0  0  0
  3  4  1  0  0  0  0
  3  5  1  0  0  0  0
  3  6  1  0  0  0  0
 31 34  1  0  0  0  0
 31 35  1  0  0  0  0
 31 36  1  0  0  0  0
 21 24  1  0  0  0  0
 21 25  1  0  0  0  0
 21 26  1  0  0  0  0
 11 14  1  0  0  0  0
 11 15  1  0  0  0  0
 11 16  1  0  0  0  0
 38 40  1  0  0  0  0
 38 41  1  0  0  0  0
 38 42  1  0  0  0  0
 28 33  1  0  0  0  0
 18 23  1  0  0  0  0
  8 13  1  0  0  0  0
 37 39  1  0  0  0  0
  7 12  1  0  0  0  0
 27 32  1  0  0  0  0
 17 22  1  0  0  0  0
M  END
$$$$

  -OEChem-05262214473D

 42 41  0     1  0  0  0  0  0999 V2000
   -5.7851   -0.9580    0.6237 C   0  0  0  0  0  0  0  0  0  0  0  0
   -6.2213    0.1296    0.2652 O   0  0  0  0  0  0  0  0  0  0  0  0
   -6.7088   -2.1270    0.7168 C   0  0  0  0  0  0  0  0  0  0  0  0
   -7.1713   -2.2193    1.7126 H   0  0  0  0  0  0  0  0  0  0  0  0
   -7.5511   -2.0547    0.0101 H   0  0  0  0  0  0  0  0  0  0  0  0
   -6.2485   -3.1083    0.5191 H   0  0  0  0  0  0  0  0  0  0  0  0
   -4.4733   -1.2411    0.9668 N   0  0  0  0  0  0  0  0  0  0  0  0
   -3.4203   -0.2603    0.9449 C   0  0  2  0  0  0  0  0  0  0  0  0
   -2.1242   -0.9699    0.5759 C   0  0  0  0  0  0  0  0  0  0  0  0
   -1.8694   -2.1225    0.9189 O   0  0  0  0  0  0  0  0  0  0  0  0
   -3.2916    0.4435    2.2868 C   0  0  0  0  0  0  0  0  0  0  0  0
   -4.2421   -2.1920    1.2489 H   0  0  0  0  0  0  0  0  0  0  0  0
   -3.6772    0.4622    0.1625 H   0  0  0  0  0  0  0  0  0  0  0  0
   -3.0345   -0.2644    3.0832 H   0  0  0  0  0  0  0  0  0  0  0  0
   -2.5093    1.2092    2.2599 H   0  0  0  0  0  0  0  0  0  0  0  0
   -4.2338    0.9283    2.5645 H   0  0  0  0  0  0  0  0  0  0  0  0
   -1.2626   -0.1515   -0.1463 N   0  0  0  0  0  0  0  0  0  0  0  0
    0.0431   -0.5785   -0.5755 C   0  0  2  0  0  0  0  0  0  0  0  0
    0.8520   -0.9364    0.6643 C   0  0  0  0  0  0  0  0  0  0  0  0
    0.3897   -1.5798    1.6041 O   0  0  0  0  0  0  0  0  0  0  0  0
    0.7404    0.5032   -1.3859 C   0  0  0  0  0  0  0  0  0  0  0  0
   -1.5766    0.7776   -0.4197 H   0  0  0  0  0  0  0  0  0  0  0  0
   -0.1028   -1.4746   -1.1884 H   0  0  0  0  0  0  0  0  0  0  0  0
    0.8952    1.4090   -0.7884 H   0  0  0  0  0  0  0  0  0  0  0  0
    1.7217    0.1663   -1.7357 H   0  0  0  0  0  0  0  0  0  0  0  0
    0.1430    0.7804   -2.2611 H   0  0  0  0  0  0  0  0  0  0  0  0
    2.1410   -0.4165    0.6206 N   0  0  0  0  0  0  0  0  0  0  0  0
    3.0861   -0.5816    1.6934 C   0  0  2  0  0  0  0  0  0  0  0  0
    3.9731    0.6558    1.7335 C   0  0  0  0  0  0  0  0  0  0  0  0
    4.3054    1.2758    0.7254 O   0  0  0  0  0  0  0  0  0  0  0  0
    3.9182   -1.8411    1.5088 C   0  0  0  0  0  0  0  0  0  0  0  0
    2.4493    0.0706   -0.2186 H   0  0  0  0  0  0  0  0  0  0  0  0
    2.5050   -0.6452    2.6199 H   0  0  0  0  0  0  0  0  0  0  0  0
    4.5074   -1.7957    0.5857 H   0  0  0  0  0  0  0  0  0  0  0  0
    4.6169   -1.9804    2.3404 H   0  0  0  0  0  0  0  0  0  0  0  0
    3.2766   -2.7269    1.4504 H   0  0  0  0  0  0  0  0  0  0  0  0
    4.3851    0.9611    3.0231 N   0  0  0  0  0  0  0  0  0  0  0  0
    5.2678    2.0653    3.3187 C   0  0  0  0  0  0  0  0  0  0  0  0
    4.0286    0.4173    3.8035 H   0  0  0  0  0  0  0  0  0  0  0  0
    6.3093    1.7114    3.3248 H   0  0  0  0  0  0  0  0  0  0  0  0
    5.1500    2.8444    2.5511 H   0  0  0  0  0  0  0  0  0  0  0  0
    5.0164    2.4816    4.3053 H   0  0  0  0  0  0  0  0  0  0  0  0
  1  3  1  0  0  0  0
  1  7  1  0  0  0  0
  1  2  2  0  0  0  0
 28 29  1  0  0  0  0
 29 37  1  0  0  0  0
 29 30  2  0  0  0  0
 18 19  1  0  0  0  0
 19 27  1  0  0  0  0
 19 20  2  0  0  0  0
  8  9  1  0  0  0  0
  9 17  1  0  0  0  0
  9 10  2  0  0  0  0
 28 31  1  0  0  0  0
 18 21  1  0  0  0  0
  8 11  1  0  0  0  0
 37 38  1  0  0  0  0
 27 28  1  0  0  0  0
 17 18  1  0  0  0  0
  7  8  1  0  0  0  0
  3  4  1  0  0  0  0
  3  5  1  0  0  0  0
  3  6  1  0  0  0  0
 31 34  1  0  0  0  0
 31 35  1  0  0  0  0
 31 36  1  0  0  0  0
 21 24  1  0  0  0  0
 21 25  1  0  0  0  0
 21 26  1  0  0  0  0
 11 14  1  0  0  0  0
 11 15  1  0  0  0  0
 11 16  1  0  0  0  0
 38 40  1  0  0  0  0
 38 41  1  0  0  0  0
 38 42  1  0  0  0  0
 28 33  1  0  0  0  0
 18 23  1  0  0  0  0
  8 13  1  0  0  0  0
 37 39  1  0  0  0  0
  7 12  1  0  0  0  0
 27 32  1  0  0  0  0
 17 22  1  0  0  0  0
M  END
$$$$

  -OEChem-05262214473D

 42 41  0     1  0  0  0  0  0999 V2000
   -5.7851   -0.9580    0.6237 C   0  0  0  0  0  0  0  0  0  0  0  0
   -6.2213    0.1296    0.2652 O   0  0  0  0  0  0  0  0  0  0  0  0
   -6.7088   -2.1270    0.7168 C   0  0  0  0  0  0  0  0  0  0  0  0
   -7.1713   -2.2193    1.7126 H   0  0  0  0  0  0  0  0  0  0  0  0
   -7.5511   -2.0547    0.0101 H   0  0  0  0  0  0  0  0  0  0  0  0
   -6.2485   -3.1083    0.5191 H   0  0  0  0  0  0  0  0  0  0  0  0
   -4.4733   -1.2411    0.9668 N   0  0  0  0  0  0  0  0  0  0  0  0
   -3.4203   -0.2603    0.9449 C   0  0  2  0  0  0  0  0  0  0  0  0
   -2.1242   -0.9699    0.5759 C   0  0  0  0  0  0  0  0  0  0  0  0
   -1.8694   -2.1225    0.9189 O   0  0  0  0  0  0  0  0  0  0  0  0
   -3.2916    0.4435    2.2868 C   0  0  0  0  0  0  0  0  0  0  0  0
   -4.2421   -2.1920    1.2489 H   0  0  0  0  0  0  0  0  0  0  0  0
   -3.6772    0.4622    0.1625 H   0  0  0  0  0  0  0  0  0  0  0  0
   -3.0345   -0.2644    3.0832 H   0  0  0  0  0  0  0  0  0  0  0  0
   -2.5093    1.2092    2.2599 H   0  0  0  0  0  0  0  0  0  0  0  0
   -4.2338    0.9283    2.5645 H   0  0  0  0  0  0  0  0  0  0  0  0
   -1.2626   -0.1515   -0.1463 N   0  0  0  0  0  0  0  0  0  0  0  0
    0.0431   -0.5785   -0.5755 C   0  0  2  0  0  0  0  0  0  0  0  0
    0.8520   -0.9364    0.6643 C   0  0  0  0  0  0  0  0  0  0  0  0
    0.4960   -1.7899    1.4742 O   0  0  0  0  0  0  0  0  0  0  0  0
    0.7404    0.5032   -1.3859 C   0  0  0  0  0  0  0  0  0  0  0  0
   -1.5766    0.7776   -0.4197 H   0  0  0  0  0  0  0  0  0  0  0  0
   -0.1028   -1.4746   -1.1884 H   0  0  0  0  0  0  0  0  0  0  0  0
    0.8952    1.4090   -0.7884 H   0  0  0  0  0  0  0  0  0  0  0  0
    1.7217    0.1663   -1.7357 H   0  0  0  0  0  0  0  0  0  0  0  0
    0.1430    0.7804   -2.2611 H   0  0  0  0  0  0  0  0  0  0  0  0
    1.9997   -0.1608    0.7866 N   0  0  0  0  0  0  0  0  0  0  0  0
    2.9077   -0.2800    1.8969 C   0  0  2  0  0  0  0  0  0  0  0  0
    3.5052    1.0949    2.1655 C   0  0  0  0  0  0  0  0  0  0  0  0
    3.7426    1.9087    1.2752 O   0  0  0  0  0  0  0  0  0  0  0  0
    3.9987   -1.3005    1.6123 C   0  0  0  0  0  0  0  0  0  0  0  0
    2.2345    0.4951    0.0441 H   0  0  0  0  0  0  0  0  0  0  0  0
    2.3118   -0.5949    2.7604 H   0  0  0  0  0  0  0  0  0  0  0  0
    4.6063   -1.0021    0.7502 H   0  0  0  0  0  0  0  0  0  0  0  0
    4.6719   -1.4109    2.4688 H   0  0  0  0  0  0  0  0  0  0  0  0
    3.5659   -2.2819    1.3901 H   0  0  0  0  0  0  0  0  0  0  0  0
    3.7821    1.2898    3.5114 N   0  0  0  0  0  0  0  0  0  0  0  0
    4.3923    2.4981    4.0149 C   0  0  0  0  0  0  0  0  0  0  0  0
    3.5152    0.5775    4.1846 H   0  0  0  0  0  0  0  0  0  0  0  0
    5.4841    2.3697    4.0533 H   0  0  0  0  0  0  0  0  0  0  0  0
    4.1452    3.3383    3.3492 H   0  0  0  0  0  0  0  0  0  0  0  0
    4.0120    2.7071    5.0257 H   0  0  0  0  0  0  0  0  0  0  0  0
  1  3  1  0  0  0  0
  1  7  1  0  0  0  0
  1  2  2  0  0  0  0
 28 29  1  0  0  0  0
 29 37  1  0  0  0  0
 29 30  2  0  0  0  0
 18 19  1  0  0  0  0
 19 27  1  0  0  0  0
 19 20  2  0  0  0  0
  8  9  1  0  0  0  0
  9 17  1  0  0  0  0
  9 10  2  0  0  0  0
 28 31  1  0  0  0  0
 18 21  1  0  0  0  0
  8 11  1  0  0  0  0
 37 38  1  0  0  0  0
 27 28  1  0  0  0  0
 17 18  1  0  0  0  0
  7  8  1  0  0  0  0
  3  4  1  0  0  0  0
  3  5  1  0  0  0  0
  3  6  1  0  0  0  0
 31 34  1  0  0  0  0
 31 35  1  0  0  0  0
 31 36  1  0  0  0  0
 21 24  1  0  0  0  0
 21 25  1  0  0  0  0
 21 26  1  0  0  0  0
 11 14  1  0  0  0  0
 11 15  1  0  0  0  0
 11 16  1  0  0  0  0
 38 40  1  0  0  0  0
 38 41  1  0  0  0  0
 38 42  1  0  0  0  0
 28 33  1  0  0  0  0
 18 23  1  0  0  0  0
  8 13  1  0  0  0  0
 37 39  1  0  0  0  0
  7 12  1  0  0  0  0
 27 32  1  0  0  0  0
 17 22  1  0  0  0  0
M  END
$$$$

  -OEChem-05262214473D

 42 41  0     1  0  0  0  0  0999 V2000
   -5.7851   -0.9580    0.6237 C   0  0  0  0  0  0  0  0  0  0  0  0
   -6.2213    0.1296    0.2652 O   0  0  0  0  0  0  0  0  0  0  0  0
   -6.7088   -2.1270    0.7168 C   0  0  0  0  0  0  0  0  0  0  0  0
   -7.1713   -2.2193    1.7126 H   0  0  0  0  0  0  0  0  0  0  0  0
   -7.5511   -2.0547    0.0101 H   0  0  0  0  0  0  0  0  0  0  0  0
   -6.2485   -3.1083    0.5191 H   0  0  0  0  0  0  0  0  0  0  0  0
   -4.4733   -1.2411    0.9668 N   0  0  0  0  0  0  0  0  0  0  0  0
   -3.4203   -0.2603    0.9449 C   0  0  2  0  0  0  0  0  0  0  0  0
   -2.1242   -0.9699    0.5759 C   0  0  0  0  0  0  0  0  0  0  0  0
   -1.8694   -2.1225    0.9189 O   0  0  0  0  0  0  0  0  0  0  0  0
   -3.2916    0.4435    2.2868 C   0  0  0  0  0  0  0  0  0  0  0  0
   -4.2421   -2.1920    1.2489 H   0  0  0  0  0  0  0  0  0  0  0  0
   -3.6772    0.4622    0.1625 H   0  0  0  0  0  0  0  0  0  0  0  0
   -3.0345   -0.2644    3.0832 H   0  0  0  0  0  0  0  0  0  0  0  0
   -2.5093    1.2092    2.2599 H   0  0  0  0  0  0  0  0  0  0  0  0
   -4.2338    0.9283    2.5645 H   0  0  0  0  0  0  0  0  0  0  0  0
   -1.2626   -0.1515   -0.1463 N   0  0  0  0  0  0  0  0  0  0  0  0
    0.0431   -0.5785   -0.5755 C   0  0  2  0  0  0  0  0  0  0  0  0
    0.8520   -0.9364    0.6643 C   0  0  0  0  0  0  0  0  0  0  0  0
    0.6508   -1.9525    1.3262 O   0  0  0  0  0  0  0  0  0  0  0  0
    0.7404    0.5032   -1.3859 C   0  0  0  0  0  0  0  0  0  0  0  0
   -1.5766    0.7776   -0.4197 H   0  0  0  0  0  0  0  0  0  0  0  0
   -0.1028   -1.4746   -1.1884 H   0  0  0  0  0  0  0  0  0  0  0  0
    0.8952    1.4090   -0.7884 H   0  0  0  0  0  0  0  0  0  0  0  0
    1.7217    0.1663   -1.7357 H   0  0  0  0  0  0  0  0  0  0  0  0
    0.1430    0.7804   -2.2611 H   0  0  0  0  0  0  0  0  0  0  0  0
    1.7993    0.0336    0.9735 N   0  0  0  0  0  0  0  0  0  0  0  0
    2.6595   -0.0542    2.1240 C   0  0  2  0  0  0  0  0  0  0  0  0
    2.9345    1.3612    2.6146 C   0  0  0  0  0  0  0  0  0  0  0  0
    3.0322    2.3259    1.8591 O   0  0  0  0  0  0  0  0  0  0  0  0
    3.9563   -0.7757    1.7915 C   0  0  0  0  0  0  0  0  0  0  0  0
    1.9215    0.8237    0.3431 H   0  0  0  0  0  0  0  0  0  0  0  0
    2.1061   -0.6063    2.8913 H   0  0  0  0  0  0  0  0  0  0  0  0
    4.5246   -0.2373    1.0243 H   0  0  0  0  0  0  0  0  0  0  0  0
    4.5973   -0.8668    2.6746 H   0  0  0  0  0  0  0  0  0  0  0  0
    3.7553   -1.7828    1.4106 H   0  0  0  0  0  0  0  0  0  0  0  0
    3.1006    1.4131    3.9915 N   0  0  0  0  0  0  0  0  0  0  0  0
    3.4130    2.6360    4.6936 C   0  0  0  0  0  0  0  0  0  0  0  0
    2.9624    0.5718    4.5436 H   0  0  0  0  0  0  0  0  0  0  0  0
    4.5039    2.7316    4.7972 H   0  0  0  0  0  0  0  0  0  0  0  0
    3.0221    3.4940    4.1269 H   0  0  0  0  0  0  0  0  0  0  0  0
    2.9505    2.6142    5.6914 H   0  0  0  0  0  0  0  0  0  0  0  0
  1  3  1  0  0  0  0
  1  7  1  0  0  0  0
  1  2  2  0  0  0  0
 28 29  1  0  0  0  0
 29 37  1  0  0  0  0
 29 30  2  0  0  0  0
 18 19  1  0  0  0  0
 19 27  1  0  0  0  0
 19 20  2  0  0  0  0
  8  9  1  0  0  0  0
  9 17  1  0  0  0  0
  9 10  2  0  0  0  0
 28 31  1  0  0  0  0
 18 21  1  0  0  0  0
  8 11  1  0  0  0  0
 37 38  1  0  0  0  0
 27 28  1  0  0  0  0
 17 18  1  0  0  0  0
  7  8  1  0  0  0  0
  3  4  1  0  0  0  0
  3  5  1  0  0  0  0
  3  6  1  0  0  0  0
 31 34  1  0  0  0  0
 31 35  1  0  0  0  0
 31 36  1  0  0  0  0
 21 24  1  0  0  0  0
 21 25  1  0  0  0  0
 21 26  1  0  0  0  0
 11 14  1  0  0  0  0
 11 15  1  0  0  0  0
 11 16  1  0  0  0  0
 38 40  1  0  0  0  0
 38 41  1  0  0  0  0
 38 42  1  0  0  0  0
 28 33  1  0  0  0  0
 18 23  1  0  0  0  0
  8 13  1  0  0  0  0
 37 39  1  0  0  0  0
  7 12  1  0  0  0  0
 27 32  1  0  0  0  0
 17 22  1  0  0  0  0
M  END
$$$$

  -OEChem-05262214473D

 42 41  0     1  0  0  0  0  0999 V2000
   -5.7851   -0.9580    0.6237 C   0  0  0  0  0  0  0  0  0  0  0  0
   -6.2213    0.1296    0.2652 O   0  0  0  0  0  0  0  0  0  0  0  0
   -6.7088   -2.1270    0.7168 C   0  0  0  0  0  0  0  0  0  0  0  0
   -7.1713   -2.2193    1.7126 H   0  0  0  0  0  0  0  0  0  0  0  0
   -7.5511   -2.0547    0.0101 H   0  0  0  0  0  0  0  0  0  0  0  0
   -6.2485   -3.1083    0.5191 H   0  0  0  0  0  0  0  0  0  0  0  0
   -4.4733   -1.2411    0.9668 N   0  0  0  0  0  0  0  0  0  0  0  0
   -3.4203   -0.2603    0.9449 C   0  0  2  0  0  0  0  0  0  0  0  0
   -2.1242   -0.9699    0.5759 C   0  0  0  0  0  0  0  0  0  0  0  0
   -1.8694   -2.1225    0.9189 O   0  0  0  0  0  0  0  0  0  0  0  0
   -3.2916    0.4435    2.2868 C   0  0  0  0  0  0  0  0  0  0  0  0
   -4.2421   -2.1920    1.2489 H   0  0  0  0  0  0  0  0  0  0  0  0
   -3.6772    0.4622    0.1625 H   0  0  0  0  0  0  0  0  0  0  0  0
   -3.0345   -0.2644    3.0832 H   0  0  0  0  0  0  0  0  0  0  0  0
   -2.5093    1.2092    2.2599 H   0  0  0  0  0  0  0  0  0  0  0  0
   -4.2338    0.9283    2.5645 H   0  0  0  0  0  0  0  0  0  0  0  0
   -1.2626   -0.1515   -0.1463 N   0  0  0  0  0  0  0  0  0  0  0  0
    0.0431   -0.5785   -0.5755 C   0  0  2  0  0  0  0  0  0  0  0  0
    0.8520   -0.9364    0.6643 C   0  0  0  0  0  0  0  0  0  0  0  0
    0.8437   -2.0566    1.1703 O   0  0  0  0  0  0  0  0  0  0  0  0
    0.7404    0.5032   -1.3859 C   0  0  0  0  0  0  0  0  0  0  0  0
   -1.5766    0.7776   -0.4197 H   0  0  0  0  0  0  0  0  0  0  0  0
   -0.1028   -1.4746   -1.1884 H   0  0  0  0  0  0  0  0  0  0  0  0
    0.8952    1.4090   -0.7884 H   0  0  0  0  0  0  0  0  0  0  0  0
    1.7217    0.1663   -1.7357 H   0  0  0  0  0  0  0  0  0  0  0  0
    0.1430    0.7804   -2.2611 H   0  0  0  0  0  0  0  0  0  0  0  0
    1.5534    0.1534    1.1685 N   0  0  0  0  0  0  0  0  0  0  0  0
    2.3584    0.0804    2.3593 C   0  0  2  0  0  0  0  0  0  0  0  0
    2.2998    1.4363    3.0504 C   0  0  0  0  0  0  0  0  0  0  0  0
    2.2226    2.4990    2.4373 O   0  0  0  0  0  0  0  0  0  0  0  0
    3.7939   -0.3023    2.0341 C   0  0  0  0  0  0  0  0  0  0  0  0
    1.5319    1.0341    0.6580 H   0  0  0  0  0  0  0  0  0  0  0  0
    1.9018   -0.6787    3.0037 H   0  0  0  0  0  0  0  0  0  0  0  0
    4.2679    0.4466    1.3892 H   0  0  0  0  0  0  0  0  0  0  0  0
    4.3981   -0.3853    2.9436 H   0  0  0  0  0  0  0  0  0  0  0  0
    3.8318   -1.2637    1.5106 H   0  0  0  0  0  0  0  0  0  0  0  0
    2.3873    1.3226    4.4308 N   0  0  0  0  0  0  0  0  0  0  0  0
    2.3967    2.4696    5.3085 C   0  0  0  0  0  0  0  0  0  0  0  0
    2.4078    0.4004    4.8560 H   0  0  0  0  0  0  0  0  0  0  0  0
    3.4357    2.7724    5.5059 H   0  0  0  0  0  0  0  0  0  0  0  0
    1.8571    3.3009    4.8312 H   0  0  0  0  0  0  0  0  0  0  0  0
    1.9043    2.2094    6.2571 H   0  0  0  0  0  0  0  0  0  0  0  0
  1  3  1  0  0  0  0
  1  7  1  0  0  0  0
  1  2  2  0  0  0  0
 28 29  1  0  0  0  0
 29 37  1  0  0  0  0
 29 30  2  0  0  0  0
 18 19  1  0  0  0  0
 19 27  1  0  0  0  0
 19 20  2  0  0  0  0
  8  9  1  0  0  0  0
  9 17  1  0  0  0  0
  9 10  2  0  0  0  0
 28 31  1  0  0  0  0
 18 21  1  0  0  0  0
  8 11  1  0  0  0  0
 37 38  1  0  0  0  0
 27 28  1  0  0  0  0
 17 18  1  0  0  0  0
  7  8  1  0  0  0  0
  3  4  1  0  0  0  0
  3  5  1  0  0  0  0
  3  6  1  0  0  0  0
 31 34  1  0  0  0  0
 31 35  1  0  0  0  0
 31 36  1  0  0  0  0
 21 24  1  0  0  0  0
 21 25  1  0  0  0  0
 21 26  1  0  0  0  0
 11 14  1  0  0  0  0
 11 15  1  0  0  0  0
 11 16  1  0  0  0  0
 38 40  1  0  0  0  0
 38 41  1  0  0  0  0
 38 42  1  0  0  0  0
 28 33  1  0  0  0  0
 18 23  1  0  0  0  0
  8 13  1  0  0  0  0
 37 39  1  0  0  0  0
  7 12  1  0  0  0  0
 27 32  1  0  0  0  0
 17 22  1  0  0  0  0
M  END
$$$$

  -OEChem-05262214473D

 42 41  0     1  0  0  0  0  0999 V2000
   -5.7851   -0.9580    0.6237 C   0  0  0  0  0  0  0  0  0  0  0  0
   -6.2213    0.1296    0.2652 O   0  0  0  0  0  0  0  0  0  0  0  0
   -6.7088   -2.1270    0.7168 C   0  0  0  0  0  0  0  0  0  0  0  0
   -7.1713   -2.2193    1.7126 H   0  0  0  0  0  0  0  0  0  0  0  0
   -7.5511   -2.0547    0.0101 H   0  0  0  0  0  0  0  0  0  0  0  0
   -6.2485   -3.1083    0.5191 H   0  0  0  0  0  0  0  0  0  0  0  0
   -4.4733   -1.2411    0.9668 N   0  0  0  0  0  0  0  0  0  0  0  0
   -3.4203   -0.2603    0.9449 C   0  0  2  0  0  0  0  0  0  0  0  0
   -2.1242   -0.9699    0.5759 C   0  0  0  0  0  0  0  0  0  0  0  0
   -1.8694   -2.1225    0.9189 O   0  0  0  0  0  0  0  0  0  0  0  0
   -3.2916    0.4435    2.2868 C   0  0  0  0  0  0  0  0  0  0  0  0
   -4.2421   -2.1920    1.2489 H   0  0  0  0  0  0  0  0  0  0  0  0
   -3.6772    0.4622    0.1625 H   0  0  0  0  0  0  0  0  0  0  0  0
   -3.0345   -0.2644    3.0832 H   0  0  0  0  0  0  0  0  0  0  0  0
   -2.5093    1.2092    2.2599 H   0  0  0  0  0  0  0  0  0  0  0  0
   -4.2338    0.9283    2.5645 H   0  0  0  0  0  0  0  0  0  0  0  0
   -1.2626   -0.1515   -0.1463 N   0  0  0  0  0  0  0  0  0  0  0  0
    0.0431   -0.5785   -0.5755 C   0  0  2  0  0  0  0  0  0  0  0  0
    0.8520   -0.9364    0.6643 C   0  0  0  0  0  0  0  0  0  0  0  0
    1.0613   -2.0951    1.0172 O   0  0  0  0  0  0  0  0  0  0  0  0
    0.7404    0.5032   -1.3859 C   0  0  0  0  0  0  0  0  0  0  0  0
   -1.5766    0.7776   -0.4197 H   0  0  0  0  0  0  0  0  0  0  0  0
   -0.1028   -1.4746   -1.1884 H   0  0  0  0  0  0  0  0  0  0  0  0
    0.8952    1.4090   -0.7884 H   0  0  0  0  0  0  0  0  0  0  0  0
    1.7217    0.1663   -1.7357 H   0  0  0  0  0  0  0  0  0  0  0  0
    0.1430    0.7804   -2.2611 H   0  0  0  0  0  0  0  0  0  0  0  0
    1.2787    0.1905    1.3584 N   0  0  0  0  0  0  0  0  0  0  0  0
    2.0249    0.1147    2.5867 C   0  0  2  0  0  0  0  0  0  0  0  0
    1.6444    1.3153    3.4431 C   0  0  0  0  0  0  0  0  0  0  0  0
    1.3689    2.4160    2.9703 O   0  0  0  0  0  0  0  0  0  0  0  0
    3.5225    0.0874    2.3237 C   0  0  0  0  0  0  0  0  0  0  0  0
    1.0920    1.1119    0.9675 H   0  0  0  0  0  0  0  0  0  0  0  0
    1.7129   -0.8071    3.0899 H   0  0  0  0  0  0  0  0  0  0  0  0
    3.8537    1.0029    1.8200 H   0  0  0  0  0  0  0  0  0  0  0  0
    4.0878    0.0009    3.2575 H   0  0  0  0  0  0  0  0  0  0  0  0
    3.7903   -0.7598    1.6831 H   0  0  0  0  0  0  0  0  0  0  0  0
    1.6905    1.0246    4.7993 N   0  0  0  0  0  0  0  0  0  0  0  0
    1.4128    2.0102    5.8178 C   0  0  0  0  0  0  0  0  0  0  0  0
    1.8892    0.0750    5.1004 H   0  0  0  0  0  0  0  0  0  0  0  0
    2.3521    2.4893    6.1311 H   0  0  0  0  0  0  0  0  0  0  0  0
    0.7296    2.7720    5.4141 H   0  0  0  0  0  0  0  0  0  0  0  0
    0.9446    1.5201    6.6842 H   0  0  0  0  0  0  0  0  0  0  0  0
  1  3  1  0  0  0  0
  1  7  1  0  0  0  0
  1  2  2  0  0  0  0
 28 29  1  0  0  0  0
 29 37  1  0  0  0  0
 29 30  2  0  0  0  0
 18 19  1  0  0  0  0
 19 27  1  0  0  0  0
 19 20  2  0  0  0  0
  8  9  1  0  0  0  0
  9 17  1  0  0  0  0
  9 10  2  0  0  0  0
 28 31  1  0  0  0  0
 18 21  1  0  0  0  0
  8 11  1  0  0  0  0
 37 38  1  0  0  0  0
 27 28  1  0  0  0  0
 17 18  1  0  0  0  0
  7  8  1  0  0  0  0
  3  4  1  0  0  0  0
  3  5  1  0  0  0  0
  3  6  1  0  0  0  0
 31 34  1  0  0  0  0
 31 35  1  0  0  0  0
 31 36  1  0  0  0  0
 21 24  1  0  0  0  0
 21 25  1  0  0  0  0
 21 26  1  0  0  0  0
 11 14  1  0  0  0  0
 11 15  1  0  0  0  0
 11 16  1  0  0  0  0
 38 40  1  0  0  0  0
 38 41  1  0  0  0  0
 38 42  1  0  0  0  0
 28 33  1  0  0  0  0
 18 23  1  0  0  0  0
  8 13  1  0  0  0  0
 37 39  1  0  0  0  0
  7 12  1  0  0  0  0
 27 32  1  0  0  0  0
 17 22  1  0  0  0  0
M  END
$$$$

  -OEChem-05262214473D

 42 41  0     1  0  0  0  0  0999 V2000
   -5.7851   -0.9580    0.6237 C   0  0  0  0  0  0  0  0  0  0  0  0
   -6.2213    0.1296    0.2652 O   0  0  0  0  0  0  0  0  0  0  0  0
   -6.7088   -2.1270    0.7168 C   0  0  0  0  0  0  0  0  0  0  0  0
   -7.1713   -2.2193    1.7126 H   0  0  0  0  0  0  0  0  0  0  0  0
   -7.5511   -2.0547    0.0101 H   0  0  0  0  0  0  0  0  0  0  0  0
   -6.2485   -3.1083    0.5191 H   0  0  0  0  0  0  0  0  0  0  0  0
   -4.4733   -1.2411    0.9668 N   0  0  0  0  0  0  0  0  0  0  0  0
   -3.4203   -0.2603    0.9449 C   0  0  2  0  0  0  0  0  0  0  0  0
   -2.1242   -0.9699    0.5759 C   0  0  0  0  0  0  0  0  0  0  0  0
   -1.8694   -2.1225    0.9189 O   0  0  0  0  0  0  0  0  0  0  0  0
   -3.2916    0.4435    2.2868 C   0  0  0  0  0  0  0  0  0  0  0  0
   -4.2421   -2.1920    1.2489 H   0  0  0  0  0  0  0  0  0  0  0  0
   -3.6772    0.4622    0.1625 H   0  0  0  0  0  0  0  0  0  0  0  0
   -3.0345   -0.2644    3.0832 H   0  0  0  0  0  0  0  0  0  0  0  0
   -2.5093    1.2092    2.2599 H   0  0  0  0  0  0  0  0  0  0  0  0
   -4.2338    0.9283    2.5645 H   0  0  0  0  0  0  0  0  0  0  0  0
   -1.2626   -0.1515   -0.1463 N   0  0  0  0  0  0  0  0  0  0  0  0
    0.0431   -0.5785   -0.5755 C   0  0  2  0  0  0  0  0  0  0  0  0
    0.8520   -0.9364    0.6643 C   0  0  0  0  0  0  0  0  0  0  0  0
    1.2890   -2.0654    0.8772 O   0  0  0  0  0  0  0  0  0  0  0  0
    0.7404    0.5032   -1.3859 C   0  0  0  0  0  0  0  0  0  0  0  0
   -1.5766    0.7776   -0.4197 H   0  0  0  0  0  0  0  0  0  0  0  0
   -0.1028   -1.4746   -1.1884 H   0  0  0  0  0  0  0  0  0  0  0  0
    0.8952    1.4090   -0.7884 H   0  0  0  0  0  0  0  0  0  0  0  0
    1.7217    0.1663   -1.7357 H   0  0  0  0  0  0  0  0  0  0  0  0
    0.1430    0.7804   -2.2611 H   0  0  0  0  0  0  0  0  0  0  0  0
    0.9941    0.1424    1.5302 N   0  0  0  0  0  0  0  0  0  0  0  0
    1.6817    0.0462    2.7909 C   0  0  2  0  0  0  0  0  0  0  0  0
    1.0129    1.0063    3.7658 C   0  0  0  0  0  0  0  0  0  0  0  0
    0.5294    2.0828    3.4218 O   0  0  0  0  0  0  0  0  0  0  0  0
    3.1606    0.3668    2.6404 C   0  0  0  0  0  0  0  0  0  0  0  0
    0.6319    1.0518    1.2503 H   0  0  0  0  0  0  0  0  0  0  0  0
    1.5523   -0.9827    3.1440 H   0  0  0  0  0  0  0  0  0  0  0  0
    3.3101    1.3937    2.2875 H   0  0  0  0  0  0  0  0  0  0  0  0
    3.6877    0.2654    3.5949 H   0  0  0  0  0  0  0  0  0  0  0  0
    3.6335   -0.3056    1.9165 H   0  0  0  0  0  0  0  0  0  0  0  0
    1.0579    0.5392    5.0719 N   0  0  0  0  0  0  0  0  0  0  0  0
    0.5282    1.2891    6.1868 C   0  0  0  0  0  0  0  0  0  0  0  0
    1.4420   -0.3821    5.2602 H   0  0  0  0  0  0  0  0  0  0  0  0
    1.3271    1.9016    6.6301 H   0  0  0  0  0  0  0  0  0  0  0  0
   -0.2834    1.9435    5.8358 H   0  0  0  0  0  0  0  0  0  0  0  0
    0.1369    0.5934    6.9437 H   0  0  0  0  0  0  0  0  0  0  0  0
  1  3  1  0  0  0  0
  1  7  1  0  0  0  0
  1  2  2  0  0  0  0
 28 29  1  0  0  0  0
 29 37  1  0  0  0  0
 29 30  2  0  0  0  0
 18 19  1  0  0  0  0
 19 27  1  0  0  0  0
 19 20  2  0  0  0  0
  8  9  1  0  0  0  0
  9 17  1  0  0  0  0
  9 10  2  0  0  0  0
 28 31  1  0  0  0  0
 18 21  1  0  0  0  0
  8 11  1  0  0  0  0
 37 38  1  0  0  0  0
 27 28  1  0  0  0  0
 17 18  1  0  0  0  0
  7  8  1  0  0  0  0
  3  4  1  0  0  0  0
  3  5  1  0  0  0  0
  3  6  1  0  0  0  0
 31 34  1  0  0  0  0
 31 35  1  0  0  0  0
 31 36  1  0  0  0  0
 21 24  1  0  0  0  0
 21 25  1  0  0  0  0
 21 26  1  0  0  0  0
 11 14  1  0  0  0  0
 11 15  1  0  0  0  0
 11 16  1  0  0  0  0
 38 40  1  0  0  0  0
 38 41  1  0  0  0  0
 38 42  1  0  0  0  0
 28 33  1  0  0  0  0
 18 23  1  0  0  0  0
  8 13  1  0  0  0  0
 37 39  1  0  0  0  0
  7 12  1  0  0  0  0
 27 32  1  0  0  0  0
 17 22  1  0  0  0  0
M  END
$$$$

  -OEChem-05262214473D

 42 41  0     1  0  0  0  0  0999 V2000
   -5.7851   -0.9580    0.6237 C   0  0  0  0  0  0  0  0  0  0  0  0
   -6.2213    0.1296    0.2652 O   0  0  0  0  0  0  0  0  0  0  0  0
   -6.7088   -2.1270    0.7168 C   0  0  0  0  0  0  0  0  0  0  0  0
   -7.1713   -2.2193    1.7126 H   0  0  0  0  0  0  0  0  0  0  0  0
   -7.5511   -2.0547    0.0101 H   0  0  0  0  0  0  0  0  0  0  0  0
   -6.2485   -3.1083    0.5191 H   0  0  0  0  0  0  0  0  0  0  0  0
   -4.4733   -1.2411    0.9668 N   0  0  0  0  0  0  0  0  0  0  0  0
   -3.4203   -0.2603    0.9449 C   0  0  2  0  0  0  0  0  0  0  0  0
   -2.1242   -0.9699    0.5759 C   0  0  0  0  0  0  0  0  0  0  0  0
   -1.8694   -2.1225    0.9189 O   0  0  0  0  0  0  0  0  0  0  0  0
   -3.2916    0.4435    2.2868 C   0  0  0  0  0  0  0  0  0  0  0  0
   -4.2421   -2.1920    1.2489 H   0  0  0  0  0  0  0  0  0  0  0  0
   -3.6772    0.4622    0.1625 H   0  0  0  0  0  0  0  0  0  0  0  0
   -3.0345   -0.2644    3.0832 H   0  0  0  0  0  0  0  0  0  0  0  0
   -2.5093    1.2092    2.2599 H   0  0  0  0  0  0  0  0  0  0  0  0
   -4.2338    0.9283    2.5645 H   0  0  0  0  0  0  0  0  0  0  0  0
   -1.2626   -0.1515   -0.1463 N   0  0  0  0  0  0  0  0  0  0  0  0
    0.0431   -0.5785   -0.5755 C   0  0  2  0  0  0  0  0  0  0  0  0
    0.8520   -0.9364    0.6643 C   0  0  0  0  0  0  0  0  0  0  0  0
    1.5112   -1.9695    0.7600 O   0  0  0  0  0  0  0  0  0  0  0  0
    0.7404    0.5032   -1.3859 C   0  0  0  0  0  0  0  0  0  0  0  0
   -1.5766    0.7776   -0.4197 H   0  0  0  0  0  0  0  0  0  0  0  0
   -0.1028   -1.4746   -1.1884 H   0  0  0  0  0  0  0  0  0  0  0  0
    0.8952    1.4090   -0.7884 H   0  0  0  0  0  0  0  0  0  0  0  0
    1.7217    0.1663   -1.7357 H   0  0  0  0  0  0  0  0  0  0  0  0
    0.1430    0.7804   -2.2611 H   0  0  0  0  0  0  0  0  0  0  0  0
    0.7188    0.0124    1.6722 N   0  0  0  0  0  0  0  0  0  0  0  0
    1.3522   -0.1203    2.9578 C   0  0  2  0  0  0  0  0  0  0  0  0
    0.4485    0.5304    3.9967 C   0  0  0  0  0  0  0  0  0  0  0  0
   -0.2388    1.5220    3.7611 O   0  0  0  0  0  0  0  0  0  0  0  0
    2.7329    0.5170    2.9628 C   0  0  0  0  0  0  0  0  0  0  0  0
    0.1829    0.8580    1.4873 H   0  0  0  0  0  0  0  0  0  0  0  0
    1.4308   -1.1937    3.1623 H   0  0  0  0  0  0  0  0  0  0  0  0
    2.6743    1.5925    2.7596 H   0  0  0  0  0  0  0  0  0  0  0  0
    3.2249    0.3902    3.9328 H   0  0  0  0  0  0  0  0  0  0  0  0
    3.3722    0.0681    2.1949 H   0  0  0  0  0  0  0  0  0  0  0  0
    0.5326   -0.1004    5.2301 N   0  0  0  0  0  0  0  0  0  0  0  0
   -0.1968    0.3555    6.3903 C   0  0  0  0  0  0  0  0  0  0  0  0
    1.0966   -0.9399    5.3245 H   0  0  0  0  0  0  0  0  0  0  0  0
    0.4305    1.0494    6.9691 H   0  0  0  0  0  0  0  0  0  0  0  0
   -1.1130    0.8718    6.0677 H   0  0  0  0  0  0  0  0  0  0  0  0
   -0.4639   -0.5075    7.0178 H   0  0  0  0  0  0  0  0  0  0  0  0
  1  3  1  0  0  0  0
  1  7  1  0  0  0  0
  1  2  2  0  0  0  0
 28 29  1  0  0  0  0
 29 37  1  0  0  0  0
 29 30  2  0  0  0  0
 18 19  1  0  0  0  0
 19 27  1  0  0  0  0
 19 20  2  0  0  0  0
  8  9  1  0  0  0  0
  9 17  1  0  0  0  0
  9 10  2  0  0  0  0
 28 31  1  0  0  0  0
 18 21  1  0  0  0  0
  8 11  1  0  0  0  0
 37 38  1  0  0  0  0
 27 28  1  0  0  0  0
 17 18  1  0  0  0  0
  7  8  1  0  0  0  0
  3  4  1  0  0  0  0
  3  5  1  0  0  0  0
  3  6  1  0  0  0  0
 31 34  1  0  0  0  0
 31 35  1  0  0  0  0
 31 36  1  0  0  0  0
 21 24  1  0  0  0  0
 21 25  1  0  0  0  0
 21 26  1  0  0  0  0
 11 14  1  0  0  0  0
 11 15  1  0  0  0  0
 11 16  1  0  0  0  0
 38 40  1  0  0  0  0
 38 41  1  0  0  0  0
 38 42  1  0  0  0  0
 28 33  1  0  0  0  0
 18 23  1  0  0  0  0
  8 13  1  0  0  0  0
 37 39  1  0  0  0  0
  7 12  1  0  0  0  0
 27 32  1  0  0  0  0
 17 22  1  0  0  0  0
M  END
$$$$

  -OEChem-05262214473D

 42 41  0     1  0  0  0  0  0999 V2000
   -5.7851   -0.9580    0.6237 C   0  0  0  0  0  0  0  0  0  0  0  0
   -6.2213    0.1296    0.2652 O   0  0  0  0  0  0  0  0  0  0  0  0
   -6.7088   -2.1270    0.7168 C   0  0  0  0  0  0  0  0  0  0  0  0
   -7.1713   -2.2193    1.7126 H   0  0  0  0  0  0  0  0  0  0  0  0
   -7.5511   -2.0547    0.0101 H   0  0  0  0  0  0  0  0  0  0  0  0
   -6.2485   -3.1083    0.5191 H   0  0  0  0  0  0  0  0  0  0  0  0
   -4.4733   -1.2411    0.9668 N   0  0  0  0  0  0  0  0  0  0  0  0
   -3.4203   -0.2603    0.9449 C   0  0  2  0  0  0  0  0  0  0  0  0
   -2.1242   -0.9699    0.5759 C   0  0  0  0  0  0  0  0  0  0  0  0
   -1.8694   -2.1225    0.9189 O   0  0  0  0  0  0  0  0  0  0  0  0
   -3.2916    0.4435    2.2868 C   0  0  0  0  0  0  0  0  0  0  0  0
   -4.2421   -2.1920    1.2489 H   0  0  0  0  0  0  0  0  0  0  0  0
   -3.6772    0.4622    0.1625 H   0  0  0  0  0  0  0  0  0  0  0  0
   -3.0345   -0.2644    3.0832 H   0  0  0  0  0  0  0  0  0  0  0  0
   -2.5093    1.2092    2.2599 H   0  0  0  0  0  0  0  0  0  0  0  0
   -4.2338    0.9283    2.5645 H   0  0  0  0  0  0  0  0  0  0  0  0
   -1.2626   -0.1515   -0.1463 N   0  0  0  0  0  0  0  0  0  0  0  0
    0.0431   -0.5785   -0.5755 C   0  0  2  0  0  0  0  0  0  0  0  0
    0.8520   -0.9364    0.6643 C   0  0  0  0  0  0  0  0  0  0  0  0
    1.7127   -1.8139    0.6734 O   0  0  0  0  0  0  0  0  0  0  0  0
    0.7404    0.5032   -1.3859 C   0  0  0  0  0  0  0  0  0  0  0  0
   -1.5766    0.7776   -0.4197 H   0  0  0  0  0  0  0  0  0  0  0  0
   -0.1028   -1.4746   -1.1884 H   0  0  0  0  0  0  0  0  0  0  0  0
    0.8952    1.4090   -0.7884 H   0  0  0  0  0  0  0  0  0  0  0  0
    1.7217    0.1663   -1.7357 H   0  0  0  0  0  0  0  0  0  0  0  0
    0.1430    0.7804   -2.2611 H   0  0  0  0  0  0  0  0  0  0  0  0
    0.4717   -0.1908    1.7748 N   0  0  0  0  0  0  0  0  0  0  0  0
    1.0588   -0.3736    3.0761 C   0  0  2  0  0  0  0  0  0  0  0  0
   -0.0105   -0.0799    4.1200 C   0  0  0  0  0  0  0  0  0  0  0  0
   -0.8832    0.7718    3.9650 O   0  0  0  0  0  0  0  0  0  0  0  0
    2.2686    0.5276    3.2688 C   0  0  0  0  0  0  0  0  0  0  0  0
   -0.2244    0.5436    1.6623 H   0  0  0  0  0  0  0  0  0  0  0  0
    1.3568   -1.4255    3.1436 H   0  0  0  0  0  0  0  0  0  0  0  0
    1.9896    1.5856    3.2044 H   0  0  0  0  0  0  0  0  0  0  0  0
    2.7311    0.3668    4.2482 H   0  0  0  0  0  0  0  0  0  0  0  0
    3.0241    0.3356    2.4992 H   0  0  0  0  0  0  0  0  0  0  0  0
    0.1503   -0.8506    5.2629 N   0  0  0  0  0  0  0  0  0  0  0  0
   -0.7128   -0.7270    6.4144 C   0  0  0  0  0  0  0  0  0  0  0  0
    0.8766   -1.5602    5.2890 H   0  0  0  0  0  0  0  0  0  0  0  0
   -0.2766   -0.0093    7.1248 H   0  0  0  0  0  0  0  0  0  0  0  0
   -1.7026   -0.3700    6.0939 H   0  0  0  0  0  0  0  0  0  0  0  0
   -0.8167   -1.7078    6.9015 H   0  0  0  0  0  0  0  0  0  0  0  0
  1  3  1  0  0  0  0
  1  7  1  0  0  0  0
  1  2  2  0  0  0  0
 28 29  1  0  0  0  0
 29 37  1  0  0  0  0
 29 30  2  0  0  0  0
 18 19  1  0  0  0  0
 19 27  1  0  0  0  0
 19 20  2  0  0  0  0
  8  9  1  0  0  0  0
  9 17  1  0  0  0  0
  9 10  2  0  0  0  0
 28 31  1  0  0  0  0
 18 21  1  0  0  0  0
  8 11  1  0  0  0  0
 37 38  1  0  0  0  0
 27 28  1  0  0  0  0
 17 18  1  0  0  0  0
  7  8  1  0  0  0  0
  3  4  1  0  0  0  0
  3  5  1  0  0  0  0
  3  6  1  0  0  0  0
 31 34  1  0  0  0  0
 31 35  1  0  0  0  0
 31 36  1  0  0  0  0
 21 24  1  0  0  0  0
 21 25  1  0  0  0  0
 21 26  1  0  0  0  0
 11 14  1  0  0  0  0
 11 15  1  0  0  0  0
 11 16  1  0  0  0  0
 38 40  1  0  0  0  0
 38 41  1  0  0  0  0
 38 42  1  0  0  0  0
 28 33  1  0  0  0  0
 18 23  1  0  0  0  0
  8 13  1  0  0  0  0
 37 39  1  0  0  0  0
  7 12  1  0  0  0  0
 27 32  1  0  0  0  0
 17 22  1  0  0  0  0
M  END
$$$$

  -OEChem-05262214473D

 42 41  0     1  0  0  0  0  0999 V2000
   -5.7851   -0.9580    0.6237 C   0  0  0  0  0  0  0  0  0  0  0  0
   -6.2213    0.1296    0.2652 O   0  0  0  0  0  0  0  0  0  0  0  0
   -6.7088   -2.1270    0.7168 C   0  0  0  0  0  0  0  0  0  0  0  0
   -7.1713   -2.2193    1.7126 H   0  0  0  0  0  0  0  0  0  0  0  0
   -7.5511   -2.0547    0.0101 H   0  0  0  0  0  0  0  0  0  0  0  0
   -6.2485   -3.1083    0.5191 H   0  0  0  0  0  0  0  0  0  0  0  0
   -4.4733   -1.2411    0.9668 N   0  0  0  0  0  0  0  0  0  0  0  0
   -3.4203   -0.2603    0.9449 C   0  0  2  0  0  0  0  0  0  0  0  0
   -2.1242   -0.9699    0.5759 C   0  0  0  0  0  0  0  0  0  0  0  0
   -1.8694   -2.1225    0.9189 O   0  0  0  0  0  0  0  0  0  0  0  0
   -3.2916    0.4435    2.2868 C   0  0  0  0  0  0  0  0  0  0  0  0
   -4.2421   -2.1920    1.2489 H   0  0  0  0  0  0  0  0  0  0  0  0
   -3.6772    0.4622    0.1625 H   0  0  0  0  0  0  0  0  0  0  0  0
   -3.0345   -0.2644    3.0832 H   0  0  0  0  0  0  0  0  0  0  0  0
   -2.5093    1.2092    2.2599 H   0  0  0  0  0  0  0  0  0  0  0  0
   -4.2338    0.9283    2.5645 H   0  0  0  0  0  0  0  0  0  0  0  0
   -1.2626   -0.1515   -0.1463 N   0  0  0  0  0  0  0  0  0  0  0  0
    0.0431   -0.5785   -0.5755 C   0  0  2  0  0  0  0  0  0  0  0  0
    0.8520   -0.9364    0.6643 C   0  0  0  0  0  0  0  0  0  0  0  0
    1.8799   -1.6093    0.6234 O   0  0  0  0  0  0  0  0  0  0  0  0
    0.7404    0.5032   -1.3859 C   0  0  0  0  0  0  0  0  0  0  0  0
   -1.5766    0.7776   -0.4197 H   0  0  0  0  0  0  0  0  0  0  0  0
   -0.1028   -1.4746   -1.1884 H   0  0  0  0  0  0  0  0  0  0  0  0
    0.8952    1.4090   -0.7884 H   0  0  0  0  0  0  0  0  0  0  0  0
    1.7217    0.1663   -1.7357 H   0  0  0  0  0  0  0  0  0  0  0  0
    0.1430    0.7804   -2.2611 H   0  0  0  0  0  0  0  0  0  0  0  0
    0.2695   -0.4532    1.8310 N   0  0  0  0  0  0  0  0  0  0  0  0
    0.8216   -0.6962    3.1377 C   0  0  2  0  0  0  0  0  0  0  0  0
   -0.3328   -0.7830    4.1273 C   0  0  0  0  0  0  0  0  0  0  0  0
   -1.3601   -0.1166    4.0196 O   0  0  0  0  0  0  0  0  0  0  0  0
    1.7992    0.3979    3.5376 C   0  0  0  0  0  0  0  0  0  0  0  0
   -0.5622    0.1301    1.7633 H   0  0  0  0  0  0  0  0  0  0  0  0
    1.3354   -1.6625    3.0892 H   0  0  0  0  0  0  0  0  0  0  0  0
    1.3026    1.3736    3.5914 H   0  0  0  0  0  0  0  0  0  0  0  0
    2.2398    0.1968    4.5196 H   0  0  0  0  0  0  0  0  0  0  0  0
    2.6129    0.4789    2.8088 H   0  0  0  0  0  0  0  0  0  0  0  0
   -0.0629   -1.6603    5.1683 N   0  0  0  0  0  0  0  0  0  0  0  0
   -0.9845   -1.8846    6.2575 C   0  0  0  0  0  0  0  0  0  0  0  0
    0.7969   -2.2009    5.1560 H   0  0  0  0  0  0  0  0  0  0  0  0
   -0.7460   -1.2023    7.0867 H   0  0  0  0  0  0  0  0  0  0  0  0
   -2.0121   -1.6974    5.9127 H   0  0  0  0  0  0  0  0  0  0  0  0
   -0.8975   -2.9254    6.6027 H   0  0  0  0  0  0  0  0  0  0  0  0
  1  3  1  0  0  0  0
  1  7  1  0  0  0  0
  1  2  2  0  0  0  0
 28 29  1  0  0  0  0
 29 37  1  0  0  0  0
 29 30  2  0  0  0  0
 18 19  1  0  0  0  0
 19 27  1  0  0  0  0
 19 20  2  0  0  0  0
  8  9  1  0  0  0  0
  9 17  1  0  0  0  0
  9 10  2  0  0  0  0
 28 31  1  0  0  0  0
 18 21  1  0  0  0  0
  8 11  1  0  0  0  0
 37 38  1  0  0  0  0
 27 28  1  0  0  0  0
 17 18  1  0  0  0  0
  7  8  1  0  0  0  0
  3  4  1  0  0  0  0
  3  5  1  0  0  0  0
  3  6  1  0  0  0  0
 31 34  1  0  0  0  0
 31 35  1  0  0  0  0
 31 36  1  0  0  0  0
 21 24  1  0  0  0  0
 21 25  1  0  0  0  0
 21 26  1  0  0  0  0
 11 14  1  0  0  0  0
 11 15  1  0  0  0  0
 11 16  1  0  0  0  0
 38 40  1  0  0  0  0
 38 41  1  0  0  0  0
 38 42  1  0  0  0  0
 28 33  1  0  0  0  0
 18 23  1  0  0  0  0
  8 13  1  0  0  0  0
 37 39  1  0  0  0  0
  7 12  1  0  0  0  0
 27 32  1  0  0  0  0
 17 22  1  0  0  0  0
M  END
$$$$

  -OEChem-05262214473D

 42 41  0     1  0  0  0  0  0999 V2000
   -5.7851   -0.9580    0.6237 C   0  0  0  0  0  0  0  0  0  0  0  0
   -6.2213    0.1296    0.2652 O   0  0  0  0  0  0  0  0  0  0  0  0
   -6.7088   -2.1270    0.7168 C   0  0  0  0  0  0  0  0  0  0  0  0
   -7.1713   -2.2193    1.7126 H   0  0  0  0  0  0  0  0  0  0  0  0
   -7.5511   -2.0547    0.0101 H   0  0  0  0  0  0  0  0  0  0  0  0
   -6.2485   -3.1083    0.5191 H   0  0  0  0  0  0  0  0  0  0  0  0
   -4.4733   -1.2411    0.9668 N   0  0  0  0  0  0  0  0  0  0  0  0
   -3.4203   -0.2603    0.9449 C   0  0  2  0  0  0  0  0  0  0  0  0
   -2.1242   -0.9699    0.5759 C   0  0  0  0  0  0  0  0  0  0  0  0
   -1.8694   -2.1225    0.9189 O   0  0  0  0  0  0  0  0  0  0  0  0
   -3.2916    0.4435    2.2868 C   0  0  0  0  0  0  0  0  0  0  0  0
   -4.2421   -2.1920    1.2489 H   0  0  0  0  0  0  0  0  0  0  0  0
   -3.6772    0.4622    0.1625 H   0  0  0  0  0  0  0  0  0  0  0  0
   -3.0345   -0.2644    3.0832 H   0  0  0  0  0  0  0  0  0  0  0  0
   -2.5093    1.2092    2.2599 H   0  0  0  0  0  0  0  0  0  0  0  0
   -4.2338    0.9283    2.5645 H   0  0  0  0  0  0  0  0  0  0  0  0
   -1.2626   -0.1515   -0.1463 N   0  0  0  0  0  0  0  0  0  0  0  0
    0.0431   -0.5785   -0.5755 C   0  0  2  0  0  0  0  0  0  0  0  0
    0.8520   -0.9364    0.6643 C   0  0  0  0  0  0  0  0  0  0  0  0
    2.0013   -1.3695    0.6134 O   0  0  0  0  0  0  0  0  0  0  0  0
    0.7404    0.5032   -1.3859 C   0  0  0  0  0  0  0  0  0  0  0  0
   -1.5766    0.7776   -0.4197 H   0  0  0  0  0  0  0  0  0  0  0  0
   -0.1028   -1.4746   -1.1884 H   0  0  0  0  0  0  0  0  0  0  0  0
    0.8952    1.4090   -0.7884 H   0  0  0  0  0  0  0  0  0  0  0  0
    1.7217    0.1663   -1.7357 H   0  0  0  0  0  0  0  0  0  0  0  0
    0.1430    0.7804   -2.2611 H   0  0  0  0  0  0  0  0  0  0  0  0
    0.1262   -0.7570    1.8368 N   0  0  0  0  0  0  0  0  0  0  0  0
    0.6568   -1.0663    3.1384 C   0  0  2  0  0  0  0  0  0  0  0  0
   -0.4964   -1.5312    4.0180 C   0  0  0  0  0  0  0  0  0  0  0  0
   -1.6368   -1.0828    3.9213 O   0  0  0  0  0  0  0  0  0  0  0  0
    1.3568    0.1368    3.7508 C   0  0  0  0  0  0  0  0  0  0  0  0
   -0.8075   -0.3544    1.7834 H   0  0  0  0  0  0  0  0  0  0  0  0
    1.3679   -1.8885    3.0028 H   0  0  0  0  0  0  0  0  0  0  0  0
    0.6601    0.9708    3.8942 H   0  0  0  0  0  0  0  0  0  0  0  0
    1.7846   -0.1083    4.7285 H   0  0  0  0  0  0  0  0  0  0  0  0
    2.1668    0.4881    3.1025 H   0  0  0  0  0  0  0  0  0  0  0  0
   -0.0925   -2.4744    4.9526 N   0  0  0  0  0  0  0  0  0  0  0  0
   -0.9935   -3.0385    5.9303 C   0  0  0  0  0  0  0  0  0  0  0  0
    0.8631   -2.8183    4.9346 H   0  0  0  0  0  0  0  0  0  0  0  0
   -0.9458   -2.4483    6.8573 H   0  0  0  0  0  0  0  0  0  0  0  0
   -2.0204   -3.0198    5.5363 H   0  0  0  0  0  0  0  0  0  0  0  0
   -0.7009   -4.0776    6.1419 H   0  0  0  0  0  0  0  0  0  0  0  0
  1  3  1  0  0  0  0
  1  7  1  0  0  0  0
  1  2  2  0  0  0  0
 28 29  1  0  0  0  0
 29 37  1  0  0  0  0
 29 30  2  0  0  0  0
 18 19  1  0  0  0  0
 19 27  1  0  0  0  0
 19 20  2  0  0  0  0
  8  9  1  0  0  0  0
  9 17  1  0  0  0  0
  9 10  2  0  0  0  0
 28 31  1  0  0  0  0
 18 21  1  0  0  0  0
  8 11  1  0  0  0  0
 37 38  1  0  0  0  0
 27 28  1  0  0  0  0
 17 18  1  0  0  0  0
  7  8  1  0  0  0  0
  3  4  1  0  0  0  0
  3  5  1  0  0  0  0
  3  6  1  0  0  0  0
 31 34  1  0  0  0  0
 31 35  1  0  0  0  0
 31 36  1  0  0  0  0
 21 24  1  0  0  0  0
 21 25  1  0  0  0  0
 21 26  1  0  0  0  0
 11 14  1  0  0  0  0
 11 15  1  0  0  0  0
 11 16  1  0  0  0  0
 38 40  1  0  0  0  0
 38 41  1  0  0  0  0
 38 42  1  0  0  0  0
 28 33  1  0  0  0  0
 18 23  1  0  0  0  0
  8 13  1  0  0  0  0
 37 39  1  0  0  0  0
  7 12  1  0  0  0  0
 27 32  1  0  0  0  0
 17 22  1  0  0  0  0
M  END
$$$$

  -OEChem-05262214473D

 42 41  0     1  0  0  0  0  0999 V2000
   -5.7851   -0.9580    0.6237 C   0  0  0  0  0  0  0  0  0  0  0  0
   -6.2213    0.1296    0.2652 O   0  0  0  0  0  0  0  0  0  0  0  0
   -6.7088   -2.1270    0.7168 C   0  0  0  0  0  0  0  0  0  0  0  0
   -7.1713   -2.2193    1.7126 H   0  0  0  0  0  0  0  0  0  0  0  0
   -7.5511   -2.0547    0.0101 H   0  0  0  0  0  0  0  0  0  0  0  0
   -6.2485   -3.1083    0.5191 H   0  0  0  0  0  0  0  0  0  0  0  0
   -4.4733   -1.2411    0.9668 N   0  0  0  0  0  0  0  0  0  0  0  0
   -3.4203   -0.2603    0.9449 C   0  0  2  0  0  0  0  0  0  0  0  0
   -2.1242   -0.9699    0.5759 C   0  0  0  0  0  0  0  0  0  0  0  0
   -1.8694   -2.1225    0.9189 O   0  0  0  0  0  0  0  0  0  0  0  0
   -3.2916    0.4435    2.2868 C   0  0  0  0  0  0  0  0  0  0  0  0
   -4.2421   -2.1920    1.2489 H   0  0  0  0  0  0  0  0  0  0  0  0
   -3.6772    0.4622    0.1625 H   0  0  0  0  0  0  0  0  0  0  0  0
   -3.0345   -0.2644    3.0832 H   0  0  0  0  0  0  0  0  0  0  0  0
   -2.5093    1.2092    2.2599 H   0  0  0  0  0  0  0  0  0  0  0  0
   -4.2338    0.9283    2.5645 H   0  0  0  0  0  0  0  0  0  0  0  0
   -1.2626   -0.1515   -0.1463 N   0  0  0  0  0  0  0  0  0  0  0  0
    0.0431   -0.5785   -0.5755 C   0  0  2  0  0  0  0  0  0  0  0  0
    0.8520   -0.9364    0.6643 C   0  0  0  0  0  0  0  0  0  0  0  0
    2.0686   -1.1110    0.6441 O   0  0  0  0  0  0  0  0  0  0  0  0
    0.7404    0.5032   -1.3859 C   0  0  0  0  0  0  0  0  0  0  0  0
   -1.5766    0.7776   -0.4197 H   0  0  0  0  0  0  0  0  0  0  0  0
   -0.1028   -1.4746   -1.1884 H   0  0  0  0  0  0  0  0  0  0  0  0
    0.8952    1.4090   -0.7884 H   0  0  0  0  0  0  0  0  0  0  0  0
    1.7217    0.1663   -1.7357 H   0  0  0  0  0  0  0  0  0  0  0  0
    0.1430    0.7804   -2.2611 H   0  0  0  0  0  0  0  0  0  0  0  0
    0.0513   -1.0814    1.7920 N   0  0  0  0  0  0  0  0  0  0  0  0
    0.5754   -1.4587    3.0782 C   0  0  2  0  0  0  0  0  0  0  0  0
   -0.4901   -2.2732    3.7997 C   0  0  0  0  0  0  0  0  0  0  0  0
   -1.6946   -2.0608    3.6766 O   0  0  0  0  0  0  0  0  0  0  0  0
    0.9715   -0.2379    3.8940 C   0  0  0  0  0  0  0  0  0  0  0  0
   -0.9436   -0.8769    1.7214 H   0  0  0  0  0  0  0  0  0  0  0  0
    1.4521   -2.0880    2.8902 H   0  0  0  0  0  0  0  0  0  0  0  0
    0.1060    0.4048    4.0923 H   0  0  0  0  0  0  0  0  0  0  0  0
    1.3965   -0.5276    4.8607 H   0  0  0  0  0  0  0  0  0  0  0  0
    1.7161    0.3627    3.3604 H   0  0  0  0  0  0  0  0  0  0  0  0
    0.0635   -3.2373    4.6306 N   0  0  0  0  0  0  0  0  0  0  0  0
   -0.7392   -4.1100    5.4551 C   0  0  0  0  0  0  0  0  0  0  0  0
    1.0705   -3.3702    4.6400 H   0  0  0  0  0  0  0  0  0  0  0  0
   -0.8623   -3.6624    6.4523 H   0  0  0  0  0  0  0  0  0  0  0  0
   -1.7268   -4.2472    4.9905 H   0  0  0  0  0  0  0  0  0  0  0  0
   -0.2402   -5.0857    5.5503 H   0  0  0  0  0  0  0  0  0  0  0  0
  1  3  1  0  0  0  0
  1  7  1  0  0  0  0
  1  2  2  0  0  0  0
 28 29  1  0  0  0  0
 29 37  1  0  0  0  0
 29 30  2  0  0  0  0
 18 19  1  0  0  0  0
 19 27  1  0  0  0  0
 19 20  2  0  0  0  0
  8  9  1  0  0  0  0
  9 17  1  0  0  0  0
  9 10  2  0  0  0  0
 28 31  1  0  0  0  0
 18 21  1  0  0  0  0
  8 11  1  0  0  0  0
 37 38  1  0  0  0  0
 27 28  1  0  0  0  0
 17 18  1  0  0  0  0
  7  8  1  0  0  0  0
  3  4  1  0  0  0  0
  3  5  1  0  0  0  0
  3  6  1  0  0  0  0
 31 34  1  0  0  0  0
 31 35  1  0  0  0  0
 31 36  1  0  0  0  0
 21 24  1  0  0  0  0
 21 25  1  0  0  0  0
 21 26  1  0  0  0  0
 11 14  1  0  0  0  0
 11 15  1  0  0  0  0
 11 16  1  0  0  0  0
 38 40  1  0  0  0  0
 38 41  1  0  0  0  0
 38 42  1  0  0  0  0
 28 33  1  0  0  0  0
 18 23  1  0  0  0  0
  8 13  1  0  0  0  0
 37 39  1  0  0  0  0
  7 12  1  0  0  0  0
 27 32  1  0  0  0  0
 17 22  1  0  0  0  0
M  END
$$$$

  -OEChem-05262214473D

 42 41  0     1  0  0  0  0  0999 V2000
   -5.7851   -0.9580    0.6237 C   0  0  0  0  0  0  0  0  0  0  0  0
   -6.2213    0.1296    0.2652 O   0  0  0  0  0  0  0  0  0  0  0  0
   -6.7088   -2.1270    0.7168 C   0  0  0  0  0  0  0  0  0  0  0  0
   -7.1713   -2.2193    1.7126 H   0  0  0  0  0  0  0  0  0  0  0  0
   -7.5511   -2.0547    0.0101 H   0  0  0  0  0  0  0  0  0  0  0  0
   -6.2485   -3.1083    0.5191 H   0  0  0  0  0  0  0  0  0  0  0  0
   -4.4733   -1.2411    0.9668 N   0  0  0  0  0  0  0  0  0  0  0  0
   -3.4203   -0.2603    0.9449 C   0  0  2  0  0  0  0  0  0  0  0  0
   -2.1242   -0.9699    0.5759 C   0  0  0  0  0  0  0  0  0  0  0  0
   -1.8694   -2.1225    0.9189 O   0  0  0  0  0  0  0  0  0  0  0  0
   -3.2916    0.4435    2.2868 C   0  0  0  0  0  0  0  0  0  0  0  0
   -4.2421   -2.1920    1.2489 H   0  0  0  0  0  0  0  0  0  0  0  0
   -3.6772    0.4622    0.1625 H   0  0  0  0  0  0  0  0  0  0  0  0
   -3.0345   -0.2644    3.0832 H   0  0  0  0  0  0  0  0  0  0  0  0
   -2.5093    1.2092    2.2599 H   0  0  0  0  0  0  0  0  0  0  0  0
   -4.2338    0.9283    2.5645 H   0  0  0  0  0  0  0  0  0  0  0  0
   -1.2626   -0.1515   -0.1463 N   0  0  0  0  0  0  0  0  0  0  0  0
    0.0431   -0.5785   -0.5755 C   0  0  2  0  0  0  0  0  0  0  0  0
    0.8520   -0.9364    0.6643 C   0  0  0  0  0  0  0  0  0  0  0  0
    2.0773   -0.8513    0.7134 O   0  0  0  0  0  0  0  0  0  0  0  0
    0.7404    0.5032   -1.3859 C   0  0  0  0  0  0  0  0  0  0  0  0
   -1.5766    0.7776   -0.4197 H   0  0  0  0  0  0  0  0  0  0  0  0
   -0.1028   -1.4746   -1.1884 H   0  0  0  0  0  0  0  0  0  0  0  0
    0.8952    1.4090   -0.7884 H   0  0  0  0  0  0  0  0  0  0  0  0
    1.7217    0.1663   -1.7357 H   0  0  0  0  0  0  0  0  0  0  0  0
    0.1430    0.7804   -2.2611 H   0  0  0  0  0  0  0  0  0  0  0  0
    0.0501   -1.4044    1.6995 N   0  0  0  0  0  0  0  0  0  0  0  0
    0.5832   -1.8465    2.9612 C   0  0  2  0  0  0  0  0  0  0  0  0
   -0.3144   -2.9587    3.4872 C   0  0  0  0  0  0  0  0  0  0  0  0
   -1.5294   -2.9840    3.3024 O   0  0  0  0  0  0  0  0  0  0  0  0
    0.6696   -0.7007    3.9574 C   0  0  0  0  0  0  0  0  0  0  0  0
   -0.9611   -1.4016    1.5814 H   0  0  0  0  0  0  0  0  0  0  0  0
    1.5824   -2.2476    2.7592 H   0  0  0  0  0  0  0  0  0  0  0  0
   -0.3220   -0.2860    4.1722 H   0  0  0  0  0  0  0  0  0  0  0  0
    1.1019   -1.0325    4.9072 H   0  0  0  0  0  0  0  0  0  0  0  0
    1.2915    0.1110    3.5648 H   0  0  0  0  0  0  0  0  0  0  0  0
    0.3946   -3.8970    4.2241 N   0  0  0  0  0  0  0  0  0  0  0  0
   -0.2389   -5.0261    4.8642 C   0  0  0  0  0  0  0  0  0  0  0  0
    1.4051   -3.8192    4.2921 H   0  0  0  0  0  0  0  0  0  0  0  0
   -0.5011   -4.7619    5.8993 H   0  0  0  0  0  0  0  0  0  0  0  0
   -1.1515   -5.2958    4.3124 H   0  0  0  0  0  0  0  0  0  0  0  0
    0.4533   -5.8810    4.8683 H   0  0  0  0  0  0  0  0  0  0  0  0
  1  3  1  0  0  0  0
  1  7  1  0  0  0  0
  1  2  2  0  0  0  0
 28 29  1  0  0  0  0
 29 37  1  0  0  0  0
 29 30  2  0  0  0  0
 18 19  1  0  0  0  0
 19 27  1  0  0  0  0
 19 20  2  0  0  0  0
  8  9  1  0  0  0  0
  9 17  1  0  0  0  0
  9 10  2  0  0  0  0
 28 31  1  0  0  0  0
 18 21  1  0  0  0  0
  8 11  1  0  0  0  0
 37 38  1  0  0  0  0
 27 28  1  0  0  0  0
 17 18  1  0  0  0  0
  7  8  1  0  0  0  0
  3  4  1  0  0  0  0
  3  5  1  0  0  0  0
  3  6  1  0  0  0  0
 31 34  1  0  0  0  0
 31 35  1  0  0  0  0
 31 36  1  0  0  0  0
 21 24  1  0  0  0  0
 21 25  1  0  0  0  0
 21 26  1  0  0  0  0
 11 14  1  0  0  0  0
 11 15  1  0  0  0  0
 11 16  1  0  0  0  0
 38 40  1  0  0  0  0
 38 41  1  0  0  0  0
 38 42  1  0  0  0  0
 28 33  1  0  0  0  0
 18 23  1  0  0  0  0
  8 13  1  0  0  0  0
 37 39  1  0  0  0  0
  7 12  1  0  0  0  0
 27 32  1  0  0  0  0
 17 22  1  0  0  0  0
M  END
$$$$

  -OEChem-05262214473D

 42 41  0     1  0  0  0  0  0999 V2000
   -5.7851   -0.9580    0.6237 C   0  0  0  0  0  0  0  0  0  0  0  0
   -6.2213    0.1296    0.2652 O   0  0  0  0  0  0  0  0  0  0  0  0
   -6.7088   -2.1270    0.7168 C   0  0  0  0  0  0  0  0  0  0  0  0
   -7.1713   -2.2193    1.7126 H   0  0  0  0  0  0  0  0  0  0  0  0
   -7.5511   -2.0547    0.0101 H   0  0  0  0  0  0  0  0  0  0  0  0
   -6.2485   -3.1083    0.5191 H   0  0  0  0  0  0  0  0  0  0  0  0
   -4.4733   -1.2411    0.9668 N   0  0  0  0  0  0  0  0  0  0  0  0
   -3.4203   -0.2603    0.9449 C   0  0  2  0  0  0  0  0  0  0  0  0
   -2.1242   -0.9699    0.5759 C   0  0  0  0  0  0  0  0  0  0  0  0
   -1.8694   -2.1225    0.9189 O   0  0  0  0  0  0  0  0  0  0  0  0
   -3.2916    0.4435    2.2868 C   0  0  0  0  0  0  0  0  0  0  0  0
   -4.2421   -2.1920    1.2489 H   0  0  0  0  0  0  0  0  0  0  0  0
   -3.6772    0.4622    0.1625 H   0  0  0  0  0  0  0  0  0  0  0  0
   -3.0345   -0.2644    3.0832 H   0  0  0  0  0  0  0  0  0  0  0  0
   -2.5093    1.2092    2.2599 H   0  0  0  0  0  0  0  0  0  0  0  0
   -4.2338    0.9283    2.5645 H   0  0  0  0  0  0  0  0  0  0  0  0
   -1.2626   -0.1515   -0.1463 N   0  0  0  0  0  0  0  0  0  0  0  0
    0.0431   -0.5785   -0.5755 C   0  0  2  0  0  0  0  0  0  0  0  0
    0.8520   -0.9364    0.6643 C   0  0  0  0  0  0  0  0  0  0  0  0
    2.0268   -0.6082    0.8166 O   0  0  0  0  0  0  0  0  0  0  0  0
    0.7404    0.5032   -1.3859 C   0  0  0  0  0  0  0  0  0  0  0  0
   -1.5766    0.7776   -0.4197 H   0  0  0  0  0  0  0  0  0  0  0  0
   -0.1028   -1.4746   -1.1884 H   0  0  0  0  0  0  0  0  0  0  0  0
    0.8952    1.4090   -0.7884 H   0  0  0  0  0  0  0  0  0  0  0  0
    1.7217    0.1663   -1.7357 H   0  0  0  0  0  0  0  0  0  0  0  0
    0.1430    0.7804   -2.2611 H   0  0  0  0  0  0  0  0  0  0  0  0
    0.1226   -1.7039    1.5658 N   0  0  0  0  0  0  0  0  0  0  0  0
    0.6796   -2.2034    2.7953 C   0  0  2  0  0  0  0  0  0  0  0  0
    0.0187   -3.5408    3.1019 C   0  0  0  0  0  0  0  0  0  0  0  0
   -1.1526   -3.7896    2.8240 O   0  0  0  0  0  0  0  0  0  0  0  0
    0.4717   -1.2201    3.9366 C   0  0  0  0  0  0  0  0  0  0  0  0
   -0.8590   -1.8930    1.3729 H   0  0  0  0  0  0  0  0  0  0  0  0
    1.7498   -2.3562    2.6186 H   0  0  0  0  0  0  0  0  0  0  0  0
   -0.5948   -1.0543    4.1283 H   0  0  0  0  0  0  0  0  0  0  0  0
    0.9209   -1.5887    4.8647 H   0  0  0  0  0  0  0  0  0  0  0  0
    0.9219   -0.2495    3.7018 H   0  0  0  0  0  0  0  0  0  0  0  0
    0.8781   -4.4087    3.7610 N   0  0  0  0  0  0  0  0  0  0  0  0
    0.4733   -5.7244    4.1980 C   0  0  0  0  0  0  0  0  0  0  0  0
    1.8440   -4.1345    3.9147 H   0  0  0  0  0  0  0  0  0  0  0  0
    0.1130   -5.6718    5.2360 H   0  0  0  0  0  0  0  0  0  0  0  0
   -0.3335   -6.0943    3.5483 H   0  0  0  0  0  0  0  0  0  0  0  0
    1.3321   -6.4095    4.1424 H   0  0  0  0  0  0  0  0  0  0  0  0
  1  3  1  0  0  0  0
  1  7  1  0  0  0  0
  1  2  2  0  0  0  0
 28 29  1  0  0  0  0
 29 37  1  0  0  0  0
 29 30  2  0  0  0  0
 18 19  1  0  0  0  0
 19 27  1  0  0  0  0
 19 20  2  0  0  0  0
  8  9  1  0  0  0  0
  9 17  1  0  0  0  0
  9 10  2  0  0  0  0
 28 31  1  0  0  0  0
 18 21  1  0  0  0  0
  8 11  1  0  0  0  0
 37 38  1  0  0  0  0
 27 28  1  0  0  0  0
 17 18  1  0  0  0  0
  7  8  1  0  0  0  0
  3  4  1  0  0  0  0
  3  5  1  0  0  0  0
  3  6  1  0  0  0  0
 31 34  1  0  0  0  0
 31 35  1  0  0  0  0
 31 36  1  0  0  0  0
 21 24  1  0  0  0  0
 21 25  1  0  0  0  0
 21 26  1  0  0  0  0
 11 14  1  0  0  0  0
 11 15  1  0  0  0  0
 11 16  1  0  0  0  0
 38 40  1  0  0  0  0
 38 41  1  0  0  0  0
 38 42  1  0  0  0  0
 28 33  1  0  0  0  0
 18 23  1  0  0  0  0
  8 13  1  0  0  0  0
 37 39  1  0  0  0  0
  7 12  1  0  0  0  0
 27 32  1  0  0  0  0
 17 22  1  0  0  0  0
M  END
$$$$

  -OEChem-05262214473D

 42 41  0     1  0  0  0  0  0999 V2000
   -5.7851   -0.9580    0.6237 C   0  0  0  0  0  0  0  0  0  0  0  0
   -6.2213    0.1296    0.2652 O   0  0  0  0  0  0  0  0  0  0  0  0
   -6.7088   -2.1270    0.7168 C   0  0  0  0  0  0  0  0  0  0  0  0
   -7.1713   -2.2193    1.7126 H   0  0  0  0  0  0  0  0  0  0  0  0
   -7.5511   -2.0547    0.0101 H   0  0  0  0  0  0  0  0  0  0  0  0
   -6.2485   -3.1083    0.5191 H   0  0  0  0  0  0  0  0  0  0  0  0
   -4.4733   -1.2411    0.9668 N   0  0  0  0  0  0  0  0  0  0  0  0
   -3.4203   -0.2603    0.9449 C   0  0  2  0  0  0  0  0  0  0  0  0
   -2.1242   -0.9699    0.5759 C   0  0  0  0  0  0  0  0  0  0  0  0
   -1.8694   -2.1225    0.9189 O   0  0  0  0  0  0  0  0  0  0  0  0
   -3.2916    0.4435    2.2868 C   0  0  0  0  0  0  0  0  0  0  0  0
   -4.2421   -2.1920    1.2489 H   0  0  0  0  0  0  0  0  0  0  0  0
   -3.6772    0.4622    0.1625 H   0  0  0  0  0  0  0  0  0  0  0  0
   -3.0345   -0.2644    3.0832 H   0  0  0  0  0  0  0  0  0  0  0  0
   -2.5093    1.2092    2.2599 H   0  0  0  0  0  0  0  0  0  0  0  0
   -4.2338    0.9283    2.5645 H   0  0  0  0  0  0  0  0  0  0  0  0
   -1.2626   -0.1515   -0.1463 N   0  0  0  0  0  0  0  0  0  0  0  0
    0.0431   -0.5785   -0.5755 C   0  0  2  0  0  0  0  0  0  0  0  0
    0.8520   -0.9364    0.6643 C   0  0  0  0  0  0  0  0  0  0  0  0
    1.9205   -0.3981    0.9466 O   0  0  0  0  0  0  0  0  0  0  0  0
    0.7404    0.5032   -1.3859 C   0  0  0  0  0  0  0  0  0  0  0  0
   -1.5766    0.7776   -0.4197 H   0  0  0  0  0  0  0  0  0  0  0  0
   -0.1028   -1.4746   -1.1884 H   0  0  0  0  0  0  0  0  0  0  0  0
    0.8952    1.4090   -0.7884 H   0  0  0  0  0  0  0  0  0  0  0  0
    1.7217    0.1663   -1.7357 H   0  0  0  0  0  0  0  0  0  0  0  0
    0.1430    0.7804   -2.2611 H   0  0  0  0  0  0  0  0  0  0  0  0
    0.2639   -1.9596    1.3998 N   0  0  0  0  0  0  0  0  0  0  0  0
    0.8579   -2.5050    2.5919 C   0  0  2  0  0  0  0  0  0  0  0  0
    0.4866   -3.9800    2.6699 C   0  0  0  0  0  0  0  0  0  0  0  0
   -0.5899   -4.4225    2.2741 O   0  0  0  0  0  0  0  0  0  0  0  0
    0.3911   -1.7606    3.8331 C   0  0  0  0  0  0  0  0  0  0  0  0
   -0.6442   -2.3175    1.1102 H   0  0  0  0  0  0  0  0  0  0  0  0
    1.9430   -2.4065    2.4781 H   0  0  0  0  0  0  0  0  0  0  0  0
   -0.6937   -1.8479    3.9638 H   0  0  0  0  0  0  0  0  0  0  0  0
    0.8658   -2.1582    4.7362 H   0  0  0  0  0  0  0  0  0  0  0  0
    0.6325   -0.6946    3.7621 H   0  0  0  0  0  0  0  0  0  0  0  0
    1.4811   -4.7374    3.2727 N   0  0  0  0  0  0  0  0  0  0  0  0
    1.3489   -6.1572    3.5018 C   0  0  0  0  0  0  0  0  0  0  0  0
    2.3573   -4.2948    3.5335 H   0  0  0  0  0  0  0  0  0  0  0  0
    0.9382   -6.3302    4.5076 H   0  0  0  0  0  0  0  0  0  0  0  0
    0.6712   -6.5883    2.7502 H   0  0  0  0  0  0  0  0  0  0  0  0
    2.3365   -6.6349    3.4220 H   0  0  0  0  0  0  0  0  0  0  0  0
  1  3  1  0  0  0  0
  1  7  1  0  0  0  0
  1  2  2  0  0  0  0
 28 29  1  0  0  0  0
 29 37  1  0  0  0  0
 29 30  2  0  0  0  0
 18 19  1  0  0  0  0
 19 27  1  0  0  0  0
 19 20  2  0  0  0  0
  8  9  1  0  0  0  0
  9 17  1  0  0  0  0
  9 10  2  0  0  0  0
 28 31  1  0  0  0  0
 18 21  1  0  0  0  0
  8 11  1  0  0  0  0
 37 38  1  0  0  0  0
 27 28  1  0  0  0  0
 17 18  1  0  0  0  0
  7  8  1  0  0  0  0
  3  4  1  0  0  0  0
  3  5  1  0  0  0  0
  3  6  1  0  0  0  0
 31 34  1  0  0  0  0
 31 35  1  0  0  0  0
 31 36  1  0  0  0  0
 21 24  1  0  0  0  0
 21 25  1  0  0  0  0
 21 26  1  0  0  0  0
 11 14  1  0  0  0  0
 11 15  1  0  0  0  0
 11 16  1  0  0  0  0
 38 40  1  0  0  0  0
 38 41  1  0  0  0  0
 38 42  1  0  0  0  0
 28 33  1  0  0  0  0
 18 23  1  0  0  0  0
  8 13  1  0  0  0  0
 37 39  1  0  0  0  0
  7 12  1  0  0  0  0
 27 32  1  0  0  0  0
 17 22  1  0  0  0  0
M  END
$$$$

  -OEChem-05262214473D

 42 41  0     1  0  0  0  0  0999 V2000
   -5.7851   -0.9580    0.6237 C   0  0  0  0  0  0  0  0  0  0  0  0
   -6.2213    0.1296    0.2652 O   0  0  0  0  0  0  0  0  0  0  0  0
   -6.7088   -2.1270    0.7168 C   0  0  0  0  0  0  0  0  0  0  0  0
   -7.1713   -2.2193    1.7126 H   0  0  0  0  0  0  0  0  0  0  0  0
   -7.5511   -2.0547    0.0101 H   0  0  0  0  0  0  0  0  0  0  0  0
   -6.2485   -3.1083    0.5191 H   0  0  0  0  0  0  0  0  0  0  0  0
   -4.4733   -1.2411    0.9668 N   0  0  0  0  0  0  0  0  0  0  0  0
   -3.4203   -0.2603    0.9449 C   0  0  2  0  0  0  0  0  0  0  0  0
   -2.1242   -0.9699    0.5759 C   0  0  0  0  0  0  0  0  0  0  0  0
   -1.8694   -2.1225    0.9189 O   0  0  0  0  0  0  0  0  0  0  0  0
   -3.2916    0.4435    2.2868 C   0  0  0  0  0  0  0  0  0  0  0  0
   -4.2421   -2.1920    1.2489 H   0  0  0  0  0  0  0  0  0  0  0  0
   -3.6772    0.4622    0.1625 H   0  0  0  0  0  0  0  0  0  0  0  0
   -3.0345   -0.2644    3.0832 H   0  0  0  0  0  0  0  0  0  0  0  0
   -2.5093    1.2092    2.2599 H   0  0  0  0  0  0  0  0  0  0  0  0
   -4.2338    0.9283    2.5645 H   0  0  0  0  0  0  0  0  0  0  0  0
   -1.2626   -0.1515   -0.1463 N   0  0  0  0  0  0  0  0  0  0  0  0
    0.0431   -0.5785   -0.5755 C   0  0  2  0  0  0  0  0  0  0  0  0
    0.8520   -0.9364    0.6643 C   0  0  0  0  0  0  0  0  0  0  0  0
    1.7656   -0.2355    1.0945 O   0  0  0  0  0  0  0  0  0  0  0  0
    0.7404    0.5032   -1.3859 C   0  0  0  0  0  0  0  0  0  0  0  0
   -1.5766    0.7776   -0.4197 H   0  0  0  0  0  0  0  0  0  0  0  0
   -0.1028   -1.4746   -1.1884 H   0  0  0  0  0  0  0  0  0  0  0  0
    0.8952    1.4090   -0.7884 H   0  0  0  0  0  0  0  0  0  0  0  0
    1.7217    0.1663   -1.7357 H   0  0  0  0  0  0  0  0  0  0  0  0
    0.1430    0.7804   -2.2611 H   0  0  0  0  0  0  0  0  0  0  0  0
    0.4643   -2.1539    1.2129 N   0  0  0  0  0  0  0  0  0  0  0  0
    1.1061   -2.7308    2.3648 C   0  0  2  0  0  0  0  0  0  0  0  0
    1.0573   -4.2462    2.2207 C   0  0  0  0  0  0  0  0  0  0  0  0
    0.1206   -4.8397    1.6902 O   0  0  0  0  0  0  0  0  0  0  0  0
    0.4335   -2.2855    3.6540 C   0  0  0  0  0  0  0  0  0  0  0  0
   -0.3313   -2.6461    0.8112 H   0  0  0  0  0  0  0  0  0  0  0  0
    2.1487   -2.3951    2.3472 H   0  0  0  0  0  0  0  0  0  0  0  0
   -0.6120   -2.6127    3.6897 H   0  0  0  0  0  0  0  0  0  0  0  0
    0.9405   -2.7023    4.5305 H   0  0  0  0  0  0  0  0  0  0  0  0
    0.4432   -1.1937    3.7416 H   0  0  0  0  0  0  0  0  0  0  0  0
    2.1625   -4.8607    2.7925 N   0  0  0  0  0  0  0  0  0  0  0  0
    2.3281   -6.2951    2.8231 C   0  0  0  0  0  0  0  0  0  0  0  0
    2.9102   -4.2890    3.1745 H   0  0  0  0  0  0  0  0  0  0  0  0
    1.9184   -6.6921    3.7636 H   0  0  0  0  0  0  0  0  0  0  0  0
    1.7944   -6.7439    1.9725 H   0  0  0  0  0  0  0  0  0  0  0  0
    3.3980   -6.5420    2.7563 H   0  0  0  0  0  0  0  0  0  0  0  0
  1  3  1  0  0  0  0
  1  7  1  0  0  0  0
  1  2  2  0  0  0  0
 28 29  1  0  0  0  0
 29 37  1  0  0  0  0
 29 30  2  0  0  0  0
 18 19  1  0  0  0  0
 19 27  1  0  0  0  0
 19 20  2  0  0  0  0
  8  9  1  0  0  0  0
  9 17  1  0  0  0  0
  9 10  2  0  0  0  0
 28 31  1  0  0  0  0
 18 21  1  0  0  0  0
  8 11  1  0  0  0  0
 37 38  1  0  0  0  0
 27 28  1  0  0  0  0
 17 18  1  0  0  0  0
  7  8  1  0  0  0  0
  3  4  1  0  0  0  0
  3  5  1  0  0  0  0
  3  6  1  0  0  0  0
 31 34  1  0  0  0  0
 31 35  1  0  0  0  0
 31 36  1  0  0  0  0
 21 24  1  0  0  0  0
 21 25  1  0  0  0  0
 21 26  1  0  0  0  0
 11 14  1  0  0  0  0
 11 15  1  0  0  0  0
 11 16  1  0  0  0  0
 38 40  1  0  0  0  0
 38 41  1  0  0  0  0
 38 42  1  0  0  0  0
 28 33  1  0  0  0  0
 18 23  1  0  0  0  0
  8 13  1  0  0  0  0
 37 39  1  0  0  0  0
  7 12  1  0  0  0  0
 27 32  1  0  0  0  0
 17 22  1  0  0  0  0
M  END
$$$$

  -OEChem-05262214473D

 42 41  0     1  0  0  0  0  0999 V2000
   -5.7851   -0.9580    0.6237 C   0  0  0  0  0  0  0  0  0  0  0  0
   -6.2213    0.1296    0.2652 O   0  0  0  0  0  0  0  0  0  0  0  0
   -6.7088   -2.1270    0.7168 C   0  0  0  0  0  0  0  0  0  0  0  0
   -7.1713   -2.2193    1.7126 H   0  0  0  0  0  0  0  0  0  0  0  0
   -7.5511   -2.0547    0.0101 H   0  0  0  0  0  0  0  0  0  0  0  0
   -6.2485   -3.1083    0.5191 H   0  0  0  0  0  0  0  0  0  0  0  0
   -4.4733   -1.2411    0.9668 N   0  0  0  0  0  0  0  0  0  0  0  0
   -3.4203   -0.2603    0.9449 C   0  0  2  0  0  0  0  0  0  0  0  0
   -2.1242   -0.9699    0.5759 C   0  0  0  0  0  0  0  0  0  0  0  0
   -1.8694   -2.1225    0.9189 O   0  0  0  0  0  0  0  0  0  0  0  0
   -3.2916    0.4435    2.2868 C   0  0  0  0  0  0  0  0  0  0  0  0
   -4.2421   -2.1920    1.2489 H   0  0  0  0  0  0  0  0  0  0  0  0
   -3.6772    0.4622    0.1625 H   0  0  0  0  0  0  0  0  0  0  0  0
   -3.0345   -0.2644    3.0832 H   0  0  0  0  0  0  0  0  0  0  0  0
   -2.5093    1.2092    2.2599 H   0  0  0  0  0  0  0  0  0  0  0  0
   -4.2338    0.9283    2.5645 H   0  0  0  0  0  0  0  0  0  0  0  0
   -1.2626   -0.1515   -0.1463 N   0  0  0  0  0  0  0  0  0  0  0  0
    0.0431   -0.5785   -0.5755 C   0  0  2  0  0  0  0  0  0  0  0  0
    0.8520   -0.9364    0.6643 C   0  0  0  0  0  0  0  0  0  0  0  0
    1.5728   -0.1314    1.2504 O   0  0  0  0  0  0  0  0  0  0  0  0
    0.7404    0.5032   -1.3859 C   0  0  0  0  0  0  0  0  0  0  0  0
   -1.5766    0.7776   -0.4197 H   0  0  0  0  0  0  0  0  0  0  0  0
   -0.1028   -1.4746   -1.1884 H   0  0  0  0  0  0  0  0  0  0  0  0
    0.8952    1.4090   -0.7884 H   0  0  0  0  0  0  0  0  0  0  0  0
    1.7217    0.1663   -1.7357 H   0  0  0  0  0  0  0  0  0  0  0  0
    0.1430    0.7804   -2.2611 H   0  0  0  0  0  0  0  0  0  0  0  0
    0.7102   -2.2738    1.0179 N   0  0  0  0  0  0  0  0  0  0  0  0
    1.4072   -2.8654    2.1295 C   0  0  2  0  0  0  0  0  0  0  0  0
    1.6920   -4.3213    1.7849 C   0  0  0  0  0  0  0  0  0  0  0  0
    0.9302   -5.0128    1.1121 O   0  0  0  0  0  0  0  0  0  0  0  0
    0.5959   -2.7589    3.4113 C   0  0  0  0  0  0  0  0  0  0  0  0
    0.0584   -2.8565    0.4963 H   0  0  0  0  0  0  0  0  0  0  0  0
    2.3530   -2.3227    2.2348 H   0  0  0  0  0  0  0  0  0  0  0  0
   -0.3553   -3.2966    3.3248 H   0  0  0  0  0  0  0  0  0  0  0  0
    1.1397   -3.1838    4.2615 H   0  0  0  0  0  0  0  0  0  0  0  0
    0.3666   -1.7128    3.6416 H   0  0  0  0  0  0  0  0  0  0  0  0
    2.8759   -4.7702    2.3533 N   0  0  0  0  0  0  0  0  0  0  0  0
    3.3444   -6.1287    2.2082 C   0  0  0  0  0  0  0  0  0  0  0  0
    3.4647   -4.1176    2.8622 H   0  0  0  0  0  0  0  0  0  0  0  0
    2.9866   -6.7329    3.0549 H   0  0  0  0  0  0  0  0  0  0  0  0
    2.9594   -6.5508    1.2682 H   0  0  0  0  0  0  0  0  0  0  0  0
    4.4442   -6.1372    2.1906 H   0  0  0  0  0  0  0  0  0  0  0  0
  1  3  1  0  0  0  0
  1  7  1  0  0  0  0
  1  2  2  0  0  0  0
 28 29  1  0  0  0  0
 29 37  1  0  0  0  0
 29 30  2  0  0  0  0
 18 19  1  0  0  0  0
 19 27  1  0  0  0  0
 19 20  2  0  0  0  0
  8  9  1  0  0  0  0
  9 17  1  0  0  0  0
  9 10  2  0  0  0  0
 28 31  1  0  0  0  0
 18 21  1  0  0  0  0
  8 11  1  0  0  0  0
 37 38  1  0  0  0  0
 27 28  1  0  0  0  0
 17 18  1  0  0  0  0
  7  8  1  0  0  0  0
  3  4  1  0  0  0  0
  3  5  1  0  0  0  0
  3  6  1  0  0  0  0
 31 34  1  0  0  0  0
 31 35  1  0  0  0  0
 31 36  1  0  0  0  0
 21 24  1  0  0  0  0
 21 25  1  0  0  0  0
 21 26  1  0  0  0  0
 11 14  1  0  0  0  0
 11 15  1  0  0  0  0
 11 16  1  0  0  0  0
 38 40  1  0  0  0  0
 38 41  1  0  0  0  0
 38 42  1  0  0  0  0
 28 33  1  0  0  0  0
 18 23  1  0  0  0  0
  8 13  1  0  0  0  0
 37 39  1  0  0  0  0
  7 12  1  0  0  0  0
 27 32  1  0  0  0  0
 17 22  1  0  0  0  0
M  END
$$$$

  -OEChem-05262214473D

 42 41  0     1  0  0  0  0  0999 V2000
   -5.7851   -0.9580    0.6237 C   0  0  0  0  0  0  0  0  0  0  0  0
   -6.2213    0.1296    0.2652 O   0  0  0  0  0  0  0  0  0  0  0  0
   -6.7088   -2.1270    0.7168 C   0  0  0  0  0  0  0  0  0  0  0  0
   -7.1713   -2.2193    1.7126 H   0  0  0  0  0  0  0  0  0  0  0  0
   -7.5511   -2.0547    0.0101 H   0  0  0  0  0  0  0  0  0  0  0  0
   -6.2485   -3.1083    0.5191 H   0  0  0  0  0  0  0  0  0  0  0  0
   -4.4733   -1.2411    0.9668 N   0  0  0  0  0  0  0  0  0  0  0  0
   -3.4203   -0.2603    0.9449 C   0  0  2  0  0  0  0  0  0  0  0  0
   -2.1242   -0.9699    0.5759 C   0  0  0  0  0  0  0  0  0  0  0  0
   -1.8694   -2.1225    0.9189 O   0  0  0  0  0  0  0  0  0  0  0  0
   -3.2916    0.4435    2.2868 C   0  0  0  0  0  0  0  0  0  0  0  0
   -4.2421   -2.1920    1.2489 H   0  0  0  0  0  0  0  0  0  0  0  0
   -3.6772    0.4622    0.1625 H   0  0  0  0  0  0  0  0  0  0  0  0
   -3.0345   -0.2644    3.0832 H   0  0  0  0  0  0  0  0  0  0  0  0
   -2.5093    1.2092    2.2599 H   0  0  0  0  0  0  0  0  0  0  0  0
   -4.2338    0.9283    2.5645 H   0  0  0  0  0  0  0  0  0  0  0  0
   -1.2626   -0.1515   -0.1463 N   0  0  0  0  0  0  0  0  0  0  0  0
    0.0431   -0.5785   -0.5755 C   0  0  2  0  0  0  0  0  0  0  0  0
    0.8520   -0.9364    0.6643 C   0  0  0  0  0  0  0  0  0  0  0  0
    1.3551   -0.0929    1.4035 O   0  0  0  0  0  0  0  0  0  0  0  0
    0.7404    0.5032   -1.3859 C   0  0  0  0  0  0  0  0  0  0  0  0
   -1.5766    0.7776   -0.4197 H   0  0  0  0  0  0  0  0  0  0  0  0
   -0.1028   -1.4746   -1.1884 H   0  0  0  0  0  0  0  0  0  0  0  0
    0.8952    1.4090   -0.7884 H   0  0  0  0  0  0  0  0  0  0  0  0
    1.7217    0.1663   -1.7357 H   0  0  0  0  0  0  0  0  0  0  0  0
    0.1430    0.7804   -2.2611 H   0  0  0  0  0  0  0  0  0  0  0  0
    0.9848   -2.3109    0.8280 N   0  0  0  0  0  0  0  0  0  0  0  0
    1.7407   -2.8996    1.9020 C   0  0  2  0  0  0  0  0  0  0  0  0
    2.3474   -4.2003    1.3923 C   0  0  0  0  0  0  0  0  0  0  0  0
    1.7839   -4.9298    0.5791 O   0  0  0  0  0  0  0  0  0  0  0  0
    0.8673   -3.1486    3.1218 C   0  0  0  0  0  0  0  0  0  0  0  0
    0.4983   -2.9343    0.1868 H   0  0  0  0  0  0  0  0  0  0  0  0
    2.5418   -2.1943    2.1486 H   0  0  0  0  0  0  0  0  0  0  0  0
    0.0589   -3.8529    2.8940 H   0  0  0  0  0  0  0  0  0  0  0  0
    1.4499   -3.5700    3.9476 H   0  0  0  0  0  0  0  0  0  0  0  0
    0.4082   -2.2167    3.4691 H   0  0  0  0  0  0  0  0  0  0  0  0
    3.5726   -4.4721    1.9847 N   0  0  0  0  0  0  0  0  0  0  0  0
    4.3283   -5.6693    1.6989 C   0  0  0  0  0  0  0  0  0  0  0  0
    3.9833   -3.7922    2.6178 H   0  0  0  0  0  0  0  0  0  0  0  0
    4.0702   -6.4498    2.4297 H   0  0  0  0  0  0  0  0  0  0  0  0
    4.0868   -6.0219    0.6853 H   0  0  0  0  0  0  0  0  0  0  0  0
    5.4039   -5.4479    1.7635 H   0  0  0  0  0  0  0  0  0  0  0  0
  1  3  1  0  0  0  0
  1  7  1  0  0  0  0
  1  2  2  0  0  0  0
 28 29  1  0  0  0  0
 29 37  1  0  0  0  0
 29 30  2  0  0  0  0
 18 19  1  0  0  0  0
 19 27  1  0  0  0  0
 19 20  2  0  0  0  0
  8  9  1  0  0  0  0
  9 17  1  0  0  0  0
  9 10  2  0  0  0  0
 28 31  1  0  0  0  0
 18 21  1  0  0  0  0
  8 11  1  0  0  0  0
 37 38  1  0  0  0  0
 27 28  1  0  0  0  0
 17 18  1  0  0  0  0
  7  8  1  0  0  0  0
  3  4  1  0  0  0  0
  3  5  1  0  0  0  0
  3  6  1  0  0  0  0
 31 34  1  0  0  0  0
 31 35  1  0  0  0  0
 31 36  1  0  0  0  0
 21 24  1  0  0  0  0
 21 25  1  0  0  0  0
 21 26  1  0  0  0  0
 11 14  1  0  0  0  0
 11 15  1  0  0  0  0
 11 16  1  0  0  0  0
 38 40  1  0  0  0  0
 38 41  1  0  0  0  0
 38 42  1  0  0  0  0
 28 33  1  0  0  0  0
 18 23  1  0  0  0  0
  8 13  1  0  0  0  0
 37 39  1  0  0  0  0
  7 12  1  0  0  0  0
 27 32  1  0  0  0  0
 17 22  1  0  0  0  0
M  END
$$$$

  -OEChem-05262214473D

 42 41  0     1  0  0  0  0  0999 V2000
   -5.7851   -0.9580    0.6237 C   0  0  0  0  0  0  0  0  0  0  0  0
   -6.2213    0.1296    0.2652 O   0  0  0  0  0  0  0  0  0  0  0  0
   -6.7088   -2.1270    0.7168 C   0  0  0  0  0  0  0  0  0  0  0  0
   -7.1713   -2.2193    1.7126 H   0  0  0  0  0  0  0  0  0  0  0  0
   -7.5511   -2.0547    0.0101 H   0  0  0  0  0  0  0  0  0  0  0  0
   -6.2485   -3.1083    0.5191 H   0  0  0  0  0  0  0  0  0  0  0  0
   -4.4733   -1.2411    0.9668 N   0  0  0  0  0  0  0  0  0  0  0  0
   -3.4203   -0.2603    0.9449 C   0  0  2  0  0  0  0  0  0  0  0  0
   -2.1242   -0.9699    0.5759 C   0  0  0  0  0  0  0  0  0  0  0  0
   -1.8694   -2.1225    0.9189 O   0  0  0  0  0  0  0  0  0  0  0  0
   -3.2916    0.4435    2.2868 C   0  0  0  0  0  0  0  0  0  0  0  0
   -4.2421   -2.1920    1.2489 H   0  0  0  0  0  0  0  0  0  0  0  0
   -3.6772    0.4622    0.1625 H   0  0  0  0  0  0  0  0  0  0  0  0
   -3.0345   -0.2644    3.0832 H   0  0  0  0  0  0  0  0  0  0  0  0
   -2.5093    1.2092    2.2599 H   0  0  0  0  0  0  0  0  0  0  0  0
   -4.2338    0.9283    2.5645 H   0  0  0  0  0  0  0  0  0  0  0  0
   -1.2626   -0.1515   -0.1463 N   0  0  0  0  0  0  0  0  0  0  0  0
    0.0431   -0.5785   -0.5755 C   0  0  2  0  0  0  0  0  0  0  0  0
    0.8520   -0.9364    0.6643 C   0  0  0  0  0  0  0  0  0  0  0  0
    1.1274   -0.1226    1.5435 O   0  0  0  0  0  0  0  0  0  0  0  0
    0.7404    0.5032   -1.3859 C   0  0  0  0  0  0  0  0  0  0  0  0
   -1.5766    0.7776   -0.4197 H   0  0  0  0  0  0  0  0  0  0  0  0
   -0.1028   -1.4746   -1.1884 H   0  0  0  0  0  0  0  0  0  0  0  0
    0.8952    1.4090   -0.7884 H   0  0  0  0  0  0  0  0  0  0  0  0
    1.7217    0.1663   -1.7357 H   0  0  0  0  0  0  0  0  0  0  0  0
    0.1430    0.7804   -2.2611 H   0  0  0  0  0  0  0  0  0  0  0  0
    1.2695   -2.2628    0.6562 N   0  0  0  0  0  0  0  0  0  0  0  0
    2.0840   -2.8311    1.6978 C   0  0  2  0  0  0  0  0  0  0  0  0
    2.9788   -3.8913    1.0695 C   0  0  0  0  0  0  0  0  0  0  0  0
    2.6234   -4.5966    0.1275 O   0  0  0  0  0  0  0  0  0  0  0  0
    1.2292   -3.4280    2.8050 C   0  0  0  0  0  0  0  0  0  0  0  0
    0.9584   -2.8743   -0.0960 H   0  0  0  0  0  0  0  0  0  0  0  0
    2.7025   -2.0187    2.0945 H   0  0  0  0  0  0  0  0  0  0  0  0
    0.6025   -4.2437    2.4266 H   0  0  0  0  0  0  0  0  0  0  0  0
    1.8501   -3.8345    3.6102 H   0  0  0  0  0  0  0  0  0  0  0  0
    0.5650   -2.6709    3.2357 H   0  0  0  0  0  0  0  0  0  0  0  0
    4.2052   -3.9868    1.7121 N   0  0  0  0  0  0  0  0  0  0  0  0
    5.2129   -4.9482    1.3299 C   0  0  0  0  0  0  0  0  0  0  0  0
    4.4306   -3.3351    2.4580 H   0  0  0  0  0  0  0  0  0  0  0  0
    5.0952   -5.8621    1.9307 H   0  0  0  0  0  0  0  0  0  0  0  0
    5.0998   -5.1934    0.2636 H   0  0  0  0  0  0  0  0  0  0  0  0
    6.2116   -4.5212    1.5040 H   0  0  0  0  0  0  0  0  0  0  0  0
  1  3  1  0  0  0  0
  1  7  1  0  0  0  0
  1  2  2  0  0  0  0
 28 29  1  0  0  0  0
 29 37  1  0  0  0  0
 29 30  2  0  0  0  0
 18 19  1  0  0  0  0
 19 27  1  0  0  0  0
 19 20  2  0  0  0  0
  8  9  1  0  0  0  0
  9 17  1  0  0  0  0
  9 10  2  0  0  0  0
 28 31  1  0  0  0  0
 18 21  1  0  0  0  0
  8 11  1  0  0  0  0
 37 38  1  0  0  0  0
 27 28  1  0  0  0  0
 17 18  1  0  0  0  0
  7  8  1  0  0  0  0
  3  4  1  0  0  0  0
  3  5  1  0  0  0  0
  3  6  1  0  0  0  0
 31 34  1  0  0  0  0
 31 35  1  0  0  0  0
 31 36  1  0  0  0  0
 21 24  1  0  0  0  0
 21 25  1  0  0  0  0
 21 26  1  0  0  0  0
 11 14  1  0  0  0  0
 11 15  1  0  0  0  0
 11 16  1  0  0  0  0
 38 40  1  0  0  0  0
 38 41  1  0  0  0  0
 38 42  1  0  0  0  0
 28 33  1  0  0  0  0
 18 23  1  0  0  0  0
  8 13  1  0  0  0  0
 37 39  1  0  0  0  0
  7 12  1  0  0  0  0
 27 32  1  0  0  0  0
 17 22  1  0  0  0  0
M  END
$$$$

  -OEChem-05262214473D

 42 41  0     1  0  0  0  0  0999 V2000
   -5.7851   -0.9580    0.6237 C   0  0  0  0  0  0  0  0  0  0  0  0
   -6.2213    0.1296    0.2652 O   0  0  0  0  0  0  0  0  0  0  0  0
   -6.7088   -2.1270    0.7168 C   0  0  0  0  0  0  0  0  0  0  0  0
   -7.1713   -2.2193    1.7126 H   0  0  0  0  0  0  0  0  0  0  0  0
   -7.5511   -2.0547    0.0101 H   0  0  0  0  0  0  0  0  0  0  0  0
   -6.2485   -3.1083    0.5191 H   0  0  0  0  0  0  0  0  0  0  0  0
   -4.4733   -1.2411    0.9668 N   0  0  0  0  0  0  0  0  0  0  0  0
   -3.4203   -0.2603    0.9449 C   0  0  2  0  0  0  0  0  0  0  0  0
   -2.1242   -0.9699    0.5759 C   0  0  0  0  0  0  0  0  0  0  0  0
   -1.8694   -2.1225    0.9189 O   0  0  0  0  0  0  0  0  0  0  0  0
   -3.2916    0.4435    2.2868 C   0  0  0  0  0  0  0  0  0  0  0  0
   -4.2421   -2.1920    1.2489 H   0  0  0  0  0  0  0  0  0  0  0  0
   -3.6772    0.4622    0.1625 H   0  0  0  0  0  0  0  0  0  0  0  0
   -3.0345   -0.2644    3.0832 H   0  0  0  0  0  0  0  0  0  0  0  0
   -2.5093    1.2092    2.2599 H   0  0  0  0  0  0  0  0  0  0  0  0
   -4.2338    0.9283    2.5645 H   0  0  0  0  0  0  0  0  0  0  0  0
   -1.2626   -0.1515   -0.1463 N   0  0  0  0  0  0  0  0  0  0  0  0
    0.0431   -0.5785   -0.5755 C   0  0  2  0  0  0  0  0  0  0  0  0
    0.8520   -0.9364    0.6643 C   0  0  0  0  0  0  0  0  0  0  0  0
    0.9053   -0.2185    1.6607 O   0  0  0  0  0  0  0  0  0  0  0  0
    0.7404    0.5032   -1.3859 C   0  0  0  0  0  0  0  0  0  0  0  0
   -1.5766    0.7776   -0.4197 H   0  0  0  0  0  0  0  0  0  0  0  0
   -0.1028   -1.4746   -1.1884 H   0  0  0  0  0  0  0  0  0  0  0  0
    0.8952    1.4090   -0.7884 H   0  0  0  0  0  0  0  0  0  0  0  0
    1.7217    0.1663   -1.7357 H   0  0  0  0  0  0  0  0  0  0  0  0
    0.1430    0.7804   -2.2611 H   0  0  0  0  0  0  0  0  0  0  0  0
    1.5448   -2.1327    0.5142 N   0  0  0  0  0  0  0  0  0  0  0  0
    2.4135   -2.6646    1.5309 C   0  0  2  0  0  0  0  0  0  0  0  0
    3.5433   -3.4154    0.8386 C   0  0  0  0  0  0  0  0  0  0  0  0
    3.3916   -4.0358   -0.2117 O   0  0  0  0  0  0  0  0  0  0  0  0
    1.6569   -3.5781    2.4827 C   0  0  0  0  0  0  0  0  0  0  0  0
    1.4074   -2.6804   -0.3330 H   0  0  0  0  0  0  0  0  0  0  0  0
    2.8240   -1.8077    2.0762 H   0  0  0  0  0  0  0  0  0  0  0  0
    1.2383   -4.4425    1.9544 H   0  0  0  0  0  0  0  0  0  0  0  0
    2.3128   -3.9593    3.2723 H   0  0  0  0  0  0  0  0  0  0  0  0
    0.8263   -3.0445    2.9573 H   0  0  0  0  0  0  0  0  0  0  0  0
    4.7305   -3.3472    1.5540 N   0  0  0  0  0  0  0  0  0  0  0  0
    5.9379   -4.0146    1.1264 C   0  0  0  0  0  0  0  0  0  0  0  0
    4.7759   -2.7773    2.3937 H   0  0  0  0  0  0  0  0  0  0  0  0
    5.9918   -5.0099    1.5917 H   0  0  0  0  0  0  0  0  0  0  0  0
    5.9294   -4.1217    0.0317 H   0  0  0  0  0  0  0  0  0  0  0  0
    6.8124   -3.4203    1.4299 H   0  0  0  0  0  0  0  0  0  0  0  0
  1  3  1  0  0  0  0
  1  7  1  0  0  0  0
  1  2  2  0  0  0  0
 28 29  1  0  0  0  0
 29 37  1  0  0  0  0
 29 30  2  0  0  0  0
 18 19  1  0  0  0  0
 19 27  1  0  0  0  0
 19 20  2  0  0  0  0
  8  9  1  0  0  0  0
  9 17  1  0  0  0  0
  9 10  2  0  0  0  0
 28 31  1  0  0  0  0
 18 21  1  0  0  0  0
  8 11  1  0  0  0  0
 37 38  1  0  0  0  0
 27 28  1  0  0  0  0
 17 18  1  0  0  0  0
  7  8  1  0  0  0  0
  3  4  1  0  0  0  0
  3  5  1  0  0  0  0
  3  6  1  0  0  0  0
 31 34  1  0  0  0  0
 31 35  1  0  0  0  0
 31 36  1  0  0  0  0
 21 24  1  0  0  0  0
 21 25  1  0  0  0  0
 21 26  1  0  0  0  0
 11 14  1  0  0  0  0
 11 15  1  0  0  0  0
 11 16  1  0  0  0  0
 38 40  1  0  0  0  0
 38 41  1  0  0  0  0
 38 42  1  0  0  0  0
 28 33  1  0  0  0  0
 18 23  1  0  0  0  0
  8 13  1  0  0  0  0
 37 39  1  0  0  0  0
  7 12  1  0  0  0  0
 27 32  1  0  0  0  0
 17 22  1  0  0  0  0
M  END
$$$$

  -OEChem-05262214473D

 42 41  0     1  0  0  0  0  0999 V2000
   -5.7851   -0.9580    0.6237 C   0  0  0  0  0  0  0  0  0  0  0  0
   -6.2213    0.1296    0.2652 O   0  0  0  0  0  0  0  0  0  0  0  0
   -6.7088   -2.1270    0.7168 C   0  0  0  0  0  0  0  0  0  0  0  0
   -7.1713   -2.2193    1.7126 H   0  0  0  0  0  0  0  0  0  0  0  0
   -7.5511   -2.0547    0.0101 H   0  0  0  0  0  0  0  0  0  0  0  0
   -6.2485   -3.1083    0.5191 H   0  0  0  0  0  0  0  0  0  0  0  0
   -4.4733   -1.2411    0.9668 N   0  0  0  0  0  0  0  0  0  0  0  0
   -3.4203   -0.2603    0.9449 C   0  0  2  0  0  0  0  0  0  0  0  0
   -2.1242   -0.9699    0.5759 C   0  0  0  0  0  0  0  0  0  0  0  0
   -1.8694   -2.1225    0.9189 O   0  0  0  0  0  0  0  0  0  0  0  0
   -3.2916    0.4435    2.2868 C   0  0  0  0  0  0  0  0  0  0  0  0
   -4.2421   -2.1920    1.2489 H   0  0  0  0  0  0  0  0  0  0  0  0
   -3.6772    0.4622    0.1625 H   0  0  0  0  0  0  0  0  0  0  0  0
   -3.0345   -0.2644    3.0832 H   0  0  0  0  0  0  0  0  0  0  0  0
   -2.5093    1.2092    2.2599 H   0  0  0  0  0  0  0  0  0  0  0  0
   -4.2338    0.9283    2.5645 H   0  0  0  0  0  0  0  0  0  0  0  0
   -1.2626   -0.1515   -0.1463 N   0  0  0  0  0  0  0  0  0  0  0  0
    0.0431   -0.5785   -0.5755 C   0  0  2  0  0  0  0  0  0  0  0  0
    0.8520   -0.9364    0.6643 C   0  0  0  0  0  0  0  0  0  0  0  0
    0.7037   -0.3741    1.7473 O   0  0  0  0  0  0  0  0  0  0  0  0
    0.7404    0.5032   -1.3859 C   0  0  0  0  0  0  0  0  0  0  0  0
   -1.5766    0.7776   -0.4197 H   0  0  0  0  0  0  0  0  0  0  0  0
   -0.1028   -1.4746   -1.1884 H   0  0  0  0  0  0  0  0  0  0  0  0
    0.8952    1.4090   -0.7884 H   0  0  0  0  0  0  0  0  0  0  0  0
    1.7217    0.1663   -1.7357 H   0  0  0  0  0  0  0  0  0  0  0  0
    0.1430    0.7804   -2.2611 H   0  0  0  0  0  0  0  0  0  0  0  0
    1.7919   -1.9296    0.4116 N   0  0  0  0  0  0  0  0  0  0  0  0
    2.7068   -2.4114    1.4127 C   0  0  2  0  0  0  0  0  0  0  0  0
    4.0023   -2.8051    0.7153 C   0  0  0  0  0  0  0  0  0  0  0  0
    4.0360   -3.2856   -0.4156 O   0  0  0  0  0  0  0  0  0  0  0  0
    2.1212   -3.5887    2.1767 C   0  0  0  0  0  0  0  0  0  0  0  0
    1.8146   -2.3660   -0.5080 H   0  0  0  0  0  0  0  0  0  0  0  0
    2.8979   -1.5759    2.0948 H   0  0  0  0  0  0  0  0  0  0  0  0
    1.9230   -4.4356    1.5096 H   0  0  0  0  0  0  0  0  0  0  0  0
    2.8067   -3.9359    2.9569 H   0  0  0  0  0  0  0  0  0  0  0  0
    1.1744   -3.3121    2.6530 H   0  0  0  0  0  0  0  0  0  0  0  0
    5.1129   -2.5970    1.5212 N   0  0  0  0  0  0  0  0  0  0  0  0
    6.4539   -2.9321    1.1023 C   0  0  0  0  0  0  0  0  0  0  0  0
    4.9960   -2.1570    2.4292 H   0  0  0  0  0  0  0  0  0  0  0  0
    6.6989   -3.9512    1.4360 H   0  0  0  0  0  0  0  0  0  0  0  0
    6.5191   -2.8799    0.0055 H   0  0  0  0  0  0  0  0  0  0  0  0
    7.1652   -2.2200    1.5462 H   0  0  0  0  0  0  0  0  0  0  0  0
  1  3  1  0  0  0  0
  1  7  1  0  0  0  0
  1  2  2  0  0  0  0
 28 29  1  0  0  0  0
 29 37  1  0  0  0  0
 29 30  2  0  0  0  0
 18 19  1  0  0  0  0
 19 27  1  0  0  0  0
 19 20  2  0  0  0  0
  8  9  1  0  0  0  0
  9 17  1  0  0  0  0
  9 10  2  0  0  0  0
 28 31  1  0  0  0  0
 18 21  1  0  0  0  0
  8 11  1  0  0  0  0
 37 38  1  0  0  0  0
 27 28  1  0  0  0  0
 17 18  1  0  0  0  0
  7  8  1  0  0  0  0
  3  4  1  0  0  0  0
  3  5  1  0  0  0  0
  3  6  1  0  0  0  0
 31 34  1  0  0  0  0
 31 35  1  0  0  0  0
 31 36  1  0  0  0  0
 21 24  1  0  0  0  0
 21 25  1  0  0  0  0
 21 26  1  0  0  0  0
 11 14  1  0  0  0  0
 11 15  1  0  0  0  0
 11 16  1  0  0  0  0
 38 40  1  0  0  0  0
 38 41  1  0  0  0  0
 38 42  1  0  0  0  0
 28 33  1  0  0  0  0
 18 23  1  0  0  0  0
  8 13  1  0  0  0  0
 37 39  1  0  0  0  0
  7 12  1  0  0  0  0
 27 32  1  0  0  0  0
 17 22  1  0  0  0  0
M  END
$$$$

  -OEChem-05262214473D

 42 41  0     1  0  0  0  0  0999 V2000
   -5.7851   -0.9580    0.6237 C   0  0  0  0  0  0  0  0  0  0  0  0
   -6.2213    0.1296    0.2652 O   0  0  0  0  0  0  0  0  0  0  0  0
   -6.7088   -2.1270    0.7168 C   0  0  0  0  0  0  0  0  0  0  0  0
   -7.1713   -2.2193    1.7126 H   0  0  0  0  0  0  0  0  0  0  0  0
   -7.5511   -2.0547    0.0101 H   0  0  0  0  0  0  0  0  0  0  0  0
   -6.2485   -3.1083    0.5191 H   0  0  0  0  0  0  0  0  0  0  0  0
   -4.4733   -1.2411    0.9668 N   0  0  0  0  0  0  0  0  0  0  0  0
   -3.4203   -0.2603    0.9449 C   0  0  2  0  0  0  0  0  0  0  0  0
   -2.1242   -0.9699    0.5759 C   0  0  0  0  0  0  0  0  0  0  0  0
   -1.8694   -2.1225    0.9189 O   0  0  0  0  0  0  0  0  0  0  0  0
   -3.2916    0.4435    2.2868 C   0  0  0  0  0  0  0  0  0  0  0  0
   -4.2421   -2.1920    1.2489 H   0  0  0  0  0  0  0  0  0  0  0  0
   -3.6772    0.4622    0.1625 H   0  0  0  0  0  0  0  0  0  0  0  0
   -3.0345   -0.2644    3.0832 H   0  0  0  0  0  0  0  0  0  0  0  0
   -2.5093    1.2092    2.2599 H   0  0  0  0  0  0  0  0  0  0  0  0
   -4.2338    0.9283    2.5645 H   0  0  0  0  0  0  0  0  0  0  0  0
   -1.2626   -0.1515   -0.1463 N   0  0  0  0  0  0  0  0  0  0  0  0
    0.0431   -0.5785   -0.5755 C   0  0  2  0  0  0  0  0  0  0  0  0
    0.8520   -0.9364    0.6643 C   0  0  0  0  0  0  0  0  0  0  0  0
    0.5366   -0.5787    1.7973 O   0  0  0  0  0  0  0  0  0  0  0  0
    0.7404    0.5032   -1.3859 C   0  0  0  0  0  0  0  0  0  0  0  0
   -1.5766    0.7776   -0.4197 H   0  0  0  0  0  0  0  0  0  0  0  0
   -0.1028   -1.4746   -1.1884 H   0  0  0  0  0  0  0  0  0  0  0  0
    0.8952    1.4090   -0.7884 H   0  0  0  0  0  0  0  0  0  0  0  0
    1.7217    0.1663   -1.7357 H   0  0  0  0  0  0  0  0  0  0  0  0
    0.1430    0.7804   -2.2611 H   0  0  0  0  0  0  0  0  0  0  0  0
    1.9940   -1.6672    0.3554 N   0  0  0  0  0  0  0  0  0  0  0  0
    2.9440   -2.0887    1.3511 C   0  0  2  0  0  0  0  0  0  0  0  0
    4.3245   -2.1020    0.7081 C   0  0  0  0  0  0  0  0  0  0  0  0
    4.5129   -2.3972   -0.4703 O   0  0  0  0  0  0  0  0  0  0  0  0
    2.5906   -3.4590    1.9079 C   0  0  0  0  0  0  0  0  0  0  0  0
    2.1524   -1.9525   -0.6090 H   0  0  0  0  0  0  0  0  0  0  0  0
    2.9194   -1.3389    2.1492 H   0  0  0  0  0  0  0  0  0  0  0  0
    2.6100   -4.2236    1.1227 H   0  0  0  0  0  0  0  0  0  0  0  0
    3.2979   -3.7658    2.6854 H   0  0  0  0  0  0  0  0  0  0  0  0
    1.5855   -3.4554    2.3434 H   0  0  0  0  0  0  0  0  0  0  0  0
    5.3261   -1.7873    1.6158 N   0  0  0  0  0  0  0  0  0  0  0  0
    6.7256   -1.7744    1.2592 C   0  0  0  0  0  0  0  0  0  0  0  0
    5.0756   -1.5163    2.5622 H   0  0  0  0  0  0  0  0  0  0  0  0
    7.1683   -2.7582    1.4742 H   0  0  0  0  0  0  0  0  0  0  0  0
    6.8286   -1.5525    0.1868 H   0  0  0  0  0  0  0  0  0  0  0  0
    7.2460   -1.0024    1.8450 H   0  0  0  0  0  0  0  0  0  0  0  0
  1  3  1  0  0  0  0
  1  7  1  0  0  0  0
  1  2  2  0  0  0  0
 28 29  1  0  0  0  0
 29 37  1  0  0  0  0
 29 30  2  0  0  0  0
 18 19  1  0  0  0  0
 19 27  1  0  0  0  0
 19 20  2  0  0  0  0
  8  9  1  0  0  0  0
  9 17  1  0  0  0  0
  9 10  2  0  0  0  0
 28 31  1  0  0  0  0
 18 21  1  0  0  0  0
  8 11  1  0  0  0  0
 37 38  1  0  0  0  0
 27 28  1  0  0  0  0
 17 18  1  0  0  0  0
  7  8  1  0  0  0  0
  3  4  1  0  0  0  0
  3  5  1  0  0  0  0
  3  6  1  0  0  0  0
 31 34  1  0  0  0  0
 31 35  1  0  0  0  0
 31 36  1  0  0  0  0
 21 24  1  0  0  0  0
 21 25  1  0  0  0  0
 21 26  1  0  0  0  0
 11 14  1  0  0  0  0
 11 15  1  0  0  0  0
 11 16  1  0  0  0  0
 38 40  1  0  0  0  0
 38 41  1  0  0  0  0
 38 42  1  0  0  0  0
 28 33  1  0  0  0  0
 18 23  1  0  0  0  0
  8 13  1  0  0  0  0
 37 39  1  0  0  0  0
  7 12  1  0  0  0  0
 27 32  1  0  0  0  0
 17 22  1  0  0  0  0
M  END
$$$$

  -OEChem-05262214473D

 42 41  0     1  0  0  0  0  0999 V2000
   -5.7851   -0.9580    0.6237 C   0  0  0  0  0  0  0  0  0  0  0  0
   -6.2213    0.1296    0.2652 O   0  0  0  0  0  0  0  0  0  0  0  0
   -6.7088   -2.1270    0.7168 C   0  0  0  0  0  0  0  0  0  0  0  0
   -7.1713   -2.2193    1.7126 H   0  0  0  0  0  0  0  0  0  0  0  0
   -7.5511   -2.0547    0.0101 H   0  0  0  0  0  0  0  0  0  0  0  0
   -6.2485   -3.1083    0.5191 H   0  0  0  0  0  0  0  0  0  0  0  0
   -4.4733   -1.2411    0.9668 N   0  0  0  0  0  0  0  0  0  0  0  0
   -3.4203   -0.2603    0.9449 C   0  0  2  0  0  0  0  0  0  0  0  0
   -2.1242   -0.9699    0.5759 C   0  0  0  0  0  0  0  0  0  0  0  0
   -1.8694   -2.1225    0.9189 O   0  0  0  0  0  0  0  0  0  0  0  0
   -3.2916    0.4435    2.2868 C   0  0  0  0  0  0  0  0  0  0  0  0
   -4.2421   -2.1920    1.2489 H   0  0  0  0  0  0  0  0  0  0  0  0
   -3.6772    0.4622    0.1625 H   0  0  0  0  0  0  0  0  0  0  0  0
   -3.0345   -0.2644    3.0832 H   0  0  0  0  0  0  0  0  0  0  0  0
   -2.5093    1.2092    2.2599 H   0  0  0  0  0  0  0  0  0  0  0  0
   -4.2338    0.9283    2.5645 H   0  0  0  0  0  0  0  0  0  0  0  0
   -1.2626   -0.1515   -0.1463 N   0  0  0  0  0  0  0  0  0  0  0  0
    0.0431   -0.5785   -0.5755 C   0  0  2  0  0  0  0  0  0  0  0  0
    0.7161   -1.2825    0.5953 C   0  0  0  0  0  0  0  0  0  0  0  0
    0.1917   -1.3955    1.7014 O   0  0  0  0  0  0  0  0  0  0  0  0
    0.8794    0.5972   -1.0564 C   0  0  0  0  0  0  0  0  0  0  0  0
   -1.5766    0.7776   -0.4197 H   0  0  0  0  0  0  0  0  0  0  0  0
   -0.1101   -1.2921   -1.3923 H   0  0  0  0  0  0  0  0  0  0  0  0
    1.0435    1.3230   -0.2515 H   0  0  0  0  0  0  0  0  0  0  0  0
    1.8621    0.2671   -1.4092 H   0  0  0  0  0  0  0  0  0  0  0  0
    0.3798    1.1203   -1.8789 H   0  0  0  0  0  0  0  0  0  0  0  0
    1.9919   -1.7343    0.2757 N   0  0  0  0  0  0  0  0  0  0  0  0
    2.8472   -2.3943    1.2265 C   0  0  2  0  0  0  0  0  0  0  0  0
    4.2888   -2.0364    0.8900 C   0  0  0  0  0  0  0  0  0  0  0  0
    4.6855   -1.8616   -0.2603 O   0  0  0  0  0  0  0  0  0  0  0  0
    2.6416   -3.9009    1.2032 C   0  0  0  0  0  0  0  0  0  0  0  0
    2.3276   -1.6313   -0.6799 H   0  0  0  0  0  0  0  0  0  0  0  0
    2.5917   -1.9935    2.2134 H   0  0  0  0  0  0  0  0  0  0  0  0
    2.8926   -4.3206    0.2222 H   0  0  0  0  0  0  0  0  0  0  0  0
    3.2723   -4.3990    1.9469 H   0  0  0  0  0  0  0  0  0  0  0  0
    1.5976   -4.1551    1.4161 H   0  0  0  0  0  0  0  0  0  0  0  0
    5.0898   -1.9776    2.0218 N   0  0  0  0  0  0  0  0  0  0  0  0
    6.5055   -1.6981    1.9614 C   0  0  0  0  0  0  0  0  0  0  0  0
    4.6689   -2.0964    2.9386 H   0  0  0  0  0  0  0  0  0  0  0  0
    7.0644   -2.6439    1.9056 H   0  0  0  0  0  0  0  0  0  0  0  0
    6.7216   -1.0915    1.0696 H   0  0  0  0  0  0  0  0  0  0  0  0
    6.8089   -1.1457    2.8630 H   0  0  0  0  0  0  0  0  0  0  0  0
  1  3  1  0  0  0  0
  1  7  1  0  0  0  0
  1  2  2  0  0  0  0
 28 29  1  0  0  0  0
 29 37  1  0  0  0  0
 29 30  2  0  0  0  0
 18 19  1  0  0  0  0
 19 27  1  0  0  0  0
 19 20  2  0  0  0  0
  8  9  1  0  0  0  0
  9 17  1  0  0  0  0
  9 10  2  0  0  0  0
 28 31  1  0  0  0  0
 18 21  1  0  0  0  0
  8 11  1  0  0  0  0
 37 38  1  0  0  0  0
 27 28  1  0  0  0  0
 17 18  1  0  0  0  0
  7  8  1  0  0  0  0
  3  4  1  0  0  0  0
  3  5  1  0  0  0  0
  3  6  1  0  0  0  0
 31 34  1  0  0  0  0
 31 35  1  0  0  0  0
 31 36  1  0  0  0  0
 21 24  1  0  0  0  0
 21 25  1  0  0  0  0
 21 26  1  0  0  0  0
 11 14  1  0  0  0  0
 11 15  1  0  0  0  0
 11 16  1  0  0  0  0
 38 40  1  0  0  0  0
 38 41  1  0  0  0  0
 38 42  1  0  0  0  0
 28 33  1  0  0  0  0
 18 23  1  0  0  0  0
  8 13  1  0  0  0  0
 37 39  1  0  0  0  0
  7 12  1  0  0  0  0
 27 32  1  0  0  0  0
 17 22  1  0  0  0  0
M  END
$$$$

  -OEChem-05262214473D

 42 41  0     1  0  0  0  0  0999 V2000
   -5.7851   -0.9580    0.6237 C   0  0  0  0  0  0  0  0  0  0  0  0
   -6.2213    0.1296    0.2652 O   0  0  0  0  0  0  0  0  0  0  0  0
   -6.7088   -2.1270    0.7168 C   0  0  0  0  0  0  0  0  0  0  0  0
   -7.1713   -2.2193    1.7126 H   0  0  0  0  0  0  0  0  0  0  0  0
   -7.5511   -2.0547    0.0101 H   0  0  0  0  0  0  0  0  0  0  0  0
   -6.2485   -3.1083    0.5191 H   0  0  0  0  0  0  0  0  0  0  0  0
   -4.4733   -1.2411    0.9668 N   0  0  0  0  0  0  0  0  0  0  0  0
   -3.4203   -0.2603    0.9449 C   0  0  2  0  0  0  0  0  0  0  0  0
   -2.1242   -0.9699    0.5759 C   0  0  0  0  0  0  0  0  0  0  0  0
   -1.8694   -2.1225    0.9189 O   0  0  0  0  0  0  0  0  0  0  0  0
   -3.2916    0.4435    2.2868 C   0  0  0  0  0  0  0  0  0  0  0  0
   -4.2421   -2.1920    1.2489 H   0  0  0  0  0  0  0  0  0  0  0  0
   -3.6772    0.4622    0.1625 H   0  0  0  0  0  0  0  0  0  0  0  0
   -3.0345   -0.2644    3.0832 H   0  0  0  0  0  0  0  0  0  0  0  0
   -2.5093    1.2092    2.2599 H   0  0  0  0  0  0  0  0  0  0  0  0
   -4.2338    0.9283    2.5645 H   0  0  0  0  0  0  0  0  0  0  0  0
   -1.2626   -0.1515   -0.1463 N   0  0  0  0  0  0  0  0  0  0  0  0
    0.0431   -0.5785   -0.5755 C   0  0  2  0  0  0  0  0  0  0  0  0
    0.7161   -1.2825    0.5953 C   0  0  0  0  0  0  0  0  0  0  0  0
    0.1098   -1.6330    1.6056 O   0  0  0  0  0  0  0  0  0  0  0  0
    0.8794    0.5972   -1.0564 C   0  0  0  0  0  0  0  0  0  0  0  0
   -1.5766    0.7776   -0.4197 H   0  0  0  0  0  0  0  0  0  0  0  0
   -0.1101   -1.2921   -1.3923 H   0  0  0  0  0  0  0  0  0  0  0  0
    1.0435    1.3230   -0.2515 H   0  0  0  0  0  0  0  0  0  0  0  0
    1.8621    0.2671   -1.4092 H   0  0  0  0  0  0  0  0  0  0  0  0
    0.3798    1.1203   -1.8789 H   0  0  0  0  0  0  0  0  0  0  0  0
    2.0845   -1.4368    0.4013 N   0  0  0  0  0  0  0  0  0  0  0  0
    2.9496   -2.0352    1.3837 C   0  0  2  0  0  0  0  0  0  0  0  0
    4.3143   -1.3675    1.2776 C   0  0  0  0  0  0  0  0  0  0  0  0
    4.7884   -0.9757    0.2133 O   0  0  0  0  0  0  0  0  0  0  0  0
    3.0623   -3.5379    1.1796 C   0  0  0  0  0  0  0  0  0  0  0  0
    2.4931   -1.1512   -0.4864 H   0  0  0  0  0  0  0  0  0  0  0  0
    2.5118   -1.8189    2.3643 H   0  0  0  0  0  0  0  0  0  0  0  0
    3.4989   -3.7741    0.2023 H   0  0  0  0  0  0  0  0  0  0  0  0
    3.6979   -3.9957    1.9448 H   0  0  0  0  0  0  0  0  0  0  0  0
    2.0764   -4.0127    1.2266 H   0  0  0  0  0  0  0  0  0  0  0  0
    4.9589   -1.2996    2.5048 N   0  0  0  0  0  0  0  0  0  0  0  0
    6.2847   -0.7481    2.6595 C   0  0  0  0  0  0  0  0  0  0  0  0
    4.4749   -1.6120    3.3414 H   0  0  0  0  0  0  0  0  0  0  0  0
    7.0291   -1.5542    2.5811 H   0  0  0  0  0  0  0  0  0  0  0  0
    6.4664   -0.0035    1.8706 H   0  0  0  0  0  0  0  0  0  0  0  0
    6.3686   -0.2663    3.6448 H   0  0  0  0  0  0  0  0  0  0  0  0
  1  3  1  0  0  0  0
  1  7  1  0  0  0  0
  1  2  2  0  0  0  0
 28 29  1  0  0  0  0
 29 37  1  0  0  0  0
 29 30  2  0  0  0  0
 18 19  1  0  0  0  0
 19 27  1  0  0  0  0
 19 20  2  0  0  0  0
  8  9  1  0  0  0  0
  9 17  1  0  0  0  0
  9 10  2  0  0  0  0
 28 31  1  0  0  0  0
 18 21  1  0  0  0  0
  8 11  1  0  0  0  0
 37 38  1  0  0  0  0
 27 28  1  0  0  0  0
 17 18  1  0  0  0  0
  7  8  1  0  0  0  0
  3  4  1  0  0  0  0
  3  5  1  0  0  0  0
  3  6  1  0  0  0  0
 31 34  1  0  0  0  0
 31 35  1  0  0  0  0
 31 36  1  0  0  0  0
 21 24  1  0  0  0  0
 21 25  1  0  0  0  0
 21 26  1  0  0  0  0
 11 14  1  0  0  0  0
 11 15  1  0  0  0  0
 11 16  1  0  0  0  0
 38 40  1  0  0  0  0
 38 41  1  0  0  0  0
 38 42  1  0  0  0  0
 28 33  1  0  0  0  0
 18 23  1  0  0  0  0
  8 13  1  0  0  0  0
 37 39  1  0  0  0  0
  7 12  1  0  0  0  0
 27 32  1  0  0  0  0
 17 22  1  0  0  0  0
M  END
$$$$

  -OEChem-05262214473D

 42 41  0     1  0  0  0  0  0999 V2000
   -5.7851   -0.9580    0.6237 C   0  0  0  0  0  0  0  0  0  0  0  0
   -6.2213    0.1296    0.2652 O   0  0  0  0  0  0  0  0  0  0  0  0
   -6.7088   -2.1270    0.7168 C   0  0  0  0  0  0  0  0  0  0  0  0
   -7.1713   -2.2193    1.7126 H   0  0  0  0  0  0  0  0  0  0  0  0
   -7.5511   -2.0547    0.0101 H   0  0  0  0  0  0  0  0  0  0  0  0
   -6.2485   -3.1083    0.5191 H   0  0  0  0  0  0  0  0  0  0  0  0
   -4.4733   -1.2411    0.9668 N   0  0  0  0  0  0  0  0  0  0  0  0
   -3.4203   -0.2603    0.9449 C   0  0  2  0  0  0  0  0  0  0  0  0
   -2.1242   -0.9699    0.5759 C   0  0  0  0  0  0  0  0  0  0  0  0
   -1.8694   -2.1225    0.9189 O   0  0  0  0  0  0  0  0  0  0  0  0
   -3.2916    0.4435    2.2868 C   0  0  0  0  0  0  0  0  0  0  0  0
   -4.2421   -2.1920    1.2489 H   0  0  0  0  0  0  0  0  0  0  0  0
   -3.6772    0.4622    0.1625 H   0  0  0  0  0  0  0  0  0  0  0  0
   -3.0345   -0.2644    3.0832 H   0  0  0  0  0  0  0  0  0  0  0  0
   -2.5093    1.2092    2.2599 H   0  0  0  0  0  0  0  0  0  0  0  0
   -4.2338    0.9283    2.5645 H   0  0  0  0  0  0  0  0  0  0  0  0
   -1.2626   -0.1515   -0.1463 N   0  0  0  0  0  0  0  0  0  0  0  0
    0.0431   -0.5785   -0.5755 C   0  0  2  0  0  0  0  0  0  0  0  0
    0.7161   -1.2825    0.5953 C   0  0  0  0  0  0  0  0  0  0  0  0
    0.0895   -1.8678    1.4761 O   0  0  0  0  0  0  0  0  0  0  0  0
    0.8794    0.5972   -1.0564 C   0  0  0  0  0  0  0  0  0  0  0  0
   -1.5766    0.7776   -0.4197 H   0  0  0  0  0  0  0  0  0  0  0  0
   -0.1101   -1.2921   -1.3923 H   0  0  0  0  0  0  0  0  0  0  0  0
    1.0435    1.3230   -0.2515 H   0  0  0  0  0  0  0  0  0  0  0  0
    1.8621    0.2671   -1.4092 H   0  0  0  0  0  0  0  0  0  0  0  0
    0.3798    1.1203   -1.8789 H   0  0  0  0  0  0  0  0  0  0  0  0
    2.0997   -1.1454    0.5678 N   0  0  0  0  0  0  0  0  0  0  0  0
    2.9581   -1.6858    1.5888 C   0  0  2  0  0  0  0  0  0  0  0  0
    4.1594   -0.7606    1.7315 C   0  0  0  0  0  0  0  0  0  0  0  0
    4.6549   -0.1536    0.7843 O   0  0  0  0  0  0  0  0  0  0  0  0
    3.3994   -3.1009    1.2487 C   0  0  0  0  0  0  0  0  0  0  0  0
    2.5342   -0.6767   -0.2247 H   0  0  0  0  0  0  0  0  0  0  0  0
    2.3819   -1.6835    2.5204 H   0  0  0  0  0  0  0  0  0  0  0  0
    3.9782   -3.1233    0.3181 H   0  0  0  0  0  0  0  0  0  0  0  0
    4.0291   -3.5211    2.0398 H   0  0  0  0  0  0  0  0  0  0  0  0
    2.5331   -3.7582    1.1171 H   0  0  0  0  0  0  0  0  0  0  0  0
    4.6397   -0.7260    3.0331 N   0  0  0  0  0  0  0  0  0  0  0  0
    5.7989    0.0457    3.4161 C   0  0  0  0  0  0  0  0  0  0  0  0
    4.1429   -1.2288    3.7626 H   0  0  0  0  0  0  0  0  0  0  0  0
    6.6974   -0.5859    3.3540 H   0  0  0  0  0  0  0  0  0  0  0  0
    5.9075    0.9051    2.7381 H   0  0  0  0  0  0  0  0  0  0  0  0
    5.6748    0.4061    4.4479 H   0  0  0  0  0  0  0  0  0  0  0  0
  1  3  1  0  0  0  0
  1  7  1  0  0  0  0
  1  2  2  0  0  0  0
 28 29  1  0  0  0  0
 29 37  1  0  0  0  0
 29 30  2  0  0  0  0
 18 19  1  0  0  0  0
 19 27  1  0  0  0  0
 19 20  2  0  0  0  0
  8  9  1  0  0  0  0
  9 17  1  0  0  0  0
  9 10  2  0  0  0  0
 28 31  1  0  0  0  0
 18 21  1  0  0  0  0
  8 11  1  0  0  0  0
 37 38  1  0  0  0  0
 27 28  1  0  0  0  0
 17 18  1  0  0  0  0
  7  8  1  0  0  0  0
  3  4  1  0  0  0  0
  3  5  1  0  0  0  0
  3  6  1  0  0  0  0
 31 34  1  0  0  0  0
 31 35  1  0  0  0  0
 31 36  1  0  0  0  0
 21 24  1  0  0  0  0
 21 25  1  0  0  0  0
 21 26  1  0  0  0  0
 11 14  1  0  0  0  0
 11 15  1  0  0  0  0
 11 16  1  0  0  0  0
 38 40  1  0  0  0  0
 38 41  1  0  0  0  0
 38 42  1  0  0  0  0
 28 33  1  0  0  0  0
 18 23  1  0  0  0  0
  8 13  1  0  0  0  0
 37 39  1  0  0  0  0
  7 12  1  0  0  0  0
 27 32  1  0  0  0  0
 17 22  1  0  0  0  0
M  END
$$$$

  -OEChem-05262214473D

 42 41  0     1  0  0  0  0  0999 V2000
   -5.7851   -0.9580    0.6237 C   0  0  0  0  0  0  0  0  0  0  0  0
   -6.2213    0.1296    0.2652 O   0  0  0  0  0  0  0  0  0  0  0  0
   -6.7088   -2.1270    0.7168 C   0  0  0  0  0  0  0  0  0  0  0  0
   -7.1713   -2.2193    1.7126 H   0  0  0  0  0  0  0  0  0  0  0  0
   -7.5511   -2.0547    0.0101 H   0  0  0  0  0  0  0  0  0  0  0  0
   -6.2485   -3.1083    0.5191 H   0  0  0  0  0  0  0  0  0  0  0  0
   -4.4733   -1.2411    0.9668 N   0  0  0  0  0  0  0  0  0  0  0  0
   -3.4203   -0.2603    0.9449 C   0  0  2  0  0  0  0  0  0  0  0  0
   -2.1242   -0.9699    0.5759 C   0  0  0  0  0  0  0  0  0  0  0  0
   -1.8694   -2.1225    0.9189 O   0  0  0  0  0  0  0  0  0  0  0  0
   -3.2916    0.4435    2.2868 C   0  0  0  0  0  0  0  0  0  0  0  0
   -4.2421   -2.1920    1.2489 H   0  0  0  0  0  0  0  0  0  0  0  0
   -3.6772    0.4622    0.1625 H   0  0  0  0  0  0  0  0  0  0  0  0
   -3.0345   -0.2644    3.0832 H   0  0  0  0  0  0  0  0  0  0  0  0
   -2.5093    1.2092    2.2599 H   0  0  0  0  0  0  0  0  0  0  0  0
   -4.2338    0.9283    2.5645 H   0  0  0  0  0  0  0  0  0  0  0  0
   -1.2626   -0.1515   -0.1463 N   0  0  0  0  0  0  0  0  0  0  0  0
    0.0431   -0.5785   -0.5755 C   0  0  2  0  0  0  0  0  0  0  0  0
    0.7161   -1.2825    0.5953 C   0  0  0  0  0  0  0  0  0  0  0  0
    0.1320   -2.0839    1.3217 O   0  0  0  0  0  0  0  0  0  0  0  0
    0.8794    0.5972   -1.0564 C   0  0  0  0  0  0  0  0  0  0  0  0
   -1.5766    0.7776   -0.4197 H   0  0  0  0  0  0  0  0  0  0  0  0
   -0.1101   -1.2921   -1.3923 H   0  0  0  0  0  0  0  0  0  0  0  0
    1.0435    1.3230   -0.2515 H   0  0  0  0  0  0  0  0  0  0  0  0
    1.8621    0.2671   -1.4092 H   0  0  0  0  0  0  0  0  0  0  0  0
    0.3798    1.1203   -1.8789 H   0  0  0  0  0  0  0  0  0  0  0  0
    2.0365   -0.8799    0.7638 N   0  0  0  0  0  0  0  0  0  0  0  0
    2.8724   -1.3702    1.8278 C   0  0  2  0  0  0  0  0  0  0  0  0
    3.8347   -0.2571    2.2208 C   0  0  0  0  0  0  0  0  0  0  0  0
    4.2940    0.5486    1.4139 O   0  0  0  0  0  0  0  0  0  0  0  0
    3.6297   -2.6196    1.4057 C   0  0  0  0  0  0  0  0  0  0  0  0
    2.4482   -0.2401    0.0872 H   0  0  0  0  0  0  0  0  0  0  0  0
    2.2108   -1.5964    2.6711 H   0  0  0  0  0  0  0  0  0  0  0  0
    4.2978   -2.4125    0.5618 H   0  0  0  0  0  0  0  0  0  0  0  0
    4.2432   -3.0077    2.2254 H   0  0  0  0  0  0  0  0  0  0  0  0
    2.9368   -3.4090    1.0950 H   0  0  0  0  0  0  0  0  0  0  0  0
    4.1541   -0.2958    3.5709 N   0  0  0  0  0  0  0  0  0  0  0  0
    5.0812    0.6294    4.1796 C   0  0  0  0  0  0  0  0  0  0  0  0
    3.6957   -0.9728    4.1736 H   0  0  0  0  0  0  0  0  0  0  0  0
    6.0918    0.1951    4.1717 H   0  0  0  0  0  0  0  0  0  0  0  0
    5.0831    1.5723    3.6132 H   0  0  0  0  0  0  0  0  0  0  0  0
    4.7748    0.8258    5.2176 H   0  0  0  0  0  0  0  0  0  0  0  0
  1  3  1  0  0  0  0
  1  7  1  0  0  0  0
  1  2  2  0  0  0  0
 28 29  1  0  0  0  0
 29 37  1  0  0  0  0
 29 30  2  0  0  0  0
 18 19  1  0  0  0  0
 19 27  1  0  0  0  0
 19 20  2  0  0  0  0
  8  9  1  0  0  0  0
  9 17  1  0  0  0  0
  9 10  2  0  0  0  0
 28 31  1  0  0  0  0
 18 21  1  0  0  0  0
  8 11  1  0  0  0  0
 37 38  1  0  0  0  0
 27 28  1  0  0  0  0
 17 18  1  0  0  0  0
  7  8  1  0  0  0  0
  3  4  1  0  0  0  0
  3  5  1  0  0  0  0
  3  6  1  0  0  0  0
 31 34  1  0  0  0  0
 31 35  1  0  0  0  0
 31 36  1  0  0  0  0
 21 24  1  0  0  0  0
 21 25  1  0  0  0  0
 21 26  1  0  0  0  0
 11 14  1  0  0  0  0
 11 15  1  0  0  0  0
 11 16  1  0  0  0  0
 38 40  1  0  0  0  0
 38 41  1  0  0  0  0
 38 42  1  0  0  0  0
 28 33  1  0  0  0  0
 18 23  1  0  0  0  0
  8 13  1  0  0  0  0
 37 39  1  0  0  0  0
  7 12  1  0  0  0  0
 27 32  1  0  0  0  0
 17 22  1  0  0  0  0
M  END
$$$$

  -OEChem-05262214473D

 42 41  0     1  0  0  0  0  0999 V2000
   -5.7851   -0.9580    0.6237 C   0  0  0  0  0  0  0  0  0  0  0  0
   -6.2213    0.1296    0.2652 O   0  0  0  0  0  0  0  0  0  0  0  0
   -6.7088   -2.1270    0.7168 C   0  0  0  0  0  0  0  0  0  0  0  0
   -7.1713   -2.2193    1.7126 H   0  0  0  0  0  0  0  0  0  0  0  0
   -7.5511   -2.0547    0.0101 H   0  0  0  0  0  0  0  0  0  0  0  0
   -6.2485   -3.1083    0.5191 H   0  0  0  0  0  0  0  0  0  0  0  0
   -4.4733   -1.2411    0.9668 N   0  0  0  0  0  0  0  0  0  0  0  0
   -3.4203   -0.2603    0.9449 C   0  0  2  0  0  0  0  0  0  0  0  0
   -2.1242   -0.9699    0.5759 C   0  0  0  0  0  0  0  0  0  0  0  0
   -1.8694   -2.1225    0.9189 O   0  0  0  0  0  0  0  0  0  0  0  0
   -3.2916    0.4435    2.2868 C   0  0  0  0  0  0  0  0  0  0  0  0
   -4.2421   -2.1920    1.2489 H   0  0  0  0  0  0  0  0  0  0  0  0
   -3.6772    0.4622    0.1625 H   0  0  0  0  0  0  0  0  0  0  0  0
   -3.0345   -0.2644    3.0832 H   0  0  0  0  0  0  0  0  0  0  0  0
   -2.5093    1.2092    2.2599 H   0  0  0  0  0  0  0  0  0  0  0  0
   -4.2338    0.9283    2.5645 H   0  0  0  0  0  0  0  0  0  0  0  0
   -1.2626   -0.1515   -0.1463 N   0  0  0  0  0  0  0  0  0  0  0  0
    0.0431   -0.5785   -0.5755 C   0  0  2  0  0  0  0  0  0  0  0  0
    0.7161   -1.2825    0.5953 C   0  0  0  0  0  0  0  0  0  0  0  0
    0.2346   -2.2664    1.1530 O   0  0  0  0  0  0  0  0  0  0  0  0
    0.8794    0.5972   -1.0564 C   0  0  0  0  0  0  0  0  0  0  0  0
   -1.5766    0.7776   -0.4197 H   0  0  0  0  0  0  0  0  0  0  0  0
   -0.1101   -1.2921   -1.3923 H   0  0  0  0  0  0  0  0  0  0  0  0
    1.0435    1.3230   -0.2515 H   0  0  0  0  0  0  0  0  0  0  0  0
    1.8621    0.2671   -1.4092 H   0  0  0  0  0  0  0  0  0  0  0  0
    0.3798    1.1203   -1.8789 H   0  0  0  0  0  0  0  0  0  0  0  0
    1.8992   -0.6585    0.9758 N   0  0  0  0  0  0  0  0  0  0  0  0
    2.6981   -1.1097    2.0846 C   0  0  2  0  0  0  0  0  0  0  0  0
    3.3624    0.1086    2.7123 C   0  0  0  0  0  0  0  0  0  0  0  0
    3.7303    1.0830    2.0592 O   0  0  0  0  0  0  0  0  0  0  0  0
    3.7376   -2.1268    1.6399 C   0  0  0  0  0  0  0  0  0  0  0  0
    2.2410    0.1289    0.4282 H   0  0  0  0  0  0  0  0  0  0  0  0
    2.0101   -1.5635    2.8062 H   0  0  0  0  0  0  0  0  0  0  0  0
    4.4360   -1.6902    0.9166 H   0  0  0  0  0  0  0  0  0  0  0  0
    4.3256   -2.4904    2.4891 H   0  0  0  0  0  0  0  0  0  0  0  0
    3.2598   -2.9888    1.1620 H   0  0  0  0  0  0  0  0  0  0  0  0
    3.5351   -0.0385    4.0815 N   0  0  0  0  0  0  0  0  0  0  0  0
    4.1805    0.9630    4.8979 C   0  0  0  0  0  0  0  0  0  0  0  0
    3.1635   -0.8616    4.5464 H   0  0  0  0  0  0  0  0  0  0  0  0
    5.2537    0.7353    4.9783 H   0  0  0  0  0  0  0  0  0  0  0  0
    4.0493    1.9527    4.4361 H   0  0  0  0  0  0  0  0  0  0  0  0
    3.7298    0.9640    5.9013 H   0  0  0  0  0  0  0  0  0  0  0  0
  1  3  1  0  0  0  0
  1  7  1  0  0  0  0
  1  2  2  0  0  0  0
 28 29  1  0  0  0  0
 29 37  1  0  0  0  0
 29 30  2  0  0  0  0
 18 19  1  0  0  0  0
 19 27  1  0  0  0  0
 19 20  2  0  0  0  0
  8  9  1  0  0  0  0
  9 17  1  0  0  0  0
  9 10  2  0  0  0  0
 28 31  1  0  0  0  0
 18 21  1  0  0  0  0
  8 11  1  0  0  0  0
 37 38  1  0  0  0  0
 27 28  1  0  0  0  0
 17 18  1  0  0  0  0
  7  8  1  0  0  0  0
  3  4  1  0  0  0  0
  3  5  1  0  0  0  0
  3  6  1  0  0  0  0
 31 34  1  0  0  0  0
 31 35  1  0  0  0  0
 31 36  1  0  0  0  0
 21 24  1  0  0  0  0
 21 25  1  0  0  0  0
 21 26  1  0  0  0  0
 11 14  1  0  0  0  0
 11 15  1  0  0  0  0
 11 16  1  0  0  0  0
 38 40  1  0  0  0  0
 38 41  1  0  0  0  0
 38 42  1  0  0  0  0
 28 33  1  0  0  0  0
 18 23  1  0  0  0  0
  8 13  1  0  0  0  0
 37 39  1  0  0  0  0
  7 12  1  0  0  0  0
 27 32  1  0  0  0  0
 17 22  1  0  0  0  0
M  END
$$$$

  -OEChem-05262214473D

 42 41  0     1  0  0  0  0  0999 V2000
   -5.7851   -0.9580    0.6237 C   0  0  0  0  0  0  0  0  0  0  0  0
   -6.2213    0.1296    0.2652 O   0  0  0  0  0  0  0  0  0  0  0  0
   -6.7088   -2.1270    0.7168 C   0  0  0  0  0  0  0  0  0  0  0  0
   -7.1713   -2.2193    1.7126 H   0  0  0  0  0  0  0  0  0  0  0  0
   -7.5511   -2.0547    0.0101 H   0  0  0  0  0  0  0  0  0  0  0  0
   -6.2485   -3.1083    0.5191 H   0  0  0  0  0  0  0  0  0  0  0  0
   -4.4733   -1.2411    0.9668 N   0  0  0  0  0  0  0  0  0  0  0  0
   -3.4203   -0.2603    0.9449 C   0  0  2  0  0  0  0  0  0  0  0  0
   -2.1242   -0.9699    0.5759 C   0  0  0  0  0  0  0  0  0  0  0  0
   -1.8694   -2.1225    0.9189 O   0  0  0  0  0  0  0  0  0  0  0  0
   -3.2916    0.4435    2.2868 C   0  0  0  0  0  0  0  0  0  0  0  0
   -4.2421   -2.1920    1.2489 H   0  0  0  0  0  0  0  0  0  0  0  0
   -3.6772    0.4622    0.1625 H   0  0  0  0  0  0  0  0  0  0  0  0
   -3.0345   -0.2644    3.0832 H   0  0  0  0  0  0  0  0  0  0  0  0
   -2.5093    1.2092    2.2599 H   0  0  0  0  0  0  0  0  0  0  0  0
   -4.2338    0.9283    2.5645 H   0  0  0  0  0  0  0  0  0  0  0  0
   -1.2626   -0.1515   -0.1463 N   0  0  0  0  0  0  0  0  0  0  0  0
    0.0431   -0.5785   -0.5755 C   0  0  2  0  0  0  0  0  0  0  0  0
    0.7161   -1.2825    0.5953 C   0  0  0  0  0  0  0  0  0  0  0  0
    0.3902   -2.4031    0.9814 O   0  0  0  0  0  0  0  0  0  0  0  0
    0.8794    0.5972   -1.0564 C   0  0  0  0  0  0  0  0  0  0  0  0
   -1.5766    0.7776   -0.4197 H   0  0  0  0  0  0  0  0  0  0  0  0
   -0.1101   -1.2921   -1.3923 H   0  0  0  0  0  0  0  0  0  0  0  0
    1.0435    1.3230   -0.2515 H   0  0  0  0  0  0  0  0  0  0  0  0
    1.8621    0.2671   -1.4092 H   0  0  0  0  0  0  0  0  0  0  0  0
    0.3798    1.1203   -1.8789 H   0  0  0  0  0  0  0  0  0  0  0  0
    1.6971   -0.4961    1.1896 N   0  0  0  0  0  0  0  0  0  0  0  0
    2.4473   -0.9221    2.3416 C   0  0  2  0  0  0  0  0  0  0  0  0
    2.7746    0.3118    3.1722 C   0  0  0  0  0  0  0  0  0  0  0  0
    3.0023    1.4132    2.6763 O   0  0  0  0  0  0  0  0  0  0  0  0
    3.7157   -1.6561    1.9355 C   0  0  0  0  0  0  0  0  0  0  0  0
    1.9266    0.4050    0.7749 H   0  0  0  0  0  0  0  0  0  0  0  0
    1.7936   -1.5872    2.9165 H   0  0  0  0  0  0  0  0  0  0  0  0
    4.3832   -1.0057    1.3586 H   0  0  0  0  0  0  0  0  0  0  0  0
    4.2707   -2.0044    2.8128 H   0  0  0  0  0  0  0  0  0  0  0  0
    3.4802   -2.5263    1.3134 H   0  0  0  0  0  0  0  0  0  0  0  0
    2.8249    0.0286    4.5300 N   0  0  0  0  0  0  0  0  0  0  0  0
    3.1581    1.0238    5.5222 C   0  0  0  0  0  0  0  0  0  0  0  0
    2.5828   -0.9026    4.8555 H   0  0  0  0  0  0  0  0  0  0  0  0
    4.2401    0.9982    5.7190 H   0  0  0  0  0  0  0  0  0  0  0  0
    2.8766    2.0202    5.1508 H   0  0  0  0  0  0  0  0  0  0  0  0
    2.6112    0.8113    6.4526 H   0  0  0  0  0  0  0  0  0  0  0  0
  1  3  1  0  0  0  0
  1  7  1  0  0  0  0
  1  2  2  0  0  0  0
 28 29  1  0  0  0  0
 29 37  1  0  0  0  0
 29 30  2  0  0  0  0
 18 19  1  0  0  0  0
 19 27  1  0  0  0  0
 19 20  2  0  0  0  0
  8  9  1  0  0  0  0
  9 17  1  0  0  0  0
  9 10  2  0  0  0  0
 28 31  1  0  0  0  0
 18 21  1  0  0  0  0
  8 11  1  0  0  0  0
 37 38  1  0  0  0  0
 27 28  1  0  0  0  0
 17 18  1  0  0  0  0
  7  8  1  0  0  0  0
  3  4  1  0  0  0  0
  3  5  1  0  0  0  0
  3  6  1  0  0  0  0
 31 34  1  0  0  0  0
 31 35  1  0  0  0  0
 31 36  1  0  0  0  0
 21 24  1  0  0  0  0
 21 25  1  0  0  0  0
 21 26  1  0  0  0  0
 11 14  1  0  0  0  0
 11 15  1  0  0  0  0
 11 16  1  0  0  0  0
 38 40  1  0  0  0  0
 38 41  1  0  0  0  0
 38 42  1  0  0  0  0
 28 33  1  0  0  0  0
 18 23  1  0  0  0  0
  8 13  1  0  0  0  0
 37 39  1  0  0  0  0
  7 12  1  0  0  0  0
 27 32  1  0  0  0  0
 17 22  1  0  0  0  0
M  END
$$$$

  -OEChem-05262214473D

 42 41  0     1  0  0  0  0  0999 V2000
   -5.7851   -0.9580    0.6237 C   0  0  0  0  0  0  0  0  0  0  0  0
   -6.2213    0.1296    0.2652 O   0  0  0  0  0  0  0  0  0  0  0  0
   -6.7088   -2.1270    0.7168 C   0  0  0  0  0  0  0  0  0  0  0  0
   -7.1713   -2.2193    1.7126 H   0  0  0  0  0  0  0  0  0  0  0  0
   -7.5511   -2.0547    0.0101 H   0  0  0  0  0  0  0  0  0  0  0  0
   -6.2485   -3.1083    0.5191 H   0  0  0  0  0  0  0  0  0  0  0  0
   -4.4733   -1.2411    0.9668 N   0  0  0  0  0  0  0  0  0  0  0  0
   -3.4203   -0.2603    0.9449 C   0  0  2  0  0  0  0  0  0  0  0  0
   -2.1242   -0.9699    0.5759 C   0  0  0  0  0  0  0  0  0  0  0  0
   -1.8694   -2.1225    0.9189 O   0  0  0  0  0  0  0  0  0  0  0  0
   -3.2916    0.4435    2.2868 C   0  0  0  0  0  0  0  0  0  0  0  0
   -4.2421   -2.1920    1.2489 H   0  0  0  0  0  0  0  0  0  0  0  0
   -3.6772    0.4622    0.1625 H   0  0  0  0  0  0  0  0  0  0  0  0
   -3.0345   -0.2644    3.0832 H   0  0  0  0  0  0  0  0  0  0  0  0
   -2.5093    1.2092    2.2599 H   0  0  0  0  0  0  0  0  0  0  0  0
   -4.2338    0.9283    2.5645 H   0  0  0  0  0  0  0  0  0  0  0  0
   -1.2626   -0.1515   -0.1463 N   0  0  0  0  0  0  0  0  0  0  0  0
    0.0431   -0.5785   -0.5755 C   0  0  2  0  0  0  0  0  0  0  0  0
    0.7161   -1.2825    0.5953 C   0  0  0  0  0  0  0  0  0  0  0  0
    0.5882   -2.4845    0.8187 O   0  0  0  0  0  0  0  0  0  0  0  0
    0.8794    0.5972   -1.0564 C   0  0  0  0  0  0  0  0  0  0  0  0
   -1.5766    0.7776   -0.4197 H   0  0  0  0  0  0  0  0  0  0  0  0
   -0.1101   -1.2921   -1.3923 H   0  0  0  0  0  0  0  0  0  0  0  0
    1.0435    1.3230   -0.2515 H   0  0  0  0  0  0  0  0  0  0  0  0
    1.8621    0.2671   -1.4092 H   0  0  0  0  0  0  0  0  0  0  0  0
    0.3798    1.1203   -1.8789 H   0  0  0  0  0  0  0  0  0  0  0  0
    1.4441   -0.4040    1.3904 N   0  0  0  0  0  0  0  0  0  0  0  0
    2.1369   -0.8202    2.5813 C   0  0  2  0  0  0  0  0  0  0  0  0
    2.1114    0.3384    3.5695 C   0  0  0  0  0  0  0  0  0  0  0  0
    2.1596    1.5168    3.2229 O   0  0  0  0  0  0  0  0  0  0  0  0
    3.5656   -1.2396    2.2722 C   0  0  0  0  0  0  0  0  0  0  0  0
    1.5265    0.5695    1.1038 H   0  0  0  0  0  0  0  0  0  0  0  0
    1.5760   -1.6657    2.9943 H   0  0  0  0  0  0  0  0  0  0  0  0
    4.1432   -0.4055    1.8574 H   0  0  0  0  0  0  0  0  0  0  0  0
    4.0823   -1.5830    3.1745 H   0  0  0  0  0  0  0  0  0  0  0  0
    3.5830   -2.0531    1.5388 H   0  0  0  0  0  0  0  0  0  0  0  0
    2.0719   -0.0993    4.8859 N   0  0  0  0  0  0  0  0  0  0  0  0
    2.0838    0.8078    6.0098 C   0  0  0  0  0  0  0  0  0  0  0  0
    1.9930   -1.0932    5.0799 H   0  0  0  0  0  0  0  0  0  0  0  0
    3.1201    0.9657    6.3432 H   0  0  0  0  0  0  0  0  0  0  0  0
    1.6450    1.7704    5.7085 H   0  0  0  0  0  0  0  0  0  0  0  0
    1.4951    0.3783    6.8337 H   0  0  0  0  0  0  0  0  0  0  0  0
  1  3  1  0  0  0  0
  1  7  1  0  0  0  0
  1  2  2  0  0  0  0
 28 29  1  0  0  0  0
 29 37  1  0  0  0  0
 29 30  2  0  0  0  0
 18 19  1  0  0  0  0
 19 27  1  0  0  0  0
 19 20  2  0  0  0  0
  8  9  1  0  0  0  0
  9 17  1  0  0  0  0
  9 10  2  0  0  0  0
 28 31  1  0  0  0  0
 18 21  1  0  0  0  0
  8 11  1  0  0  0  0
 37 38  1  0  0  0  0
 27 28  1  0  0  0  0
 17 18  1  0  0  0  0
  7  8  1  0  0  0  0
  3  4  1  0  0  0  0
  3  5  1  0  0  0  0
  3  6  1  0  0  0  0
 31 34  1  0  0  0  0
 31 35  1  0  0  0  0
 31 36  1  0  0  0  0
 21 24  1  0  0  0  0
 21 25  1  0  0  0  0
 21 26  1  0  0  0  0
 11 14  1  0  0  0  0
 11 15  1  0  0  0  0
 11 16  1  0  0  0  0
 38 40  1  0  0  0  0
 38 41  1  0  0  0  0
 38 42  1  0  0  0  0
 28 33  1  0  0  0  0
 18 23  1  0  0  0  0
  8 13  1  0  0  0  0
 37 39  1  0  0  0  0
  7 12  1  0  0  0  0
 27 32  1  0  0  0  0
 17 22  1  0  0  0  0
M  END
$$$$

  -OEChem-05262214473D

 42 41  0     1  0  0  0  0  0999 V2000
   -5.7851   -0.9580    0.6237 C   0  0  0  0  0  0  0  0  0  0  0  0
   -6.2213    0.1296    0.2652 O   0  0  0  0  0  0  0  0  0  0  0  0
   -6.7088   -2.1270    0.7168 C   0  0  0  0  0  0  0  0  0  0  0  0
   -7.1713   -2.2193    1.7126 H   0  0  0  0  0  0  0  0  0  0  0  0
   -7.5511   -2.0547    0.0101 H   0  0  0  0  0  0  0  0  0  0  0  0
   -6.2485   -3.1083    0.5191 H   0  0  0  0  0  0  0  0  0  0  0  0
   -4.4733   -1.2411    0.9668 N   0  0  0  0  0  0  0  0  0  0  0  0
   -3.4203   -0.2603    0.9449 C   0  0  2  0  0  0  0  0  0  0  0  0
   -2.1242   -0.9699    0.5759 C   0  0  0  0  0  0  0  0  0  0  0  0
   -1.8694   -2.1225    0.9189 O   0  0  0  0  0  0  0  0  0  0  0  0
   -3.2916    0.4435    2.2868 C   0  0  0  0  0  0  0  0  0  0  0  0
   -4.2421   -2.1920    1.2489 H   0  0  0  0  0  0  0  0  0  0  0  0
   -3.6772    0.4622    0.1625 H   0  0  0  0  0  0  0  0  0  0  0  0
   -3.0345   -0.2644    3.0832 H   0  0  0  0  0  0  0  0  0  0  0  0
   -2.5093    1.2092    2.2599 H   0  0  0  0  0  0  0  0  0  0  0  0
   -4.2338    0.9283    2.5645 H   0  0  0  0  0  0  0  0  0  0  0  0
   -1.2626   -0.1515   -0.1463 N   0  0  0  0  0  0  0  0  0  0  0  0
    0.0431   -0.5785   -0.5755 C   0  0  2  0  0  0  0  0  0  0  0  0
    0.7161   -1.2825    0.5953 C   0  0  0  0  0  0  0  0  0  0  0  0
    0.8151   -2.5051    0.6759 O   0  0  0  0  0  0  0  0  0  0  0  0
    0.8794    0.5972   -1.0564 C   0  0  0  0  0  0  0  0  0  0  0  0
   -1.5766    0.7776   -0.4197 H   0  0  0  0  0  0  0  0  0  0  0  0
   -0.1101   -1.2921   -1.3923 H   0  0  0  0  0  0  0  0  0  0  0  0
    1.0435    1.3230   -0.2515 H   0  0  0  0  0  0  0  0  0  0  0  0
    1.8621    0.2671   -1.4092 H   0  0  0  0  0  0  0  0  0  0  0  0
    0.3798    1.1203   -1.8789 H   0  0  0  0  0  0  0  0  0  0  0  0
    1.1573   -0.3883    1.5647 N   0  0  0  0  0  0  0  0  0  0  0  0
    1.7881   -0.8110    2.7873 C   0  0  2  0  0  0  0  0  0  0  0  0
    1.4179    0.1867    3.8769 C   0  0  0  0  0  0  0  0  0  0  0  0
    1.2597    1.3866    3.6620 O   0  0  0  0  0  0  0  0  0  0  0  0
    3.2975   -0.9057    2.6271 C   0  0  0  0  0  0  0  0  0  0  0  0
    1.0679    0.6111    1.3925 H   0  0  0  0  0  0  0  0  0  0  0  0
    1.3721   -1.7938    3.0345 H   0  0  0  0  0  0  0  0  0  0  0  0
    3.7322    0.0694    2.3792 H   0  0  0  0  0  0  0  0  0  0  0  0
    3.7732   -1.2548    3.5495 H   0  0  0  0  0  0  0  0  0  0  0  0
    3.5611   -1.6013    1.8231 H   0  0  0  0  0  0  0  0  0  0  0  0
    1.3274   -0.4134    5.1250 N   0  0  0  0  0  0  0  0  0  0  0  0
    1.0307    0.3296    6.3275 C   0  0  0  0  0  0  0  0  0  0  0  0
    1.4344   -1.4204    5.2043 H   0  0  0  0  0  0  0  0  0  0  0  0
    1.9701    0.6400    6.8085 H   0  0  0  0  0  0  0  0  0  0  0  0
    0.4383    1.2202    6.0713 H   0  0  0  0  0  0  0  0  0  0  0  0
    0.4575   -0.3057    7.0188 H   0  0  0  0  0  0  0  0  0  0  0  0
  1  3  1  0  0  0  0
  1  7  1  0  0  0  0
  1  2  2  0  0  0  0
 28 29  1  0  0  0  0
 29 37  1  0  0  0  0
 29 30  2  0  0  0  0
 18 19  1  0  0  0  0
 19 27  1  0  0  0  0
 19 20  2  0  0  0  0
  8  9  1  0  0  0  0
  9 17  1  0  0  0  0
  9 10  2  0  0  0  0
 28 31  1  0  0  0  0
 18 21  1  0  0  0  0
  8 11  1  0  0  0  0
 37 38  1  0  0  0  0
 27 28  1  0  0  0  0
 17 18  1  0  0  0  0
  7  8  1  0  0  0  0
  3  4  1  0  0  0  0
  3  5  1  0  0  0  0
  3  6  1  0  0  0  0
 31 34  1  0  0  0  0
 31 35  1  0  0  0  0
 31 36  1  0  0  0  0
 21 24  1  0  0  0  0
 21 25  1  0  0  0  0
 21 26  1  0  0  0  0
 11 14  1  0  0  0  0
 11 15  1  0  0  0  0
 11 16  1  0  0  0  0
 38 40  1  0  0  0  0
 38 41  1  0  0  0  0
 38 42  1  0  0  0  0
 28 33  1  0  0  0  0
 18 23  1  0  0  0  0
  8 13  1  0  0  0  0
 37 39  1  0  0  0  0
  7 12  1  0  0  0  0
 27 32  1  0  0  0  0
 17 22  1  0  0  0  0
M  END
$$$$

  -OEChem-05262214473D

 42 41  0     1  0  0  0  0  0999 V2000
   -5.7851   -0.9580    0.6237 C   0  0  0  0  0  0  0  0  0  0  0  0
   -6.2213    0.1296    0.2652 O   0  0  0  0  0  0  0  0  0  0  0  0
   -6.7088   -2.1270    0.7168 C   0  0  0  0  0  0  0  0  0  0  0  0
   -7.1713   -2.2193    1.7126 H   0  0  0  0  0  0  0  0  0  0  0  0
   -7.5511   -2.0547    0.0101 H   0  0  0  0  0  0  0  0  0  0  0  0
   -6.2485   -3.1083    0.5191 H   0  0  0  0  0  0  0  0  0  0  0  0
   -4.4733   -1.2411    0.9668 N   0  0  0  0  0  0  0  0  0  0  0  0
   -3.4203   -0.2603    0.9449 C   0  0  2  0  0  0  0  0  0  0  0  0
   -2.1242   -0.9699    0.5759 C   0  0  0  0  0  0  0  0  0  0  0  0
   -1.8694   -2.1225    0.9189 O   0  0  0  0  0  0  0  0  0  0  0  0
   -3.2916    0.4435    2.2868 C   0  0  0  0  0  0  0  0  0  0  0  0
   -4.2421   -2.1920    1.2489 H   0  0  0  0  0  0  0  0  0  0  0  0
   -3.6772    0.4622    0.1625 H   0  0  0  0  0  0  0  0  0  0  0  0
   -3.0345   -0.2644    3.0832 H   0  0  0  0  0  0  0  0  0  0  0  0
   -2.5093    1.2092    2.2599 H   0  0  0  0  0  0  0  0  0  0  0  0
   -4.2338    0.9283    2.5645 H   0  0  0  0  0  0  0  0  0  0  0  0
   -1.2626   -0.1515   -0.1463 N   0  0  0  0  0  0  0  0  0  0  0  0
    0.0431   -0.5785   -0.5755 C   0  0  2  0  0  0  0  0  0  0  0  0
    0.7161   -1.2825    0.5953 C   0  0  0  0  0  0  0  0  0  0  0  0
    1.0554   -2.4635    0.5627 O   0  0  0  0  0  0  0  0  0  0  0  0
    0.8794    0.5972   -1.0564 C   0  0  0  0  0  0  0  0  0  0  0  0
   -1.5766    0.7776   -0.4197 H   0  0  0  0  0  0  0  0  0  0  0  0
   -0.1101   -1.2921   -1.3923 H   0  0  0  0  0  0  0  0  0  0  0  0
    1.0435    1.3230   -0.2515 H   0  0  0  0  0  0  0  0  0  0  0  0
    1.8621    0.2671   -1.4092 H   0  0  0  0  0  0  0  0  0  0  0  0
    0.3798    1.1203   -1.8789 H   0  0  0  0  0  0  0  0  0  0  0  0
    0.8563   -0.4502    1.7005 N   0  0  0  0  0  0  0  0  0  0  0  0
    1.4248   -0.8950    2.9456 C   0  0  2  0  0  0  0  0  0  0  0  0
    0.7415   -0.1330    4.0735 C   0  0  0  0  0  0  0  0  0  0  0  0
    0.3637    1.0316    3.9635 O   0  0  0  0  0  0  0  0  0  0  0  0
    2.9295   -0.6772    2.9760 C   0  0  0  0  0  0  0  0  0  0  0  0
    0.5822    0.5271    1.6212 H   0  0  0  0  0  0  0  0  0  0  0  0
    1.1958   -1.9626    3.0343 H   0  0  0  0  0  0  0  0  0  0  0  0
    3.1783    0.3867    2.8884 H   0  0  0  0  0  0  0  0  0  0  0  0
    3.3645   -1.0422    3.9123 H   0  0  0  0  0  0  0  0  0  0  0  0
    3.4161   -1.2017    2.1467 H   0  0  0  0  0  0  0  0  0  0  0  0
    0.6422   -0.8922    5.2310 N   0  0  0  0  0  0  0  0  0  0  0  0
    0.0707   -0.3783    6.4538 C   0  0  0  0  0  0  0  0  0  0  0  0
    0.9450   -1.8617    5.2202 H   0  0  0  0  0  0  0  0  0  0  0  0
    0.8683    0.0435    7.0830 H   0  0  0  0  0  0  0  0  0  0  0  0
   -0.6613    0.4072    6.2145 H   0  0  0  0  0  0  0  0  0  0  0  0
   -0.4307   -1.1940    6.9953 H   0  0  0  0  0  0  0  0  0  0  0  0
  1  3  1  0  0  0  0
  1  7  1  0  0  0  0
  1  2  2  0  0  0  0
 28 29  1  0  0  0  0
 29 37  1  0  0  0  0
 29 30  2  0  0  0  0
 18 19  1  0  0  0  0
 19 27  1  0  0  0  0
 19 20  2  0  0  0  0
  8  9  1  0  0  0  0
  9 17  1  0  0  0  0
  9 10  2  0  0  0  0
 28 31  1  0  0  0  0
 18 21  1  0  0  0  0
  8 11  1  0  0  0  0
 37 38  1  0  0  0  0
 27 28  1  0  0  0  0
 17 18  1  0  0  0  0
  7  8  1  0  0  0  0
  3  4  1  0  0  0  0
  3  5  1  0  0  0  0
  3  6  1  0  0  0  0
 31 34  1  0  0  0  0
 31 35  1  0  0  0  0
 31 36  1  0  0  0  0
 21 24  1  0  0  0  0
 21 25  1  0  0  0  0
 21 26  1  0  0  0  0
 11 14  1  0  0  0  0
 11 15  1  0  0  0  0
 11 16  1  0  0  0  0
 38 40  1  0  0  0  0
 38 41  1  0  0  0  0
 38 42  1  0  0  0  0
 28 33  1  0  0  0  0
 18 23  1  0  0  0  0
  8 13  1  0  0  0  0
 37 39  1  0  0  0  0
  7 12  1  0  0  0  0
 27 32  1  0  0  0  0
 17 22  1  0  0  0  0
M  END
$$$$

  -OEChem-05262214473D

 42 41  0     1  0  0  0  0  0999 V2000
   -5.7851   -0.9580    0.6237 C   0  0  0  0  0  0  0  0  0  0  0  0
   -6.2213    0.1296    0.2652 O   0  0  0  0  0  0  0  0  0  0  0  0
   -6.7088   -2.1270    0.7168 C   0  0  0  0  0  0  0  0  0  0  0  0
   -7.1713   -2.2193    1.7126 H   0  0  0  0  0  0  0  0  0  0  0  0
   -7.5511   -2.0547    0.0101 H   0  0  0  0  0  0  0  0  0  0  0  0
   -6.2485   -3.1083    0.5191 H   0  0  0  0  0  0  0  0  0  0  0  0
   -4.4733   -1.2411    0.9668 N   0  0  0  0  0  0  0  0  0  0  0  0
   -3.4203   -0.2603    0.9449 C   0  0  2  0  0  0  0  0  0  0  0  0
   -2.1242   -0.9699    0.5759 C   0  0  0  0  0  0  0  0  0  0  0  0
   -1.8694   -2.1225    0.9189 O   0  0  0  0  0  0  0  0  0  0  0  0
   -3.2916    0.4435    2.2868 C   0  0  0  0  0  0  0  0  0  0  0  0
   -4.2421   -2.1920    1.2489 H   0  0  0  0  0  0  0  0  0  0  0  0
   -3.6772    0.4622    0.1625 H   0  0  0  0  0  0  0  0  0  0  0  0
   -3.0345   -0.2644    3.0832 H   0  0  0  0  0  0  0  0  0  0  0  0
   -2.5093    1.2092    2.2599 H   0  0  0  0  0  0  0  0  0  0  0  0
   -4.2338    0.9283    2.5645 H   0  0  0  0  0  0  0  0  0  0  0  0
   -1.2626   -0.1515   -0.1463 N   0  0  0  0  0  0  0  0  0  0  0  0
    0.0431   -0.5785   -0.5755 C   0  0  2  0  0  0  0  0  0  0  0  0
    0.7161   -1.2825    0.5953 C   0  0  0  0  0  0  0  0  0  0  0  0
    1.2929   -2.3626    0.4869 O   0  0  0  0  0  0  0  0  0  0  0  0
    0.8794    0.5972   -1.0564 C   0  0  0  0  0  0  0  0  0  0  0  0
   -1.5766    0.7776   -0.4197 H   0  0  0  0  0  0  0  0  0  0  0  0
   -0.1101   -1.2921   -1.3923 H   0  0  0  0  0  0  0  0  0  0  0  0
    1.0435    1.3230   -0.2515 H   0  0  0  0  0  0  0  0  0  0  0  0
    1.8621    0.2671   -1.4092 H   0  0  0  0  0  0  0  0  0  0  0  0
    0.3798    1.1203   -1.8789 H   0  0  0  0  0  0  0  0  0  0  0  0
    0.5616   -0.5854    1.7886 N   0  0  0  0  0  0  0  0  0  0  0  0
    1.0716   -1.0666    3.0455 C   0  0  2  0  0  0  0  0  0  0  0  0
    0.1282   -0.5988    4.1459 C   0  0  0  0  0  0  0  0  0  0  0  0
   -0.4672    0.4759    4.1070 O   0  0  0  0  0  0  0  0  0  0  0  0
    2.4869   -0.5695    3.2952 C   0  0  0  0  0  0  0  0  0  0  0  0
    0.1023    0.3232    1.7743 H   0  0  0  0  0  0  0  0  0  0  0  0
    1.0592   -2.1608    2.9937 H   0  0  0  0  0  0  0  0  0  0  0  0
    2.5193    0.5248    3.3502 H   0  0  0  0  0  0  0  0  0  0  0  0
    2.8839   -0.9597    4.2382 H   0  0  0  0  0  0  0  0  0  0  0  0
    3.1578   -0.8817    2.4876 H   0  0  0  0  0  0  0  0  0  0  0  0
    0.0629   -1.5032    5.1966 N   0  0  0  0  0  0  0  0  0  0  0  0
   -0.7309   -1.2674    6.3799 C   0  0  0  0  0  0  0  0  0  0  0  0
    0.5583   -2.3872    5.1266 H   0  0  0  0  0  0  0  0  0  0  0  0
   -0.1100   -0.7834    7.1482 H   0  0  0  0  0  0  0  0  0  0  0  0
   -1.5787   -0.6133    6.1283 H   0  0  0  0  0  0  0  0  0  0  0  0
   -1.1090   -2.2261    6.7647 H   0  0  0  0  0  0  0  0  0  0  0  0
  1  3  1  0  0  0  0
  1  7  1  0  0  0  0
  1  2  2  0  0  0  0
 28 29  1  0  0  0  0
 29 37  1  0  0  0  0
 29 30  2  0  0  0  0
 18 19  1  0  0  0  0
 19 27  1  0  0  0  0
 19 20  2  0  0  0  0
  8  9  1  0  0  0  0
  9 17  1  0  0  0  0
  9 10  2  0  0  0  0
 28 31  1  0  0  0  0
 18 21  1  0  0  0  0
  8 11  1  0  0  0  0
 37 38  1  0  0  0  0
 27 28  1  0  0  0  0
 17 18  1  0  0  0  0
  7  8  1  0  0  0  0
  3  4  1  0  0  0  0
  3  5  1  0  0  0  0
  3  6  1  0  0  0  0
 31 34  1  0  0  0  0
 31 35  1  0  0  0  0
 31 36  1  0  0  0  0
 21 24  1  0  0  0  0
 21 25  1  0  0  0  0
 21 26  1  0  0  0  0
 11 14  1  0  0  0  0
 11 15  1  0  0  0  0
 11 16  1  0  0  0  0
 38 40  1  0  0  0  0
 38 41  1  0  0  0  0
 38 42  1  0  0  0  0
 28 33  1  0  0  0  0
 18 23  1  0  0  0  0
  8 13  1  0  0  0  0
 37 39  1  0  0  0  0
  7 12  1  0  0  0  0
 27 32  1  0  0  0  0
 17 22  1  0  0  0  0
M  END
$$$$

  -OEChem-05262214473D

 42 41  0     1  0  0  0  0  0999 V2000
   -5.7851   -0.9580    0.6237 C   0  0  0  0  0  0  0  0  0  0  0  0
   -6.2213    0.1296    0.2652 O   0  0  0  0  0  0  0  0  0  0  0  0
   -6.7088   -2.1270    0.7168 C   0  0  0  0  0  0  0  0  0  0  0  0
   -7.1713   -2.2193    1.7126 H   0  0  0  0  0  0  0  0  0  0  0  0
   -7.5511   -2.0547    0.0101 H   0  0  0  0  0  0  0  0  0  0  0  0
   -6.2485   -3.1083    0.5191 H   0  0  0  0  0  0  0  0  0  0  0  0
   -4.4733   -1.2411    0.9668 N   0  0  0  0  0  0  0  0  0  0  0  0
   -3.4203   -0.2603    0.9449 C   0  0  2  0  0  0  0  0  0  0  0  0
   -2.1242   -0.9699    0.5759 C   0  0  0  0  0  0  0  0  0  0  0  0
   -1.8694   -2.1225    0.9189 O   0  0  0  0  0  0  0  0  0  0  0  0
   -3.2916    0.4435    2.2868 C   0  0  0  0  0  0  0  0  0  0  0  0
   -4.2421   -2.1920    1.2489 H   0  0  0  0  0  0  0  0  0  0  0  0
   -3.6772    0.4622    0.1625 H   0  0  0  0  0  0  0  0  0  0  0  0
   -3.0345   -0.2644    3.0832 H   0  0  0  0  0  0  0  0  0  0  0  0
   -2.5093    1.2092    2.2599 H   0  0  0  0  0  0  0  0  0  0  0  0
   -4.2338    0.9283    2.5645 H   0  0  0  0  0  0  0  0  0  0  0  0
   -1.2626   -0.1515   -0.1463 N   0  0  0  0  0  0  0  0  0  0  0  0
    0.0431   -0.5785   -0.5755 C   0  0  2  0  0  0  0  0  0  0  0  0
    0.7161   -1.2825    0.5953 C   0  0  0  0  0  0  0  0  0  0  0  0
    1.5112   -2.2092    0.4536 O   0  0  0  0  0  0  0  0  0  0  0  0
    0.8794    0.5972   -1.0564 C   0  0  0  0  0  0  0  0  0  0  0  0
   -1.5766    0.7776   -0.4197 H   0  0  0  0  0  0  0  0  0  0  0  0
   -0.1101   -1.2921   -1.3923 H   0  0  0  0  0  0  0  0  0  0  0  0
    1.0435    1.3230   -0.2515 H   0  0  0  0  0  0  0  0  0  0  0  0
    1.8621    0.2671   -1.4092 H   0  0  0  0  0  0  0  0  0  0  0  0
    0.3798    1.1203   -1.8789 H   0  0  0  0  0  0  0  0  0  0  0  0
    0.2933   -0.7846    1.8230 N   0  0  0  0  0  0  0  0  0  0  0  0
    0.7526   -1.3141    3.0801 C   0  0  2  0  0  0  0  0  0  0  0  0
   -0.3801   -1.1791    4.0892 C   0  0  0  0  0  0  0  0  0  0  0  0
   -1.1763   -0.2426    4.0826 O   0  0  0  0  0  0  0  0  0  0  0  0
    1.9998   -0.5901    3.5629 C   0  0  0  0  0  0  0  0  0  0  0  0
   -0.3389    0.0132    1.8416 H   0  0  0  0  0  0  0  0  0  0  0  0
    0.9715   -2.3747    2.9155 H   0  0  0  0  0  0  0  0  0  0  0  0
    1.8000    0.4741    3.7332 H   0  0  0  0  0  0  0  0  0  0  0  0
    2.3643   -1.0128    4.5049 H   0  0  0  0  0  0  0  0  0  0  0  0
    2.8038   -0.6629    2.8226 H   0  0  0  0  0  0  0  0  0  0  0  0
   -0.3710   -2.2047    5.0242 N   0  0  0  0  0  0  0  0  0  0  0  0
   -1.3194   -2.2773    6.1110 C   0  0  0  0  0  0  0  0  0  0  0  0
    0.3004   -2.9610    4.9297 H   0  0  0  0  0  0  0  0  0  0  0  0
   -0.8982   -1.7843    6.9995 H   0  0  0  0  0  0  0  0  0  0  0  0
   -2.2515   -1.7717    5.8185 H   0  0  0  0  0  0  0  0  0  0  0  0
   -1.5313   -3.3316    6.3427 H   0  0  0  0  0  0  0  0  0  0  0  0
  1  3  1  0  0  0  0
  1  7  1  0  0  0  0
  1  2  2  0  0  0  0
 28 29  1  0  0  0  0
 29 37  1  0  0  0  0
 29 30  2  0  0  0  0
 18 19  1  0  0  0  0
 19 27  1  0  0  0  0
 19 20  2  0  0  0  0
  8  9  1  0  0  0  0
  9 17  1  0  0  0  0
  9 10  2  0  0  0  0
 28 31  1  0  0  0  0
 18 21  1  0  0  0  0
  8 11  1  0  0  0  0
 37 38  1  0  0  0  0
 27 28  1  0  0  0  0
 17 18  1  0  0  0  0
  7  8  1  0  0  0  0
  3  4  1  0  0  0  0
  3  5  1  0  0  0  0
  3  6  1  0  0  0  0
 31 34  1  0  0  0  0
 31 35  1  0  0  0  0
 31 36  1  0  0  0  0
 21 24  1  0  0  0  0
 21 25  1  0  0  0  0
 21 26  1  0  0  0  0
 11 14  1  0  0  0  0
 11 15  1  0  0  0  0
 11 16  1  0  0  0  0
 38 40  1  0  0  0  0
 38 41  1  0  0  0  0
 38 42  1  0  0  0  0
 28 33  1  0  0  0  0
 18 23  1  0  0  0  0
  8 13  1  0  0  0  0
 37 39  1  0  0  0  0
  7 12  1  0  0  0  0
 27 32  1  0  0  0  0
 17 22  1  0  0  0  0
M  END
$$$$

  -OEChem-05262214473D

 42 41  0     1  0  0  0  0  0999 V2000
   -5.7851   -0.9580    0.6237 C   0  0  0  0  0  0  0  0  0  0  0  0
   -6.2213    0.1296    0.2652 O   0  0  0  0  0  0  0  0  0  0  0  0
   -6.7088   -2.1270    0.7168 C   0  0  0  0  0  0  0  0  0  0  0  0
   -7.1713   -2.2193    1.7126 H   0  0  0  0  0  0  0  0  0  0  0  0
   -7.5511   -2.0547    0.0101 H   0  0  0  0  0  0  0  0  0  0  0  0
   -6.2485   -3.1083    0.5191 H   0  0  0  0  0  0  0  0  0  0  0  0
   -4.4733   -1.2411    0.9668 N   0  0  0  0  0  0  0  0  0  0  0  0
   -3.4203   -0.2603    0.9449 C   0  0  2  0  0  0  0  0  0  0  0  0
   -2.1242   -0.9699    0.5759 C   0  0  0  0  0  0  0  0  0  0  0  0
   -1.8694   -2.1225    0.9189 O   0  0  0  0  0  0  0  0  0  0  0  0
   -3.2916    0.4435    2.2868 C   0  0  0  0  0  0  0  0  0  0  0  0
   -4.2421   -2.1920    1.2489 H   0  0  0  0  0  0  0  0  0  0  0  0
   -3.6772    0.4622    0.1625 H   0  0  0  0  0  0  0  0  0  0  0  0
   -3.0345   -0.2644    3.0832 H   0  0  0  0  0  0  0  0  0  0  0  0
   -2.5093    1.2092    2.2599 H   0  0  0  0  0  0  0  0  0  0  0  0
   -4.2338    0.9283    2.5645 H   0  0  0  0  0  0  0  0  0  0  0  0
   -1.2626   -0.1515   -0.1463 N   0  0  0  0  0  0  0  0  0  0  0  0
    0.0431   -0.5785   -0.5755 C   0  0  2  0  0  0  0  0  0  0  0  0
    0.7161   -1.2825    0.5953 C   0  0  0  0  0  0  0  0  0  0  0  0
    1.6956   -2.0138    0.4652 O   0  0  0  0  0  0  0  0  0  0  0  0
    0.8794    0.5972   -1.0564 C   0  0  0  0  0  0  0  0  0  0  0  0
   -1.5766    0.7776   -0.4197 H   0  0  0  0  0  0  0  0  0  0  0  0
   -0.1101   -1.2921   -1.3923 H   0  0  0  0  0  0  0  0  0  0  0  0
    1.0435    1.3230   -0.2515 H   0  0  0  0  0  0  0  0  0  0  0  0
    1.8621    0.2671   -1.4092 H   0  0  0  0  0  0  0  0  0  0  0  0
    0.3798    1.1203   -1.8789 H   0  0  0  0  0  0  0  0  0  0  0  0
    0.0697   -1.0344    1.8013 N   0  0  0  0  0  0  0  0  0  0  0  0
    0.4896   -1.6205    3.0470 C   0  0  2  0  0  0  0  0  0  0  0  0
   -0.7489   -1.8343    3.9072 C   0  0  0  0  0  0  0  0  0  0  0  0
   -1.7154   -1.0749    3.8920 O   0  0  0  0  0  0  0  0  0  0  0  0
    1.5013   -0.7375    3.7607 C   0  0  0  0  0  0  0  0  0  0  0  0
   -0.7115   -0.3818    1.8183 H   0  0  0  0  0  0  0  0  0  0  0  0
    0.9387   -2.5899    2.8050 H   0  0  0  0  0  0  0  0  0  0  0  0
    1.0694    0.2383    4.0113 H   0  0  0  0  0  0  0  0  0  0  0  0
    1.8411   -1.1980    4.6942 H   0  0  0  0  0  0  0  0  0  0  0  0
    2.3783   -0.5603    3.1288 H   0  0  0  0  0  0  0  0  0  0  0  0
   -0.6299   -2.9489    4.7255 N   0  0  0  0  0  0  0  0  0  0  0  0
   -1.6548   -3.3392    5.6653 C   0  0  0  0  0  0  0  0  0  0  0  0
    0.1891   -3.5441    4.6431 H   0  0  0  0  0  0  0  0  0  0  0  0
   -1.4427   -2.8908    6.6471 H   0  0  0  0  0  0  0  0  0  0  0  0
   -2.6338   -2.9891    5.3063 H   0  0  0  0  0  0  0  0  0  0  0  0
   -1.6688   -4.4352    5.7582 H   0  0  0  0  0  0  0  0  0  0  0  0
  1  3  1  0  0  0  0
  1  7  1  0  0  0  0
  1  2  2  0  0  0  0
 28 29  1  0  0  0  0
 29 37  1  0  0  0  0
 29 30  2  0  0  0  0
 18 19  1  0  0  0  0
 19 27  1  0  0  0  0
 19 20  2  0  0  0  0
  8  9  1  0  0  0  0
  9 17  1  0  0  0  0
  9 10  2  0  0  0  0
 28 31  1  0  0  0  0
 18 21  1  0  0  0  0
  8 11  1  0  0  0  0
 37 38  1  0  0  0  0
 27 28  1  0  0  0  0
 17 18  1  0  0  0  0
  7  8  1  0  0  0  0
  3  4  1  0  0  0  0
  3  5  1  0  0  0  0
  3  6  1  0  0  0  0
 31 34  1  0  0  0  0
 31 35  1  0  0  0  0
 31 36  1  0  0  0  0
 21 24  1  0  0  0  0
 21 25  1  0  0  0  0
 21 26  1  0  0  0  0
 11 14  1  0  0  0  0
 11 15  1  0  0  0  0
 11 16  1  0  0  0  0
 38 40  1  0  0  0  0
 38 41  1  0  0  0  0
 38 42  1  0  0  0  0
 28 33  1  0  0  0  0
 18 23  1  0  0  0  0
  8 13  1  0  0  0  0
 37 39  1  0  0  0  0
  7 12  1  0  0  0  0
 27 32  1  0  0  0  0
 17 22  1  0  0  0  0
M  END
$$$$

  -OEChem-05262214473D

 42 41  0     1  0  0  0  0  0999 V2000
   -5.7851   -0.9580    0.6237 C   0  0  0  0  0  0  0  0  0  0  0  0
   -6.2213    0.1296    0.2652 O   0  0  0  0  0  0  0  0  0  0  0  0
   -6.7088   -2.1270    0.7168 C   0  0  0  0  0  0  0  0  0  0  0  0
   -7.1713   -2.2193    1.7126 H   0  0  0  0  0  0  0  0  0  0  0  0
   -7.5511   -2.0547    0.0101 H   0  0  0  0  0  0  0  0  0  0  0  0
   -6.2485   -3.1083    0.5191 H   0  0  0  0  0  0  0  0  0  0  0  0
   -4.4733   -1.2411    0.9668 N   0  0  0  0  0  0  0  0  0  0  0  0
   -3.4203   -0.2603    0.9449 C   0  0  2  0  0  0  0  0  0  0  0  0
   -2.1242   -0.9699    0.5759 C   0  0  0  0  0  0  0  0  0  0  0  0
   -1.8694   -2.1225    0.9189 O   0  0  0  0  0  0  0  0  0  0  0  0
   -3.2916    0.4435    2.2868 C   0  0  0  0  0  0  0  0  0  0  0  0
   -4.2421   -2.1920    1.2489 H   0  0  0  0  0  0  0  0  0  0  0  0
   -3.6772    0.4622    0.1625 H   0  0  0  0  0  0  0  0  0  0  0  0
   -3.0345   -0.2644    3.0832 H   0  0  0  0  0  0  0  0  0  0  0  0
   -2.5093    1.2092    2.2599 H   0  0  0  0  0  0  0  0  0  0  0  0
   -4.2338    0.9283    2.5645 H   0  0  0  0  0  0  0  0  0  0  0  0
   -1.2626   -0.1515   -0.1463 N   0  0  0  0  0  0  0  0  0  0  0  0
    0.0431   -0.5785   -0.5755 C   0  0  2  0  0  0  0  0  0  0  0  0
    0.7161   -1.2825    0.5953 C   0  0  0  0  0  0  0  0  0  0  0  0
    1.8334   -1.7896    0.5207 O   0  0  0  0  0  0  0  0  0  0  0  0
    0.8794    0.5972   -1.0564 C   0  0  0  0  0  0  0  0  0  0  0  0
   -1.5766    0.7776   -0.4197 H   0  0  0  0  0  0  0  0  0  0  0  0
   -0.1101   -1.2921   -1.3923 H   0  0  0  0  0  0  0  0  0  0  0  0
    1.0435    1.3230   -0.2515 H   0  0  0  0  0  0  0  0  0  0  0  0
    1.8621    0.2671   -1.4092 H   0  0  0  0  0  0  0  0  0  0  0  0
    0.3798    1.1203   -1.8789 H   0  0  0  0  0  0  0  0  0  0  0  0
   -0.0939   -1.3177    1.7251 N   0  0  0  0  0  0  0  0  0  0  0  0
    0.3005   -1.9650    2.9485 C   0  0  2  0  0  0  0  0  0  0  0  0
   -0.9530   -2.5197    3.6124 C   0  0  0  0  0  0  0  0  0  0  0  0
   -2.0477   -1.9644    3.5482 O   0  0  0  0  0  0  0  0  0  0  0  0
    1.0255   -1.0017    3.8754 C   0  0  0  0  0  0  0  0  0  0  0  0
   -0.9900   -0.8347    1.7060 H   0  0  0  0  0  0  0  0  0  0  0  0
    0.9630   -2.7916    2.6697 H   0  0  0  0  0  0  0  0  0  0  0  0
    0.3774   -0.1667    4.1656 H   0  0  0  0  0  0  0  0  0  0  0  0
    1.3500   -1.5027    4.7934 H   0  0  0  0  0  0  0  0  0  0  0  0
    1.9102   -0.5810    3.3855 H   0  0  0  0  0  0  0  0  0  0  0  0
   -0.6961   -3.6851    4.3209 N   0  0  0  0  0  0  0  0  0  0  0  0
   -1.7141   -4.3806    5.0732 C   0  0  0  0  0  0  0  0  0  0  0  0
    0.2319   -4.0967    4.2863 H   0  0  0  0  0  0  0  0  0  0  0  0
   -1.7062   -4.0277    6.1150 H   0  0  0  0  0  0  0  0  0  0  0  0
   -2.6996   -4.1824    4.6265 H   0  0  0  0  0  0  0  0  0  0  0  0
   -1.5121   -5.4617    5.0509 H   0  0  0  0  0  0  0  0  0  0  0  0
  1  3  1  0  0  0  0
  1  7  1  0  0  0  0
  1  2  2  0  0  0  0
 28 29  1  0  0  0  0
 29 37  1  0  0  0  0
 29 30  2  0  0  0  0
 18 19  1  0  0  0  0
 19 27  1  0  0  0  0
 19 20  2  0  0  0  0
  8  9  1  0  0  0  0
  9 17  1  0  0  0  0
  9 10  2  0  0  0  0
 28 31  1  0  0  0  0
 18 21  1  0  0  0  0
  8 11  1  0  0  0  0
 37 38  1  0  0  0  0
 27 28  1  0  0  0  0
 17 18  1  0  0  0  0
  7  8  1  0  0  0  0
  3  4  1  0  0  0  0
  3  5  1  0  0  0  0
  3  6  1  0  0  0  0
 31 34  1  0  0  0  0
 31 35  1  0  0  0  0
 31 36  1  0  0  0  0
 21 24  1  0  0  0  0
 21 25  1  0  0  0  0
 21 26  1  0  0  0  0
 11 14  1  0  0  0  0
 11 15  1  0  0  0  0
 11 16  1  0  0  0  0
 38 40  1  0  0  0  0
 38 41  1  0  0  0  0
 38 42  1  0  0  0  0
 28 33  1  0  0  0  0
 18 23  1  0  0  0  0
  8 13  1  0  0  0  0
 37 39  1  0  0  0  0
  7 12  1  0  0  0  0
 27 32  1  0  0  0  0
 17 22  1  0  0  0  0
M  END
$$$$

  -OEChem-05262214473D

 42 41  0     1  0  0  0  0  0999 V2000
   -5.7851   -0.9580    0.6237 C   0  0  0  0  0  0  0  0  0  0  0  0
   -6.2213    0.1296    0.2652 O   0  0  0  0  0  0  0  0  0  0  0  0
   -6.7088   -2.1270    0.7168 C   0  0  0  0  0  0  0  0  0  0  0  0
   -7.1713   -2.2193    1.7126 H   0  0  0  0  0  0  0  0  0  0  0  0
   -7.5511   -2.0547    0.0101 H   0  0  0  0  0  0  0  0  0  0  0  0
   -6.2485   -3.1083    0.5191 H   0  0  0  0  0  0  0  0  0  0  0  0
   -4.4733   -1.2411    0.9668 N   0  0  0  0  0  0  0  0  0  0  0  0
   -3.4203   -0.2603    0.9449 C   0  0  2  0  0  0  0  0  0  0  0  0
   -2.1242   -0.9699    0.5759 C   0  0  0  0  0  0  0  0  0  0  0  0
   -1.8694   -2.1225    0.9189 O   0  0  0  0  0  0  0  0  0  0  0  0
   -3.2916    0.4435    2.2868 C   0  0  0  0  0  0  0  0  0  0  0  0
   -4.2421   -2.1920    1.2489 H   0  0  0  0  0  0  0  0  0  0  0  0
   -3.6772    0.4622    0.1625 H   0  0  0  0  0  0  0  0  0  0  0  0
   -3.0345   -0.2644    3.0832 H   0  0  0  0  0  0  0  0  0  0  0  0
   -2.5093    1.2092    2.2599 H   0  0  0  0  0  0  0  0  0  0  0  0
   -4.2338    0.9283    2.5645 H   0  0  0  0  0  0  0  0  0  0  0  0
   -1.2626   -0.1515   -0.1463 N   0  0  0  0  0  0  0  0  0  0  0  0
    0.0431   -0.5785   -0.5755 C   0  0  2  0  0  0  0  0  0  0  0  0
    0.7161   -1.2825    0.5953 C   0  0  0  0  0  0  0  0  0  0  0  0
    1.9153   -1.5521    0.6165 O   0  0  0  0  0  0  0  0  0  0  0  0
    0.8794    0.5972   -1.0564 C   0  0  0  0  0  0  0  0  0  0  0  0
   -1.5766    0.7776   -0.4197 H   0  0  0  0  0  0  0  0  0  0  0  0
   -0.1101   -1.2921   -1.3923 H   0  0  0  0  0  0  0  0  0  0  0  0
    1.0435    1.3230   -0.2515 H   0  0  0  0  0  0  0  0  0  0  0  0
    1.8621    0.2671   -1.4092 H   0  0  0  0  0  0  0  0  0  0  0  0
    0.3798    1.1203   -1.8789 H   0  0  0  0  0  0  0  0  0  0  0  0
   -0.1865   -1.6152    1.5994 N   0  0  0  0  0  0  0  0  0  0  0  0
    0.1981   -2.3242    2.7914 C   0  0  2  0  0  0  0  0  0  0  0  0
   -0.9784   -3.1887    3.2248 C   0  0  0  0  0  0  0  0  0  0  0  0
   -2.1506   -2.8503    3.0747 O   0  0  0  0  0  0  0  0  0  0  0  0
    0.6047   -1.3647    3.8990 C   0  0  0  0  0  0  0  0  0  0  0  0
   -1.1554   -1.3148    1.5124 H   0  0  0  0  0  0  0  0  0  0  0  0
    1.0429   -2.9661    2.5188 H   0  0  0  0  0  0  0  0  0  0  0  0
   -0.2289   -0.7132    4.1855 H   0  0  0  0  0  0  0  0  0  0  0  0
    0.9243   -1.9061    4.7955 H   0  0  0  0  0  0  0  0  0  0  0  0
    1.4315   -0.7234    3.5750 H   0  0  0  0  0  0  0  0  0  0  0  0
   -0.5652   -4.3631    3.8380 N   0  0  0  0  0  0  0  0  0  0  0  0
   -1.4933   -5.3306    4.3751 C   0  0  0  0  0  0  0  0  0  0  0  0
    0.4259   -4.5811    3.8835 H   0  0  0  0  0  0  0  0  0  0  0  0
   -1.6709   -5.1174    5.4395 H   0  0  0  0  0  0  0  0  0  0  0  0
   -2.4443   -5.2705    3.8256 H   0  0  0  0  0  0  0  0  0  0  0  0
   -1.0718   -6.3411    4.2690 H   0  0  0  0  0  0  0  0  0  0  0  0
  1  3  1  0  0  0  0
  1  7  1  0  0  0  0
  1  2  2  0  0  0  0
 28 29  1  0  0  0  0
 29 37  1  0  0  0  0
 29 30  2  0  0  0  0
 18 19  1  0  0  0  0
 19 27  1  0  0  0  0
 19 20  2  0  0  0  0
  8  9  1  0  0  0  0
  9 17  1  0  0  0  0
  9 10  2  0  0  0  0
 28 31  1  0  0  0  0
 18 21  1  0  0  0  0
  8 11  1  0  0  0  0
 37 38  1  0  0  0  0
 27 28  1  0  0  0  0
 17 18  1  0  0  0  0
  7  8  1  0  0  0  0
  3  4  1  0  0  0  0
  3  5  1  0  0  0  0
  3  6  1  0  0  0  0
 31 34  1  0  0  0  0
 31 35  1  0  0  0  0
 31 36  1  0  0  0  0
 21 24  1  0  0  0  0
 21 25  1  0  0  0  0
 21 26  1  0  0  0  0
 11 14  1  0  0  0  0
 11 15  1  0  0  0  0
 11 16  1  0  0  0  0
 38 40  1  0  0  0  0
 38 41  1  0  0  0  0
 38 42  1  0  0  0  0
 28 33  1  0  0  0  0
 18 23  1  0  0  0  0
  8 13  1  0  0  0  0
 37 39  1  0  0  0  0
  7 12  1  0  0  0  0
 27 32  1  0  0  0  0
 17 22  1  0  0  0  0
M  END
$$$$

  -OEChem-05262214473D

 42 41  0     1  0  0  0  0  0999 V2000
   -5.7851   -0.9580    0.6237 C   0  0  0  0  0  0  0  0  0  0  0  0
   -6.2213    0.1296    0.2652 O   0  0  0  0  0  0  0  0  0  0  0  0
   -6.7088   -2.1270    0.7168 C   0  0  0  0  0  0  0  0  0  0  0  0
   -7.1713   -2.2193    1.7126 H   0  0  0  0  0  0  0  0  0  0  0  0
   -7.5511   -2.0547    0.0101 H   0  0  0  0  0  0  0  0  0  0  0  0
   -6.2485   -3.1083    0.5191 H   0  0  0  0  0  0  0  0  0  0  0  0
   -4.4733   -1.2411    0.9668 N   0  0  0  0  0  0  0  0  0  0  0  0
   -3.4203   -0.2603    0.9449 C   0  0  2  0  0  0  0  0  0  0  0  0
   -2.1242   -0.9699    0.5759 C   0  0  0  0  0  0  0  0  0  0  0  0
   -1.8694   -2.1225    0.9189 O   0  0  0  0  0  0  0  0  0  0  0  0
   -3.2916    0.4435    2.2868 C   0  0  0  0  0  0  0  0  0  0  0  0
   -4.2421   -2.1920    1.2489 H   0  0  0  0  0  0  0  0  0  0  0  0
   -3.6772    0.4622    0.1625 H   0  0  0  0  0  0  0  0  0  0  0  0
   -3.0345   -0.2644    3.0832 H   0  0  0  0  0  0  0  0  0  0  0  0
   -2.5093    1.2092    2.2599 H   0  0  0  0  0  0  0  0  0  0  0  0
   -4.2338    0.9283    2.5645 H   0  0  0  0  0  0  0  0  0  0  0  0
   -1.2626   -0.1515   -0.1463 N   0  0  0  0  0  0  0  0  0  0  0  0
    0.0431   -0.5785   -0.5755 C   0  0  2  0  0  0  0  0  0  0  0  0
    0.7161   -1.2825    0.5953 C   0  0  0  0  0  0  0  0  0  0  0  0
    1.9356   -1.3172    0.7460 O   0  0  0  0  0  0  0  0  0  0  0  0
    0.8794    0.5972   -1.0564 C   0  0  0  0  0  0  0  0  0  0  0  0
   -1.5766    0.7776   -0.4197 H   0  0  0  0  0  0  0  0  0  0  0  0
   -0.1101   -1.2921   -1.3923 H   0  0  0  0  0  0  0  0  0  0  0  0
    1.0435    1.3230   -0.2515 H   0  0  0  0  0  0  0  0  0  0  0  0
    1.8621    0.2671   -1.4092 H   0  0  0  0  0  0  0  0  0  0  0  0
    0.3798    1.1203   -1.8789 H   0  0  0  0  0  0  0  0  0  0  0  0
   -0.2018   -1.9067    1.4330 N   0  0  0  0  0  0  0  0  0  0  0  0
    0.1896   -2.6735    2.5863 C   0  0  2  0  0  0  0  0  0  0  0  0
   -0.8235   -3.7956    2.7709 C   0  0  0  0  0  0  0  0  0  0  0  0
   -2.0171   -3.6724    2.5037 O   0  0  0  0  0  0  0  0  0  0  0  0
    0.2677   -1.8017    3.8299 C   0  0  0  0  0  0  0  0  0  0  0  0
   -1.1966   -1.7893    1.2508 H   0  0  0  0  0  0  0  0  0  0  0  0
    1.1728   -3.1016    2.3627 H   0  0  0  0  0  0  0  0  0  0  0  0
   -0.7082   -1.3640    4.0697 H   0  0  0  0  0  0  0  0  0  0  0  0
    0.5931   -2.3807    4.7005 H   0  0  0  0  0  0  0  0  0  0  0  0
    0.9748   -0.9779    3.6846 H   0  0  0  0  0  0  0  0  0  0  0  0
   -0.2460   -4.9368    3.3096 N   0  0  0  0  0  0  0  0  0  0  0  0
   -1.0075   -6.1245    3.6185 C   0  0  0  0  0  0  0  0  0  0  0  0
    0.7578   -4.9644    3.4623 H   0  0  0  0  0  0  0  0  0  0  0  0
   -1.3392   -6.0857    4.6666 H   0  0  0  0  0  0  0  0  0  0  0  0
   -1.8855   -6.1791    2.9580 H   0  0  0  0  0  0  0  0  0  0  0  0
   -0.3780   -7.0135    3.4659 H   0  0  0  0  0  0  0  0  0  0  0  0
  1  3  1  0  0  0  0
  1  7  1  0  0  0  0
  1  2  2  0  0  0  0
 28 29  1  0  0  0  0
 29 37  1  0  0  0  0
 29 30  2  0  0  0  0
 18 19  1  0  0  0  0
 19 27  1  0  0  0  0
 19 20  2  0  0  0  0
  8  9  1  0  0  0  0
  9 17  1  0  0  0  0
  9 10  2  0  0  0  0
 28 31  1  0  0  0  0
 18 21  1  0  0  0  0
  8 11  1  0  0  0  0
 37 38  1  0  0  0  0
 27 28  1  0  0  0  0
 17 18  1  0  0  0  0
  7  8  1  0  0  0  0
  3  4  1  0  0  0  0
  3  5  1  0  0  0  0
  3  6  1  0  0  0  0
 31 34  1  0  0  0  0
 31 35  1  0  0  0  0
 31 36  1  0  0  0  0
 21 24  1  0  0  0  0
 21 25  1  0  0  0  0
 21 26  1  0  0  0  0
 11 14  1  0  0  0  0
 11 15  1  0  0  0  0
 11 16  1  0  0  0  0
 38 40  1  0  0  0  0
 38 41  1  0  0  0  0
 38 42  1  0  0  0  0
 28 33  1  0  0  0  0
 18 23  1  0  0  0  0
  8 13  1  0  0  0  0
 37 39  1  0  0  0  0
  7 12  1  0  0  0  0
 27 32  1  0  0  0  0
 17 22  1  0  0  0  0
M  END
$$$$

  -OEChem-05262214473D

 42 41  0     1  0  0  0  0  0999 V2000
   -5.7851   -0.9580    0.6237 C   0  0  0  0  0  0  0  0  0  0  0  0
   -6.2213    0.1296    0.2652 O   0  0  0  0  0  0  0  0  0  0  0  0
   -6.7088   -2.1270    0.7168 C   0  0  0  0  0  0  0  0  0  0  0  0
   -7.1713   -2.2193    1.7126 H   0  0  0  0  0  0  0  0  0  0  0  0
   -7.5511   -2.0547    0.0101 H   0  0  0  0  0  0  0  0  0  0  0  0
   -6.2485   -3.1083    0.5191 H   0  0  0  0  0  0  0  0  0  0  0  0
   -4.4733   -1.2411    0.9668 N   0  0  0  0  0  0  0  0  0  0  0  0
   -3.4203   -0.2603    0.9449 C   0  0  2  0  0  0  0  0  0  0  0  0
   -2.1242   -0.9699    0.5759 C   0  0  0  0  0  0  0  0  0  0  0  0
   -1.8694   -2.1225    0.9189 O   0  0  0  0  0  0  0  0  0  0  0  0
   -3.2916    0.4435    2.2868 C   0  0  0  0  0  0  0  0  0  0  0  0
   -4.2421   -2.1920    1.2489 H   0  0  0  0  0  0  0  0  0  0  0  0
   -3.6772    0.4622    0.1625 H   0  0  0  0  0  0  0  0  0  0  0  0
   -3.0345   -0.2644    3.0832 H   0  0  0  0  0  0  0  0  0  0  0  0
   -2.5093    1.2092    2.2599 H   0  0  0  0  0  0  0  0  0  0  0  0
   -4.2338    0.9283    2.5645 H   0  0  0  0  0  0  0  0  0  0  0  0
   -1.2626   -0.1515   -0.1463 N   0  0  0  0  0  0  0  0  0  0  0  0
    0.0431   -0.5785   -0.5755 C   0  0  2  0  0  0  0  0  0  0  0  0
    0.7161   -1.2825    0.5953 C   0  0  0  0  0  0  0  0  0  0  0  0
    1.8931   -1.1012    0.9003 O   0  0  0  0  0  0  0  0  0  0  0  0
    0.8794    0.5972   -1.0564 C   0  0  0  0  0  0  0  0  0  0  0  0
   -1.5766    0.7776   -0.4197 H   0  0  0  0  0  0  0  0  0  0  0  0
   -0.1101   -1.2921   -1.3923 H   0  0  0  0  0  0  0  0  0  0  0  0
    1.0435    1.3230   -0.2515 H   0  0  0  0  0  0  0  0  0  0  0  0
    1.8621    0.2671   -1.4092 H   0  0  0  0  0  0  0  0  0  0  0  0
    0.3798    1.1203   -1.8789 H   0  0  0  0  0  0  0  0  0  0  0  0
   -0.1386   -2.1721    1.2370 N   0  0  0  0  0  0  0  0  0  0  0  0
    0.2753   -2.9892    2.3472 C   0  0  2  0  0  0  0  0  0  0  0  0
   -0.4989   -4.2990    2.2815 C   0  0  0  0  0  0  0  0  0  0  0  0
   -1.6562   -4.3745    1.8740 O   0  0  0  0  0  0  0  0  0  0  0  0
    0.0374   -2.2830    3.6729 C   0  0  0  0  0  0  0  0  0  0  0  0
   -1.1106   -2.2259    0.9388 H   0  0  0  0  0  0  0  0  0  0  0  0
    1.3439   -3.1887    2.2120 H   0  0  0  0  0  0  0  0  0  0  0  0
   -1.0278   -2.0748    3.8261 H   0  0  0  0  0  0  0  0  0  0  0  0
    0.3790   -2.8941    4.5149 H   0  0  0  0  0  0  0  0  0  0  0  0
    0.5711   -1.3271    3.7066 H   0  0  0  0  0  0  0  0  0  0  0  0
    0.2396   -5.3669    2.7719 N   0  0  0  0  0  0  0  0  0  0  0  0
   -0.2898   -6.7081    2.8551 C   0  0  0  0  0  0  0  0  0  0  0  0
    1.2051   -5.2203    3.0513 H   0  0  0  0  0  0  0  0  0  0  0  0
   -0.7336   -6.8667    3.8490 H   0  0  0  0  0  0  0  0  0  0  0  0
   -1.0610   -6.8463    2.0830 H   0  0  0  0  0  0  0  0  0  0  0  0
    0.5220   -7.4331    2.6963 H   0  0  0  0  0  0  0  0  0  0  0  0
  1  3  1  0  0  0  0
  1  7  1  0  0  0  0
  1  2  2  0  0  0  0
 28 29  1  0  0  0  0
 29 37  1  0  0  0  0
 29 30  2  0  0  0  0
 18 19  1  0  0  0  0
 19 27  1  0  0  0  0
 19 20  2  0  0  0  0
  8  9  1  0  0  0  0
  9 17  1  0  0  0  0
  9 10  2  0  0  0  0
 28 31  1  0  0  0  0
 18 21  1  0  0  0  0
  8 11  1  0  0  0  0
 37 38  1  0  0  0  0
 27 28  1  0  0  0  0
 17 18  1  0  0  0  0
  7  8  1  0  0  0  0
  3  4  1  0  0  0  0
  3  5  1  0  0  0  0
  3  6  1  0  0  0  0
 31 34  1  0  0  0  0
 31 35  1  0  0  0  0
 31 36  1  0  0  0  0
 21 24  1  0  0  0  0
 21 25  1  0  0  0  0
 21 26  1  0  0  0  0
 11 14  1  0  0  0  0
 11 15  1  0  0  0  0
 11 16  1  0  0  0  0
 38 40  1  0  0  0  0
 38 41  1  0  0  0  0
 38 42  1  0  0  0  0
 28 33  1  0  0  0  0
 18 23  1  0  0  0  0
  8 13  1  0  0  0  0
 37 39  1  0  0  0  0
  7 12  1  0  0  0  0
 27 32  1  0  0  0  0
 17 22  1  0  0  0  0
M  END
$$$$

  -OEChem-05262214473D

 42 41  0     1  0  0  0  0  0999 V2000
   -5.7851   -0.9580    0.6237 C   0  0  0  0  0  0  0  0  0  0  0  0
   -6.2213    0.1296    0.2652 O   0  0  0  0  0  0  0  0  0  0  0  0
   -6.7088   -2.1270    0.7168 C   0  0  0  0  0  0  0  0  0  0  0  0
   -7.1713   -2.2193    1.7126 H   0  0  0  0  0  0  0  0  0  0  0  0
   -7.5511   -2.0547    0.0101 H   0  0  0  0  0  0  0  0  0  0  0  0
   -6.2485   -3.1083    0.5191 H   0  0  0  0  0  0  0  0  0  0  0  0
   -4.4733   -1.2411    0.9668 N   0  0  0  0  0  0  0  0  0  0  0  0
   -3.4203   -0.2603    0.9449 C   0  0  2  0  0  0  0  0  0  0  0  0
   -2.1242   -0.9699    0.5759 C   0  0  0  0  0  0  0  0  0  0  0  0
   -1.8694   -2.1225    0.9189 O   0  0  0  0  0  0  0  0  0  0  0  0
   -3.2916    0.4435    2.2868 C   0  0  0  0  0  0  0  0  0  0  0  0
   -4.2421   -2.1920    1.2489 H   0  0  0  0  0  0  0  0  0  0  0  0
   -3.6772    0.4622    0.1625 H   0  0  0  0  0  0  0  0  0  0  0  0
   -3.0345   -0.2644    3.0832 H   0  0  0  0  0  0  0  0  0  0  0  0
   -2.5093    1.2092    2.2599 H   0  0  0  0  0  0  0  0  0  0  0  0
   -4.2338    0.9283    2.5645 H   0  0  0  0  0  0  0  0  0  0  0  0
   -1.2626   -0.1515   -0.1463 N   0  0  0  0  0  0  0  0  0  0  0  0
    0.0431   -0.5785   -0.5755 C   0  0  2  0  0  0  0  0  0  0  0  0
    0.7161   -1.2825    0.5953 C   0  0  0  0  0  0  0  0  0  0  0  0
    1.7905   -0.9186    1.0690 O   0  0  0  0  0  0  0  0  0  0  0  0
    0.8794    0.5972   -1.0564 C   0  0  0  0  0  0  0  0  0  0  0  0
   -1.5766    0.7776   -0.4197 H   0  0  0  0  0  0  0  0  0  0  0  0
   -0.1101   -1.2921   -1.3923 H   0  0  0  0  0  0  0  0  0  0  0  0
    1.0435    1.3230   -0.2515 H   0  0  0  0  0  0  0  0  0  0  0  0
    1.8621    0.2671   -1.4092 H   0  0  0  0  0  0  0  0  0  0  0  0
    0.3798    1.1203   -1.8789 H   0  0  0  0  0  0  0  0  0  0  0  0
   -0.0013   -2.3936    1.0249 N   0  0  0  0  0  0  0  0  0  0  0  0
    0.4496   -3.2497    2.0904 C   0  0  2  0  0  0  0  0  0  0  0  0
   -0.0266   -4.6648    1.7901 C   0  0  0  0  0  0  0  0  0  0  0  0
   -1.0925   -4.9089    1.2287 O   0  0  0  0  0  0  0  0  0  0  0  0
   -0.0705   -2.7758    3.4386 C   0  0  0  0  0  0  0  0  0  0  0  0
   -0.9033   -2.5948    0.5979 H   0  0  0  0  0  0  0  0  0  0  0  0
    1.5446   -3.2215    2.0769 H   0  0  0  0  0  0  0  0  0  0  0  0
   -1.1660   -2.7971    3.4712 H   0  0  0  0  0  0  0  0  0  0  0  0
    0.2966   -3.4114    4.2512 H   0  0  0  0  0  0  0  0  0  0  0  0
    0.2481   -1.7473    3.6397 H   0  0  0  0  0  0  0  0  0  0  0  0
    0.8586   -5.6243    2.2613 N   0  0  0  0  0  0  0  0  0  0  0  0
    0.6109   -7.0417    2.1367 C   0  0  0  0  0  0  0  0  0  0  0  0
    1.7373   -5.3316    2.6785 H   0  0  0  0  0  0  0  0  0  0  0  0
    0.1045   -7.4070    3.0424 H   0  0  0  0  0  0  0  0  0  0  0  0
   -0.0273   -7.2266    1.2601 H   0  0  0  0  0  0  0  0  0  0  0  0
    1.5670   -7.5713    2.0125 H   0  0  0  0  0  0  0  0  0  0  0  0
  1  3  1  0  0  0  0
  1  7  1  0  0  0  0
  1  2  2  0  0  0  0
 28 29  1  0  0  0  0
 29 37  1  0  0  0  0
 29 30  2  0  0  0  0
 18 19  1  0  0  0  0
 19 27  1  0  0  0  0
 19 20  2  0  0  0  0
  8  9  1  0  0  0  0
  9 17  1  0  0  0  0
  9 10  2  0  0  0  0
 28 31  1  0  0  0  0
 18 21  1  0  0  0  0
  8 11  1  0  0  0  0
 37 38  1  0  0  0  0
 27 28  1  0  0  0  0
 17 18  1  0  0  0  0
  7  8  1  0  0  0  0
  3  4  1  0  0  0  0
  3  5  1  0  0  0  0
  3  6  1  0  0  0  0
 31 34  1  0  0  0  0
 31 35  1  0  0  0  0
 31 36  1  0  0  0  0
 21 24  1  0  0  0  0
 21 25  1  0  0  0  0
 21 26  1  0  0  0  0
 11 14  1  0  0  0  0
 11 15  1  0  0  0  0
 11 16  1  0  0  0  0
 38 40  1  0  0  0  0
 38 41  1  0  0  0  0
 38 42  1  0  0  0  0
 28 33  1  0  0  0  0
 18 23  1  0  0  0  0
  8 13  1  0  0  0  0
 37 39  1  0  0  0  0
  7 12  1  0  0  0  0
 27 32  1  0  0  0  0
 17 22  1  0  0  0  0
M  END
$$$$

  -OEChem-05262214473D

 42 41  0     1  0  0  0  0  0999 V2000
   -5.7851   -0.9580    0.6237 C   0  0  0  0  0  0  0  0  0  0  0  0
   -6.2213    0.1296    0.2652 O   0  0  0  0  0  0  0  0  0  0  0  0
   -6.7088   -2.1270    0.7168 C   0  0  0  0  0  0  0  0  0  0  0  0
   -7.1713   -2.2193    1.7126 H   0  0  0  0  0  0  0  0  0  0  0  0
   -7.5511   -2.0547    0.0101 H   0  0  0  0  0  0  0  0  0  0  0  0
   -6.2485   -3.1083    0.5191 H   0  0  0  0  0  0  0  0  0  0  0  0
   -4.4733   -1.2411    0.9668 N   0  0  0  0  0  0  0  0  0  0  0  0
   -3.4203   -0.2603    0.9449 C   0  0  2  0  0  0  0  0  0  0  0  0
   -2.1242   -0.9699    0.5759 C   0  0  0  0  0  0  0  0  0  0  0  0
   -1.8694   -2.1225    0.9189 O   0  0  0  0  0  0  0  0  0  0  0  0
   -3.2916    0.4435    2.2868 C   0  0  0  0  0  0  0  0  0  0  0  0
   -4.2421   -2.1920    1.2489 H   0  0  0  0  0  0  0  0  0  0  0  0
   -3.6772    0.4622    0.1625 H   0  0  0  0  0  0  0  0  0  0  0  0
   -3.0345   -0.2644    3.0832 H   0  0  0  0  0  0  0  0  0  0  0  0
   -2.5093    1.2092    2.2599 H   0  0  0  0  0  0  0  0  0  0  0  0
   -4.2338    0.9283    2.5645 H   0  0  0  0  0  0  0  0  0  0  0  0
   -1.2626   -0.1515   -0.1463 N   0  0  0  0  0  0  0  0  0  0  0  0
    0.0431   -0.5785   -0.5755 C   0  0  2  0  0  0  0  0  0  0  0  0
    0.7161   -1.2825    0.5953 C   0  0  0  0  0  0  0  0  0  0  0  0
    1.6349   -0.7820    1.2406 O   0  0  0  0  0  0  0  0  0  0  0  0
    0.8794    0.5972   -1.0564 C   0  0  0  0  0  0  0  0  0  0  0  0
   -1.5766    0.7776   -0.4197 H   0  0  0  0  0  0  0  0  0  0  0  0
   -0.1101   -1.2921   -1.3923 H   0  0  0  0  0  0  0  0  0  0  0  0
    1.0435    1.3230   -0.2515 H   0  0  0  0  0  0  0  0  0  0  0  0
    1.8621    0.2671   -1.4092 H   0  0  0  0  0  0  0  0  0  0  0  0
    0.3798    1.1203   -1.8789 H   0  0  0  0  0  0  0  0  0  0  0  0
    0.2008   -2.5559    0.8112 N   0  0  0  0  0  0  0  0  0  0  0  0
    0.7004   -3.4372    1.8334 C   0  0  2  0  0  0  0  0  0  0  0  0
    0.5613   -4.8679    1.3301 C   0  0  0  0  0  0  0  0  0  0  0  0
   -0.3646   -5.2392    0.6117 O   0  0  0  0  0  0  0  0  0  0  0  0
   -0.0487   -3.2465    3.1431 C   0  0  0  0  0  0  0  0  0  0  0  0
   -0.5889   -2.8709    0.2511 H   0  0  0  0  0  0  0  0  0  0  0  0
    1.7611   -3.1979    1.9667 H   0  0  0  0  0  0  0  0  0  0  0  0
   -1.1132   -3.4816    3.0292 H   0  0  0  0  0  0  0  0  0  0  0  0
    0.3515   -3.8973    3.9275 H   0  0  0  0  0  0  0  0  0  0  0  0
    0.0276   -2.2098    3.4883 H   0  0  0  0  0  0  0  0  0  0  0  0
    1.5688   -5.6913    1.8128 N   0  0  0  0  0  0  0  0  0  0  0  0
    1.6333   -7.1026    1.5125 C   0  0  0  0  0  0  0  0  0  0  0  0
    2.3180   -5.2905    2.3694 H   0  0  0  0  0  0  0  0  0  0  0  0
    1.1181   -7.6698    2.3017 H   0  0  0  0  0  0  0  0  0  0  0  0
    1.1454   -7.2942    0.5454 H   0  0  0  0  0  0  0  0  0  0  0  0
    2.6856   -7.4187    1.4613 H   0  0  0  0  0  0  0  0  0  0  0  0
  1  3  1  0  0  0  0
  1  7  1  0  0  0  0
  1  2  2  0  0  0  0
 28 29  1  0  0  0  0
 29 37  1  0  0  0  0
 29 30  2  0  0  0  0
 18 19  1  0  0  0  0
 19 27  1  0  0  0  0
 19 20  2  0  0  0  0
  8  9  1  0  0  0  0
  9 17  1  0  0  0  0
  9 10  2  0  0  0  0
 28 31  1  0  0  0  0
 18 21  1  0  0  0  0
  8 11  1  0  0  0  0
 37 38  1  0  0  0  0
 27 28  1  0  0  0  0
 17 18  1  0  0  0  0
  7  8  1  0  0  0  0
  3  4  1  0  0  0  0
  3  5  1  0  0  0  0
  3  6  1  0  0  0  0
 31 34  1  0  0  0  0
 31 35  1  0  0  0  0
 31 36  1  0  0  0  0
 21 24  1  0  0  0  0
 21 25  1  0  0  0  0
 21 26  1  0  0  0  0
 11 14  1  0  0  0  0
 11 15  1  0  0  0  0
 11 16  1  0  0  0  0
 38 40  1  0  0  0  0
 38 41  1  0  0  0  0
 38 42  1  0  0  0  0
 28 33  1  0  0  0  0
 18 23  1  0  0  0  0
  8 13  1  0  0  0  0
 37 39  1  0  0  0  0
  7 12  1  0  0  0  0
 27 32  1  0  0  0  0
 17 22  1  0  0  0  0
M  END
$$$$

  -OEChem-05262214473D

 42 41  0     1  0  0  0  0  0999 V2000
   -5.7851   -0.9580    0.6237 C   0  0  0  0  0  0  0  0  0  0  0  0
   -6.2213    0.1296    0.2652 O   0  0  0  0  0  0  0  0  0  0  0  0
   -6.7088   -2.1270    0.7168 C   0  0  0  0  0  0  0  0  0  0  0  0
   -7.1713   -2.2193    1.7126 H   0  0  0  0  0  0  0  0  0  0  0  0
   -7.5511   -2.0547    0.0101 H   0  0  0  0  0  0  0  0  0  0  0  0
   -6.2485   -3.1083    0.5191 H   0  0  0  0  0  0  0  0  0  0  0  0
   -4.4733   -1.2411    0.9668 N   0  0  0  0  0  0  0  0  0  0  0  0
   -3.4203   -0.2603    0.9449 C   0  0  2  0  0  0  0  0  0  0  0  0
   -2.1242   -0.9699    0.5759 C   0  0  0  0  0  0  0  0  0  0  0  0
   -1.8694   -2.1225    0.9189 O   0  0  0  0  0  0  0  0  0  0  0  0
   -3.2916    0.4435    2.2868 C   0  0  0  0  0  0  0  0  0  0  0  0
   -4.2421   -2.1920    1.2489 H   0  0  0  0  0  0  0  0  0  0  0  0
   -3.6772    0.4622    0.1625 H   0  0  0  0  0  0  0  0  0  0  0  0
   -3.0345   -0.2644    3.0832 H   0  0  0  0  0  0  0  0  0  0  0  0
   -2.5093    1.2092    2.2599 H   0  0  0  0  0  0  0  0  0  0  0  0
   -4.2338    0.9283    2.5645 H   0  0  0  0  0  0  0  0  0  0  0  0
   -1.2626   -0.1515   -0.1463 N   0  0  0  0  0  0  0  0  0  0  0  0
    0.0431   -0.5785   -0.5755 C   0  0  2  0  0  0  0  0  0  0  0  0
    0.7161   -1.2825    0.5953 C   0  0  0  0  0  0  0  0  0  0  0  0
    1.4370   -0.7006    1.4034 O   0  0  0  0  0  0  0  0  0  0  0  0
    0.8794    0.5972   -1.0564 C   0  0  0  0  0  0  0  0  0  0  0  0
   -1.5766    0.7776   -0.4197 H   0  0  0  0  0  0  0  0  0  0  0  0
   -0.1101   -1.2921   -1.3923 H   0  0  0  0  0  0  0  0  0  0  0  0
    1.0435    1.3230   -0.2515 H   0  0  0  0  0  0  0  0  0  0  0  0
    1.8621    0.2671   -1.4092 H   0  0  0  0  0  0  0  0  0  0  0  0
    0.3798    1.1203   -1.8789 H   0  0  0  0  0  0  0  0  0  0  0  0
    0.4539   -2.6480    0.6103 N   0  0  0  0  0  0  0  0  0  0  0  0
    1.0108   -3.5391    1.5938 C   0  0  2  0  0  0  0  0  0  0  0  0
    1.2245   -4.8945    0.9329 C   0  0  0  0  0  0  0  0  0  0  0  0
    0.4781   -5.3427    0.0650 O   0  0  0  0  0  0  0  0  0  0  0  0
    0.1015   -3.6630    2.8064 C   0  0  0  0  0  0  0  0  0  0  0  0
   -0.1888   -3.0354   -0.0777 H   0  0  0  0  0  0  0  0  0  0  0  0
    1.9787   -3.1194    1.8888 H   0  0  0  0  0  0  0  0  0  0  0  0
   -0.8732   -4.0818    2.5304 H   0  0  0  0  0  0  0  0  0  0  0  0
    0.5399   -4.3187    3.5658 H   0  0  0  0  0  0  0  0  0  0  0  0
   -0.0751   -2.6830    3.2628 H   0  0  0  0  0  0  0  0  0  0  0  0
    2.3218   -5.5634    1.4568 N   0  0  0  0  0  0  0  0  0  0  0  0
    2.7076   -6.8865    1.0249 C   0  0  0  0  0  0  0  0  0  0  0  0
    2.9078   -5.0999    2.1450 H   0  0  0  0  0  0  0  0  0  0  0  0
    2.2381   -7.6373    1.6775 H   0  0  0  0  0  0  0  0  0  0  0  0
    2.3771   -7.0444   -0.0124 H   0  0  0  0  0  0  0  0  0  0  0  0
    3.8017   -6.9857    1.0801 H   0  0  0  0  0  0  0  0  0  0  0  0
  1  3  1  0  0  0  0
  1  7  1  0  0  0  0
  1  2  2  0  0  0  0
 28 29  1  0  0  0  0
 29 37  1  0  0  0  0
 29 30  2  0  0  0  0
 18 19  1  0  0  0  0
 19 27  1  0  0  0  0
 19 20  2  0  0  0  0
  8  9  1  0  0  0  0
  9 17  1  0  0  0  0
  9 10  2  0  0  0  0
 28 31  1  0  0  0  0
 18 21  1  0  0  0  0
  8 11  1  0  0  0  0
 37 38  1  0  0  0  0
 27 28  1  0  0  0  0
 17 18  1  0  0  0  0
  7  8  1  0  0  0  0
  3  4  1  0  0  0  0
  3  5  1  0  0  0  0
  3  6  1  0  0  0  0
 31 34  1  0  0  0  0
 31 35  1  0  0  0  0
 31 36  1  0  0  0  0
 21 24  1  0  0  0  0
 21 25  1  0  0  0  0
 21 26  1  0  0  0  0
 11 14  1  0  0  0  0
 11 15  1  0  0  0  0
 11 16  1  0  0  0  0
 38 40  1  0  0  0  0
 38 41  1  0  0  0  0
 38 42  1  0  0  0  0
 28 33  1  0  0  0  0
 18 23  1  0  0  0  0
  8 13  1  0  0  0  0
 37 39  1  0  0  0  0
  7 12  1  0  0  0  0
 27 32  1  0  0  0  0
 17 22  1  0  0  0  0
M  END
$$$$

  -OEChem-05262214473D

 42 41  0     1  0  0  0  0  0999 V2000
   -5.7851   -0.9580    0.6237 C   0  0  0  0  0  0  0  0  0  0  0  0
   -6.2213    0.1296    0.2652 O   0  0  0  0  0  0  0  0  0  0  0  0
   -6.7088   -2.1270    0.7168 C   0  0  0  0  0  0  0  0  0  0  0  0
   -7.1713   -2.2193    1.7126 H   0  0  0  0  0  0  0  0  0  0  0  0
   -7.5511   -2.0547    0.0101 H   0  0  0  0  0  0  0  0  0  0  0  0
   -6.2485   -3.1083    0.5191 H   0  0  0  0  0  0  0  0  0  0  0  0
   -4.4733   -1.2411    0.9668 N   0  0  0  0  0  0  0  0  0  0  0  0
   -3.4203   -0.2603    0.9449 C   0  0  2  0  0  0  0  0  0  0  0  0
   -2.1242   -0.9699    0.5759 C   0  0  0  0  0  0  0  0  0  0  0  0
   -1.8694   -2.1225    0.9189 O   0  0  0  0  0  0  0  0  0  0  0  0
   -3.2916    0.4435    2.2868 C   0  0  0  0  0  0  0  0  0  0  0  0
   -4.2421   -2.1920    1.2489 H   0  0  0  0  0  0  0  0  0  0  0  0
   -3.6772    0.4622    0.1625 H   0  0  0  0  0  0  0  0  0  0  0  0
   -3.0345   -0.2644    3.0832 H   0  0  0  0  0  0  0  0  0  0  0  0
   -2.5093    1.2092    2.2599 H   0  0  0  0  0  0  0  0  0  0  0  0
   -4.2338    0.9283    2.5645 H   0  0  0  0  0  0  0  0  0  0  0  0
   -1.2626   -0.1515   -0.1463 N   0  0  0  0  0  0  0  0  0  0  0  0
    0.0431   -0.5785   -0.5755 C   0  0  2  0  0  0  0  0  0  0  0  0
    0.7161   -1.2825    0.5953 C   0  0  0  0  0  0  0  0  0  0  0  0
    1.2100   -0.6800    1.5462 O   0  0  0  0  0  0  0  0  0  0  0  0
    0.8794    0.5972   -1.0564 C   0  0  0  0  0  0  0  0  0  0  0  0
   -1.5766    0.7776   -0.4197 H   0  0  0  0  0  0  0  0  0  0  0  0
   -0.1101   -1.2921   -1.3923 H   0  0  0  0  0  0  0  0  0  0  0  0
    1.0435    1.3230   -0.2515 H   0  0  0  0  0  0  0  0  0  0  0  0
    1.8621    0.2671   -1.4092 H   0  0  0  0  0  0  0  0  0  0  0  0
    0.3798    1.1203   -1.8789 H   0  0  0  0  0  0  0  0  0  0  0  0
    0.7406   -2.6637    0.4361 N   0  0  0  0  0  0  0  0  0  0  0  0
    1.3596   -3.5484    1.3877 C   0  0  2  0  0  0  0  0  0  0  0  0
    1.9179   -4.7428    0.6255 C   0  0  0  0  0  0  0  0  0  0  0  0
    1.3781   -5.2126   -0.3740 O   0  0  0  0  0  0  0  0  0  0  0  0
    0.3696   -3.9969    2.4515 C   0  0  0  0  0  0  0  0  0  0  0  0
    0.2697   -3.0771   -0.3664 H   0  0  0  0  0  0  0  0  0  0  0  0
    2.1826   -2.9913    1.8486 H   0  0  0  0  0  0  0  0  0  0  0  0
   -0.4622   -4.5567    2.0086 H   0  0  0  0  0  0  0  0  0  0  0  0
    0.8490   -4.6469    3.1908 H   0  0  0  0  0  0  0  0  0  0  0  0
   -0.0533   -3.1348    2.9786 H   0  0  0  0  0  0  0  0  0  0  0  0
    3.0663   -5.2494    1.2177 N   0  0  0  0  0  0  0  0  0  0  0  0
    3.7607   -6.4083    0.7071 C   0  0  0  0  0  0  0  0  0  0  0  0
    3.4664   -4.7728    2.0206 H   0  0  0  0  0  0  0  0  0  0  0  0
    3.3881   -7.3117    1.2122 H   0  0  0  0  0  0  0  0  0  0  0  0
    3.5838   -6.4942   -0.3752 H   0  0  0  0  0  0  0  0  0  0  0  0
    4.8393   -6.3017    0.8950 H   0  0  0  0  0  0  0  0  0  0  0  0
  1  3  1  0  0  0  0
  1  7  1  0  0  0  0
  1  2  2  0  0  0  0
 28 29  1  0  0  0  0
 29 37  1  0  0  0  0
 29 30  2  0  0  0  0
 18 19  1  0  0  0  0
 19 27  1  0  0  0  0
 19 20  2  0  0  0  0
  8  9  1  0  0  0  0
  9 17  1  0  0  0  0
  9 10  2  0  0  0  0
 28 31  1  0  0  0  0
 18 21  1  0  0  0  0
  8 11  1  0  0  0  0
 37 38  1  0  0  0  0
 27 28  1  0  0  0  0
 17 18  1  0  0  0  0
  7  8  1  0  0  0  0
  3  4  1  0  0  0  0
  3  5  1  0  0  0  0
  3  6  1  0  0  0  0
 31 34  1  0  0  0  0
 31 35  1  0  0  0  0
 31 36  1  0  0  0  0
 21 24  1  0  0  0  0
 21 25  1  0  0  0  0
 21 26  1  0  0  0  0
 11 14  1  0  0  0  0
 11 15  1  0  0  0  0
 11 16  1  0  0  0  0
 38 40  1  0  0  0  0
 38 41  1  0  0  0  0
 38 42  1  0  0  0  0
 28 33  1  0  0  0  0
 18 23  1  0  0  0  0
  8 13  1  0  0  0  0
 37 39  1  0  0  0  0
  7 12  1  0  0  0  0
 27 32  1  0  0  0  0
 17 22  1  0  0  0  0
M  END
$$$$

  -OEChem-05262214473D

 42 41  0     1  0  0  0  0  0999 V2000
   -5.7851   -0.9580    0.6237 C   0  0  0  0  0  0  0  0  0  0  0  0
   -6.2213    0.1296    0.2652 O   0  0  0  0  0  0  0  0  0  0  0  0
   -6.7088   -2.1270    0.7168 C   0  0  0  0  0  0  0  0  0  0  0  0
   -7.1713   -2.2193    1.7126 H   0  0  0  0  0  0  0  0  0  0  0  0
   -7.5511   -2.0547    0.0101 H   0  0  0  0  0  0  0  0  0  0  0  0
   -6.2485   -3.1083    0.5191 H   0  0  0  0  0  0  0  0  0  0  0  0
   -4.4733   -1.2411    0.9668 N   0  0  0  0  0  0  0  0  0  0  0  0
   -3.4203   -0.2603    0.9449 C   0  0  2  0  0  0  0  0  0  0  0  0
   -2.1242   -0.9699    0.5759 C   0  0  0  0  0  0  0  0  0  0  0  0
   -1.8694   -2.1225    0.9189 O   0  0  0  0  0  0  0  0  0  0  0  0
   -3.2916    0.4435    2.2868 C   0  0  0  0  0  0  0  0  0  0  0  0
   -4.2421   -2.1920    1.2489 H   0  0  0  0  0  0  0  0  0  0  0  0
   -3.6772    0.4622    0.1625 H   0  0  0  0  0  0  0  0  0  0  0  0
   -3.0345   -0.2644    3.0832 H   0  0  0  0  0  0  0  0  0  0  0  0
   -2.5093    1.2092    2.2599 H   0  0  0  0  0  0  0  0  0  0  0  0
   -4.2338    0.9283    2.5645 H   0  0  0  0  0  0  0  0  0  0  0  0
   -1.2626   -0.1515   -0.1463 N   0  0  0  0  0  0  0  0  0  0  0  0
    0.0431   -0.5785   -0.5755 C   0  0  2  0  0  0  0  0  0  0  0  0
    0.7161   -1.2825    0.5953 C   0  0  0  0  0  0  0  0  0  0  0  0
    0.9697   -0.7216    1.6594 O   0  0  0  0  0  0  0  0  0  0  0  0
    0.8794    0.5972   -1.0564 C   0  0  0  0  0  0  0  0  0  0  0  0
   -1.5766    0.7776   -0.4197 H   0  0  0  0  0  0  0  0  0  0  0  0
   -0.1101   -1.2921   -1.3923 H   0  0  0  0  0  0  0  0  0  0  0  0
    1.0435    1.3230   -0.2515 H   0  0  0  0  0  0  0  0  0  0  0  0
    1.8621    0.2671   -1.4092 H   0  0  0  0  0  0  0  0  0  0  0  0
    0.3798    1.1203   -1.8789 H   0  0  0  0  0  0  0  0  0  0  0  0
    1.0416   -2.6018    0.3003 N   0  0  0  0  0  0  0  0  0  0  0  0
    1.7229   -3.4643    1.2294 C   0  0  2  0  0  0  0  0  0  0  0  0
    2.5943   -4.4232    0.4289 C   0  0  0  0  0  0  0  0  0  0  0  0
    2.2741   -4.8575   -0.6756 O   0  0  0  0  0  0  0  0  0  0  0  0
    0.7375   -4.2255    2.1025 C   0  0  0  0  0  0  0  0  0  0  0  0
    0.7555   -2.9931   -0.5951 H   0  0  0  0  0  0  0  0  0  0  0  0
    2.3589   -2.8225    1.8488 H   0  0  0  0  0  0  0  0  0  0  0  0
    0.0917   -4.8740    1.4995 H   0  0  0  0  0  0  0  0  0  0  0  0
    1.2578   -4.8596    2.8280 H   0  0  0  0  0  0  0  0  0  0  0  0
    0.0918   -3.5344    2.6550 H   0  0  0  0  0  0  0  0  0  0  0  0
    3.7516   -4.7705    1.1118 N   0  0  0  0  0  0  0  0  0  0  0  0
    4.7207   -5.7005    0.5808 C   0  0  0  0  0  0  0  0  0  0  0  0
    3.9557   -4.3314    2.0047 H   0  0  0  0  0  0  0  0  0  0  0  0
    4.4899   -6.7151    0.9376 H   0  0  0  0  0  0  0  0  0  0  0  0
    4.6833   -5.6811   -0.5184 H   0  0  0  0  0  0  0  0  0  0  0  0
    5.7275   -5.4134    0.9186 H   0  0  0  0  0  0  0  0  0  0  0  0
  1  3  1  0  0  0  0
  1  7  1  0  0  0  0
  1  2  2  0  0  0  0
 28 29  1  0  0  0  0
 29 37  1  0  0  0  0
 29 30  2  0  0  0  0
 18 19  1  0  0  0  0
 19 27  1  0  0  0  0
 19 20  2  0  0  0  0
  8  9  1  0  0  0  0
  9 17  1  0  0  0  0
  9 10  2  0  0  0  0
 28 31  1  0  0  0  0
 18 21  1  0  0  0  0
  8 11  1  0  0  0  0
 37 38  1  0  0  0  0
 27 28  1  0  0  0  0
 17 18  1  0  0  0  0
  7  8  1  0  0  0  0
  3  4  1  0  0  0  0
  3  5  1  0  0  0  0
  3  6  1  0  0  0  0
 31 34  1  0  0  0  0
 31 35  1  0  0  0  0
 31 36  1  0  0  0  0
 21 24  1  0  0  0  0
 21 25  1  0  0  0  0
 21 26  1  0  0  0  0
 11 14  1  0  0  0  0
 11 15  1  0  0  0  0
 11 16  1  0  0  0  0
 38 40  1  0  0  0  0
 38 41  1  0  0  0  0
 38 42  1  0  0  0  0
 28 33  1  0  0  0  0
 18 23  1  0  0  0  0
  8 13  1  0  0  0  0
 37 39  1  0  0  0  0
  7 12  1  0  0  0  0
 27 32  1  0  0  0  0
 17 22  1  0  0  0  0
M  END
$$$$

  -OEChem-05262214473D

 42 41  0     1  0  0  0  0  0999 V2000
   -5.7851   -0.9580    0.6237 C   0  0  0  0  0  0  0  0  0  0  0  0
   -6.2213    0.1296    0.2652 O   0  0  0  0  0  0  0  0  0  0  0  0
   -6.7088   -2.1270    0.7168 C   0  0  0  0  0  0  0  0  0  0  0  0
   -7.1713   -2.2193    1.7126 H   0  0  0  0  0  0  0  0  0  0  0  0
   -7.5511   -2.0547    0.0101 H   0  0  0  0  0  0  0  0  0  0  0  0
   -6.2485   -3.1083    0.5191 H   0  0  0  0  0  0  0  0  0  0  0  0
   -4.4733   -1.2411    0.9668 N   0  0  0  0  0  0  0  0  0  0  0  0
   -3.4203   -0.2603    0.9449 C   0  0  2  0  0  0  0  0  0  0  0  0
   -2.1242   -0.9699    0.5759 C   0  0  0  0  0  0  0  0  0  0  0  0
   -1.8694   -2.1225    0.9189 O   0  0  0  0  0  0  0  0  0  0  0  0
   -3.2916    0.4435    2.2868 C   0  0  0  0  0  0  0  0  0  0  0  0
   -4.2421   -2.1920    1.2489 H   0  0  0  0  0  0  0  0  0  0  0  0
   -3.6772    0.4622    0.1625 H   0  0  0  0  0  0  0  0  0  0  0  0
   -3.0345   -0.2644    3.0832 H   0  0  0  0  0  0  0  0  0  0  0  0
   -2.5093    1.2092    2.2599 H   0  0  0  0  0  0  0  0  0  0  0  0
   -4.2338    0.9283    2.5645 H   0  0  0  0  0  0  0  0  0  0  0  0
   -1.2626   -0.1515   -0.1463 N   0  0  0  0  0  0  0  0  0  0  0  0
    0.0431   -0.5785   -0.5755 C   0  0  2  0  0  0  0  0  0  0  0  0
    0.7161   -1.2825    0.5953 C   0  0  0  0  0  0  0  0  0  0  0  0
    0.7322   -0.8225    1.7352 O   0  0  0  0  0  0  0  0  0  0  0  0
    0.8794    0.5972   -1.0564 C   0  0  0  0  0  0  0  0  0  0  0  0
   -1.5766    0.7776   -0.4197 H   0  0  0  0  0  0  0  0  0  0  0  0
   -0.1101   -1.2921   -1.3923 H   0  0  0  0  0  0  0  0  0  0  0  0
    1.0435    1.3230   -0.2515 H   0  0  0  0  0  0  0  0  0  0  0  0
    1.8621    0.2671   -1.4092 H   0  0  0  0  0  0  0  0  0  0  0  0
    0.3798    1.1203   -1.8789 H   0  0  0  0  0  0  0  0  0  0  0  0
    1.3363   -2.4667    0.2122 N   0  0  0  0  0  0  0  0  0  0  0  0
    2.0761   -3.2927    1.1296 C   0  0  2  0  0  0  0  0  0  0  0  0
    3.2076   -3.9573    0.3565 C   0  0  0  0  0  0  0  0  0  0  0  0
    3.1050   -4.3018   -0.8190 O   0  0  0  0  0  0  0  0  0  0  0  0
    1.1801   -4.3331    1.7834 C   0  0  0  0  0  0  0  0  0  0  0  0
    1.2353   -2.7891   -0.7483 H   0  0  0  0  0  0  0  0  0  0  0  0
    2.4955   -2.6243    1.8894 H   0  0  0  0  0  0  0  0  0  0  0  0
    0.7507   -5.0120    1.0376 H   0  0  0  0  0  0  0  0  0  0  0  0
    1.7383   -4.9421    2.5021 H   0  0  0  0  0  0  0  0  0  0  0  0
    0.3501   -3.8544    2.3141 H   0  0  0  0  0  0  0  0  0  0  0  0
    4.3309   -4.1595    1.1462 N   0  0  0  0  0  0  0  0  0  0  0  0
    5.5223   -4.8113    0.6547 C   0  0  0  0  0  0  0  0  0  0  0  0
    4.3425   -3.8059    2.0983 H   0  0  0  0  0  0  0  0  0  0  0  0
    5.4682   -5.8882    0.8725 H   0  0  0  0  0  0  0  0  0  0  0  0
    5.6008   -4.6607   -0.4321 H   0  0  0  0  0  0  0  0  0  0  0  0
    6.4058   -4.3813    1.1492 H   0  0  0  0  0  0  0  0  0  0  0  0
  1  3  1  0  0  0  0
  1  7  1  0  0  0  0
  1  2  2  0  0  0  0
 28 29  1  0  0  0  0
 29 37  1  0  0  0  0
 29 30  2  0  0  0  0
 18 19  1  0  0  0  0
 19 27  1  0  0  0  0
 19 20  2  0  0  0  0
  8  9  1  0  0  0  0
  9 17  1  0  0  0  0
  9 10  2  0  0  0  0
 28 31  1  0  0  0  0
 18 21  1  0  0  0  0
  8 11  1  0  0  0  0
 37 38  1  0  0  0  0
 27 28  1  0  0  0  0
 17 18  1  0  0  0  0
  7  8  1  0  0  0  0
  3  4  1  0  0  0  0
  3  5  1  0  0  0  0
  3  6  1  0  0  0  0
 31 34  1  0  0  0  0
 31 35  1  0  0  0  0
 31 36  1  0  0  0  0
 21 24  1  0  0  0  0
 21 25  1  0  0  0  0
 21 26  1  0  0  0  0
 11 14  1  0  0  0  0
 11 15  1  0  0  0  0
 11 16  1  0  0  0  0
 38 40  1  0  0  0  0
 38 41  1  0  0  0  0
 38 42  1  0  0  0  0
 28 33  1  0  0  0  0
 18 23  1  0  0  0  0
  8 13  1  0  0  0  0
 37 39  1  0  0  0  0
  7 12  1  0  0  0  0
 27 32  1  0  0  0  0
 17 22  1  0  0  0  0
M  END
$$$$

  -OEChem-05262214473D

 42 41  0     1  0  0  0  0  0999 V2000
   -5.7851   -0.9580    0.6237 C   0  0  0  0  0  0  0  0  0  0  0  0
   -6.2213    0.1296    0.2652 O   0  0  0  0  0  0  0  0  0  0  0  0
   -6.7088   -2.1270    0.7168 C   0  0  0  0  0  0  0  0  0  0  0  0
   -7.1713   -2.2193    1.7126 H   0  0  0  0  0  0  0  0  0  0  0  0
   -7.5511   -2.0547    0.0101 H   0  0  0  0  0  0  0  0  0  0  0  0
   -6.2485   -3.1083    0.5191 H   0  0  0  0  0  0  0  0  0  0  0  0
   -4.4733   -1.2411    0.9668 N   0  0  0  0  0  0  0  0  0  0  0  0
   -3.4203   -0.2603    0.9449 C   0  0  2  0  0  0  0  0  0  0  0  0
   -2.1242   -0.9699    0.5759 C   0  0  0  0  0  0  0  0  0  0  0  0
   -1.8694   -2.1225    0.9189 O   0  0  0  0  0  0  0  0  0  0  0  0
   -3.2916    0.4435    2.2868 C   0  0  0  0  0  0  0  0  0  0  0  0
   -4.2421   -2.1920    1.2489 H   0  0  0  0  0  0  0  0  0  0  0  0
   -3.6772    0.4622    0.1625 H   0  0  0  0  0  0  0  0  0  0  0  0
   -3.0345   -0.2644    3.0832 H   0  0  0  0  0  0  0  0  0  0  0  0
   -2.5093    1.2092    2.2599 H   0  0  0  0  0  0  0  0  0  0  0  0
   -4.2338    0.9283    2.5645 H   0  0  0  0  0  0  0  0  0  0  0  0
   -1.2626   -0.1515   -0.1463 N   0  0  0  0  0  0  0  0  0  0  0  0
    0.0431   -0.5785   -0.5755 C   0  0  2  0  0  0  0  0  0  0  0  0
    0.7161   -1.2825    0.5953 C   0  0  0  0  0  0  0  0  0  0  0  0
    0.5139   -0.9759    1.7685 O   0  0  0  0  0  0  0  0  0  0  0  0
    0.8794    0.5972   -1.0564 C   0  0  0  0  0  0  0  0  0  0  0  0
   -1.5766    0.7776   -0.4197 H   0  0  0  0  0  0  0  0  0  0  0  0
   -0.1101   -1.2921   -1.3923 H   0  0  0  0  0  0  0  0  0  0  0  0
    1.0435    1.3230   -0.2515 H   0  0  0  0  0  0  0  0  0  0  0  0
    1.8621    0.2671   -1.4092 H   0  0  0  0  0  0  0  0  0  0  0  0
    0.3798    1.1203   -1.8789 H   0  0  0  0  0  0  0  0  0  0  0  0
    1.6046   -2.2674    0.1778 N   0  0  0  0  0  0  0  0  0  0  0  0
    2.3951   -3.0453    1.0950 C   0  0  2  0  0  0  0  0  0  0  0  0
    3.7159   -3.3770    0.4132 C   0  0  0  0  0  0  0  0  0  0  0  0
    3.8141   -3.5834   -0.7946 O   0  0  0  0  0  0  0  0  0  0  0  0
    1.6673   -4.3126    1.5157 C   0  0  0  0  0  0  0  0  0  0  0  0
    1.6766   -2.4791   -0.8155 H   0  0  0  0  0  0  0  0  0  0  0  0
    2.5832   -2.4103    1.9676 H   0  0  0  0  0  0  0  0  0  0  0  0
    1.4700   -4.9614    0.6546 H   0  0  0  0  0  0  0  0  0  0  0  0
    2.2579   -4.8889    2.2354 H   0  0  0  0  0  0  0  0  0  0  0  0
    0.7040   -4.0732    1.9790 H   0  0  0  0  0  0  0  0  0  0  0  0
    4.7647   -3.4580    1.3186 N   0  0  0  0  0  0  0  0  0  0  0  0
    6.1108   -3.8014    0.9236 C   0  0  0  0  0  0  0  0  0  0  0  0
    4.6003   -3.2321    2.2951 H   0  0  0  0  0  0  0  0  0  0  0  0
    6.2564   -4.8874    1.0212 H   0  0  0  0  0  0  0  0  0  0  0  0
    6.2736   -3.5023   -0.1223 H   0  0  0  0  0  0  0  0  0  0  0  0
    6.8281   -3.2758    1.5711 H   0  0  0  0  0  0  0  0  0  0  0  0
  1  3  1  0  0  0  0
  1  7  1  0  0  0  0
  1  2  2  0  0  0  0
 28 29  1  0  0  0  0
 29 37  1  0  0  0  0
 29 30  2  0  0  0  0
 18 19  1  0  0  0  0
 19 27  1  0  0  0  0
 19 20  2  0  0  0  0
  8  9  1  0  0  0  0
  9 17  1  0  0  0  0
  9 10  2  0  0  0  0
 28 31  1  0  0  0  0
 18 21  1  0  0  0  0
  8 11  1  0  0  0  0
 37 38  1  0  0  0  0
 27 28  1  0  0  0  0
 17 18  1  0  0  0  0
  7  8  1  0  0  0  0
  3  4  1  0  0  0  0
  3  5  1  0  0  0  0
  3  6  1  0  0  0  0
 31 34  1  0  0  0  0
 31 35  1  0  0  0  0
 31 36  1  0  0  0  0
 21 24  1  0  0  0  0
 21 25  1  0  0  0  0
 21 26  1  0  0  0  0
 11 14  1  0  0  0  0
 11 15  1  0  0  0  0
 11 16  1  0  0  0  0
 38 40  1  0  0  0  0
 38 41  1  0  0  0  0
 38 42  1  0  0  0  0
 28 33  1  0  0  0  0
 18 23  1  0  0  0  0
  8 13  1  0  0  0  0
 37 39  1  0  0  0  0
  7 12  1  0  0  0  0
 27 32  1  0  0  0  0
 17 22  1  0  0  0  0
M  END
$$$$

  -OEChem-05262214473D

 42 41  0     1  0  0  0  0  0999 V2000
   -5.7851   -0.9580    0.6237 C   0  0  0  0  0  0  0  0  0  0  0  0
   -6.2213    0.1296    0.2652 O   0  0  0  0  0  0  0  0  0  0  0  0
   -6.7088   -2.1270    0.7168 C   0  0  0  0  0  0  0  0  0  0  0  0
   -7.1713   -2.2193    1.7126 H   0  0  0  0  0  0  0  0  0  0  0  0
   -7.5511   -2.0547    0.0101 H   0  0  0  0  0  0  0  0  0  0  0  0
   -6.2485   -3.1083    0.5191 H   0  0  0  0  0  0  0  0  0  0  0  0
   -4.4733   -1.2411    0.9668 N   0  0  0  0  0  0  0  0  0  0  0  0
   -3.4203   -0.2603    0.9449 C   0  0  2  0  0  0  0  0  0  0  0  0
   -2.1242   -0.9699    0.5759 C   0  0  0  0  0  0  0  0  0  0  0  0
   -1.8694   -2.1225    0.9189 O   0  0  0  0  0  0  0  0  0  0  0  0
   -3.2916    0.4435    2.2868 C   0  0  0  0  0  0  0  0  0  0  0  0
   -4.2421   -2.1920    1.2489 H   0  0  0  0  0  0  0  0  0  0  0  0
   -3.6772    0.4622    0.1625 H   0  0  0  0  0  0  0  0  0  0  0  0
   -3.0345   -0.2644    3.0832 H   0  0  0  0  0  0  0  0  0  0  0  0
   -2.5093    1.2092    2.2599 H   0  0  0  0  0  0  0  0  0  0  0  0
   -4.2338    0.9283    2.5645 H   0  0  0  0  0  0  0  0  0  0  0  0
   -1.2626   -0.1515   -0.1463 N   0  0  0  0  0  0  0  0  0  0  0  0
    0.0431   -0.5785   -0.5755 C   0  0  2  0  0  0  0  0  0  0  0  0
    0.7161   -1.2825    0.5953 C   0  0  0  0  0  0  0  0  0  0  0  0
    0.3295   -1.1713    1.7569 O   0  0  0  0  0  0  0  0  0  0  0  0
    0.8794    0.5972   -1.0564 C   0  0  0  0  0  0  0  0  0  0  0  0
   -1.5766    0.7776   -0.4197 H   0  0  0  0  0  0  0  0  0  0  0  0
   -0.1101   -1.2921   -1.3923 H   0  0  0  0  0  0  0  0  0  0  0  0
    1.0435    1.3230   -0.2515 H   0  0  0  0  0  0  0  0  0  0  0  0
    1.8621    0.2671   -1.4092 H   0  0  0  0  0  0  0  0  0  0  0  0
    0.3798    1.1203   -1.8789 H   0  0  0  0  0  0  0  0  0  0  0  0
    1.8282   -2.0176    0.1994 N   0  0  0  0  0  0  0  0  0  0  0  0
    2.6581   -2.7389    1.1281 C   0  0  2  0  0  0  0  0  0  0  0  0
    4.0847   -2.7218    0.5952 C   0  0  0  0  0  0  0  0  0  0  0  0
    4.3532   -2.7510   -0.6041 O   0  0  0  0  0  0  0  0  0  0  0  0
    2.1658   -4.1651    1.3178 C   0  0  0  0  0  0  0  0  0  0  0  0
    2.0491   -2.0842   -0.7922 H   0  0  0  0  0  0  0  0  0  0  0  0
    2.6160   -2.1952    2.0781 H   0  0  0  0  0  0  0  0  0  0  0  0
    2.2006   -4.7256    0.3765 H   0  0  0  0  0  0  0  0  0  0  0  0
    2.7811   -4.7037    2.0461 H   0  0  0  0  0  0  0  0  0  0  0  0
    1.1296   -4.1758    1.6728 H   0  0  0  0  0  0  0  0  0  0  0  0
    5.0236   -2.7138    1.6172 N   0  0  0  0  0  0  0  0  0  0  0  0
    6.4462   -2.7396    1.3693 C   0  0  0  0  0  0  0  0  0  0  0  0
    4.7117   -2.6490    2.5817 H   0  0  0  0  0  0  0  0  0  0  0  0
    6.8009   -3.7808    1.3735 H   0  0  0  0  0  0  0  0  0  0  0  0
    6.6559   -2.2849    0.3899 H   0  0  0  0  0  0  0  0  0  0  0  0
    6.9656   -2.1722    2.1557 H   0  0  0  0  0  0  0  0  0  0  0  0
  1  3  1  0  0  0  0
  1  7  1  0  0  0  0
  1  2  2  0  0  0  0
 28 29  1  0  0  0  0
 29 37  1  0  0  0  0
 29 30  2  0  0  0  0
 18 19  1  0  0  0  0
 19 27  1  0  0  0  0
 19 20  2  0  0  0  0
  8  9  1  0  0  0  0
  9 17  1  0  0  0  0
  9 10  2  0  0  0  0
 28 31  1  0  0  0  0
 18 21  1  0  0  0  0
  8 11  1  0  0  0  0
 37 38  1  0  0  0  0
 27 28  1  0  0  0  0
 17 18  1  0  0  0  0
  7  8  1  0  0  0  0
  3  4  1  0  0  0  0
  3  5  1  0  0  0  0
  3  6  1  0  0  0  0
 31 34  1  0  0  0  0
 31 35  1  0  0  0  0
 31 36  1  0  0  0  0
 21 24  1  0  0  0  0
 21 25  1  0  0  0  0
 21 26  1  0  0  0  0
 11 14  1  0  0  0  0
 11 15  1  0  0  0  0
 11 16  1  0  0  0  0
 38 40  1  0  0  0  0
 38 41  1  0  0  0  0
 38 42  1  0  0  0  0
 28 33  1  0  0  0  0
 18 23  1  0  0  0  0
  8 13  1  0  0  0  0
 37 39  1  0  0  0  0
  7 12  1  0  0  0  0
 27 32  1  0  0  0  0
 17 22  1  0  0  0  0
M  END
$$$$

  -OEChem-05262214473D

 42 41  0     1  0  0  0  0  0999 V2000
   -5.7851   -0.9580    0.6237 C   0  0  0  0  0  0  0  0  0  0  0  0
   -6.2213    0.1296    0.2652 O   0  0  0  0  0  0  0  0  0  0  0  0
   -6.7088   -2.1270    0.7168 C   0  0  0  0  0  0  0  0  0  0  0  0
   -7.1713   -2.2193    1.7126 H   0  0  0  0  0  0  0  0  0  0  0  0
   -7.5511   -2.0547    0.0101 H   0  0  0  0  0  0  0  0  0  0  0  0
   -6.2485   -3.1083    0.5191 H   0  0  0  0  0  0  0  0  0  0  0  0
   -4.4733   -1.2411    0.9668 N   0  0  0  0  0  0  0  0  0  0  0  0
   -3.4203   -0.2603    0.9449 C   0  0  2  0  0  0  0  0  0  0  0  0
   -2.1242   -0.9699    0.5759 C   0  0  0  0  0  0  0  0  0  0  0  0
   -1.8694   -2.1225    0.9189 O   0  0  0  0  0  0  0  0  0  0  0  0
   -3.2916    0.4435    2.2868 C   0  0  0  0  0  0  0  0  0  0  0  0
   -4.2421   -2.1920    1.2489 H   0  0  0  0  0  0  0  0  0  0  0  0
   -3.6772    0.4622    0.1625 H   0  0  0  0  0  0  0  0  0  0  0  0
   -3.0345   -0.2644    3.0832 H   0  0  0  0  0  0  0  0  0  0  0  0
   -2.5093    1.2092    2.2599 H   0  0  0  0  0  0  0  0  0  0  0  0
   -4.2338    0.9283    2.5645 H   0  0  0  0  0  0  0  0  0  0  0  0
   -1.2626   -0.1515   -0.1463 N   0  0  0  0  0  0  0  0  0  0  0  0
    0.0431   -0.5785   -0.5755 C   0  0  2  0  0  0  0  0  0  0  0  0
    0.5635   -1.5901    0.4370 C   0  0  0  0  0  0  0  0  0  0  0  0
   -0.0606   -1.9107    1.4464 O   0  0  0  0  0  0  0  0  0  0  0  0
    0.9957    0.5999   -0.7053 C   0  0  0  0  0  0  0  0  0  0  0  0
   -1.5766    0.7776   -0.4197 H   0  0  0  0  0  0  0  0  0  0  0  0
   -0.0875   -1.0674   -1.5471 H   0  0  0  0  0  0  0  0  0  0  0  0
    1.1389    1.1024    0.2582 H   0  0  0  0  0  0  0  0  0  0  0  0
    1.9803    0.2770   -1.0593 H   0  0  0  0  0  0  0  0  0  0  0  0
    0.6054    1.3406   -1.4117 H   0  0  0  0  0  0  0  0  0  0  0  0
    1.8283   -2.0639    0.1061 N   0  0  0  0  0  0  0  0  0  0  0  0
    2.5519   -2.9977    0.9282 C   0  0  2  0  0  0  0  0  0  0  0  0
    4.0380   -2.6974    0.7846 C   0  0  0  0  0  0  0  0  0  0  0  0
    4.5432   -2.2957   -0.2616 O   0  0  0  0  0  0  0  0  0  0  0  0
    2.2470   -4.4344    0.5334 C   0  0  0  0  0  0  0  0  0  0  0  0
    2.2512   -1.7716   -0.7727 H   0  0  0  0  0  0  0  0  0  0  0  0
    2.2402   -2.8160    1.9625 H   0  0  0  0  0  0  0  0  0  0  0  0
    2.5523   -4.6353   -0.5000 H   0  0  0  0  0  0  0  0  0  0  0  0
    2.7760   -5.1438    1.1782 H   0  0  0  0  0  0  0  0  0  0  0  0
    1.1737   -4.6399    0.6087 H   0  0  0  0  0  0  0  0  0  0  0  0
    4.7408   -2.9720    1.9494 N   0  0  0  0  0  0  0  0  0  0  0  0
    6.1722   -2.8094    2.0530 C   0  0  0  0  0  0  0  0  0  0  0  0
    4.2355   -3.2632    2.7810 H   0  0  0  0  0  0  0  0  0  0  0  0
    6.6683   -3.7611    1.8118 H   0  0  0  0  0  0  0  0  0  0  0  0
    6.5050   -2.0336    1.3478 H   0  0  0  0  0  0  0  0  0  0  0  0
    6.4338   -2.5093    3.0784 H   0  0  0  0  0  0  0  0  0  0  0  0
  1  3  1  0  0  0  0
  1  7  1  0  0  0  0
  1  2  2  0  0  0  0
 28 29  1  0  0  0  0
 29 37  1  0  0  0  0
 29 30  2  0  0  0  0
 18 19  1  0  0  0  0
 19 27  1  0  0  0  0
 19 20  2  0  0  0  0
  8  9  1  0  0  0  0
  9 17  1  0  0  0  0
  9 10  2  0  0  0  0
 28 31  1  0  0  0  0
 18 21  1  0  0  0  0
  8 11  1  0  0  0  0
 37 38  1  0  0  0  0
 27 28  1  0  0  0  0
 17 18  1  0  0  0  0
  7  8  1  0  0  0  0
  3  4  1  0  0  0  0
  3  5  1  0  0  0  0
  3  6  1  0  0  0  0
 31 34  1  0  0  0  0
 31 35  1  0  0  0  0
 31 36  1  0  0  0  0
 21 24  1  0  0  0  0
 21 25  1  0  0  0  0
 21 26  1  0  0  0  0
 11 14  1  0  0  0  0
 11 15  1  0  0  0  0
 11 16  1  0  0  0  0
 38 40  1  0  0  0  0
 38 41  1  0  0  0  0
 38 42  1  0  0  0  0
 28 33  1  0  0  0  0
 18 23  1  0  0  0  0
  8 13  1  0  0  0  0
 37 39  1  0  0  0  0
  7 12  1  0  0  0  0
 27 32  1  0  0  0  0
 17 22  1  0  0  0  0
M  END
$$$$

  -OEChem-05262214473D

 42 41  0     1  0  0  0  0  0999 V2000
   -5.7851   -0.9580    0.6237 C   0  0  0  0  0  0  0  0  0  0  0  0
   -6.2213    0.1296    0.2652 O   0  0  0  0  0  0  0  0  0  0  0  0
   -6.7088   -2.1270    0.7168 C   0  0  0  0  0  0  0  0  0  0  0  0
   -7.1713   -2.2193    1.7126 H   0  0  0  0  0  0  0  0  0  0  0  0
   -7.5511   -2.0547    0.0101 H   0  0  0  0  0  0  0  0  0  0  0  0
   -6.2485   -3.1083    0.5191 H   0  0  0  0  0  0  0  0  0  0  0  0
   -4.4733   -1.2411    0.9668 N   0  0  0  0  0  0  0  0  0  0  0  0
   -3.4203   -0.2603    0.9449 C   0  0  2  0  0  0  0  0  0  0  0  0
   -2.1242   -0.9699    0.5759 C   0  0  0  0  0  0  0  0  0  0  0  0
   -1.8694   -2.1225    0.9189 O   0  0  0  0  0  0  0  0  0  0  0  0
   -3.2916    0.4435    2.2868 C   0  0  0  0  0  0  0  0  0  0  0  0
   -4.2421   -2.1920    1.2489 H   0  0  0  0  0  0  0  0  0  0  0  0
   -3.6772    0.4622    0.1625 H   0  0  0  0  0  0  0  0  0  0  0  0
   -3.0345   -0.2644    3.0832 H   0  0  0  0  0  0  0  0  0  0  0  0
   -2.5093    1.2092    2.2599 H   0  0  0  0  0  0  0  0  0  0  0  0
   -4.2338    0.9283    2.5645 H   0  0  0  0  0  0  0  0  0  0  0  0
   -1.2626   -0.1515   -0.1463 N   0  0  0  0  0  0  0  0  0  0  0  0
    0.0431   -0.5785   -0.5755 C   0  0  2  0  0  0  0  0  0  0  0  0
    0.5635   -1.5901    0.4370 C   0  0  0  0  0  0  0  0  0  0  0  0
   -0.1499   -2.1116    1.2916 O   0  0  0  0  0  0  0  0  0  0  0  0
    0.9957    0.5999   -0.7053 C   0  0  0  0  0  0  0  0  0  0  0  0
   -1.5766    0.7776   -0.4197 H   0  0  0  0  0  0  0  0  0  0  0  0
   -0.0875   -1.0674   -1.5471 H   0  0  0  0  0  0  0  0  0  0  0  0
    1.1389    1.1024    0.2582 H   0  0  0  0  0  0  0  0  0  0  0  0
    1.9803    0.2770   -1.0593 H   0  0  0  0  0  0  0  0  0  0  0  0
    0.6054    1.3406   -1.4117 H   0  0  0  0  0  0  0  0  0  0  0  0
    1.9298   -1.8128    0.3048 N   0  0  0  0  0  0  0  0  0  0  0  0
    2.6645   -2.6950    1.1728 C   0  0  2  0  0  0  0  0  0  0  0  0
    4.0755   -2.1413    1.3210 C   0  0  0  0  0  0  0  0  0  0  0  0
    4.6650   -1.5559    0.4149 O   0  0  0  0  0  0  0  0  0  0  0  0
    2.6919   -4.1135    0.6253 C   0  0  0  0  0  0  0  0  0  0  0  0
    2.4317   -1.3656   -0.4598 H   0  0  0  0  0  0  0  0  0  0  0  0
    2.1597   -2.6750    2.1448 H   0  0  0  0  0  0  0  0  0  0  0  0
    3.1939   -4.1535   -0.3483 H   0  0  0  0  0  0  0  0  0  0  0  0
    3.2268   -4.7893    1.3008 H   0  0  0  0  0  0  0  0  0  0  0  0
    1.6756   -4.4993    0.4913 H   0  0  0  0  0  0  0  0  0  0  0  0
    4.6153   -2.4156    2.5698 N   0  0  0  0  0  0  0  0  0  0  0  0
    5.9574   -2.0317    2.9405 C   0  0  0  0  0  0  0  0  0  0  0  0
    4.0410   -2.8705    3.2734 H   0  0  0  0  0  0  0  0  0  0  0  0
    6.6492   -2.8588    2.7231 H   0  0  0  0  0  0  0  0  0  0  0  0
    6.2564   -1.1430    2.3654 H   0  0  0  0  0  0  0  0  0  0  0  0
    5.9887   -1.8004    4.0154 H   0  0  0  0  0  0  0  0  0  0  0  0
  1  3  1  0  0  0  0
  1  7  1  0  0  0  0
  1  2  2  0  0  0  0
 28 29  1  0  0  0  0
 29 37  1  0  0  0  0
 29 30  2  0  0  0  0
 18 19  1  0  0  0  0
 19 27  1  0  0  0  0
 19 20  2  0  0  0  0
  8  9  1  0  0  0  0
  9 17  1  0  0  0  0
  9 10  2  0  0  0  0
 28 31  1  0  0  0  0
 18 21  1  0  0  0  0
  8 11  1  0  0  0  0
 37 38  1  0  0  0  0
 27 28  1  0  0  0  0
 17 18  1  0  0  0  0
  7  8  1  0  0  0  0
  3  4  1  0  0  0  0
  3  5  1  0  0  0  0
  3  6  1  0  0  0  0
 31 34  1  0  0  0  0
 31 35  1  0  0  0  0
 31 36  1  0  0  0  0
 21 24  1  0  0  0  0
 21 25  1  0  0  0  0
 21 26  1  0  0  0  0
 11 14  1  0  0  0  0
 11 15  1  0  0  0  0
 11 16  1  0  0  0  0
 38 40  1  0  0  0  0
 38 41  1  0  0  0  0
 38 42  1  0  0  0  0
 28 33  1  0  0  0  0
 18 23  1  0  0  0  0
  8 13  1  0  0  0  0
 37 39  1  0  0  0  0
  7 12  1  0  0  0  0
 27 32  1  0  0  0  0
 17 22  1  0  0  0  0
M  END
$$$$

  -OEChem-05262214473D

 42 41  0     1  0  0  0  0  0999 V2000
   -5.7851   -0.9580    0.6237 C   0  0  0  0  0  0  0  0  0  0  0  0
   -6.2213    0.1296    0.2652 O   0  0  0  0  0  0  0  0  0  0  0  0
   -6.7088   -2.1270    0.7168 C   0  0  0  0  0  0  0  0  0  0  0  0
   -7.1713   -2.2193    1.7126 H   0  0  0  0  0  0  0  0  0  0  0  0
   -7.5511   -2.0547    0.0101 H   0  0  0  0  0  0  0  0  0  0  0  0
   -6.2485   -3.1083    0.5191 H   0  0  0  0  0  0  0  0  0  0  0  0
   -4.4733   -1.2411    0.9668 N   0  0  0  0  0  0  0  0  0  0  0  0
   -3.4203   -0.2603    0.9449 C   0  0  2  0  0  0  0  0  0  0  0  0
   -2.1242   -0.9699    0.5759 C   0  0  0  0  0  0  0  0  0  0  0  0
   -1.8694   -2.1225    0.9189 O   0  0  0  0  0  0  0  0  0  0  0  0
   -3.2916    0.4435    2.2868 C   0  0  0  0  0  0  0  0  0  0  0  0
   -4.2421   -2.1920    1.2489 H   0  0  0  0  0  0  0  0  0  0  0  0
   -3.6772    0.4622    0.1625 H   0  0  0  0  0  0  0  0  0  0  0  0
   -3.0345   -0.2644    3.0832 H   0  0  0  0  0  0  0  0  0  0  0  0
   -2.5093    1.2092    2.2599 H   0  0  0  0  0  0  0  0  0  0  0  0
   -4.2338    0.9283    2.5645 H   0  0  0  0  0  0  0  0  0  0  0  0
   -1.2626   -0.1515   -0.1463 N   0  0  0  0  0  0  0  0  0  0  0  0
    0.0431   -0.5785   -0.5755 C   0  0  2  0  0  0  0  0  0  0  0  0
    0.5635   -1.5901    0.4370 C   0  0  0  0  0  0  0  0  0  0  0  0
   -0.1749   -2.3073    1.1089 O   0  0  0  0  0  0  0  0  0  0  0  0
    0.9957    0.5999   -0.7053 C   0  0  0  0  0  0  0  0  0  0  0  0
   -1.5766    0.7776   -0.4197 H   0  0  0  0  0  0  0  0  0  0  0  0
   -0.0875   -1.0674   -1.5471 H   0  0  0  0  0  0  0  0  0  0  0  0
    1.1389    1.1024    0.2582 H   0  0  0  0  0  0  0  0  0  0  0  0
    1.9803    0.2770   -1.0593 H   0  0  0  0  0  0  0  0  0  0  0  0
    0.6054    1.3406   -1.4117 H   0  0  0  0  0  0  0  0  0  0  0  0
    1.9504   -1.5704    0.5364 N   0  0  0  0  0  0  0  0  0  0  0  0
    2.6791   -2.4048    1.4552 C   0  0  2  0  0  0  0  0  0  0  0  0
    3.9238   -1.6451    1.8947 C   0  0  0  0  0  0  0  0  0  0  0  0
    4.5390   -0.8802    1.1547 O   0  0  0  0  0  0  0  0  0  0  0  0
    3.0507   -3.7352    0.8189 C   0  0  0  0  0  0  0  0  0  0  0  0
    2.4823   -0.9700   -0.0906 H   0  0  0  0  0  0  0  0  0  0  0  0
    2.0264   -2.5687    2.3195 H   0  0  0  0  0  0  0  0  0  0  0  0
    3.7046   -3.5911   -0.0490 H   0  0  0  0  0  0  0  0  0  0  0  0
    3.5800   -4.3801    1.5281 H   0  0  0  0  0  0  0  0  0  0  0  0
    2.1563   -4.2668    0.4765 H   0  0  0  0  0  0  0  0  0  0  0  0
    4.2916   -1.9548    3.1966 N   0  0  0  0  0  0  0  0  0  0  0  0
    5.4634   -1.3959    3.8295 C   0  0  0  0  0  0  0  0  0  0  0  0
    3.7009   -2.5681    3.7503 H   0  0  0  0  0  0  0  0  0  0  0  0
    6.3188   -2.0711    3.6799 H   0  0  0  0  0  0  0  0  0  0  0  0
    5.6881   -0.4154    3.3843 H   0  0  0  0  0  0  0  0  0  0  0  0
    5.2758   -1.2752    4.9067 H   0  0  0  0  0  0  0  0  0  0  0  0
  1  3  1  0  0  0  0
  1  7  1  0  0  0  0
  1  2  2  0  0  0  0
 28 29  1  0  0  0  0
 29 37  1  0  0  0  0
 29 30  2  0  0  0  0
 18 19  1  0  0  0  0
 19 27  1  0  0  0  0
 19 20  2  0  0  0  0
  8  9  1  0  0  0  0
  9 17  1  0  0  0  0
  9 10  2  0  0  0  0
 28 31  1  0  0  0  0
 18 21  1  0  0  0  0
  8 11  1  0  0  0  0
 37 38  1  0  0  0  0
 27 28  1  0  0  0  0
 17 18  1  0  0  0  0
  7  8  1  0  0  0  0
  3  4  1  0  0  0  0
  3  5  1  0  0  0  0
  3  6  1  0  0  0  0
 31 34  1  0  0  0  0
 31 35  1  0  0  0  0
 31 36  1  0  0  0  0
 21 24  1  0  0  0  0
 21 25  1  0  0  0  0
 21 26  1  0  0  0  0
 11 14  1  0  0  0  0
 11 15  1  0  0  0  0
 11 16  1  0  0  0  0
 38 40  1  0  0  0  0
 38 41  1  0  0  0  0
 38 42  1  0  0  0  0
 28 33  1  0  0  0  0
 18 23  1  0  0  0  0
  8 13  1  0  0  0  0
 37 39  1  0  0  0  0
  7 12  1  0  0  0  0
 27 32  1  0  0  0  0
 17 22  1  0  0  0  0
M  END
$$$$

  -OEChem-05262214473D

 42 41  0     1  0  0  0  0  0999 V2000
   -5.7851   -0.9580    0.6237 C   0  0  0  0  0  0  0  0  0  0  0  0
   -6.2213    0.1296    0.2652 O   0  0  0  0  0  0  0  0  0  0  0  0
   -6.7088   -2.1270    0.7168 C   0  0  0  0  0  0  0  0  0  0  0  0
   -7.1713   -2.2193    1.7126 H   0  0  0  0  0  0  0  0  0  0  0  0
   -7.5511   -2.0547    0.0101 H   0  0  0  0  0  0  0  0  0  0  0  0
   -6.2485   -3.1083    0.5191 H   0  0  0  0  0  0  0  0  0  0  0  0
   -4.4733   -1.2411    0.9668 N   0  0  0  0  0  0  0  0  0  0  0  0
   -3.4203   -0.2603    0.9449 C   0  0  2  0  0  0  0  0  0  0  0  0
   -2.1242   -0.9699    0.5759 C   0  0  0  0  0  0  0  0  0  0  0  0
   -1.8694   -2.1225    0.9189 O   0  0  0  0  0  0  0  0  0  0  0  0
   -3.2916    0.4435    2.2868 C   0  0  0  0  0  0  0  0  0  0  0  0
   -4.2421   -2.1920    1.2489 H   0  0  0  0  0  0  0  0  0  0  0  0
   -3.6772    0.4622    0.1625 H   0  0  0  0  0  0  0  0  0  0  0  0
   -3.0345   -0.2644    3.0832 H   0  0  0  0  0  0  0  0  0  0  0  0
   -2.5093    1.2092    2.2599 H   0  0  0  0  0  0  0  0  0  0  0  0
   -4.2338    0.9283    2.5645 H   0  0  0  0  0  0  0  0  0  0  0  0
   -1.2626   -0.1515   -0.1463 N   0  0  0  0  0  0  0  0  0  0  0  0
    0.0431   -0.5785   -0.5755 C   0  0  2  0  0  0  0  0  0  0  0  0
    0.5635   -1.5901    0.4370 C   0  0  0  0  0  0  0  0  0  0  0  0
   -0.1340   -2.4845    0.9108 O   0  0  0  0  0  0  0  0  0  0  0  0
    0.9957    0.5999   -0.7053 C   0  0  0  0  0  0  0  0  0  0  0  0
   -1.5766    0.7776   -0.4197 H   0  0  0  0  0  0  0  0  0  0  0  0
   -0.0875   -1.0674   -1.5471 H   0  0  0  0  0  0  0  0  0  0  0  0
    1.1389    1.1024    0.2582 H   0  0  0  0  0  0  0  0  0  0  0  0
    1.9803    0.2770   -1.0593 H   0  0  0  0  0  0  0  0  0  0  0  0
    0.6054    1.3406   -1.4117 H   0  0  0  0  0  0  0  0  0  0  0  0
    1.8888   -1.3531    0.7852 N   0  0  0  0  0  0  0  0  0  0  0  0
    2.5948   -2.1470    1.7561 C   0  0  2  0  0  0  0  0  0  0  0  0
    3.5932   -1.2427    2.4666 C   0  0  0  0  0  0  0  0  0  0  0  0
    4.1739   -0.3147    1.9074 O   0  0  0  0  0  0  0  0  0  0  0  0
    3.2989   -3.3251    1.1011 C   0  0  0  0  0  0  0  0  0  0  0  0
    2.3997   -0.6119    0.3096 H   0  0  0  0  0  0  0  0  0  0  0  0
    1.8493   -2.5045    2.4747 H   0  0  0  0  0  0  0  0  0  0  0  0
    4.0496   -2.9865    0.3778 H   0  0  0  0  0  0  0  0  0  0  0  0
    3.8118   -3.9441    1.8446 H   0  0  0  0  0  0  0  0  0  0  0  0
    2.5831   -3.9581    0.5655 H   0  0  0  0  0  0  0  0  0  0  0  0
    3.7919   -1.6207    3.7872 N   0  0  0  0  0  0  0  0  0  0  0  0
    4.7240   -0.9454    4.6596 C   0  0  0  0  0  0  0  0  0  0  0  0
    3.2384   -2.3768    4.1792 H   0  0  0  0  0  0  0  0  0  0  0  0
    5.6997   -1.4517    4.6169 H   0  0  0  0  0  0  0  0  0  0  0  0
    4.8387    0.0994    4.3352 H   0  0  0  0  0  0  0  0  0  0  0  0
    4.3435   -0.9693    5.6914 H   0  0  0  0  0  0  0  0  0  0  0  0
  1  3  1  0  0  0  0
  1  7  1  0  0  0  0
  1  2  2  0  0  0  0
 28 29  1  0  0  0  0
 29 37  1  0  0  0  0
 29 30  2  0  0  0  0
 18 19  1  0  0  0  0
 19 27  1  0  0  0  0
 19 20  2  0  0  0  0
  8  9  1  0  0  0  0
  9 17  1  0  0  0  0
  9 10  2  0  0  0  0
 28 31  1  0  0  0  0
 18 21  1  0  0  0  0
  8 11  1  0  0  0  0
 37 38  1  0  0  0  0
 27 28  1  0  0  0  0
 17 18  1  0  0  0  0
  7  8  1  0  0  0  0
  3  4  1  0  0  0  0
  3  5  1  0  0  0  0
  3  6  1  0  0  0  0
 31 34  1  0  0  0  0
 31 35  1  0  0  0  0
 31 36  1  0  0  0  0
 21 24  1  0  0  0  0
 21 25  1  0  0  0  0
 21 26  1  0  0  0  0
 11 14  1  0  0  0  0
 11 15  1  0  0  0  0
 11 16  1  0  0  0  0
 38 40  1  0  0  0  0
 38 41  1  0  0  0  0
 38 42  1  0  0  0  0
 28 33  1  0  0  0  0
 18 23  1  0  0  0  0
  8 13  1  0  0  0  0
 37 39  1  0  0  0  0
  7 12  1  0  0  0  0
 27 32  1  0  0  0  0
 17 22  1  0  0  0  0
M  END
$$$$

  -OEChem-05262214473D

 42 41  0     1  0  0  0  0  0999 V2000
   -5.7851   -0.9580    0.6237 C   0  0  0  0  0  0  0  0  0  0  0  0
   -6.2213    0.1296    0.2652 O   0  0  0  0  0  0  0  0  0  0  0  0
   -6.7088   -2.1270    0.7168 C   0  0  0  0  0  0  0  0  0  0  0  0
   -7.1713   -2.2193    1.7126 H   0  0  0  0  0  0  0  0  0  0  0  0
   -7.5511   -2.0547    0.0101 H   0  0  0  0  0  0  0  0  0  0  0  0
   -6.2485   -3.1083    0.5191 H   0  0  0  0  0  0  0  0  0  0  0  0
   -4.4733   -1.2411    0.9668 N   0  0  0  0  0  0  0  0  0  0  0  0
   -3.4203   -0.2603    0.9449 C   0  0  2  0  0  0  0  0  0  0  0  0
   -2.1242   -0.9699    0.5759 C   0  0  0  0  0  0  0  0  0  0  0  0
   -1.8694   -2.1225    0.9189 O   0  0  0  0  0  0  0  0  0  0  0  0
   -3.2916    0.4435    2.2868 C   0  0  0  0  0  0  0  0  0  0  0  0
   -4.2421   -2.1920    1.2489 H   0  0  0  0  0  0  0  0  0  0  0  0
   -3.6772    0.4622    0.1625 H   0  0  0  0  0  0  0  0  0  0  0  0
   -3.0345   -0.2644    3.0832 H   0  0  0  0  0  0  0  0  0  0  0  0
   -2.5093    1.2092    2.2599 H   0  0  0  0  0  0  0  0  0  0  0  0
   -4.2338    0.9283    2.5645 H   0  0  0  0  0  0  0  0  0  0  0  0
   -1.2626   -0.1515   -0.1463 N   0  0  0  0  0  0  0  0  0  0  0  0
    0.0431   -0.5785   -0.5755 C   0  0  2  0  0  0  0  0  0  0  0  0
    0.5635   -1.5901    0.4370 C   0  0  0  0  0  0  0  0  0  0  0  0
   -0.0300   -2.6312    0.7109 O   0  0  0  0  0  0  0  0  0  0  0  0
    0.9957    0.5999   -0.7053 C   0  0  0  0  0  0  0  0  0  0  0  0
   -1.5766    0.7776   -0.4197 H   0  0  0  0  0  0  0  0  0  0  0  0
   -0.0875   -1.0674   -1.5471 H   0  0  0  0  0  0  0  0  0  0  0  0
    1.1389    1.1024    0.2582 H   0  0  0  0  0  0  0  0  0  0  0  0
    1.9803    0.2770   -1.0593 H   0  0  0  0  0  0  0  0  0  0  0  0
    0.6054    1.3406   -1.4117 H   0  0  0  0  0  0  0  0  0  0  0  0
    1.7491   -1.1758    1.0341 N   0  0  0  0  0  0  0  0  0  0  0  0
    2.4172   -1.9390    2.0551 C   0  0  2  0  0  0  0  0  0  0  0  0
    3.1064   -0.9614    2.9979 C   0  0  0  0  0  0  0  0  0  0  0  0
    3.5945    0.1022    2.6217 O   0  0  0  0  0  0  0  0  0  0  0  0
    3.4195   -2.9112    1.4526 C   0  0  0  0  0  0  0  0  0  0  0  0
    2.1895   -0.3156    0.7138 H   0  0  0  0  0  0  0  0  0  0  0  0
    1.6404   -2.4866    2.5999 H   0  0  0  0  0  0  0  0  0  0  0  0
    4.2055   -2.3809    0.9027 H   0  0  0  0  0  0  0  0  0  0  0  0
    3.9062   -3.5111    2.2286 H   0  0  0  0  0  0  0  0  0  0  0  0
    2.9271   -3.5944    0.7521 H   0  0  0  0  0  0  0  0  0  0  0  0
    3.1503   -1.4362    4.3012 N   0  0  0  0  0  0  0  0  0  0  0  0
    3.7897   -0.7109    5.3741 C   0  0  0  0  0  0  0  0  0  0  0  0
    2.6849   -2.3094    4.5309 H   0  0  0  0  0  0  0  0  0  0  0  0
    4.8340   -1.0428    5.4704 H   0  0  0  0  0  0  0  0  0  0  0  0
    3.7663    0.3664    5.1531 H   0  0  0  0  0  0  0  0  0  0  0  0
    3.2555   -0.9036    6.3162 H   0  0  0  0  0  0  0  0  0  0  0  0
  1  3  1  0  0  0  0
  1  7  1  0  0  0  0
  1  2  2  0  0  0  0
 28 29  1  0  0  0  0
 29 37  1  0  0  0  0
 29 30  2  0  0  0  0
 18 19  1  0  0  0  0
 19 27  1  0  0  0  0
 19 20  2  0  0  0  0
  8  9  1  0  0  0  0
  9 17  1  0  0  0  0
  9 10  2  0  0  0  0
 28 31  1  0  0  0  0
 18 21  1  0  0  0  0
  8 11  1  0  0  0  0
 37 38  1  0  0  0  0
 27 28  1  0  0  0  0
 17 18  1  0  0  0  0
  7  8  1  0  0  0  0
  3  4  1  0  0  0  0
  3  5  1  0  0  0  0
  3  6  1  0  0  0  0
 31 34  1  0  0  0  0
 31 35  1  0  0  0  0
 31 36  1  0  0  0  0
 21 24  1  0  0  0  0
 21 25  1  0  0  0  0
 21 26  1  0  0  0  0
 11 14  1  0  0  0  0
 11 15  1  0  0  0  0
 11 16  1  0  0  0  0
 38 40  1  0  0  0  0
 38 41  1  0  0  0  0
 38 42  1  0  0  0  0
 28 33  1  0  0  0  0
 18 23  1  0  0  0  0
  8 13  1  0  0  0  0
 37 39  1  0  0  0  0
  7 12  1  0  0  0  0
 27 32  1  0  0  0  0
 17 22  1  0  0  0  0
M  END
$$$$

  -OEChem-05262214473D

 42 41  0     1  0  0  0  0  0999 V2000
   -5.7851   -0.9580    0.6237 C   0  0  0  0  0  0  0  0  0  0  0  0
   -6.2213    0.1296    0.2652 O   0  0  0  0  0  0  0  0  0  0  0  0
   -6.7088   -2.1270    0.7168 C   0  0  0  0  0  0  0  0  0  0  0  0
   -7.1713   -2.2193    1.7126 H   0  0  0  0  0  0  0  0  0  0  0  0
   -7.5511   -2.0547    0.0101 H   0  0  0  0  0  0  0  0  0  0  0  0
   -6.2485   -3.1083    0.5191 H   0  0  0  0  0  0  0  0  0  0  0  0
   -4.4733   -1.2411    0.9668 N   0  0  0  0  0  0  0  0  0  0  0  0
   -3.4203   -0.2603    0.9449 C   0  0  2  0  0  0  0  0  0  0  0  0
   -2.1242   -0.9699    0.5759 C   0  0  0  0  0  0  0  0  0  0  0  0
   -1.8694   -2.1225    0.9189 O   0  0  0  0  0  0  0  0  0  0  0  0
   -3.2916    0.4435    2.2868 C   0  0  0  0  0  0  0  0  0  0  0  0
   -4.2421   -2.1920    1.2489 H   0  0  0  0  0  0  0  0  0  0  0  0
   -3.6772    0.4622    0.1625 H   0  0  0  0  0  0  0  0  0  0  0  0
   -3.0345   -0.2644    3.0832 H   0  0  0  0  0  0  0  0  0  0  0  0
   -2.5093    1.2092    2.2599 H   0  0  0  0  0  0  0  0  0  0  0  0
   -4.2338    0.9283    2.5645 H   0  0  0  0  0  0  0  0  0  0  0  0
   -1.2626   -0.1515   -0.1463 N   0  0  0  0  0  0  0  0  0  0  0  0
    0.0431   -0.5785   -0.5755 C   0  0  2  0  0  0  0  0  0  0  0  0
    0.5635   -1.5901    0.4370 C   0  0  0  0  0  0  0  0  0  0  0  0
    0.1301   -2.7372    0.5226 O   0  0  0  0  0  0  0  0  0  0  0  0
    0.9957    0.5999   -0.7053 C   0  0  0  0  0  0  0  0  0  0  0  0
   -1.5766    0.7776   -0.4197 H   0  0  0  0  0  0  0  0  0  0  0  0
   -0.0875   -1.0674   -1.5471 H   0  0  0  0  0  0  0  0  0  0  0  0
    1.1389    1.1024    0.2582 H   0  0  0  0  0  0  0  0  0  0  0  0
    1.9803    0.2770   -1.0593 H   0  0  0  0  0  0  0  0  0  0  0  0
    0.6054    1.3406   -1.4117 H   0  0  0  0  0  0  0  0  0  0  0  0
    1.5409   -1.0507    1.2661 N   0  0  0  0  0  0  0  0  0  0  0  0
    2.1585   -1.7952    2.3318 C   0  0  2  0  0  0  0  0  0  0  0  0
    2.4964   -0.8205    3.4522 C   0  0  0  0  0  0  0  0  0  0  0  0
    2.8403    0.3420    3.2489 O   0  0  0  0  0  0  0  0  0  0  0  0
    3.4043   -2.5218    1.8494 C   0  0  0  0  0  0  0  0  0  0  0  0
    1.8660   -0.1012    1.0942 H   0  0  0  0  0  0  0  0  0  0  0  0
    1.4141   -2.5164    2.6864 H   0  0  0  0  0  0  0  0  0  0  0  0
    4.1617   -1.8155    1.4902 H   0  0  0  0  0  0  0  0  0  0  0  0
    3.8569   -3.1106    2.6541 H   0  0  0  0  0  0  0  0  0  0  0  0
    3.1646   -3.2004    1.0237 H   0  0  0  0  0  0  0  0  0  0  0  0
    2.4103   -1.4139    4.7038 N   0  0  0  0  0  0  0  0  0  0  0  0
    2.7239   -0.7084    5.9244 C   0  0  0  0  0  0  0  0  0  0  0  0
    2.0783   -2.3707    4.7814 H   0  0  0  0  0  0  0  0  0  0  0  0
    3.7807   -0.8722    6.1821 H   0  0  0  0  0  0  0  0  0  0  0  0
    2.5438    0.3675    5.7825 H   0  0  0  0  0  0  0  0  0  0  0  0
    2.0858   -1.0827    6.7384 H   0  0  0  0  0  0  0  0  0  0  0  0
  1  3  1  0  0  0  0
  1  7  1  0  0  0  0
  1  2  2  0  0  0  0
 28 29  1  0  0  0  0
 29 37  1  0  0  0  0
 29 30  2  0  0  0  0
 18 19  1  0  0  0  0
 19 27  1  0  0  0  0
 19 20  2  0  0  0  0
  8  9  1  0  0  0  0
  9 17  1  0  0  0  0
  9 10  2  0  0  0  0
 28 31  1  0  0  0  0
 18 21  1  0  0  0  0
  8 11  1  0  0  0  0
 37 38  1  0  0  0  0
 27 28  1  0  0  0  0
 17 18  1  0  0  0  0
  7  8  1  0  0  0  0
  3  4  1  0  0  0  0
  3  5  1  0  0  0  0
  3  6  1  0  0  0  0
 31 34  1  0  0  0  0
 31 35  1  0  0  0  0
 31 36  1  0  0  0  0
 21 24  1  0  0  0  0
 21 25  1  0  0  0  0
 21 26  1  0  0  0  0
 11 14  1  0  0  0  0
 11 15  1  0  0  0  0
 11 16  1  0  0  0  0
 38 40  1  0  0  0  0
 38 41  1  0  0  0  0
 38 42  1  0  0  0  0
 28 33  1  0  0  0  0
 18 23  1  0  0  0  0
  8 13  1  0  0  0  0
 37 39  1  0  0  0  0
  7 12  1  0  0  0  0
 27 32  1  0  0  0  0
 17 22  1  0  0  0  0
M  END
$$$$

  -OEChem-05262214473D

 42 41  0     1  0  0  0  0  0999 V2000
   -5.7851   -0.9580    0.6237 C   0  0  0  0  0  0  0  0  0  0  0  0
   -6.2213    0.1296    0.2652 O   0  0  0  0  0  0  0  0  0  0  0  0
   -6.7088   -2.1270    0.7168 C   0  0  0  0  0  0  0  0  0  0  0  0
   -7.1713   -2.2193    1.7126 H   0  0  0  0  0  0  0  0  0  0  0  0
   -7.5511   -2.0547    0.0101 H   0  0  0  0  0  0  0  0  0  0  0  0
   -6.2485   -3.1083    0.5191 H   0  0  0  0  0  0  0  0  0  0  0  0
   -4.4733   -1.2411    0.9668 N   0  0  0  0  0  0  0  0  0  0  0  0
   -3.4203   -0.2603    0.9449 C   0  0  2  0  0  0  0  0  0  0  0  0
   -2.1242   -0.9699    0.5759 C   0  0  0  0  0  0  0  0  0  0  0  0
   -1.8694   -2.1225    0.9189 O   0  0  0  0  0  0  0  0  0  0  0  0
   -3.2916    0.4435    2.2868 C   0  0  0  0  0  0  0  0  0  0  0  0
   -4.2421   -2.1920    1.2489 H   0  0  0  0  0  0  0  0  0  0  0  0
   -3.6772    0.4622    0.1625 H   0  0  0  0  0  0  0  0  0  0  0  0
   -3.0345   -0.2644    3.0832 H   0  0  0  0  0  0  0  0  0  0  0  0
   -2.5093    1.2092    2.2599 H   0  0  0  0  0  0  0  0  0  0  0  0
   -4.2338    0.9283    2.5645 H   0  0  0  0  0  0  0  0  0  0  0  0
   -1.2626   -0.1515   -0.1463 N   0  0  0  0  0  0  0  0  0  0  0  0
    0.0431   -0.5785   -0.5755 C   0  0  2  0  0  0  0  0  0  0  0  0
    0.5635   -1.5901    0.4370 C   0  0  0  0  0  0  0  0  0  0  0  0
    0.3353   -2.7955    0.3589 O   0  0  0  0  0  0  0  0  0  0  0  0
    0.9957    0.5999   -0.7053 C   0  0  0  0  0  0  0  0  0  0  0  0
   -1.5766    0.7776   -0.4197 H   0  0  0  0  0  0  0  0  0  0  0  0
   -0.0875   -1.0674   -1.5471 H   0  0  0  0  0  0  0  0  0  0  0  0
    1.1389    1.1024    0.2582 H   0  0  0  0  0  0  0  0  0  0  0  0
    1.9803    0.2770   -1.0593 H   0  0  0  0  0  0  0  0  0  0  0  0
    0.6054    1.3406   -1.4117 H   0  0  0  0  0  0  0  0  0  0  0  0
    1.2784   -0.9861    1.4656 N   0  0  0  0  0  0  0  0  0  0  0  0
    1.8363   -1.7252    2.5673 C   0  0  2  0  0  0  0  0  0  0  0  0
    1.8048   -0.8295    3.7986 C   0  0  0  0  0  0  0  0  0  0  0  0
    1.9627    0.3884    3.7463 O   0  0  0  0  0  0  0  0  0  0  0  0
    3.2545   -2.1834    2.2646 C   0  0  0  0  0  0  0  0  0  0  0  0
    1.4512    0.0165    1.4249 H   0  0  0  0  0  0  0  0  0  0  0  0
    1.1858   -2.5917    2.7285 H   0  0  0  0  0  0  0  0  0  0  0  0
    3.9210   -1.3288    2.1001 H   0  0  0  0  0  0  0  0  0  0  0  0
    3.6672   -2.7698    3.0921 H   0  0  0  0  0  0  0  0  0  0  0  0
    3.2795   -2.8030    1.3617 H   0  0  0  0  0  0  0  0  0  0  0  0
    1.6225   -1.5553    4.9674 N   0  0  0  0  0  0  0  0  0  0  0  0
    1.5994   -0.9379    6.2729 C   0  0  0  0  0  0  0  0  0  0  0  0
    1.4598   -2.5565    4.9136 H   0  0  0  0  0  0  0  0  0  0  0  0
    2.6115   -0.9517    6.7036 H   0  0  0  0  0  0  0  0  0  0  0  0
    1.2546    0.1025    6.1803 H   0  0  0  0  0  0  0  0  0  0  0  0
    0.9142   -1.4943    6.9294 H   0  0  0  0  0  0  0  0  0  0  0  0
  1  3  1  0  0  0  0
  1  7  1  0  0  0  0
  1  2  2  0  0  0  0
 28 29  1  0  0  0  0
 29 37  1  0  0  0  0
 29 30  2  0  0  0  0
 18 19  1  0  0  0  0
 19 27  1  0  0  0  0
 19 20  2  0  0  0  0
  8  9  1  0  0  0  0
  9 17  1  0  0  0  0
  9 10  2  0  0  0  0
 28 31  1  0  0  0  0
 18 21  1  0  0  0  0
  8 11  1  0  0  0  0
 37 38  1  0  0  0  0
 27 28  1  0  0  0  0
 17 18  1  0  0  0  0
  7  8  1  0  0  0  0
  3  4  1  0  0  0  0
  3  5  1  0  0  0  0
  3  6  1  0  0  0  0
 31 34  1  0  0  0  0
 31 35  1  0  0  0  0
 31 36  1  0  0  0  0
 21 24  1  0  0  0  0
 21 25  1  0  0  0  0
 21 26  1  0  0  0  0
 11 14  1  0  0  0  0
 11 15  1  0  0  0  0
 11 16  1  0  0  0  0
 38 40  1  0  0  0  0
 38 41  1  0  0  0  0
 38 42  1  0  0  0  0
 28 33  1  0  0  0  0
 18 23  1  0  0  0  0
  8 13  1  0  0  0  0
 37 39  1  0  0  0  0
  7 12  1  0  0  0  0
 27 32  1  0  0  0  0
 17 22  1  0  0  0  0
M  END
$$$$

  -OEChem-05262214473D

 42 41  0     1  0  0  0  0  0999 V2000
   -5.7851   -0.9580    0.6237 C   0  0  0  0  0  0  0  0  0  0  0  0
   -6.2213    0.1296    0.2652 O   0  0  0  0  0  0  0  0  0  0  0  0
   -6.7088   -2.1270    0.7168 C   0  0  0  0  0  0  0  0  0  0  0  0
   -7.1713   -2.2193    1.7126 H   0  0  0  0  0  0  0  0  0  0  0  0
   -7.5511   -2.0547    0.0101 H   0  0  0  0  0  0  0  0  0  0  0  0
   -6.2485   -3.1083    0.5191 H   0  0  0  0  0  0  0  0  0  0  0  0
   -4.4733   -1.2411    0.9668 N   0  0  0  0  0  0  0  0  0  0  0  0
   -3.4203   -0.2603    0.9449 C   0  0  2  0  0  0  0  0  0  0  0  0
   -2.1242   -0.9699    0.5759 C   0  0  0  0  0  0  0  0  0  0  0  0
   -1.8694   -2.1225    0.9189 O   0  0  0  0  0  0  0  0  0  0  0  0
   -3.2916    0.4435    2.2868 C   0  0  0  0  0  0  0  0  0  0  0  0
   -4.2421   -2.1920    1.2489 H   0  0  0  0  0  0  0  0  0  0  0  0
   -3.6772    0.4622    0.1625 H   0  0  0  0  0  0  0  0  0  0  0  0
   -3.0345   -0.2644    3.0832 H   0  0  0  0  0  0  0  0  0  0  0  0
   -2.5093    1.2092    2.2599 H   0  0  0  0  0  0  0  0  0  0  0  0
   -4.2338    0.9283    2.5645 H   0  0  0  0  0  0  0  0  0  0  0  0
   -1.2626   -0.1515   -0.1463 N   0  0  0  0  0  0  0  0  0  0  0  0
    0.0431   -0.5785   -0.5755 C   0  0  2  0  0  0  0  0  0  0  0  0
    0.5635   -1.5901    0.4370 C   0  0  0  0  0  0  0  0  0  0  0  0
    0.5718   -2.8019    0.2310 O   0  0  0  0  0  0  0  0  0  0  0  0
    0.9957    0.5999   -0.7053 C   0  0  0  0  0  0  0  0  0  0  0  0
   -1.5766    0.7776   -0.4197 H   0  0  0  0  0  0  0  0  0  0  0  0
   -0.0875   -1.0674   -1.5471 H   0  0  0  0  0  0  0  0  0  0  0  0
    1.1389    1.1024    0.2582 H   0  0  0  0  0  0  0  0  0  0  0  0
    1.9803    0.2770   -1.0593 H   0  0  0  0  0  0  0  0  0  0  0  0
    0.6054    1.3406   -1.4117 H   0  0  0  0  0  0  0  0  0  0  0  0
    0.9794   -0.9865    1.6188 N   0  0  0  0  0  0  0  0  0  0  0  0
    1.4726   -1.7339    2.7455 C   0  0  2  0  0  0  0  0  0  0  0  0
    1.0788   -0.9879    4.0135 C   0  0  0  0  0  0  0  0  0  0  0  0
    1.0215    0.2383    4.0800 O   0  0  0  0  0  0  0  0  0  0  0  0
    2.9801   -1.9189    2.6697 C   0  0  0  0  0  0  0  0  0  0  0  0
    0.9734    0.0295    1.6835 H   0  0  0  0  0  0  0  0  0  0  0  0
    0.9710   -2.7075    2.7232 H   0  0  0  0  0  0  0  0  0  0  0  0
    3.4999   -0.9541    2.6908 H   0  0  0  0  0  0  0  0  0  0  0  0
    3.3500   -2.5121    3.5126 H   0  0  0  0  0  0  0  0  0  0  0  0
    3.2641   -2.4292    1.7430 H   0  0  0  0  0  0  0  0  0  0  0  0
    0.8406   -1.8507    5.0741 N   0  0  0  0  0  0  0  0  0  0  0  0
    0.4929   -1.3840    6.3959 C   0  0  0  0  0  0  0  0  0  0  0  0
    0.8717   -2.8541    4.9187 H   0  0  0  0  0  0  0  0  0  0  0  0
    1.4063   -1.2758    6.9992 H   0  0  0  0  0  0  0  0  0  0  0  0
   -0.0134   -0.4105    6.3195 H   0  0  0  0  0  0  0  0  0  0  0  0
   -0.1795   -2.1103    6.8760 H   0  0  0  0  0  0  0  0  0  0  0  0
  1  3  1  0  0  0  0
  1  7  1  0  0  0  0
  1  2  2  0  0  0  0
 28 29  1  0  0  0  0
 29 37  1  0  0  0  0
 29 30  2  0  0  0  0
 18 19  1  0  0  0  0
 19 27  1  0  0  0  0
 19 20  2  0  0  0  0
  8  9  1  0  0  0  0
  9 17  1  0  0  0  0
  9 10  2  0  0  0  0
 28 31  1  0  0  0  0
 18 21  1  0  0  0  0
  8 11  1  0  0  0  0
 37 38  1  0  0  0  0
 27 28  1  0  0  0  0
 17 18  1  0  0  0  0
  7  8  1  0  0  0  0
  3  4  1  0  0  0  0
  3  5  1  0  0  0  0
  3  6  1  0  0  0  0
 31 34  1  0  0  0  0
 31 35  1  0  0  0  0
 31 36  1  0  0  0  0
 21 24  1  0  0  0  0
 21 25  1  0  0  0  0
 21 26  1  0  0  0  0
 11 14  1  0  0  0  0
 11 15  1  0  0  0  0
 11 16  1  0  0  0  0
 38 40  1  0  0  0  0
 38 41  1  0  0  0  0
 38 42  1  0  0  0  0
 28 33  1  0  0  0  0
 18 23  1  0  0  0  0
  8 13  1  0  0  0  0
 37 39  1  0  0  0  0
  7 12  1  0  0  0  0
 27 32  1  0  0  0  0
 17 22  1  0  0  0  0
M  END
$$$$

  -OEChem-05262214473D

 42 41  0     1  0  0  0  0  0999 V2000
   -5.7851   -0.9580    0.6237 C   0  0  0  0  0  0  0  0  0  0  0  0
   -6.2213    0.1296    0.2652 O   0  0  0  0  0  0  0  0  0  0  0  0
   -6.7088   -2.1270    0.7168 C   0  0  0  0  0  0  0  0  0  0  0  0
   -7.1713   -2.2193    1.7126 H   0  0  0  0  0  0  0  0  0  0  0  0
   -7.5511   -2.0547    0.0101 H   0  0  0  0  0  0  0  0  0  0  0  0
   -6.2485   -3.1083    0.5191 H   0  0  0  0  0  0  0  0  0  0  0  0
   -4.4733   -1.2411    0.9668 N   0  0  0  0  0  0  0  0  0  0  0  0
   -3.4203   -0.2603    0.9449 C   0  0  2  0  0  0  0  0  0  0  0  0
   -2.1242   -0.9699    0.5759 C   0  0  0  0  0  0  0  0  0  0  0  0
   -1.8694   -2.1225    0.9189 O   0  0  0  0  0  0  0  0  0  0  0  0
   -3.2916    0.4435    2.2868 C   0  0  0  0  0  0  0  0  0  0  0  0
   -4.2421   -2.1920    1.2489 H   0  0  0  0  0  0  0  0  0  0  0  0
   -3.6772    0.4622    0.1625 H   0  0  0  0  0  0  0  0  0  0  0  0
   -3.0345   -0.2644    3.0832 H   0  0  0  0  0  0  0  0  0  0  0  0
   -2.5093    1.2092    2.2599 H   0  0  0  0  0  0  0  0  0  0  0  0
   -4.2338    0.9283    2.5645 H   0  0  0  0  0  0  0  0  0  0  0  0
   -1.2626   -0.1515   -0.1463 N   0  0  0  0  0  0  0  0  0  0  0  0
    0.0431   -0.5785   -0.5755 C   0  0  2  0  0  0  0  0  0  0  0  0
    0.5635   -1.5901    0.4370 C   0  0  0  0  0  0  0  0  0  0  0  0
    0.8233   -2.7562    0.1474 O   0  0  0  0  0  0  0  0  0  0  0  0
    0.9957    0.5999   -0.7053 C   0  0  0  0  0  0  0  0  0  0  0  0
   -1.5766    0.7776   -0.4197 H   0  0  0  0  0  0  0  0  0  0  0  0
   -0.0875   -1.0674   -1.5471 H   0  0  0  0  0  0  0  0  0  0  0  0
    1.1389    1.1024    0.2582 H   0  0  0  0  0  0  0  0  0  0  0  0
    1.9803    0.2770   -1.0593 H   0  0  0  0  0  0  0  0  0  0  0  0
    0.6054    1.3406   -1.4117 H   0  0  0  0  0  0  0  0  0  0  0  0
    0.6644   -1.0520    1.7153 N   0  0  0  0  0  0  0  0  0  0  0  0
    1.0921   -1.8207    2.8544 C   0  0  2  0  0  0  0  0  0  0  0  0
    0.3678   -1.2848    4.0823 C   0  0  0  0  0  0  0  0  0  0  0  0
    0.0809   -0.0983    4.2272 O   0  0  0  0  0  0  0  0  0  0  0  0
    2.6000   -1.7466    3.0373 C   0  0  0  0  0  0  0  0  0  0  0  0
    0.4652   -0.0630    1.8523 H   0  0  0  0  0  0  0  0  0  0  0  0
    0.7843   -2.8559    2.6710 H   0  0  0  0  0  0  0  0  0  0  0  0
    2.9272   -0.7169    3.2222 H   0  0  0  0  0  0  0  0  0  0  0  0
    2.9269   -2.3548    3.8871 H   0  0  0  0  0  0  0  0  0  0  0  0
    3.1193   -2.1046    2.1418 H   0  0  0  0  0  0  0  0  0  0  0  0
    0.1178   -2.2801    5.0166 N   0  0  0  0  0  0  0  0  0  0  0  0
   -0.5204   -2.0162    6.2851 C   0  0  0  0  0  0  0  0  0  0  0  0
    0.3539   -3.2431    4.7961 H   0  0  0  0  0  0  0  0  0  0  0  0
    0.2470   -1.8223    7.0489 H   0  0  0  0  0  0  0  0  0  0  0  0
   -1.1740   -1.1365    6.1905 H   0  0  0  0  0  0  0  0  0  0  0  0
   -1.1208   -2.8888    6.5819 H   0  0  0  0  0  0  0  0  0  0  0  0
  1  3  1  0  0  0  0
  1  7  1  0  0  0  0
  1  2  2  0  0  0  0
 28 29  1  0  0  0  0
 29 37  1  0  0  0  0
 29 30  2  0  0  0  0
 18 19  1  0  0  0  0
 19 27  1  0  0  0  0
 19 20  2  0  0  0  0
  8  9  1  0  0  0  0
  9 17  1  0  0  0  0
  9 10  2  0  0  0  0
 28 31  1  0  0  0  0
 18 21  1  0  0  0  0
  8 11  1  0  0  0  0
 37 38  1  0  0  0  0
 27 28  1  0  0  0  0
 17 18  1  0  0  0  0
  7  8  1  0  0  0  0
  3  4  1  0  0  0  0
  3  5  1  0  0  0  0
  3  6  1  0  0  0  0
 31 34  1  0  0  0  0
 31 35  1  0  0  0  0
 31 36  1  0  0  0  0
 21 24  1  0  0  0  0
 21 25  1  0  0  0  0
 21 26  1  0  0  0  0
 11 14  1  0  0  0  0
 11 15  1  0  0  0  0
 11 16  1  0  0  0  0
 38 40  1  0  0  0  0
 38 41  1  0  0  0  0
 38 42  1  0  0  0  0
 28 33  1  0  0  0  0
 18 23  1  0  0  0  0
  8 13  1  0  0  0  0
 37 39  1  0  0  0  0
  7 12  1  0  0  0  0
 27 32  1  0  0  0  0
 17 22  1  0  0  0  0
M  END
$$$$

  -OEChem-05262214473D

 42 41  0     1  0  0  0  0  0999 V2000
   -5.7851   -0.9580    0.6237 C   0  0  0  0  0  0  0  0  0  0  0  0
   -6.2213    0.1296    0.2652 O   0  0  0  0  0  0  0  0  0  0  0  0
   -6.7088   -2.1270    0.7168 C   0  0  0  0  0  0  0  0  0  0  0  0
   -7.1713   -2.2193    1.7126 H   0  0  0  0  0  0  0  0  0  0  0  0
   -7.5511   -2.0547    0.0101 H   0  0  0  0  0  0  0  0  0  0  0  0
   -6.2485   -3.1083    0.5191 H   0  0  0  0  0  0  0  0  0  0  0  0
   -4.4733   -1.2411    0.9668 N   0  0  0  0  0  0  0  0  0  0  0  0
   -3.4203   -0.2603    0.9449 C   0  0  2  0  0  0  0  0  0  0  0  0
   -2.1242   -0.9699    0.5759 C   0  0  0  0  0  0  0  0  0  0  0  0
   -1.8694   -2.1225    0.9189 O   0  0  0  0  0  0  0  0  0  0  0  0
   -3.2916    0.4435    2.2868 C   0  0  0  0  0  0  0  0  0  0  0  0
   -4.2421   -2.1920    1.2489 H   0  0  0  0  0  0  0  0  0  0  0  0
   -3.6772    0.4622    0.1625 H   0  0  0  0  0  0  0  0  0  0  0  0
   -3.0345   -0.2644    3.0832 H   0  0  0  0  0  0  0  0  0  0  0  0
   -2.5093    1.2092    2.2599 H   0  0  0  0  0  0  0  0  0  0  0  0
   -4.2338    0.9283    2.5645 H   0  0  0  0  0  0  0  0  0  0  0  0
   -1.2626   -0.1515   -0.1463 N   0  0  0  0  0  0  0  0  0  0  0  0
    0.0431   -0.5785   -0.5755 C   0  0  2  0  0  0  0  0  0  0  0  0
    0.5635   -1.5901    0.4370 C   0  0  0  0  0  0  0  0  0  0  0  0
    1.0727   -2.6613    0.1140 O   0  0  0  0  0  0  0  0  0  0  0  0
    0.9957    0.5999   -0.7053 C   0  0  0  0  0  0  0  0  0  0  0  0
   -1.5766    0.7776   -0.4197 H   0  0  0  0  0  0  0  0  0  0  0  0
   -0.0875   -1.0674   -1.5471 H   0  0  0  0  0  0  0  0  0  0  0  0
    1.1389    1.1024    0.2582 H   0  0  0  0  0  0  0  0  0  0  0  0
    1.9803    0.2770   -1.0593 H   0  0  0  0  0  0  0  0  0  0  0  0
    0.6054    1.3406   -1.4117 H   0  0  0  0  0  0  0  0  0  0  0  0
    0.3547   -1.1779    1.7486 N   0  0  0  0  0  0  0  0  0  0  0  0
    0.7208   -1.9796    2.8865 C   0  0  2  0  0  0  0  0  0  0  0  0
   -0.2797   -1.7000    4.0002 C   0  0  0  0  0  0  0  0  0  0  0  0
   -0.7951   -0.5982    4.1779 O   0  0  0  0  0  0  0  0  0  0  0  0
    2.1399   -1.6780    3.3423 C   0  0  0  0  0  0  0  0  0  0  0  0
   -0.0388   -0.2546    1.9198 H   0  0  0  0  0  0  0  0  0  0  0  0
    0.6385   -3.0267    2.5753 H   0  0  0  0  0  0  0  0  0  0  0  0
    2.2418   -0.6333    3.6580 H   0  0  0  0  0  0  0  0  0  0  0  0
    2.4269   -2.3089    4.1900 H   0  0  0  0  0  0  0  0  0  0  0  0
    2.8550   -1.8512    2.5308 H   0  0  0  0  0  0  0  0  0  0  0  0
   -0.4965   -2.8141    4.7988 N   0  0  0  0  0  0  0  0  0  0  0  0
   -1.3713   -2.7914    5.9479 C   0  0  0  0  0  0  0  0  0  0  0  0
   -0.0582   -3.6972    4.5542 H   0  0  0  0  0  0  0  0  0  0  0  0
   -0.7872   -2.5542    6.8493 H   0  0  0  0  0  0  0  0  0  0  0  0
   -2.1478   -2.0261    5.8023 H   0  0  0  0  0  0  0  0  0  0  0  0
   -1.8454   -3.7768    6.0671 H   0  0  0  0  0  0  0  0  0  0  0  0
  1  3  1  0  0  0  0
  1  7  1  0  0  0  0
  1  2  2  0  0  0  0
 28 29  1  0  0  0  0
 29 37  1  0  0  0  0
 29 30  2  0  0  0  0
 18 19  1  0  0  0  0
 19 27  1  0  0  0  0
 19 20  2  0  0  0  0
  8  9  1  0  0  0  0
  9 17  1  0  0  0  0
  9 10  2  0  0  0  0
 28 31  1  0  0  0  0
 18 21  1  0  0  0  0
  8 11  1  0  0  0  0
 37 38  1  0  0  0  0
 27 28  1  0  0  0  0
 17 18  1  0  0  0  0
  7  8  1  0  0  0  0
  3  4  1  0  0  0  0
  3  5  1  0  0  0  0
  3  6  1  0  0  0  0
 31 34  1  0  0  0  0
 31 35  1  0  0  0  0
 31 36  1  0  0  0  0
 21 24  1  0  0  0  0
 21 25  1  0  0  0  0
 21 26  1  0  0  0  0
 11 14  1  0  0  0  0
 11 15  1  0  0  0  0
 11 16  1  0  0  0  0
 38 40  1  0  0  0  0
 38 41  1  0  0  0  0
 38 42  1  0  0  0  0
 28 33  1  0  0  0  0
 18 23  1  0  0  0  0
  8 13  1  0  0  0  0
 37 39  1  0  0  0  0
  7 12  1  0  0  0  0
 27 32  1  0  0  0  0
 17 22  1  0  0  0  0
M  END
$$$$

  -OEChem-05262214473D

 42 41  0     1  0  0  0  0  0999 V2000
   -5.7851   -0.9580    0.6237 C   0  0  0  0  0  0  0  0  0  0  0  0
   -6.2213    0.1296    0.2652 O   0  0  0  0  0  0  0  0  0  0  0  0
   -6.7088   -2.1270    0.7168 C   0  0  0  0  0  0  0  0  0  0  0  0
   -7.1713   -2.2193    1.7126 H   0  0  0  0  0  0  0  0  0  0  0  0
   -7.5511   -2.0547    0.0101 H   0  0  0  0  0  0  0  0  0  0  0  0
   -6.2485   -3.1083    0.5191 H   0  0  0  0  0  0  0  0  0  0  0  0
   -4.4733   -1.2411    0.9668 N   0  0  0  0  0  0  0  0  0  0  0  0
   -3.4203   -0.2603    0.9449 C   0  0  2  0  0  0  0  0  0  0  0  0
   -2.1242   -0.9699    0.5759 C   0  0  0  0  0  0  0  0  0  0  0  0
   -1.8694   -2.1225    0.9189 O   0  0  0  0  0  0  0  0  0  0  0  0
   -3.2916    0.4435    2.2868 C   0  0  0  0  0  0  0  0  0  0  0  0
   -4.2421   -2.1920    1.2489 H   0  0  0  0  0  0  0  0  0  0  0  0
   -3.6772    0.4622    0.1625 H   0  0  0  0  0  0  0  0  0  0  0  0
   -3.0345   -0.2644    3.0832 H   0  0  0  0  0  0  0  0  0  0  0  0
   -2.5093    1.2092    2.2599 H   0  0  0  0  0  0  0  0  0  0  0  0
   -4.2338    0.9283    2.5645 H   0  0  0  0  0  0  0  0  0  0  0  0
   -1.2626   -0.1515   -0.1463 N   0  0  0  0  0  0  0  0  0  0  0  0
    0.0431   -0.5785   -0.5755 C   0  0  2  0  0  0  0  0  0  0  0  0
    0.5635   -1.5901    0.4370 C   0  0  0  0  0  0  0  0  0  0  0  0
    1.3030   -2.5238    0.1330 O   0  0  0  0  0  0  0  0  0  0  0  0
    0.9957    0.5999   -0.7053 C   0  0  0  0  0  0  0  0  0  0  0  0
   -1.5766    0.7776   -0.4197 H   0  0  0  0  0  0  0  0  0  0  0  0
   -0.0875   -1.0674   -1.5471 H   0  0  0  0  0  0  0  0  0  0  0  0
    1.1389    1.1024    0.2582 H   0  0  0  0  0  0  0  0  0  0  0  0
    1.9803    0.2770   -1.0593 H   0  0  0  0  0  0  0  0  0  0  0  0
    0.6054    1.3406   -1.4117 H   0  0  0  0  0  0  0  0  0  0  0  0
    0.0715   -1.3558    1.7164 N   0  0  0  0  0  0  0  0  0  0  0  0
    0.3839   -2.1998    2.8396 C   0  0  2  0  0  0  0  0  0  0  0  0
   -0.8196   -2.2052    3.7729 C   0  0  0  0  0  0  0  0  0  0  0  0
   -1.5467   -1.2275    3.9355 O   0  0  0  0  0  0  0  0  0  0  0  0
    1.6313   -1.7179    3.5638 C   0  0  0  0  0  0  0  0  0  0  0  0
   -0.5043   -0.5325    1.8814 H   0  0  0  0  0  0  0  0  0  0  0  0
    0.5435   -3.2083    2.4426 H   0  0  0  0  0  0  0  0  0  0  0  0
    1.4904   -0.7090    3.9685 H   0  0  0  0  0  0  0  0  0  0  0  0
    1.8839   -2.3774    4.4007 H   0  0  0  0  0  0  0  0  0  0  0  0
    2.4892   -1.6863    2.8835 H   0  0  0  0  0  0  0  0  0  0  0  0
   -0.9607   -3.4164    4.4356 N   0  0  0  0  0  0  0  0  0  0  0  0
   -2.0018   -3.6568    5.4073 C   0  0  0  0  0  0  0  0  0  0  0  0
   -0.3366   -4.1853    4.2096 H   0  0  0  0  0  0  0  0  0  0  0  0
   -1.6260   -3.4214    6.4140 H   0  0  0  0  0  0  0  0  0  0  0  0
   -2.8687   -3.0186    5.1812 H   0  0  0  0  0  0  0  0  0  0  0  0
   -2.3041   -4.7137    5.3668 H   0  0  0  0  0  0  0  0  0  0  0  0
  1  3  1  0  0  0  0
  1  7  1  0  0  0  0
  1  2  2  0  0  0  0
 28 29  1  0  0  0  0
 29 37  1  0  0  0  0
 29 30  2  0  0  0  0
 18 19  1  0  0  0  0
 19 27  1  0  0  0  0
 19 20  2  0  0  0  0
  8  9  1  0  0  0  0
  9 17  1  0  0  0  0
  9 10  2  0  0  0  0
 28 31  1  0  0  0  0
 18 21  1  0  0  0  0
  8 11  1  0  0  0  0
 37 38  1  0  0  0  0
 27 28  1  0  0  0  0
 17 18  1  0  0  0  0
  7  8  1  0  0  0  0
  3  4  1  0  0  0  0
  3  5  1  0  0  0  0
  3  6  1  0  0  0  0
 31 34  1  0  0  0  0
 31 35  1  0  0  0  0
 31 36  1  0  0  0  0
 21 24  1  0  0  0  0
 21 25  1  0  0  0  0
 21 26  1  0  0  0  0
 11 14  1  0  0  0  0
 11 15  1  0  0  0  0
 11 16  1  0  0  0  0
 38 40  1  0  0  0  0
 38 41  1  0  0  0  0
 38 42  1  0  0  0  0
 28 33  1  0  0  0  0
 18 23  1  0  0  0  0
  8 13  1  0  0  0  0
 37 39  1  0  0  0  0
  7 12  1  0  0  0  0
 27 32  1  0  0  0  0
 17 22  1  0  0  0  0
M  END
$$$$

  -OEChem-05262214473D

 42 41  0     1  0  0  0  0  0999 V2000
   -5.7851   -0.9580    0.6237 C   0  0  0  0  0  0  0  0  0  0  0  0
   -6.2213    0.1296    0.2652 O   0  0  0  0  0  0  0  0  0  0  0  0
   -6.7088   -2.1270    0.7168 C   0  0  0  0  0  0  0  0  0  0  0  0
   -7.1713   -2.2193    1.7126 H   0  0  0  0  0  0  0  0  0  0  0  0
   -7.5511   -2.0547    0.0101 H   0  0  0  0  0  0  0  0  0  0  0  0
   -6.2485   -3.1083    0.5191 H   0  0  0  0  0  0  0  0  0  0  0  0
   -4.4733   -1.2411    0.9668 N   0  0  0  0  0  0  0  0  0  0  0  0
   -3.4203   -0.2603    0.9449 C   0  0  2  0  0  0  0  0  0  0  0  0
   -2.1242   -0.9699    0.5759 C   0  0  0  0  0  0  0  0  0  0  0  0
   -1.8694   -2.1225    0.9189 O   0  0  0  0  0  0  0  0  0  0  0  0
   -3.2916    0.4435    2.2868 C   0  0  0  0  0  0  0  0  0  0  0  0
   -4.2421   -2.1920    1.2489 H   0  0  0  0  0  0  0  0  0  0  0  0
   -3.6772    0.4622    0.1625 H   0  0  0  0  0  0  0  0  0  0  0  0
   -3.0345   -0.2644    3.0832 H   0  0  0  0  0  0  0  0  0  0  0  0
   -2.5093    1.2092    2.2599 H   0  0  0  0  0  0  0  0  0  0  0  0
   -4.2338    0.9283    2.5645 H   0  0  0  0  0  0  0  0  0  0  0  0
   -1.2626   -0.1515   -0.1463 N   0  0  0  0  0  0  0  0  0  0  0  0
    0.0431   -0.5785   -0.5755 C   0  0  2  0  0  0  0  0  0  0  0  0
    0.5635   -1.5901    0.4370 C   0  0  0  0  0  0  0  0  0  0  0  0
    1.4985   -2.3531    0.2032 O   0  0  0  0  0  0  0  0  0  0  0  0
    0.9957    0.5999   -0.7053 C   0  0  0  0  0  0  0  0  0  0  0  0
   -1.5766    0.7776   -0.4197 H   0  0  0  0  0  0  0  0  0  0  0  0
   -0.0875   -1.0674   -1.5471 H   0  0  0  0  0  0  0  0  0  0  0  0
    1.1389    1.1024    0.2582 H   0  0  0  0  0  0  0  0  0  0  0  0
    1.9803    0.2770   -1.0593 H   0  0  0  0  0  0  0  0  0  0  0  0
    0.6054    1.3406   -1.4117 H   0  0  0  0  0  0  0  0  0  0  0  0
   -0.1658   -1.5735    1.6209 N   0  0  0  0  0  0  0  0  0  0  0  0
    0.1045   -2.4663    2.7169 C   0  0  2  0  0  0  0  0  0  0  0  0
   -1.2150   -2.7660    3.4159 C   0  0  0  0  0  0  0  0  0  0  0  0
   -2.1228   -1.9432    3.5164 O   0  0  0  0  0  0  0  0  0  0  0  0
    1.1088   -1.8636    3.6868 C   0  0  0  0  0  0  0  0  0  0  0  0
   -0.8994   -0.8776    1.7397 H   0  0  0  0  0  0  0  0  0  0  0  0
    0.5058   -3.3883    2.2822 H   0  0  0  0  0  0  0  0  0  0  0  0
    0.7243   -0.9389    4.1325 H   0  0  0  0  0  0  0  0  0  0  0  0
    1.3350   -2.5556    4.5048 H   0  0  0  0  0  0  0  0  0  0  0  0
    2.0469   -1.6212    3.1759 H   0  0  0  0  0  0  0  0  0  0  0  0
   -1.2429   -4.0459    3.9517 N   0  0  0  0  0  0  0  0  0  0  0  0
   -2.3690   -4.5534    4.7003 C   0  0  0  0  0  0  0  0  0  0  0  0
   -0.4623   -4.6742    3.7857 H   0  0  0  0  0  0  0  0  0  0  0  0
   -2.2121   -4.3648    5.7726 H   0  0  0  0  0  0  0  0  0  0  0  0
   -3.2875   -4.0464    4.3695 H   0  0  0  0  0  0  0  0  0  0  0  0
   -2.4655   -5.6356    4.5287 H   0  0  0  0  0  0  0  0  0  0  0  0
  1  3  1  0  0  0  0
  1  7  1  0  0  0  0
  1  2  2  0  0  0  0
 28 29  1  0  0  0  0
 29 37  1  0  0  0  0
 29 30  2  0  0  0  0
 18 19  1  0  0  0  0
 19 27  1  0  0  0  0
 19 20  2  0  0  0  0
  8  9  1  0  0  0  0
  9 17  1  0  0  0  0
  9 10  2  0  0  0  0
 28 31  1  0  0  0  0
 18 21  1  0  0  0  0
  8 11  1  0  0  0  0
 37 38  1  0  0  0  0
 27 28  1  0  0  0  0
 17 18  1  0  0  0  0
  7  8  1  0  0  0  0
  3  4  1  0  0  0  0
  3  5  1  0  0  0  0
  3  6  1  0  0  0  0
 31 34  1  0  0  0  0
 31 35  1  0  0  0  0
 31 36  1  0  0  0  0
 21 24  1  0  0  0  0
 21 25  1  0  0  0  0
 21 26  1  0  0  0  0
 11 14  1  0  0  0  0
 11 15  1  0  0  0  0
 11 16  1  0  0  0  0
 38 40  1  0  0  0  0
 38 41  1  0  0  0  0
 38 42  1  0  0  0  0
 28 33  1  0  0  0  0
 18 23  1  0  0  0  0
  8 13  1  0  0  0  0
 37 39  1  0  0  0  0
  7 12  1  0  0  0  0
 27 32  1  0  0  0  0
 17 22  1  0  0  0  0
M  END
$$$$

  -OEChem-05262214473D

 42 41  0     1  0  0  0  0  0999 V2000
   -5.7851   -0.9580    0.6237 C   0  0  0  0  0  0  0  0  0  0  0  0
   -6.2213    0.1296    0.2652 O   0  0  0  0  0  0  0  0  0  0  0  0
   -6.7088   -2.1270    0.7168 C   0  0  0  0  0  0  0  0  0  0  0  0
   -7.1713   -2.2193    1.7126 H   0  0  0  0  0  0  0  0  0  0  0  0
   -7.5511   -2.0547    0.0101 H   0  0  0  0  0  0  0  0  0  0  0  0
   -6.2485   -3.1083    0.5191 H   0  0  0  0  0  0  0  0  0  0  0  0
   -4.4733   -1.2411    0.9668 N   0  0  0  0  0  0  0  0  0  0  0  0
   -3.4203   -0.2603    0.9449 C   0  0  2  0  0  0  0  0  0  0  0  0
   -2.1242   -0.9699    0.5759 C   0  0  0  0  0  0  0  0  0  0  0  0
   -1.8694   -2.1225    0.9189 O   0  0  0  0  0  0  0  0  0  0  0  0
   -3.2916    0.4435    2.2868 C   0  0  0  0  0  0  0  0  0  0  0  0
   -4.2421   -2.1920    1.2489 H   0  0  0  0  0  0  0  0  0  0  0  0
   -3.6772    0.4622    0.1625 H   0  0  0  0  0  0  0  0  0  0  0  0
   -3.0345   -0.2644    3.0832 H   0  0  0  0  0  0  0  0  0  0  0  0
   -2.5093    1.2092    2.2599 H   0  0  0  0  0  0  0  0  0  0  0  0
   -4.2338    0.9283    2.5645 H   0  0  0  0  0  0  0  0  0  0  0  0
   -1.2626   -0.1515   -0.1463 N   0  0  0  0  0  0  0  0  0  0  0  0
    0.0431   -0.5785   -0.5755 C   0  0  2  0  0  0  0  0  0  0  0  0
    0.5635   -1.5901    0.4370 C   0  0  0  0  0  0  0  0  0  0  0  0
    1.6460   -2.1607    0.3196 O   0  0  0  0  0  0  0  0  0  0  0  0
    0.9957    0.5999   -0.7053 C   0  0  0  0  0  0  0  0  0  0  0  0
   -1.5766    0.7776   -0.4197 H   0  0  0  0  0  0  0  0  0  0  0  0
   -0.0875   -1.0674   -1.5471 H   0  0  0  0  0  0  0  0  0  0  0  0
    1.1389    1.1024    0.2582 H   0  0  0  0  0  0  0  0  0  0  0  0
    1.9803    0.2770   -1.0593 H   0  0  0  0  0  0  0  0  0  0  0  0
    0.6054    1.3406   -1.4117 H   0  0  0  0  0  0  0  0  0  0  0  0
   -0.3412   -1.8162    1.4686 N   0  0  0  0  0  0  0  0  0  0  0  0
   -0.0984   -2.7610    2.5268 C   0  0  2  0  0  0  0  0  0  0  0  0
   -1.4391   -3.3441    2.9534 C   0  0  0  0  0  0  0  0  0  0  0  0
   -2.4840   -2.6966    2.9494 O   0  0  0  0  0  0  0  0  0  0  0  0
    0.6080   -2.1050    3.7029 C   0  0  0  0  0  0  0  0  0  0  0  0
   -1.1974   -1.2664    1.5044 H   0  0  0  0  0  0  0  0  0  0  0  0
    0.5279   -3.5545    2.1047 H   0  0  0  0  0  0  0  0  0  0  0  0
   -0.0044   -1.3073    4.1389 H   0  0  0  0  0  0  0  0  0  0  0  0
    0.8175   -2.8313    4.4952 H   0  0  0  0  0  0  0  0  0  0  0  0
    1.5582   -1.6602    3.3881 H   0  0  0  0  0  0  0  0  0  0  0  0
   -1.3240   -4.6597    3.3801 N   0  0  0  0  0  0  0  0  0  0  0  0
   -2.4479   -5.4201    3.8749 C   0  0  0  0  0  0  0  0  0  0  0  0
   -0.4266   -5.1306    3.3114 H   0  0  0  0  0  0  0  0  0  0  0  0
   -2.5057   -5.3203    4.9688 H   0  0  0  0  0  0  0  0  0  0  0  0
   -3.3755   -5.0394    3.4226 H   0  0  0  0  0  0  0  0  0  0  0  0
   -2.3187   -6.4798    3.6098 H   0  0  0  0  0  0  0  0  0  0  0  0
  1  3  1  0  0  0  0
  1  7  1  0  0  0  0
  1  2  2  0  0  0  0
 28 29  1  0  0  0  0
 29 37  1  0  0  0  0
 29 30  2  0  0  0  0
 18 19  1  0  0  0  0
 19 27  1  0  0  0  0
 19 20  2  0  0  0  0
  8  9  1  0  0  0  0
  9 17  1  0  0  0  0
  9 10  2  0  0  0  0
 28 31  1  0  0  0  0
 18 21  1  0  0  0  0
  8 11  1  0  0  0  0
 37 38  1  0  0  0  0
 27 28  1  0  0  0  0
 17 18  1  0  0  0  0
  7  8  1  0  0  0  0
  3  4  1  0  0  0  0
  3  5  1  0  0  0  0
  3  6  1  0  0  0  0
 31 34  1  0  0  0  0
 31 35  1  0  0  0  0
 31 36  1  0  0  0  0
 21 24  1  0  0  0  0
 21 25  1  0  0  0  0
 21 26  1  0  0  0  0
 11 14  1  0  0  0  0
 11 15  1  0  0  0  0
 11 16  1  0  0  0  0
 38 40  1  0  0  0  0
 38 41  1  0  0  0  0
 38 42  1  0  0  0  0
 28 33  1  0  0  0  0
 18 23  1  0  0  0  0
  8 13  1  0  0  0  0
 37 39  1  0  0  0  0
  7 12  1  0  0  0  0
 27 32  1  0  0  0  0
 17 22  1  0  0  0  0
M  END
$$$$

  -OEChem-05262214473D

 42 41  0     1  0  0  0  0  0999 V2000
   -5.7851   -0.9580    0.6237 C   0  0  0  0  0  0  0  0  0  0  0  0
   -6.2213    0.1296    0.2652 O   0  0  0  0  0  0  0  0  0  0  0  0
   -6.7088   -2.1270    0.7168 C   0  0  0  0  0  0  0  0  0  0  0  0
   -7.1713   -2.2193    1.7126 H   0  0  0  0  0  0  0  0  0  0  0  0
   -7.5511   -2.0547    0.0101 H   0  0  0  0  0  0  0  0  0  0  0  0
   -6.2485   -3.1083    0.5191 H   0  0  0  0  0  0  0  0  0  0  0  0
   -4.4733   -1.2411    0.9668 N   0  0  0  0  0  0  0  0  0  0  0  0
   -3.4203   -0.2603    0.9449 C   0  0  2  0  0  0  0  0  0  0  0  0
   -2.1242   -0.9699    0.5759 C   0  0  0  0  0  0  0  0  0  0  0  0
   -1.8694   -2.1225    0.9189 O   0  0  0  0  0  0  0  0  0  0  0  0
   -3.2916    0.4435    2.2868 C   0  0  0  0  0  0  0  0  0  0  0  0
   -4.2421   -2.1920    1.2489 H   0  0  0  0  0  0  0  0  0  0  0  0
   -3.6772    0.4622    0.1625 H   0  0  0  0  0  0  0  0  0  0  0  0
   -3.0345   -0.2644    3.0832 H   0  0  0  0  0  0  0  0  0  0  0  0
   -2.5093    1.2092    2.2599 H   0  0  0  0  0  0  0  0  0  0  0  0
   -4.2338    0.9283    2.5645 H   0  0  0  0  0  0  0  0  0  0  0  0
   -1.2626   -0.1515   -0.1463 N   0  0  0  0  0  0  0  0  0  0  0  0
    0.0431   -0.5785   -0.5755 C   0  0  2  0  0  0  0  0  0  0  0  0
    0.5635   -1.5901    0.4370 C   0  0  0  0  0  0  0  0  0  0  0  0
    1.7353   -1.9598    0.4744 O   0  0  0  0  0  0  0  0  0  0  0  0
    0.9957    0.5999   -0.7053 C   0  0  0  0  0  0  0  0  0  0  0  0
   -1.5766    0.7776   -0.4197 H   0  0  0  0  0  0  0  0  0  0  0  0
   -0.0875   -1.0674   -1.5471 H   0  0  0  0  0  0  0  0  0  0  0  0
    1.1389    1.1024    0.2582 H   0  0  0  0  0  0  0  0  0  0  0  0
    1.9803    0.2770   -1.0593 H   0  0  0  0  0  0  0  0  0  0  0  0
    0.6054    1.3406   -1.4117 H   0  0  0  0  0  0  0  0  0  0  0  0
   -0.4427   -2.0673    1.2698 N   0  0  0  0  0  0  0  0  0  0  0  0
   -0.2111   -3.0638    2.2822 C   0  0  2  0  0  0  0  0  0  0  0  0
   -1.4766   -3.9002    2.4170 C   0  0  0  0  0  0  0  0  0  0  0  0
   -2.6058   -3.4364    2.2729 O   0  0  0  0  0  0  0  0  0  0  0  0
    0.1630   -2.4259    3.6110 C   0  0  0  0  0  0  0  0  0  0  0  0
   -1.3778   -1.6724    1.1915 H   0  0  0  0  0  0  0  0  0  0  0  0
    0.6084   -3.6955    1.9225 H   0  0  0  0  0  0  0  0  0  0  0  0
   -0.6459   -1.7891    3.9873 H   0  0  0  0  0  0  0  0  0  0  0  0
    0.3668   -3.1859    4.3726 H   0  0  0  0  0  0  0  0  0  0  0  0
    1.0563   -1.8008    3.5055 H   0  0  0  0  0  0  0  0  0  0  0  0
   -1.1984   -5.2160    2.7598 N   0  0  0  0  0  0  0  0  0  0  0  0
   -2.2330   -6.1978    2.9874 C   0  0  0  0  0  0  0  0  0  0  0  0
   -0.2321   -5.5234    2.8190 H   0  0  0  0  0  0  0  0  0  0  0  0
   -2.4866   -6.2226    4.0575 H   0  0  0  0  0  0  0  0  0  0  0  0
   -3.1269   -5.9300    2.4050 H   0  0  0  0  0  0  0  0  0  0  0  0
   -1.8736   -7.1887    2.6728 H   0  0  0  0  0  0  0  0  0  0  0  0
  1  3  1  0  0  0  0
  1  7  1  0  0  0  0
  1  2  2  0  0  0  0
 28 29  1  0  0  0  0
 29 37  1  0  0  0  0
 29 30  2  0  0  0  0
 18 19  1  0  0  0  0
 19 27  1  0  0  0  0
 19 20  2  0  0  0  0
  8  9  1  0  0  0  0
  9 17  1  0  0  0  0
  9 10  2  0  0  0  0
 28 31  1  0  0  0  0
 18 21  1  0  0  0  0
  8 11  1  0  0  0  0
 37 38  1  0  0  0  0
 27 28  1  0  0  0  0
 17 18  1  0  0  0  0
  7  8  1  0  0  0  0
  3  4  1  0  0  0  0
  3  5  1  0  0  0  0
  3  6  1  0  0  0  0
 31 34  1  0  0  0  0
 31 35  1  0  0  0  0
 31 36  1  0  0  0  0
 21 24  1  0  0  0  0
 21 25  1  0  0  0  0
 21 26  1  0  0  0  0
 11 14  1  0  0  0  0
 11 15  1  0  0  0  0
 11 16  1  0  0  0  0
 38 40  1  0  0  0  0
 38 41  1  0  0  0  0
 38 42  1  0  0  0  0
 28 33  1  0  0  0  0
 18 23  1  0  0  0  0
  8 13  1  0  0  0  0
 37 39  1  0  0  0  0
  7 12  1  0  0  0  0
 27 32  1  0  0  0  0
 17 22  1  0  0  0  0
M  END
$$$$

  -OEChem-05262214473D

 42 41  0     1  0  0  0  0  0999 V2000
   -5.7851   -0.9580    0.6237 C   0  0  0  0  0  0  0  0  0  0  0  0
   -6.2213    0.1296    0.2652 O   0  0  0  0  0  0  0  0  0  0  0  0
   -6.7088   -2.1270    0.7168 C   0  0  0  0  0  0  0  0  0  0  0  0
   -7.1713   -2.2193    1.7126 H   0  0  0  0  0  0  0  0  0  0  0  0
   -7.5511   -2.0547    0.0101 H   0  0  0  0  0  0  0  0  0  0  0  0
   -6.2485   -3.1083    0.5191 H   0  0  0  0  0  0  0  0  0  0  0  0
   -4.4733   -1.2411    0.9668 N   0  0  0  0  0  0  0  0  0  0  0  0
   -3.4203   -0.2603    0.9449 C   0  0  2  0  0  0  0  0  0  0  0  0
   -2.1242   -0.9699    0.5759 C   0  0  0  0  0  0  0  0  0  0  0  0
   -1.8694   -2.1225    0.9189 O   0  0  0  0  0  0  0  0  0  0  0  0
   -3.2916    0.4435    2.2868 C   0  0  0  0  0  0  0  0  0  0  0  0
   -4.2421   -2.1920    1.2489 H   0  0  0  0  0  0  0  0  0  0  0  0
   -3.6772    0.4622    0.1625 H   0  0  0  0  0  0  0  0  0  0  0  0
   -3.0345   -0.2644    3.0832 H   0  0  0  0  0  0  0  0  0  0  0  0
   -2.5093    1.2092    2.2599 H   0  0  0  0  0  0  0  0  0  0  0  0
   -4.2338    0.9283    2.5645 H   0  0  0  0  0  0  0  0  0  0  0  0
   -1.2626   -0.1515   -0.1463 N   0  0  0  0  0  0  0  0  0  0  0  0
    0.0431   -0.5785   -0.5755 C   0  0  2  0  0  0  0  0  0  0  0  0
    0.5635   -1.5901    0.4370 C   0  0  0  0  0  0  0  0  0  0  0  0
    1.7603   -1.7640    0.6571 O   0  0  0  0  0  0  0  0  0  0  0  0
    0.9957    0.5999   -0.7053 C   0  0  0  0  0  0  0  0  0  0  0  0
   -1.5766    0.7776   -0.4197 H   0  0  0  0  0  0  0  0  0  0  0  0
   -0.0875   -1.0674   -1.5471 H   0  0  0  0  0  0  0  0  0  0  0  0
    1.1389    1.1024    0.2582 H   0  0  0  0  0  0  0  0  0  0  0  0
    1.9803    0.2770   -1.0593 H   0  0  0  0  0  0  0  0  0  0  0  0
    0.6054    1.3406   -1.4117 H   0  0  0  0  0  0  0  0  0  0  0  0
   -0.4634   -2.3098    1.0382 N   0  0  0  0  0  0  0  0  0  0  0  0
   -0.2257   -3.3539    1.9998 C   0  0  2  0  0  0  0  0  0  0  0  0
   -1.3249   -4.3964    1.8433 C   0  0  0  0  0  0  0  0  0  0  0  0
   -2.4799   -4.1121    1.5331 O   0  0  0  0  0  0  0  0  0  0  0  0
   -0.1957   -2.8043    3.4174 C   0  0  0  0  0  0  0  0  0  0  0  0
   -1.4285   -2.0680    0.8224 H   0  0  0  0  0  0  0  0  0  0  0  0
    0.7417   -3.8018    1.7478 H   0  0  0  0  0  0  0  0  0  0  0  0
   -1.1566   -2.3515    3.6879 H   0  0  0  0  0  0  0  0  0  0  0  0
    0.0135   -3.5951    4.1453 H   0  0  0  0  0  0  0  0  0  0  0  0
    0.5756   -2.0334    3.5203 H   0  0  0  0  0  0  0  0  0  0  0  0
   -0.8748   -5.6769    2.1330 N   0  0  0  0  0  0  0  0  0  0  0  0
   -1.7391   -6.8336    2.0984 C   0  0  0  0  0  0  0  0  0  0  0  0
    0.1080   -5.8257    2.3422 H   0  0  0  0  0  0  0  0  0  0  0  0
   -2.1562   -7.0103    3.1007 H   0  0  0  0  0  0  0  0  0  0  0  0
   -2.5586   -6.6576    1.3861 H   0  0  0  0  0  0  0  0  0  0  0  0
   -1.1607   -7.7140    1.7816 H   0  0  0  0  0  0  0  0  0  0  0  0
  1  3  1  0  0  0  0
  1  7  1  0  0  0  0
  1  2  2  0  0  0  0
 28 29  1  0  0  0  0
 29 37  1  0  0  0  0
 29 30  2  0  0  0  0
 18 19  1  0  0  0  0
 19 27  1  0  0  0  0
 19 20  2  0  0  0  0
  8  9  1  0  0  0  0
  9 17  1  0  0  0  0
  9 10  2  0  0  0  0
 28 31  1  0  0  0  0
 18 21  1  0  0  0  0
  8 11  1  0  0  0  0
 37 38  1  0  0  0  0
 27 28  1  0  0  0  0
 17 18  1  0  0  0  0
  7  8  1  0  0  0  0
  3  4  1  0  0  0  0
  3  5  1  0  0  0  0
  3  6  1  0  0  0  0
 31 34  1  0  0  0  0
 31 35  1  0  0  0  0
 31 36  1  0  0  0  0
 21 24  1  0  0  0  0
 21 25  1  0  0  0  0
 21 26  1  0  0  0  0
 11 14  1  0  0  0  0
 11 15  1  0  0  0  0
 11 16  1  0  0  0  0
 38 40  1  0  0  0  0
 38 41  1  0  0  0  0
 38 42  1  0  0  0  0
 28 33  1  0  0  0  0
 18 23  1  0  0  0  0
  8 13  1  0  0  0  0
 37 39  1  0  0  0  0
  7 12  1  0  0  0  0
 27 32  1  0  0  0  0
 17 22  1  0  0  0  0
M  END
$$$$

  -OEChem-05262214473D

 42 41  0     1  0  0  0  0  0999 V2000
   -5.7851   -0.9580    0.6237 C   0  0  0  0  0  0  0  0  0  0  0  0
   -6.2213    0.1296    0.2652 O   0  0  0  0  0  0  0  0  0  0  0  0
   -6.7088   -2.1270    0.7168 C   0  0  0  0  0  0  0  0  0  0  0  0
   -7.1713   -2.2193    1.7126 H   0  0  0  0  0  0  0  0  0  0  0  0
   -7.5511   -2.0547    0.0101 H   0  0  0  0  0  0  0  0  0  0  0  0
   -6.2485   -3.1083    0.5191 H   0  0  0  0  0  0  0  0  0  0  0  0
   -4.4733   -1.2411    0.9668 N   0  0  0  0  0  0  0  0  0  0  0  0
   -3.4203   -0.2603    0.9449 C   0  0  2  0  0  0  0  0  0  0  0  0
   -2.1242   -0.9699    0.5759 C   0  0  0  0  0  0  0  0  0  0  0  0
   -1.8694   -2.1225    0.9189 O   0  0  0  0  0  0  0  0  0  0  0  0
   -3.2916    0.4435    2.2868 C   0  0  0  0  0  0  0  0  0  0  0  0
   -4.2421   -2.1920    1.2489 H   0  0  0  0  0  0  0  0  0  0  0  0
   -3.6772    0.4622    0.1625 H   0  0  0  0  0  0  0  0  0  0  0  0
   -3.0345   -0.2644    3.0832 H   0  0  0  0  0  0  0  0  0  0  0  0
   -2.5093    1.2092    2.2599 H   0  0  0  0  0  0  0  0  0  0  0  0
   -4.2338    0.9283    2.5645 H   0  0  0  0  0  0  0  0  0  0  0  0
   -1.2626   -0.1515   -0.1463 N   0  0  0  0  0  0  0  0  0  0  0  0
    0.0431   -0.5785   -0.5755 C   0  0  2  0  0  0  0  0  0  0  0  0
    0.5635   -1.5901    0.4370 C   0  0  0  0  0  0  0  0  0  0  0  0
    1.7195   -1.5868    0.8552 O   0  0  0  0  0  0  0  0  0  0  0  0
    0.9957    0.5999   -0.7053 C   0  0  0  0  0  0  0  0  0  0  0  0
   -1.5766    0.7776   -0.4197 H   0  0  0  0  0  0  0  0  0  0  0  0
   -0.0875   -1.0674   -1.5471 H   0  0  0  0  0  0  0  0  0  0  0  0
    1.1389    1.1024    0.2582 H   0  0  0  0  0  0  0  0  0  0  0  0
    1.9803    0.2770   -1.0593 H   0  0  0  0  0  0  0  0  0  0  0  0
    0.6054    1.3406   -1.4117 H   0  0  0  0  0  0  0  0  0  0  0  0
   -0.4017   -2.5271    0.7895 N   0  0  0  0  0  0  0  0  0  0  0  0
   -0.1414   -3.6118    1.6988 C   0  0  2  0  0  0  0  0  0  0  0  0
   -0.9944   -4.7989    1.2714 C   0  0  0  0  0  0  0  0  0  0  0  0
   -2.1148   -4.6776    0.7804 O   0  0  0  0  0  0  0  0  0  0  0  0
   -0.4439   -3.2143    3.1352 C   0  0  0  0  0  0  0  0  0  0  0  0
   -1.3459   -2.4261    0.4221 H   0  0  0  0  0  0  0  0  0  0  0  0
    0.9188   -3.8660    1.5926 H   0  0  0  0  0  0  0  0  0  0  0  0
   -1.5017   -2.9561    3.2612 H   0  0  0  0  0  0  0  0  0  0  0  0
   -0.2182   -4.0311    3.8288 H   0  0  0  0  0  0  0  0  0  0  0  0
    0.1487   -2.3420    3.4313 H   0  0  0  0  0  0  0  0  0  0  0  0
   -0.3751   -6.0110    1.5424 N   0  0  0  0  0  0  0  0  0  0  0  0
   -0.9997   -7.2841    1.2683 C   0  0  0  0  0  0  0  0  0  0  0  0
    0.5705   -6.0171    1.9133 H   0  0  0  0  0  0  0  0  0  0  0  0
   -1.5371   -7.6298    2.1637 H   0  0  0  0  0  0  0  0  0  0  0  0
   -1.7093   -7.1724    0.4352 H   0  0  0  0  0  0  0  0  0  0  0  0
   -0.2284   -8.0199    0.9968 H   0  0  0  0  0  0  0  0  0  0  0  0
  1  3  1  0  0  0  0
  1  7  1  0  0  0  0
  1  2  2  0  0  0  0
 28 29  1  0  0  0  0
 29 37  1  0  0  0  0
 29 30  2  0  0  0  0
 18 19  1  0  0  0  0
 19 27  1  0  0  0  0
 19 20  2  0  0  0  0
  8  9  1  0  0  0  0
  9 17  1  0  0  0  0
  9 10  2  0  0  0  0
 28 31  1  0  0  0  0
 18 21  1  0  0  0  0
  8 11  1  0  0  0  0
 37 38  1  0  0  0  0
 27 28  1  0  0  0  0
 17 18  1  0  0  0  0
  7  8  1  0  0  0  0
  3  4  1  0  0  0  0
  3  5  1  0  0  0  0
  3  6  1  0  0  0  0
 31 34  1  0  0  0  0
 31 35  1  0  0  0  0
 31 36  1  0  0  0  0
 21 24  1  0  0  0  0
 21 25  1  0  0  0  0
 21 26  1  0  0  0  0
 11 14  1  0  0  0  0
 11 15  1  0  0  0  0
 11 16  1  0  0  0  0
 38 40  1  0  0  0  0
 38 41  1  0  0  0  0
 38 42  1  0  0  0  0
 28 33  1  0  0  0  0
 18 23  1  0  0  0  0
  8 13  1  0  0  0  0
 37 39  1  0  0  0  0
  7 12  1  0  0  0  0
 27 32  1  0  0  0  0
 17 22  1  0  0  0  0
M  END
$$$$

  -OEChem-05262214473D

 42 41  0     1  0  0  0  0  0999 V2000
   -5.7851   -0.9580    0.6237 C   0  0  0  0  0  0  0  0  0  0  0  0
   -6.2213    0.1296    0.2652 O   0  0  0  0  0  0  0  0  0  0  0  0
   -6.7088   -2.1270    0.7168 C   0  0  0  0  0  0  0  0  0  0  0  0
   -7.1713   -2.2193    1.7126 H   0  0  0  0  0  0  0  0  0  0  0  0
   -7.5511   -2.0547    0.0101 H   0  0  0  0  0  0  0  0  0  0  0  0
   -6.2485   -3.1083    0.5191 H   0  0  0  0  0  0  0  0  0  0  0  0
   -4.4733   -1.2411    0.9668 N   0  0  0  0  0  0  0  0  0  0  0  0
   -3.4203   -0.2603    0.9449 C   0  0  2  0  0  0  0  0  0  0  0  0
   -2.1242   -0.9699    0.5759 C   0  0  0  0  0  0  0  0  0  0  0  0
   -1.8694   -2.1225    0.9189 O   0  0  0  0  0  0  0  0  0  0  0  0
   -3.2916    0.4435    2.2868 C   0  0  0  0  0  0  0  0  0  0  0  0
   -4.2421   -2.1920    1.2489 H   0  0  0  0  0  0  0  0  0  0  0  0
   -3.6772    0.4622    0.1625 H   0  0  0  0  0  0  0  0  0  0  0  0
   -3.0345   -0.2644    3.0832 H   0  0  0  0  0  0  0  0  0  0  0  0
   -2.5093    1.2092    2.2599 H   0  0  0  0  0  0  0  0  0  0  0  0
   -4.2338    0.9283    2.5645 H   0  0  0  0  0  0  0  0  0  0  0  0
   -1.2626   -0.1515   -0.1463 N   0  0  0  0  0  0  0  0  0  0  0  0
    0.0431   -0.5785   -0.5755 C   0  0  2  0  0  0  0  0  0  0  0  0
    0.5635   -1.5901    0.4370 C   0  0  0  0  0  0  0  0  0  0  0  0
    1.6154   -1.4402    1.0552 O   0  0  0  0  0  0  0  0  0  0  0  0
    0.9957    0.5999   -0.7053 C   0  0  0  0  0  0  0  0  0  0  0  0
   -1.5766    0.7776   -0.4197 H   0  0  0  0  0  0  0  0  0  0  0  0
   -0.0875   -1.0674   -1.5471 H   0  0  0  0  0  0  0  0  0  0  0  0
    1.1389    1.1024    0.2582 H   0  0  0  0  0  0  0  0  0  0  0  0
    1.9803    0.2770   -1.0593 H   0  0  0  0  0  0  0  0  0  0  0  0
    0.6054    1.3406   -1.4117 H   0  0  0  0  0  0  0  0  0  0  0  0
   -0.2621   -2.7043    0.5406 N   0  0  0  0  0  0  0  0  0  0  0  0
    0.0362   -3.8197    1.3999 C   0  0  2  0  0  0  0  0  0  0  0  0
   -0.5075   -5.0801    0.7401 C   0  0  0  0  0  0  0  0  0  0  0  0
   -1.5354   -5.0945    0.0661 O   0  0  0  0  0  0  0  0  0  0  0  0
   -0.5645   -3.6282    2.7838 C   0  0  0  0  0  0  0  0  0  0  0  0
   -1.1356   -2.7224    0.0180 H   0  0  0  0  0  0  0  0  0  0  0  0
    1.1277   -3.8839    1.4674 H   0  0  0  0  0  0  0  0  0  0  0  0
   -1.6576   -3.5617    2.7362 H   0  0  0  0  0  0  0  0  0  0  0  0
   -0.3127   -4.4641    3.4448 H   0  0  0  0  0  0  0  0  0  0  0  0
   -0.1952   -2.7057    3.2447 H   0  0  0  0  0  0  0  0  0  0  0  0
    0.2666   -6.1955    1.0283 N   0  0  0  0  0  0  0  0  0  0  0  0
   -0.0653   -7.5186    0.5538 C   0  0  0  0  0  0  0  0  0  0  0  0
    1.1240   -6.0844    1.5616 H   0  0  0  0  0  0  0  0  0  0  0  0
   -0.6714   -8.0387    1.3102 H   0  0  0  0  0  0  0  0  0  0  0  0
   -0.6368   -7.4394   -0.3827 H   0  0  0  0  0  0  0  0  0  0  0  0
    0.8597   -8.0855    0.3721 H   0  0  0  0  0  0  0  0  0  0  0  0
  1  3  1  0  0  0  0
  1  7  1  0  0  0  0
  1  2  2  0  0  0  0
 28 29  1  0  0  0  0
 29 37  1  0  0  0  0
 29 30  2  0  0  0  0
 18 19  1  0  0  0  0
 19 27  1  0  0  0  0
 19 20  2  0  0  0  0
  8  9  1  0  0  0  0
  9 17  1  0  0  0  0
  9 10  2  0  0  0  0
 28 31  1  0  0  0  0
 18 21  1  0  0  0  0
  8 11  1  0  0  0  0
 37 38  1  0  0  0  0
 27 28  1  0  0  0  0
 17 18  1  0  0  0  0
  7  8  1  0  0  0  0
  3  4  1  0  0  0  0
  3  5  1  0  0  0  0
  3  6  1  0  0  0  0
 31 34  1  0  0  0  0
 31 35  1  0  0  0  0
 31 36  1  0  0  0  0
 21 24  1  0  0  0  0
 21 25  1  0  0  0  0
 21 26  1  0  0  0  0
 11 14  1  0  0  0  0
 11 15  1  0  0  0  0
 11 16  1  0  0  0  0
 38 40  1  0  0  0  0
 38 41  1  0  0  0  0
 38 42  1  0  0  0  0
 28 33  1  0  0  0  0
 18 23  1  0  0  0  0
  8 13  1  0  0  0  0
 37 39  1  0  0  0  0
  7 12  1  0  0  0  0
 27 32  1  0  0  0  0
 17 22  1  0  0  0  0
M  END
$$$$

  -OEChem-05262214473D

 42 41  0     1  0  0  0  0  0999 V2000
   -5.7851   -0.9580    0.6237 C   0  0  0  0  0  0  0  0  0  0  0  0
   -6.2213    0.1296    0.2652 O   0  0  0  0  0  0  0  0  0  0  0  0
   -6.7088   -2.1270    0.7168 C   0  0  0  0  0  0  0  0  0  0  0  0
   -7.1713   -2.2193    1.7126 H   0  0  0  0  0  0  0  0  0  0  0  0
   -7.5511   -2.0547    0.0101 H   0  0  0  0  0  0  0  0  0  0  0  0
   -6.2485   -3.1083    0.5191 H   0  0  0  0  0  0  0  0  0  0  0  0
   -4.4733   -1.2411    0.9668 N   0  0  0  0  0  0  0  0  0  0  0  0
   -3.4203   -0.2603    0.9449 C   0  0  2  0  0  0  0  0  0  0  0  0
   -2.1242   -0.9699    0.5759 C   0  0  0  0  0  0  0  0  0  0  0  0
   -1.8694   -2.1225    0.9189 O   0  0  0  0  0  0  0  0  0  0  0  0
   -3.2916    0.4435    2.2868 C   0  0  0  0  0  0  0  0  0  0  0  0
   -4.2421   -2.1920    1.2489 H   0  0  0  0  0  0  0  0  0  0  0  0
   -3.6772    0.4622    0.1625 H   0  0  0  0  0  0  0  0  0  0  0  0
   -3.0345   -0.2644    3.0832 H   0  0  0  0  0  0  0  0  0  0  0  0
   -2.5093    1.2092    2.2599 H   0  0  0  0  0  0  0  0  0  0  0  0
   -4.2338    0.9283    2.5645 H   0  0  0  0  0  0  0  0  0  0  0  0
   -1.2626   -0.1515   -0.1463 N   0  0  0  0  0  0  0  0  0  0  0  0
    0.0431   -0.5785   -0.5755 C   0  0  2  0  0  0  0  0  0  0  0  0
    0.5635   -1.5901    0.4370 C   0  0  0  0  0  0  0  0  0  0  0  0
    1.4553   -1.3341    1.2434 O   0  0  0  0  0  0  0  0  0  0  0  0
    0.9957    0.5999   -0.7053 C   0  0  0  0  0  0  0  0  0  0  0  0
   -1.5766    0.7776   -0.4197 H   0  0  0  0  0  0  0  0  0  0  0  0
   -0.0875   -1.0674   -1.5471 H   0  0  0  0  0  0  0  0  0  0  0  0
    1.1389    1.1024    0.2582 H   0  0  0  0  0  0  0  0  0  0  0  0
    1.9803    0.2770   -1.0593 H   0  0  0  0  0  0  0  0  0  0  0  0
    0.6054    1.3406   -1.4117 H   0  0  0  0  0  0  0  0  0  0  0  0
   -0.0539   -2.8295    0.3085 N   0  0  0  0  0  0  0  0  0  0  0  0
    0.2949   -3.9635    1.1232 C   0  0  2  0  0  0  0  0  0  0  0  0
    0.1025   -5.2211    0.2858 C   0  0  0  0  0  0  0  0  0  0  0  0
   -0.7812   -5.3343   -0.5611 O   0  0  0  0  0  0  0  0  0  0  0  0
   -0.5494   -4.0176    2.3869 C   0  0  0  0  0  0  0  0  0  0  0  0
   -0.8121   -2.9367   -0.3624 H   0  0  0  0  0  0  0  0  0  0  0  0
    1.3540   -3.8541    1.3808 H   0  0  0  0  0  0  0  0  0  0  0  0
   -1.6137   -4.1271    2.1488 H   0  0  0  0  0  0  0  0  0  0  0  0
   -0.2633   -4.8646    3.0192 H   0  0  0  0  0  0  0  0  0  0  0  0
   -0.4327   -3.0997    2.9731 H   0  0  0  0  0  0  0  0  0  0  0  0
    1.0065   -6.2178    0.6258 N   0  0  0  0  0  0  0  0  0  0  0  0
    1.0004   -7.5211    0.0035 C   0  0  0  0  0  0  0  0  0  0  0  0
    1.7306   -6.0231    1.3110 H   0  0  0  0  0  0  0  0  0  0  0  0
    0.3819   -8.2092    0.5985 H   0  0  0  0  0  0  0  0  0  0  0  0
    0.5856   -7.4405   -1.0121 H   0  0  0  0  0  0  0  0  0  0  0  0
    2.0293   -7.9064   -0.0502 H   0  0  0  0  0  0  0  0  0  0  0  0
  1  3  1  0  0  0  0
  1  7  1  0  0  0  0
  1  2  2  0  0  0  0
 28 29  1  0  0  0  0
 29 37  1  0  0  0  0
 29 30  2  0  0  0  0
 18 19  1  0  0  0  0
 19 27  1  0  0  0  0
 19 20  2  0  0  0  0
  8  9  1  0  0  0  0
  9 17  1  0  0  0  0
  9 10  2  0  0  0  0
 28 31  1  0  0  0  0
 18 21  1  0  0  0  0
  8 11  1  0  0  0  0
 37 38  1  0  0  0  0
 27 28  1  0  0  0  0
 17 18  1  0  0  0  0
  7  8  1  0  0  0  0
  3  4  1  0  0  0  0
  3  5  1  0  0  0  0
  3  6  1  0  0  0  0
 31 34  1  0  0  0  0
 31 35  1  0  0  0  0
 31 36  1  0  0  0  0
 21 24  1  0  0  0  0
 21 25  1  0  0  0  0
 21 26  1  0  0  0  0
 11 14  1  0  0  0  0
 11 15  1  0  0  0  0
 11 16  1  0  0  0  0
 38 40  1  0  0  0  0
 38 41  1  0  0  0  0
 38 42  1  0  0  0  0
 28 33  1  0  0  0  0
 18 23  1  0  0  0  0
  8 13  1  0  0  0  0
 37 39  1  0  0  0  0
  7 12  1  0  0  0  0
 27 32  1  0  0  0  0
 17 22  1  0  0  0  0
M  END
$$$$

  -OEChem-05262214473D

 42 41  0     1  0  0  0  0  0999 V2000
   -5.7851   -0.9580    0.6237 C   0  0  0  0  0  0  0  0  0  0  0  0
   -6.2213    0.1296    0.2652 O   0  0  0  0  0  0  0  0  0  0  0  0
   -6.7088   -2.1270    0.7168 C   0  0  0  0  0  0  0  0  0  0  0  0
   -7.1713   -2.2193    1.7126 H   0  0  0  0  0  0  0  0  0  0  0  0
   -7.5511   -2.0547    0.0101 H   0  0  0  0  0  0  0  0  0  0  0  0
   -6.2485   -3.1083    0.5191 H   0  0  0  0  0  0  0  0  0  0  0  0
   -4.4733   -1.2411    0.9668 N   0  0  0  0  0  0  0  0  0  0  0  0
   -3.4203   -0.2603    0.9449 C   0  0  2  0  0  0  0  0  0  0  0  0
   -2.1242   -0.9699    0.5759 C   0  0  0  0  0  0  0  0  0  0  0  0
   -1.8694   -2.1225    0.9189 O   0  0  0  0  0  0  0  0  0  0  0  0
   -3.2916    0.4435    2.2868 C   0  0  0  0  0  0  0  0  0  0  0  0
   -4.2421   -2.1920    1.2489 H   0  0  0  0  0  0  0  0  0  0  0  0
   -3.6772    0.4622    0.1625 H   0  0  0  0  0  0  0  0  0  0  0  0
   -3.0345   -0.2644    3.0832 H   0  0  0  0  0  0  0  0  0  0  0  0
   -2.5093    1.2092    2.2599 H   0  0  0  0  0  0  0  0  0  0  0  0
   -4.2338    0.9283    2.5645 H   0  0  0  0  0  0  0  0  0  0  0  0
   -1.2626   -0.1515   -0.1463 N   0  0  0  0  0  0  0  0  0  0  0  0
    0.0431   -0.5785   -0.5755 C   0  0  2  0  0  0  0  0  0  0  0  0
    0.5635   -1.5901    0.4370 C   0  0  0  0  0  0  0  0  0  0  0  0
    1.2501   -1.2759    1.4071 O   0  0  0  0  0  0  0  0  0  0  0  0
    0.9957    0.5999   -0.7053 C   0  0  0  0  0  0  0  0  0  0  0  0
   -1.5766    0.7776   -0.4197 H   0  0  0  0  0  0  0  0  0  0  0  0
   -0.0875   -1.0674   -1.5471 H   0  0  0  0  0  0  0  0  0  0  0  0
    1.1389    1.1024    0.2582 H   0  0  0  0  0  0  0  0  0  0  0  0
    1.9803    0.2770   -1.0593 H   0  0  0  0  0  0  0  0  0  0  0  0
    0.6054    1.3406   -1.4117 H   0  0  0  0  0  0  0  0  0  0  0  0
    0.2086   -2.8941    0.1091 N   0  0  0  0  0  0  0  0  0  0  0  0
    0.6171   -4.0335    0.8877 C   0  0  2  0  0  0  0  0  0  0  0  0
    0.7941   -5.2120   -0.0606 C   0  0  0  0  0  0  0  0  0  0  0  0
    0.0964   -5.3807   -1.0585 O   0  0  0  0  0  0  0  0  0  0  0  0
   -0.3995   -4.3561    1.9718 C   0  0  0  0  0  0  0  0  0  0  0  0
   -0.3973   -3.0544   -0.6932 H   0  0  0  0  0  0  0  0  0  0  0  0
    1.5823   -3.7788    1.3388 H   0  0  0  0  0  0  0  0  0  0  0  0
   -1.3730   -4.6137    1.5389 H   0  0  0  0  0  0  0  0  0  0  0  0
   -0.0736   -5.2053    2.5813 H   0  0  0  0  0  0  0  0  0  0  0  0
   -0.5476   -3.4971    2.6351 H   0  0  0  0  0  0  0  0  0  0  0  0
    1.7943   -6.0764    0.3622 N   0  0  0  0  0  0  0  0  0  0  0  0
    2.1249   -7.2915   -0.3450 C   0  0  0  0  0  0  0  0  0  0  0  0
    2.3491   -5.8373    1.1788 H   0  0  0  0  0  0  0  0  0  0  0  0
    1.5511   -8.1297    0.0771 H   0  0  0  0  0  0  0  0  0  0  0  0
    1.8748   -7.1755   -1.4099 H   0  0  0  0  0  0  0  0  0  0  0  0
    3.2010   -7.4949   -0.2411 H   0  0  0  0  0  0  0  0  0  0  0  0
  1  3  1  0  0  0  0
  1  7  1  0  0  0  0
  1  2  2  0  0  0  0
 28 29  1  0  0  0  0
 29 37  1  0  0  0  0
 29 30  2  0  0  0  0
 18 19  1  0  0  0  0
 19 27  1  0  0  0  0
 19 20  2  0  0  0  0
  8  9  1  0  0  0  0
  9 17  1  0  0  0  0
  9 10  2  0  0  0  0
 28 31  1  0  0  0  0
 18 21  1  0  0  0  0
  8 11  1  0  0  0  0
 37 38  1  0  0  0  0
 27 28  1  0  0  0  0
 17 18  1  0  0  0  0
  7  8  1  0  0  0  0
  3  4  1  0  0  0  0
  3  5  1  0  0  0  0
  3  6  1  0  0  0  0
 31 34  1  0  0  0  0
 31 35  1  0  0  0  0
 31 36  1  0  0  0  0
 21 24  1  0  0  0  0
 21 25  1  0  0  0  0
 21 26  1  0  0  0  0
 11 14  1  0  0  0  0
 11 15  1  0  0  0  0
 11 16  1  0  0  0  0
 38 40  1  0  0  0  0
 38 41  1  0  0  0  0
 38 42  1  0  0  0  0
 28 33  1  0  0  0  0
 18 23  1  0  0  0  0
  8 13  1  0  0  0  0
 37 39  1  0  0  0  0
  7 12  1  0  0  0  0
 27 32  1  0  0  0  0
 17 22  1  0  0  0  0
M  END
$$$$

  -OEChem-05262214473D

 42 41  0     1  0  0  0  0  0999 V2000
   -5.7851   -0.9580    0.6237 C   0  0  0  0  0  0  0  0  0  0  0  0
   -6.2213    0.1296    0.2652 O   0  0  0  0  0  0  0  0  0  0  0  0
   -6.7088   -2.1270    0.7168 C   0  0  0  0  0  0  0  0  0  0  0  0
   -7.1713   -2.2193    1.7126 H   0  0  0  0  0  0  0  0  0  0  0  0
   -7.5511   -2.0547    0.0101 H   0  0  0  0  0  0  0  0  0  0  0  0
   -6.2485   -3.1083    0.5191 H   0  0  0  0  0  0  0  0  0  0  0  0
   -4.4733   -1.2411    0.9668 N   0  0  0  0  0  0  0  0  0  0  0  0
   -3.4203   -0.2603    0.9449 C   0  0  2  0  0  0  0  0  0  0  0  0
   -2.1242   -0.9699    0.5759 C   0  0  0  0  0  0  0  0  0  0  0  0
   -1.8694   -2.1225    0.9189 O   0  0  0  0  0  0  0  0  0  0  0  0
   -3.2916    0.4435    2.2868 C   0  0  0  0  0  0  0  0  0  0  0  0
   -4.2421   -2.1920    1.2489 H   0  0  0  0  0  0  0  0  0  0  0  0
   -3.6772    0.4622    0.1625 H   0  0  0  0  0  0  0  0  0  0  0  0
   -3.0345   -0.2644    3.0832 H   0  0  0  0  0  0  0  0  0  0  0  0
   -2.5093    1.2092    2.2599 H   0  0  0  0  0  0  0  0  0  0  0  0
   -4.2338    0.9283    2.5645 H   0  0  0  0  0  0  0  0  0  0  0  0
   -1.2626   -0.1515   -0.1463 N   0  0  0  0  0  0  0  0  0  0  0  0
    0.0431   -0.5785   -0.5755 C   0  0  2  0  0  0  0  0  0  0  0  0
    0.5635   -1.5901    0.4370 C   0  0  0  0  0  0  0  0  0  0  0  0
    1.0136   -1.2694    1.5350 O   0  0  0  0  0  0  0  0  0  0  0  0
    0.9957    0.5999   -0.7053 C   0  0  0  0  0  0  0  0  0  0  0  0
   -1.5766    0.7776   -0.4197 H   0  0  0  0  0  0  0  0  0  0  0  0
   -0.0875   -1.0674   -1.5471 H   0  0  0  0  0  0  0  0  0  0  0  0
    1.1389    1.1024    0.2582 H   0  0  0  0  0  0  0  0  0  0  0  0
    1.9803    0.2770   -1.0593 H   0  0  0  0  0  0  0  0  0  0  0  0
    0.6054    1.3406   -1.4117 H   0  0  0  0  0  0  0  0  0  0  0  0
    0.5076   -2.8936   -0.0441 N   0  0  0  0  0  0  0  0  0  0  0  0
    0.9808   -4.0248    0.7094 C   0  0  2  0  0  0  0  0  0  0  0  0
    1.5201   -5.0537   -0.2755 C   0  0  0  0  0  0  0  0  0  0  0  0
    1.0376   -5.2305   -1.3922 O   0  0  0  0  0  0  0  0  0  0  0  0
   -0.1252   -4.6205    1.5666 C   0  0  0  0  0  0  0  0  0  0  0  0
    0.0805   -3.0675   -0.9518 H   0  0  0  0  0  0  0  0  0  0  0  0
    1.7971   -3.6630    1.3440 H   0  0  0  0  0  0  0  0  0  0  0  0
   -0.9520   -4.9884    0.9481 H   0  0  0  0  0  0  0  0  0  0  0  0
    0.2436   -5.4631    2.1607 H   0  0  0  0  0  0  0  0  0  0  0  0
   -0.5322   -3.8709    2.2538 H   0  0  0  0  0  0  0  0  0  0  0  0
    2.5762   -5.7809    0.2555 N   0  0  0  0  0  0  0  0  0  0  0  0
    3.2315   -6.8454   -0.4680 C   0  0  0  0  0  0  0  0  0  0  0  0
    2.9372   -5.5398    1.1738 H   0  0  0  0  0  0  0  0  0  0  0  0
    2.7563   -7.8056   -0.2186 H   0  0  0  0  0  0  0  0  0  0  0  0
    3.1429   -6.6625   -1.5491 H   0  0  0  0  0  0  0  0  0  0  0  0
    4.2946   -6.8788   -0.1877 H   0  0  0  0  0  0  0  0  0  0  0  0
  1  3  1  0  0  0  0
  1  7  1  0  0  0  0
  1  2  2  0  0  0  0
 28 29  1  0  0  0  0
 29 37  1  0  0  0  0
 29 30  2  0  0  0  0
 18 19  1  0  0  0  0
 19 27  1  0  0  0  0
 19 20  2  0  0  0  0
  8  9  1  0  0  0  0
  9 17  1  0  0  0  0
  9 10  2  0  0  0  0
 28 31  1  0  0  0  0
 18 21  1  0  0  0  0
  8 11  1  0  0  0  0
 37 38  1  0  0  0  0
 27 28  1  0  0  0  0
 17 18  1  0  0  0  0
  7  8  1  0  0  0  0
  3  4  1  0  0  0  0
  3  5  1  0  0  0  0
  3  6  1  0  0  0  0
 31 34  1  0  0  0  0
 31 35  1  0  0  0  0
 31 36  1  0  0  0  0
 21 24  1  0  0  0  0
 21 25  1  0  0  0  0
 21 26  1  0  0  0  0
 11 14  1  0  0  0  0
 11 15  1  0  0  0  0
 11 16  1  0  0  0  0
 38 40  1  0  0  0  0
 38 41  1  0  0  0  0
 38 42  1  0  0  0  0
 28 33  1  0  0  0  0
 18 23  1  0  0  0  0
  8 13  1  0  0  0  0
 37 39  1  0  0  0  0
  7 12  1  0  0  0  0
 27 32  1  0  0  0  0
 17 22  1  0  0  0  0
M  END
$$$$

  -OEChem-05262214473D

 42 41  0     1  0  0  0  0  0999 V2000
   -5.7851   -0.9580    0.6237 C   0  0  0  0  0  0  0  0  0  0  0  0
   -6.2213    0.1296    0.2652 O   0  0  0  0  0  0  0  0  0  0  0  0
   -6.7088   -2.1270    0.7168 C   0  0  0  0  0  0  0  0  0  0  0  0
   -7.1713   -2.2193    1.7126 H   0  0  0  0  0  0  0  0  0  0  0  0
   -7.5511   -2.0547    0.0101 H   0  0  0  0  0  0  0  0  0  0  0  0
   -6.2485   -3.1083    0.5191 H   0  0  0  0  0  0  0  0  0  0  0  0
   -4.4733   -1.2411    0.9668 N   0  0  0  0  0  0  0  0  0  0  0  0
   -3.4203   -0.2603    0.9449 C   0  0  2  0  0  0  0  0  0  0  0  0
   -2.1242   -0.9699    0.5759 C   0  0  0  0  0  0  0  0  0  0  0  0
   -1.8694   -2.1225    0.9189 O   0  0  0  0  0  0  0  0  0  0  0  0
   -3.2916    0.4435    2.2868 C   0  0  0  0  0  0  0  0  0  0  0  0
   -4.2421   -2.1920    1.2489 H   0  0  0  0  0  0  0  0  0  0  0  0
   -3.6772    0.4622    0.1625 H   0  0  0  0  0  0  0  0  0  0  0  0
   -3.0345   -0.2644    3.0832 H   0  0  0  0  0  0  0  0  0  0  0  0
   -2.5093    1.2092    2.2599 H   0  0  0  0  0  0  0  0  0  0  0  0
   -4.2338    0.9283    2.5645 H   0  0  0  0  0  0  0  0  0  0  0  0
   -1.2626   -0.1515   -0.1463 N   0  0  0  0  0  0  0  0  0  0  0  0
    0.0431   -0.5785   -0.5755 C   0  0  2  0  0  0  0  0  0  0  0  0
    0.5635   -1.5901    0.4370 C   0  0  0  0  0  0  0  0  0  0  0  0
    0.7622   -1.3152    1.6186 O   0  0  0  0  0  0  0  0  0  0  0  0
    0.9957    0.5999   -0.7053 C   0  0  0  0  0  0  0  0  0  0  0  0
   -1.5766    0.7776   -0.4197 H   0  0  0  0  0  0  0  0  0  0  0  0
   -0.0875   -1.0674   -1.5471 H   0  0  0  0  0  0  0  0  0  0  0  0
    1.1389    1.1024    0.2582 H   0  0  0  0  0  0  0  0  0  0  0  0
    1.9803    0.2770   -1.0593 H   0  0  0  0  0  0  0  0  0  0  0  0
    0.6054    1.3406   -1.4117 H   0  0  0  0  0  0  0  0  0  0  0  0
    0.8227   -2.8282   -0.1407 N   0  0  0  0  0  0  0  0  0  0  0  0
    1.3613   -3.9381    0.6006 C   0  0  2  0  0  0  0  0  0  0  0  0
    2.2311   -4.7568   -0.3443 C   0  0  0  0  0  0  0  0  0  0  0  0
    1.9782   -4.8940   -1.5394 O   0  0  0  0  0  0  0  0  0  0  0  0
    0.2550   -4.7928    1.1990 C   0  0  0  0  0  0  0  0  0  0  0  0
    0.5887   -2.9750   -1.1206 H   0  0  0  0  0  0  0  0  0  0  0  0
    1.9838   -3.5146    1.3963 H   0  0  0  0  0  0  0  0  0  0  0  0
   -0.3792   -5.2257    0.4167 H   0  0  0  0  0  0  0  0  0  0  0  0
    0.6666   -5.6203    1.7863 H   0  0  0  0  0  0  0  0  0  0  0  0
   -0.3874   -4.1955    1.8550 H   0  0  0  0  0  0  0  0  0  0  0  0
    3.2990   -5.3516    0.3130 N   0  0  0  0  0  0  0  0  0  0  0  0
    4.2447   -6.2132   -0.3572 C   0  0  0  0  0  0  0  0  0  0  0  0
    3.4550   -5.1507    1.2964 H   0  0  0  0  0  0  0  0  0  0  0  0
    3.9156   -7.2591   -0.2683 H   0  0  0  0  0  0  0  0  0  0  0  0
    4.3034   -5.9365   -1.4202 H   0  0  0  0  0  0  0  0  0  0  0  0
    5.2359   -6.1003    0.1064 H   0  0  0  0  0  0  0  0  0  0  0  0
  1  3  1  0  0  0  0
  1  7  1  0  0  0  0
  1  2  2  0  0  0  0
 28 29  1  0  0  0  0
 29 37  1  0  0  0  0
 29 30  2  0  0  0  0
 18 19  1  0  0  0  0
 19 27  1  0  0  0  0
 19 20  2  0  0  0  0
  8  9  1  0  0  0  0
  9 17  1  0  0  0  0
  9 10  2  0  0  0  0
 28 31  1  0  0  0  0
 18 21  1  0  0  0  0
  8 11  1  0  0  0  0
 37 38  1  0  0  0  0
 27 28  1  0  0  0  0
 17 18  1  0  0  0  0
  7  8  1  0  0  0  0
  3  4  1  0  0  0  0
  3  5  1  0  0  0  0
  3  6  1  0  0  0  0
 31 34  1  0  0  0  0
 31 35  1  0  0  0  0
 31 36  1  0  0  0  0
 21 24  1  0  0  0  0
 21 25  1  0  0  0  0
 21 26  1  0  0  0  0
 11 14  1  0  0  0  0
 11 15  1  0  0  0  0
 11 16  1  0  0  0  0
 38 40  1  0  0  0  0
 38 41  1  0  0  0  0
 38 42  1  0  0  0  0
 28 33  1  0  0  0  0
 18 23  1  0  0  0  0
  8 13  1  0  0  0  0
 37 39  1  0  0  0  0
  7 12  1  0  0  0  0
 27 32  1  0  0  0  0
 17 22  1  0  0  0  0
M  END
$$$$

  -OEChem-05262214473D

 42 41  0     1  0  0  0  0  0999 V2000
   -5.7851   -0.9580    0.6237 C   0  0  0  0  0  0  0  0  0  0  0  0
   -6.2213    0.1296    0.2652 O   0  0  0  0  0  0  0  0  0  0  0  0
   -6.7088   -2.1270    0.7168 C   0  0  0  0  0  0  0  0  0  0  0  0
   -7.1713   -2.2193    1.7126 H   0  0  0  0  0  0  0  0  0  0  0  0
   -7.5511   -2.0547    0.0101 H   0  0  0  0  0  0  0  0  0  0  0  0
   -6.2485   -3.1083    0.5191 H   0  0  0  0  0  0  0  0  0  0  0  0
   -4.4733   -1.2411    0.9668 N   0  0  0  0  0  0  0  0  0  0  0  0
   -3.4203   -0.2603    0.9449 C   0  0  2  0  0  0  0  0  0  0  0  0
   -2.1242   -0.9699    0.5759 C   0  0  0  0  0  0  0  0  0  0  0  0
   -1.8694   -2.1225    0.9189 O   0  0  0  0  0  0  0  0  0  0  0  0
   -3.2916    0.4435    2.2868 C   0  0  0  0  0  0  0  0  0  0  0  0
   -4.2421   -2.1920    1.2489 H   0  0  0  0  0  0  0  0  0  0  0  0
   -3.6772    0.4622    0.1625 H   0  0  0  0  0  0  0  0  0  0  0  0
   -3.0345   -0.2644    3.0832 H   0  0  0  0  0  0  0  0  0  0  0  0
   -2.5093    1.2092    2.2599 H   0  0  0  0  0  0  0  0  0  0  0  0
   -4.2338    0.9283    2.5645 H   0  0  0  0  0  0  0  0  0  0  0  0
   -1.2626   -0.1515   -0.1463 N   0  0  0  0  0  0  0  0  0  0  0  0
    0.0431   -0.5785   -0.5755 C   0  0  2  0  0  0  0  0  0  0  0  0
    0.5635   -1.5901    0.4370 C   0  0  0  0  0  0  0  0  0  0  0  0
    0.5128   -1.4100    1.6520 O   0  0  0  0  0  0  0  0  0  0  0  0
    0.9957    0.5999   -0.7053 C   0  0  0  0  0  0  0  0  0  0  0  0
   -1.5766    0.7776   -0.4197 H   0  0  0  0  0  0  0  0  0  0  0  0
   -0.0875   -1.0674   -1.5471 H   0  0  0  0  0  0  0  0  0  0  0  0
    1.1389    1.1024    0.2582 H   0  0  0  0  0  0  0  0  0  0  0  0
    1.9803    0.2770   -1.0593 H   0  0  0  0  0  0  0  0  0  0  0  0
    0.6054    1.3406   -1.4117 H   0  0  0  0  0  0  0  0  0  0  0  0
    1.1324   -2.7022   -0.1740 N   0  0  0  0  0  0  0  0  0  0  0  0
    1.7327   -3.7792    0.5685 C   0  0  2  0  0  0  0  0  0  0  0  0
    2.8786   -4.3416   -0.2622 C   0  0  0  0  0  0  0  0  0  0  0  0
    2.8542   -4.3941   -1.4901 O   0  0  0  0  0  0  0  0  0  0  0  0
    0.7151   -4.8614    0.8940 C   0  0  0  0  0  0  0  0  0  0  0  0
    1.0927   -2.7833   -1.1881 H   0  0  0  0  0  0  0  0  0  0  0  0
    2.1296   -3.3438    1.4920 H   0  0  0  0  0  0  0  0  0  0  0  0
    0.3062   -5.3093   -0.0190 H   0  0  0  0  0  0  0  0  0  0  0  0
    1.1667   -5.6663    1.4834 H   0  0  0  0  0  0  0  0  0  0  0  0
   -0.1231   -4.4489    1.4660 H   0  0  0  0  0  0  0  0  0  0  0  0
    3.9134   -4.8176    0.5308 N   0  0  0  0  0  0  0  0  0  0  0  0
    5.0956   -5.4381   -0.0200 C   0  0  0  0  0  0  0  0  0  0  0  0
    3.8672   -4.6967    1.5382 H   0  0  0  0  0  0  0  0  0  0  0  0
    4.9498   -6.5273   -0.0687 H   0  0  0  0  0  0  0  0  0  0  0  0
    5.2773   -5.0469   -1.0319 H   0  0  0  0  0  0  0  0  0  0  0  0
    5.9605   -5.2123    0.6211 H   0  0  0  0  0  0  0  0  0  0  0  0
  1  3  1  0  0  0  0
  1  7  1  0  0  0  0
  1  2  2  0  0  0  0
 28 29  1  0  0  0  0
 29 37  1  0  0  0  0
 29 30  2  0  0  0  0
 18 19  1  0  0  0  0
 19 27  1  0  0  0  0
 19 20  2  0  0  0  0
  8  9  1  0  0  0  0
  9 17  1  0  0  0  0
  9 10  2  0  0  0  0
 28 31  1  0  0  0  0
 18 21  1  0  0  0  0
  8 11  1  0  0  0  0
 37 38  1  0  0  0  0
 27 28  1  0  0  0  0
 17 18  1  0  0  0  0
  7  8  1  0  0  0  0
  3  4  1  0  0  0  0
  3  5  1  0  0  0  0
  3  6  1  0  0  0  0
 31 34  1  0  0  0  0
 31 35  1  0  0  0  0
 31 36  1  0  0  0  0
 21 24  1  0  0  0  0
 21 25  1  0  0  0  0
 21 26  1  0  0  0  0
 11 14  1  0  0  0  0
 11 15  1  0  0  0  0
 11 16  1  0  0  0  0
 38 40  1  0  0  0  0
 38 41  1  0  0  0  0
 38 42  1  0  0  0  0
 28 33  1  0  0  0  0
 18 23  1  0  0  0  0
  8 13  1  0  0  0  0
 37 39  1  0  0  0  0
  7 12  1  0  0  0  0
 27 32  1  0  0  0  0
 17 22  1  0  0  0  0
M  END
$$$$

  -OEChem-05262214473D

 42 41  0     1  0  0  0  0  0999 V2000
   -5.7851   -0.9580    0.6237 C   0  0  0  0  0  0  0  0  0  0  0  0
   -6.2213    0.1296    0.2652 O   0  0  0  0  0  0  0  0  0  0  0  0
   -6.7088   -2.1270    0.7168 C   0  0  0  0  0  0  0  0  0  0  0  0
   -7.1713   -2.2193    1.7126 H   0  0  0  0  0  0  0  0  0  0  0  0
   -7.5511   -2.0547    0.0101 H   0  0  0  0  0  0  0  0  0  0  0  0
   -6.2485   -3.1083    0.5191 H   0  0  0  0  0  0  0  0  0  0  0  0
   -4.4733   -1.2411    0.9668 N   0  0  0  0  0  0  0  0  0  0  0  0
   -3.4203   -0.2603    0.9449 C   0  0  2  0  0  0  0  0  0  0  0  0
   -2.1242   -0.9699    0.5759 C   0  0  0  0  0  0  0  0  0  0  0  0
   -1.8694   -2.1225    0.9189 O   0  0  0  0  0  0  0  0  0  0  0  0
   -3.2916    0.4435    2.2868 C   0  0  0  0  0  0  0  0  0  0  0  0
   -4.2421   -2.1920    1.2489 H   0  0  0  0  0  0  0  0  0  0  0  0
   -3.6772    0.4622    0.1625 H   0  0  0  0  0  0  0  0  0  0  0  0
   -3.0345   -0.2644    3.0832 H   0  0  0  0  0  0  0  0  0  0  0  0
   -2.5093    1.2092    2.2599 H   0  0  0  0  0  0  0  0  0  0  0  0
   -4.2338    0.9283    2.5645 H   0  0  0  0  0  0  0  0  0  0  0  0
   -1.2626   -0.1515   -0.1463 N   0  0  0  0  0  0  0  0  0  0  0  0
    0.0431   -0.5785   -0.5755 C   0  0  2  0  0  0  0  0  0  0  0  0
    0.5635   -1.5901    0.4370 C   0  0  0  0  0  0  0  0  0  0  0  0
    0.2824   -1.5475    1.6330 O   0  0  0  0  0  0  0  0  0  0  0  0
    0.9957    0.5999   -0.7053 C   0  0  0  0  0  0  0  0  0  0  0  0
   -1.5766    0.7776   -0.4197 H   0  0  0  0  0  0  0  0  0  0  0  0
   -0.0875   -1.0674   -1.5471 H   0  0  0  0  0  0  0  0  0  0  0  0
    1.1389    1.1024    0.2582 H   0  0  0  0  0  0  0  0  0  0  0  0
    1.9803    0.2770   -1.0593 H   0  0  0  0  0  0  0  0  0  0  0  0
    0.6054    1.3406   -1.4117 H   0  0  0  0  0  0  0  0  0  0  0  0
    1.4155   -2.5243   -0.1418 N   0  0  0  0  0  0  0  0  0  0  0  0
    2.0695   -3.5589    0.6154 C   0  0  2  0  0  0  0  0  0  0  0  0
    3.4185   -3.8364   -0.0349 C   0  0  0  0  0  0  0  0  0  0  0  0
    3.6059   -3.7648   -1.2477 O   0  0  0  0  0  0  0  0  0  0  0  0
    1.2237   -4.8215    0.6725 C   0  0  0  0  0  0  0  0  0  0  0  0
    1.5581   -2.5055   -1.1497 H   0  0  0  0  0  0  0  0  0  0  0  0
    2.2246   -3.1622    1.6246 H   0  0  0  0  0  0  0  0  0  0  0  0
    1.0576   -5.2336   -0.3295 H   0  0  0  0  0  0  0  0  0  0  0  0
    1.7097   -5.5978    1.2727 H   0  0  0  0  0  0  0  0  0  0  0  0
    0.2427   -4.6138    1.1133 H   0  0  0  0  0  0  0  0  0  0  0  0
    4.3775   -4.2153    0.8940 N   0  0  0  0  0  0  0  0  0  0  0  0
    5.7262   -4.5727    0.5206 C   0  0  0  0  0  0  0  0  0  0  0  0
    4.1455   -4.2085    1.8828 H   0  0  0  0  0  0  0  0  0  0  0  0
    5.7886   -5.6601    0.3666 H   0  0  0  0  0  0  0  0  0  0  0  0
    5.9982   -4.0544   -0.4108 H   0  0  0  0  0  0  0  0  0  0  0  0
    6.4192   -4.2755    1.3214 H   0  0  0  0  0  0  0  0  0  0  0  0
  1  3  1  0  0  0  0
  1  7  1  0  0  0  0
  1  2  2  0  0  0  0
 28 29  1  0  0  0  0
 29 37  1  0  0  0  0
 29 30  2  0  0  0  0
 18 19  1  0  0  0  0
 19 27  1  0  0  0  0
 19 20  2  0  0  0  0
  8  9  1  0  0  0  0
  9 17  1  0  0  0  0
  9 10  2  0  0  0  0
 28 31  1  0  0  0  0
 18 21  1  0  0  0  0
  8 11  1  0  0  0  0
 37 38  1  0  0  0  0
 27 28  1  0  0  0  0
 17 18  1  0  0  0  0
  7  8  1  0  0  0  0
  3  4  1  0  0  0  0
  3  5  1  0  0  0  0
  3  6  1  0  0  0  0
 31 34  1  0  0  0  0
 31 35  1  0  0  0  0
 31 36  1  0  0  0  0
 21 24  1  0  0  0  0
 21 25  1  0  0  0  0
 21 26  1  0  0  0  0
 11 14  1  0  0  0  0
 11 15  1  0  0  0  0
 11 16  1  0  0  0  0
 38 40  1  0  0  0  0
 38 41  1  0  0  0  0
 38 42  1  0  0  0  0
 28 33  1  0  0  0  0
 18 23  1  0  0  0  0
  8 13  1  0  0  0  0
 37 39  1  0  0  0  0
  7 12  1  0  0  0  0
 27 32  1  0  0  0  0
 17 22  1  0  0  0  0
M  END
$$$$

  -OEChem-05262214473D

 42 41  0     1  0  0  0  0  0999 V2000
   -5.7851   -0.9580    0.6237 C   0  0  0  0  0  0  0  0  0  0  0  0
   -6.2213    0.1296    0.2652 O   0  0  0  0  0  0  0  0  0  0  0  0
   -6.7088   -2.1270    0.7168 C   0  0  0  0  0  0  0  0  0  0  0  0
   -7.1713   -2.2193    1.7126 H   0  0  0  0  0  0  0  0  0  0  0  0
   -7.5511   -2.0547    0.0101 H   0  0  0  0  0  0  0  0  0  0  0  0
   -6.2485   -3.1083    0.5191 H   0  0  0  0  0  0  0  0  0  0  0  0
   -4.4733   -1.2411    0.9668 N   0  0  0  0  0  0  0  0  0  0  0  0
   -3.4203   -0.2603    0.9449 C   0  0  2  0  0  0  0  0  0  0  0  0
   -2.1242   -0.9699    0.5759 C   0  0  0  0  0  0  0  0  0  0  0  0
   -1.8694   -2.1225    0.9189 O   0  0  0  0  0  0  0  0  0  0  0  0
   -3.2916    0.4435    2.2868 C   0  0  0  0  0  0  0  0  0  0  0  0
   -4.2421   -2.1920    1.2489 H   0  0  0  0  0  0  0  0  0  0  0  0
   -3.6772    0.4622    0.1625 H   0  0  0  0  0  0  0  0  0  0  0  0
   -3.0345   -0.2644    3.0832 H   0  0  0  0  0  0  0  0  0  0  0  0
   -2.5093    1.2092    2.2599 H   0  0  0  0  0  0  0  0  0  0  0  0
   -4.2338    0.9283    2.5645 H   0  0  0  0  0  0  0  0  0  0  0  0
   -1.2626   -0.1515   -0.1463 N   0  0  0  0  0  0  0  0  0  0  0  0
    0.0431   -0.5785   -0.5755 C   0  0  2  0  0  0  0  0  0  0  0  0
    0.5635   -1.5901    0.4370 C   0  0  0  0  0  0  0  0  0  0  0  0
    0.0869   -1.7183    1.5629 O   0  0  0  0  0  0  0  0  0  0  0  0
    0.9957    0.5999   -0.7053 C   0  0  0  0  0  0  0  0  0  0  0  0
   -1.5766    0.7776   -0.4197 H   0  0  0  0  0  0  0  0  0  0  0  0
   -0.0875   -1.0674   -1.5471 H   0  0  0  0  0  0  0  0  0  0  0  0
    1.1389    1.1024    0.2582 H   0  0  0  0  0  0  0  0  0  0  0  0
    1.9803    0.2770   -1.0593 H   0  0  0  0  0  0  0  0  0  0  0  0
    0.6054    1.3406   -1.4117 H   0  0  0  0  0  0  0  0  0  0  0  0
    1.6529   -2.3066   -0.0463 N   0  0  0  0  0  0  0  0  0  0  0  0
    2.3489   -3.2924    0.7381 C   0  0  2  0  0  0  0  0  0  0  0  0
    3.8139   -3.2756    0.3221 C   0  0  0  0  0  0  0  0  0  0  0  0
    4.1819   -3.0491   -0.8287 O   0  0  0  0  0  0  0  0  0  0  0  0
    1.7462   -4.6758    0.5495 C   0  0  0  0  0  0  0  0  0  0  0  0
    1.9533   -2.1604   -1.0080 H   0  0  0  0  0  0  0  0  0  0  0  0
    2.2624   -2.9822    1.7851 H   0  0  0  0  0  0  0  0  0  0  0  0
    1.8237   -5.0037   -0.4936 H   0  0  0  0  0  0  0  0  0  0  0  0
    2.2586   -5.4196    1.1686 H   0  0  0  0  0  0  0  0  0  0  0  0
    0.6850   -4.6789    0.8209 H   0  0  0  0  0  0  0  0  0  0  0  0
    4.6597   -3.5858    1.3778 N   0  0  0  0  0  0  0  0  0  0  0  0
    6.0934   -3.6761    1.2276 C   0  0  0  0  0  0  0  0  0  0  0  0
    4.2712   -3.7196    2.3067 H   0  0  0  0  0  0  0  0  0  0  0  0
    6.3747   -4.7166    1.0080 H   0  0  0  0  0  0  0  0  0  0  0  0
    6.4169   -3.0266    0.4009 H   0  0  0  0  0  0  0  0  0  0  0  0
    6.5806   -3.3535    2.1596 H   0  0  0  0  0  0  0  0  0  0  0  0
  1  3  1  0  0  0  0
  1  7  1  0  0  0  0
  1  2  2  0  0  0  0
 28 29  1  0  0  0  0
 29 37  1  0  0  0  0
 29 30  2  0  0  0  0
 18 19  1  0  0  0  0
 19 27  1  0  0  0  0
 19 20  2  0  0  0  0
  8  9  1  0  0  0  0
  9 17  1  0  0  0  0
  9 10  2  0  0  0  0
 28 31  1  0  0  0  0
 18 21  1  0  0  0  0
  8 11  1  0  0  0  0
 37 38  1  0  0  0  0
 27 28  1  0  0  0  0
 17 18  1  0  0  0  0
  7  8  1  0  0  0  0
  3  4  1  0  0  0  0
  3  5  1  0  0  0  0
  3  6  1  0  0  0  0
 31 34  1  0  0  0  0
 31 35  1  0  0  0  0
 31 36  1  0  0  0  0
 21 24  1  0  0  0  0
 21 25  1  0  0  0  0
 21 26  1  0  0  0  0
 11 14  1  0  0  0  0
 11 15  1  0  0  0  0
 11 16  1  0  0  0  0
 38 40  1  0  0  0  0
 38 41  1  0  0  0  0
 38 42  1  0  0  0  0
 28 33  1  0  0  0  0
 18 23  1  0  0  0  0
  8 13  1  0  0  0  0
 37 39  1  0  0  0  0
  7 12  1  0  0  0  0
 27 32  1  0  0  0  0
 17 22  1  0  0  0  0
M  END
$$$$

  -OEChem-05262214473D

 42 41  0     1  0  0  0  0  0999 V2000
   -5.7851   -0.9580    0.6237 C   0  0  0  0  0  0  0  0  0  0  0  0
   -6.2213    0.1296    0.2652 O   0  0  0  0  0  0  0  0  0  0  0  0
   -6.7088   -2.1270    0.7168 C   0  0  0  0  0  0  0  0  0  0  0  0
   -7.1713   -2.2193    1.7126 H   0  0  0  0  0  0  0  0  0  0  0  0
   -7.5511   -2.0547    0.0101 H   0  0  0  0  0  0  0  0  0  0  0  0
   -6.2485   -3.1083    0.5191 H   0  0  0  0  0  0  0  0  0  0  0  0
   -4.4733   -1.2411    0.9668 N   0  0  0  0  0  0  0  0  0  0  0  0
   -3.4203   -0.2603    0.9449 C   0  0  2  0  0  0  0  0  0  0  0  0
   -2.1242   -0.9699    0.5759 C   0  0  0  0  0  0  0  0  0  0  0  0
   -1.8694   -2.1225    0.9189 O   0  0  0  0  0  0  0  0  0  0  0  0
   -3.2916    0.4435    2.2868 C   0  0  0  0  0  0  0  0  0  0  0  0
   -4.2421   -2.1920    1.2489 H   0  0  0  0  0  0  0  0  0  0  0  0
   -3.6772    0.4622    0.1625 H   0  0  0  0  0  0  0  0  0  0  0  0
   -3.0345   -0.2644    3.0832 H   0  0  0  0  0  0  0  0  0  0  0  0
   -2.5093    1.2092    2.2599 H   0  0  0  0  0  0  0  0  0  0  0  0
   -4.2338    0.9283    2.5645 H   0  0  0  0  0  0  0  0  0  0  0  0
   -1.2626   -0.1515   -0.1463 N   0  0  0  0  0  0  0  0  0  0  0  0
    0.0431   -0.5785   -0.5755 C   0  0  2  0  0  0  0  0  0  0  0  0
    0.4045   -1.8383    0.2002 C   0  0  0  0  0  0  0  0  0  0  0  0
   -0.3244   -2.3290    1.0598 O   0  0  0  0  0  0  0  0  0  0  0  0
    1.0812    0.5111   -0.3567 C   0  0  0  0  0  0  0  0  0  0  0  0
   -1.5766    0.7776   -0.4197 H   0  0  0  0  0  0  0  0  0  0  0  0
   -0.0364   -0.8157   -1.6420 H   0  0  0  0  0  0  0  0  0  0  0  0
    1.1749    0.7623    0.7061 H   0  0  0  0  0  0  0  0  0  0  0  0
    2.0684    0.1953   -0.7100 H   0  0  0  0  0  0  0  0  0  0  0  0
    0.8044    1.4262   -0.8913 H   0  0  0  0  0  0  0  0  0  0  0  0
    1.6579   -2.3299   -0.1478 N   0  0  0  0  0  0  0  0  0  0  0  0
    2.2429   -3.4877    0.4756 C   0  0  2  0  0  0  0  0  0  0  0  0
    3.7529   -3.2918    0.5084 C   0  0  0  0  0  0  0  0  0  0  0  0
    4.3723   -2.7036   -0.3757 O   0  0  0  0  0  0  0  0  0  0  0  0
    1.8761   -4.7619   -0.2692 C   0  0  0  0  0  0  0  0  0  0  0  0
    2.1737   -1.8795   -0.9011 H   0  0  0  0  0  0  0  0  0  0  0  0
    1.8565   -3.5245    1.5000 H   0  0  0  0  0  0  0  0  0  0  0  0
    2.2548   -4.7434   -1.2976 H   0  0  0  0  0  0  0  0  0  0  0  0
    2.2983   -5.6445    0.2226 H   0  0  0  0  0  0  0  0  0  0  0  0
    0.7889   -4.8858   -0.3176 H   0  0  0  0  0  0  0  0  0  0  0  0
    4.3326   -3.8885    1.6192 N   0  0  0  0  0  0  0  0  0  0  0  0
    5.7575   -3.8786    1.8549 C   0  0  0  0  0  0  0  0  0  0  0  0
    3.7390   -4.3199    2.3216 H   0  0  0  0  0  0  0  0  0  0  0  0
    6.2066   -4.7877    1.4284 H   0  0  0  0  0  0  0  0  0  0  0  0
    6.2017   -2.9922    1.3786 H   0  0  0  0  0  0  0  0  0  0  0  0
    5.9497   -3.8481    2.9376 H   0  0  0  0  0  0  0  0  0  0  0  0
  1  3  1  0  0  0  0
  1  7  1  0  0  0  0
  1  2  2  0  0  0  0
 28 29  1  0  0  0  0
 29 37  1  0  0  0  0
 29 30  2  0  0  0  0
 18 19  1  0  0  0  0
 19 27  1  0  0  0  0
 19 20  2  0  0  0  0
  8  9  1  0  0  0  0
  9 17  1  0  0  0  0
  9 10  2  0  0  0  0
 28 31  1  0  0  0  0
 18 21  1  0  0  0  0
  8 11  1  0  0  0  0
 37 38  1  0  0  0  0
 27 28  1  0  0  0  0
 17 18  1  0  0  0  0
  7  8  1  0  0  0  0
  3  4  1  0  0  0  0
  3  5  1  0  0  0  0
  3  6  1  0  0  0  0
 31 34  1  0  0  0  0
 31 35  1  0  0  0  0
 31 36  1  0  0  0  0
 21 24  1  0  0  0  0
 21 25  1  0  0  0  0
 21 26  1  0  0  0  0
 11 14  1  0  0  0  0
 11 15  1  0  0  0  0
 11 16  1  0  0  0  0
 38 40  1  0  0  0  0
 38 41  1  0  0  0  0
 38 42  1  0  0  0  0
 28 33  1  0  0  0  0
 18 23  1  0  0  0  0
  8 13  1  0  0  0  0
 37 39  1  0  0  0  0
  7 12  1  0  0  0  0
 27 32  1  0  0  0  0
 17 22  1  0  0  0  0
M  END
$$$$

  -OEChem-05262214473D

 42 41  0     1  0  0  0  0  0999 V2000
   -5.7851   -0.9580    0.6237 C   0  0  0  0  0  0  0  0  0  0  0  0
   -6.2213    0.1296    0.2652 O   0  0  0  0  0  0  0  0  0  0  0  0
   -6.7088   -2.1270    0.7168 C   0  0  0  0  0  0  0  0  0  0  0  0
   -7.1713   -2.2193    1.7126 H   0  0  0  0  0  0  0  0  0  0  0  0
   -7.5511   -2.0547    0.0101 H   0  0  0  0  0  0  0  0  0  0  0  0
   -6.2485   -3.1083    0.5191 H   0  0  0  0  0  0  0  0  0  0  0  0
   -4.4733   -1.2411    0.9668 N   0  0  0  0  0  0  0  0  0  0  0  0
   -3.4203   -0.2603    0.9449 C   0  0  2  0  0  0  0  0  0  0  0  0
   -2.1242   -0.9699    0.5759 C   0  0  0  0  0  0  0  0  0  0  0  0
   -1.8694   -2.1225    0.9189 O   0  0  0  0  0  0  0  0  0  0  0  0
   -3.2916    0.4435    2.2868 C   0  0  0  0  0  0  0  0  0  0  0  0
   -4.2421   -2.1920    1.2489 H   0  0  0  0  0  0  0  0  0  0  0  0
   -3.6772    0.4622    0.1625 H   0  0  0  0  0  0  0  0  0  0  0  0
   -3.0345   -0.2644    3.0832 H   0  0  0  0  0  0  0  0  0  0  0  0
   -2.5093    1.2092    2.2599 H   0  0  0  0  0  0  0  0  0  0  0  0
   -4.2338    0.9283    2.5645 H   0  0  0  0  0  0  0  0  0  0  0  0
   -1.2626   -0.1515   -0.1463 N   0  0  0  0  0  0  0  0  0  0  0  0
    0.0431   -0.5785   -0.5755 C   0  0  2  0  0  0  0  0  0  0  0  0
    0.4045   -1.8383    0.2002 C   0  0  0  0  0  0  0  0  0  0  0  0
   -0.4135   -2.4801    0.8560 O   0  0  0  0  0  0  0  0  0  0  0  0
    1.0812    0.5111   -0.3567 C   0  0  0  0  0  0  0  0  0  0  0  0
   -1.5766    0.7776   -0.4197 H   0  0  0  0  0  0  0  0  0  0  0  0
   -0.0364   -0.8157   -1.6420 H   0  0  0  0  0  0  0  0  0  0  0  0
    1.1749    0.7623    0.7061 H   0  0  0  0  0  0  0  0  0  0  0  0
    2.0684    0.1953   -0.7100 H   0  0  0  0  0  0  0  0  0  0  0  0
    0.8044    1.4262   -0.8913 H   0  0  0  0  0  0  0  0  0  0  0  0
    1.7587   -2.1414    0.1114 N   0  0  0  0  0  0  0  0  0  0  0  0
    2.3544   -3.2608    0.7922 C   0  0  2  0  0  0  0  0  0  0  0  0
    3.7818   -2.8805    1.1629 C   0  0  0  0  0  0  0  0  0  0  0  0
    4.4854   -2.1542    0.4640 O   0  0  0  0  0  0  0  0  0  0  0  0
    2.3323   -4.5107   -0.0738 C   0  0  0  0  0  0  0  0  0  0  0  0
    2.3538   -1.5742   -0.4892 H   0  0  0  0  0  0  0  0  0  0  0  0
    1.7704   -3.4232    1.7048 H   0  0  0  0  0  0  0  0  0  0  0  0
    2.9122   -4.3671   -0.9927 H   0  0  0  0  0  0  0  0  0  0  0  0
    2.7598   -5.3682    0.4562 H   0  0  0  0  0  0  0  0  0  0  0  0
    1.3073   -4.7657   -0.3640 H   0  0  0  0  0  0  0  0  0  0  0  0
    4.1923   -3.4824    2.3441 N   0  0  0  0  0  0  0  0  0  0  0  0
    5.5205   -3.3122    2.8853 C   0  0  0  0  0  0  0  0  0  0  0  0
    3.5300   -4.0366    2.8789 H   0  0  0  0  0  0  0  0  0  0  0  0
    6.1706   -4.1230    2.5247 H   0  0  0  0  0  0  0  0  0  0  0  0
    5.9276   -2.3436    2.5596 H   0  0  0  0  0  0  0  0  0  0  0  0
    5.4750   -3.3400    3.9840 H   0  0  0  0  0  0  0  0  0  0  0  0
  1  3  1  0  0  0  0
  1  7  1  0  0  0  0
  1  2  2  0  0  0  0
 28 29  1  0  0  0  0
 29 37  1  0  0  0  0
 29 30  2  0  0  0  0
 18 19  1  0  0  0  0
 19 27  1  0  0  0  0
 19 20  2  0  0  0  0
  8  9  1  0  0  0  0
  9 17  1  0  0  0  0
  9 10  2  0  0  0  0
 28 31  1  0  0  0  0
 18 21  1  0  0  0  0
  8 11  1  0  0  0  0
 37 38  1  0  0  0  0
 27 28  1  0  0  0  0
 17 18  1  0  0  0  0
  7  8  1  0  0  0  0
  3  4  1  0  0  0  0
  3  5  1  0  0  0  0
  3  6  1  0  0  0  0
 31 34  1  0  0  0  0
 31 35  1  0  0  0  0
 31 36  1  0  0  0  0
 21 24  1  0  0  0  0
 21 25  1  0  0  0  0
 21 26  1  0  0  0  0
 11 14  1  0  0  0  0
 11 15  1  0  0  0  0
 11 16  1  0  0  0  0
 38 40  1  0  0  0  0
 38 41  1  0  0  0  0
 38 42  1  0  0  0  0
 28 33  1  0  0  0  0
 18 23  1  0  0  0  0
  8 13  1  0  0  0  0
 37 39  1  0  0  0  0
  7 12  1  0  0  0  0
 27 32  1  0  0  0  0
 17 22  1  0  0  0  0
M  END
$$$$

  -OEChem-05262214473D

 42 41  0     1  0  0  0  0  0999 V2000
   -5.7851   -0.9580    0.6237 C   0  0  0  0  0  0  0  0  0  0  0  0
   -6.2213    0.1296    0.2652 O   0  0  0  0  0  0  0  0  0  0  0  0
   -6.7088   -2.1270    0.7168 C   0  0  0  0  0  0  0  0  0  0  0  0
   -7.1713   -2.2193    1.7126 H   0  0  0  0  0  0  0  0  0  0  0  0
   -7.5511   -2.0547    0.0101 H   0  0  0  0  0  0  0  0  0  0  0  0
   -6.2485   -3.1083    0.5191 H   0  0  0  0  0  0  0  0  0  0  0  0
   -4.4733   -1.2411    0.9668 N   0  0  0  0  0  0  0  0  0  0  0  0
   -3.4203   -0.2603    0.9449 C   0  0  2  0  0  0  0  0  0  0  0  0
   -2.1242   -0.9699    0.5759 C   0  0  0  0  0  0  0  0  0  0  0  0
   -1.8694   -2.1225    0.9189 O   0  0  0  0  0  0  0  0  0  0  0  0
   -3.2916    0.4435    2.2868 C   0  0  0  0  0  0  0  0  0  0  0  0
   -4.2421   -2.1920    1.2489 H   0  0  0  0  0  0  0  0  0  0  0  0
   -3.6772    0.4622    0.1625 H   0  0  0  0  0  0  0  0  0  0  0  0
   -3.0345   -0.2644    3.0832 H   0  0  0  0  0  0  0  0  0  0  0  0
   -2.5093    1.2092    2.2599 H   0  0  0  0  0  0  0  0  0  0  0  0
   -4.2338    0.9283    2.5645 H   0  0  0  0  0  0  0  0  0  0  0  0
   -1.2626   -0.1515   -0.1463 N   0  0  0  0  0  0  0  0  0  0  0  0
    0.0431   -0.5785   -0.5755 C   0  0  2  0  0  0  0  0  0  0  0  0
    0.4045   -1.8383    0.2002 C   0  0  0  0  0  0  0  0  0  0  0  0
   -0.4360   -2.6252    0.6307 O   0  0  0  0  0  0  0  0  0  0  0  0
    1.0812    0.5111   -0.3567 C   0  0  0  0  0  0  0  0  0  0  0  0
   -1.5766    0.7776   -0.4197 H   0  0  0  0  0  0  0  0  0  0  0  0
   -0.0364   -0.8157   -1.6420 H   0  0  0  0  0  0  0  0  0  0  0  0
    1.1749    0.7623    0.7061 H   0  0  0  0  0  0  0  0  0  0  0  0
    2.0684    0.1953   -0.7100 H   0  0  0  0  0  0  0  0  0  0  0  0
    0.8044    1.4262   -0.8913 H   0  0  0  0  0  0  0  0  0  0  0  0
    1.7758   -1.9620    0.3949 N   0  0  0  0  0  0  0  0  0  0  0  0
    2.3644   -3.0464    1.1359 C   0  0  2  0  0  0  0  0  0  0  0  0
    3.6154   -2.5196    1.8265 C   0  0  0  0  0  0  0  0  0  0  0  0
    4.3426   -1.6601    1.3330 O   0  0  0  0  0  0  0  0  0  0  0  0
    2.6980   -4.2200    0.2281 C   0  0  0  0  0  0  0  0  0  0  0  0
    2.3993   -1.2809   -0.0340 H   0  0  0  0  0  0  0  0  0  0  0  0
    1.6301   -3.3492    1.8903 H   0  0  0  0  0  0  0  0  0  0  0  0
    3.4323   -3.9357   -0.5344 H   0  0  0  0  0  0  0  0  0  0  0  0
    3.1193   -5.0549    0.7977 H   0  0  0  0  0  0  0  0  0  0  0  0
    1.8022   -4.5785   -0.2905 H   0  0  0  0  0  0  0  0  0  0  0  0
    3.8480   -3.1532    3.0392 N   0  0  0  0  0  0  0  0  0  0  0  0
    4.9963   -2.8596    3.8646 C   0  0  0  0  0  0  0  0  0  0  0  0
    3.1715   -3.8248    3.3899 H   0  0  0  0  0  0  0  0  0  0  0  0
    5.8135   -3.5530    3.6168 H   0  0  0  0  0  0  0  0  0  0  0  0
    5.3246   -1.8258    3.6815 H   0  0  0  0  0  0  0  0  0  0  0  0
    4.7254   -2.9761    4.9243 H   0  0  0  0  0  0  0  0  0  0  0  0
  1  3  1  0  0  0  0
  1  7  1  0  0  0  0
  1  2  2  0  0  0  0
 28 29  1  0  0  0  0
 29 37  1  0  0  0  0
 29 30  2  0  0  0  0
 18 19  1  0  0  0  0
 19 27  1  0  0  0  0
 19 20  2  0  0  0  0
  8  9  1  0  0  0  0
  9 17  1  0  0  0  0
  9 10  2  0  0  0  0
 28 31  1  0  0  0  0
 18 21  1  0  0  0  0
  8 11  1  0  0  0  0
 37 38  1  0  0  0  0
 27 28  1  0  0  0  0
 17 18  1  0  0  0  0
  7  8  1  0  0  0  0
  3  4  1  0  0  0  0
  3  5  1  0  0  0  0
  3  6  1  0  0  0  0
 31 34  1  0  0  0  0
 31 35  1  0  0  0  0
 31 36  1  0  0  0  0
 21 24  1  0  0  0  0
 21 25  1  0  0  0  0
 21 26  1  0  0  0  0
 11 14  1  0  0  0  0
 11 15  1  0  0  0  0
 11 16  1  0  0  0  0
 38 40  1  0  0  0  0
 38 41  1  0  0  0  0
 38 42  1  0  0  0  0
 28 33  1  0  0  0  0
 18 23  1  0  0  0  0
  8 13  1  0  0  0  0
 37 39  1  0  0  0  0
  7 12  1  0  0  0  0
 27 32  1  0  0  0  0
 17 22  1  0  0  0  0
M  END
$$$$

  -OEChem-05262214473D

 42 41  0     1  0  0  0  0  0999 V2000
   -5.7851   -0.9580    0.6237 C   0  0  0  0  0  0  0  0  0  0  0  0
   -6.2213    0.1296    0.2652 O   0  0  0  0  0  0  0  0  0  0  0  0
   -6.7088   -2.1270    0.7168 C   0  0  0  0  0  0  0  0  0  0  0  0
   -7.1713   -2.2193    1.7126 H   0  0  0  0  0  0  0  0  0  0  0  0
   -7.5511   -2.0547    0.0101 H   0  0  0  0  0  0  0  0  0  0  0  0
   -6.2485   -3.1083    0.5191 H   0  0  0  0  0  0  0  0  0  0  0  0
   -4.4733   -1.2411    0.9668 N   0  0  0  0  0  0  0  0  0  0  0  0
   -3.4203   -0.2603    0.9449 C   0  0  2  0  0  0  0  0  0  0  0  0
   -2.1242   -0.9699    0.5759 C   0  0  0  0  0  0  0  0  0  0  0  0
   -1.8694   -2.1225    0.9189 O   0  0  0  0  0  0  0  0  0  0  0  0
   -3.2916    0.4435    2.2868 C   0  0  0  0  0  0  0  0  0  0  0  0
   -4.2421   -2.1920    1.2489 H   0  0  0  0  0  0  0  0  0  0  0  0
   -3.6772    0.4622    0.1625 H   0  0  0  0  0  0  0  0  0  0  0  0
   -3.0345   -0.2644    3.0832 H   0  0  0  0  0  0  0  0  0  0  0  0
   -2.5093    1.2092    2.2599 H   0  0  0  0  0  0  0  0  0  0  0  0
   -4.2338    0.9283    2.5645 H   0  0  0  0  0  0  0  0  0  0  0  0
   -1.2626   -0.1515   -0.1463 N   0  0  0  0  0  0  0  0  0  0  0  0
    0.0431   -0.5785   -0.5755 C   0  0  2  0  0  0  0  0  0  0  0  0
    0.4045   -1.8383    0.2002 C   0  0  0  0  0  0  0  0  0  0  0  0
   -0.3904   -2.7545    0.3994 O   0  0  0  0  0  0  0  0  0  0  0  0
    1.0812    0.5111   -0.3567 C   0  0  0  0  0  0  0  0  0  0  0  0
   -1.5766    0.7776   -0.4197 H   0  0  0  0  0  0  0  0  0  0  0  0
   -0.0364   -0.8157   -1.6420 H   0  0  0  0  0  0  0  0  0  0  0  0
    1.1749    0.7623    0.7061 H   0  0  0  0  0  0  0  0  0  0  0  0
    2.0684    0.1953   -0.7100 H   0  0  0  0  0  0  0  0  0  0  0  0
    0.8044    1.4262   -0.8913 H   0  0  0  0  0  0  0  0  0  0  0  0
    1.7080   -1.8038    0.6834 N   0  0  0  0  0  0  0  0  0  0  0  0
    2.2722   -2.8590    1.4831 C   0  0  2  0  0  0  0  0  0  0  0  0
    3.2650   -2.2337    2.4541 C   0  0  0  0  0  0  0  0  0  0  0  0
    3.9534   -1.2551    2.1722 O   0  0  0  0  0  0  0  0  0  0  0  0
    2.9483   -3.9095    0.6158 C   0  0  0  0  0  0  0  0  0  0  0  0
    2.3071   -1.0195    0.4334 H   0  0  0  0  0  0  0  0  0  0  0  0
    1.4451   -3.3076    2.0440 H   0  0  0  0  0  0  0  0  0  0  0  0
    3.7797   -3.4786    0.0462 H   0  0  0  0  0  0  0  0  0  0  0  0
    3.3520   -4.7259    1.2236 H   0  0  0  0  0  0  0  0  0  0  0  0
    2.2399   -4.3369   -0.1021 H   0  0  0  0  0  0  0  0  0  0  0  0
    3.3233   -2.9233    3.6571 N   0  0  0  0  0  0  0  0  0  0  0  0
    4.2206   -2.5517    4.7261 C   0  0  0  0  0  0  0  0  0  0  0  0
    2.6879   -3.6989    3.8198 H   0  0  0  0  0  0  0  0  0  0  0  0
    5.1597   -3.1166    4.6303 H   0  0  0  0  0  0  0  0  0  0  0  0
    4.4336   -1.4740    4.6679 H   0  0  0  0  0  0  0  0  0  0  0  0
    3.7521   -2.7811    5.6945 H   0  0  0  0  0  0  0  0  0  0  0  0
  1  3  1  0  0  0  0
  1  7  1  0  0  0  0
  1  2  2  0  0  0  0
 28 29  1  0  0  0  0
 29 37  1  0  0  0  0
 29 30  2  0  0  0  0
 18 19  1  0  0  0  0
 19 27  1  0  0  0  0
 19 20  2  0  0  0  0
  8  9  1  0  0  0  0
  9 17  1  0  0  0  0
  9 10  2  0  0  0  0
 28 31  1  0  0  0  0
 18 21  1  0  0  0  0
  8 11  1  0  0  0  0
 37 38  1  0  0  0  0
 27 28  1  0  0  0  0
 17 18  1  0  0  0  0
  7  8  1  0  0  0  0
  3  4  1  0  0  0  0
  3  5  1  0  0  0  0
  3  6  1  0  0  0  0
 31 34  1  0  0  0  0
 31 35  1  0  0  0  0
 31 36  1  0  0  0  0
 21 24  1  0  0  0  0
 21 25  1  0  0  0  0
 21 26  1  0  0  0  0
 11 14  1  0  0  0  0
 11 15  1  0  0  0  0
 11 16  1  0  0  0  0
 38 40  1  0  0  0  0
 38 41  1  0  0  0  0
 38 42  1  0  0  0  0
 28 33  1  0  0  0  0
 18 23  1  0  0  0  0
  8 13  1  0  0  0  0
 37 39  1  0  0  0  0
  7 12  1  0  0  0  0
 27 32  1  0  0  0  0
 17 22  1  0  0  0  0
M  END
$$$$

  -OEChem-05262214473D

 42 41  0     1  0  0  0  0  0999 V2000
   -5.7851   -0.9580    0.6237 C   0  0  0  0  0  0  0  0  0  0  0  0
   -6.2213    0.1296    0.2652 O   0  0  0  0  0  0  0  0  0  0  0  0
   -6.7088   -2.1270    0.7168 C   0  0  0  0  0  0  0  0  0  0  0  0
   -7.1713   -2.2193    1.7126 H   0  0  0  0  0  0  0  0  0  0  0  0
   -7.5511   -2.0547    0.0101 H   0  0  0  0  0  0  0  0  0  0  0  0
   -6.2485   -3.1083    0.5191 H   0  0  0  0  0  0  0  0  0  0  0  0
   -4.4733   -1.2411    0.9668 N   0  0  0  0  0  0  0  0  0  0  0  0
   -3.4203   -0.2603    0.9449 C   0  0  2  0  0  0  0  0  0  0  0  0
   -2.1242   -0.9699    0.5759 C   0  0  0  0  0  0  0  0  0  0  0  0
   -1.8694   -2.1225    0.9189 O   0  0  0  0  0  0  0  0  0  0  0  0
   -3.2916    0.4435    2.2868 C   0  0  0  0  0  0  0  0  0  0  0  0
   -4.2421   -2.1920    1.2489 H   0  0  0  0  0  0  0  0  0  0  0  0
   -3.6772    0.4622    0.1625 H   0  0  0  0  0  0  0  0  0  0  0  0
   -3.0345   -0.2644    3.0832 H   0  0  0  0  0  0  0  0  0  0  0  0
   -2.5093    1.2092    2.2599 H   0  0  0  0  0  0  0  0  0  0  0  0
   -4.2338    0.9283    2.5645 H   0  0  0  0  0  0  0  0  0  0  0  0
   -1.2626   -0.1515   -0.1463 N   0  0  0  0  0  0  0  0  0  0  0  0
    0.0431   -0.5785   -0.5755 C   0  0  2  0  0  0  0  0  0  0  0  0
    0.4045   -1.8383    0.2002 C   0  0  0  0  0  0  0  0  0  0  0  0
   -0.2798   -2.8593    0.1778 O   0  0  0  0  0  0  0  0  0  0  0  0
    1.0812    0.5111   -0.3567 C   0  0  0  0  0  0  0  0  0  0  0  0
   -1.5766    0.7776   -0.4197 H   0  0  0  0  0  0  0  0  0  0  0  0
   -0.0364   -0.8157   -1.6420 H   0  0  0  0  0  0  0  0  0  0  0  0
    1.1749    0.7623    0.7061 H   0  0  0  0  0  0  0  0  0  0  0  0
    2.0684    0.1953   -0.7100 H   0  0  0  0  0  0  0  0  0  0  0  0
    0.8044    1.4262   -0.8913 H   0  0  0  0  0  0  0  0  0  0  0  0
    1.5598   -1.6777    0.9573 N   0  0  0  0  0  0  0  0  0  0  0  0
    2.0842   -2.7115    1.8103 C   0  0  2  0  0  0  0  0  0  0  0  0
    2.7545   -2.0423    3.0028 C   0  0  0  0  0  0  0  0  0  0  0  0
    3.3444   -0.9667    2.9243 O   0  0  0  0  0  0  0  0  0  0  0  0
    3.0661   -3.6004    1.0629 C   0  0  0  0  0  0  0  0  0  0  0  0
    2.0836   -0.8079    0.8813 H   0  0  0  0  0  0  0  0  0  0  0  0
    1.2280   -3.3013    2.1554 H   0  0  0  0  0  0  0  0  0  0  0  0
    3.9307   -3.0269    0.7094 H   0  0  0  0  0  0  0  0  0  0  0  0
    3.4423   -4.4035    1.7051 H   0  0  0  0  0  0  0  0  0  0  0  0
    2.5904   -4.0575    0.1885 H   0  0  0  0  0  0  0  0  0  0  0  0
    2.6538   -2.8083    4.1558 N   0  0  0  0  0  0  0  0  0  0  0  0
    3.2464   -2.4094    5.4110 C   0  0  0  0  0  0  0  0  0  0  0  0
    2.1121   -3.6674    4.1392 H   0  0  0  0  0  0  0  0  0  0  0  0
    4.2536   -2.8434    5.4960 H   0  0  0  0  0  0  0  0  0  0  0  0
    3.3154   -1.3123    5.4516 H   0  0  0  0  0  0  0  0  0  0  0  0
    2.6213   -2.7683    6.2420 H   0  0  0  0  0  0  0  0  0  0  0  0
  1  3  1  0  0  0  0
  1  7  1  0  0  0  0
  1  2  2  0  0  0  0
 28 29  1  0  0  0  0
 29 37  1  0  0  0  0
 29 30  2  0  0  0  0
 18 19  1  0  0  0  0
 19 27  1  0  0  0  0
 19 20  2  0  0  0  0
  8  9  1  0  0  0  0
  9 17  1  0  0  0  0
  9 10  2  0  0  0  0
 28 31  1  0  0  0  0
 18 21  1  0  0  0  0
  8 11  1  0  0  0  0
 37 38  1  0  0  0  0
 27 28  1  0  0  0  0
 17 18  1  0  0  0  0
  7  8  1  0  0  0  0
  3  4  1  0  0  0  0
  3  5  1  0  0  0  0
  3  6  1  0  0  0  0
 31 34  1  0  0  0  0
 31 35  1  0  0  0  0
 31 36  1  0  0  0  0
 21 24  1  0  0  0  0
 21 25  1  0  0  0  0
 21 26  1  0  0  0  0
 11 14  1  0  0  0  0
 11 15  1  0  0  0  0
 11 16  1  0  0  0  0
 38 40  1  0  0  0  0
 38 41  1  0  0  0  0
 38 42  1  0  0  0  0
 28 33  1  0  0  0  0
 18 23  1  0  0  0  0
  8 13  1  0  0  0  0
 37 39  1  0  0  0  0
  7 12  1  0  0  0  0
 27 32  1  0  0  0  0
 17 22  1  0  0  0  0
M  END
$$$$

  -OEChem-05262214473D

 42 41  0     1  0  0  0  0  0999 V2000
   -5.7851   -0.9580    0.6237 C   0  0  0  0  0  0  0  0  0  0  0  0
   -6.2213    0.1296    0.2652 O   0  0  0  0  0  0  0  0  0  0  0  0
   -6.7088   -2.1270    0.7168 C   0  0  0  0  0  0  0  0  0  0  0  0
   -7.1713   -2.2193    1.7126 H   0  0  0  0  0  0  0  0  0  0  0  0
   -7.5511   -2.0547    0.0101 H   0  0  0  0  0  0  0  0  0  0  0  0
   -6.2485   -3.1083    0.5191 H   0  0  0  0  0  0  0  0  0  0  0  0
   -4.4733   -1.2411    0.9668 N   0  0  0  0  0  0  0  0  0  0  0  0
   -3.4203   -0.2603    0.9449 C   0  0  2  0  0  0  0  0  0  0  0  0
   -2.1242   -0.9699    0.5759 C   0  0  0  0  0  0  0  0  0  0  0  0
   -1.8694   -2.1225    0.9189 O   0  0  0  0  0  0  0  0  0  0  0  0
   -3.2916    0.4435    2.2868 C   0  0  0  0  0  0  0  0  0  0  0  0
   -4.2421   -2.1920    1.2489 H   0  0  0  0  0  0  0  0  0  0  0  0
   -3.6772    0.4622    0.1625 H   0  0  0  0  0  0  0  0  0  0  0  0
   -3.0345   -0.2644    3.0832 H   0  0  0  0  0  0  0  0  0  0  0  0
   -2.5093    1.2092    2.2599 H   0  0  0  0  0  0  0  0  0  0  0  0
   -4.2338    0.9283    2.5645 H   0  0  0  0  0  0  0  0  0  0  0  0
   -1.2626   -0.1515   -0.1463 N   0  0  0  0  0  0  0  0  0  0  0  0
    0.0431   -0.5785   -0.5755 C   0  0  2  0  0  0  0  0  0  0  0  0
    0.4045   -1.8383    0.2002 C   0  0  0  0  0  0  0  0  0  0  0  0
   -0.1117   -2.9322   -0.0190 O   0  0  0  0  0  0  0  0  0  0  0  0
    1.0812    0.5111   -0.3567 C   0  0  0  0  0  0  0  0  0  0  0  0
   -1.5766    0.7776   -0.4197 H   0  0  0  0  0  0  0  0  0  0  0  0
   -0.0364   -0.8157   -1.6420 H   0  0  0  0  0  0  0  0  0  0  0  0
    1.1749    0.7623    0.7061 H   0  0  0  0  0  0  0  0  0  0  0  0
    2.0684    0.1953   -0.7100 H   0  0  0  0  0  0  0  0  0  0  0  0
    0.8044    1.4262   -0.8913 H   0  0  0  0  0  0  0  0  0  0  0  0
    1.3414   -1.5922    1.1979 N   0  0  0  0  0  0  0  0  0  0  0  0
    1.8130   -2.6139    2.0951 C   0  0  2  0  0  0  0  0  0  0  0  0
    2.1187   -1.9584    3.4353 C   0  0  0  0  0  0  0  0  0  0  0  0
    2.5571   -0.8146    3.5381 O   0  0  0  0  0  0  0  0  0  0  0  0
    3.0434   -3.3137    1.5391 C   0  0  0  0  0  0  0  0  0  0  0  0
    1.7438   -0.6605    1.2790 H   0  0  0  0  0  0  0  0  0  0  0  0
    0.9936   -3.3307    2.2169 H   0  0  0  0  0  0  0  0  0  0  0  0
    3.8751   -2.6115    1.4101 H   0  0  0  0  0  0  0  0  0  0  0  0
    3.3839   -4.1098    2.2094 H   0  0  0  0  0  0  0  0  0  0  0  0
    2.8299   -3.7592    0.5614 H   0  0  0  0  0  0  0  0  0  0  0  0
    1.8852   -2.8161    4.5012 N   0  0  0  0  0  0  0  0  0  0  0  0
    2.1399   -2.4424    5.8728 C   0  0  0  0  0  0  0  0  0  0  0  0
    1.4835   -3.7325    4.3263 H   0  0  0  0  0  0  0  0  0  0  0  0
    3.1570   -2.7522    6.1550 H   0  0  0  0  0  0  0  0  0  0  0  0
    2.0463   -1.3516    5.9790 H   0  0  0  0  0  0  0  0  0  0  0  0
    1.4102   -2.9387    6.5295 H   0  0  0  0  0  0  0  0  0  0  0  0
  1  3  1  0  0  0  0
  1  7  1  0  0  0  0
  1  2  2  0  0  0  0
 28 29  1  0  0  0  0
 29 37  1  0  0  0  0
 29 30  2  0  0  0  0
 18 19  1  0  0  0  0
 19 27  1  0  0  0  0
 19 20  2  0  0  0  0
  8  9  1  0  0  0  0
  9 17  1  0  0  0  0
  9 10  2  0  0  0  0
 28 31  1  0  0  0  0
 18 21  1  0  0  0  0
  8 11  1  0  0  0  0
 37 38  1  0  0  0  0
 27 28  1  0  0  0  0
 17 18  1  0  0  0  0
  7  8  1  0  0  0  0
  3  4  1  0  0  0  0
  3  5  1  0  0  0  0
  3  6  1  0  0  0  0
 31 34  1  0  0  0  0
 31 35  1  0  0  0  0
 31 36  1  0  0  0  0
 21 24  1  0  0  0  0
 21 25  1  0  0  0  0
 21 26  1  0  0  0  0
 11 14  1  0  0  0  0
 11 15  1  0  0  0  0
 11 16  1  0  0  0  0
 38 40  1  0  0  0  0
 38 41  1  0  0  0  0
 38 42  1  0  0  0  0
 28 33  1  0  0  0  0
 18 23  1  0  0  0  0
  8 13  1  0  0  0  0
 37 39  1  0  0  0  0
  7 12  1  0  0  0  0
 27 32  1  0  0  0  0
 17 22  1  0  0  0  0
M  END
$$$$

  -OEChem-05262214473D

 42 41  0     1  0  0  0  0  0999 V2000
   -5.7851   -0.9580    0.6237 C   0  0  0  0  0  0  0  0  0  0  0  0
   -6.2213    0.1296    0.2652 O   0  0  0  0  0  0  0  0  0  0  0  0
   -6.7088   -2.1270    0.7168 C   0  0  0  0  0  0  0  0  0  0  0  0
   -7.1713   -2.2193    1.7126 H   0  0  0  0  0  0  0  0  0  0  0  0
   -7.5511   -2.0547    0.0101 H   0  0  0  0  0  0  0  0  0  0  0  0
   -6.2485   -3.1083    0.5191 H   0  0  0  0  0  0  0  0  0  0  0  0
   -4.4733   -1.2411    0.9668 N   0  0  0  0  0  0  0  0  0  0  0  0
   -3.4203   -0.2603    0.9449 C   0  0  2  0  0  0  0  0  0  0  0  0
   -2.1242   -0.9699    0.5759 C   0  0  0  0  0  0  0  0  0  0  0  0
   -1.8694   -2.1225    0.9189 O   0  0  0  0  0  0  0  0  0  0  0  0
   -3.2916    0.4435    2.2868 C   0  0  0  0  0  0  0  0  0  0  0  0
   -4.2421   -2.1920    1.2489 H   0  0  0  0  0  0  0  0  0  0  0  0
   -3.6772    0.4622    0.1625 H   0  0  0  0  0  0  0  0  0  0  0  0
   -3.0345   -0.2644    3.0832 H   0  0  0  0  0  0  0  0  0  0  0  0
   -2.5093    1.2092    2.2599 H   0  0  0  0  0  0  0  0  0  0  0  0
   -4.2338    0.9283    2.5645 H   0  0  0  0  0  0  0  0  0  0  0  0
   -1.2626   -0.1515   -0.1463 N   0  0  0  0  0  0  0  0  0  0  0  0
    0.0431   -0.5785   -0.5755 C   0  0  2  0  0  0  0  0  0  0  0  0
    0.4045   -1.8383    0.2002 C   0  0  0  0  0  0  0  0  0  0  0  0
    0.1024   -2.9684   -0.1776 O   0  0  0  0  0  0  0  0  0  0  0  0
    1.0812    0.5111   -0.3567 C   0  0  0  0  0  0  0  0  0  0  0  0
   -1.5766    0.7776   -0.4197 H   0  0  0  0  0  0  0  0  0  0  0  0
   -0.0364   -0.8157   -1.6420 H   0  0  0  0  0  0  0  0  0  0  0  0
    1.1749    0.7623    0.7061 H   0  0  0  0  0  0  0  0  0  0  0  0
    2.0684    0.1953   -0.7100 H   0  0  0  0  0  0  0  0  0  0  0  0
    0.8044    1.4262   -0.8913 H   0  0  0  0  0  0  0  0  0  0  0  0
    1.0677   -1.5532    1.3887 N   0  0  0  0  0  0  0  0  0  0  0  0
    1.4772   -2.5729    2.3181 C   0  0  2  0  0  0  0  0  0  0  0  0
    1.4009   -1.9877    3.7221 C   0  0  0  0  0  0  0  0  0  0  0  0
    1.6452   -0.8091    3.9718 O   0  0  0  0  0  0  0  0  0  0  0  0
    2.8817   -3.0691    2.0117 C   0  0  0  0  0  0  0  0  0  0  0  0
    1.3111   -0.5873    1.5994 H   0  0  0  0  0  0  0  0  0  0  0  0
    0.7578   -3.3937    2.2243 H   0  0  0  0  0  0  0  0  0  0  0  0
    3.6165   -2.2606    2.1005 H   0  0  0  0  0  0  0  0  0  0  0  0
    3.1809   -3.8648    2.7019 H   0  0  0  0  0  0  0  0  0  0  0  0
    2.9421   -3.4624    0.9912 H   0  0  0  0  0  0  0  0  0  0  0  0
    1.0699   -2.9462    4.6697 N   0  0  0  0  0  0  0  0  0  0  0  0
    0.9766   -2.6486    6.0800 C   0  0  0  0  0  0  0  0  0  0  0  0
    0.8447   -3.8897    4.3685 H   0  0  0  0  0  0  0  0  0  0  0  0
    1.9447   -2.8491    6.5624 H   0  0  0  0  0  0  0  0  0  0  0  0
    0.7126   -1.5892    6.2144 H   0  0  0  0  0  0  0  0  0  0  0  0
    0.2012   -3.2806    6.5374 H   0  0  0  0  0  0  0  0  0  0  0  0
  1  3  1  0  0  0  0
  1  7  1  0  0  0  0
  1  2  2  0  0  0  0
 28 29  1  0  0  0  0
 29 37  1  0  0  0  0
 29 30  2  0  0  0  0
 18 19  1  0  0  0  0
 19 27  1  0  0  0  0
 19 20  2  0  0  0  0
  8  9  1  0  0  0  0
  9 17  1  0  0  0  0
  9 10  2  0  0  0  0
 28 31  1  0  0  0  0
 18 21  1  0  0  0  0
  8 11  1  0  0  0  0
 37 38  1  0  0  0  0
 27 28  1  0  0  0  0
 17 18  1  0  0  0  0
  7  8  1  0  0  0  0
  3  4  1  0  0  0  0
  3  5  1  0  0  0  0
  3  6  1  0  0  0  0
 31 34  1  0  0  0  0
 31 35  1  0  0  0  0
 31 36  1  0  0  0  0
 21 24  1  0  0  0  0
 21 25  1  0  0  0  0
 21 26  1  0  0  0  0
 11 14  1  0  0  0  0
 11 15  1  0  0  0  0
 11 16  1  0  0  0  0
 38 40  1  0  0  0  0
 38 41  1  0  0  0  0
 38 42  1  0  0  0  0
 28 33  1  0  0  0  0
 18 23  1  0  0  0  0
  8 13  1  0  0  0  0
 37 39  1  0  0  0  0
  7 12  1  0  0  0  0
 27 32  1  0  0  0  0
 17 22  1  0  0  0  0
M  END
$$$$

  -OEChem-05262214473D

 42 41  0     1  0  0  0  0  0999 V2000
   -5.7851   -0.9580    0.6237 C   0  0  0  0  0  0  0  0  0  0  0  0
   -6.2213    0.1296    0.2652 O   0  0  0  0  0  0  0  0  0  0  0  0
   -6.7088   -2.1270    0.7168 C   0  0  0  0  0  0  0  0  0  0  0  0
   -7.1713   -2.2193    1.7126 H   0  0  0  0  0  0  0  0  0  0  0  0
   -7.5511   -2.0547    0.0101 H   0  0  0  0  0  0  0  0  0  0  0  0
   -6.2485   -3.1083    0.5191 H   0  0  0  0  0  0  0  0  0  0  0  0
   -4.4733   -1.2411    0.9668 N   0  0  0  0  0  0  0  0  0  0  0  0
   -3.4203   -0.2603    0.9449 C   0  0  2  0  0  0  0  0  0  0  0  0
   -2.1242   -0.9699    0.5759 C   0  0  0  0  0  0  0  0  0  0  0  0
   -1.8694   -2.1225    0.9189 O   0  0  0  0  0  0  0  0  0  0  0  0
   -3.2916    0.4435    2.2868 C   0  0  0  0  0  0  0  0  0  0  0  0
   -4.2421   -2.1920    1.2489 H   0  0  0  0  0  0  0  0  0  0  0  0
   -3.6772    0.4622    0.1625 H   0  0  0  0  0  0  0  0  0  0  0  0
   -3.0345   -0.2644    3.0832 H   0  0  0  0  0  0  0  0  0  0  0  0
   -2.5093    1.2092    2.2599 H   0  0  0  0  0  0  0  0  0  0  0  0
   -4.2338    0.9283    2.5645 H   0  0  0  0  0  0  0  0  0  0  0  0
   -1.2626   -0.1515   -0.1463 N   0  0  0  0  0  0  0  0  0  0  0  0
    0.0431   -0.5785   -0.5755 C   0  0  2  0  0  0  0  0  0  0  0  0
    0.4045   -1.8383    0.2002 C   0  0  0  0  0  0  0  0  0  0  0  0
    0.3480   -2.9654   -0.2871 O   0  0  0  0  0  0  0  0  0  0  0  0
    1.0812    0.5111   -0.3567 C   0  0  0  0  0  0  0  0  0  0  0  0
   -1.5766    0.7776   -0.4197 H   0  0  0  0  0  0  0  0  0  0  0  0
   -0.0364   -0.8157   -1.6420 H   0  0  0  0  0  0  0  0  0  0  0  0
    1.1749    0.7623    0.7061 H   0  0  0  0  0  0  0  0  0  0  0  0
    2.0684    0.1953   -0.7100 H   0  0  0  0  0  0  0  0  0  0  0  0
    0.8044    1.4262   -0.8913 H   0  0  0  0  0  0  0  0  0  0  0  0
    0.7573   -1.5633    1.5169 N   0  0  0  0  0  0  0  0  0  0  0  0
    1.0998   -2.5913    2.4642 C   0  0  2  0  0  0  0  0  0  0  0  0
    0.6500   -2.1283    3.8436 C   0  0  0  0  0  0  0  0  0  0  0  0
    0.6708   -0.9507    4.1958 O   0  0  0  0  0  0  0  0  0  0  0  0
    2.5922   -2.8831    2.4486 C   0  0  0  0  0  0  0  0  0  0  0  0
    0.8148   -0.5933    1.8208 H   0  0  0  0  0  0  0  0  0  0  0  0
    0.5369   -3.4861    2.1772 H   0  0  0  0  0  0  0  0  0  0  0  0
    3.1726   -1.9981    2.7336 H   0  0  0  0  0  0  0  0  0  0  0  0
    2.8469   -3.6851    3.1493 H   0  0  0  0  0  0  0  0  0  0  0  0
    2.9194   -3.1873    1.4485 H   0  0  0  0  0  0  0  0  0  0  0  0
    0.2634   -3.1896    4.6500 N   0  0  0  0  0  0  0  0  0  0  0  0
   -0.1642   -3.0138    6.0183 C   0  0  0  0  0  0  0  0  0  0  0  0
    0.2394   -4.1284    4.2629 H   0  0  0  0  0  0  0  0  0  0  0  0
    0.6992   -3.1276    6.6903 H   0  0  0  0  0  0  0  0  0  0  0  0
   -0.5946   -2.0090    6.1416 H   0  0  0  0  0  0  0  0  0  0  0  0
   -0.9232   -3.7707    6.2653 H   0  0  0  0  0  0  0  0  0  0  0  0
  1  3  1  0  0  0  0
  1  7  1  0  0  0  0
  1  2  2  0  0  0  0
 28 29  1  0  0  0  0
 29 37  1  0  0  0  0
 29 30  2  0  0  0  0
 18 19  1  0  0  0  0
 19 27  1  0  0  0  0
 19 20  2  0  0  0  0
  8  9  1  0  0  0  0
  9 17  1  0  0  0  0
  9 10  2  0  0  0  0
 28 31  1  0  0  0  0
 18 21  1  0  0  0  0
  8 11  1  0  0  0  0
 37 38  1  0  0  0  0
 27 28  1  0  0  0  0
 17 18  1  0  0  0  0
  7  8  1  0  0  0  0
  3  4  1  0  0  0  0
  3  5  1  0  0  0  0
  3  6  1  0  0  0  0
 31 34  1  0  0  0  0
 31 35  1  0  0  0  0
 31 36  1  0  0  0  0
 21 24  1  0  0  0  0
 21 25  1  0  0  0  0
 21 26  1  0  0  0  0
 11 14  1  0  0  0  0
 11 15  1  0  0  0  0
 11 16  1  0  0  0  0
 38 40  1  0  0  0  0
 38 41  1  0  0  0  0
 38 42  1  0  0  0  0
 28 33  1  0  0  0  0
 18 23  1  0  0  0  0
  8 13  1  0  0  0  0
 37 39  1  0  0  0  0
  7 12  1  0  0  0  0
 27 32  1  0  0  0  0
 17 22  1  0  0  0  0
M  END
$$$$

  -OEChem-05262214473D

 42 41  0     1  0  0  0  0  0999 V2000
   -5.7851   -0.9580    0.6237 C   0  0  0  0  0  0  0  0  0  0  0  0
   -6.2213    0.1296    0.2652 O   0  0  0  0  0  0  0  0  0  0  0  0
   -6.7088   -2.1270    0.7168 C   0  0  0  0  0  0  0  0  0  0  0  0
   -7.1713   -2.2193    1.7126 H   0  0  0  0  0  0  0  0  0  0  0  0
   -7.5511   -2.0547    0.0101 H   0  0  0  0  0  0  0  0  0  0  0  0
   -6.2485   -3.1083    0.5191 H   0  0  0  0  0  0  0  0  0  0  0  0
   -4.4733   -1.2411    0.9668 N   0  0  0  0  0  0  0  0  0  0  0  0
   -3.4203   -0.2603    0.9449 C   0  0  2  0  0  0  0  0  0  0  0  0
   -2.1242   -0.9699    0.5759 C   0  0  0  0  0  0  0  0  0  0  0  0
   -1.8694   -2.1225    0.9189 O   0  0  0  0  0  0  0  0  0  0  0  0
   -3.2916    0.4435    2.2868 C   0  0  0  0  0  0  0  0  0  0  0  0
   -4.2421   -2.1920    1.2489 H   0  0  0  0  0  0  0  0  0  0  0  0
   -3.6772    0.4622    0.1625 H   0  0  0  0  0  0  0  0  0  0  0  0
   -3.0345   -0.2644    3.0832 H   0  0  0  0  0  0  0  0  0  0  0  0
   -2.5093    1.2092    2.2599 H   0  0  0  0  0  0  0  0  0  0  0  0
   -4.2338    0.9283    2.5645 H   0  0  0  0  0  0  0  0  0  0  0  0
   -1.2626   -0.1515   -0.1463 N   0  0  0  0  0  0  0  0  0  0  0  0
    0.0431   -0.5785   -0.5755 C   0  0  2  0  0  0  0  0  0  0  0  0
    0.4045   -1.8383    0.2002 C   0  0  0  0  0  0  0  0  0  0  0  0
    0.6083   -2.9235   -0.3402 O   0  0  0  0  0  0  0  0  0  0  0  0
    1.0812    0.5111   -0.3567 C   0  0  0  0  0  0  0  0  0  0  0  0
   -1.5766    0.7776   -0.4197 H   0  0  0  0  0  0  0  0  0  0  0  0
   -0.0364   -0.8157   -1.6420 H   0  0  0  0  0  0  0  0  0  0  0  0
    1.1749    0.7623    0.7061 H   0  0  0  0  0  0  0  0  0  0  0  0
    2.0684    0.1953   -0.7100 H   0  0  0  0  0  0  0  0  0  0  0  0
    0.8044    1.4262   -0.8913 H   0  0  0  0  0  0  0  0  0  0  0  0
    0.4314   -1.6219    1.5736 N   0  0  0  0  0  0  0  0  0  0  0  0
    0.7063   -2.6677    2.5234 C   0  0  2  0  0  0  0  0  0  0  0  0
   -0.0828   -2.3705    3.7916 C   0  0  0  0  0  0  0  0  0  0  0  0
   -0.2997   -1.2297    4.1948 O   0  0  0  0  0  0  0  0  0  0  0  0
    2.1944   -2.7685    2.8201 C   0  0  0  0  0  0  0  0  0  0  0  0
    0.2889   -0.6782    1.9281 H   0  0  0  0  0  0  0  0  0  0  0  0
    0.3457   -3.6016    2.0786 H   0  0  0  0  0  0  0  0  0  0  0  0
    2.5738   -1.8419    3.2662 H   0  0  0  0  0  0  0  0  0  0  0  0
    2.4049   -3.5831    3.5210 H   0  0  0  0  0  0  0  0  0  0  0  0
    2.7632   -2.9527    1.9024 H   0  0  0  0  0  0  0  0  0  0  0  0
   -0.4793   -3.5299    4.4433 N   0  0  0  0  0  0  0  0  0  0  0  0
   -1.2048   -3.5131    5.6921 C   0  0  0  0  0  0  0  0  0  0  0  0
   -0.2912   -4.4322    4.0166 H   0  0  0  0  0  0  0  0  0  0  0  0
   -0.4945   -3.5686    6.5302 H   0  0  0  0  0  0  0  0  0  0  0  0
   -1.7865   -2.5824    5.7656 H   0  0  0  0  0  0  0  0  0  0  0  0
   -1.8864   -4.3756    5.7316 H   0  0  0  0  0  0  0  0  0  0  0  0
  1  3  1  0  0  0  0
  1  7  1  0  0  0  0
  1  2  2  0  0  0  0
 28 29  1  0  0  0  0
 29 37  1  0  0  0  0
 29 30  2  0  0  0  0
 18 19  1  0  0  0  0
 19 27  1  0  0  0  0
 19 20  2  0  0  0  0
  8  9  1  0  0  0  0
  9 17  1  0  0  0  0
  9 10  2  0  0  0  0
 28 31  1  0  0  0  0
 18 21  1  0  0  0  0
  8 11  1  0  0  0  0
 37 38  1  0  0  0  0
 27 28  1  0  0  0  0
 17 18  1  0  0  0  0
  7  8  1  0  0  0  0
  3  4  1  0  0  0  0
  3  5  1  0  0  0  0
  3  6  1  0  0  0  0
 31 34  1  0  0  0  0
 31 35  1  0  0  0  0
 31 36  1  0  0  0  0
 21 24  1  0  0  0  0
 21 25  1  0  0  0  0
 21 26  1  0  0  0  0
 11 14  1  0  0  0  0
 11 15  1  0  0  0  0
 11 16  1  0  0  0  0
 38 40  1  0  0  0  0
 38 41  1  0  0  0  0
 38 42  1  0  0  0  0
 28 33  1  0  0  0  0
 18 23  1  0  0  0  0
  8 13  1  0  0  0  0
 37 39  1  0  0  0  0
  7 12  1  0  0  0  0
 27 32  1  0  0  0  0
 17 22  1  0  0  0  0
M  END
$$$$

  -OEChem-05262214473D

 42 41  0     1  0  0  0  0  0999 V2000
   -5.7851   -0.9580    0.6237 C   0  0  0  0  0  0  0  0  0  0  0  0
   -6.2213    0.1296    0.2652 O   0  0  0  0  0  0  0  0  0  0  0  0
   -6.7088   -2.1270    0.7168 C   0  0  0  0  0  0  0  0  0  0  0  0
   -7.1713   -2.2193    1.7126 H   0  0  0  0  0  0  0  0  0  0  0  0
   -7.5511   -2.0547    0.0101 H   0  0  0  0  0  0  0  0  0  0  0  0
   -6.2485   -3.1083    0.5191 H   0  0  0  0  0  0  0  0  0  0  0  0
   -4.4733   -1.2411    0.9668 N   0  0  0  0  0  0  0  0  0  0  0  0
   -3.4203   -0.2603    0.9449 C   0  0  2  0  0  0  0  0  0  0  0  0
   -2.1242   -0.9699    0.5759 C   0  0  0  0  0  0  0  0  0  0  0  0
   -1.8694   -2.1225    0.9189 O   0  0  0  0  0  0  0  0  0  0  0  0
   -3.2916    0.4435    2.2868 C   0  0  0  0  0  0  0  0  0  0  0  0
   -4.2421   -2.1920    1.2489 H   0  0  0  0  0  0  0  0  0  0  0  0
   -3.6772    0.4622    0.1625 H   0  0  0  0  0  0  0  0  0  0  0  0
   -3.0345   -0.2644    3.0832 H   0  0  0  0  0  0  0  0  0  0  0  0
   -2.5093    1.2092    2.2599 H   0  0  0  0  0  0  0  0  0  0  0  0
   -4.2338    0.9283    2.5645 H   0  0  0  0  0  0  0  0  0  0  0  0
   -1.2626   -0.1515   -0.1463 N   0  0  0  0  0  0  0  0  0  0  0  0
    0.0431   -0.5785   -0.5755 C   0  0  2  0  0  0  0  0  0  0  0  0
    0.4045   -1.8383    0.2002 C   0  0  0  0  0  0  0  0  0  0  0  0
    0.8655   -2.8453   -0.3332 O   0  0  0  0  0  0  0  0  0  0  0  0
    1.0812    0.5111   -0.3567 C   0  0  0  0  0  0  0  0  0  0  0  0
   -1.5766    0.7776   -0.4197 H   0  0  0  0  0  0  0  0  0  0  0  0
   -0.0364   -0.8157   -1.6420 H   0  0  0  0  0  0  0  0  0  0  0  0
    1.1749    0.7623    0.7061 H   0  0  0  0  0  0  0  0  0  0  0  0
    2.0684    0.1953   -0.7100 H   0  0  0  0  0  0  0  0  0  0  0  0
    0.8044    1.4262   -0.8913 H   0  0  0  0  0  0  0  0  0  0  0  0
    0.1122   -1.7249    1.5550 N   0  0  0  0  0  0  0  0  0  0  0  0
    0.3236   -2.7970    2.4916 C   0  0  2  0  0  0  0  0  0  0  0  0
   -0.7475   -2.6979    3.5696 C   0  0  0  0  0  0  0  0  0  0  0  0
   -1.2002   -1.6270    3.9690 O   0  0  0  0  0  0  0  0  0  0  0  0
    1.7156   -2.7330    3.1008 C   0  0  0  0  0  0  0  0  0  0  0  0
   -0.2309   -0.8360    1.9138 H   0  0  0  0  0  0  0  0  0  0  0  0
    0.1974   -3.7323    1.9354 H   0  0  0  0  0  0  0  0  0  0  0  0
    1.8607   -1.8027    3.6621 H   0  0  0  0  0  0  0  0  0  0  0  0
    1.8850   -3.5656    3.7916 H   0  0  0  0  0  0  0  0  0  0  0  0
    2.4843   -2.7745    2.3217 H   0  0  0  0  0  0  0  0  0  0  0  0
   -1.1075   -3.9438    4.0638 N   0  0  0  0  0  0  0  0  0  0  0  0
   -2.0743   -4.1126    5.1235 C   0  0  0  0  0  0  0  0  0  0  0  0
   -0.7109   -4.7806    3.6464 H   0  0  0  0  0  0  0  0  0  0  0  0
   -1.5551   -4.1421    6.0929 H   0  0  0  0  0  0  0  0  0  0  0  0
   -2.7816   -3.2702    5.1120 H   0  0  0  0  0  0  0  0  0  0  0  0
   -2.6228   -5.0541    4.9727 H   0  0  0  0  0  0  0  0  0  0  0  0
  1  3  1  0  0  0  0
  1  7  1  0  0  0  0
  1  2  2  0  0  0  0
 28 29  1  0  0  0  0
 29 37  1  0  0  0  0
 29 30  2  0  0  0  0
 18 19  1  0  0  0  0
 19 27  1  0  0  0  0
 19 20  2  0  0  0  0
  8  9  1  0  0  0  0
  9 17  1  0  0  0  0
  9 10  2  0  0  0  0
 28 31  1  0  0  0  0
 18 21  1  0  0  0  0
  8 11  1  0  0  0  0
 37 38  1  0  0  0  0
 27 28  1  0  0  0  0
 17 18  1  0  0  0  0
  7  8  1  0  0  0  0
  3  4  1  0  0  0  0
  3  5  1  0  0  0  0
  3  6  1  0  0  0  0
 31 34  1  0  0  0  0
 31 35  1  0  0  0  0
 31 36  1  0  0  0  0
 21 24  1  0  0  0  0
 21 25  1  0  0  0  0
 21 26  1  0  0  0  0
 11 14  1  0  0  0  0
 11 15  1  0  0  0  0
 11 16  1  0  0  0  0
 38 40  1  0  0  0  0
 38 41  1  0  0  0  0
 38 42  1  0  0  0  0
 28 33  1  0  0  0  0
 18 23  1  0  0  0  0
  8 13  1  0  0  0  0
 37 39  1  0  0  0  0
  7 12  1  0  0  0  0
 27 32  1  0  0  0  0
 17 22  1  0  0  0  0
M  END
$$$$

  -OEChem-05262214473D

 42 41  0     1  0  0  0  0  0999 V2000
   -5.7851   -0.9580    0.6237 C   0  0  0  0  0  0  0  0  0  0  0  0
   -6.2213    0.1296    0.2652 O   0  0  0  0  0  0  0  0  0  0  0  0
   -6.7088   -2.1270    0.7168 C   0  0  0  0  0  0  0  0  0  0  0  0
   -7.1713   -2.2193    1.7126 H   0  0  0  0  0  0  0  0  0  0  0  0
   -7.5511   -2.0547    0.0101 H   0  0  0  0  0  0  0  0  0  0  0  0
   -6.2485   -3.1083    0.5191 H   0  0  0  0  0  0  0  0  0  0  0  0
   -4.4733   -1.2411    0.9668 N   0  0  0  0  0  0  0  0  0  0  0  0
   -3.4203   -0.2603    0.9449 C   0  0  2  0  0  0  0  0  0  0  0  0
   -2.1242   -0.9699    0.5759 C   0  0  0  0  0  0  0  0  0  0  0  0
   -1.8694   -2.1225    0.9189 O   0  0  0  0  0  0  0  0  0  0  0  0
   -3.2916    0.4435    2.2868 C   0  0  0  0  0  0  0  0  0  0  0  0
   -4.2421   -2.1920    1.2489 H   0  0  0  0  0  0  0  0  0  0  0  0
   -3.6772    0.4622    0.1625 H   0  0  0  0  0  0  0  0  0  0  0  0
   -3.0345   -0.2644    3.0832 H   0  0  0  0  0  0  0  0  0  0  0  0
   -2.5093    1.2092    2.2599 H   0  0  0  0  0  0  0  0  0  0  0  0
   -4.2338    0.9283    2.5645 H   0  0  0  0  0  0  0  0  0  0  0  0
   -1.2626   -0.1515   -0.1463 N   0  0  0  0  0  0  0  0  0  0  0  0
    0.0431   -0.5785   -0.5755 C   0  0  2  0  0  0  0  0  0  0  0  0
    0.4045   -1.8383    0.2002 C   0  0  0  0  0  0  0  0  0  0  0  0
    1.1021   -2.7364   -0.2665 O   0  0  0  0  0  0  0  0  0  0  0  0
    1.0812    0.5111   -0.3567 C   0  0  0  0  0  0  0  0  0  0  0  0
   -1.5766    0.7776   -0.4197 H   0  0  0  0  0  0  0  0  0  0  0  0
   -0.0364   -0.8157   -1.6420 H   0  0  0  0  0  0  0  0  0  0  0  0
    1.1749    0.7623    0.7061 H   0  0  0  0  0  0  0  0  0  0  0  0
    2.0684    0.1953   -0.7100 H   0  0  0  0  0  0  0  0  0  0  0  0
    0.8044    1.4262   -0.8913 H   0  0  0  0  0  0  0  0  0  0  0  0
   -0.1786   -1.8654    1.4623 N   0  0  0  0  0  0  0  0  0  0  0  0
   -0.0221   -2.9704    2.3710 C   0  0  2  0  0  0  0  0  0  0  0  0
   -1.2990   -3.0881    3.1928 C   0  0  0  0  0  0  0  0  0  0  0  0
   -1.9692   -2.1156    3.5337 O   0  0  0  0  0  0  0  0  0  0  0  0
    1.1882   -2.7791    3.2716 C   0  0  0  0  0  0  0  0  0  0  0  0
   -0.7091   -1.0562    1.7791 H   0  0  0  0  0  0  0  0  0  0  0  0
    0.1020   -3.8694    1.7573 H   0  0  0  0  0  0  0  0  0  0  0  0
    1.0820   -1.8832    3.8942 H   0  0  0  0  0  0  0  0  0  0  0  0
    1.3225   -3.6339    3.9428 H   0  0  0  0  0  0  0  0  0  0  0  0
    2.1016   -2.6649    2.6780 H   0  0  0  0  0  0  0  0  0  0  0  0
   -1.5786   -4.4031    3.5373 N   0  0  0  0  0  0  0  0  0  0  0  0
   -2.7134   -4.7713    4.3513 C   0  0  0  0  0  0  0  0  0  0  0  0
   -0.9911   -5.1496    3.1776 H   0  0  0  0  0  0  0  0  0  0  0  0
   -2.4104   -4.8090    5.4081 H   0  0  0  0  0  0  0  0  0  0  0  0
   -3.5122   -4.0257    4.2254 H   0  0  0  0  0  0  0  0  0  0  0  0
   -3.0822   -5.7599    4.0403 H   0  0  0  0  0  0  0  0  0  0  0  0
  1  3  1  0  0  0  0
  1  7  1  0  0  0  0
  1  2  2  0  0  0  0
 28 29  1  0  0  0  0
 29 37  1  0  0  0  0
 29 30  2  0  0  0  0
 18 19  1  0  0  0  0
 19 27  1  0  0  0  0
 19 20  2  0  0  0  0
  8  9  1  0  0  0  0
  9 17  1  0  0  0  0
  9 10  2  0  0  0  0
 28 31  1  0  0  0  0
 18 21  1  0  0  0  0
  8 11  1  0  0  0  0
 37 38  1  0  0  0  0
 27 28  1  0  0  0  0
 17 18  1  0  0  0  0
  7  8  1  0  0  0  0
  3  4  1  0  0  0  0
  3  5  1  0  0  0  0
  3  6  1  0  0  0  0
 31 34  1  0  0  0  0
 31 35  1  0  0  0  0
 31 36  1  0  0  0  0
 21 24  1  0  0  0  0
 21 25  1  0  0  0  0
 21 26  1  0  0  0  0
 11 14  1  0  0  0  0
 11 15  1  0  0  0  0
 11 16  1  0  0  0  0
 38 40  1  0  0  0  0
 38 41  1  0  0  0  0
 38 42  1  0  0  0  0
 28 33  1  0  0  0  0
 18 23  1  0  0  0  0
  8 13  1  0  0  0  0
 37 39  1  0  0  0  0
  7 12  1  0  0  0  0
 27 32  1  0  0  0  0
 17 22  1  0  0  0  0
M  END
$$$$

  -OEChem-05262214473D

 42 41  0     1  0  0  0  0  0999 V2000
   -5.7851   -0.9580    0.6237 C   0  0  0  0  0  0  0  0  0  0  0  0
   -6.2213    0.1296    0.2652 O   0  0  0  0  0  0  0  0  0  0  0  0
   -6.7088   -2.1270    0.7168 C   0  0  0  0  0  0  0  0  0  0  0  0
   -7.1713   -2.2193    1.7126 H   0  0  0  0  0  0  0  0  0  0  0  0
   -7.5511   -2.0547    0.0101 H   0  0  0  0  0  0  0  0  0  0  0  0
   -6.2485   -3.1083    0.5191 H   0  0  0  0  0  0  0  0  0  0  0  0
   -4.4733   -1.2411    0.9668 N   0  0  0  0  0  0  0  0  0  0  0  0
   -3.4203   -0.2603    0.9449 C   0  0  2  0  0  0  0  0  0  0  0  0
   -2.1242   -0.9699    0.5759 C   0  0  0  0  0  0  0  0  0  0  0  0
   -1.8694   -2.1225    0.9189 O   0  0  0  0  0  0  0  0  0  0  0  0
   -3.2916    0.4435    2.2868 C   0  0  0  0  0  0  0  0  0  0  0  0
   -4.2421   -2.1920    1.2489 H   0  0  0  0  0  0  0  0  0  0  0  0
   -3.6772    0.4622    0.1625 H   0  0  0  0  0  0  0  0  0  0  0  0
   -3.0345   -0.2644    3.0832 H   0  0  0  0  0  0  0  0  0  0  0  0
   -2.5093    1.2092    2.2599 H   0  0  0  0  0  0  0  0  0  0  0  0
   -4.2338    0.9283    2.5645 H   0  0  0  0  0  0  0  0  0  0  0  0
   -1.2626   -0.1515   -0.1463 N   0  0  0  0  0  0  0  0  0  0  0  0
    0.0431   -0.5785   -0.5755 C   0  0  2  0  0  0  0  0  0  0  0  0
    0.4045   -1.8383    0.2002 C   0  0  0  0  0  0  0  0  0  0  0  0
    1.3021   -2.6041   -0.1447 O   0  0  0  0  0  0  0  0  0  0  0  0
    1.0812    0.5111   -0.3567 C   0  0  0  0  0  0  0  0  0  0  0  0
   -1.5766    0.7776   -0.4197 H   0  0  0  0  0  0  0  0  0  0  0  0
   -0.0364   -0.8157   -1.6420 H   0  0  0  0  0  0  0  0  0  0  0  0
    1.1749    0.7623    0.7061 H   0  0  0  0  0  0  0  0  0  0  0  0
    2.0684    0.1953   -0.7100 H   0  0  0  0  0  0  0  0  0  0  0  0
    0.8044    1.4262   -0.8913 H   0  0  0  0  0  0  0  0  0  0  0  0
   -0.4211   -2.0337    1.3020 N   0  0  0  0  0  0  0  0  0  0  0  0
   -0.3074   -3.1761    2.1698 C   0  0  2  0  0  0  0  0  0  0  0  0
   -1.6995   -3.5145    2.6867 C   0  0  0  0  0  0  0  0  0  0  0  0
   -2.5545   -2.6623    2.9185 O   0  0  0  0  0  0  0  0  0  0  0  0
    0.6484   -2.9036    3.3209 C   0  0  0  0  0  0  0  0  0  0  0  0
   -1.1132   -1.3236    1.5330 H   0  0  0  0  0  0  0  0  0  0  0  0
    0.0661   -4.0033    1.5565 H   0  0  0  0  0  0  0  0  0  0  0  0
    0.2908   -2.0778    3.9467 H   0  0  0  0  0  0  0  0  0  0  0  0
    0.7558   -3.7832    3.9641 H   0  0  0  0  0  0  0  0  0  0  0  0
    1.6413   -2.6314    2.9469 H   0  0  0  0  0  0  0  0  0  0  0  0
   -1.8603   -4.8765    2.8997 N   0  0  0  0  0  0  0  0  0  0  0  0
   -3.0785   -5.4445    3.4282 C   0  0  0  0  0  0  0  0  0  0  0  0
   -1.1128   -5.5142    2.6421 H   0  0  0  0  0  0  0  0  0  0  0  0
   -3.0020   -5.5239    4.5227 H   0  0  0  0  0  0  0  0  0  0  0  0
   -3.9285   -4.7972    3.1662 H   0  0  0  0  0  0  0  0  0  0  0  0
   -3.2333   -6.4450    2.9980 H   0  0  0  0  0  0  0  0  0  0  0  0
  1  3  1  0  0  0  0
  1  7  1  0  0  0  0
  1  2  2  0  0  0  0
 28 29  1  0  0  0  0
 29 37  1  0  0  0  0
 29 30  2  0  0  0  0
 18 19  1  0  0  0  0
 19 27  1  0  0  0  0
 19 20  2  0  0  0  0
  8  9  1  0  0  0  0
  9 17  1  0  0  0  0
  9 10  2  0  0  0  0
 28 31  1  0  0  0  0
 18 21  1  0  0  0  0
  8 11  1  0  0  0  0
 37 38  1  0  0  0  0
 27 28  1  0  0  0  0
 17 18  1  0  0  0  0
  7  8  1  0  0  0  0
  3  4  1  0  0  0  0
  3  5  1  0  0  0  0
  3  6  1  0  0  0  0
 31 34  1  0  0  0  0
 31 35  1  0  0  0  0
 31 36  1  0  0  0  0
 21 24  1  0  0  0  0
 21 25  1  0  0  0  0
 21 26  1  0  0  0  0
 11 14  1  0  0  0  0
 11 15  1  0  0  0  0
 11 16  1  0  0  0  0
 38 40  1  0  0  0  0
 38 41  1  0  0  0  0
 38 42  1  0  0  0  0
 28 33  1  0  0  0  0
 18 23  1  0  0  0  0
  8 13  1  0  0  0  0
 37 39  1  0  0  0  0
  7 12  1  0  0  0  0
 27 32  1  0  0  0  0
 17 22  1  0  0  0  0
M  END
$$$$

  -OEChem-05262214473D

 42 41  0     1  0  0  0  0  0999 V2000
   -5.7851   -0.9580    0.6237 C   0  0  0  0  0  0  0  0  0  0  0  0
   -6.2213    0.1296    0.2652 O   0  0  0  0  0  0  0  0  0  0  0  0
   -6.7088   -2.1270    0.7168 C   0  0  0  0  0  0  0  0  0  0  0  0
   -7.1713   -2.2193    1.7126 H   0  0  0  0  0  0  0  0  0  0  0  0
   -7.5511   -2.0547    0.0101 H   0  0  0  0  0  0  0  0  0  0  0  0
   -6.2485   -3.1083    0.5191 H   0  0  0  0  0  0  0  0  0  0  0  0
   -4.4733   -1.2411    0.9668 N   0  0  0  0  0  0  0  0  0  0  0  0
   -3.4203   -0.2603    0.9449 C   0  0  2  0  0  0  0  0  0  0  0  0
   -2.1242   -0.9699    0.5759 C   0  0  0  0  0  0  0  0  0  0  0  0
   -1.8694   -2.1225    0.9189 O   0  0  0  0  0  0  0  0  0  0  0  0
   -3.2916    0.4435    2.2868 C   0  0  0  0  0  0  0  0  0  0  0  0
   -4.2421   -2.1920    1.2489 H   0  0  0  0  0  0  0  0  0  0  0  0
   -3.6772    0.4622    0.1625 H   0  0  0  0  0  0  0  0  0  0  0  0
   -3.0345   -0.2644    3.0832 H   0  0  0  0  0  0  0  0  0  0  0  0
   -2.5093    1.2092    2.2599 H   0  0  0  0  0  0  0  0  0  0  0  0
   -4.2338    0.9283    2.5645 H   0  0  0  0  0  0  0  0  0  0  0  0
   -1.2626   -0.1515   -0.1463 N   0  0  0  0  0  0  0  0  0  0  0  0
    0.0431   -0.5785   -0.5755 C   0  0  2  0  0  0  0  0  0  0  0  0
    0.4045   -1.8383    0.2002 C   0  0  0  0  0  0  0  0  0  0  0  0
    1.4517   -2.4574    0.0238 O   0  0  0  0  0  0  0  0  0  0  0  0
    1.0812    0.5111   -0.3567 C   0  0  0  0  0  0  0  0  0  0  0  0
   -1.5766    0.7776   -0.4197 H   0  0  0  0  0  0  0  0  0  0  0  0
   -0.0364   -0.8157   -1.6420 H   0  0  0  0  0  0  0  0  0  0  0  0
    1.1749    0.7623    0.7061 H   0  0  0  0  0  0  0  0  0  0  0  0
    2.0684    0.1953   -0.7100 H   0  0  0  0  0  0  0  0  0  0  0  0
    0.8044    1.4262   -0.8913 H   0  0  0  0  0  0  0  0  0  0  0  0
   -0.5989   -2.2184    1.0848 N   0  0  0  0  0  0  0  0  0  0  0  0
   -0.5128   -3.4001    1.9018 C   0  0  2  0  0  0  0  0  0  0  0  0
   -1.9218   -3.9482    2.0860 C   0  0  0  0  0  0  0  0  0  0  0  0
   -2.9160   -3.2296    2.1654 O   0  0  0  0  0  0  0  0  0  0  0  0
    0.1328   -3.0981    3.2452 C   0  0  0  0  0  0  0  0  0  0  0  0
   -1.4156   -1.6200    1.1924 H   0  0  0  0  0  0  0  0  0  0  0  0
    0.0921   -4.1251    1.3465 H   0  0  0  0  0  0  0  0  0  0  0  0
   -0.4591   -2.3733    3.8160 H   0  0  0  0  0  0  0  0  0  0  0  0
    0.2235   -4.0036    3.8543 H   0  0  0  0  0  0  0  0  0  0  0  0
    1.1346   -2.6762    3.1101 H   0  0  0  0  0  0  0  0  0  0  0  0
   -1.9335   -5.3317    2.1944 N   0  0  0  0  0  0  0  0  0  0  0  0
   -3.1449   -6.0861    2.4170 C   0  0  0  0  0  0  0  0  0  0  0  0
   -1.0676   -5.8495    2.0764 H   0  0  0  0  0  0  0  0  0  0  0  0
   -3.2896   -6.2380    3.4968 H   0  0  0  0  0  0  0  0  0  0  0  0
   -4.0021   -5.5323    2.0066 H   0  0  0  0  0  0  0  0  0  0  0  0
   -3.0657   -7.0626    1.9168 H   0  0  0  0  0  0  0  0  0  0  0  0
  1  3  1  0  0  0  0
  1  7  1  0  0  0  0
  1  2  2  0  0  0  0
 28 29  1  0  0  0  0
 29 37  1  0  0  0  0
 29 30  2  0  0  0  0
 18 19  1  0  0  0  0
 19 27  1  0  0  0  0
 19 20  2  0  0  0  0
  8  9  1  0  0  0  0
  9 17  1  0  0  0  0
  9 10  2  0  0  0  0
 28 31  1  0  0  0  0
 18 21  1  0  0  0  0
  8 11  1  0  0  0  0
 37 38  1  0  0  0  0
 27 28  1  0  0  0  0
 17 18  1  0  0  0  0
  7  8  1  0  0  0  0
  3  4  1  0  0  0  0
  3  5  1  0  0  0  0
  3  6  1  0  0  0  0
 31 34  1  0  0  0  0
 31 35  1  0  0  0  0
 31 36  1  0  0  0  0
 21 24  1  0  0  0  0
 21 25  1  0  0  0  0
 21 26  1  0  0  0  0
 11 14  1  0  0  0  0
 11 15  1  0  0  0  0
 11 16  1  0  0  0  0
 38 40  1  0  0  0  0
 38 41  1  0  0  0  0
 38 42  1  0  0  0  0
 28 33  1  0  0  0  0
 18 23  1  0  0  0  0
  8 13  1  0  0  0  0
 37 39  1  0  0  0  0
  7 12  1  0  0  0  0
 27 32  1  0  0  0  0
 17 22  1  0  0  0  0
M  END
$$$$

  -OEChem-05262214473D

 42 41  0     1  0  0  0  0  0999 V2000
   -5.7851   -0.9580    0.6237 C   0  0  0  0  0  0  0  0  0  0  0  0
   -6.2213    0.1296    0.2652 O   0  0  0  0  0  0  0  0  0  0  0  0
   -6.7088   -2.1270    0.7168 C   0  0  0  0  0  0  0  0  0  0  0  0
   -7.1713   -2.2193    1.7126 H   0  0  0  0  0  0  0  0  0  0  0  0
   -7.5511   -2.0547    0.0101 H   0  0  0  0  0  0  0  0  0  0  0  0
   -6.2485   -3.1083    0.5191 H   0  0  0  0  0  0  0  0  0  0  0  0
   -4.4733   -1.2411    0.9668 N   0  0  0  0  0  0  0  0  0  0  0  0
   -3.4203   -0.2603    0.9449 C   0  0  2  0  0  0  0  0  0  0  0  0
   -2.1242   -0.9699    0.5759 C   0  0  0  0  0  0  0  0  0  0  0  0
   -1.8694   -2.1225    0.9189 O   0  0  0  0  0  0  0  0  0  0  0  0
   -3.2916    0.4435    2.2868 C   0  0  0  0  0  0  0  0  0  0  0  0
   -4.2421   -2.1920    1.2489 H   0  0  0  0  0  0  0  0  0  0  0  0
   -3.6772    0.4622    0.1625 H   0  0  0  0  0  0  0  0  0  0  0  0
   -3.0345   -0.2644    3.0832 H   0  0  0  0  0  0  0  0  0  0  0  0
   -2.5093    1.2092    2.2599 H   0  0  0  0  0  0  0  0  0  0  0  0
   -4.2338    0.9283    2.5645 H   0  0  0  0  0  0  0  0  0  0  0  0
   -1.2626   -0.1515   -0.1463 N   0  0  0  0  0  0  0  0  0  0  0  0
    0.0431   -0.5785   -0.5755 C   0  0  2  0  0  0  0  0  0  0  0  0
    0.4045   -1.8383    0.2002 C   0  0  0  0  0  0  0  0  0  0  0  0
    1.5408   -2.3063    0.2277 O   0  0  0  0  0  0  0  0  0  0  0  0
    1.0812    0.5111   -0.3567 C   0  0  0  0  0  0  0  0  0  0  0  0
   -1.5766    0.7776   -0.4197 H   0  0  0  0  0  0  0  0  0  0  0  0
   -0.0364   -0.8157   -1.6420 H   0  0  0  0  0  0  0  0  0  0  0  0
    1.1749    0.7623    0.7061 H   0  0  0  0  0  0  0  0  0  0  0  0
    2.0684    0.1953   -0.7100 H   0  0  0  0  0  0  0  0  0  0  0  0
    0.8044    1.4262   -0.8913 H   0  0  0  0  0  0  0  0  0  0  0  0
   -0.6997   -2.4069    0.8256 N   0  0  0  0  0  0  0  0  0  0  0  0
   -0.6243   -3.6270    1.5852 C   0  0  2  0  0  0  0  0  0  0  0  0
   -1.9507   -4.3594    1.4315 C   0  0  0  0  0  0  0  0  0  0  0  0
   -3.0292   -3.7791    1.3258 O   0  0  0  0  0  0  0  0  0  0  0  0
   -0.3234   -3.3493    3.0498 C   0  0  0  0  0  0  0  0  0  0  0  0
   -1.5956   -1.9253    0.7805 H   0  0  0  0  0  0  0  0  0  0  0  0
    0.1782   -4.2265    1.1418 H   0  0  0  0  0  0  0  0  0  0  0  0
   -1.1165   -2.7496    3.5112 H   0  0  0  0  0  0  0  0  0  0  0  0
   -0.2380   -4.2798    3.6207 H   0  0  0  0  0  0  0  0  0  0  0  0
    0.6161   -2.7963    3.1566 H   0  0  0  0  0  0  0  0  0  0  0  0
   -1.7932   -5.7378    1.4695 N   0  0  0  0  0  0  0  0  0  0  0  0
   -2.9079   -6.6525    1.3866 C   0  0  0  0  0  0  0  0  0  0  0  0
   -0.8587   -6.1328    1.5190 H   0  0  0  0  0  0  0  0  0  0  0  0
   -3.2536   -6.9027    2.4005 H   0  0  0  0  0  0  0  0  0  0  0  0
   -3.7281   -6.1809    0.8256 H   0  0  0  0  0  0  0  0  0  0  0  0
   -2.5910   -7.5707    0.8704 H   0  0  0  0  0  0  0  0  0  0  0  0
  1  3  1  0  0  0  0
  1  7  1  0  0  0  0
  1  2  2  0  0  0  0
 28 29  1  0  0  0  0
 29 37  1  0  0  0  0
 29 30  2  0  0  0  0
 18 19  1  0  0  0  0
 19 27  1  0  0  0  0
 19 20  2  0  0  0  0
  8  9  1  0  0  0  0
  9 17  1  0  0  0  0
  9 10  2  0  0  0  0
 28 31  1  0  0  0  0
 18 21  1  0  0  0  0
  8 11  1  0  0  0  0
 37 38  1  0  0  0  0
 27 28  1  0  0  0  0
 17 18  1  0  0  0  0
  7  8  1  0  0  0  0
  3  4  1  0  0  0  0
  3  5  1  0  0  0  0
  3  6  1  0  0  0  0
 31 34  1  0  0  0  0
 31 35  1  0  0  0  0
 31 36  1  0  0  0  0
 21 24  1  0  0  0  0
 21 25  1  0  0  0  0
 21 26  1  0  0  0  0
 11 14  1  0  0  0  0
 11 15  1  0  0  0  0
 11 16  1  0  0  0  0
 38 40  1  0  0  0  0
 38 41  1  0  0  0  0
 38 42  1  0  0  0  0
 28 33  1  0  0  0  0
 18 23  1  0  0  0  0
  8 13  1  0  0  0  0
 37 39  1  0  0  0  0
  7 12  1  0  0  0  0
 27 32  1  0  0  0  0
 17 22  1  0  0  0  0
M  END
$$$$

  -OEChem-05262214473D

 42 41  0     1  0  0  0  0  0999 V2000
   -5.7851   -0.9580    0.6237 C   0  0  0  0  0  0  0  0  0  0  0  0
   -6.2213    0.1296    0.2652 O   0  0  0  0  0  0  0  0  0  0  0  0
   -6.7088   -2.1270    0.7168 C   0  0  0  0  0  0  0  0  0  0  0  0
   -7.1713   -2.2193    1.7126 H   0  0  0  0  0  0  0  0  0  0  0  0
   -7.5511   -2.0547    0.0101 H   0  0  0  0  0  0  0  0  0  0  0  0
   -6.2485   -3.1083    0.5191 H   0  0  0  0  0  0  0  0  0  0  0  0
   -4.4733   -1.2411    0.9668 N   0  0  0  0  0  0  0  0  0  0  0  0
   -3.4203   -0.2603    0.9449 C   0  0  2  0  0  0  0  0  0  0  0  0
   -2.1242   -0.9699    0.5759 C   0  0  0  0  0  0  0  0  0  0  0  0
   -1.8694   -2.1225    0.9189 O   0  0  0  0  0  0  0  0  0  0  0  0
   -3.2916    0.4435    2.2868 C   0  0  0  0  0  0  0  0  0  0  0  0
   -4.2421   -2.1920    1.2489 H   0  0  0  0  0  0  0  0  0  0  0  0
   -3.6772    0.4622    0.1625 H   0  0  0  0  0  0  0  0  0  0  0  0
   -3.0345   -0.2644    3.0832 H   0  0  0  0  0  0  0  0  0  0  0  0
   -2.5093    1.2092    2.2599 H   0  0  0  0  0  0  0  0  0  0  0  0
   -4.2338    0.9283    2.5645 H   0  0  0  0  0  0  0  0  0  0  0  0
   -1.2626   -0.1515   -0.1463 N   0  0  0  0  0  0  0  0  0  0  0  0
    0.0431   -0.5785   -0.5755 C   0  0  2  0  0  0  0  0  0  0  0  0
    0.4045   -1.8383    0.2002 C   0  0  0  0  0  0  0  0  0  0  0  0
    1.5633   -2.1612    0.4529 O   0  0  0  0  0  0  0  0  0  0  0  0
    1.0812    0.5111   -0.3567 C   0  0  0  0  0  0  0  0  0  0  0  0
   -1.5766    0.7776   -0.4197 H   0  0  0  0  0  0  0  0  0  0  0  0
   -0.0364   -0.8157   -1.6420 H   0  0  0  0  0  0  0  0  0  0  0  0
    1.1749    0.7623    0.7061 H   0  0  0  0  0  0  0  0  0  0  0  0
    2.0684    0.1953   -0.7100 H   0  0  0  0  0  0  0  0  0  0  0  0
    0.8044    1.4262   -0.8913 H   0  0  0  0  0  0  0  0  0  0  0  0
   -0.7168   -2.5863    0.5421 N   0  0  0  0  0  0  0  0  0  0  0  0
   -0.6343   -3.8414    1.2416 C   0  0  2  0  0  0  0  0  0  0  0  0
   -1.7843   -4.7203    0.7678 C   0  0  0  0  0  0  0  0  0  0  0  0
   -2.8863   -4.2731    0.4568 O   0  0  0  0  0  0  0  0  0  0  0  0
   -0.6890   -3.6400    2.7480 C   0  0  0  0  0  0  0  0  0  0  0  0
   -1.6411   -2.2186    0.3253 H   0  0  0  0  0  0  0  0  0  0  0  0
    0.3185   -4.3005    0.9563 H   0  0  0  0  0  0  0  0  0  0  0  0
   -1.6366   -3.1810    3.0528 H   0  0  0  0  0  0  0  0  0  0  0  0
   -0.5975   -4.5931    3.2793 H   0  0  0  0  0  0  0  0  0  0  0  0
    0.1212   -2.9835    3.0831 H   0  0  0  0  0  0  0  0  0  0  0  0
   -1.4489   -6.0670    0.7744 N   0  0  0  0  0  0  0  0  0  0  0  0
   -2.3837   -7.1051    0.4073 C   0  0  0  0  0  0  0  0  0  0  0  0
   -0.5002   -6.3446    1.0080 H   0  0  0  0  0  0  0  0  0  0  0  0
   -2.8966   -7.4727    1.3084 H   0  0  0  0  0  0  0  0  0  0  0  0
   -3.1250   -6.6987   -0.2963 H   0  0  0  0  0  0  0  0  0  0  0  0
   -1.8414   -7.9346   -0.0699 H   0  0  0  0  0  0  0  0  0  0  0  0
  1  3  1  0  0  0  0
  1  7  1  0  0  0  0
  1  2  2  0  0  0  0
 28 29  1  0  0  0  0
 29 37  1  0  0  0  0
 29 30  2  0  0  0  0
 18 19  1  0  0  0  0
 19 27  1  0  0  0  0
 19 20  2  0  0  0  0
  8  9  1  0  0  0  0
  9 17  1  0  0  0  0
  9 10  2  0  0  0  0
 28 31  1  0  0  0  0
 18 21  1  0  0  0  0
  8 11  1  0  0  0  0
 37 38  1  0  0  0  0
 27 28  1  0  0  0  0
 17 18  1  0  0  0  0
  7  8  1  0  0  0  0
  3  4  1  0  0  0  0
  3  5  1  0  0  0  0
  3  6  1  0  0  0  0
 31 34  1  0  0  0  0
 31 35  1  0  0  0  0
 31 36  1  0  0  0  0
 21 24  1  0  0  0  0
 21 25  1  0  0  0  0
 21 26  1  0  0  0  0
 11 14  1  0  0  0  0
 11 15  1  0  0  0  0
 11 16  1  0  0  0  0
 38 40  1  0  0  0  0
 38 41  1  0  0  0  0
 38 42  1  0  0  0  0
 28 33  1  0  0  0  0
 18 23  1  0  0  0  0
  8 13  1  0  0  0  0
 37 39  1  0  0  0  0
  7 12  1  0  0  0  0
 27 32  1  0  0  0  0
 17 22  1  0  0  0  0
M  END
$$$$

  -OEChem-05262214473D

 42 41  0     1  0  0  0  0  0999 V2000
   -5.7851   -0.9580    0.6237 C   0  0  0  0  0  0  0  0  0  0  0  0
   -6.2213    0.1296    0.2652 O   0  0  0  0  0  0  0  0  0  0  0  0
   -6.7088   -2.1270    0.7168 C   0  0  0  0  0  0  0  0  0  0  0  0
   -7.1713   -2.2193    1.7126 H   0  0  0  0  0  0  0  0  0  0  0  0
   -7.5511   -2.0547    0.0101 H   0  0  0  0  0  0  0  0  0  0  0  0
   -6.2485   -3.1083    0.5191 H   0  0  0  0  0  0  0  0  0  0  0  0
   -4.4733   -1.2411    0.9668 N   0  0  0  0  0  0  0  0  0  0  0  0
   -3.4203   -0.2603    0.9449 C   0  0  2  0  0  0  0  0  0  0  0  0
   -2.1242   -0.9699    0.5759 C   0  0  0  0  0  0  0  0  0  0  0  0
   -1.8694   -2.1225    0.9189 O   0  0  0  0  0  0  0  0  0  0  0  0
   -3.2916    0.4435    2.2868 C   0  0  0  0  0  0  0  0  0  0  0  0
   -4.2421   -2.1920    1.2489 H   0  0  0  0  0  0  0  0  0  0  0  0
   -3.6772    0.4622    0.1625 H   0  0  0  0  0  0  0  0  0  0  0  0
   -3.0345   -0.2644    3.0832 H   0  0  0  0  0  0  0  0  0  0  0  0
   -2.5093    1.2092    2.2599 H   0  0  0  0  0  0  0  0  0  0  0  0
   -4.2338    0.9283    2.5645 H   0  0  0  0  0  0  0  0  0  0  0  0
   -1.2626   -0.1515   -0.1463 N   0  0  0  0  0  0  0  0  0  0  0  0
    0.0431   -0.5785   -0.5755 C   0  0  2  0  0  0  0  0  0  0  0  0
    0.4045   -1.8383    0.2002 C   0  0  0  0  0  0  0  0  0  0  0  0
    1.5177   -2.0318    0.6842 O   0  0  0  0  0  0  0  0  0  0  0  0
    1.0812    0.5111   -0.3567 C   0  0  0  0  0  0  0  0  0  0  0  0
   -1.5766    0.7776   -0.4197 H   0  0  0  0  0  0  0  0  0  0  0  0
   -0.0364   -0.8157   -1.6420 H   0  0  0  0  0  0  0  0  0  0  0  0
    1.1749    0.7623    0.7061 H   0  0  0  0  0  0  0  0  0  0  0  0
    2.0684    0.1953   -0.7100 H   0  0  0  0  0  0  0  0  0  0  0  0
    0.8044    1.4262   -0.8913 H   0  0  0  0  0  0  0  0  0  0  0  0
   -0.6490   -2.7445    0.2536 N   0  0  0  0  0  0  0  0  0  0  0  0
   -0.5422   -4.0288    0.8944 C   0  0  2  0  0  0  0  0  0  0  0  0
   -1.4340   -5.0062    0.1402 C   0  0  0  0  0  0  0  0  0  0  0  0
   -2.4971   -4.6782   -0.3824 O   0  0  0  0  0  0  0  0  0  0  0  0
   -0.9393   -3.9505    2.3603 C   0  0  0  0  0  0  0  0  0  0  0  0
   -1.5490   -2.4800   -0.1421 H   0  0  0  0  0  0  0  0  0  0  0  0
    0.5035   -4.3420    0.8026 H   0  0  0  0  0  0  0  0  0  0  0  0
   -1.9840   -3.6381    2.4723 H   0  0  0  0  0  0  0  0  0  0  0  0
   -0.8302   -4.9221    2.8533 H   0  0  0  0  0  0  0  0  0  0  0  0
   -0.3164   -3.2251    2.8946 H   0  0  0  0  0  0  0  0  0  0  0  0
   -0.9242   -6.2970    0.1564 N   0  0  0  0  0  0  0  0  0  0  0  0
   -1.6080   -7.4130   -0.4541 C   0  0  0  0  0  0  0  0  0  0  0  0
   -0.0166   -6.4705    0.5782 H   0  0  0  0  0  0  0  0  0  0  0  0
   -2.2427   -7.9091    0.2949 H   0  0  0  0  0  0  0  0  0  0  0  0
   -2.2341   -7.0504   -1.2827 H   0  0  0  0  0  0  0  0  0  0  0  0
   -0.8681   -8.1296   -0.8401 H   0  0  0  0  0  0  0  0  0  0  0  0
  1  3  1  0  0  0  0
  1  7  1  0  0  0  0
  1  2  2  0  0  0  0
 28 29  1  0  0  0  0
 29 37  1  0  0  0  0
 29 30  2  0  0  0  0
 18 19  1  0  0  0  0
 19 27  1  0  0  0  0
 19 20  2  0  0  0  0
  8  9  1  0  0  0  0
  9 17  1  0  0  0  0
  9 10  2  0  0  0  0
 28 31  1  0  0  0  0
 18 21  1  0  0  0  0
  8 11  1  0  0  0  0
 37 38  1  0  0  0  0
 27 28  1  0  0  0  0
 17 18  1  0  0  0  0
  7  8  1  0  0  0  0
  3  4  1  0  0  0  0
  3  5  1  0  0  0  0
  3  6  1  0  0  0  0
 31 34  1  0  0  0  0
 31 35  1  0  0  0  0
 31 36  1  0  0  0  0
 21 24  1  0  0  0  0
 21 25  1  0  0  0  0
 21 26  1  0  0  0  0
 11 14  1  0  0  0  0
 11 15  1  0  0  0  0
 11 16  1  0  0  0  0
 38 40  1  0  0  0  0
 38 41  1  0  0  0  0
 38 42  1  0  0  0  0
 28 33  1  0  0  0  0
 18 23  1  0  0  0  0
  8 13  1  0  0  0  0
 37 39  1  0  0  0  0
  7 12  1  0  0  0  0
 27 32  1  0  0  0  0
 17 22  1  0  0  0  0
M  END
$$$$

  -OEChem-05262214473D

 42 41  0     1  0  0  0  0  0999 V2000
   -5.7851   -0.9580    0.6237 C   0  0  0  0  0  0  0  0  0  0  0  0
   -6.2213    0.1296    0.2652 O   0  0  0  0  0  0  0  0  0  0  0  0
   -6.7088   -2.1270    0.7168 C   0  0  0  0  0  0  0  0  0  0  0  0
   -7.1713   -2.2193    1.7126 H   0  0  0  0  0  0  0  0  0  0  0  0
   -7.5511   -2.0547    0.0101 H   0  0  0  0  0  0  0  0  0  0  0  0
   -6.2485   -3.1083    0.5191 H   0  0  0  0  0  0  0  0  0  0  0  0
   -4.4733   -1.2411    0.9668 N   0  0  0  0  0  0  0  0  0  0  0  0
   -3.4203   -0.2603    0.9449 C   0  0  2  0  0  0  0  0  0  0  0  0
   -2.1242   -0.9699    0.5759 C   0  0  0  0  0  0  0  0  0  0  0  0
   -1.8694   -2.1225    0.9189 O   0  0  0  0  0  0  0  0  0  0  0  0
   -3.2916    0.4435    2.2868 C   0  0  0  0  0  0  0  0  0  0  0  0
   -4.2421   -2.1920    1.2489 H   0  0  0  0  0  0  0  0  0  0  0  0
   -3.6772    0.4622    0.1625 H   0  0  0  0  0  0  0  0  0  0  0  0
   -3.0345   -0.2644    3.0832 H   0  0  0  0  0  0  0  0  0  0  0  0
   -2.5093    1.2092    2.2599 H   0  0  0  0  0  0  0  0  0  0  0  0
   -4.2338    0.9283    2.5645 H   0  0  0  0  0  0  0  0  0  0  0  0
   -1.2626   -0.1515   -0.1463 N   0  0  0  0  0  0  0  0  0  0  0  0
    0.0431   -0.5785   -0.5755 C   0  0  2  0  0  0  0  0  0  0  0  0
    0.4045   -1.8383    0.2002 C   0  0  0  0  0  0  0  0  0  0  0  0
    1.4071   -1.9271    0.9058 O   0  0  0  0  0  0  0  0  0  0  0  0
    1.0812    0.5111   -0.3567 C   0  0  0  0  0  0  0  0  0  0  0  0
   -1.5766    0.7776   -0.4197 H   0  0  0  0  0  0  0  0  0  0  0  0
   -0.0364   -0.8157   -1.6420 H   0  0  0  0  0  0  0  0  0  0  0  0
    1.1749    0.7623    0.7061 H   0  0  0  0  0  0  0  0  0  0  0  0
    2.0684    0.1953   -0.7100 H   0  0  0  0  0  0  0  0  0  0  0  0
    0.8044    1.4262   -0.8913 H   0  0  0  0  0  0  0  0  0  0  0  0
   -0.5008   -2.8706   -0.0203 N   0  0  0  0  0  0  0  0  0  0  0  0
   -0.3541   -4.1763    0.5672 C   0  0  2  0  0  0  0  0  0  0  0  0
   -0.9235   -5.1977   -0.4085 C   0  0  0  0  0  0  0  0  0  0  0  0
   -1.8881   -4.9666   -1.1345 O   0  0  0  0  0  0  0  0  0  0  0  0
   -1.0571   -4.2596    1.9131 C   0  0  0  0  0  0  0  0  0  0  0  0
   -1.3254   -2.6916   -0.5900 H   0  0  0  0  0  0  0  0  0  0  0  0
    0.7206   -4.3484    0.6912 H   0  0  0  0  0  0  0  0  0  0  0  0
   -2.1350   -4.0898    1.8090 H   0  0  0  0  0  0  0  0  0  0  0  0
   -0.9205   -5.2445    2.3718 H   0  0  0  0  0  0  0  0  0  0  0  0
   -0.6669   -3.5045    2.6041 H   0  0  0  0  0  0  0  0  0  0  0  0
   -0.2547   -6.4120   -0.3422 N   0  0  0  0  0  0  0  0  0  0  0  0
   -0.6338   -7.5553   -1.1391 C   0  0  0  0  0  0  0  0  0  0  0  0
    0.5592   -6.5020    0.2588 H   0  0  0  0  0  0  0  0  0  0  0  0
   -1.3366   -8.1822   -0.5708 H   0  0  0  0  0  0  0  0  0  0  0  0
   -1.1159   -7.2122   -2.0664 H   0  0  0  0  0  0  0  0  0  0  0  0
    0.2627   -8.1424   -1.3875 H   0  0  0  0  0  0  0  0  0  0  0  0
  1  3  1  0  0  0  0
  1  7  1  0  0  0  0
  1  2  2  0  0  0  0
 28 29  1  0  0  0  0
 29 37  1  0  0  0  0
 29 30  2  0  0  0  0
 18 19  1  0  0  0  0
 19 27  1  0  0  0  0
 19 20  2  0  0  0  0
  8  9  1  0  0  0  0
  9 17  1  0  0  0  0
  9 10  2  0  0  0  0
 28 31  1  0  0  0  0
 18 21  1  0  0  0  0
  8 11  1  0  0  0  0
 37 38  1  0  0  0  0
 27 28  1  0  0  0  0
 17 18  1  0  0  0  0
  7  8  1  0  0  0  0
  3  4  1  0  0  0  0
  3  5  1  0  0  0  0
  3  6  1  0  0  0  0
 31 34  1  0  0  0  0
 31 35  1  0  0  0  0
 31 36  1  0  0  0  0
 21 24  1  0  0  0  0
 21 25  1  0  0  0  0
 21 26  1  0  0  0  0
 11 14  1  0  0  0  0
 11 15  1  0  0  0  0
 11 16  1  0  0  0  0
 38 40  1  0  0  0  0
 38 41  1  0  0  0  0
 38 42  1  0  0  0  0
 28 33  1  0  0  0  0
 18 23  1  0  0  0  0
  8 13  1  0  0  0  0
 37 39  1  0  0  0  0
  7 12  1  0  0  0  0
 27 32  1  0  0  0  0
 17 22  1  0  0  0  0
M  END
$$$$

  -OEChem-05262214473D

 42 41  0     1  0  0  0  0  0999 V2000
   -5.7851   -0.9580    0.6237 C   0  0  0  0  0  0  0  0  0  0  0  0
   -6.2213    0.1296    0.2652 O   0  0  0  0  0  0  0  0  0  0  0  0
   -6.7088   -2.1270    0.7168 C   0  0  0  0  0  0  0  0  0  0  0  0
   -7.1713   -2.2193    1.7126 H   0  0  0  0  0  0  0  0  0  0  0  0
   -7.5511   -2.0547    0.0101 H   0  0  0  0  0  0  0  0  0  0  0  0
   -6.2485   -3.1083    0.5191 H   0  0  0  0  0  0  0  0  0  0  0  0
   -4.4733   -1.2411    0.9668 N   0  0  0  0  0  0  0  0  0  0  0  0
   -3.4203   -0.2603    0.9449 C   0  0  2  0  0  0  0  0  0  0  0  0
   -2.1242   -0.9699    0.5759 C   0  0  0  0  0  0  0  0  0  0  0  0
   -1.8694   -2.1225    0.9189 O   0  0  0  0  0  0  0  0  0  0  0  0
   -3.2916    0.4435    2.2868 C   0  0  0  0  0  0  0  0  0  0  0  0
   -4.2421   -2.1920    1.2489 H   0  0  0  0  0  0  0  0  0  0  0  0
   -3.6772    0.4622    0.1625 H   0  0  0  0  0  0  0  0  0  0  0  0
   -3.0345   -0.2644    3.0832 H   0  0  0  0  0  0  0  0  0  0  0  0
   -2.5093    1.2092    2.2599 H   0  0  0  0  0  0  0  0  0  0  0  0
   -4.2338    0.9283    2.5645 H   0  0  0  0  0  0  0  0  0  0  0  0
   -1.2626   -0.1515   -0.1463 N   0  0  0  0  0  0  0  0  0  0  0  0
    0.0431   -0.5785   -0.5755 C   0  0  2  0  0  0  0  0  0  0  0  0
    0.4045   -1.8383    0.2002 C   0  0  0  0  0  0  0  0  0  0  0  0
    1.2390   -1.8542    1.1026 O   0  0  0  0  0  0  0  0  0  0  0  0
    1.0812    0.5111   -0.3567 C   0  0  0  0  0  0  0  0  0  0  0  0
   -1.5766    0.7776   -0.4197 H   0  0  0  0  0  0  0  0  0  0  0  0
   -0.0364   -0.8157   -1.6420 H   0  0  0  0  0  0  0  0  0  0  0  0
    1.1749    0.7623    0.7061 H   0  0  0  0  0  0  0  0  0  0  0  0
    2.0684    0.1953   -0.7100 H   0  0  0  0  0  0  0  0  0  0  0  0
    0.8044    1.4262   -0.8913 H   0  0  0  0  0  0  0  0  0  0  0  0
   -0.2824   -2.9561   -0.2608 N   0  0  0  0  0  0  0  0  0  0  0  0
   -0.0829   -4.2738    0.2824 C   0  0  2  0  0  0  0  0  0  0  0  0
   -0.2876   -5.2816   -0.8410 C   0  0  0  0  0  0  0  0  0  0  0  0
   -1.1009   -5.1187   -1.7483 O   0  0  0  0  0  0  0  0  0  0  0  0
   -1.0345   -4.5462    1.4370 C   0  0  0  0  0  0  0  0  0  0  0  0
   -0.9857   -2.8390   -0.9877 H   0  0  0  0  0  0  0  0  0  0  0  0
    0.9550   -4.3190    0.6297 H   0  0  0  0  0  0  0  0  0  0  0  0
   -2.0793   -4.5052    1.1083 H   0  0  0  0  0  0  0  0  0  0  0  0
   -0.8621   -5.5382    1.8676 H   0  0  0  0  0  0  0  0  0  0  0  0
   -0.9065   -3.8028    2.2312 H   0  0  0  0  0  0  0  0  0  0  0  0
    0.5139   -6.4042   -0.6876 N   0  0  0  0  0  0  0  0  0  0  0  0
    0.4727   -7.5222   -1.6009 C   0  0  0  0  0  0  0  0  0  0  0  0
    1.1879   -6.4369    0.0716 H   0  0  0  0  0  0  0  0  0  0  0  0
   -0.2400   -8.2734   -1.2298 H   0  0  0  0  0  0  0  0  0  0  0  0
    0.1532   -7.1729   -2.5938 H   0  0  0  0  0  0  0  0  0  0  0  0
    1.4738   -7.9720   -1.6751 H   0  0  0  0  0  0  0  0  0  0  0  0
  1  3  1  0  0  0  0
  1  7  1  0  0  0  0
  1  2  2  0  0  0  0
 28 29  1  0  0  0  0
 29 37  1  0  0  0  0
 29 30  2  0  0  0  0
 18 19  1  0  0  0  0
 19 27  1  0  0  0  0
 19 20  2  0  0  0  0
  8  9  1  0  0  0  0
  9 17  1  0  0  0  0
  9 10  2  0  0  0  0
 28 31  1  0  0  0  0
 18 21  1  0  0  0  0
  8 11  1  0  0  0  0
 37 38  1  0  0  0  0
 27 28  1  0  0  0  0
 17 18  1  0  0  0  0
  7  8  1  0  0  0  0
  3  4  1  0  0  0  0
  3  5  1  0  0  0  0
  3  6  1  0  0  0  0
 31 34  1  0  0  0  0
 31 35  1  0  0  0  0
 31 36  1  0  0  0  0
 21 24  1  0  0  0  0
 21 25  1  0  0  0  0
 21 26  1  0  0  0  0
 11 14  1  0  0  0  0
 11 15  1  0  0  0  0
 11 16  1  0  0  0  0
 38 40  1  0  0  0  0
 38 41  1  0  0  0  0
 38 42  1  0  0  0  0
 28 33  1  0  0  0  0
 18 23  1  0  0  0  0
  8 13  1  0  0  0  0
 37 39  1  0  0  0  0
  7 12  1  0  0  0  0
 27 32  1  0  0  0  0
 17 22  1  0  0  0  0
M  END
$$$$

  -OEChem-05262214473D

 42 41  0     1  0  0  0  0  0999 V2000
   -5.7851   -0.9580    0.6237 C   0  0  0  0  0  0  0  0  0  0  0  0
   -6.2213    0.1296    0.2652 O   0  0  0  0  0  0  0  0  0  0  0  0
   -6.7088   -2.1270    0.7168 C   0  0  0  0  0  0  0  0  0  0  0  0
   -7.1713   -2.2193    1.7126 H   0  0  0  0  0  0  0  0  0  0  0  0
   -7.5511   -2.0547    0.0101 H   0  0  0  0  0  0  0  0  0  0  0  0
   -6.2485   -3.1083    0.5191 H   0  0  0  0  0  0  0  0  0  0  0  0
   -4.4733   -1.2411    0.9668 N   0  0  0  0  0  0  0  0  0  0  0  0
   -3.4203   -0.2603    0.9449 C   0  0  2  0  0  0  0  0  0  0  0  0
   -2.1242   -0.9699    0.5759 C   0  0  0  0  0  0  0  0  0  0  0  0
   -1.8694   -2.1225    0.9189 O   0  0  0  0  0  0  0  0  0  0  0  0
   -3.2916    0.4435    2.2868 C   0  0  0  0  0  0  0  0  0  0  0  0
   -4.2421   -2.1920    1.2489 H   0  0  0  0  0  0  0  0  0  0  0  0
   -3.6772    0.4622    0.1625 H   0  0  0  0  0  0  0  0  0  0  0  0
   -3.0345   -0.2644    3.0832 H   0  0  0  0  0  0  0  0  0  0  0  0
   -2.5093    1.2092    2.2599 H   0  0  0  0  0  0  0  0  0  0  0  0
   -4.2338    0.9283    2.5645 H   0  0  0  0  0  0  0  0  0  0  0  0
   -1.2626   -0.1515   -0.1463 N   0  0  0  0  0  0  0  0  0  0  0  0
    0.0431   -0.5785   -0.5755 C   0  0  2  0  0  0  0  0  0  0  0  0
    0.4045   -1.8383    0.2002 C   0  0  0  0  0  0  0  0  0  0  0  0
    1.0248   -1.8180    1.2612 O   0  0  0  0  0  0  0  0  0  0  0  0
    1.0812    0.5111   -0.3567 C   0  0  0  0  0  0  0  0  0  0  0  0
   -1.5766    0.7776   -0.4197 H   0  0  0  0  0  0  0  0  0  0  0  0
   -0.0364   -0.8157   -1.6420 H   0  0  0  0  0  0  0  0  0  0  0  0
    1.1749    0.7623    0.7061 H   0  0  0  0  0  0  0  0  0  0  0  0
    2.0684    0.1953   -0.7100 H   0  0  0  0  0  0  0  0  0  0  0  0
    0.8044    1.4262   -0.8913 H   0  0  0  0  0  0  0  0  0  0  0  0
   -0.0087   -2.9951   -0.4517 N   0  0  0  0  0  0  0  0  0  0  0  0
    0.2528   -4.3149    0.0594 C   0  0  2  0  0  0  0  0  0  0  0  0
    0.4302   -5.2523   -1.1278 C   0  0  0  0  0  0  0  0  0  0  0  0
   -0.1889   -5.1241   -2.1820 O   0  0  0  0  0  0  0  0  0  0  0  0
   -0.8728   -4.7909    0.9644 C   0  0  0  0  0  0  0  0  0  0  0  0
   -0.5529   -2.9122   -1.3081 H   0  0  0  0  0  0  0  0  0  0  0  0
    1.1908   -4.2559    0.6222 H   0  0  0  0  0  0  0  0  0  0  0  0
   -1.8207   -4.8562    0.4179 H   0  0  0  0  0  0  0  0  0  0  0  0
   -0.6591   -5.7832    1.3750 H   0  0  0  0  0  0  0  0  0  0  0  0
   -1.0187   -4.0996    1.8014 H   0  0  0  0  0  0  0  0  0  0  0  0
    1.3292   -6.2741   -0.8562 N   0  0  0  0  0  0  0  0  0  0  0  0
    1.6360   -7.3161   -1.8080 C   0  0  0  0  0  0  0  0  0  0  0  0
    1.8266   -6.2797    0.0294 H   0  0  0  0  0  0  0  0  0  0  0  0
    0.9723   -8.1765   -1.6372 H   0  0  0  0  0  0  0  0  0  0  0  0
    1.4869   -6.9353   -2.8292 H   0  0  0  0  0  0  0  0  0  0  0  0
    2.6828   -7.6301   -1.6830 H   0  0  0  0  0  0  0  0  0  0  0  0
  1  3  1  0  0  0  0
  1  7  1  0  0  0  0
  1  2  2  0  0  0  0
 28 29  1  0  0  0  0
 29 37  1  0  0  0  0
 29 30  2  0  0  0  0
 18 19  1  0  0  0  0
 19 27  1  0  0  0  0
 19 20  2  0  0  0  0
  8  9  1  0  0  0  0
  9 17  1  0  0  0  0
  9 10  2  0  0  0  0
 28 31  1  0  0  0  0
 18 21  1  0  0  0  0
  8 11  1  0  0  0  0
 37 38  1  0  0  0  0
 27 28  1  0  0  0  0
 17 18  1  0  0  0  0
  7  8  1  0  0  0  0
  3  4  1  0  0  0  0
  3  5  1  0  0  0  0
  3  6  1  0  0  0  0
 31 34  1  0  0  0  0
 31 35  1  0  0  0  0
 31 36  1  0  0  0  0
 21 24  1  0  0  0  0
 21 25  1  0  0  0  0
 21 26  1  0  0  0  0
 11 14  1  0  0  0  0
 11 15  1  0  0  0  0
 11 16  1  0  0  0  0
 38 40  1  0  0  0  0
 38 41  1  0  0  0  0
 38 42  1  0  0  0  0
 28 33  1  0  0  0  0
 18 23  1  0  0  0  0
  8 13  1  0  0  0  0
 37 39  1  0  0  0  0
  7 12  1  0  0  0  0
 27 32  1  0  0  0  0
 17 22  1  0  0  0  0
M  END
$$$$

  -OEChem-05262214473D

 42 41  0     1  0  0  0  0  0999 V2000
   -5.7851   -0.9580    0.6237 C   0  0  0  0  0  0  0  0  0  0  0  0
   -6.2213    0.1296    0.2652 O   0  0  0  0  0  0  0  0  0  0  0  0
   -6.7088   -2.1270    0.7168 C   0  0  0  0  0  0  0  0  0  0  0  0
   -7.1713   -2.2193    1.7126 H   0  0  0  0  0  0  0  0  0  0  0  0
   -7.5511   -2.0547    0.0101 H   0  0  0  0  0  0  0  0  0  0  0  0
   -6.2485   -3.1083    0.5191 H   0  0  0  0  0  0  0  0  0  0  0  0
   -4.4733   -1.2411    0.9668 N   0  0  0  0  0  0  0  0  0  0  0  0
   -3.4203   -0.2603    0.9449 C   0  0  2  0  0  0  0  0  0  0  0  0
   -2.1242   -0.9699    0.5759 C   0  0  0  0  0  0  0  0  0  0  0  0
   -1.8694   -2.1225    0.9189 O   0  0  0  0  0  0  0  0  0  0  0  0
   -3.2916    0.4435    2.2868 C   0  0  0  0  0  0  0  0  0  0  0  0
   -4.2421   -2.1920    1.2489 H   0  0  0  0  0  0  0  0  0  0  0  0
   -3.6772    0.4622    0.1625 H   0  0  0  0  0  0  0  0  0  0  0  0
   -3.0345   -0.2644    3.0832 H   0  0  0  0  0  0  0  0  0  0  0  0
   -2.5093    1.2092    2.2599 H   0  0  0  0  0  0  0  0  0  0  0  0
   -4.2338    0.9283    2.5645 H   0  0  0  0  0  0  0  0  0  0  0  0
   -1.2626   -0.1515   -0.1463 N   0  0  0  0  0  0  0  0  0  0  0  0
    0.0431   -0.5785   -0.5755 C   0  0  2  0  0  0  0  0  0  0  0  0
    0.4045   -1.8383    0.2002 C   0  0  0  0  0  0  0  0  0  0  0  0
    0.7793   -1.8209    1.3708 O   0  0  0  0  0  0  0  0  0  0  0  0
    1.0812    0.5111   -0.3567 C   0  0  0  0  0  0  0  0  0  0  0  0
   -1.5766    0.7776   -0.4197 H   0  0  0  0  0  0  0  0  0  0  0  0
   -0.0364   -0.8157   -1.6420 H   0  0  0  0  0  0  0  0  0  0  0  0
    1.1749    0.7623    0.7061 H   0  0  0  0  0  0  0  0  0  0  0  0
    2.0684    0.1953   -0.7100 H   0  0  0  0  0  0  0  0  0  0  0  0
    0.8044    1.4262   -0.8913 H   0  0  0  0  0  0  0  0  0  0  0  0
    0.3017   -2.9850   -0.5798 N   0  0  0  0  0  0  0  0  0  0  0  0
    0.6303   -4.2965   -0.0867 C   0  0  2  0  0  0  0  0  0  0  0  0
    1.1811   -5.1117   -1.2493 C   0  0  0  0  0  0  0  0  0  0  0  0
    0.7855   -4.9826   -2.4060 O   0  0  0  0  0  0  0  0  0  0  0  0
   -0.5833   -4.9769    0.5274 C   0  0  0  0  0  0  0  0  0  0  0  0
   -0.0567   -2.9062   -1.5295 H   0  0  0  0  0  0  0  0  0  0  0  0
    1.4117   -4.1635    0.6694 H   0  0  0  0  0  0  0  0  0  0  0  0
   -1.3769   -5.1187   -0.2152 H   0  0  0  0  0  0  0  0  0  0  0  0
   -0.3251   -5.9629    0.9277 H   0  0  0  0  0  0  0  0  0  0  0  0
   -0.9960   -4.3747    1.3440 H   0  0  0  0  0  0  0  0  0  0  0  0
    2.1357   -6.0306   -0.8364 N   0  0  0  0  0  0  0  0  0  0  0  0
    2.7768   -6.9509   -1.7464 C   0  0  0  0  0  0  0  0  0  0  0  0
    2.4319   -6.0410    0.1351 H   0  0  0  0  0  0  0  0  0  0  0  0
    2.2178   -7.8981   -1.7651 H   0  0  0  0  0  0  0  0  0  0  0  0
    2.7942   -6.5155   -2.7564 H   0  0  0  0  0  0  0  0  0  0  0  0
    3.8072   -7.1400   -1.4109 H   0  0  0  0  0  0  0  0  0  0  0  0
  1  3  1  0  0  0  0
  1  7  1  0  0  0  0
  1  2  2  0  0  0  0
 28 29  1  0  0  0  0
 29 37  1  0  0  0  0
 29 30  2  0  0  0  0
 18 19  1  0  0  0  0
 19 27  1  0  0  0  0
 19 20  2  0  0  0  0
  8  9  1  0  0  0  0
  9 17  1  0  0  0  0
  9 10  2  0  0  0  0
 28 31  1  0  0  0  0
 18 21  1  0  0  0  0
  8 11  1  0  0  0  0
 37 38  1  0  0  0  0
 27 28  1  0  0  0  0
 17 18  1  0  0  0  0
  7  8  1  0  0  0  0
  3  4  1  0  0  0  0
  3  5  1  0  0  0  0
  3  6  1  0  0  0  0
 31 34  1  0  0  0  0
 31 35  1  0  0  0  0
 31 36  1  0  0  0  0
 21 24  1  0  0  0  0
 21 25  1  0  0  0  0
 21 26  1  0  0  0  0
 11 14  1  0  0  0  0
 11 15  1  0  0  0  0
 11 16  1  0  0  0  0
 38 40  1  0  0  0  0
 38 41  1  0  0  0  0
 38 42  1  0  0  0  0
 28 33  1  0  0  0  0
 18 23  1  0  0  0  0
  8 13  1  0  0  0  0
 37 39  1  0  0  0  0
  7 12  1  0  0  0  0
 27 32  1  0  0  0  0
 17 22  1  0  0  0  0
M  END
$$$$

  -OEChem-05262214473D

 42 41  0     1  0  0  0  0  0999 V2000
   -5.7851   -0.9580    0.6237 C   0  0  0  0  0  0  0  0  0  0  0  0
   -6.2213    0.1296    0.2652 O   0  0  0  0  0  0  0  0  0  0  0  0
   -6.7088   -2.1270    0.7168 C   0  0  0  0  0  0  0  0  0  0  0  0
   -7.1713   -2.2193    1.7126 H   0  0  0  0  0  0  0  0  0  0  0  0
   -7.5511   -2.0547    0.0101 H   0  0  0  0  0  0  0  0  0  0  0  0
   -6.2485   -3.1083    0.5191 H   0  0  0  0  0  0  0  0  0  0  0  0
   -4.4733   -1.2411    0.9668 N   0  0  0  0  0  0  0  0  0  0  0  0
   -3.4203   -0.2603    0.9449 C   0  0  2  0  0  0  0  0  0  0  0  0
   -2.1242   -0.9699    0.5759 C   0  0  0  0  0  0  0  0  0  0  0  0
   -1.8694   -2.1225    0.9189 O   0  0  0  0  0  0  0  0  0  0  0  0
   -3.2916    0.4435    2.2868 C   0  0  0  0  0  0  0  0  0  0  0  0
   -4.2421   -2.1920    1.2489 H   0  0  0  0  0  0  0  0  0  0  0  0
   -3.6772    0.4622    0.1625 H   0  0  0  0  0  0  0  0  0  0  0  0
   -3.0345   -0.2644    3.0832 H   0  0  0  0  0  0  0  0  0  0  0  0
   -2.5093    1.2092    2.2599 H   0  0  0  0  0  0  0  0  0  0  0  0
   -4.2338    0.9283    2.5645 H   0  0  0  0  0  0  0  0  0  0  0  0
   -1.2626   -0.1515   -0.1463 N   0  0  0  0  0  0  0  0  0  0  0  0
    0.0431   -0.5785   -0.5755 C   0  0  2  0  0  0  0  0  0  0  0  0
    0.4045   -1.8383    0.2002 C   0  0  0  0  0  0  0  0  0  0  0  0
    0.5190   -1.8629    1.4238 O   0  0  0  0  0  0  0  0  0  0  0  0
    1.0812    0.5111   -0.3567 C   0  0  0  0  0  0  0  0  0  0  0  0
   -1.5766    0.7776   -0.4197 H   0  0  0  0  0  0  0  0  0  0  0  0
   -0.0364   -0.8157   -1.6420 H   0  0  0  0  0  0  0  0  0  0  0  0
    1.1749    0.7623    0.7061 H   0  0  0  0  0  0  0  0  0  0  0  0
    2.0684    0.1953   -0.7100 H   0  0  0  0  0  0  0  0  0  0  0  0
    0.8044    1.4262   -0.8913 H   0  0  0  0  0  0  0  0  0  0  0  0
    0.6276   -2.9264   -0.6365 N   0  0  0  0  0  0  0  0  0  0  0  0
    1.0238   -4.2201   -0.1459 C   0  0  2  0  0  0  0  0  0  0  0  0
    1.9139   -4.8695   -1.1973 C   0  0  0  0  0  0  0  0  0  0  0  0
    1.7560   -4.7036   -2.4051 O   0  0  0  0  0  0  0  0  0  0  0  0
   -0.1855   -5.0915    0.1559 C   0  0  0  0  0  0  0  0  0  0  0  0
    0.4693   -2.8213   -1.6368 H   0  0  0  0  0  0  0  0  0  0  0  0
    1.6029   -4.0480    0.7679 H   0  0  0  0  0  0  0  0  0  0  0  0
   -0.7780   -5.2748   -0.7478 H   0  0  0  0  0  0  0  0  0  0  0  0
    0.1169   -6.0649    0.5560 H   0  0  0  0  0  0  0  0  0  0  0  0
   -0.8398   -4.6093    0.8902 H   0  0  0  0  0  0  0  0  0  0  0  0
    2.8784   -5.6903   -0.6298 N   0  0  0  0  0  0  0  0  0  0  0  0
    3.8174   -6.4516   -1.4201 C   0  0  0  0  0  0  0  0  0  0  0  0
    2.9625   -5.7372    0.3814 H   0  0  0  0  0  0  0  0  0  0  0  0
    3.4115   -7.4571   -1.6050 H   0  0  0  0  0  0  0  0  0  0  0  0
    3.9860   -5.9421   -2.3804 H   0  0  0  0  0  0  0  0  0  0  0  0
    4.7704   -6.5352   -0.8772 H   0  0  0  0  0  0  0  0  0  0  0  0
  1  3  1  0  0  0  0
  1  7  1  0  0  0  0
  1  2  2  0  0  0  0
 28 29  1  0  0  0  0
 29 37  1  0  0  0  0
 29 30  2  0  0  0  0
 18 19  1  0  0  0  0
 19 27  1  0  0  0  0
 19 20  2  0  0  0  0
  8  9  1  0  0  0  0
  9 17  1  0  0  0  0
  9 10  2  0  0  0  0
 28 31  1  0  0  0  0
 18 21  1  0  0  0  0
  8 11  1  0  0  0  0
 37 38  1  0  0  0  0
 27 28  1  0  0  0  0
 17 18  1  0  0  0  0
  7  8  1  0  0  0  0
  3  4  1  0  0  0  0
  3  5  1  0  0  0  0
  3  6  1  0  0  0  0
 31 34  1  0  0  0  0
 31 35  1  0  0  0  0
 31 36  1  0  0  0  0
 21 24  1  0  0  0  0
 21 25  1  0  0  0  0
 21 26  1  0  0  0  0
 11 14  1  0  0  0  0
 11 15  1  0  0  0  0
 11 16  1  0  0  0  0
 38 40  1  0  0  0  0
 38 41  1  0  0  0  0
 38 42  1  0  0  0  0
 28 33  1  0  0  0  0
 18 23  1  0  0  0  0
  8 13  1  0  0  0  0
 37 39  1  0  0  0  0
  7 12  1  0  0  0  0
 27 32  1  0  0  0  0
 17 22  1  0  0  0  0
M  END
$$$$

  -OEChem-05262214473D

 42 41  0     1  0  0  0  0  0999 V2000
   -5.7851   -0.9580    0.6237 C   0  0  0  0  0  0  0  0  0  0  0  0
   -6.2213    0.1296    0.2652 O   0  0  0  0  0  0  0  0  0  0  0  0
   -6.7088   -2.1270    0.7168 C   0  0  0  0  0  0  0  0  0  0  0  0
   -7.1713   -2.2193    1.7126 H   0  0  0  0  0  0  0  0  0  0  0  0
   -7.5511   -2.0547    0.0101 H   0  0  0  0  0  0  0  0  0  0  0  0
   -6.2485   -3.1083    0.5191 H   0  0  0  0  0  0  0  0  0  0  0  0
   -4.4733   -1.2411    0.9668 N   0  0  0  0  0  0  0  0  0  0  0  0
   -3.4203   -0.2603    0.9449 C   0  0  2  0  0  0  0  0  0  0  0  0
   -2.1242   -0.9699    0.5759 C   0  0  0  0  0  0  0  0  0  0  0  0
   -1.8694   -2.1225    0.9189 O   0  0  0  0  0  0  0  0  0  0  0  0
   -3.2916    0.4435    2.2868 C   0  0  0  0  0  0  0  0  0  0  0  0
   -4.2421   -2.1920    1.2489 H   0  0  0  0  0  0  0  0  0  0  0  0
   -3.6772    0.4622    0.1625 H   0  0  0  0  0  0  0  0  0  0  0  0
   -3.0345   -0.2644    3.0832 H   0  0  0  0  0  0  0  0  0  0  0  0
   -2.5093    1.2092    2.2599 H   0  0  0  0  0  0  0  0  0  0  0  0
   -4.2338    0.9283    2.5645 H   0  0  0  0  0  0  0  0  0  0  0  0
   -1.2626   -0.1515   -0.1463 N   0  0  0  0  0  0  0  0  0  0  0  0
    0.0431   -0.5785   -0.5755 C   0  0  2  0  0  0  0  0  0  0  0  0
    0.4045   -1.8383    0.2002 C   0  0  0  0  0  0  0  0  0  0  0  0
    0.2618   -1.9410    1.4168 O   0  0  0  0  0  0  0  0  0  0  0  0
    1.0812    0.5111   -0.3567 C   0  0  0  0  0  0  0  0  0  0  0  0
   -1.5766    0.7776   -0.4197 H   0  0  0  0  0  0  0  0  0  0  0  0
   -0.0364   -0.8157   -1.6420 H   0  0  0  0  0  0  0  0  0  0  0  0
    1.1749    0.7623    0.7061 H   0  0  0  0  0  0  0  0  0  0  0  0
    2.0684    0.1953   -0.7100 H   0  0  0  0  0  0  0  0  0  0  0  0
    0.8044    1.4262   -0.8913 H   0  0  0  0  0  0  0  0  0  0  0  0
    0.9468   -2.8234   -0.6179 N   0  0  0  0  0  0  0  0  0  0  0  0
    1.4064   -4.0908   -0.1141 C   0  0  2  0  0  0  0  0  0  0  0  0
    2.5786   -4.5421   -0.9753 C   0  0  0  0  0  0  0  0  0  0  0  0
    2.6564   -4.3063   -2.1792 O   0  0  0  0  0  0  0  0  0  0  0  0
    0.2934   -5.1270   -0.1248 C   0  0  0  0  0  0  0  0  0  0  0  0
    0.9891   -2.6635   -1.6225 H   0  0  0  0  0  0  0  0  0  0  0  0
    1.7512   -3.9173    0.9111 H   0  0  0  0  0  0  0  0  0  0  0  0
   -0.0650   -5.3140   -1.1436 H   0  0  0  0  0  0  0  0  0  0  0  0
    0.6368   -6.0824    0.2854 H   0  0  0  0  0  0  0  0  0  0  0  0
   -0.5609   -4.7875    0.4709 H   0  0  0  0  0  0  0  0  0  0  0  0
    3.5066   -5.2765   -0.2503 N   0  0  0  0  0  0  0  0  0  0  0  0
    4.6869   -5.8521   -0.8516 C   0  0  0  0  0  0  0  0  0  0  0  0
    3.3822   -5.3888    0.7516 H   0  0  0  0  0  0  0  0  0  0  0  0
    4.4721   -6.8836   -1.1677 H   0  0  0  0  0  0  0  0  0  0  0  0
    4.9811   -5.2543   -1.7268 H   0  0  0  0  0  0  0  0  0  0  0  0
    5.5068   -5.8567   -0.1183 H   0  0  0  0  0  0  0  0  0  0  0  0
  1  3  1  0  0  0  0
  1  7  1  0  0  0  0
  1  2  2  0  0  0  0
 28 29  1  0  0  0  0
 29 37  1  0  0  0  0
 29 30  2  0  0  0  0
 18 19  1  0  0  0  0
 19 27  1  0  0  0  0
 19 20  2  0  0  0  0
  8  9  1  0  0  0  0
  9 17  1  0  0  0  0
  9 10  2  0  0  0  0
 28 31  1  0  0  0  0
 18 21  1  0  0  0  0
  8 11  1  0  0  0  0
 37 38  1  0  0  0  0
 27 28  1  0  0  0  0
 17 18  1  0  0  0  0
  7  8  1  0  0  0  0
  3  4  1  0  0  0  0
  3  5  1  0  0  0  0
  3  6  1  0  0  0  0
 31 34  1  0  0  0  0
 31 35  1  0  0  0  0
 31 36  1  0  0  0  0
 21 24  1  0  0  0  0
 21 25  1  0  0  0  0
 21 26  1  0  0  0  0
 11 14  1  0  0  0  0
 11 15  1  0  0  0  0
 11 16  1  0  0  0  0
 38 40  1  0  0  0  0
 38 41  1  0  0  0  0
 38 42  1  0  0  0  0
 28 33  1  0  0  0  0
 18 23  1  0  0  0  0
  8 13  1  0  0  0  0
 37 39  1  0  0  0  0
  7 12  1  0  0  0  0
 27 32  1  0  0  0  0
 17 22  1  0  0  0  0
M  END
$$$$

  -OEChem-05262214473D

 42 41  0     1  0  0  0  0  0999 V2000
   -5.7851   -0.9580    0.6237 C   0  0  0  0  0  0  0  0  0  0  0  0
   -6.2213    0.1296    0.2652 O   0  0  0  0  0  0  0  0  0  0  0  0
   -6.7088   -2.1270    0.7168 C   0  0  0  0  0  0  0  0  0  0  0  0
   -7.1713   -2.2193    1.7126 H   0  0  0  0  0  0  0  0  0  0  0  0
   -7.5511   -2.0547    0.0101 H   0  0  0  0  0  0  0  0  0  0  0  0
   -6.2485   -3.1083    0.5191 H   0  0  0  0  0  0  0  0  0  0  0  0
   -4.4733   -1.2411    0.9668 N   0  0  0  0  0  0  0  0  0  0  0  0
   -3.4203   -0.2603    0.9449 C   0  0  2  0  0  0  0  0  0  0  0  0
   -2.1242   -0.9699    0.5759 C   0  0  0  0  0  0  0  0  0  0  0  0
   -1.8694   -2.1225    0.9189 O   0  0  0  0  0  0  0  0  0  0  0  0
   -3.2916    0.4435    2.2868 C   0  0  0  0  0  0  0  0  0  0  0  0
   -4.2421   -2.1920    1.2489 H   0  0  0  0  0  0  0  0  0  0  0  0
   -3.6772    0.4622    0.1625 H   0  0  0  0  0  0  0  0  0  0  0  0
   -3.0345   -0.2644    3.0832 H   0  0  0  0  0  0  0  0  0  0  0  0
   -2.5093    1.2092    2.2599 H   0  0  0  0  0  0  0  0  0  0  0  0
   -4.2338    0.9283    2.5645 H   0  0  0  0  0  0  0  0  0  0  0  0
   -1.2626   -0.1515   -0.1463 N   0  0  0  0  0  0  0  0  0  0  0  0
    0.0431   -0.5785   -0.5755 C   0  0  2  0  0  0  0  0  0  0  0  0
    0.4045   -1.8383    0.2002 C   0  0  0  0  0  0  0  0  0  0  0  0
    0.0252   -2.0500    1.3501 O   0  0  0  0  0  0  0  0  0  0  0  0
    1.0812    0.5111   -0.3567 C   0  0  0  0  0  0  0  0  0  0  0  0
   -1.5766    0.7776   -0.4197 H   0  0  0  0  0  0  0  0  0  0  0  0
   -0.0364   -0.8157   -1.6420 H   0  0  0  0  0  0  0  0  0  0  0  0
    1.1749    0.7623    0.7061 H   0  0  0  0  0  0  0  0  0  0  0  0
    2.0684    0.1953   -0.7100 H   0  0  0  0  0  0  0  0  0  0  0  0
    0.8044    1.4262   -0.8913 H   0  0  0  0  0  0  0  0  0  0  0  0
    1.2376   -2.6829   -0.5253 N   0  0  0  0  0  0  0  0  0  0  0  0
    1.7522   -3.9173    0.0065 C   0  0  2  0  0  0  0  0  0  0  0  0
    3.1300   -4.1519   -0.5984 C   0  0  0  0  0  0  0  0  0  0  0  0
    3.4255   -3.8176   -1.7439 O   0  0  0  0  0  0  0  0  0  0  0  0
    0.8207   -5.0809   -0.2956 C   0  0  0  0  0  0  0  0  0  0  0  0
    1.4673   -2.4433   -1.4878 H   0  0  0  0  0  0  0  0  0  0  0  0
    1.8466   -3.7803    1.0892 H   0  0  0  0  0  0  0  0  0  0  0  0
    0.7137   -5.2335   -1.3757 H   0  0  0  0  0  0  0  0  0  0  0  0
    1.1993   -6.0141    0.1342 H   0  0  0  0  0  0  0  0  0  0  0  0
   -0.1782   -4.8971    0.1146 H   0  0  0  0  0  0  0  0  0  0  0  0
    3.9777   -4.8172    0.2763 N   0  0  0  0  0  0  0  0  0  0  0  0
    5.3260   -5.1934   -0.0794 C   0  0  0  0  0  0  0  0  0  0  0  0
    3.6625   -5.0198    1.2204 H   0  0  0  0  0  0  0  0  0  0  0  0
    5.3274   -6.2167   -0.4829 H   0  0  0  0  0  0  0  0  0  0  0  0
    5.7117   -4.4988   -0.8402 H   0  0  0  0  0  0  0  0  0  0  0  0
    5.9662   -5.1508    0.8141 H   0  0  0  0  0  0  0  0  0  0  0  0
  1  3  1  0  0  0  0
  1  7  1  0  0  0  0
  1  2  2  0  0  0  0
 28 29  1  0  0  0  0
 29 37  1  0  0  0  0
 29 30  2  0  0  0  0
 18 19  1  0  0  0  0
 19 27  1  0  0  0  0
 19 20  2  0  0  0  0
  8  9  1  0  0  0  0
  9 17  1  0  0  0  0
  9 10  2  0  0  0  0
 28 31  1  0  0  0  0
 18 21  1  0  0  0  0
  8 11  1  0  0  0  0
 37 38  1  0  0  0  0
 27 28  1  0  0  0  0
 17 18  1  0  0  0  0
  7  8  1  0  0  0  0
  3  4  1  0  0  0  0
  3  5  1  0  0  0  0
  3  6  1  0  0  0  0
 31 34  1  0  0  0  0
 31 35  1  0  0  0  0
 31 36  1  0  0  0  0
 21 24  1  0  0  0  0
 21 25  1  0  0  0  0
 21 26  1  0  0  0  0
 11 14  1  0  0  0  0
 11 15  1  0  0  0  0
 11 16  1  0  0  0  0
 38 40  1  0  0  0  0
 38 41  1  0  0  0  0
 38 42  1  0  0  0  0
 28 33  1  0  0  0  0
 18 23  1  0  0  0  0
  8 13  1  0  0  0  0
 37 39  1  0  0  0  0
  7 12  1  0  0  0  0
 27 32  1  0  0  0  0
 17 22  1  0  0  0  0
M  END
$$$$

  -OEChem-05262214473D

 42 41  0     1  0  0  0  0  0999 V2000
   -5.7851   -0.9580    0.6237 C   0  0  0  0  0  0  0  0  0  0  0  0
   -6.2213    0.1296    0.2652 O   0  0  0  0  0  0  0  0  0  0  0  0
   -6.7088   -2.1270    0.7168 C   0  0  0  0  0  0  0  0  0  0  0  0
   -7.1713   -2.2193    1.7126 H   0  0  0  0  0  0  0  0  0  0  0  0
   -7.5511   -2.0547    0.0101 H   0  0  0  0  0  0  0  0  0  0  0  0
   -6.2485   -3.1083    0.5191 H   0  0  0  0  0  0  0  0  0  0  0  0
   -4.4733   -1.2411    0.9668 N   0  0  0  0  0  0  0  0  0  0  0  0
   -3.4203   -0.2603    0.9449 C   0  0  2  0  0  0  0  0  0  0  0  0
   -2.1242   -0.9699    0.5759 C   0  0  0  0  0  0  0  0  0  0  0  0
   -1.8694   -2.1225    0.9189 O   0  0  0  0  0  0  0  0  0  0  0  0
   -3.2916    0.4435    2.2868 C   0  0  0  0  0  0  0  0  0  0  0  0
   -4.2421   -2.1920    1.2489 H   0  0  0  0  0  0  0  0  0  0  0  0
   -3.6772    0.4622    0.1625 H   0  0  0  0  0  0  0  0  0  0  0  0
   -3.0345   -0.2644    3.0832 H   0  0  0  0  0  0  0  0  0  0  0  0
   -2.5093    1.2092    2.2599 H   0  0  0  0  0  0  0  0  0  0  0  0
   -4.2338    0.9283    2.5645 H   0  0  0  0  0  0  0  0  0  0  0  0
   -1.2626   -0.1515   -0.1463 N   0  0  0  0  0  0  0  0  0  0  0  0
    0.0431   -0.5785   -0.5755 C   0  0  2  0  0  0  0  0  0  0  0  0
    0.4045   -1.8383    0.2002 C   0  0  0  0  0  0  0  0  0  0  0  0
   -0.1748   -2.1823    1.2284 O   0  0  0  0  0  0  0  0  0  0  0  0
    1.0812    0.5111   -0.3567 C   0  0  0  0  0  0  0  0  0  0  0  0
   -1.5766    0.7776   -0.4197 H   0  0  0  0  0  0  0  0  0  0  0  0
   -0.0364   -0.8157   -1.6420 H   0  0  0  0  0  0  0  0  0  0  0  0
    1.1749    0.7623    0.7061 H   0  0  0  0  0  0  0  0  0  0  0  0
    2.0684    0.1953   -0.7100 H   0  0  0  0  0  0  0  0  0  0  0  0
    0.8044    1.4262   -0.8913 H   0  0  0  0  0  0  0  0  0  0  0  0
    1.4801   -2.5146   -0.3649 N   0  0  0  0  0  0  0  0  0  0  0  0
    2.0375   -3.7117    0.2076 C   0  0  2  0  0  0  0  0  0  0  0  0
    3.5306   -3.7255   -0.0924 C   0  0  0  0  0  0  0  0  0  0  0  0
    4.0107   -3.2710   -1.1287 O   0  0  0  0  0  0  0  0  0  0  0  0
    1.3605   -4.9564   -0.3448 C   0  0  0  0  0  0  0  0  0  0  0  0
    1.8714   -2.1759   -1.2417 H   0  0  0  0  0  0  0  0  0  0  0  0
    1.8825   -3.6463    1.2901 H   0  0  0  0  0  0  0  0  0  0  0  0
    1.5050   -5.0389   -1.4282 H   0  0  0  0  0  0  0  0  0  0  0  0
    1.7660   -5.8648    0.1128 H   0  0  0  0  0  0  0  0  0  0  0  0
    0.2822   -4.9306   -0.1543 H   0  0  0  0  0  0  0  0  0  0  0  0
    4.2594   -4.3437    0.9139 N   0  0  0  0  0  0  0  0  0  0  0  0
    5.6911   -4.5202    0.8437 C   0  0  0  0  0  0  0  0  0  0  0  0
    3.7842   -4.6552    1.7559 H   0  0  0  0  0  0  0  0  0  0  0  0
    5.9189   -5.5018    0.4025 H   0  0  0  0  0  0  0  0  0  0  0  0
    6.1280   -3.7273    0.2190 H   0  0  0  0  0  0  0  0  0  0  0  0
    6.1172   -4.4658    1.8564 H   0  0  0  0  0  0  0  0  0  0  0  0
  1  3  1  0  0  0  0
  1  7  1  0  0  0  0
  1  2  2  0  0  0  0
 28 29  1  0  0  0  0
 29 37  1  0  0  0  0
 29 30  2  0  0  0  0
 18 19  1  0  0  0  0
 19 27  1  0  0  0  0
 19 20  2  0  0  0  0
  8  9  1  0  0  0  0
  9 17  1  0  0  0  0
  9 10  2  0  0  0  0
 28 31  1  0  0  0  0
 18 21  1  0  0  0  0
  8 11  1  0  0  0  0
 37 38  1  0  0  0  0
 27 28  1  0  0  0  0
 17 18  1  0  0  0  0
  7  8  1  0  0  0  0
  3  4  1  0  0  0  0
  3  5  1  0  0  0  0
  3  6  1  0  0  0  0
 31 34  1  0  0  0  0
 31 35  1  0  0  0  0
 31 36  1  0  0  0  0
 21 24  1  0  0  0  0
 21 25  1  0  0  0  0
 21 26  1  0  0  0  0
 11 14  1  0  0  0  0
 11 15  1  0  0  0  0
 11 16  1  0  0  0  0
 38 40  1  0  0  0  0
 38 41  1  0  0  0  0
 38 42  1  0  0  0  0
 28 33  1  0  0  0  0
 18 23  1  0  0  0  0
  8 13  1  0  0  0  0
 37 39  1  0  0  0  0
  7 12  1  0  0  0  0
 27 32  1  0  0  0  0
 17 22  1  0  0  0  0
M  END
$$$$

  -OEChem-05262214473D

 42 41  0     1  0  0  0  0  0999 V2000
   -5.7851   -0.9580    0.6237 C   0  0  0  0  0  0  0  0  0  0  0  0
   -6.2213    0.1296    0.2652 O   0  0  0  0  0  0  0  0  0  0  0  0
   -6.7088   -2.1270    0.7168 C   0  0  0  0  0  0  0  0  0  0  0  0
   -7.1713   -2.2193    1.7126 H   0  0  0  0  0  0  0  0  0  0  0  0
   -7.5511   -2.0547    0.0101 H   0  0  0  0  0  0  0  0  0  0  0  0
   -6.2485   -3.1083    0.5191 H   0  0  0  0  0  0  0  0  0  0  0  0
   -4.4733   -1.2411    0.9668 N   0  0  0  0  0  0  0  0  0  0  0  0
   -3.4203   -0.2603    0.9449 C   0  0  2  0  0  0  0  0  0  0  0  0
   -2.1242   -0.9699    0.5759 C   0  0  0  0  0  0  0  0  0  0  0  0
   -1.8694   -2.1225    0.9189 O   0  0  0  0  0  0  0  0  0  0  0  0
   -3.2916    0.4435    2.2868 C   0  0  0  0  0  0  0  0  0  0  0  0
   -4.2421   -2.1920    1.2489 H   0  0  0  0  0  0  0  0  0  0  0  0
   -3.6772    0.4622    0.1625 H   0  0  0  0  0  0  0  0  0  0  0  0
   -3.0345   -0.2644    3.0832 H   0  0  0  0  0  0  0  0  0  0  0  0
   -2.5093    1.2092    2.2599 H   0  0  0  0  0  0  0  0  0  0  0  0
   -4.2338    0.9283    2.5645 H   0  0  0  0  0  0  0  0  0  0  0  0
   -1.2626   -0.1515   -0.1463 N   0  0  0  0  0  0  0  0  0  0  0  0
    0.0431   -0.5785   -0.5755 C   0  0  2  0  0  0  0  0  0  0  0  0
    0.2499   -2.0102   -0.0991 C   0  0  0  0  0  0  0  0  0  0  0  0
   -0.5819   -2.6219    0.5679 O   0  0  0  0  0  0  0  0  0  0  0  0
    1.1302    0.3369   -0.0342 C   0  0  0  0  0  0  0  0  0  0  0  0
   -1.5766    0.7776   -0.4197 H   0  0  0  0  0  0  0  0  0  0  0  0
    0.0397   -0.5543   -1.6707 H   0  0  0  0  0  0  0  0  0  0  0  0
    1.1491    0.3258    1.0617 H   0  0  0  0  0  0  0  0  0  0  0  0
    2.1204    0.0275   -0.3849 H   0  0  0  0  0  0  0  0  0  0  0  0
    0.9633    1.3714   -0.3533 H   0  0  0  0  0  0  0  0  0  0  0  0
    1.4923   -2.5141   -0.4685 N   0  0  0  0  0  0  0  0  0  0  0  0
    1.9414   -3.8309   -0.1003 C   0  0  2  0  0  0  0  0  0  0  0  0
    3.4528   -3.7791    0.0801 C   0  0  0  0  0  0  0  0  0  0  0  0
    4.1844   -3.0577   -0.5948 O   0  0  0  0  0  0  0  0  0  0  0  0
    1.5542   -4.8612   -1.1497 C   0  0  0  0  0  0  0  0  0  0  0  0
    2.1004   -1.9476   -1.0565 H   0  0  0  0  0  0  0  0  0  0  0  0
    1.4667   -4.0706    0.8575 H   0  0  0  0  0  0  0  0  0  0  0  0
    2.0203   -4.6376   -2.1163 H   0  0  0  0  0  0  0  0  0  0  0  0
    1.8715   -5.8668   -0.8546 H   0  0  0  0  0  0  0  0  0  0  0  0
    0.4693   -4.8761   -1.2996 H   0  0  0  0  0  0  0  0  0  0  0  0
    3.8929   -4.6648    1.0537 N   0  0  0  0  0  0  0  0  0  0  0  0
    5.2896   -4.8328    1.3807 C   0  0  0  0  0  0  0  0  0  0  0  0
    3.2131   -5.1943    1.5916 H   0  0  0  0  0  0  0  0  0  0  0  0
    5.7108   -5.6536    0.7816 H   0  0  0  0  0  0  0  0  0  0  0  0
    5.8323   -3.9019    1.1600 H   0  0  0  0  0  0  0  0  0  0  0  0
    5.3896   -5.0709    2.4500 H   0  0  0  0  0  0  0  0  0  0  0  0
  1  3  1  0  0  0  0
  1  7  1  0  0  0  0
  1  2  2  0  0  0  0
 28 29  1  0  0  0  0
 29 37  1  0  0  0  0
 29 30  2  0  0  0  0
 18 19  1  0  0  0  0
 19 27  1  0  0  0  0
 19 20  2  0  0  0  0
  8  9  1  0  0  0  0
  9 17  1  0  0  0  0
  9 10  2  0  0  0  0
 28 31  1  0  0  0  0
 18 21  1  0  0  0  0
  8 11  1  0  0  0  0
 37 38  1  0  0  0  0
 27 28  1  0  0  0  0
 17 18  1  0  0  0  0
  7  8  1  0  0  0  0
  3  4  1  0  0  0  0
  3  5  1  0  0  0  0
  3  6  1  0  0  0  0
 31 34  1  0  0  0  0
 31 35  1  0  0  0  0
 31 36  1  0  0  0  0
 21 24  1  0  0  0  0
 21 25  1  0  0  0  0
 21 26  1  0  0  0  0
 11 14  1  0  0  0  0
 11 15  1  0  0  0  0
 11 16  1  0  0  0  0
 38 40  1  0  0  0  0
 38 41  1  0  0  0  0
 38 42  1  0  0  0  0
 28 33  1  0  0  0  0
 18 23  1  0  0  0  0
  8 13  1  0  0  0  0
 37 39  1  0  0  0  0
  7 12  1  0  0  0  0
 27 32  1  0  0  0  0
 17 22  1  0  0  0  0
M  END
$$$$

  -OEChem-05262214473D

 42 41  0     1  0  0  0  0  0999 V2000
   -5.7851   -0.9580    0.6237 C   0  0  0  0  0  0  0  0  0  0  0  0
   -6.2213    0.1296    0.2652 O   0  0  0  0  0  0  0  0  0  0  0  0
   -6.7088   -2.1270    0.7168 C   0  0  0  0  0  0  0  0  0  0  0  0
   -7.1713   -2.2193    1.7126 H   0  0  0  0  0  0  0  0  0  0  0  0
   -7.5511   -2.0547    0.0101 H   0  0  0  0  0  0  0  0  0  0  0  0
   -6.2485   -3.1083    0.5191 H   0  0  0  0  0  0  0  0  0  0  0  0
   -4.4733   -1.2411    0.9668 N   0  0  0  0  0  0  0  0  0  0  0  0
   -3.4203   -0.2603    0.9449 C   0  0  2  0  0  0  0  0  0  0  0  0
   -2.1242   -0.9699    0.5759 C   0  0  0  0  0  0  0  0  0  0  0  0
   -1.8694   -2.1225    0.9189 O   0  0  0  0  0  0  0  0  0  0  0  0
   -3.2916    0.4435    2.2868 C   0  0  0  0  0  0  0  0  0  0  0  0
   -4.2421   -2.1920    1.2489 H   0  0  0  0  0  0  0  0  0  0  0  0
   -3.6772    0.4622    0.1625 H   0  0  0  0  0  0  0  0  0  0  0  0
   -3.0345   -0.2644    3.0832 H   0  0  0  0  0  0  0  0  0  0  0  0
   -2.5093    1.2092    2.2599 H   0  0  0  0  0  0  0  0  0  0  0  0
   -4.2338    0.9283    2.5645 H   0  0  0  0  0  0  0  0  0  0  0  0
   -1.2626   -0.1515   -0.1463 N   0  0  0  0  0  0  0  0  0  0  0  0
    0.0431   -0.5785   -0.5755 C   0  0  2  0  0  0  0  0  0  0  0  0
    0.2499   -2.0102   -0.0991 C   0  0  0  0  0  0  0  0  0  0  0  0
   -0.6632   -2.7133    0.3284 O   0  0  0  0  0  0  0  0  0  0  0  0
    1.1302    0.3369   -0.0342 C   0  0  0  0  0  0  0  0  0  0  0  0
   -1.5766    0.7776   -0.4197 H   0  0  0  0  0  0  0  0  0  0  0  0
    0.0397   -0.5543   -1.6707 H   0  0  0  0  0  0  0  0  0  0  0  0
    1.1491    0.3258    1.0617 H   0  0  0  0  0  0  0  0  0  0  0  0
    2.1204    0.0275   -0.3849 H   0  0  0  0  0  0  0  0  0  0  0  0
    0.9633    1.3714   -0.3533 H   0  0  0  0  0  0  0  0  0  0  0  0
    1.5830   -2.4002   -0.1657 N   0  0  0  0  0  0  0  0  0  0  0  0
    2.0404   -3.6941    0.2680 C   0  0  2  0  0  0  0  0  0  0  0  0
    3.4532   -3.5348    0.8140 C   0  0  0  0  0  0  0  0  0  0  0  0
    4.2621   -2.7298    0.3571 O   0  0  0  0  0  0  0  0  0  0  0  0
    2.0079   -4.7025   -0.8698 C   0  0  0  0  0  0  0  0  0  0  0  0
    2.2647   -1.7628   -0.5726 H   0  0  0  0  0  0  0  0  0  0  0  0
    1.3705   -4.0125    1.0741 H   0  0  0  0  0  0  0  0  0  0  0  0
    2.6731   -4.4004   -1.6870 H   0  0  0  0  0  0  0  0  0  0  0  0
    2.3290   -5.6931   -0.5314 H   0  0  0  0  0  0  0  0  0  0  0  0
    0.9968   -4.7938   -1.2810 H   0  0  0  0  0  0  0  0  0  0  0  0
    3.7187   -4.4272    1.8432 N   0  0  0  0  0  0  0  0  0  0  0  0
    5.0039   -4.5024    2.4978 C   0  0  0  0  0  0  0  0  0  0  0  0
    2.9767   -5.0310    2.1848 H   0  0  0  0  0  0  0  0  0  0  0  0
    5.6260   -5.2605    1.9995 H   0  0  0  0  0  0  0  0  0  0  0  0
    5.5025   -3.5236    2.4401 H   0  0  0  0  0  0  0  0  0  0  0  0
    4.8623   -4.7801    3.5527 H   0  0  0  0  0  0  0  0  0  0  0  0
  1  3  1  0  0  0  0
  1  7  1  0  0  0  0
  1  2  2  0  0  0  0
 28 29  1  0  0  0  0
 29 37  1  0  0  0  0
 29 30  2  0  0  0  0
 18 19  1  0  0  0  0
 19 27  1  0  0  0  0
 19 20  2  0  0  0  0
  8  9  1  0  0  0  0
  9 17  1  0  0  0  0
  9 10  2  0  0  0  0
 28 31  1  0  0  0  0
 18 21  1  0  0  0  0
  8 11  1  0  0  0  0
 37 38  1  0  0  0  0
 27 28  1  0  0  0  0
 17 18  1  0  0  0  0
  7  8  1  0  0  0  0
  3  4  1  0  0  0  0
  3  5  1  0  0  0  0
  3  6  1  0  0  0  0
 31 34  1  0  0  0  0
 31 35  1  0  0  0  0
 31 36  1  0  0  0  0
 21 24  1  0  0  0  0
 21 25  1  0  0  0  0
 21 26  1  0  0  0  0
 11 14  1  0  0  0  0
 11 15  1  0  0  0  0
 11 16  1  0  0  0  0
 38 40  1  0  0  0  0
 38 41  1  0  0  0  0
 38 42  1  0  0  0  0
 28 33  1  0  0  0  0
 18 23  1  0  0  0  0
  8 13  1  0  0  0  0
 37 39  1  0  0  0  0
  7 12  1  0  0  0  0
 27 32  1  0  0  0  0
 17 22  1  0  0  0  0
M  END
$$$$

  -OEChem-05262214473D

 42 41  0     1  0  0  0  0  0999 V2000
   -5.7851   -0.9580    0.6237 C   0  0  0  0  0  0  0  0  0  0  0  0
   -6.2213    0.1296    0.2652 O   0  0  0  0  0  0  0  0  0  0  0  0
   -6.7088   -2.1270    0.7168 C   0  0  0  0  0  0  0  0  0  0  0  0
   -7.1713   -2.2193    1.7126 H   0  0  0  0  0  0  0  0  0  0  0  0
   -7.5511   -2.0547    0.0101 H   0  0  0  0  0  0  0  0  0  0  0  0
   -6.2485   -3.1083    0.5191 H   0  0  0  0  0  0  0  0  0  0  0  0
   -4.4733   -1.2411    0.9668 N   0  0  0  0  0  0  0  0  0  0  0  0
   -3.4203   -0.2603    0.9449 C   0  0  2  0  0  0  0  0  0  0  0  0
   -2.1242   -0.9699    0.5759 C   0  0  0  0  0  0  0  0  0  0  0  0
   -1.8694   -2.1225    0.9189 O   0  0  0  0  0  0  0  0  0  0  0  0
   -3.2916    0.4435    2.2868 C   0  0  0  0  0  0  0  0  0  0  0  0
   -4.2421   -2.1920    1.2489 H   0  0  0  0  0  0  0  0  0  0  0  0
   -3.6772    0.4622    0.1625 H   0  0  0  0  0  0  0  0  0  0  0  0
   -3.0345   -0.2644    3.0832 H   0  0  0  0  0  0  0  0  0  0  0  0
   -2.5093    1.2092    2.2599 H   0  0  0  0  0  0  0  0  0  0  0  0
   -4.2338    0.9283    2.5645 H   0  0  0  0  0  0  0  0  0  0  0  0
   -1.2626   -0.1515   -0.1463 N   0  0  0  0  0  0  0  0  0  0  0  0
    0.0431   -0.5785   -0.5755 C   0  0  2  0  0  0  0  0  0  0  0  0
    0.2499   -2.0102   -0.0991 C   0  0  0  0  0  0  0  0  0  0  0  0
   -0.6761   -2.7998    0.0741 O   0  0  0  0  0  0  0  0  0  0  0  0
    1.1302    0.3369   -0.0342 C   0  0  0  0  0  0  0  0  0  0  0  0
   -1.5766    0.7776   -0.4197 H   0  0  0  0  0  0  0  0  0  0  0  0
    0.0397   -0.5543   -1.6707 H   0  0  0  0  0  0  0  0  0  0  0  0
    1.1491    0.3258    1.0617 H   0  0  0  0  0  0  0  0  0  0  0  0
    2.1204    0.0275   -0.3849 H   0  0  0  0  0  0  0  0  0  0  0  0
    0.9633    1.3714   -0.3533 H   0  0  0  0  0  0  0  0  0  0  0  0
    1.5878   -2.2935    0.1528 N   0  0  0  0  0  0  0  0  0  0  0  0
    2.0354   -3.5668    0.6526 C   0  0  2  0  0  0  0  0  0  0  0  0
    3.2553   -3.3246    1.5316 C   0  0  0  0  0  0  0  0  0  0  0  0
    4.0790   -2.4402    1.3070 O   0  0  0  0  0  0  0  0  0  0  0  0
    2.3652   -4.5223   -0.4835 C   0  0  0  0  0  0  0  0  0  0  0  0
    2.2908   -1.5880   -0.0587 H   0  0  0  0  0  0  0  0  0  0  0  0
    1.2200   -3.9717    1.2620 H   0  0  0  0  0  0  0  0  0  0  0  0
    3.1800   -4.1336   -1.1051 H   0  0  0  0  0  0  0  0  0  0  0  0
    2.6782   -5.4997   -0.1017 H   0  0  0  0  0  0  0  0  0  0  0  0
    1.4951   -4.6721   -1.1318 H   0  0  0  0  0  0  0  0  0  0  0  0
    3.3391   -4.2396    2.5717 N   0  0  0  0  0  0  0  0  0  0  0  0
    4.4295   -4.2456    3.5189 C   0  0  0  0  0  0  0  0  0  0  0  0
    2.5909   -4.9133    2.7061 H   0  0  0  0  0  0  0  0  0  0  0  0
    5.2159   -4.9306    3.1691 H   0  0  0  0  0  0  0  0  0  0  0  0
    4.8418   -3.2299    3.6096 H   0  0  0  0  0  0  0  0  0  0  0  0
    4.0611   -4.5807    4.4997 H   0  0  0  0  0  0  0  0  0  0  0  0
  1  3  1  0  0  0  0
  1  7  1  0  0  0  0
  1  2  2  0  0  0  0
 28 29  1  0  0  0  0
 29 37  1  0  0  0  0
 29 30  2  0  0  0  0
 18 19  1  0  0  0  0
 19 27  1  0  0  0  0
 19 20  2  0  0  0  0
  8  9  1  0  0  0  0
  9 17  1  0  0  0  0
  9 10  2  0  0  0  0
 28 31  1  0  0  0  0
 18 21  1  0  0  0  0
  8 11  1  0  0  0  0
 37 38  1  0  0  0  0
 27 28  1  0  0  0  0
 17 18  1  0  0  0  0
  7  8  1  0  0  0  0
  3  4  1  0  0  0  0
  3  5  1  0  0  0  0
  3  6  1  0  0  0  0
 31 34  1  0  0  0  0
 31 35  1  0  0  0  0
 31 36  1  0  0  0  0
 21 24  1  0  0  0  0
 21 25  1  0  0  0  0
 21 26  1  0  0  0  0
 11 14  1  0  0  0  0
 11 15  1  0  0  0  0
 11 16  1  0  0  0  0
 38 40  1  0  0  0  0
 38 41  1  0  0  0  0
 38 42  1  0  0  0  0
 28 33  1  0  0  0  0
 18 23  1  0  0  0  0
  8 13  1  0  0  0  0
 37 39  1  0  0  0  0
  7 12  1  0  0  0  0
 27 32  1  0  0  0  0
 17 22  1  0  0  0  0
M  END
$$$$

  -OEChem-05262214473D

 42 41  0     1  0  0  0  0  0999 V2000
   -5.7851   -0.9580    0.6237 C   0  0  0  0  0  0  0  0  0  0  0  0
   -6.2213    0.1296    0.2652 O   0  0  0  0  0  0  0  0  0  0  0  0
   -6.7088   -2.1270    0.7168 C   0  0  0  0  0  0  0  0  0  0  0  0
   -7.1713   -2.2193    1.7126 H   0  0  0  0  0  0  0  0  0  0  0  0
   -7.5511   -2.0547    0.0101 H   0  0  0  0  0  0  0  0  0  0  0  0
   -6.2485   -3.1083    0.5191 H   0  0  0  0  0  0  0  0  0  0  0  0
   -4.4733   -1.2411    0.9668 N   0  0  0  0  0  0  0  0  0  0  0  0
   -3.4203   -0.2603    0.9449 C   0  0  2  0  0  0  0  0  0  0  0  0
   -2.1242   -0.9699    0.5759 C   0  0  0  0  0  0  0  0  0  0  0  0
   -1.8694   -2.1225    0.9189 O   0  0  0  0  0  0  0  0  0  0  0  0
   -3.2916    0.4435    2.2868 C   0  0  0  0  0  0  0  0  0  0  0  0
   -4.2421   -2.1920    1.2489 H   0  0  0  0  0  0  0  0  0  0  0  0
   -3.6772    0.4622    0.1625 H   0  0  0  0  0  0  0  0  0  0  0  0
   -3.0345   -0.2644    3.0832 H   0  0  0  0  0  0  0  0  0  0  0  0
   -2.5093    1.2092    2.2599 H   0  0  0  0  0  0  0  0  0  0  0  0
   -4.2338    0.9283    2.5645 H   0  0  0  0  0  0  0  0  0  0  0  0
   -1.2626   -0.1515   -0.1463 N   0  0  0  0  0  0  0  0  0  0  0  0
    0.0431   -0.5785   -0.5755 C   0  0  2  0  0  0  0  0  0  0  0  0
    0.2499   -2.0102   -0.0991 C   0  0  0  0  0  0  0  0  0  0  0  0
   -0.6197   -2.8755   -0.1777 O   0  0  0  0  0  0  0  0  0  0  0  0
    1.1302    0.3369   -0.0342 C   0  0  0  0  0  0  0  0  0  0  0  0
   -1.5766    0.7776   -0.4197 H   0  0  0  0  0  0  0  0  0  0  0  0
    0.0397   -0.5543   -1.6707 H   0  0  0  0  0  0  0  0  0  0  0  0
    1.1491    0.3258    1.0617 H   0  0  0  0  0  0  0  0  0  0  0  0
    2.1204    0.0275   -0.3849 H   0  0  0  0  0  0  0  0  0  0  0  0
    0.9633    1.3714   -0.3533 H   0  0  0  0  0  0  0  0  0  0  0  0
    1.5063   -2.2013    0.4654 N   0  0  0  0  0  0  0  0  0  0  0  0
    1.9266   -3.4578    1.0274 C   0  0  2  0  0  0  0  0  0  0  0  0
    2.8725   -3.1628    2.1841 C   0  0  0  0  0  0  0  0  0  0  0  0
    3.6475   -2.2086    2.1901 O   0  0  0  0  0  0  0  0  0  0  0  0
    2.6017   -4.3330   -0.0171 C   0  0  0  0  0  0  0  0  0  0  0  0
    2.1767   -1.4352    0.4502 H   0  0  0  0  0  0  0  0  0  0  0  0
    1.0257   -3.9511    1.4083 H   0  0  0  0  0  0  0  0  0  0  0  0
    3.5065   -3.8552   -0.4104 H   0  0  0  0  0  0  0  0  0  0  0  0
    2.8953   -5.2998    0.4050 H   0  0  0  0  0  0  0  0  0  0  0  0
    1.9303   -4.5195   -0.8622 H   0  0  0  0  0  0  0  0  0  0  0  0
    2.7800   -4.1147    3.1897 N   0  0  0  0  0  0  0  0  0  0  0  0
    3.6053   -4.0800    4.3745 C   0  0  0  0  0  0  0  0  0  0  0  0
    2.0818   -4.8491    3.1199 H   0  0  0  0  0  0  0  0  0  0  0  0
    4.5085   -4.6862    4.2107 H   0  0  0  0  0  0  0  0  0  0  0  0
    3.8953   -3.0407    4.5888 H   0  0  0  0  0  0  0  0  0  0  0  0
    3.0407   -4.4863    5.2266 H   0  0  0  0  0  0  0  0  0  0  0  0
  1  3  1  0  0  0  0
  1  7  1  0  0  0  0
  1  2  2  0  0  0  0
 28 29  1  0  0  0  0
 29 37  1  0  0  0  0
 29 30  2  0  0  0  0
 18 19  1  0  0  0  0
 19 27  1  0  0  0  0
 19 20  2  0  0  0  0
  8  9  1  0  0  0  0
  9 17  1  0  0  0  0
  9 10  2  0  0  0  0
 28 31  1  0  0  0  0
 18 21  1  0  0  0  0
  8 11  1  0  0  0  0
 37 38  1  0  0  0  0
 27 28  1  0  0  0  0
 17 18  1  0  0  0  0
  7  8  1  0  0  0  0
  3  4  1  0  0  0  0
  3  5  1  0  0  0  0
  3  6  1  0  0  0  0
 31 34  1  0  0  0  0
 31 35  1  0  0  0  0
 31 36  1  0  0  0  0
 21 24  1  0  0  0  0
 21 25  1  0  0  0  0
 21 26  1  0  0  0  0
 11 14  1  0  0  0  0
 11 15  1  0  0  0  0
 11 16  1  0  0  0  0
 38 40  1  0  0  0  0
 38 41  1  0  0  0  0
 38 42  1  0  0  0  0
 28 33  1  0  0  0  0
 18 23  1  0  0  0  0
  8 13  1  0  0  0  0
 37 39  1  0  0  0  0
  7 12  1  0  0  0  0
 27 32  1  0  0  0  0
 17 22  1  0  0  0  0
M  END
$$$$

  -OEChem-05262214473D

 42 41  0     1  0  0  0  0  0999 V2000
   -5.7851   -0.9580    0.6237 C   0  0  0  0  0  0  0  0  0  0  0  0
   -6.2213    0.1296    0.2652 O   0  0  0  0  0  0  0  0  0  0  0  0
   -6.7088   -2.1270    0.7168 C   0  0  0  0  0  0  0  0  0  0  0  0
   -7.1713   -2.2193    1.7126 H   0  0  0  0  0  0  0  0  0  0  0  0
   -7.5511   -2.0547    0.0101 H   0  0  0  0  0  0  0  0  0  0  0  0
   -6.2485   -3.1083    0.5191 H   0  0  0  0  0  0  0  0  0  0  0  0
   -4.4733   -1.2411    0.9668 N   0  0  0  0  0  0  0  0  0  0  0  0
   -3.4203   -0.2603    0.9449 C   0  0  2  0  0  0  0  0  0  0  0  0
   -2.1242   -0.9699    0.5759 C   0  0  0  0  0  0  0  0  0  0  0  0
   -1.8694   -2.1225    0.9189 O   0  0  0  0  0  0  0  0  0  0  0  0
   -3.2916    0.4435    2.2868 C   0  0  0  0  0  0  0  0  0  0  0  0
   -4.2421   -2.1920    1.2489 H   0  0  0  0  0  0  0  0  0  0  0  0
   -3.6772    0.4622    0.1625 H   0  0  0  0  0  0  0  0  0  0  0  0
   -3.0345   -0.2644    3.0832 H   0  0  0  0  0  0  0  0  0  0  0  0
   -2.5093    1.2092    2.2599 H   0  0  0  0  0  0  0  0  0  0  0  0
   -4.2338    0.9283    2.5645 H   0  0  0  0  0  0  0  0  0  0  0  0
   -1.2626   -0.1515   -0.1463 N   0  0  0  0  0  0  0  0  0  0  0  0
    0.0431   -0.5785   -0.5755 C   0  0  2  0  0  0  0  0  0  0  0  0
    0.2499   -2.0102   -0.0991 C   0  0  0  0  0  0  0  0  0  0  0  0
   -0.4978   -2.9351   -0.4098 O   0  0  0  0  0  0  0  0  0  0  0  0
    1.1302    0.3369   -0.0342 C   0  0  0  0  0  0  0  0  0  0  0  0
   -1.5766    0.7776   -0.4197 H   0  0  0  0  0  0  0  0  0  0  0  0
    0.0397   -0.5543   -1.6707 H   0  0  0  0  0  0  0  0  0  0  0  0
    1.1491    0.3258    1.0617 H   0  0  0  0  0  0  0  0  0  0  0  0
    2.1204    0.0275   -0.3849 H   0  0  0  0  0  0  0  0  0  0  0  0
    0.9633    1.3714   -0.3533 H   0  0  0  0  0  0  0  0  0  0  0  0
    1.3441   -2.1298    0.7508 N   0  0  0  0  0  0  0  0  0  0  0  0
    1.7216   -3.3745    1.3668 C   0  0  2  0  0  0  0  0  0  0  0  0
    2.3309   -3.0604    2.7268 C   0  0  0  0  0  0  0  0  0  0  0  0
    2.9971   -2.0509    2.9463 O   0  0  0  0  0  0  0  0  0  0  0  0
    2.7014   -4.1473    0.4976 C   0  0  0  0  0  0  0  0  0  0  0  0
    1.9304   -1.3147    0.9193 H   0  0  0  0  0  0  0  0  0  0  0  0
    0.8008   -3.9520    1.5031 H   0  0  0  0  0  0  0  0  0  0  0  0
    3.6303   -3.5844    0.3499 H   0  0  0  0  0  0  0  0  0  0  0  0
    2.9656   -5.1068    0.9543 H   0  0  0  0  0  0  0  0  0  0  0  0
    2.2727   -4.3464   -0.4905 H   0  0  0  0  0  0  0  0  0  0  0  0
    2.0795   -4.0611    3.6550 N   0  0  0  0  0  0  0  0  0  0  0  0
    2.5877   -4.0167    5.0062 C   0  0  0  0  0  0  0  0  0  0  0  0
    1.4841   -4.8429    3.3980 H   0  0  0  0  0  0  0  0  0  0  0  0
    3.5520   -4.5440    5.0533 H   0  0  0  0  0  0  0  0  0  0  0  0
    2.7275   -2.9691    5.3110 H   0  0  0  0  0  0  0  0  0  0  0  0
    1.8705   -4.5032    5.6837 H   0  0  0  0  0  0  0  0  0  0  0  0
  1  3  1  0  0  0  0
  1  7  1  0  0  0  0
  1  2  2  0  0  0  0
 28 29  1  0  0  0  0
 29 37  1  0  0  0  0
 29 30  2  0  0  0  0
 18 19  1  0  0  0  0
 19 27  1  0  0  0  0
 19 20  2  0  0  0  0
  8  9  1  0  0  0  0
  9 17  1  0  0  0  0
  9 10  2  0  0  0  0
 28 31  1  0  0  0  0
 18 21  1  0  0  0  0
  8 11  1  0  0  0  0
 37 38  1  0  0  0  0
 27 28  1  0  0  0  0
 17 18  1  0  0  0  0
  7  8  1  0  0  0  0
  3  4  1  0  0  0  0
  3  5  1  0  0  0  0
  3  6  1  0  0  0  0
 31 34  1  0  0  0  0
 31 35  1  0  0  0  0
 31 36  1  0  0  0  0
 21 24  1  0  0  0  0
 21 25  1  0  0  0  0
 21 26  1  0  0  0  0
 11 14  1  0  0  0  0
 11 15  1  0  0  0  0
 11 16  1  0  0  0  0
 38 40  1  0  0  0  0
 38 41  1  0  0  0  0
 38 42  1  0  0  0  0
 28 33  1  0  0  0  0
 18 23  1  0  0  0  0
  8 13  1  0  0  0  0
 37 39  1  0  0  0  0
  7 12  1  0  0  0  0
 27 32  1  0  0  0  0
 17 22  1  0  0  0  0
M  END
$$$$

  -OEChem-05262214473D

 42 41  0     1  0  0  0  0  0999 V2000
   -5.7851   -0.9580    0.6237 C   0  0  0  0  0  0  0  0  0  0  0  0
   -6.2213    0.1296    0.2652 O   0  0  0  0  0  0  0  0  0  0  0  0
   -6.7088   -2.1270    0.7168 C   0  0  0  0  0  0  0  0  0  0  0  0
   -7.1713   -2.2193    1.7126 H   0  0  0  0  0  0  0  0  0  0  0  0
   -7.5511   -2.0547    0.0101 H   0  0  0  0  0  0  0  0  0  0  0  0
   -6.2485   -3.1083    0.5191 H   0  0  0  0  0  0  0  0  0  0  0  0
   -4.4733   -1.2411    0.9668 N   0  0  0  0  0  0  0  0  0  0  0  0
   -3.4203   -0.2603    0.9449 C   0  0  2  0  0  0  0  0  0  0  0  0
   -2.1242   -0.9699    0.5759 C   0  0  0  0  0  0  0  0  0  0  0  0
   -1.8694   -2.1225    0.9189 O   0  0  0  0  0  0  0  0  0  0  0  0
   -3.2916    0.4435    2.2868 C   0  0  0  0  0  0  0  0  0  0  0  0
   -4.2421   -2.1920    1.2489 H   0  0  0  0  0  0  0  0  0  0  0  0
   -3.6772    0.4622    0.1625 H   0  0  0  0  0  0  0  0  0  0  0  0
   -3.0345   -0.2644    3.0832 H   0  0  0  0  0  0  0  0  0  0  0  0
   -2.5093    1.2092    2.2599 H   0  0  0  0  0  0  0  0  0  0  0  0
   -4.2338    0.9283    2.5645 H   0  0  0  0  0  0  0  0  0  0  0  0
   -1.2626   -0.1515   -0.1463 N   0  0  0  0  0  0  0  0  0  0  0  0
    0.0431   -0.5785   -0.5755 C   0  0  2  0  0  0  0  0  0  0  0  0
    0.2499   -2.0102   -0.0991 C   0  0  0  0  0  0  0  0  0  0  0  0
   -0.3187   -2.9747   -0.6065 O   0  0  0  0  0  0  0  0  0  0  0  0
    1.1302    0.3369   -0.0342 C   0  0  0  0  0  0  0  0  0  0  0  0
   -1.5766    0.7776   -0.4197 H   0  0  0  0  0  0  0  0  0  0  0  0
    0.0397   -0.5543   -1.6707 H   0  0  0  0  0  0  0  0  0  0  0  0
    1.1491    0.3258    1.0617 H   0  0  0  0  0  0  0  0  0  0  0  0
    2.1204    0.0275   -0.3849 H   0  0  0  0  0  0  0  0  0  0  0  0
    0.9633    1.3714   -0.3533 H   0  0  0  0  0  0  0  0  0  0  0  0
    1.1121   -2.0839    0.9894 N   0  0  0  0  0  0  0  0  0  0  0  0
    1.4342   -3.3226    1.6477 C   0  0  2  0  0  0  0  0  0  0  0  0
    1.6674   -3.0244    3.1229 C   0  0  0  0  0  0  0  0  0  0  0  0
    2.1721   -1.9778    3.5241 O   0  0  0  0  0  0  0  0  0  0  0  0
    2.6574   -3.9780    1.0256 C   0  0  0  0  0  0  0  0  0  0  0  0
    1.5685   -1.2347    1.3168 H   0  0  0  0  0  0  0  0  0  0  0  0
    0.5605   -3.9745    1.5399 H   0  0  0  0  0  0  0  0  0  0  0  0
    3.5429   -3.3394    1.1239 H   0  0  0  0  0  0  0  0  0  0  0  0
    2.8841   -4.9341    1.5088 H   0  0  0  0  0  0  0  0  0  0  0  0
    2.4990   -4.1645   -0.0421 H   0  0  0  0  0  0  0  0  0  0  0  0
    1.2853   -4.0824    3.9359 N   0  0  0  0  0  0  0  0  0  0  0  0
    1.4459   -4.0603    5.3710 C   0  0  0  0  0  0  0  0  0  0  0  0
    0.8387   -4.8951    3.5214 H   0  0  0  0  0  0  0  0  0  0  0  0
    2.4115   -4.5136    5.6395 H   0  0  0  0  0  0  0  0  0  0  0  0
    1.4179   -3.0198    5.7270 H   0  0  0  0  0  0  0  0  0  0  0  0
    0.6304   -4.6303    5.8399 H   0  0  0  0  0  0  0  0  0  0  0  0
  1  3  1  0  0  0  0
  1  7  1  0  0  0  0
  1  2  2  0  0  0  0
 28 29  1  0  0  0  0
 29 37  1  0  0  0  0
 29 30  2  0  0  0  0
 18 19  1  0  0  0  0
 19 27  1  0  0  0  0
 19 20  2  0  0  0  0
  8  9  1  0  0  0  0
  9 17  1  0  0  0  0
  9 10  2  0  0  0  0
 28 31  1  0  0  0  0
 18 21  1  0  0  0  0
  8 11  1  0  0  0  0
 37 38  1  0  0  0  0
 27 28  1  0  0  0  0
 17 18  1  0  0  0  0
  7  8  1  0  0  0  0
  3  4  1  0  0  0  0
  3  5  1  0  0  0  0
  3  6  1  0  0  0  0
 31 34  1  0  0  0  0
 31 35  1  0  0  0  0
 31 36  1  0  0  0  0
 21 24  1  0  0  0  0
 21 25  1  0  0  0  0
 21 26  1  0  0  0  0
 11 14  1  0  0  0  0
 11 15  1  0  0  0  0
 11 16  1  0  0  0  0
 38 40  1  0  0  0  0
 38 41  1  0  0  0  0
 38 42  1  0  0  0  0
 28 33  1  0  0  0  0
 18 23  1  0  0  0  0
  8 13  1  0  0  0  0
 37 39  1  0  0  0  0
  7 12  1  0  0  0  0
 27 32  1  0  0  0  0
 17 22  1  0  0  0  0
M  END
$$$$

  -OEChem-05262214473D

 42 41  0     1  0  0  0  0  0999 V2000
   -5.7851   -0.9580    0.6237 C   0  0  0  0  0  0  0  0  0  0  0  0
   -6.2213    0.1296    0.2652 O   0  0  0  0  0  0  0  0  0  0  0  0
   -6.7088   -2.1270    0.7168 C   0  0  0  0  0  0  0  0  0  0  0  0
   -7.1713   -2.2193    1.7126 H   0  0  0  0  0  0  0  0  0  0  0  0
   -7.5511   -2.0547    0.0101 H   0  0  0  0  0  0  0  0  0  0  0  0
   -6.2485   -3.1083    0.5191 H   0  0  0  0  0  0  0  0  0  0  0  0
   -4.4733   -1.2411    0.9668 N   0  0  0  0  0  0  0  0  0  0  0  0
   -3.4203   -0.2603    0.9449 C   0  0  2  0  0  0  0  0  0  0  0  0
   -2.1242   -0.9699    0.5759 C   0  0  0  0  0  0  0  0  0  0  0  0
   -1.8694   -2.1225    0.9189 O   0  0  0  0  0  0  0  0  0  0  0  0
   -3.2916    0.4435    2.2868 C   0  0  0  0  0  0  0  0  0  0  0  0
   -4.2421   -2.1920    1.2489 H   0  0  0  0  0  0  0  0  0  0  0  0
   -3.6772    0.4622    0.1625 H   0  0  0  0  0  0  0  0  0  0  0  0
   -3.0345   -0.2644    3.0832 H   0  0  0  0  0  0  0  0  0  0  0  0
   -2.5093    1.2092    2.2599 H   0  0  0  0  0  0  0  0  0  0  0  0
   -4.2338    0.9283    2.5645 H   0  0  0  0  0  0  0  0  0  0  0  0
   -1.2626   -0.1515   -0.1463 N   0  0  0  0  0  0  0  0  0  0  0  0
    0.0431   -0.5785   -0.5755 C   0  0  2  0  0  0  0  0  0  0  0  0
    0.2499   -2.0102   -0.0991 C   0  0  0  0  0  0  0  0  0  0  0  0
   -0.0947   -2.9915   -0.7543 O   0  0  0  0  0  0  0  0  0  0  0  0
    1.1302    0.3369   -0.0342 C   0  0  0  0  0  0  0  0  0  0  0  0
   -1.5766    0.7776   -0.4197 H   0  0  0  0  0  0  0  0  0  0  0  0
    0.0397   -0.5543   -1.6707 H   0  0  0  0  0  0  0  0  0  0  0  0
    1.1491    0.3258    1.0617 H   0  0  0  0  0  0  0  0  0  0  0  0
    2.1204    0.0275   -0.3849 H   0  0  0  0  0  0  0  0  0  0  0  0
    0.9633    1.3714   -0.3533 H   0  0  0  0  0  0  0  0  0  0  0  0
    0.8263   -2.0667    1.1651 N   0  0  0  0  0  0  0  0  0  0  0  0
    1.0841   -3.3055    1.8509 C   0  0  2  0  0  0  0  0  0  0  0  0
    0.9273   -3.0573    3.3453 C   0  0  0  0  0  0  0  0  0  0  0  0
    1.2288   -1.9943    3.8840 O   0  0  0  0  0  0  0  0  0  0  0  0
    2.4727   -3.8365    1.5308 C   0  0  0  0  0  0  0  0  0  0  0  0
    1.1158   -1.2007    1.6155 H   0  0  0  0  0  0  0  0  0  0  0  0
    0.3213   -4.0169    1.5162 H   0  0  0  0  0  0  0  0  0  0  0  0
    3.2504   -3.1371    1.8589 H   0  0  0  0  0  0  0  0  0  0  0  0
    2.6566   -4.7933    2.0306 H   0  0  0  0  0  0  0  0  0  0  0  0
    2.5938   -3.9862    0.4525 H   0  0  0  0  0  0  0  0  0  0  0  0
    0.4516   -4.1771    4.0132 N   0  0  0  0  0  0  0  0  0  0  0  0
    0.2578   -4.2076    5.4441 C   0  0  0  0  0  0  0  0  0  0  0  0
    0.1895   -5.0021    3.4817 H   0  0  0  0  0  0  0  0  0  0  0  0
    1.1649   -4.5973    5.9292 H   0  0  0  0  0  0  0  0  0  0  0  0
    0.0559   -3.1895    5.8084 H   0  0  0  0  0  0  0  0  0  0  0  0
   -0.5952   -4.8590    5.6847 H   0  0  0  0  0  0  0  0  0  0  0  0
  1  3  1  0  0  0  0
  1  7  1  0  0  0  0
  1  2  2  0  0  0  0
 28 29  1  0  0  0  0
 29 37  1  0  0  0  0
 29 30  2  0  0  0  0
 18 19  1  0  0  0  0
 19 27  1  0  0  0  0
 19 20  2  0  0  0  0
  8  9  1  0  0  0  0
  9 17  1  0  0  0  0
  9 10  2  0  0  0  0
 28 31  1  0  0  0  0
 18 21  1  0  0  0  0
  8 11  1  0  0  0  0
 37 38  1  0  0  0  0
 27 28  1  0  0  0  0
 17 18  1  0  0  0  0
  7  8  1  0  0  0  0
  3  4  1  0  0  0  0
  3  5  1  0  0  0  0
  3  6  1  0  0  0  0
 31 34  1  0  0  0  0
 31 35  1  0  0  0  0
 31 36  1  0  0  0  0
 21 24  1  0  0  0  0
 21 25  1  0  0  0  0
 21 26  1  0  0  0  0
 11 14  1  0  0  0  0
 11 15  1  0  0  0  0
 11 16  1  0  0  0  0
 38 40  1  0  0  0  0
 38 41  1  0  0  0  0
 38 42  1  0  0  0  0
 28 33  1  0  0  0  0
 18 23  1  0  0  0  0
  8 13  1  0  0  0  0
 37 39  1  0  0  0  0
  7 12  1  0  0  0  0
 27 32  1  0  0  0  0
 17 22  1  0  0  0  0
M  END
$$$$

  -OEChem-05262214473D

 42 41  0     1  0  0  0  0  0999 V2000
   -5.7851   -0.9580    0.6237 C   0  0  0  0  0  0  0  0  0  0  0  0
   -6.2213    0.1296    0.2652 O   0  0  0  0  0  0  0  0  0  0  0  0
   -6.7088   -2.1270    0.7168 C   0  0  0  0  0  0  0  0  0  0  0  0
   -7.1713   -2.2193    1.7126 H   0  0  0  0  0  0  0  0  0  0  0  0
   -7.5511   -2.0547    0.0101 H   0  0  0  0  0  0  0  0  0  0  0  0
   -6.2485   -3.1083    0.5191 H   0  0  0  0  0  0  0  0  0  0  0  0
   -4.4733   -1.2411    0.9668 N   0  0  0  0  0  0  0  0  0  0  0  0
   -3.4203   -0.2603    0.9449 C   0  0  2  0  0  0  0  0  0  0  0  0
   -2.1242   -0.9699    0.5759 C   0  0  0  0  0  0  0  0  0  0  0  0
   -1.8694   -2.1225    0.9189 O   0  0  0  0  0  0  0  0  0  0  0  0
   -3.2916    0.4435    2.2868 C   0  0  0  0  0  0  0  0  0  0  0  0
   -4.2421   -2.1920    1.2489 H   0  0  0  0  0  0  0  0  0  0  0  0
   -3.6772    0.4622    0.1625 H   0  0  0  0  0  0  0  0  0  0  0  0
   -3.0345   -0.2644    3.0832 H   0  0  0  0  0  0  0  0  0  0  0  0
   -2.5093    1.2092    2.2599 H   0  0  0  0  0  0  0  0  0  0  0  0
   -4.2338    0.9283    2.5645 H   0  0  0  0  0  0  0  0  0  0  0  0
   -1.2626   -0.1515   -0.1463 N   0  0  0  0  0  0  0  0  0  0  0  0
    0.0431   -0.5785   -0.5755 C   0  0  2  0  0  0  0  0  0  0  0  0
    0.2499   -2.0102   -0.0991 C   0  0  0  0  0  0  0  0  0  0  0  0
    0.1590   -2.9844   -0.8432 O   0  0  0  0  0  0  0  0  0  0  0  0
    1.1302    0.3369   -0.0342 C   0  0  0  0  0  0  0  0  0  0  0  0
   -1.5766    0.7776   -0.4197 H   0  0  0  0  0  0  0  0  0  0  0  0
    0.0397   -0.5543   -1.6707 H   0  0  0  0  0  0  0  0  0  0  0  0
    1.1491    0.3258    1.0617 H   0  0  0  0  0  0  0  0  0  0  0  0
    2.1204    0.0275   -0.3849 H   0  0  0  0  0  0  0  0  0  0  0  0
    0.9633    1.3714   -0.3533 H   0  0  0  0  0  0  0  0  0  0  0  0
    0.5061   -2.0794    1.2659 N   0  0  0  0  0  0  0  0  0  0  0  0
    0.6951   -3.3245    1.9625 C   0  0  2  0  0  0  0  0  0  0  0  0
    0.1609   -3.1569    3.3789 C   0  0  0  0  0  0  0  0  0  0  0  0
    0.2314   -2.0993    4.0015 O   0  0  0  0  0  0  0  0  0  0  0  0
    2.1600   -3.7326    1.9789 C   0  0  0  0  0  0  0  0  0  0  0  0
    0.6031   -1.2150    1.7950 H   0  0  0  0  0  0  0  0  0  0  0  0
    0.0994   -4.0765    1.4336 H   0  0  0  0  0  0  0  0  0  0  0  0
    2.7726   -2.9912    2.5047 H   0  0  0  0  0  0  0  0  0  0  0  0
    2.2984   -4.6941    2.4843 H   0  0  0  0  0  0  0  0  0  0  0  0
    2.5506   -3.8237    0.9596 H   0  0  0  0  0  0  0  0  0  0  0  0
   -0.3649   -4.3388    3.8817 N   0  0  0  0  0  0  0  0  0  0  0  0
   -0.8956   -4.4486    5.2204 C   0  0  0  0  0  0  0  0  0  0  0  0
   -0.4193   -5.1566    3.2817 H   0  0  0  0  0  0  0  0  0  0  0  0
   -0.1030   -4.7892    5.9029 H   0  0  0  0  0  0  0  0  0  0  0  0
   -1.2658   -3.4665    5.5497 H   0  0  0  0  0  0  0  0  0  0  0  0
   -1.7228   -5.1737    5.2284 H   0  0  0  0  0  0  0  0  0  0  0  0
  1  3  1  0  0  0  0
  1  7  1  0  0  0  0
  1  2  2  0  0  0  0
 28 29  1  0  0  0  0
 29 37  1  0  0  0  0
 29 30  2  0  0  0  0
 18 19  1  0  0  0  0
 19 27  1  0  0  0  0
 19 20  2  0  0  0  0
  8  9  1  0  0  0  0
  9 17  1  0  0  0  0
  9 10  2  0  0  0  0
 28 31  1  0  0  0  0
 18 21  1  0  0  0  0
  8 11  1  0  0  0  0
 37 38  1  0  0  0  0
 27 28  1  0  0  0  0
 17 18  1  0  0  0  0
  7  8  1  0  0  0  0
  3  4  1  0  0  0  0
  3  5  1  0  0  0  0
  3  6  1  0  0  0  0
 31 34  1  0  0  0  0
 31 35  1  0  0  0  0
 31 36  1  0  0  0  0
 21 24  1  0  0  0  0
 21 25  1  0  0  0  0
 21 26  1  0  0  0  0
 11 14  1  0  0  0  0
 11 15  1  0  0  0  0
 11 16  1  0  0  0  0
 38 40  1  0  0  0  0
 38 41  1  0  0  0  0
 38 42  1  0  0  0  0
 28 33  1  0  0  0  0
 18 23  1  0  0  0  0
  8 13  1  0  0  0  0
 37 39  1  0  0  0  0
  7 12  1  0  0  0  0
 27 32  1  0  0  0  0
 17 22  1  0  0  0  0
M  END
$$$$

  -OEChem-05262214473D

 42 41  0     1  0  0  0  0  0999 V2000
   -5.7851   -0.9580    0.6237 C   0  0  0  0  0  0  0  0  0  0  0  0
   -6.2213    0.1296    0.2652 O   0  0  0  0  0  0  0  0  0  0  0  0
   -6.7088   -2.1270    0.7168 C   0  0  0  0  0  0  0  0  0  0  0  0
   -7.1713   -2.2193    1.7126 H   0  0  0  0  0  0  0  0  0  0  0  0
   -7.5511   -2.0547    0.0101 H   0  0  0  0  0  0  0  0  0  0  0  0
   -6.2485   -3.1083    0.5191 H   0  0  0  0  0  0  0  0  0  0  0  0
   -4.4733   -1.2411    0.9668 N   0  0  0  0  0  0  0  0  0  0  0  0
   -3.4203   -0.2603    0.9449 C   0  0  2  0  0  0  0  0  0  0  0  0
   -2.1242   -0.9699    0.5759 C   0  0  0  0  0  0  0  0  0  0  0  0
   -1.8694   -2.1225    0.9189 O   0  0  0  0  0  0  0  0  0  0  0  0
   -3.2916    0.4435    2.2868 C   0  0  0  0  0  0  0  0  0  0  0  0
   -4.2421   -2.1920    1.2489 H   0  0  0  0  0  0  0  0  0  0  0  0
   -3.6772    0.4622    0.1625 H   0  0  0  0  0  0  0  0  0  0  0  0
   -3.0345   -0.2644    3.0832 H   0  0  0  0  0  0  0  0  0  0  0  0
   -2.5093    1.2092    2.2599 H   0  0  0  0  0  0  0  0  0  0  0  0
   -4.2338    0.9283    2.5645 H   0  0  0  0  0  0  0  0  0  0  0  0
   -1.2626   -0.1515   -0.1463 N   0  0  0  0  0  0  0  0  0  0  0  0
    0.0431   -0.5785   -0.5755 C   0  0  2  0  0  0  0  0  0  0  0  0
    0.2499   -2.0102   -0.0991 C   0  0  0  0  0  0  0  0  0  0  0  0
    0.4252   -2.9539   -0.8670 O   0  0  0  0  0  0  0  0  0  0  0  0
    1.1302    0.3369   -0.0342 C   0  0  0  0  0  0  0  0  0  0  0  0
   -1.5766    0.7776   -0.4197 H   0  0  0  0  0  0  0  0  0  0  0  0
    0.0397   -0.5543   -1.6707 H   0  0  0  0  0  0  0  0  0  0  0  0
    1.1491    0.3258    1.0617 H   0  0  0  0  0  0  0  0  0  0  0  0
    2.1204    0.0275   -0.3849 H   0  0  0  0  0  0  0  0  0  0  0  0
    0.9633    1.3714   -0.3533 H   0  0  0  0  0  0  0  0  0  0  0  0
    0.1733   -2.1211    1.2849 N   0  0  0  0  0  0  0  0  0  0  0  0
    0.2937   -3.3783    1.9751 C   0  0  2  0  0  0  0  0  0  0  0  0
   -0.5795   -3.3162    3.2214 C   0  0  0  0  0  0  0  0  0  0  0  0
   -0.7522   -2.2856    3.8687 O   0  0  0  0  0  0  0  0  0  0  0  0
    1.7405   -3.6733    2.3392 C   0  0  0  0  0  0  0  0  0  0  0  0
    0.0653   -1.2766    1.8432 H   0  0  0  0  0  0  0  0  0  0  0  0
   -0.0900   -4.1490    1.2977 H   0  0  0  0  0  0  0  0  0  0  0  0
    2.1422   -2.9117    3.0175 H   0  0  0  0  0  0  0  0  0  0  0  0
    1.8341   -4.6432    2.8388 H   0  0  0  0  0  0  0  0  0  0  0  0
    2.3723   -3.6881    1.4446 H   0  0  0  0  0  0  0  0  0  0  0  0
   -1.1085   -4.5564    3.5503 N   0  0  0  0  0  0  0  0  0  0  0  0
   -1.9359   -4.7670    4.7153 C   0  0  0  0  0  0  0  0  0  0  0  0
   -0.9462   -5.3480    2.9349 H   0  0  0  0  0  0  0  0  0  0  0  0
   -1.3057   -5.0763    5.5622 H   0  0  0  0  0  0  0  0  0  0  0  0
   -2.4570   -3.8320    4.9685 H   0  0  0  0  0  0  0  0  0  0  0  0
   -2.6754   -5.5529    4.5024 H   0  0  0  0  0  0  0  0  0  0  0  0
  1  3  1  0  0  0  0
  1  7  1  0  0  0  0
  1  2  2  0  0  0  0
 28 29  1  0  0  0  0
 29 37  1  0  0  0  0
 29 30  2  0  0  0  0
 18 19  1  0  0  0  0
 19 27  1  0  0  0  0
 19 20  2  0  0  0  0
  8  9  1  0  0  0  0
  9 17  1  0  0  0  0
  9 10  2  0  0  0  0
 28 31  1  0  0  0  0
 18 21  1  0  0  0  0
  8 11  1  0  0  0  0
 37 38  1  0  0  0  0
 27 28  1  0  0  0  0
 17 18  1  0  0  0  0
  7  8  1  0  0  0  0
  3  4  1  0  0  0  0
  3  5  1  0  0  0  0
  3  6  1  0  0  0  0
 31 34  1  0  0  0  0
 31 35  1  0  0  0  0
 31 36  1  0  0  0  0
 21 24  1  0  0  0  0
 21 25  1  0  0  0  0
 21 26  1  0  0  0  0
 11 14  1  0  0  0  0
 11 15  1  0  0  0  0
 11 16  1  0  0  0  0
 38 40  1  0  0  0  0
 38 41  1  0  0  0  0
 38 42  1  0  0  0  0
 28 33  1  0  0  0  0
 18 23  1  0  0  0  0
  8 13  1  0  0  0  0
 37 39  1  0  0  0  0
  7 12  1  0  0  0  0
 27 32  1  0  0  0  0
 17 22  1  0  0  0  0
M  END
$$$$

  -OEChem-05262214473D

 42 41  0     1  0  0  0  0  0999 V2000
   -5.7851   -0.9580    0.6237 C   0  0  0  0  0  0  0  0  0  0  0  0
   -6.2213    0.1296    0.2652 O   0  0  0  0  0  0  0  0  0  0  0  0
   -6.7088   -2.1270    0.7168 C   0  0  0  0  0  0  0  0  0  0  0  0
   -7.1713   -2.2193    1.7126 H   0  0  0  0  0  0  0  0  0  0  0  0
   -7.5511   -2.0547    0.0101 H   0  0  0  0  0  0  0  0  0  0  0  0
   -6.2485   -3.1083    0.5191 H   0  0  0  0  0  0  0  0  0  0  0  0
   -4.4733   -1.2411    0.9668 N   0  0  0  0  0  0  0  0  0  0  0  0
   -3.4203   -0.2603    0.9449 C   0  0  2  0  0  0  0  0  0  0  0  0
   -2.1242   -0.9699    0.5759 C   0  0  0  0  0  0  0  0  0  0  0  0
   -1.8694   -2.1225    0.9189 O   0  0  0  0  0  0  0  0  0  0  0  0
   -3.2916    0.4435    2.2868 C   0  0  0  0  0  0  0  0  0  0  0  0
   -4.2421   -2.1920    1.2489 H   0  0  0  0  0  0  0  0  0  0  0  0
   -3.6772    0.4622    0.1625 H   0  0  0  0  0  0  0  0  0  0  0  0
   -3.0345   -0.2644    3.0832 H   0  0  0  0  0  0  0  0  0  0  0  0
   -2.5093    1.2092    2.2599 H   0  0  0  0  0  0  0  0  0  0  0  0
   -4.2338    0.9283    2.5645 H   0  0  0  0  0  0  0  0  0  0  0  0
   -1.2626   -0.1515   -0.1463 N   0  0  0  0  0  0  0  0  0  0  0  0
    0.0431   -0.5785   -0.5755 C   0  0  2  0  0  0  0  0  0  0  0  0
    0.2499   -2.0102   -0.0991 C   0  0  0  0  0  0  0  0  0  0  0  0
    0.6855   -2.9021   -0.8242 O   0  0  0  0  0  0  0  0  0  0  0  0
    1.1302    0.3369   -0.0342 C   0  0  0  0  0  0  0  0  0  0  0  0
   -1.5766    0.7776   -0.4197 H   0  0  0  0  0  0  0  0  0  0  0  0
    0.0397   -0.5543   -1.6707 H   0  0  0  0  0  0  0  0  0  0  0  0
    1.1491    0.3258    1.0617 H   0  0  0  0  0  0  0  0  0  0  0  0
    2.1204    0.0275   -0.3849 H   0  0  0  0  0  0  0  0  0  0  0  0
    0.9633    1.3714   -0.3533 H   0  0  0  0  0  0  0  0  0  0  0  0
   -0.1494   -2.1891    1.2208 N   0  0  0  0  0  0  0  0  0  0  0  0
   -0.0927   -3.4632    1.8877 C   0  0  2  0  0  0  0  0  0  0  0  0
   -1.2434   -3.5245    2.8835 C   0  0  0  0  0  0  0  0  0  0  0  0
   -1.6548   -2.5405    3.4945 O   0  0  0  0  0  0  0  0  0  0  0  0
    1.2428   -3.6626    2.5873 C   0  0  0  0  0  0  0  0  0  0  0  0
   -0.4609   -1.3814    1.7568 H   0  0  0  0  0  0  0  0  0  0  0  0
   -0.2340   -4.2297    1.1178 H   0  0  0  0  0  0  0  0  0  0  0  0
    1.4020   -2.9039    3.3622 H   0  0  0  0  0  0  0  0  0  0  0  0
    1.2952   -4.6441    3.0701 H   0  0  0  0  0  0  0  0  0  0  0  0
    2.0711   -3.5886    1.8744 H   0  0  0  0  0  0  0  0  0  0  0  0
   -1.7285   -4.8152    3.0417 N   0  0  0  0  0  0  0  0  0  0  0  0
   -2.7920   -5.1409    3.9630 C   0  0  0  0  0  0  0  0  0  0  0  0
   -1.3552   -5.5635    2.4650 H   0  0  0  0  0  0  0  0  0  0  0  0
   -2.3613   -5.4390    4.9303 H   0  0  0  0  0  0  0  0  0  0  0  0
   -3.4367   -4.2610    4.1044 H   0  0  0  0  0  0  0  0  0  0  0  0
   -3.3883   -5.9708    3.5559 H   0  0  0  0  0  0  0  0  0  0  0  0
  1  3  1  0  0  0  0
  1  7  1  0  0  0  0
  1  2  2  0  0  0  0
 28 29  1  0  0  0  0
 29 37  1  0  0  0  0
 29 30  2  0  0  0  0
 18 19  1  0  0  0  0
 19 27  1  0  0  0  0
 19 20  2  0  0  0  0
  8  9  1  0  0  0  0
  9 17  1  0  0  0  0
  9 10  2  0  0  0  0
 28 31  1  0  0  0  0
 18 21  1  0  0  0  0
  8 11  1  0  0  0  0
 37 38  1  0  0  0  0
 27 28  1  0  0  0  0
 17 18  1  0  0  0  0
  7  8  1  0  0  0  0
  3  4  1  0  0  0  0
  3  5  1  0  0  0  0
  3  6  1  0  0  0  0
 31 34  1  0  0  0  0
 31 35  1  0  0  0  0
 31 36  1  0  0  0  0
 21 24  1  0  0  0  0
 21 25  1  0  0  0  0
 21 26  1  0  0  0  0
 11 14  1  0  0  0  0
 11 15  1  0  0  0  0
 11 16  1  0  0  0  0
 38 40  1  0  0  0  0
 38 41  1  0  0  0  0
 38 42  1  0  0  0  0
 28 33  1  0  0  0  0
 18 23  1  0  0  0  0
  8 13  1  0  0  0  0
 37 39  1  0  0  0  0
  7 12  1  0  0  0  0
 27 32  1  0  0  0  0
 17 22  1  0  0  0  0
M  END
$$$$

  -OEChem-05262214473D

 42 41  0     1  0  0  0  0  0999 V2000
   -5.7851   -0.9580    0.6237 C   0  0  0  0  0  0  0  0  0  0  0  0
   -6.2213    0.1296    0.2652 O   0  0  0  0  0  0  0  0  0  0  0  0
   -6.7088   -2.1270    0.7168 C   0  0  0  0  0  0  0  0  0  0  0  0
   -7.1713   -2.2193    1.7126 H   0  0  0  0  0  0  0  0  0  0  0  0
   -7.5511   -2.0547    0.0101 H   0  0  0  0  0  0  0  0  0  0  0  0
   -6.2485   -3.1083    0.5191 H   0  0  0  0  0  0  0  0  0  0  0  0
   -4.4733   -1.2411    0.9668 N   0  0  0  0  0  0  0  0  0  0  0  0
   -3.4203   -0.2603    0.9449 C   0  0  2  0  0  0  0  0  0  0  0  0
   -2.1242   -0.9699    0.5759 C   0  0  0  0  0  0  0  0  0  0  0  0
   -1.8694   -2.1225    0.9189 O   0  0  0  0  0  0  0  0  0  0  0  0
   -3.2916    0.4435    2.2868 C   0  0  0  0  0  0  0  0  0  0  0  0
   -4.2421   -2.1920    1.2489 H   0  0  0  0  0  0  0  0  0  0  0  0
   -3.6772    0.4622    0.1625 H   0  0  0  0  0  0  0  0  0  0  0  0
   -3.0345   -0.2644    3.0832 H   0  0  0  0  0  0  0  0  0  0  0  0
   -2.5093    1.2092    2.2599 H   0  0  0  0  0  0  0  0  0  0  0  0
   -4.2338    0.9283    2.5645 H   0  0  0  0  0  0  0  0  0  0  0  0
   -1.2626   -0.1515   -0.1463 N   0  0  0  0  0  0  0  0  0  0  0  0
    0.0431   -0.5785   -0.5755 C   0  0  2  0  0  0  0  0  0  0  0  0
    0.2499   -2.0102   -0.0991 C   0  0  0  0  0  0  0  0  0  0  0  0
    0.9224   -2.8324   -0.7177 O   0  0  0  0  0  0  0  0  0  0  0  0
    1.1302    0.3369   -0.0342 C   0  0  0  0  0  0  0  0  0  0  0  0
   -1.5766    0.7776   -0.4197 H   0  0  0  0  0  0  0  0  0  0  0  0
    0.0397   -0.5543   -1.6707 H   0  0  0  0  0  0  0  0  0  0  0  0
    1.1491    0.3258    1.0617 H   0  0  0  0  0  0  0  0  0  0  0  0
    2.1204    0.0275   -0.3849 H   0  0  0  0  0  0  0  0  0  0  0  0
    0.9633    1.3714   -0.3533 H   0  0  0  0  0  0  0  0  0  0  0  0
   -0.4401   -2.2786    1.0780 N   0  0  0  0  0  0  0  0  0  0  0  0
   -0.4378   -3.5735    1.7062 C   0  0  2  0  0  0  0  0  0  0  0  0
   -1.7856   -3.7677    2.3883 C   0  0  0  0  0  0  0  0  0  0  0  0
   -2.4150   -2.8466    2.9046 O   0  0  0  0  0  0  0  0  0  0  0  0
    0.7008   -3.7014    2.7062 C   0  0  0  0  0  0  0  0  0  0  0  0
   -0.9396   -1.5222    1.5416 H   0  0  0  0  0  0  0  0  0  0  0  0
   -0.3227   -4.3129    0.9062 H   0  0  0  0  0  0  0  0  0  0  0  0
    0.6026   -2.9684    3.5153 H   0  0  0  0  0  0  0  0  0  0  0  0
    0.7184   -4.6967    3.1623 H   0  0  0  0  0  0  0  0  0  0  0  0
    1.6675   -3.5319    2.2198 H   0  0  0  0  0  0  0  0  0  0  0  0
   -2.1826   -5.0975    2.3905 N   0  0  0  0  0  0  0  0  0  0  0  0
   -3.4056   -5.5450    3.0150 C   0  0  0  0  0  0  0  0  0  0  0  0
   -1.6185   -5.7882    1.9041 H   0  0  0  0  0  0  0  0  0  0  0  0
   -3.1979   -5.8527    4.0505 H   0  0  0  0  0  0  0  0  0  0  0  0
   -4.1381   -4.7244    3.0163 H   0  0  0  0  0  0  0  0  0  0  0  0
   -3.8127   -6.3989    2.4536 H   0  0  0  0  0  0  0  0  0  0  0  0
  1  3  1  0  0  0  0
  1  7  1  0  0  0  0
  1  2  2  0  0  0  0
 28 29  1  0  0  0  0
 29 37  1  0  0  0  0
 29 30  2  0  0  0  0
 18 19  1  0  0  0  0
 19 27  1  0  0  0  0
 19 20  2  0  0  0  0
  8  9  1  0  0  0  0
  9 17  1  0  0  0  0
  9 10  2  0  0  0  0
 28 31  1  0  0  0  0
 18 21  1  0  0  0  0
  8 11  1  0  0  0  0
 37 38  1  0  0  0  0
 27 28  1  0  0  0  0
 17 18  1  0  0  0  0
  7  8  1  0  0  0  0
  3  4  1  0  0  0  0
  3  5  1  0  0  0  0
  3  6  1  0  0  0  0
 31 34  1  0  0  0  0
 31 35  1  0  0  0  0
 31 36  1  0  0  0  0
 21 24  1  0  0  0  0
 21 25  1  0  0  0  0
 21 26  1  0  0  0  0
 11 14  1  0  0  0  0
 11 15  1  0  0  0  0
 11 16  1  0  0  0  0
 38 40  1  0  0  0  0
 38 41  1  0  0  0  0
 38 42  1  0  0  0  0
 28 33  1  0  0  0  0
 18 23  1  0  0  0  0
  8 13  1  0  0  0  0
 37 39  1  0  0  0  0
  7 12  1  0  0  0  0
 27 32  1  0  0  0  0
 17 22  1  0  0  0  0
M  END
$$$$

  -OEChem-05262214473D

 42 41  0     1  0  0  0  0  0999 V2000
   -5.7851   -0.9580    0.6237 C   0  0  0  0  0  0  0  0  0  0  0  0
   -6.2213    0.1296    0.2652 O   0  0  0  0  0  0  0  0  0  0  0  0
   -6.7088   -2.1270    0.7168 C   0  0  0  0  0  0  0  0  0  0  0  0
   -7.1713   -2.2193    1.7126 H   0  0  0  0  0  0  0  0  0  0  0  0
   -7.5511   -2.0547    0.0101 H   0  0  0  0  0  0  0  0  0  0  0  0
   -6.2485   -3.1083    0.5191 H   0  0  0  0  0  0  0  0  0  0  0  0
   -4.4733   -1.2411    0.9668 N   0  0  0  0  0  0  0  0  0  0  0  0
   -3.4203   -0.2603    0.9449 C   0  0  2  0  0  0  0  0  0  0  0  0
   -2.1242   -0.9699    0.5759 C   0  0  0  0  0  0  0  0  0  0  0  0
   -1.8694   -2.1225    0.9189 O   0  0  0  0  0  0  0  0  0  0  0  0
   -3.2916    0.4435    2.2868 C   0  0  0  0  0  0  0  0  0  0  0  0
   -4.2421   -2.1920    1.2489 H   0  0  0  0  0  0  0  0  0  0  0  0
   -3.6772    0.4622    0.1625 H   0  0  0  0  0  0  0  0  0  0  0  0
   -3.0345   -0.2644    3.0832 H   0  0  0  0  0  0  0  0  0  0  0  0
   -2.5093    1.2092    2.2599 H   0  0  0  0  0  0  0  0  0  0  0  0
   -4.2338    0.9283    2.5645 H   0  0  0  0  0  0  0  0  0  0  0  0
   -1.2626   -0.1515   -0.1463 N   0  0  0  0  0  0  0  0  0  0  0  0
    0.0431   -0.5785   -0.5755 C   0  0  2  0  0  0  0  0  0  0  0  0
    0.2499   -2.0102   -0.0991 C   0  0  0  0  0  0  0  0  0  0  0  0
    1.1197   -2.7497   -0.5548 O   0  0  0  0  0  0  0  0  0  0  0  0
    1.1302    0.3369   -0.0342 C   0  0  0  0  0  0  0  0  0  0  0  0
   -1.5766    0.7776   -0.4197 H   0  0  0  0  0  0  0  0  0  0  0  0
    0.0397   -0.5543   -1.6707 H   0  0  0  0  0  0  0  0  0  0  0  0
    1.1491    0.3258    1.0617 H   0  0  0  0  0  0  0  0  0  0  0  0
    2.1204    0.0275   -0.3849 H   0  0  0  0  0  0  0  0  0  0  0  0
    0.9633    1.3714   -0.3533 H   0  0  0  0  0  0  0  0  0  0  0  0
   -0.6788   -2.3835    0.8662 N   0  0  0  0  0  0  0  0  0  0  0  0
   -0.7181   -3.7015    1.4432 C   0  0  2  0  0  0  0  0  0  0  0  0
   -2.1692   -4.0290    1.7694 C   0  0  0  0  0  0  0  0  0  0  0  0
   -2.9810   -3.1831    2.1390 O   0  0  0  0  0  0  0  0  0  0  0  0
    0.1515   -3.7868    2.6878 C   0  0  0  0  0  0  0  0  0  0  0  0
   -1.3382   -1.6893    1.2123 H   0  0  0  0  0  0  0  0  0  0  0  0
   -0.3503   -4.3931    0.6773 H   0  0  0  0  0  0  0  0  0  0  0  0
   -0.2016   -3.1008    3.4664 H   0  0  0  0  0  0  0  0  0  0  0  0
    0.1431   -4.7975    3.1092 H   0  0  0  0  0  0  0  0  0  0  0  0
    1.1891   -3.5220    2.4573 H   0  0  0  0  0  0  0  0  0  0  0  0
   -2.4400   -5.3841    1.6410 N   0  0  0  0  0  0  0  0  0  0  0  0
   -3.7349   -5.9517    1.9357 C   0  0  0  0  0  0  0  0  0  0  0  0
   -1.7182   -6.0068    1.2903 H   0  0  0  0  0  0  0  0  0  0  0  0
   -3.7584   -6.2890    2.9825 H   0  0  0  0  0  0  0  0  0  0  0  0
   -4.5133   -5.1905    1.7784 H   0  0  0  0  0  0  0  0  0  0  0  0
   -3.9198   -6.8081    1.2705 H   0  0  0  0  0  0  0  0  0  0  0  0
  1  3  1  0  0  0  0
  1  7  1  0  0  0  0
  1  2  2  0  0  0  0
 28 29  1  0  0  0  0
 29 37  1  0  0  0  0
 29 30  2  0  0  0  0
 18 19  1  0  0  0  0
 19 27  1  0  0  0  0
 19 20  2  0  0  0  0
  8  9  1  0  0  0  0
  9 17  1  0  0  0  0
  9 10  2  0  0  0  0
 28 31  1  0  0  0  0
 18 21  1  0  0  0  0
  8 11  1  0  0  0  0
 37 38  1  0  0  0  0
 27 28  1  0  0  0  0
 17 18  1  0  0  0  0
  7  8  1  0  0  0  0
  3  4  1  0  0  0  0
  3  5  1  0  0  0  0
  3  6  1  0  0  0  0
 31 34  1  0  0  0  0
 31 35  1  0  0  0  0
 31 36  1  0  0  0  0
 21 24  1  0  0  0  0
 21 25  1  0  0  0  0
 21 26  1  0  0  0  0
 11 14  1  0  0  0  0
 11 15  1  0  0  0  0
 11 16  1  0  0  0  0
 38 40  1  0  0  0  0
 38 41  1  0  0  0  0
 38 42  1  0  0  0  0
 28 33  1  0  0  0  0
 18 23  1  0  0  0  0
  8 13  1  0  0  0  0
 37 39  1  0  0  0  0
  7 12  1  0  0  0  0
 27 32  1  0  0  0  0
 17 22  1  0  0  0  0
M  END
$$$$

  -OEChem-05262214473D

 42 41  0     1  0  0  0  0  0999 V2000
   -5.7851   -0.9580    0.6237 C   0  0  0  0  0  0  0  0  0  0  0  0
   -6.2213    0.1296    0.2652 O   0  0  0  0  0  0  0  0  0  0  0  0
   -6.7088   -2.1270    0.7168 C   0  0  0  0  0  0  0  0  0  0  0  0
   -7.1713   -2.2193    1.7126 H   0  0  0  0  0  0  0  0  0  0  0  0
   -7.5511   -2.0547    0.0101 H   0  0  0  0  0  0  0  0  0  0  0  0
   -6.2485   -3.1083    0.5191 H   0  0  0  0  0  0  0  0  0  0  0  0
   -4.4733   -1.2411    0.9668 N   0  0  0  0  0  0  0  0  0  0  0  0
   -3.4203   -0.2603    0.9449 C   0  0  2  0  0  0  0  0  0  0  0  0
   -2.1242   -0.9699    0.5759 C   0  0  0  0  0  0  0  0  0  0  0  0
   -1.8694   -2.1225    0.9189 O   0  0  0  0  0  0  0  0  0  0  0  0
   -3.2916    0.4435    2.2868 C   0  0  0  0  0  0  0  0  0  0  0  0
   -4.2421   -2.1920    1.2489 H   0  0  0  0  0  0  0  0  0  0  0  0
   -3.6772    0.4622    0.1625 H   0  0  0  0  0  0  0  0  0  0  0  0
   -3.0345   -0.2644    3.0832 H   0  0  0  0  0  0  0  0  0  0  0  0
   -2.5093    1.2092    2.2599 H   0  0  0  0  0  0  0  0  0  0  0  0
   -4.2338    0.9283    2.5645 H   0  0  0  0  0  0  0  0  0  0  0  0
   -1.2626   -0.1515   -0.1463 N   0  0  0  0  0  0  0  0  0  0  0  0
    0.0431   -0.5785   -0.5755 C   0  0  2  0  0  0  0  0  0  0  0  0
    0.2499   -2.0102   -0.0991 C   0  0  0  0  0  0  0  0  0  0  0  0
    1.2639   -2.6596   -0.3465 O   0  0  0  0  0  0  0  0  0  0  0  0
    1.1302    0.3369   -0.0342 C   0  0  0  0  0  0  0  0  0  0  0  0
   -1.5766    0.7776   -0.4197 H   0  0  0  0  0  0  0  0  0  0  0  0
    0.0397   -0.5543   -1.6707 H   0  0  0  0  0  0  0  0  0  0  0  0
    1.1491    0.3258    1.0617 H   0  0  0  0  0  0  0  0  0  0  0  0
    2.1204    0.0275   -0.3849 H   0  0  0  0  0  0  0  0  0  0  0  0
    0.9633    1.3714   -0.3533 H   0  0  0  0  0  0  0  0  0  0  0  0
   -0.8493   -2.4968    0.5999 N   0  0  0  0  0  0  0  0  0  0  0  0
   -0.9144   -3.8386    1.1163 C   0  0  2  0  0  0  0  0  0  0  0  0
   -2.3680   -4.2907    1.0692 C   0  0  0  0  0  0  0  0  0  0  0  0
   -3.3142   -3.5271    1.2499 O   0  0  0  0  0  0  0  0  0  0  0  0
   -0.3677   -3.9132    2.5334 C   0  0  0  0  0  0  0  0  0  0  0  0
   -1.6297   -1.8715    0.7913 H   0  0  0  0  0  0  0  0  0  0  0  0
   -0.3147   -4.4647    0.4467 H   0  0  0  0  0  0  0  0  0  0  0  0
   -0.9558   -3.2921    3.2189 H   0  0  0  0  0  0  0  0  0  0  0  0
   -0.3915   -4.9395    2.9144 H   0  0  0  0  0  0  0  0  0  0  0  0
    0.6684   -3.5596    2.5706 H   0  0  0  0  0  0  0  0  0  0  0  0
   -2.4831   -5.6554    0.8444 N   0  0  0  0  0  0  0  0  0  0  0  0
   -3.7576   -6.3333    0.7989 C   0  0  0  0  0  0  0  0  0  0  0  0
   -1.6475   -6.2045    0.6654 H   0  0  0  0  0  0  0  0  0  0  0  0
   -4.0046   -6.7183    1.7992 H   0  0  0  0  0  0  0  0  0  0  0  0
   -4.5367   -5.6276    0.4750 H   0  0  0  0  0  0  0  0  0  0  0  0
   -3.7023   -7.1704    0.0873 H   0  0  0  0  0  0  0  0  0  0  0  0
  1  3  1  0  0  0  0
  1  7  1  0  0  0  0
  1  2  2  0  0  0  0
 28 29  1  0  0  0  0
 29 37  1  0  0  0  0
 29 30  2  0  0  0  0
 18 19  1  0  0  0  0
 19 27  1  0  0  0  0
 19 20  2  0  0  0  0
  8  9  1  0  0  0  0
  9 17  1  0  0  0  0
  9 10  2  0  0  0  0
 28 31  1  0  0  0  0
 18 21  1  0  0  0  0
  8 11  1  0  0  0  0
 37 38  1  0  0  0  0
 27 28  1  0  0  0  0
 17 18  1  0  0  0  0
  7  8  1  0  0  0  0
  3  4  1  0  0  0  0
  3  5  1  0  0  0  0
  3  6  1  0  0  0  0
 31 34  1  0  0  0  0
 31 35  1  0  0  0  0
 31 36  1  0  0  0  0
 21 24  1  0  0  0  0
 21 25  1  0  0  0  0
 21 26  1  0  0  0  0
 11 14  1  0  0  0  0
 11 15  1  0  0  0  0
 11 16  1  0  0  0  0
 38 40  1  0  0  0  0
 38 41  1  0  0  0  0
 38 42  1  0  0  0  0
 28 33  1  0  0  0  0
 18 23  1  0  0  0  0
  8 13  1  0  0  0  0
 37 39  1  0  0  0  0
  7 12  1  0  0  0  0
 27 32  1  0  0  0  0
 17 22  1  0  0  0  0
M  END
$$$$

  -OEChem-05262214473D

 42 41  0     1  0  0  0  0  0999 V2000
   -5.7851   -0.9580    0.6237 C   0  0  0  0  0  0  0  0  0  0  0  0
   -6.2213    0.1296    0.2652 O   0  0  0  0  0  0  0  0  0  0  0  0
   -6.7088   -2.1270    0.7168 C   0  0  0  0  0  0  0  0  0  0  0  0
   -7.1713   -2.2193    1.7126 H   0  0  0  0  0  0  0  0  0  0  0  0
   -7.5511   -2.0547    0.0101 H   0  0  0  0  0  0  0  0  0  0  0  0
   -6.2485   -3.1083    0.5191 H   0  0  0  0  0  0  0  0  0  0  0  0
   -4.4733   -1.2411    0.9668 N   0  0  0  0  0  0  0  0  0  0  0  0
   -3.4203   -0.2603    0.9449 C   0  0  2  0  0  0  0  0  0  0  0  0
   -2.1242   -0.9699    0.5759 C   0  0  0  0  0  0  0  0  0  0  0  0
   -1.8694   -2.1225    0.9189 O   0  0  0  0  0  0  0  0  0  0  0  0
   -3.2916    0.4435    2.2868 C   0  0  0  0  0  0  0  0  0  0  0  0
   -4.2421   -2.1920    1.2489 H   0  0  0  0  0  0  0  0  0  0  0  0
   -3.6772    0.4622    0.1625 H   0  0  0  0  0  0  0  0  0  0  0  0
   -3.0345   -0.2644    3.0832 H   0  0  0  0  0  0  0  0  0  0  0  0
   -2.5093    1.2092    2.2599 H   0  0  0  0  0  0  0  0  0  0  0  0
   -4.2338    0.9283    2.5645 H   0  0  0  0  0  0  0  0  0  0  0  0
   -1.2626   -0.1515   -0.1463 N   0  0  0  0  0  0  0  0  0  0  0  0
    0.0431   -0.5785   -0.5755 C   0  0  2  0  0  0  0  0  0  0  0  0
    0.2499   -2.0102   -0.0991 C   0  0  0  0  0  0  0  0  0  0  0  0
    1.3452   -2.5681   -0.1070 O   0  0  0  0  0  0  0  0  0  0  0  0
    1.1302    0.3369   -0.0342 C   0  0  0  0  0  0  0  0  0  0  0  0
   -1.5766    0.7776   -0.4197 H   0  0  0  0  0  0  0  0  0  0  0  0
    0.0397   -0.5543   -1.6707 H   0  0  0  0  0  0  0  0  0  0  0  0
    1.1491    0.3258    1.0617 H   0  0  0  0  0  0  0  0  0  0  0  0
    2.1204    0.0275   -0.3849 H   0  0  0  0  0  0  0  0  0  0  0  0
    0.9633    1.3714   -0.3533 H   0  0  0  0  0  0  0  0  0  0  0  0
   -0.9401   -2.6107    0.2971 N   0  0  0  0  0  0  0  0  0  0  0  0
   -1.0134   -3.9755    0.7481 C   0  0  2  0  0  0  0  0  0  0  0  0
   -2.3684   -4.5350    0.3352 C   0  0  0  0  0  0  0  0  0  0  0  0
   -3.3918   -3.8550    0.2980 O   0  0  0  0  0  0  0  0  0  0  0  0
   -0.8214   -4.0719    2.2536 C   0  0  0  0  0  0  0  0  0  0  0  0
   -1.7940   -2.0563    0.3074 H   0  0  0  0  0  0  0  0  0  0  0  0
   -0.2184   -4.5229    0.2300 H   0  0  0  0  0  0  0  0  0  0  0  0
   -1.6086   -3.5293    2.7896 H   0  0  0  0  0  0  0  0  0  0  0  0
   -0.8489   -5.1131    2.5912 H   0  0  0  0  0  0  0  0  0  0  0  0
    0.1409   -3.6419    2.5520 H   0  0  0  0  0  0  0  0  0  0  0  0
   -2.3089   -5.8929    0.0549 N   0  0  0  0  0  0  0  0  0  0  0  0
   -3.4719   -6.6637   -0.3182 C   0  0  0  0  0  0  0  0  0  0  0  0
   -1.4111   -6.3678    0.0722 H   0  0  0  0  0  0  0  0  0  0  0  0
   -3.9198   -7.1113    0.5813 H   0  0  0  0  0  0  0  0  0  0  0  0
   -4.2069   -6.0059   -0.8051 H   0  0  0  0  0  0  0  0  0  0  0  0
   -3.1750   -7.4611   -1.0154 H   0  0  0  0  0  0  0  0  0  0  0  0
  1  3  1  0  0  0  0
  1  7  1  0  0  0  0
  1  2  2  0  0  0  0
 28 29  1  0  0  0  0
 29 37  1  0  0  0  0
 29 30  2  0  0  0  0
 18 19  1  0  0  0  0
 19 27  1  0  0  0  0
 19 20  2  0  0  0  0
  8  9  1  0  0  0  0
  9 17  1  0  0  0  0
  9 10  2  0  0  0  0
 28 31  1  0  0  0  0
 18 21  1  0  0  0  0
  8 11  1  0  0  0  0
 37 38  1  0  0  0  0
 27 28  1  0  0  0  0
 17 18  1  0  0  0  0
  7  8  1  0  0  0  0
  3  4  1  0  0  0  0
  3  5  1  0  0  0  0
  3  6  1  0  0  0  0
 31 34  1  0  0  0  0
 31 35  1  0  0  0  0
 31 36  1  0  0  0  0
 21 24  1  0  0  0  0
 21 25  1  0  0  0  0
 21 26  1  0  0  0  0
 11 14  1  0  0  0  0
 11 15  1  0  0  0  0
 11 16  1  0  0  0  0
 38 40  1  0  0  0  0
 38 41  1  0  0  0  0
 38 42  1  0  0  0  0
 28 33  1  0  0  0  0
 18 23  1  0  0  0  0
  8 13  1  0  0  0  0
 37 39  1  0  0  0  0
  7 12  1  0  0  0  0
 27 32  1  0  0  0  0
 17 22  1  0  0  0  0
M  END
$$$$

  -OEChem-05262214473D

 42 41  0     1  0  0  0  0  0999 V2000
   -5.7851   -0.9580    0.6237 C   0  0  0  0  0  0  0  0  0  0  0  0
   -6.2213    0.1296    0.2652 O   0  0  0  0  0  0  0  0  0  0  0  0
   -6.7088   -2.1270    0.7168 C   0  0  0  0  0  0  0  0  0  0  0  0
   -7.1713   -2.2193    1.7126 H   0  0  0  0  0  0  0  0  0  0  0  0
   -7.5511   -2.0547    0.0101 H   0  0  0  0  0  0  0  0  0  0  0  0
   -6.2485   -3.1083    0.5191 H   0  0  0  0  0  0  0  0  0  0  0  0
   -4.4733   -1.2411    0.9668 N   0  0  0  0  0  0  0  0  0  0  0  0
   -3.4203   -0.2603    0.9449 C   0  0  2  0  0  0  0  0  0  0  0  0
   -2.1242   -0.9699    0.5759 C   0  0  0  0  0  0  0  0  0  0  0  0
   -1.8694   -2.1225    0.9189 O   0  0  0  0  0  0  0  0  0  0  0  0
   -3.2916    0.4435    2.2868 C   0  0  0  0  0  0  0  0  0  0  0  0
   -4.2421   -2.1920    1.2489 H   0  0  0  0  0  0  0  0  0  0  0  0
   -3.6772    0.4622    0.1625 H   0  0  0  0  0  0  0  0  0  0  0  0
   -3.0345   -0.2644    3.0832 H   0  0  0  0  0  0  0  0  0  0  0  0
   -2.5093    1.2092    2.2599 H   0  0  0  0  0  0  0  0  0  0  0  0
   -4.2338    0.9283    2.5645 H   0  0  0  0  0  0  0  0  0  0  0  0
   -1.2626   -0.1515   -0.1463 N   0  0  0  0  0  0  0  0  0  0  0  0
    0.0431   -0.5785   -0.5755 C   0  0  2  0  0  0  0  0  0  0  0  0
    0.2499   -2.0102   -0.0991 C   0  0  0  0  0  0  0  0  0  0  0  0
    1.3581   -2.4816    0.1473 O   0  0  0  0  0  0  0  0  0  0  0  0
    1.1302    0.3369   -0.0342 C   0  0  0  0  0  0  0  0  0  0  0  0
   -1.5766    0.7776   -0.4197 H   0  0  0  0  0  0  0  0  0  0  0  0
    0.0397   -0.5543   -1.6707 H   0  0  0  0  0  0  0  0  0  0  0  0
    1.1491    0.3258    1.0617 H   0  0  0  0  0  0  0  0  0  0  0  0
    2.1204    0.0275   -0.3849 H   0  0  0  0  0  0  0  0  0  0  0  0
    0.9633    1.3714   -0.3533 H   0  0  0  0  0  0  0  0  0  0  0  0
   -0.9449   -2.7174   -0.0214 N   0  0  0  0  0  0  0  0  0  0  0  0
   -1.0084   -4.1027    0.3634 C   0  0  2  0  0  0  0  0  0  0  0  0
   -2.1705   -4.7452   -0.3824 C   0  0  0  0  0  0  0  0  0  0  0  0
   -3.2087   -4.1447   -0.6519 O   0  0  0  0  0  0  0  0  0  0  0  0
   -1.1787   -4.2520    1.8672 C   0  0  0  0  0  0  0  0  0  0  0  0
   -1.8200   -2.2310   -0.2065 H   0  0  0  0  0  0  0  0  0  0  0  0
   -0.0680   -4.5637    0.0421 H   0  0  0  0  0  0  0  0  0  0  0  0
   -2.1155   -3.7961    2.2078 H   0  0  0  0  0  0  0  0  0  0  0  0
   -1.1981   -5.3065    2.1616 H   0  0  0  0  0  0  0  0  0  0  0  0
   -0.3575   -3.7636    2.4028 H   0  0  0  0  0  0  0  0  0  0  0  0
   -1.9293   -6.0805   -0.6737 N   0  0  0  0  0  0  0  0  0  0  0  0
   -2.8974   -6.9205   -1.3393 C   0  0  0  0  0  0  0  0  0  0  0  0
   -1.0252   -6.4855   -0.4491 H   0  0  0  0  0  0  0  0  0  0  0  0
   -3.5097   -7.4413   -0.5884 H   0  0  0  0  0  0  0  0  0  0  0  0
   -3.5462   -6.2996   -1.9746 H   0  0  0  0  0  0  0  0  0  0  0  0
   -2.3738   -7.6605   -1.9624 H   0  0  0  0  0  0  0  0  0  0  0  0
  1  3  1  0  0  0  0
  1  7  1  0  0  0  0
  1  2  2  0  0  0  0
 28 29  1  0  0  0  0
 29 37  1  0  0  0  0
 29 30  2  0  0  0  0
 18 19  1  0  0  0  0
 19 27  1  0  0  0  0
 19 20  2  0  0  0  0
  8  9  1  0  0  0  0
  9 17  1  0  0  0  0
  9 10  2  0  0  0  0
 28 31  1  0  0  0  0
 18 21  1  0  0  0  0
  8 11  1  0  0  0  0
 37 38  1  0  0  0  0
 27 28  1  0  0  0  0
 17 18  1  0  0  0  0
  7  8  1  0  0  0  0
  3  4  1  0  0  0  0
  3  5  1  0  0  0  0
  3  6  1  0  0  0  0
 31 34  1  0  0  0  0
 31 35  1  0  0  0  0
 31 36  1  0  0  0  0
 21 24  1  0  0  0  0
 21 25  1  0  0  0  0
 21 26  1  0  0  0  0
 11 14  1  0  0  0  0
 11 15  1  0  0  0  0
 11 16  1  0  0  0  0
 38 40  1  0  0  0  0
 38 41  1  0  0  0  0
 38 42  1  0  0  0  0
 28 33  1  0  0  0  0
 18 23  1  0  0  0  0
  8 13  1  0  0  0  0
 37 39  1  0  0  0  0
  7 12  1  0  0  0  0
 27 32  1  0  0  0  0
 17 22  1  0  0  0  0
M  END
$$$$

  -OEChem-05262214473D

 42 41  0     1  0  0  0  0  0999 V2000
   -5.7851   -0.9580    0.6237 C   0  0  0  0  0  0  0  0  0  0  0  0
   -6.2213    0.1296    0.2652 O   0  0  0  0  0  0  0  0  0  0  0  0
   -6.7088   -2.1270    0.7168 C   0  0  0  0  0  0  0  0  0  0  0  0
   -7.1713   -2.2193    1.7126 H   0  0  0  0  0  0  0  0  0  0  0  0
   -7.5511   -2.0547    0.0101 H   0  0  0  0  0  0  0  0  0  0  0  0
   -6.2485   -3.1083    0.5191 H   0  0  0  0  0  0  0  0  0  0  0  0
   -4.4733   -1.2411    0.9668 N   0  0  0  0  0  0  0  0  0  0  0  0
   -3.4203   -0.2603    0.9449 C   0  0  2  0  0  0  0  0  0  0  0  0
   -2.1242   -0.9699    0.5759 C   0  0  0  0  0  0  0  0  0  0  0  0
   -1.8694   -2.1225    0.9189 O   0  0  0  0  0  0  0  0  0  0  0  0
   -3.2916    0.4435    2.2868 C   0  0  0  0  0  0  0  0  0  0  0  0
   -4.2421   -2.1920    1.2489 H   0  0  0  0  0  0  0  0  0  0  0  0
   -3.6772    0.4622    0.1625 H   0  0  0  0  0  0  0  0  0  0  0  0
   -3.0345   -0.2644    3.0832 H   0  0  0  0  0  0  0  0  0  0  0  0
   -2.5093    1.2092    2.2599 H   0  0  0  0  0  0  0  0  0  0  0  0
   -4.2338    0.9283    2.5645 H   0  0  0  0  0  0  0  0  0  0  0  0
   -1.2626   -0.1515   -0.1463 N   0  0  0  0  0  0  0  0  0  0  0  0
    0.0431   -0.5785   -0.5755 C   0  0  2  0  0  0  0  0  0  0  0  0
    0.2499   -2.0102   -0.0991 C   0  0  0  0  0  0  0  0  0  0  0  0
    1.3017   -2.4060    0.3991 O   0  0  0  0  0  0  0  0  0  0  0  0
    1.1302    0.3369   -0.0342 C   0  0  0  0  0  0  0  0  0  0  0  0
   -1.5766    0.7776   -0.4197 H   0  0  0  0  0  0  0  0  0  0  0  0
    0.0397   -0.5543   -1.6707 H   0  0  0  0  0  0  0  0  0  0  0  0
    1.1491    0.3258    1.0617 H   0  0  0  0  0  0  0  0  0  0  0  0
    2.1204    0.0275   -0.3849 H   0  0  0  0  0  0  0  0  0  0  0  0
    0.9633    1.3714   -0.3533 H   0  0  0  0  0  0  0  0  0  0  0  0
   -0.8634   -2.8096   -0.3340 N   0  0  0  0  0  0  0  0  0  0  0  0
   -0.8997   -4.2117   -0.0114 C   0  0  2  0  0  0  0  0  0  0  0  0
   -1.7877   -4.9070   -1.0348 C   0  0  0  0  0  0  0  0  0  0  0  0
   -2.7772   -4.3762   -1.5350 O   0  0  0  0  0  0  0  0  0  0  0  0
   -1.4152   -4.4414    1.4008 C   0  0  0  0  0  0  0  0  0  0  0  0
   -1.7060   -2.3839   -0.7154 H   0  0  0  0  0  0  0  0  0  0  0  0
    0.1263   -4.5843   -0.1042 H   0  0  0  0  0  0  0  0  0  0  0  0
   -2.4420   -4.0745    1.5130 H   0  0  0  0  0  0  0  0  0  0  0  0
   -1.4153   -5.5065    1.6548 H   0  0  0  0  0  0  0  0  0  0  0  0
   -0.7927   -3.9162    2.1332 H   0  0  0  0  0  0  0  0  0  0  0  0
   -1.3702   -6.2054   -1.2916 N   0  0  0  0  0  0  0  0  0  0  0  0
   -2.0733   -7.0862   -2.1949 C   0  0  0  0  0  0  0  0  0  0  0  0
   -0.5161   -6.5497   -0.8629 H   0  0  0  0  0  0  0  0  0  0  0  0
   -2.8023   -7.6857   -1.6299 H   0  0  0  0  0  0  0  0  0  0  0  0
   -2.5997   -6.4888   -2.9538 H   0  0  0  0  0  0  0  0  0  0  0  0
   -1.3534   -7.7550   -2.6892 H   0  0  0  0  0  0  0  0  0  0  0  0
  1  3  1  0  0  0  0
  1  7  1  0  0  0  0
  1  2  2  0  0  0  0
 28 29  1  0  0  0  0
 29 37  1  0  0  0  0
 29 30  2  0  0  0  0
 18 19  1  0  0  0  0
 19 27  1  0  0  0  0
 19 20  2  0  0  0  0
  8  9  1  0  0  0  0
  9 17  1  0  0  0  0
  9 10  2  0  0  0  0
 28 31  1  0  0  0  0
 18 21  1  0  0  0  0
  8 11  1  0  0  0  0
 37 38  1  0  0  0  0
 27 28  1  0  0  0  0
 17 18  1  0  0  0  0
  7  8  1  0  0  0  0
  3  4  1  0  0  0  0
  3  5  1  0  0  0  0
  3  6  1  0  0  0  0
 31 34  1  0  0  0  0
 31 35  1  0  0  0  0
 31 36  1  0  0  0  0
 21 24  1  0  0  0  0
 21 25  1  0  0  0  0
 21 26  1  0  0  0  0
 11 14  1  0  0  0  0
 11 15  1  0  0  0  0
 11 16  1  0  0  0  0
 38 40  1  0  0  0  0
 38 41  1  0  0  0  0
 38 42  1  0  0  0  0
 28 33  1  0  0  0  0
 18 23  1  0  0  0  0
  8 13  1  0  0  0  0
 37 39  1  0  0  0  0
  7 12  1  0  0  0  0
 27 32  1  0  0  0  0
 17 22  1  0  0  0  0
M  END
$$$$

  -OEChem-05262214473D

 42 41  0     1  0  0  0  0  0999 V2000
   -5.7851   -0.9580    0.6237 C   0  0  0  0  0  0  0  0  0  0  0  0
   -6.2213    0.1296    0.2652 O   0  0  0  0  0  0  0  0  0  0  0  0
   -6.7088   -2.1270    0.7168 C   0  0  0  0  0  0  0  0  0  0  0  0
   -7.1713   -2.2193    1.7126 H   0  0  0  0  0  0  0  0  0  0  0  0
   -7.5511   -2.0547    0.0101 H   0  0  0  0  0  0  0  0  0  0  0  0
   -6.2485   -3.1083    0.5191 H   0  0  0  0  0  0  0  0  0  0  0  0
   -4.4733   -1.2411    0.9668 N   0  0  0  0  0  0  0  0  0  0  0  0
   -3.4203   -0.2603    0.9449 C   0  0  2  0  0  0  0  0  0  0  0  0
   -2.1242   -0.9699    0.5759 C   0  0  0  0  0  0  0  0  0  0  0  0
   -1.8694   -2.1225    0.9189 O   0  0  0  0  0  0  0  0  0  0  0  0
   -3.2916    0.4435    2.2868 C   0  0  0  0  0  0  0  0  0  0  0  0
   -4.2421   -2.1920    1.2489 H   0  0  0  0  0  0  0  0  0  0  0  0
   -3.6772    0.4622    0.1625 H   0  0  0  0  0  0  0  0  0  0  0  0
   -3.0345   -0.2644    3.0832 H   0  0  0  0  0  0  0  0  0  0  0  0
   -2.5093    1.2092    2.2599 H   0  0  0  0  0  0  0  0  0  0  0  0
   -4.2338    0.9283    2.5645 H   0  0  0  0  0  0  0  0  0  0  0  0
   -1.2626   -0.1515   -0.1463 N   0  0  0  0  0  0  0  0  0  0  0  0
    0.0431   -0.5785   -0.5755 C   0  0  2  0  0  0  0  0  0  0  0  0
    0.2499   -2.0102   -0.0991 C   0  0  0  0  0  0  0  0  0  0  0  0
    1.1798   -2.3464    0.6313 O   0  0  0  0  0  0  0  0  0  0  0  0
    1.1302    0.3369   -0.0342 C   0  0  0  0  0  0  0  0  0  0  0  0
   -1.5766    0.7776   -0.4197 H   0  0  0  0  0  0  0  0  0  0  0  0
    0.0397   -0.5543   -1.6707 H   0  0  0  0  0  0  0  0  0  0  0  0
    1.1491    0.3258    1.0617 H   0  0  0  0  0  0  0  0  0  0  0  0
    2.1204    0.0275   -0.3849 H   0  0  0  0  0  0  0  0  0  0  0  0
    0.9633    1.3714   -0.3533 H   0  0  0  0  0  0  0  0  0  0  0  0
   -0.7012   -2.8811   -0.6194 N   0  0  0  0  0  0  0  0  0  0  0  0
   -0.6946   -4.2950   -0.3507 C   0  0  2  0  0  0  0  0  0  0  0  0
   -1.2461   -5.0094   -1.5776 C   0  0  0  0  0  0  0  0  0  0  0  0
   -2.1269   -4.5339   -2.2912 O   0  0  0  0  0  0  0  0  0  0  0  0
   -1.5149   -4.6271    0.8861 C   0  0  0  0  0  0  0  0  0  0  0  0
   -1.4596   -2.5044   -1.1845 H   0  0  0  0  0  0  0  0  0  0  0  0
    0.3512   -4.5833   -0.1989 H   0  0  0  0  0  0  0  0  0  0  0  0
   -2.5657   -4.3453    0.7528 H   0  0  0  0  0  0  0  0  0  0  0  0
   -1.4855   -5.6994    1.1055 H   0  0  0  0  0  0  0  0  0  0  0  0
   -1.1351   -4.0893    1.7615 H   0  0  0  0  0  0  0  0  0  0  0  0
   -0.6697   -6.2590   -1.7569 N   0  0  0  0  0  0  0  0  0  0  0  0
   -1.0557   -7.1494   -2.8266 C   0  0  0  0  0  0  0  0  0  0  0  0
    0.0815   -6.5559   -1.1410 H   0  0  0  0  0  0  0  0  0  0  0  0
   -1.8458   -7.8279   -2.4725 H   0  0  0  0  0  0  0  0  0  0  0  0
   -1.4319   -6.5604   -3.6760 H   0  0  0  0  0  0  0  0  0  0  0  0
   -0.1832   -7.7381   -3.1464 H   0  0  0  0  0  0  0  0  0  0  0  0
  1  3  1  0  0  0  0
  1  7  1  0  0  0  0
  1  2  2  0  0  0  0
 28 29  1  0  0  0  0
 29 37  1  0  0  0  0
 29 30  2  0  0  0  0
 18 19  1  0  0  0  0
 19 27  1  0  0  0  0
 19 20  2  0  0  0  0
  8  9  1  0  0  0  0
  9 17  1  0  0  0  0
  9 10  2  0  0  0  0
 28 31  1  0  0  0  0
 18 21  1  0  0  0  0
  8 11  1  0  0  0  0
 37 38  1  0  0  0  0
 27 28  1  0  0  0  0
 17 18  1  0  0  0  0
  7  8  1  0  0  0  0
  3  4  1  0  0  0  0
  3  5  1  0  0  0  0
  3  6  1  0  0  0  0
 31 34  1  0  0  0  0
 31 35  1  0  0  0  0
 31 36  1  0  0  0  0
 21 24  1  0  0  0  0
 21 25  1  0  0  0  0
 21 26  1  0  0  0  0
 11 14  1  0  0  0  0
 11 15  1  0  0  0  0
 11 16  1  0  0  0  0
 38 40  1  0  0  0  0
 38 41  1  0  0  0  0
 38 42  1  0  0  0  0
 28 33  1  0  0  0  0
 18 23  1  0  0  0  0
  8 13  1  0  0  0  0
 37 39  1  0  0  0  0
  7 12  1  0  0  0  0
 27 32  1  0  0  0  0
 17 22  1  0  0  0  0
M  END
$$$$

  -OEChem-05262214473D

 42 41  0     1  0  0  0  0  0999 V2000
   -5.7851   -0.9580    0.6237 C   0  0  0  0  0  0  0  0  0  0  0  0
   -6.2213    0.1296    0.2652 O   0  0  0  0  0  0  0  0  0  0  0  0
   -6.7088   -2.1270    0.7168 C   0  0  0  0  0  0  0  0  0  0  0  0
   -7.1713   -2.2193    1.7126 H   0  0  0  0  0  0  0  0  0  0  0  0
   -7.5511   -2.0547    0.0101 H   0  0  0  0  0  0  0  0  0  0  0  0
   -6.2485   -3.1083    0.5191 H   0  0  0  0  0  0  0  0  0  0  0  0
   -4.4733   -1.2411    0.9668 N   0  0  0  0  0  0  0  0  0  0  0  0
   -3.4203   -0.2603    0.9449 C   0  0  2  0  0  0  0  0  0  0  0  0
   -2.1242   -0.9699    0.5759 C   0  0  0  0  0  0  0  0  0  0  0  0
   -1.8694   -2.1225    0.9189 O   0  0  0  0  0  0  0  0  0  0  0  0
   -3.2916    0.4435    2.2868 C   0  0  0  0  0  0  0  0  0  0  0  0
   -4.2421   -2.1920    1.2489 H   0  0  0  0  0  0  0  0  0  0  0  0
   -3.6772    0.4622    0.1625 H   0  0  0  0  0  0  0  0  0  0  0  0
   -3.0345   -0.2644    3.0832 H   0  0  0  0  0  0  0  0  0  0  0  0
   -2.5093    1.2092    2.2599 H   0  0  0  0  0  0  0  0  0  0  0  0
   -4.2338    0.9283    2.5645 H   0  0  0  0  0  0  0  0  0  0  0  0
   -1.2626   -0.1515   -0.1463 N   0  0  0  0  0  0  0  0  0  0  0  0
    0.0431   -0.5785   -0.5755 C   0  0  2  0  0  0  0  0  0  0  0  0
    0.2499   -2.0102   -0.0991 C   0  0  0  0  0  0  0  0  0  0  0  0
    1.0007   -2.3068    0.8279 O   0  0  0  0  0  0  0  0  0  0  0  0
    1.1302    0.3369   -0.0342 C   0  0  0  0  0  0  0  0  0  0  0  0
   -1.5766    0.7776   -0.4197 H   0  0  0  0  0  0  0  0  0  0  0  0
    0.0397   -0.5543   -1.6707 H   0  0  0  0  0  0  0  0  0  0  0  0
    1.1491    0.3258    1.0617 H   0  0  0  0  0  0  0  0  0  0  0  0
    2.1204    0.0275   -0.3849 H   0  0  0  0  0  0  0  0  0  0  0  0
    0.9633    1.3714   -0.3533 H   0  0  0  0  0  0  0  0  0  0  0  0
   -0.4692   -2.9270   -0.8580 N   0  0  0  0  0  0  0  0  0  0  0  0
   -0.4073   -4.3470   -0.6316 C   0  0  2  0  0  0  0  0  0  0  0  0
   -0.5827   -5.0453   -1.9736 C   0  0  0  0  0  0  0  0  0  0  0  0
   -1.3019   -4.6070   -2.8690 O   0  0  0  0  0  0  0  0  0  0  0  0
   -1.4709   -4.7964    0.3581 C   0  0  0  0  0  0  0  0  0  0  0  0
   -1.0977   -2.5844   -1.5820 H   0  0  0  0  0  0  0  0  0  0  0  0
    0.5915   -4.5608   -0.2357 H   0  0  0  0  0  0  0  0  0  0  0  0
   -2.4784   -4.5903   -0.0212 H   0  0  0  0  0  0  0  0  0  0  0  0
   -1.4041   -5.8722    0.5511 H   0  0  0  0  0  0  0  0  0  0  0  0
   -1.3614   -4.2712    1.3131 H   0  0  0  0  0  0  0  0  0  0  0  0
    0.1245   -6.2378   -2.0378 N   0  0  0  0  0  0  0  0  0  0  0  0
    0.0861   -7.1059   -3.1914 C   0  0  0  0  0  0  0  0  0  0  0  0
    0.7269   -6.5037   -1.2644 H   0  0  0  0  0  0  0  0  0  0  0  0
   -0.7054   -7.8582   -3.0587 H   0  0  0  0  0  0  0  0  0  0  0  0
   -0.1223   -6.5097   -4.0920 H   0  0  0  0  0  0  0  0  0  0  0  0
    1.0570   -7.6109   -3.3026 H   0  0  0  0  0  0  0  0  0  0  0  0
  1  3  1  0  0  0  0
  1  7  1  0  0  0  0
  1  2  2  0  0  0  0
 28 29  1  0  0  0  0
 29 37  1  0  0  0  0
 29 30  2  0  0  0  0
 18 19  1  0  0  0  0
 19 27  1  0  0  0  0
 19 20  2  0  0  0  0
  8  9  1  0  0  0  0
  9 17  1  0  0  0  0
  9 10  2  0  0  0  0
 28 31  1  0  0  0  0
 18 21  1  0  0  0  0
  8 11  1  0  0  0  0
 37 38  1  0  0  0  0
 27 28  1  0  0  0  0
 17 18  1  0  0  0  0
  7  8  1  0  0  0  0
  3  4  1  0  0  0  0
  3  5  1  0  0  0  0
  3  6  1  0  0  0  0
 31 34  1  0  0  0  0
 31 35  1  0  0  0  0
 31 36  1  0  0  0  0
 21 24  1  0  0  0  0
 21 25  1  0  0  0  0
 21 26  1  0  0  0  0
 11 14  1  0  0  0  0
 11 15  1  0  0  0  0
 11 16  1  0  0  0  0
 38 40  1  0  0  0  0
 38 41  1  0  0  0  0
 38 42  1  0  0  0  0
 28 33  1  0  0  0  0
 18 23  1  0  0  0  0
  8 13  1  0  0  0  0
 37 39  1  0  0  0  0
  7 12  1  0  0  0  0
 27 32  1  0  0  0  0
 17 22  1  0  0  0  0
M  END
$$$$

  -OEChem-05262214473D

 42 41  0     1  0  0  0  0  0999 V2000
   -5.7851   -0.9580    0.6237 C   0  0  0  0  0  0  0  0  0  0  0  0
   -6.2213    0.1296    0.2652 O   0  0  0  0  0  0  0  0  0  0  0  0
   -6.7088   -2.1270    0.7168 C   0  0  0  0  0  0  0  0  0  0  0  0
   -7.1713   -2.2193    1.7126 H   0  0  0  0  0  0  0  0  0  0  0  0
   -7.5511   -2.0547    0.0101 H   0  0  0  0  0  0  0  0  0  0  0  0
   -6.2485   -3.1083    0.5191 H   0  0  0  0  0  0  0  0  0  0  0  0
   -4.4733   -1.2411    0.9668 N   0  0  0  0  0  0  0  0  0  0  0  0
   -3.4203   -0.2603    0.9449 C   0  0  2  0  0  0  0  0  0  0  0  0
   -2.1242   -0.9699    0.5759 C   0  0  0  0  0  0  0  0  0  0  0  0
   -1.8694   -2.1225    0.9189 O   0  0  0  0  0  0  0  0  0  0  0  0
   -3.2916    0.4435    2.2868 C   0  0  0  0  0  0  0  0  0  0  0  0
   -4.2421   -2.1920    1.2489 H   0  0  0  0  0  0  0  0  0  0  0  0
   -3.6772    0.4622    0.1625 H   0  0  0  0  0  0  0  0  0  0  0  0
   -3.0345   -0.2644    3.0832 H   0  0  0  0  0  0  0  0  0  0  0  0
   -2.5093    1.2092    2.2599 H   0  0  0  0  0  0  0  0  0  0  0  0
   -4.2338    0.9283    2.5645 H   0  0  0  0  0  0  0  0  0  0  0  0
   -1.2626   -0.1515   -0.1463 N   0  0  0  0  0  0  0  0  0  0  0  0
    0.0431   -0.5785   -0.5755 C   0  0  2  0  0  0  0  0  0  0  0  0
    0.2499   -2.0102   -0.0991 C   0  0  0  0  0  0  0  0  0  0  0  0
    0.7767   -2.2900    0.9757 O   0  0  0  0  0  0  0  0  0  0  0  0
    1.1302    0.3369   -0.0342 C   0  0  0  0  0  0  0  0  0  0  0  0
   -1.5766    0.7776   -0.4197 H   0  0  0  0  0  0  0  0  0  0  0  0
    0.0397   -0.5543   -1.6707 H   0  0  0  0  0  0  0  0  0  0  0  0
    1.1491    0.3258    1.0617 H   0  0  0  0  0  0  0  0  0  0  0  0
    2.1204    0.0275   -0.3849 H   0  0  0  0  0  0  0  0  0  0  0  0
    0.9633    1.3714   -0.3533 H   0  0  0  0  0  0  0  0  0  0  0  0
   -0.1834   -2.9442   -1.0338 N   0  0  0  0  0  0  0  0  0  0  0  0
   -0.0572   -4.3640   -0.8348 C   0  0  2  0  0  0  0  0  0  0  0  0
    0.1575   -5.0124   -2.1960 C   0  0  0  0  0  0  0  0  0  0  0  0
   -0.3585   -4.5905   -3.2289 O   0  0  0  0  0  0  0  0  0  0  0  0
   -1.2862   -4.9378   -0.1471 C   0  0  0  0  0  0  0  0  0  0  0  0
   -0.6450   -2.6184   -1.8807 H   0  0  0  0  0  0  0  0  0  0  0  0
    0.8307   -4.5184   -0.2120 H   0  0  0  0  0  0  0  0  0  0  0  0
   -2.1859   -4.7926   -0.7562 H   0  0  0  0  0  0  0  0  0  0  0  0
   -1.1765   -6.0130    0.0292 H   0  0  0  0  0  0  0  0  0  0  0  0
   -1.4562   -4.4495    0.8185 H   0  0  0  0  0  0  0  0  0  0  0  0
    0.9582   -6.1431   -2.1151 N   0  0  0  0  0  0  0  0  0  0  0  0
    1.2742   -6.9586   -3.2645 C   0  0  0  0  0  0  0  0  0  0  0  0
    1.3761   -6.3967   -1.2247 H   0  0  0  0  0  0  0  0  0  0  0  0
    0.5413   -7.7746   -3.3484 H   0  0  0  0  0  0  0  0  0  0  0  0
    1.2397   -6.3400   -4.1734 H   0  0  0  0  0  0  0  0  0  0  0  0
    2.2826   -7.3822   -3.1473 H   0  0  0  0  0  0  0  0  0  0  0  0
  1  3  1  0  0  0  0
  1  7  1  0  0  0  0
  1  2  2  0  0  0  0
 28 29  1  0  0  0  0
 29 37  1  0  0  0  0
 29 30  2  0  0  0  0
 18 19  1  0  0  0  0
 19 27  1  0  0  0  0
 19 20  2  0  0  0  0
  8  9  1  0  0  0  0
  9 17  1  0  0  0  0
  9 10  2  0  0  0  0
 28 31  1  0  0  0  0
 18 21  1  0  0  0  0
  8 11  1  0  0  0  0
 37 38  1  0  0  0  0
 27 28  1  0  0  0  0
 17 18  1  0  0  0  0
  7  8  1  0  0  0  0
  3  4  1  0  0  0  0
  3  5  1  0  0  0  0
  3  6  1  0  0  0  0
 31 34  1  0  0  0  0
 31 35  1  0  0  0  0
 31 36  1  0  0  0  0
 21 24  1  0  0  0  0
 21 25  1  0  0  0  0
 21 26  1  0  0  0  0
 11 14  1  0  0  0  0
 11 15  1  0  0  0  0
 11 16  1  0  0  0  0
 38 40  1  0  0  0  0
 38 41  1  0  0  0  0
 38 42  1  0  0  0  0
 28 33  1  0  0  0  0
 18 23  1  0  0  0  0
  8 13  1  0  0  0  0
 37 39  1  0  0  0  0
  7 12  1  0  0  0  0
 27 32  1  0  0  0  0
 17 22  1  0  0  0  0
M  END
$$$$

  -OEChem-05262214473D

 42 41  0     1  0  0  0  0  0999 V2000
   -5.7851   -0.9580    0.6237 C   0  0  0  0  0  0  0  0  0  0  0  0
   -6.2213    0.1296    0.2652 O   0  0  0  0  0  0  0  0  0  0  0  0
   -6.7088   -2.1270    0.7168 C   0  0  0  0  0  0  0  0  0  0  0  0
   -7.1713   -2.2193    1.7126 H   0  0  0  0  0  0  0  0  0  0  0  0
   -7.5511   -2.0547    0.0101 H   0  0  0  0  0  0  0  0  0  0  0  0
   -6.2485   -3.1083    0.5191 H   0  0  0  0  0  0  0  0  0  0  0  0
   -4.4733   -1.2411    0.9668 N   0  0  0  0  0  0  0  0  0  0  0  0
   -3.4203   -0.2603    0.9449 C   0  0  2  0  0  0  0  0  0  0  0  0
   -2.1242   -0.9699    0.5759 C   0  0  0  0  0  0  0  0  0  0  0  0
   -1.8694   -2.1225    0.9189 O   0  0  0  0  0  0  0  0  0  0  0  0
   -3.2916    0.4435    2.2868 C   0  0  0  0  0  0  0  0  0  0  0  0
   -4.2421   -2.1920    1.2489 H   0  0  0  0  0  0  0  0  0  0  0  0
   -3.6772    0.4622    0.1625 H   0  0  0  0  0  0  0  0  0  0  0  0
   -3.0345   -0.2644    3.0832 H   0  0  0  0  0  0  0  0  0  0  0  0
   -2.5093    1.2092    2.2599 H   0  0  0  0  0  0  0  0  0  0  0  0
   -4.2338    0.9283    2.5645 H   0  0  0  0  0  0  0  0  0  0  0  0
   -1.2626   -0.1515   -0.1463 N   0  0  0  0  0  0  0  0  0  0  0  0
    0.0431   -0.5785   -0.5755 C   0  0  2  0  0  0  0  0  0  0  0  0
    0.2499   -2.0102   -0.0991 C   0  0  0  0  0  0  0  0  0  0  0  0
    0.5230   -2.2970    1.0646 O   0  0  0  0  0  0  0  0  0  0  0  0
    1.1302    0.3369   -0.0342 C   0  0  0  0  0  0  0  0  0  0  0  0
   -1.5766    0.7776   -0.4197 H   0  0  0  0  0  0  0  0  0  0  0  0
    0.0397   -0.5543   -1.6707 H   0  0  0  0  0  0  0  0  0  0  0  0
    1.1491    0.3258    1.0617 H   0  0  0  0  0  0  0  0  0  0  0  0
    2.1204    0.0275   -0.3849 H   0  0  0  0  0  0  0  0  0  0  0  0
    0.9633    1.3714   -0.3533 H   0  0  0  0  0  0  0  0  0  0  0  0
    0.1368   -2.9315   -1.1345 N   0  0  0  0  0  0  0  0  0  0  0  0
    0.3319   -4.3450   -0.9465 C   0  0  2  0  0  0  0  0  0  0  0  0
    0.9239   -4.9129   -2.2296 C   0  0  0  0  0  0  0  0  0  0  0  0
    0.6389   -4.4855   -3.3464 O   0  0  0  0  0  0  0  0  0  0  0  0
   -0.9735   -5.0417   -0.5952 C   0  0  0  0  0  0  0  0  0  0  0  0
   -0.1323   -2.6041   -2.0602 H   0  0  0  0  0  0  0  0  0  0  0  0
    1.0526   -4.4589   -0.1294 H   0  0  0  0  0  0  0  0  0  0  0  0
   -1.7081   -4.9385   -1.4021 H   0  0  0  0  0  0  0  0  0  0  0  0
   -0.8184   -6.1122   -0.4244 H   0  0  0  0  0  0  0  0  0  0  0  0
   -1.4129   -4.6119    0.3114 H   0  0  0  0  0  0  0  0  0  0  0  0
    1.7747   -5.9814   -1.9836 N   0  0  0  0  0  0  0  0  0  0  0  0
    2.4277   -6.7175   -3.0408 C   0  0  0  0  0  0  0  0  0  0  0  0
    1.9849   -6.2422   -1.0247 H   0  0  0  0  0  0  0  0  0  0  0  0
    1.8092   -7.5826   -3.3221 H   0  0  0  0  0  0  0  0  0  0  0  0
    2.5614   -6.0630   -3.9147 H   0  0  0  0  0  0  0  0  0  0  0  0
    3.4101   -7.0675   -2.6911 H   0  0  0  0  0  0  0  0  0  0  0  0
  1  3  1  0  0  0  0
  1  7  1  0  0  0  0
  1  2  2  0  0  0  0
 28 29  1  0  0  0  0
 29 37  1  0  0  0  0
 29 30  2  0  0  0  0
 18 19  1  0  0  0  0
 19 27  1  0  0  0  0
 19 20  2  0  0  0  0
  8  9  1  0  0  0  0
  9 17  1  0  0  0  0
  9 10  2  0  0  0  0
 28 31  1  0  0  0  0
 18 21  1  0  0  0  0
  8 11  1  0  0  0  0
 37 38  1  0  0  0  0
 27 28  1  0  0  0  0
 17 18  1  0  0  0  0
  7  8  1  0  0  0  0
  3  4  1  0  0  0  0
  3  5  1  0  0  0  0
  3  6  1  0  0  0  0
 31 34  1  0  0  0  0
 31 35  1  0  0  0  0
 31 36  1  0  0  0  0
 21 24  1  0  0  0  0
 21 25  1  0  0  0  0
 21 26  1  0  0  0  0
 11 14  1  0  0  0  0
 11 15  1  0  0  0  0
 11 16  1  0  0  0  0
 38 40  1  0  0  0  0
 38 41  1  0  0  0  0
 38 42  1  0  0  0  0
 28 33  1  0  0  0  0
 18 23  1  0  0  0  0
  8 13  1  0  0  0  0
 37 39  1  0  0  0  0
  7 12  1  0  0  0  0
 27 32  1  0  0  0  0
 17 22  1  0  0  0  0
M  END
$$$$

  -OEChem-05262214473D

 42 41  0     1  0  0  0  0  0999 V2000
   -5.7851   -0.9580    0.6237 C   0  0  0  0  0  0  0  0  0  0  0  0
   -6.2213    0.1296    0.2652 O   0  0  0  0  0  0  0  0  0  0  0  0
   -6.7088   -2.1270    0.7168 C   0  0  0  0  0  0  0  0  0  0  0  0
   -7.1713   -2.2193    1.7126 H   0  0  0  0  0  0  0  0  0  0  0  0
   -7.5511   -2.0547    0.0101 H   0  0  0  0  0  0  0  0  0  0  0  0
   -6.2485   -3.1083    0.5191 H   0  0  0  0  0  0  0  0  0  0  0  0
   -4.4733   -1.2411    0.9668 N   0  0  0  0  0  0  0  0  0  0  0  0
   -3.4203   -0.2603    0.9449 C   0  0  2  0  0  0  0  0  0  0  0  0
   -2.1242   -0.9699    0.5759 C   0  0  0  0  0  0  0  0  0  0  0  0
   -1.8694   -2.1225    0.9189 O   0  0  0  0  0  0  0  0  0  0  0  0
   -3.2916    0.4435    2.2868 C   0  0  0  0  0  0  0  0  0  0  0  0
   -4.2421   -2.1920    1.2489 H   0  0  0  0  0  0  0  0  0  0  0  0
   -3.6772    0.4622    0.1625 H   0  0  0  0  0  0  0  0  0  0  0  0
   -3.0345   -0.2644    3.0832 H   0  0  0  0  0  0  0  0  0  0  0  0
   -2.5093    1.2092    2.2599 H   0  0  0  0  0  0  0  0  0  0  0  0
   -4.2338    0.9283    2.5645 H   0  0  0  0  0  0  0  0  0  0  0  0
   -1.2626   -0.1515   -0.1463 N   0  0  0  0  0  0  0  0  0  0  0  0
    0.0431   -0.5785   -0.5755 C   0  0  2  0  0  0  0  0  0  0  0  0
    0.2499   -2.0102   -0.0991 C   0  0  0  0  0  0  0  0  0  0  0  0
    0.2569   -2.3275    1.0884 O   0  0  0  0  0  0  0  0  0  0  0  0
    1.1302    0.3369   -0.0342 C   0  0  0  0  0  0  0  0  0  0  0  0
   -1.5766    0.7776   -0.4197 H   0  0  0  0  0  0  0  0  0  0  0  0
    0.0397   -0.5543   -1.6707 H   0  0  0  0  0  0  0  0  0  0  0  0
    1.1491    0.3258    1.0617 H   0  0  0  0  0  0  0  0  0  0  0  0
    2.1204    0.0275   -0.3849 H   0  0  0  0  0  0  0  0  0  0  0  0
    0.9633    1.3714   -0.3533 H   0  0  0  0  0  0  0  0  0  0  0  0
    0.4696   -2.8897   -1.1535 N   0  0  0  0  0  0  0  0  0  0  0  0
    0.7332   -4.2912   -0.9590 C   0  0  2  0  0  0  0  0  0  0  0  0
    1.6642   -4.7535   -2.0721 C   0  0  0  0  0  0  0  0  0  0  0  0
    1.6225   -4.2992   -3.2136 O   0  0  0  0  0  0  0  0  0  0  0  0
   -0.5539   -5.1011   -0.9555 C   0  0  0  0  0  0  0  0  0  0  0  0
    0.4054   -2.5424   -2.1084 H   0  0  0  0  0  0  0  0  0  0  0  0
    1.2420   -4.3863    0.0065 H   0  0  0  0  0  0  0  0  0  0  0  0
   -1.0777   -5.0180   -1.9148 H   0  0  0  0  0  0  0  0  0  0  0  0
   -0.3540   -6.1631   -0.7790 H   0  0  0  0  0  0  0  0  0  0  0  0
   -1.2347   -4.7476   -0.1736 H   0  0  0  0  0  0  0  0  0  0  0  0
    2.5183   -5.7637   -1.6523 N   0  0  0  0  0  0  0  0  0  0  0  0
    3.4679   -6.3992   -2.5357 C   0  0  0  0  0  0  0  0  0  0  0  0
    2.5118   -6.0507   -0.6779 H   0  0  0  0  0  0  0  0  0  0  0  0
    3.0119   -7.2955   -2.9814 H   0  0  0  0  0  0  0  0  0  0  0  0
    3.7527   -5.6975   -3.3335 H   0  0  0  0  0  0  0  0  0  0  0  0
    4.3628   -6.6883   -1.9650 H   0  0  0  0  0  0  0  0  0  0  0  0
  1  3  1  0  0  0  0
  1  7  1  0  0  0  0
  1  2  2  0  0  0  0
 28 29  1  0  0  0  0
 29 37  1  0  0  0  0
 29 30  2  0  0  0  0
 18 19  1  0  0  0  0
 19 27  1  0  0  0  0
 19 20  2  0  0  0  0
  8  9  1  0  0  0  0
  9 17  1  0  0  0  0
  9 10  2  0  0  0  0
 28 31  1  0  0  0  0
 18 21  1  0  0  0  0
  8 11  1  0  0  0  0
 37 38  1  0  0  0  0
 27 28  1  0  0  0  0
 17 18  1  0  0  0  0
  7  8  1  0  0  0  0
  3  4  1  0  0  0  0
  3  5  1  0  0  0  0
  3  6  1  0  0  0  0
 31 34  1  0  0  0  0
 31 35  1  0  0  0  0
 31 36  1  0  0  0  0
 21 24  1  0  0  0  0
 21 25  1  0  0  0  0
 21 26  1  0  0  0  0
 11 14  1  0  0  0  0
 11 15  1  0  0  0  0
 11 16  1  0  0  0  0
 38 40  1  0  0  0  0
 38 41  1  0  0  0  0
 38 42  1  0  0  0  0
 28 33  1  0  0  0  0
 18 23  1  0  0  0  0
  8 13  1  0  0  0  0
 37 39  1  0  0  0  0
  7 12  1  0  0  0  0
 27 32  1  0  0  0  0
 17 22  1  0  0  0  0
M  END
$$$$

  -OEChem-05262214473D

 42 41  0     1  0  0  0  0  0999 V2000
   -5.7851   -0.9580    0.6237 C   0  0  0  0  0  0  0  0  0  0  0  0
   -6.2213    0.1296    0.2652 O   0  0  0  0  0  0  0  0  0  0  0  0
   -6.7088   -2.1270    0.7168 C   0  0  0  0  0  0  0  0  0  0  0  0
   -7.1713   -2.2193    1.7126 H   0  0  0  0  0  0  0  0  0  0  0  0
   -7.5511   -2.0547    0.0101 H   0  0  0  0  0  0  0  0  0  0  0  0
   -6.2485   -3.1083    0.5191 H   0  0  0  0  0  0  0  0  0  0  0  0
   -4.4733   -1.2411    0.9668 N   0  0  0  0  0  0  0  0  0  0  0  0
   -3.4203   -0.2603    0.9449 C   0  0  2  0  0  0  0  0  0  0  0  0
   -2.1242   -0.9699    0.5759 C   0  0  0  0  0  0  0  0  0  0  0  0
   -1.8694   -2.1225    0.9189 O   0  0  0  0  0  0  0  0  0  0  0  0
   -3.2916    0.4435    2.2868 C   0  0  0  0  0  0  0  0  0  0  0  0
   -4.2421   -2.1920    1.2489 H   0  0  0  0  0  0  0  0  0  0  0  0
   -3.6772    0.4622    0.1625 H   0  0  0  0  0  0  0  0  0  0  0  0
   -3.0345   -0.2644    3.0832 H   0  0  0  0  0  0  0  0  0  0  0  0
   -2.5093    1.2092    2.2599 H   0  0  0  0  0  0  0  0  0  0  0  0
   -4.2338    0.9283    2.5645 H   0  0  0  0  0  0  0  0  0  0  0  0
   -1.2626   -0.1515   -0.1463 N   0  0  0  0  0  0  0  0  0  0  0  0
    0.0431   -0.5785   -0.5755 C   0  0  2  0  0  0  0  0  0  0  0  0
    0.2499   -2.0102   -0.0991 C   0  0  0  0  0  0  0  0  0  0  0  0
   -0.0035   -2.3794    1.0457 O   0  0  0  0  0  0  0  0  0  0  0  0
    1.1302    0.3369   -0.0342 C   0  0  0  0  0  0  0  0  0  0  0  0
   -1.5766    0.7776   -0.4197 H   0  0  0  0  0  0  0  0  0  0  0  0
    0.0397   -0.5543   -1.6707 H   0  0  0  0  0  0  0  0  0  0  0  0
    1.1491    0.3258    1.0617 H   0  0  0  0  0  0  0  0  0  0  0  0
    2.1204    0.0275   -0.3849 H   0  0  0  0  0  0  0  0  0  0  0  0
    0.9633    1.3714   -0.3533 H   0  0  0  0  0  0  0  0  0  0  0  0
    0.7924   -2.8218   -1.0894 N   0  0  0  0  0  0  0  0  0  0  0  0
    1.1197   -4.2063   -0.8716 C   0  0  2  0  0  0  0  0  0  0  0  0
    2.3282   -4.5452   -1.7342 C   0  0  0  0  0  0  0  0  0  0  0  0
    2.5251   -4.0443   -2.8394 O   0  0  0  0  0  0  0  0  0  0  0  0
   -0.0562   -5.1117   -1.2036 C   0  0  0  0  0  0  0  0  0  0  0  0
    0.9316   -2.4377   -2.0220 H   0  0  0  0  0  0  0  0  0  0  0  0
    1.3860   -4.3057    0.1863 H   0  0  0  0  0  0  0  0  0  0  0  0
   -0.3375   -5.0258   -2.2595 H   0  0  0  0  0  0  0  0  0  0  0  0
    0.1849   -6.1622   -1.0102 H   0  0  0  0  0  0  0  0  0  0  0  0
   -0.9335   -4.8471   -0.6034 H   0  0  0  0  0  0  0  0  0  0  0  0
    3.1383   -5.5049   -1.1436 N   0  0  0  0  0  0  0  0  0  0  0  0
    4.3240   -6.0252   -1.7834 C   0  0  0  0  0  0  0  0  0  0  0  0
    2.9208   -5.8353   -0.2080 H   0  0  0  0  0  0  0  0  0  0  0  0
    4.0675   -6.9328   -2.3495 H   0  0  0  0  0  0  0  0  0  0  0  0
    4.7324   -5.2685   -2.4694 H   0  0  0  0  0  0  0  0  0  0  0  0
    5.0756   -6.2704   -1.0186 H   0  0  0  0  0  0  0  0  0  0  0  0
  1  3  1  0  0  0  0
  1  7  1  0  0  0  0
  1  2  2  0  0  0  0
 28 29  1  0  0  0  0
 29 37  1  0  0  0  0
 29 30  2  0  0  0  0
 18 19  1  0  0  0  0
 19 27  1  0  0  0  0
 19 20  2  0  0  0  0
  8  9  1  0  0  0  0
  9 17  1  0  0  0  0
  9 10  2  0  0  0  0
 28 31  1  0  0  0  0
 18 21  1  0  0  0  0
  8 11  1  0  0  0  0
 37 38  1  0  0  0  0
 27 28  1  0  0  0  0
 17 18  1  0  0  0  0
  7  8  1  0  0  0  0
  3  4  1  0  0  0  0
  3  5  1  0  0  0  0
  3  6  1  0  0  0  0
 31 34  1  0  0  0  0
 31 35  1  0  0  0  0
 31 36  1  0  0  0  0
 21 24  1  0  0  0  0
 21 25  1  0  0  0  0
 21 26  1  0  0  0  0
 11 14  1  0  0  0  0
 11 15  1  0  0  0  0
 11 16  1  0  0  0  0
 38 40  1  0  0  0  0
 38 41  1  0  0  0  0
 38 42  1  0  0  0  0
 28 33  1  0  0  0  0
 18 23  1  0  0  0  0
  8 13  1  0  0  0  0
 37 39  1  0  0  0  0
  7 12  1  0  0  0  0
 27 32  1  0  0  0  0
 17 22  1  0  0  0  0
M  END
$$$$

  -OEChem-05262214473D

 42 41  0     1  0  0  0  0  0999 V2000
   -5.7851   -0.9580    0.6237 C   0  0  0  0  0  0  0  0  0  0  0  0
   -6.2213    0.1296    0.2652 O   0  0  0  0  0  0  0  0  0  0  0  0
   -6.7088   -2.1270    0.7168 C   0  0  0  0  0  0  0  0  0  0  0  0
   -7.1713   -2.2193    1.7126 H   0  0  0  0  0  0  0  0  0  0  0  0
   -7.5511   -2.0547    0.0101 H   0  0  0  0  0  0  0  0  0  0  0  0
   -6.2485   -3.1083    0.5191 H   0  0  0  0  0  0  0  0  0  0  0  0
   -4.4733   -1.2411    0.9668 N   0  0  0  0  0  0  0  0  0  0  0  0
   -3.4203   -0.2603    0.9449 C   0  0  2  0  0  0  0  0  0  0  0  0
   -2.1242   -0.9699    0.5759 C   0  0  0  0  0  0  0  0  0  0  0  0
   -1.8694   -2.1225    0.9189 O   0  0  0  0  0  0  0  0  0  0  0  0
   -3.2916    0.4435    2.2868 C   0  0  0  0  0  0  0  0  0  0  0  0
   -4.2421   -2.1920    1.2489 H   0  0  0  0  0  0  0  0  0  0  0  0
   -3.6772    0.4622    0.1625 H   0  0  0  0  0  0  0  0  0  0  0  0
   -3.0345   -0.2644    3.0832 H   0  0  0  0  0  0  0  0  0  0  0  0
   -2.5093    1.2092    2.2599 H   0  0  0  0  0  0  0  0  0  0  0  0
   -4.2338    0.9283    2.5645 H   0  0  0  0  0  0  0  0  0  0  0  0
   -1.2626   -0.1515   -0.1463 N   0  0  0  0  0  0  0  0  0  0  0  0
    0.0431   -0.5785   -0.5755 C   0  0  2  0  0  0  0  0  0  0  0  0
    0.2499   -2.0102   -0.0991 C   0  0  0  0  0  0  0  0  0  0  0  0
   -0.2404   -2.4491    0.9392 O   0  0  0  0  0  0  0  0  0  0  0  0
    1.1302    0.3369   -0.0342 C   0  0  0  0  0  0  0  0  0  0  0  0
   -1.5766    0.7776   -0.4197 H   0  0  0  0  0  0  0  0  0  0  0  0
    0.0397   -0.5543   -1.6707 H   0  0  0  0  0  0  0  0  0  0  0  0
    1.1491    0.3258    1.0617 H   0  0  0  0  0  0  0  0  0  0  0  0
    2.1204    0.0275   -0.3849 H   0  0  0  0  0  0  0  0  0  0  0  0
    0.9633    1.3714   -0.3533 H   0  0  0  0  0  0  0  0  0  0  0  0
    1.0830   -2.7323   -0.9466 N   0  0  0  0  0  0  0  0  0  0  0  0
    1.4648   -4.0961   -0.6902 C   0  0  2  0  0  0  0  0  0  0  0  0
    2.8704   -4.3021   -1.2390 C   0  0  0  0  0  0  0  0  0  0  0  0
    3.2853   -3.7382   -2.2494 O   0  0  0  0  0  0  0  0  0  0  0  0
    0.4857   -5.0730   -1.3225 C   0  0  0  0  0  0  0  0  0  0  0  0
    1.4103   -2.2969   -1.8068 H   0  0  0  0  0  0  0  0  0  0  0  0
    1.4748   -4.2224    0.3979 H   0  0  0  0  0  0  0  0  0  0  0  0
    0.4619   -4.9613   -2.4127 H   0  0  0  0  0  0  0  0  0  0  0  0
    0.7616   -6.1096   -1.1024 H   0  0  0  0  0  0  0  0  0  0  0  0
   -0.5299   -4.9037   -0.9488 H   0  0  0  0  0  0  0  0  0  0  0  0
    3.5924   -5.2226   -0.4924 N   0  0  0  0  0  0  0  0  0  0  0  0
    4.9376   -5.6211   -0.8354 C   0  0  0  0  0  0  0  0  0  0  0  0
    3.1842   -5.6106    0.3529 H   0  0  0  0  0  0  0  0  0  0  0  0
    4.9041   -6.5192   -1.4697 H   0  0  0  0  0  0  0  0  0  0  0  0
    5.4337   -4.8051   -1.3814 H   0  0  0  0  0  0  0  0  0  0  0  0
    5.5000   -5.8423    0.0837 H   0  0  0  0  0  0  0  0  0  0  0  0
  1  3  1  0  0  0  0
  1  7  1  0  0  0  0
  1  2  2  0  0  0  0
 28 29  1  0  0  0  0
 29 37  1  0  0  0  0
 29 30  2  0  0  0  0
 18 19  1  0  0  0  0
 19 27  1  0  0  0  0
 19 20  2  0  0  0  0
  8  9  1  0  0  0  0
  9 17  1  0  0  0  0
  9 10  2  0  0  0  0
 28 31  1  0  0  0  0
 18 21  1  0  0  0  0
  8 11  1  0  0  0  0
 37 38  1  0  0  0  0
 27 28  1  0  0  0  0
 17 18  1  0  0  0  0
  7  8  1  0  0  0  0
  3  4  1  0  0  0  0
  3  5  1  0  0  0  0
  3  6  1  0  0  0  0
 31 34  1  0  0  0  0
 31 35  1  0  0  0  0
 31 36  1  0  0  0  0
 21 24  1  0  0  0  0
 21 25  1  0  0  0  0
 21 26  1  0  0  0  0
 11 14  1  0  0  0  0
 11 15  1  0  0  0  0
 11 16  1  0  0  0  0
 38 40  1  0  0  0  0
 38 41  1  0  0  0  0
 38 42  1  0  0  0  0
 28 33  1  0  0  0  0
 18 23  1  0  0  0  0
  8 13  1  0  0  0  0
 37 39  1  0  0  0  0
  7 12  1  0  0  0  0
 27 32  1  0  0  0  0
 17 22  1  0  0  0  0
M  END
$$$$

  -OEChem-05262214473D

 42 41  0     1  0  0  0  0  0999 V2000
   -5.7851   -0.9580    0.6237 C   0  0  0  0  0  0  0  0  0  0  0  0
   -6.2213    0.1296    0.2652 O   0  0  0  0  0  0  0  0  0  0  0  0
   -6.7088   -2.1270    0.7168 C   0  0  0  0  0  0  0  0  0  0  0  0
   -7.1713   -2.2193    1.7126 H   0  0  0  0  0  0  0  0  0  0  0  0
   -7.5511   -2.0547    0.0101 H   0  0  0  0  0  0  0  0  0  0  0  0
   -6.2485   -3.1083    0.5191 H   0  0  0  0  0  0  0  0  0  0  0  0
   -4.4733   -1.2411    0.9668 N   0  0  0  0  0  0  0  0  0  0  0  0
   -3.4203   -0.2603    0.9449 C   0  0  2  0  0  0  0  0  0  0  0  0
   -2.1242   -0.9699    0.5759 C   0  0  0  0  0  0  0  0  0  0  0  0
   -1.8694   -2.1225    0.9189 O   0  0  0  0  0  0  0  0  0  0  0  0
   -3.2916    0.4435    2.2868 C   0  0  0  0  0  0  0  0  0  0  0  0
   -4.2421   -2.1920    1.2489 H   0  0  0  0  0  0  0  0  0  0  0  0
   -3.6772    0.4622    0.1625 H   0  0  0  0  0  0  0  0  0  0  0  0
   -3.0345   -0.2644    3.0832 H   0  0  0  0  0  0  0  0  0  0  0  0
   -2.5093    1.2092    2.2599 H   0  0  0  0  0  0  0  0  0  0  0  0
   -4.2338    0.9283    2.5645 H   0  0  0  0  0  0  0  0  0  0  0  0
   -1.2626   -0.1515   -0.1463 N   0  0  0  0  0  0  0  0  0  0  0  0
    0.0431   -0.5785   -0.5755 C   0  0  2  0  0  0  0  0  0  0  0  0
    0.2499   -2.0102   -0.0991 C   0  0  0  0  0  0  0  0  0  0  0  0
   -0.4377   -2.5318    0.7762 O   0  0  0  0  0  0  0  0  0  0  0  0
    1.1302    0.3369   -0.0342 C   0  0  0  0  0  0  0  0  0  0  0  0
   -1.5766    0.7776   -0.4197 H   0  0  0  0  0  0  0  0  0  0  0  0
    0.0397   -0.5543   -1.6707 H   0  0  0  0  0  0  0  0  0  0  0  0
    1.1491    0.3258    1.0617 H   0  0  0  0  0  0  0  0  0  0  0  0
    2.1204    0.0275   -0.3849 H   0  0  0  0  0  0  0  0  0  0  0  0
    0.9633    1.3714   -0.3533 H   0  0  0  0  0  0  0  0  0  0  0  0
    1.3217   -2.6273   -0.7348 N   0  0  0  0  0  0  0  0  0  0  0  0
    1.7450   -3.9680   -0.4271 C   0  0  2  0  0  0  0  0  0  0  0  0
    3.2540   -4.0408   -0.6202 C   0  0  0  0  0  0  0  0  0  0  0  0
    3.8513   -3.4017   -1.4838 O   0  0  0  0  0  0  0  0  0  0  0  0
    1.0350   -4.9875   -1.3041 C   0  0  0  0  0  0  0  0  0  0  0  0
    1.8090   -2.1297   -1.4775 H   0  0  0  0  0  0  0  0  0  0  0  0
    1.5023   -4.1423    0.6269 H   0  0  0  0  0  0  0  0  0  0  0  0
    1.2661   -4.8289   -2.3638 H   0  0  0  0  0  0  0  0  0  0  0  0
    1.3369   -6.0088   -1.0494 H   0  0  0  0  0  0  0  0  0  0  0  0
   -0.0515   -4.9136   -1.1863 H   0  0  0  0  0  0  0  0  0  0  0  0
    3.8498   -4.9361    0.2571 N   0  0  0  0  0  0  0  0  0  0  0  0
    5.2670   -5.2144    0.2438 C   0  0  0  0  0  0  0  0  0  0  0  0
    3.2839   -5.3920    0.9667 H   0  0  0  0  0  0  0  0  0  0  0  0
    5.4646   -6.0829   -0.4017 H   0  0  0  0  0  0  0  0  0  0  0  0
    5.8089   -4.3390   -0.1434 H   0  0  0  0  0  0  0  0  0  0  0  0
    5.6071   -5.4332    1.2668 H   0  0  0  0  0  0  0  0  0  0  0  0
  1  3  1  0  0  0  0
  1  7  1  0  0  0  0
  1  2  2  0  0  0  0
 28 29  1  0  0  0  0
 29 37  1  0  0  0  0
 29 30  2  0  0  0  0
 18 19  1  0  0  0  0
 19 27  1  0  0  0  0
 19 20  2  0  0  0  0
  8  9  1  0  0  0  0
  9 17  1  0  0  0  0
  9 10  2  0  0  0  0
 28 31  1  0  0  0  0
 18 21  1  0  0  0  0
  8 11  1  0  0  0  0
 37 38  1  0  0  0  0
 27 28  1  0  0  0  0
 17 18  1  0  0  0  0
  7  8  1  0  0  0  0
  3  4  1  0  0  0  0
  3  5  1  0  0  0  0
  3  6  1  0  0  0  0
 31 34  1  0  0  0  0
 31 35  1  0  0  0  0
 31 36  1  0  0  0  0
 21 24  1  0  0  0  0
 21 25  1  0  0  0  0
 21 26  1  0  0  0  0
 11 14  1  0  0  0  0
 11 15  1  0  0  0  0
 11 16  1  0  0  0  0
 38 40  1  0  0  0  0
 38 41  1  0  0  0  0
 38 42  1  0  0  0  0
 28 33  1  0  0  0  0
 18 23  1  0  0  0  0
  8 13  1  0  0  0  0
 37 39  1  0  0  0  0
  7 12  1  0  0  0  0
 27 32  1  0  0  0  0
 17 22  1  0  0  0  0
M  END
$$$$

  -OEChem-05262214473D

 42 41  0     1  0  0  0  0  0999 V2000
   -5.7851   -0.9580    0.6237 C   0  0  0  0  0  0  0  0  0  0  0  0
   -6.2213    0.1296    0.2652 O   0  0  0  0  0  0  0  0  0  0  0  0
   -6.7088   -2.1270    0.7168 C   0  0  0  0  0  0  0  0  0  0  0  0
   -7.1713   -2.2193    1.7126 H   0  0  0  0  0  0  0  0  0  0  0  0
   -7.5511   -2.0547    0.0101 H   0  0  0  0  0  0  0  0  0  0  0  0
   -6.2485   -3.1083    0.5191 H   0  0  0  0  0  0  0  0  0  0  0  0
   -4.4733   -1.2411    0.9668 N   0  0  0  0  0  0  0  0  0  0  0  0
   -3.4203   -0.2603    0.9449 C   0  0  2  0  0  0  0  0  0  0  0  0
   -2.1242   -0.9699    0.5759 C   0  0  0  0  0  0  0  0  0  0  0  0
   -1.8694   -2.1225    0.9189 O   0  0  0  0  0  0  0  0  0  0  0  0
   -3.2916    0.4435    2.2868 C   0  0  0  0  0  0  0  0  0  0  0  0
   -4.2421   -2.1920    1.2489 H   0  0  0  0  0  0  0  0  0  0  0  0
   -3.6772    0.4622    0.1625 H   0  0  0  0  0  0  0  0  0  0  0  0
   -3.0345   -0.2644    3.0832 H   0  0  0  0  0  0  0  0  0  0  0  0
   -2.5093    1.2092    2.2599 H   0  0  0  0  0  0  0  0  0  0  0  0
   -4.2338    0.9283    2.5645 H   0  0  0  0  0  0  0  0  0  0  0  0
   -1.2626   -0.1515   -0.1463 N   0  0  0  0  0  0  0  0  0  0  0  0
    0.0431   -0.5785   -0.5755 C   0  0  2  0  0  0  0  0  0  0  0  0
    0.1103   -2.0940   -0.4404 C   0  0  0  0  0  0  0  0  0  0  0  0
   -0.8154   -2.7695    0.0042 O   0  0  0  0  0  0  0  0  0  0  0  0
    1.1394    0.0891    0.2401 C   0  0  0  0  0  0  0  0  0  0  0  0
   -1.5766    0.7776   -0.4197 H   0  0  0  0  0  0  0  0  0  0  0  0
    0.1355   -0.3009   -1.6312 H   0  0  0  0  0  0  0  0  0  0  0  0
    1.0631   -0.1773    1.3006 H   0  0  0  0  0  0  0  0  0  0  0  0
    2.1327   -0.2149   -0.1064 H   0  0  0  0  0  0  0  0  0  0  0  0
    1.0713    1.1798    0.1656 H   0  0  0  0  0  0  0  0  0  0  0  0
    1.3427   -2.6039   -0.8342 N   0  0  0  0  0  0  0  0  0  0  0  0
    1.6679   -4.0039   -0.7603 C   0  0  2  0  0  0  0  0  0  0  0  0
    3.1582   -4.1260   -0.4711 C   0  0  0  0  0  0  0  0  0  0  0  0
    3.9925   -3.3338   -0.9040 O   0  0  0  0  0  0  0  0  0  0  0  0
    1.3032   -4.7255   -2.0483 C   0  0  0  0  0  0  0  0  0  0  0  0
    2.0363   -1.9712   -1.2282 H   0  0  0  0  0  0  0  0  0  0  0  0
    1.0974   -4.4172    0.0787 H   0  0  0  0  0  0  0  0  0  0  0  0
    1.8649   -4.3250   -2.9002 H   0  0  0  0  0  0  0  0  0  0  0  0
    1.5248   -5.7956   -1.9801 H   0  0  0  0  0  0  0  0  0  0  0  0
    0.2367   -4.6115   -2.2704 H   0  0  0  0  0  0  0  0  0  0  0  0
    3.4517   -5.2478    0.2914 N   0  0  0  0  0  0  0  0  0  0  0  0
    4.8004   -5.6071    0.6627 C   0  0  0  0  0  0  0  0  0  0  0  0
    2.6937   -5.8269    0.6407 H   0  0  0  0  0  0  0  0  0  0  0  0
    5.2148   -6.2998   -0.0846 H   0  0  0  0  0  0  0  0  0  0  0  0
    5.4222   -4.7008    0.7069 H   0  0  0  0  0  0  0  0  0  0  0  0
    4.7917   -6.0942    1.6489 H   0  0  0  0  0  0  0  0  0  0  0  0
  1  3  1  0  0  0  0
  1  7  1  0  0  0  0
  1  2  2  0  0  0  0
 28 29  1  0  0  0  0
 29 37  1  0  0  0  0
 29 30  2  0  0  0  0
 18 19  1  0  0  0  0
 19 27  1  0  0  0  0
 19 20  2  0  0  0  0
  8  9  1  0  0  0  0
  9 17  1  0  0  0  0
  9 10  2  0  0  0  0
 28 31  1  0  0  0  0
 18 21  1  0  0  0  0
  8 11  1  0  0  0  0
 37 38  1  0  0  0  0
 27 28  1  0  0  0  0
 17 18  1  0  0  0  0
  7  8  1  0  0  0  0
  3  4  1  0  0  0  0
  3  5  1  0  0  0  0
  3  6  1  0  0  0  0
 31 34  1  0  0  0  0
 31 35  1  0  0  0  0
 31 36  1  0  0  0  0
 21 24  1  0  0  0  0
 21 25  1  0  0  0  0
 21 26  1  0  0  0  0
 11 14  1  0  0  0  0
 11 15  1  0  0  0  0
 11 16  1  0  0  0  0
 38 40  1  0  0  0  0
 38 41  1  0  0  0  0
 38 42  1  0  0  0  0
 28 33  1  0  0  0  0
 18 23  1  0  0  0  0
  8 13  1  0  0  0  0
 37 39  1  0  0  0  0
  7 12  1  0  0  0  0
 27 32  1  0  0  0  0
 17 22  1  0  0  0  0
M  END
$$$$

  -OEChem-05262214473D

 42 41  0     1  0  0  0  0  0999 V2000
   -5.7851   -0.9580    0.6237 C   0  0  0  0  0  0  0  0  0  0  0  0
   -6.2213    0.1296    0.2652 O   0  0  0  0  0  0  0  0  0  0  0  0
   -6.7088   -2.1270    0.7168 C   0  0  0  0  0  0  0  0  0  0  0  0
   -7.1713   -2.2193    1.7126 H   0  0  0  0  0  0  0  0  0  0  0  0
   -7.5511   -2.0547    0.0101 H   0  0  0  0  0  0  0  0  0  0  0  0
   -6.2485   -3.1083    0.5191 H   0  0  0  0  0  0  0  0  0  0  0  0
   -4.4733   -1.2411    0.9668 N   0  0  0  0  0  0  0  0  0  0  0  0
   -3.4203   -0.2603    0.9449 C   0  0  2  0  0  0  0  0  0  0  0  0
   -2.1242   -0.9699    0.5759 C   0  0  0  0  0  0  0  0  0  0  0  0
   -1.8694   -2.1225    0.9189 O   0  0  0  0  0  0  0  0  0  0  0  0
   -3.2916    0.4435    2.2868 C   0  0  0  0  0  0  0  0  0  0  0  0
   -4.2421   -2.1920    1.2489 H   0  0  0  0  0  0  0  0  0  0  0  0
   -3.6772    0.4622    0.1625 H   0  0  0  0  0  0  0  0  0  0  0  0
   -3.0345   -0.2644    3.0832 H   0  0  0  0  0  0  0  0  0  0  0  0
   -2.5093    1.2092    2.2599 H   0  0  0  0  0  0  0  0  0  0  0  0
   -4.2338    0.9283    2.5645 H   0  0  0  0  0  0  0  0  0  0  0  0
   -1.2626   -0.1515   -0.1463 N   0  0  0  0  0  0  0  0  0  0  0  0
    0.0431   -0.5785   -0.5755 C   0  0  2  0  0  0  0  0  0  0  0  0
    0.1103   -2.0940   -0.4404 C   0  0  0  0  0  0  0  0  0  0  0  0
   -0.8819   -2.7955   -0.2551 O   0  0  0  0  0  0  0  0  0  0  0  0
    1.1394    0.0891    0.2401 C   0  0  0  0  0  0  0  0  0  0  0  0
   -1.5766    0.7776   -0.4197 H   0  0  0  0  0  0  0  0  0  0  0  0
    0.1355   -0.3009   -1.6312 H   0  0  0  0  0  0  0  0  0  0  0  0
    1.0631   -0.1773    1.3006 H   0  0  0  0  0  0  0  0  0  0  0  0
    2.1327   -0.2149   -0.1064 H   0  0  0  0  0  0  0  0  0  0  0  0
    1.0713    1.1798    0.1656 H   0  0  0  0  0  0  0  0  0  0  0  0
    1.4146   -2.5716   -0.5076 N   0  0  0  0  0  0  0  0  0  0  0  0
    1.7439   -3.9653   -0.3642 C   0  0  2  0  0  0  0  0  0  0  0  0
    3.1121   -4.0594    0.2982 C   0  0  0  0  0  0  0  0  0  0  0  0
    4.0102   -3.2434    0.1016 O   0  0  0  0  0  0  0  0  0  0  0  0
    1.7409   -4.6758   -1.7088 C   0  0  0  0  0  0  0  0  0  0  0  0
    2.1706   -1.9185   -0.7042 H   0  0  0  0  0  0  0  0  0  0  0  0
    0.9870   -4.4028    0.2959 H   0  0  0  0  0  0  0  0  0  0  0  0
    2.4930   -4.2511   -2.3837 H   0  0  0  0  0  0  0  0  0  0  0  0
    1.9636   -5.7418   -1.5947 H   0  0  0  0  0  0  0  0  0  0  0  0
    0.7650   -4.5816   -2.1971 H   0  0  0  0  0  0  0  0  0  0  0  0
    3.2268   -5.1856    1.1011 N   0  0  0  0  0  0  0  0  0  0  0  0
    4.4428   -5.5212    1.8043 C   0  0  0  0  0  0  0  0  0  0  0  0
    2.4189   -5.7858    1.2384 H   0  0  0  0  0  0  0  0  0  0  0  0
    5.0525   -6.1940    1.1833 H   0  0  0  0  0  0  0  0  0  0  0  0
    5.0099   -4.6025    2.0149 H   0  0  0  0  0  0  0  0  0  0  0  0
    4.1925   -6.0226    2.7509 H   0  0  0  0  0  0  0  0  0  0  0  0
  1  3  1  0  0  0  0
  1  7  1  0  0  0  0
  1  2  2  0  0  0  0
 28 29  1  0  0  0  0
 29 37  1  0  0  0  0
 29 30  2  0  0  0  0
 18 19  1  0  0  0  0
 19 27  1  0  0  0  0
 19 20  2  0  0  0  0
  8  9  1  0  0  0  0
  9 17  1  0  0  0  0
  9 10  2  0  0  0  0
 28 31  1  0  0  0  0
 18 21  1  0  0  0  0
  8 11  1  0  0  0  0
 37 38  1  0  0  0  0
 27 28  1  0  0  0  0
 17 18  1  0  0  0  0
  7  8  1  0  0  0  0
  3  4  1  0  0  0  0
  3  5  1  0  0  0  0
  3  6  1  0  0  0  0
 31 34  1  0  0  0  0
 31 35  1  0  0  0  0
 31 36  1  0  0  0  0
 21 24  1  0  0  0  0
 21 25  1  0  0  0  0
 21 26  1  0  0  0  0
 11 14  1  0  0  0  0
 11 15  1  0  0  0  0
 11 16  1  0  0  0  0
 38 40  1  0  0  0  0
 38 41  1  0  0  0  0
 38 42  1  0  0  0  0
 28 33  1  0  0  0  0
 18 23  1  0  0  0  0
  8 13  1  0  0  0  0
 37 39  1  0  0  0  0
  7 12  1  0  0  0  0
 27 32  1  0  0  0  0
 17 22  1  0  0  0  0
M  END
$$$$

  -OEChem-05262214473D

 42 41  0     1  0  0  0  0  0999 V2000
   -5.7851   -0.9580    0.6237 C   0  0  0  0  0  0  0  0  0  0  0  0
   -6.2213    0.1296    0.2652 O   0  0  0  0  0  0  0  0  0  0  0  0
   -6.7088   -2.1270    0.7168 C   0  0  0  0  0  0  0  0  0  0  0  0
   -7.1713   -2.2193    1.7126 H   0  0  0  0  0  0  0  0  0  0  0  0
   -7.5511   -2.0547    0.0101 H   0  0  0  0  0  0  0  0  0  0  0  0
   -6.2485   -3.1083    0.5191 H   0  0  0  0  0  0  0  0  0  0  0  0
   -4.4733   -1.2411    0.9668 N   0  0  0  0  0  0  0  0  0  0  0  0
   -3.4203   -0.2603    0.9449 C   0  0  2  0  0  0  0  0  0  0  0  0
   -2.1242   -0.9699    0.5759 C   0  0  0  0  0  0  0  0  0  0  0  0
   -1.8694   -2.1225    0.9189 O   0  0  0  0  0  0  0  0  0  0  0  0
   -3.2916    0.4435    2.2868 C   0  0  0  0  0  0  0  0  0  0  0  0
   -4.2421   -2.1920    1.2489 H   0  0  0  0  0  0  0  0  0  0  0  0
   -3.6772    0.4622    0.1625 H   0  0  0  0  0  0  0  0  0  0  0  0
   -3.0345   -0.2644    3.0832 H   0  0  0  0  0  0  0  0  0  0  0  0
   -2.5093    1.2092    2.2599 H   0  0  0  0  0  0  0  0  0  0  0  0
   -4.2338    0.9283    2.5645 H   0  0  0  0  0  0  0  0  0  0  0  0
   -1.2626   -0.1515   -0.1463 N   0  0  0  0  0  0  0  0  0  0  0  0
    0.0431   -0.5785   -0.5755 C   0  0  2  0  0  0  0  0  0  0  0  0
    0.1103   -2.0940   -0.4404 C   0  0  0  0  0  0  0  0  0  0  0  0
   -0.8787   -2.8193   -0.5229 O   0  0  0  0  0  0  0  0  0  0  0  0
    1.1394    0.0891    0.2401 C   0  0  0  0  0  0  0  0  0  0  0  0
   -1.5766    0.7776   -0.4197 H   0  0  0  0  0  0  0  0  0  0  0  0
    0.1355   -0.3009   -1.6312 H   0  0  0  0  0  0  0  0  0  0  0  0
    1.0631   -0.1773    1.3006 H   0  0  0  0  0  0  0  0  0  0  0  0
    2.1327   -0.2149   -0.1064 H   0  0  0  0  0  0  0  0  0  0  0  0
    1.0713    1.1798    0.1656 H   0  0  0  0  0  0  0  0  0  0  0  0
    1.3992   -2.5424   -0.1733 N   0  0  0  0  0  0  0  0  0  0  0  0
    1.7145   -3.9307    0.0384 C   0  0  2  0  0  0  0  0  0  0  0  0
    2.8679   -4.0050    1.0302 C   0  0  0  0  0  0  0  0  0  0  0  0
    3.7661   -3.1671    1.0785 O   0  0  0  0  0  0  0  0  0  0  0  0
    2.0751   -4.6216   -1.2674 C   0  0  0  0  0  0  0  0  0  0  0  0
    2.1641   -1.8705   -0.1630 H   0  0  0  0  0  0  0  0  0  0  0  0
    0.8241   -4.3938    0.4775 H   0  0  0  0  0  0  0  0  0  0  0  0
    2.9649   -4.1712   -1.7222 H   0  0  0  0  0  0  0  0  0  0  0  0
    2.2869   -5.6842   -1.1088 H   0  0  0  0  0  0  0  0  0  0  0  0
    1.2558   -4.5414   -1.9900 H   0  0  0  0  0  0  0  0  0  0  0  0
    2.7996   -5.1400    1.8260 N   0  0  0  0  0  0  0  0  0  0  0  0
    3.8015   -5.4595    2.8160 C   0  0  0  0  0  0  0  0  0  0  0  0
    1.9985   -5.7592    1.7455 H   0  0  0  0  0  0  0  0  0  0  0  0
    4.5667   -6.1100    2.3674 H   0  0  0  0  0  0  0  0  0  0  0  0
    4.2726   -4.5319    3.1733 H   0  0  0  0  0  0  0  0  0  0  0  0
    3.3282   -5.9797    3.6618 H   0  0  0  0  0  0  0  0  0  0  0  0
  1  3  1  0  0  0  0
  1  7  1  0  0  0  0
  1  2  2  0  0  0  0
 28 29  1  0  0  0  0
 29 37  1  0  0  0  0
 29 30  2  0  0  0  0
 18 19  1  0  0  0  0
 19 27  1  0  0  0  0
 19 20  2  0  0  0  0
  8  9  1  0  0  0  0
  9 17  1  0  0  0  0
  9 10  2  0  0  0  0
 28 31  1  0  0  0  0
 18 21  1  0  0  0  0
  8 11  1  0  0  0  0
 37 38  1  0  0  0  0
 27 28  1  0  0  0  0
 17 18  1  0  0  0  0
  7  8  1  0  0  0  0
  3  4  1  0  0  0  0
  3  5  1  0  0  0  0
  3  6  1  0  0  0  0
 31 34  1  0  0  0  0
 31 35  1  0  0  0  0
 31 36  1  0  0  0  0
 21 24  1  0  0  0  0
 21 25  1  0  0  0  0
 21 26  1  0  0  0  0
 11 14  1  0  0  0  0
 11 15  1  0  0  0  0
 11 16  1  0  0  0  0
 38 40  1  0  0  0  0
 38 41  1  0  0  0  0
 38 42  1  0  0  0  0
 28 33  1  0  0  0  0
 18 23  1  0  0  0  0
  8 13  1  0  0  0  0
 37 39  1  0  0  0  0
  7 12  1  0  0  0  0
 27 32  1  0  0  0  0
 17 22  1  0  0  0  0
M  END
$$$$

  -OEChem-05262214473D

 42 41  0     1  0  0  0  0  0999 V2000
   -5.7851   -0.9580    0.6237 C   0  0  0  0  0  0  0  0  0  0  0  0
   -6.2213    0.1296    0.2652 O   0  0  0  0  0  0  0  0  0  0  0  0
   -6.7088   -2.1270    0.7168 C   0  0  0  0  0  0  0  0  0  0  0  0
   -7.1713   -2.2193    1.7126 H   0  0  0  0  0  0  0  0  0  0  0  0
   -7.5511   -2.0547    0.0101 H   0  0  0  0  0  0  0  0  0  0  0  0
   -6.2485   -3.1083    0.5191 H   0  0  0  0  0  0  0  0  0  0  0  0
   -4.4733   -1.2411    0.9668 N   0  0  0  0  0  0  0  0  0  0  0  0
   -3.4203   -0.2603    0.9449 C   0  0  2  0  0  0  0  0  0  0  0  0
   -2.1242   -0.9699    0.5759 C   0  0  0  0  0  0  0  0  0  0  0  0
   -1.8694   -2.1225    0.9189 O   0  0  0  0  0  0  0  0  0  0  0  0
   -3.2916    0.4435    2.2868 C   0  0  0  0  0  0  0  0  0  0  0  0
   -4.2421   -2.1920    1.2489 H   0  0  0  0  0  0  0  0  0  0  0  0
   -3.6772    0.4622    0.1625 H   0  0  0  0  0  0  0  0  0  0  0  0
   -3.0345   -0.2644    3.0832 H   0  0  0  0  0  0  0  0  0  0  0  0
   -2.5093    1.2092    2.2599 H   0  0  0  0  0  0  0  0  0  0  0  0
   -4.2338    0.9283    2.5645 H   0  0  0  0  0  0  0  0  0  0  0  0
   -1.2626   -0.1515   -0.1463 N   0  0  0  0  0  0  0  0  0  0  0  0
    0.0431   -0.5785   -0.5755 C   0  0  2  0  0  0  0  0  0  0  0  0
    0.1103   -2.0940   -0.4404 C   0  0  0  0  0  0  0  0  0  0  0  0
   -0.8061   -2.8391   -0.7811 O   0  0  0  0  0  0  0  0  0  0  0  0
    1.1394    0.0891    0.2401 C   0  0  0  0  0  0  0  0  0  0  0  0
   -1.5766    0.7776   -0.4197 H   0  0  0  0  0  0  0  0  0  0  0  0
    0.1355   -0.3009   -1.6312 H   0  0  0  0  0  0  0  0  0  0  0  0
    1.0631   -0.1773    1.3006 H   0  0  0  0  0  0  0  0  0  0  0  0
    2.1327   -0.2149   -0.1064 H   0  0  0  0  0  0  0  0  0  0  0  0
    1.0713    1.1798    0.1656 H   0  0  0  0  0  0  0  0  0  0  0  0
    1.2976   -2.5185    0.1460 N   0  0  0  0  0  0  0  0  0  0  0  0
    1.5816   -3.9025    0.4201 C   0  0  2  0  0  0  0  0  0  0  0  0
    2.4424   -3.9664    1.6750 C   0  0  0  0  0  0  0  0  0  0  0  0
    3.2771   -3.1102    1.9601 O   0  0  0  0  0  0  0  0  0  0  0  0
    2.2830   -4.5667   -0.7545 C   0  0  0  0  0  0  0  0  0  0  0  0
    2.0174   -1.8305    0.3588 H   0  0  0  0  0  0  0  0  0  0  0  0
    0.6198   -4.3909    0.6111 H   0  0  0  0  0  0  0  0  0  0  0  0
    3.2486   -4.0908   -0.9608 H   0  0  0  0  0  0  0  0  0  0  0  0
    2.4727   -5.6266   -0.5556 H   0  0  0  0  0  0  0  0  0  0  0  0
    1.6756   -4.4936   -1.6630 H   0  0  0  0  0  0  0  0  0  0  0  0
    2.1992   -5.1139    2.4167 N   0  0  0  0  0  0  0  0  0  0  0  0
    2.9200   -5.4261    3.6287 C   0  0  0  0  0  0  0  0  0  0  0  0
    1.4612   -5.7490    2.1273 H   0  0  0  0  0  0  0  0  0  0  0  0
    3.7906   -6.0535    3.3869 H   0  0  0  0  0  0  0  0  0  0  0  0
    3.2605   -4.4939    4.1032 H   0  0  0  0  0  0  0  0  0  0  0  0
    2.2579   -5.9686    4.3196 H   0  0  0  0  0  0  0  0  0  0  0  0
  1  3  1  0  0  0  0
  1  7  1  0  0  0  0
  1  2  2  0  0  0  0
 28 29  1  0  0  0  0
 29 37  1  0  0  0  0
 29 30  2  0  0  0  0
 18 19  1  0  0  0  0
 19 27  1  0  0  0  0
 19 20  2  0  0  0  0
  8  9  1  0  0  0  0
  9 17  1  0  0  0  0
  9 10  2  0  0  0  0
 28 31  1  0  0  0  0
 18 21  1  0  0  0  0
  8 11  1  0  0  0  0
 37 38  1  0  0  0  0
 27 28  1  0  0  0  0
 17 18  1  0  0  0  0
  7  8  1  0  0  0  0
  3  4  1  0  0  0  0
  3  5  1  0  0  0  0
  3  6  1  0  0  0  0
 31 34  1  0  0  0  0
 31 35  1  0  0  0  0
 31 36  1  0  0  0  0
 21 24  1  0  0  0  0
 21 25  1  0  0  0  0
 21 26  1  0  0  0  0
 11 14  1  0  0  0  0
 11 15  1  0  0  0  0
 11 16  1  0  0  0  0
 38 40  1  0  0  0  0
 38 41  1  0  0  0  0
 38 42  1  0  0  0  0
 28 33  1  0  0  0  0
 18 23  1  0  0  0  0
  8 13  1  0  0  0  0
 37 39  1  0  0  0  0
  7 12  1  0  0  0  0
 27 32  1  0  0  0  0
 17 22  1  0  0  0  0
M  END
$$$$

  -OEChem-05262214473D

 42 41  0     1  0  0  0  0  0999 V2000
   -5.7851   -0.9580    0.6237 C   0  0  0  0  0  0  0  0  0  0  0  0
   -6.2213    0.1296    0.2652 O   0  0  0  0  0  0  0  0  0  0  0  0
   -6.7088   -2.1270    0.7168 C   0  0  0  0  0  0  0  0  0  0  0  0
   -7.1713   -2.2193    1.7126 H   0  0  0  0  0  0  0  0  0  0  0  0
   -7.5511   -2.0547    0.0101 H   0  0  0  0  0  0  0  0  0  0  0  0
   -6.2485   -3.1083    0.5191 H   0  0  0  0  0  0  0  0  0  0  0  0
   -4.4733   -1.2411    0.9668 N   0  0  0  0  0  0  0  0  0  0  0  0
   -3.4203   -0.2603    0.9449 C   0  0  2  0  0  0  0  0  0  0  0  0
   -2.1242   -0.9699    0.5759 C   0  0  0  0  0  0  0  0  0  0  0  0
   -1.8694   -2.1225    0.9189 O   0  0  0  0  0  0  0  0  0  0  0  0
   -3.2916    0.4435    2.2868 C   0  0  0  0  0  0  0  0  0  0  0  0
   -4.2421   -2.1920    1.2489 H   0  0  0  0  0  0  0  0  0  0  0  0
   -3.6772    0.4622    0.1625 H   0  0  0  0  0  0  0  0  0  0  0  0
   -3.0345   -0.2644    3.0832 H   0  0  0  0  0  0  0  0  0  0  0  0
   -2.5093    1.2092    2.2599 H   0  0  0  0  0  0  0  0  0  0  0  0
   -4.2338    0.9283    2.5645 H   0  0  0  0  0  0  0  0  0  0  0  0
   -1.2626   -0.1515   -0.1463 N   0  0  0  0  0  0  0  0  0  0  0  0
    0.0431   -0.5785   -0.5755 C   0  0  2  0  0  0  0  0  0  0  0  0
    0.1103   -2.0940   -0.4404 C   0  0  0  0  0  0  0  0  0  0  0  0
   -0.6690   -2.8536   -1.0120 O   0  0  0  0  0  0  0  0  0  0  0  0
    1.1394    0.0891    0.2401 C   0  0  0  0  0  0  0  0  0  0  0  0
   -1.5766    0.7776   -0.4197 H   0  0  0  0  0  0  0  0  0  0  0  0
    0.1355   -0.3009   -1.6312 H   0  0  0  0  0  0  0  0  0  0  0  0
    1.0631   -0.1773    1.3006 H   0  0  0  0  0  0  0  0  0  0  0  0
    2.1327   -0.2149   -0.1064 H   0  0  0  0  0  0  0  0  0  0  0  0
    1.0713    1.1798    0.1656 H   0  0  0  0  0  0  0  0  0  0  0  0
    1.1167   -2.5013    0.4285 N   0  0  0  0  0  0  0  0  0  0  0  0
    1.3543   -3.8828    0.7550 C   0  0  2  0  0  0  0  0  0  0  0  0
    1.8643   -3.9463    2.1886 C   0  0  0  0  0  0  0  0  0  0  0  0
    2.5763   -3.0766    2.6864 O   0  0  0  0  0  0  0  0  0  0  0  0
    2.3504   -4.5147   -0.2048 C   0  0  0  0  0  0  0  0  0  0  0  0
    1.7404   -1.8012    0.8254 H   0  0  0  0  0  0  0  0  0  0  0  0
    0.3880   -4.3944    0.6875 H   0  0  0  0  0  0  0  0  0  0  0  0
    3.3246   -4.0152   -0.1514 H   0  0  0  0  0  0  0  0  0  0  0  0
    2.5084   -5.5731    0.0273 H   0  0  0  0  0  0  0  0  0  0  0  0
    1.9957   -4.4415   -1.2386 H   0  0  0  0  0  0  0  0  0  0  0  0
    1.4666   -5.1093    2.8330 N   0  0  0  0  0  0  0  0  0  0  0  0
    1.8585   -5.4234    4.1871 C   0  0  0  0  0  0  0  0  0  0  0  0
    0.8437   -5.7559    2.3578 H   0  0  0  0  0  0  0  0  0  0  0  0
    2.7771   -6.0284    4.1726 H   0  0  0  0  0  0  0  0  0  0  0  0
    2.0425   -4.4911    4.7411 H   0  0  0  0  0  0  0  0  0  0  0  0
    1.0543   -5.9899    4.6795 H   0  0  0  0  0  0  0  0  0  0  0  0
  1  3  1  0  0  0  0
  1  7  1  0  0  0  0
  1  2  2  0  0  0  0
 28 29  1  0  0  0  0
 29 37  1  0  0  0  0
 29 30  2  0  0  0  0
 18 19  1  0  0  0  0
 19 27  1  0  0  0  0
 19 20  2  0  0  0  0
  8  9  1  0  0  0  0
  9 17  1  0  0  0  0
  9 10  2  0  0  0  0
 28 31  1  0  0  0  0
 18 21  1  0  0  0  0
  8 11  1  0  0  0  0
 37 38  1  0  0  0  0
 27 28  1  0  0  0  0
 17 18  1  0  0  0  0
  7  8  1  0  0  0  0
  3  4  1  0  0  0  0
  3  5  1  0  0  0  0
  3  6  1  0  0  0  0
 31 34  1  0  0  0  0
 31 35  1  0  0  0  0
 31 36  1  0  0  0  0
 21 24  1  0  0  0  0
 21 25  1  0  0  0  0
 21 26  1  0  0  0  0
 11 14  1  0  0  0  0
 11 15  1  0  0  0  0
 11 16  1  0  0  0  0
 38 40  1  0  0  0  0
 38 41  1  0  0  0  0
 38 42  1  0  0  0  0
 28 33  1  0  0  0  0
 18 23  1  0  0  0  0
  8 13  1  0  0  0  0
 37 39  1  0  0  0  0
  7 12  1  0  0  0  0
 27 32  1  0  0  0  0
 17 22  1  0  0  0  0
M  END
$$$$

  -OEChem-05262214473D

 42 41  0     1  0  0  0  0  0999 V2000
   -5.7851   -0.9580    0.6237 C   0  0  0  0  0  0  0  0  0  0  0  0
   -6.2213    0.1296    0.2652 O   0  0  0  0  0  0  0  0  0  0  0  0
   -6.7088   -2.1270    0.7168 C   0  0  0  0  0  0  0  0  0  0  0  0
   -7.1713   -2.2193    1.7126 H   0  0  0  0  0  0  0  0  0  0  0  0
   -7.5511   -2.0547    0.0101 H   0  0  0  0  0  0  0  0  0  0  0  0
   -6.2485   -3.1083    0.5191 H   0  0  0  0  0  0  0  0  0  0  0  0
   -4.4733   -1.2411    0.9668 N   0  0  0  0  0  0  0  0  0  0  0  0
   -3.4203   -0.2603    0.9449 C   0  0  2  0  0  0  0  0  0  0  0  0
   -2.1242   -0.9699    0.5759 C   0  0  0  0  0  0  0  0  0  0  0  0
   -1.8694   -2.1225    0.9189 O   0  0  0  0  0  0  0  0  0  0  0  0
   -3.2916    0.4435    2.2868 C   0  0  0  0  0  0  0  0  0  0  0  0
   -4.2421   -2.1920    1.2489 H   0  0  0  0  0  0  0  0  0  0  0  0
   -3.6772    0.4622    0.1625 H   0  0  0  0  0  0  0  0  0  0  0  0
   -3.0345   -0.2644    3.0832 H   0  0  0  0  0  0  0  0  0  0  0  0
   -2.5093    1.2092    2.2599 H   0  0  0  0  0  0  0  0  0  0  0  0
   -4.2338    0.9283    2.5645 H   0  0  0  0  0  0  0  0  0  0  0  0
   -1.2626   -0.1515   -0.1463 N   0  0  0  0  0  0  0  0  0  0  0  0
    0.0431   -0.5785   -0.5755 C   0  0  2  0  0  0  0  0  0  0  0  0
    0.1103   -2.0940   -0.4404 C   0  0  0  0  0  0  0  0  0  0  0  0
   -0.4768   -2.8618   -1.1999 O   0  0  0  0  0  0  0  0  0  0  0  0
    1.1394    0.0891    0.2401 C   0  0  0  0  0  0  0  0  0  0  0  0
   -1.5766    0.7776   -0.4197 H   0  0  0  0  0  0  0  0  0  0  0  0
    0.1355   -0.3009   -1.6312 H   0  0  0  0  0  0  0  0  0  0  0  0
    1.0631   -0.1773    1.3006 H   0  0  0  0  0  0  0  0  0  0  0  0
    2.1327   -0.2149   -0.1064 H   0  0  0  0  0  0  0  0  0  0  0  0
    1.0713    1.1798    0.1656 H   0  0  0  0  0  0  0  0  0  0  0  0
    0.8687   -2.4921    0.6551 N   0  0  0  0  0  0  0  0  0  0  0  0
    1.0480   -3.8727    1.0200 C   0  0  2  0  0  0  0  0  0  0  0  0
    1.1732   -3.9459    2.5361 C   0  0  0  0  0  0  0  0  0  0  0  0
    1.7116   -3.0685    3.2079 O   0  0  0  0  0  0  0  0  0  0  0  0
    2.2728   -4.4692    0.3441 C   0  0  0  0  0  0  0  0  0  0  0  0
    1.3519   -1.7846    1.2051 H   0  0  0  0  0  0  0  0  0  0  0  0
    0.1445   -4.4040    0.7015 H   0  0  0  0  0  0  0  0  0  0  0  0
    3.1879   -3.9498    0.6510 H   0  0  0  0  0  0  0  0  0  0  0  0
    2.3915   -5.5272    0.6002 H   0  0  0  0  0  0  0  0  0  0  0  0
    2.1945   -4.3888   -0.7455 H   0  0  0  0  0  0  0  0  0  0  0  0
    0.6516   -5.1264    3.0464 N   0  0  0  0  0  0  0  0  0  0  0  0
    0.6893   -5.4516    4.4531 C   0  0  0  0  0  0  0  0  0  0  0  0
    0.1880   -5.7793    2.4214 H   0  0  0  0  0  0  0  0  0  0  0  0
    1.5952   -6.0365    4.6707 H   0  0  0  0  0  0  0  0  0  0  0  0
    0.7016   -4.5236    5.0436 H   0  0  0  0  0  0  0  0  0  0  0  0
   -0.2005   -6.0422    4.7168 H   0  0  0  0  0  0  0  0  0  0  0  0
  1  3  1  0  0  0  0
  1  7  1  0  0  0  0
  1  2  2  0  0  0  0
 28 29  1  0  0  0  0
 29 37  1  0  0  0  0
 29 30  2  0  0  0  0
 18 19  1  0  0  0  0
 19 27  1  0  0  0  0
 19 20  2  0  0  0  0
  8  9  1  0  0  0  0
  9 17  1  0  0  0  0
  9 10  2  0  0  0  0
 28 31  1  0  0  0  0
 18 21  1  0  0  0  0
  8 11  1  0  0  0  0
 37 38  1  0  0  0  0
 27 28  1  0  0  0  0
 17 18  1  0  0  0  0
  7  8  1  0  0  0  0
  3  4  1  0  0  0  0
  3  5  1  0  0  0  0
  3  6  1  0  0  0  0
 31 34  1  0  0  0  0
 31 35  1  0  0  0  0
 31 36  1  0  0  0  0
 21 24  1  0  0  0  0
 21 25  1  0  0  0  0
 21 26  1  0  0  0  0
 11 14  1  0  0  0  0
 11 15  1  0  0  0  0
 11 16  1  0  0  0  0
 38 40  1  0  0  0  0
 38 41  1  0  0  0  0
 38 42  1  0  0  0  0
 28 33  1  0  0  0  0
 18 23  1  0  0  0  0
  8 13  1  0  0  0  0
 37 39  1  0  0  0  0
  7 12  1  0  0  0  0
 27 32  1  0  0  0  0
 17 22  1  0  0  0  0
M  END
$$$$

  -OEChem-05262214473D

 42 41  0     1  0  0  0  0  0999 V2000
   -5.7851   -0.9580    0.6237 C   0  0  0  0  0  0  0  0  0  0  0  0
   -6.2213    0.1296    0.2652 O   0  0  0  0  0  0  0  0  0  0  0  0
   -6.7088   -2.1270    0.7168 C   0  0  0  0  0  0  0  0  0  0  0  0
   -7.1713   -2.2193    1.7126 H   0  0  0  0  0  0  0  0  0  0  0  0
   -7.5511   -2.0547    0.0101 H   0  0  0  0  0  0  0  0  0  0  0  0
   -6.2485   -3.1083    0.5191 H   0  0  0  0  0  0  0  0  0  0  0  0
   -4.4733   -1.2411    0.9668 N   0  0  0  0  0  0  0  0  0  0  0  0
   -3.4203   -0.2603    0.9449 C   0  0  2  0  0  0  0  0  0  0  0  0
   -2.1242   -0.9699    0.5759 C   0  0  0  0  0  0  0  0  0  0  0  0
   -1.8694   -2.1225    0.9189 O   0  0  0  0  0  0  0  0  0  0  0  0
   -3.2916    0.4435    2.2868 C   0  0  0  0  0  0  0  0  0  0  0  0
   -4.2421   -2.1920    1.2489 H   0  0  0  0  0  0  0  0  0  0  0  0
   -3.6772    0.4622    0.1625 H   0  0  0  0  0  0  0  0  0  0  0  0
   -3.0345   -0.2644    3.0832 H   0  0  0  0  0  0  0  0  0  0  0  0
   -2.5093    1.2092    2.2599 H   0  0  0  0  0  0  0  0  0  0  0  0
   -4.2338    0.9283    2.5645 H   0  0  0  0  0  0  0  0  0  0  0  0
   -1.2626   -0.1515   -0.1463 N   0  0  0  0  0  0  0  0  0  0  0  0
    0.0431   -0.5785   -0.5755 C   0  0  2  0  0  0  0  0  0  0  0  0
    0.1103   -2.0940   -0.4404 C   0  0  0  0  0  0  0  0  0  0  0  0
   -0.2426   -2.8632   -1.3320 O   0  0  0  0  0  0  0  0  0  0  0  0
    1.1394    0.0891    0.2401 C   0  0  0  0  0  0  0  0  0  0  0  0
   -1.5766    0.7776   -0.4197 H   0  0  0  0  0  0  0  0  0  0  0  0
    0.1355   -0.3009   -1.6312 H   0  0  0  0  0  0  0  0  0  0  0  0
    1.0631   -0.1773    1.3006 H   0  0  0  0  0  0  0  0  0  0  0  0
    2.1327   -0.2149   -0.1064 H   0  0  0  0  0  0  0  0  0  0  0  0
    1.0713    1.1798    0.1656 H   0  0  0  0  0  0  0  0  0  0  0  0
    0.5707   -2.4915    0.8101 N   0  0  0  0  0  0  0  0  0  0  0  0
    0.6837   -3.8731    1.1973 C   0  0  2  0  0  0  0  0  0  0  0  0
    0.4162   -3.9655    2.6938 C   0  0  0  0  0  0  0  0  0  0  0  0
    0.7418   -3.0864    3.4889 O   0  0  0  0  0  0  0  0  0  0  0  0
    2.0554   -4.4333    0.8548 C   0  0  0  0  0  0  0  0  0  0  0  0
    0.8786   -1.7818    1.4720 H   0  0  0  0  0  0  0  0  0  0  0  0
   -0.0941   -4.4189    0.6523 H   0  0  0  0  0  0  0  0  0  0  0  0
    2.8477   -3.8988    1.3915 H   0  0  0  0  0  0  0  0  0  0  0  0
    2.1301   -5.4921    1.1239 H   0  0  0  0  0  0  0  0  0  0  0  0
    2.2583   -4.3389   -0.2175 H   0  0  0  0  0  0  0  0  0  0  0  0
   -0.1902   -5.1641    3.0425 N   0  0  0  0  0  0  0  0  0  0  0  0
   -0.5080   -5.5086    4.4086 C   0  0  0  0  0  0  0  0  0  0  0  0
   -0.4612   -5.8177    2.3136 H   0  0  0  0  0  0  0  0  0  0  0  0
    0.3254   -6.0770    4.8473 H   0  0  0  0  0  0  0  0  0  0  0  0
   -0.6708   -4.5892    4.9901 H   0  0  0  0  0  0  0  0  0  0  0  0
   -1.4209   -6.1220    4.4292 H   0  0  0  0  0  0  0  0  0  0  0  0
  1  3  1  0  0  0  0
  1  7  1  0  0  0  0
  1  2  2  0  0  0  0
 28 29  1  0  0  0  0
 29 37  1  0  0  0  0
 29 30  2  0  0  0  0
 18 19  1  0  0  0  0
 19 27  1  0  0  0  0
 19 20  2  0  0  0  0
  8  9  1  0  0  0  0
  9 17  1  0  0  0  0
  9 10  2  0  0  0  0
 28 31  1  0  0  0  0
 18 21  1  0  0  0  0
  8 11  1  0  0  0  0
 37 38  1  0  0  0  0
 27 28  1  0  0  0  0
 17 18  1  0  0  0  0
  7  8  1  0  0  0  0
  3  4  1  0  0  0  0
  3  5  1  0  0  0  0
  3  6  1  0  0  0  0
 31 34  1  0  0  0  0
 31 35  1  0  0  0  0
 31 36  1  0  0  0  0
 21 24  1  0  0  0  0
 21 25  1  0  0  0  0
 21 26  1  0  0  0  0
 11 14  1  0  0  0  0
 11 15  1  0  0  0  0
 11 16  1  0  0  0  0
 38 40  1  0  0  0  0
 38 41  1  0  0  0  0
 38 42  1  0  0  0  0
 28 33  1  0  0  0  0
 18 23  1  0  0  0  0
  8 13  1  0  0  0  0
 37 39  1  0  0  0  0
  7 12  1  0  0  0  0
 27 32  1  0  0  0  0
 17 22  1  0  0  0  0
M  END
$$$$

  -OEChem-05262214473D

 42 41  0     1  0  0  0  0  0999 V2000
   -5.7851   -0.9580    0.6237 C   0  0  0  0  0  0  0  0  0  0  0  0
   -6.2213    0.1296    0.2652 O   0  0  0  0  0  0  0  0  0  0  0  0
   -6.7088   -2.1270    0.7168 C   0  0  0  0  0  0  0  0  0  0  0  0
   -7.1713   -2.2193    1.7126 H   0  0  0  0  0  0  0  0  0  0  0  0
   -7.5511   -2.0547    0.0101 H   0  0  0  0  0  0  0  0  0  0  0  0
   -6.2485   -3.1083    0.5191 H   0  0  0  0  0  0  0  0  0  0  0  0
   -4.4733   -1.2411    0.9668 N   0  0  0  0  0  0  0  0  0  0  0  0
   -3.4203   -0.2603    0.9449 C   0  0  2  0  0  0  0  0  0  0  0  0
   -2.1242   -0.9699    0.5759 C   0  0  0  0  0  0  0  0  0  0  0  0
   -1.8694   -2.1225    0.9189 O   0  0  0  0  0  0  0  0  0  0  0  0
   -3.2916    0.4435    2.2868 C   0  0  0  0  0  0  0  0  0  0  0  0
   -4.2421   -2.1920    1.2489 H   0  0  0  0  0  0  0  0  0  0  0  0
   -3.6772    0.4622    0.1625 H   0  0  0  0  0  0  0  0  0  0  0  0
   -3.0345   -0.2644    3.0832 H   0  0  0  0  0  0  0  0  0  0  0  0
   -2.5093    1.2092    2.2599 H   0  0  0  0  0  0  0  0  0  0  0  0
   -4.2338    0.9283    2.5645 H   0  0  0  0  0  0  0  0  0  0  0  0
   -1.2626   -0.1515   -0.1463 N   0  0  0  0  0  0  0  0  0  0  0  0
    0.0431   -0.5785   -0.5755 C   0  0  2  0  0  0  0  0  0  0  0  0
    0.1103   -2.0940   -0.4404 C   0  0  0  0  0  0  0  0  0  0  0  0
    0.0177   -2.8576   -1.3992 O   0  0  0  0  0  0  0  0  0  0  0  0
    1.1394    0.0891    0.2401 C   0  0  0  0  0  0  0  0  0  0  0  0
   -1.5766    0.7776   -0.4197 H   0  0  0  0  0  0  0  0  0  0  0  0
    0.1355   -0.3009   -1.6312 H   0  0  0  0  0  0  0  0  0  0  0  0
    1.0631   -0.1773    1.3006 H   0  0  0  0  0  0  0  0  0  0  0  0
    2.1327   -0.2149   -0.1064 H   0  0  0  0  0  0  0  0  0  0  0  0
    1.0713    1.1798    0.1656 H   0  0  0  0  0  0  0  0  0  0  0  0
    0.2429   -2.4996    0.8831 N   0  0  0  0  0  0  0  0  0  0  0  0
    0.2861   -3.8838    1.2747 C   0  0  2  0  0  0  0  0  0  0  0  0
   -0.3552   -4.0035    2.6509 C   0  0  0  0  0  0  0  0  0  0  0  0
   -0.2668   -3.1292    3.5105 O   0  0  0  0  0  0  0  0  0  0  0  0
    1.7130   -4.4095    1.2925 C   0  0  0  0  0  0  0  0  0  0  0  0
    0.3526   -1.7930    1.6079 H   0  0  0  0  0  0  0  0  0  0  0  0
   -0.3116   -4.4383    0.5431 H   0  0  0  0  0  0  0  0  0  0  0  0
    2.3272   -3.8659    2.0197 H   0  0  0  0  0  0  0  0  0  0  0  0
    1.7418   -5.4702    1.5629 H   0  0  0  0  0  0  0  0  0  0  0  0
    2.1827   -4.2952    0.3096 H   0  0  0  0  0  0  0  0  0  0  0  0
   -1.0015   -5.2198    2.8215 N   0  0  0  0  0  0  0  0  0  0  0  0
   -1.6516   -5.5907    4.0567 C   0  0  0  0  0  0  0  0  0  0  0  0
   -1.0596   -5.8684    2.0419 H   0  0  0  0  0  0  0  0  0  0  0  0
   -0.9456   -6.1474    4.6904 H   0  0  0  0  0  0  0  0  0  0  0  0
   -1.9811   -4.6835    4.5843 H   0  0  0  0  0  0  0  0  0  0  0  0
   -2.5238   -6.2237    3.8361 H   0  0  0  0  0  0  0  0  0  0  0  0
  1  3  1  0  0  0  0
  1  7  1  0  0  0  0
  1  2  2  0  0  0  0
 28 29  1  0  0  0  0
 29 37  1  0  0  0  0
 29 30  2  0  0  0  0
 18 19  1  0  0  0  0
 19 27  1  0  0  0  0
 19 20  2  0  0  0  0
  8  9  1  0  0  0  0
  9 17  1  0  0  0  0
  9 10  2  0  0  0  0
 28 31  1  0  0  0  0
 18 21  1  0  0  0  0
  8 11  1  0  0  0  0
 37 38  1  0  0  0  0
 27 28  1  0  0  0  0
 17 18  1  0  0  0  0
  7  8  1  0  0  0  0
  3  4  1  0  0  0  0
  3  5  1  0  0  0  0
  3  6  1  0  0  0  0
 31 34  1  0  0  0  0
 31 35  1  0  0  0  0
 31 36  1  0  0  0  0
 21 24  1  0  0  0  0
 21 25  1  0  0  0  0
 21 26  1  0  0  0  0
 11 14  1  0  0  0  0
 11 15  1  0  0  0  0
 11 16  1  0  0  0  0
 38 40  1  0  0  0  0
 38 41  1  0  0  0  0
 38 42  1  0  0  0  0
 28 33  1  0  0  0  0
 18 23  1  0  0  0  0
  8 13  1  0  0  0  0
 37 39  1  0  0  0  0
  7 12  1  0  0  0  0
 27 32  1  0  0  0  0
 17 22  1  0  0  0  0
M  END
$$$$

  -OEChem-05262214473D

 42 41  0     1  0  0  0  0  0999 V2000
   -5.7851   -0.9580    0.6237 C   0  0  0  0  0  0  0  0  0  0  0  0
   -6.2213    0.1296    0.2652 O   0  0  0  0  0  0  0  0  0  0  0  0
   -6.7088   -2.1270    0.7168 C   0  0  0  0  0  0  0  0  0  0  0  0
   -7.1713   -2.2193    1.7126 H   0  0  0  0  0  0  0  0  0  0  0  0
   -7.5511   -2.0547    0.0101 H   0  0  0  0  0  0  0  0  0  0  0  0
   -6.2485   -3.1083    0.5191 H   0  0  0  0  0  0  0  0  0  0  0  0
   -4.4733   -1.2411    0.9668 N   0  0  0  0  0  0  0  0  0  0  0  0
   -3.4203   -0.2603    0.9449 C   0  0  2  0  0  0  0  0  0  0  0  0
   -2.1242   -0.9699    0.5759 C   0  0  0  0  0  0  0  0  0  0  0  0
   -1.8694   -2.1225    0.9189 O   0  0  0  0  0  0  0  0  0  0  0  0
   -3.2916    0.4435    2.2868 C   0  0  0  0  0  0  0  0  0  0  0  0
   -4.2421   -2.1920    1.2489 H   0  0  0  0  0  0  0  0  0  0  0  0
   -3.6772    0.4622    0.1625 H   0  0  0  0  0  0  0  0  0  0  0  0
   -3.0345   -0.2644    3.0832 H   0  0  0  0  0  0  0  0  0  0  0  0
   -2.5093    1.2092    2.2599 H   0  0  0  0  0  0  0  0  0  0  0  0
   -4.2338    0.9283    2.5645 H   0  0  0  0  0  0  0  0  0  0  0  0
   -1.2626   -0.1515   -0.1463 N   0  0  0  0  0  0  0  0  0  0  0  0
    0.0431   -0.5785   -0.5755 C   0  0  2  0  0  0  0  0  0  0  0  0
    0.1103   -2.0940   -0.4404 C   0  0  0  0  0  0  0  0  0  0  0  0
    0.2864   -2.8455   -1.3971 O   0  0  0  0  0  0  0  0  0  0  0  0
    1.1394    0.0891    0.2401 C   0  0  0  0  0  0  0  0  0  0  0  0
   -1.5766    0.7776   -0.4197 H   0  0  0  0  0  0  0  0  0  0  0  0
    0.1355   -0.3009   -1.6312 H   0  0  0  0  0  0  0  0  0  0  0  0
    1.0631   -0.1773    1.3006 H   0  0  0  0  0  0  0  0  0  0  0  0
    2.1327   -0.2149   -0.1064 H   0  0  0  0  0  0  0  0  0  0  0  0
    1.0713    1.1798    0.1656 H   0  0  0  0  0  0  0  0  0  0  0  0
   -0.0924   -2.5157    0.8691 N   0  0  0  0  0  0  0  0  0  0  0  0
   -0.1176   -3.9042    1.2470 C   0  0  2  0  0  0  0  0  0  0  0  0
   -1.0884   -4.0575    2.4103 C   0  0  0  0  0  0  0  0  0  0  0  0
   -1.2457   -3.1940    3.2710 O   0  0  0  0  0  0  0  0  0  0  0  0
    1.2691   -4.3993    1.6274 C   0  0  0  0  0  0  0  0  0  0  0  0
   -0.1903   -1.8175    1.6036 H   0  0  0  0  0  0  0  0  0  0  0  0
   -0.4931   -4.4608    0.3814 H   0  0  0  0  0  0  0  0  0  0  0  0
    1.6619   -3.8533    2.4929 H   0  0  0  0  0  0  0  0  0  0  0  0
    1.2532   -5.4629    1.8871 H   0  0  0  0  0  0  0  0  0  0  0  0
    1.9730   -4.2609    0.7997 H   0  0  0  0  0  0  0  0  0  0  0  0
   -1.7269   -5.2897    2.3984 N   0  0  0  0  0  0  0  0  0  0  0  0
   -2.6638   -5.6923    3.4212 C   0  0  0  0  0  0  0  0  0  0  0  0
   -1.5665   -5.9281    1.6248 H   0  0  0  0  0  0  0  0  0  0  0  0
   -2.1313   -6.2428    4.2108 H   0  0  0  0  0  0  0  0  0  0  0  0
   -3.1400   -4.8000    3.8537 H   0  0  0  0  0  0  0  0  0  0  0  0
   -3.4340   -6.3406    2.9780 H   0  0  0  0  0  0  0  0  0  0  0  0
  1  3  1  0  0  0  0
  1  7  1  0  0  0  0
  1  2  2  0  0  0  0
 28 29  1  0  0  0  0
 29 37  1  0  0  0  0
 29 30  2  0  0  0  0
 18 19  1  0  0  0  0
 19 27  1  0  0  0  0
 19 20  2  0  0  0  0
  8  9  1  0  0  0  0
  9 17  1  0  0  0  0
  9 10  2  0  0  0  0
 28 31  1  0  0  0  0
 18 21  1  0  0  0  0
  8 11  1  0  0  0  0
 37 38  1  0  0  0  0
 27 28  1  0  0  0  0
 17 18  1  0  0  0  0
  7  8  1  0  0  0  0
  3  4  1  0  0  0  0
  3  5  1  0  0  0  0
  3  6  1  0  0  0  0
 31 34  1  0  0  0  0
 31 35  1  0  0  0  0
 31 36  1  0  0  0  0
 21 24  1  0  0  0  0
 21 25  1  0  0  0  0
 21 26  1  0  0  0  0
 11 14  1  0  0  0  0
 11 15  1  0  0  0  0
 11 16  1  0  0  0  0
 38 40  1  0  0  0  0
 38 41  1  0  0  0  0
 38 42  1  0  0  0  0
 28 33  1  0  0  0  0
 18 23  1  0  0  0  0
  8 13  1  0  0  0  0
 37 39  1  0  0  0  0
  7 12  1  0  0  0  0
 27 32  1  0  0  0  0
 17 22  1  0  0  0  0
M  END
$$$$

  -OEChem-05262214473D

 42 41  0     1  0  0  0  0  0999 V2000
   -5.7851   -0.9580    0.6237 C   0  0  0  0  0  0  0  0  0  0  0  0
   -6.2213    0.1296    0.2652 O   0  0  0  0  0  0  0  0  0  0  0  0
   -6.7088   -2.1270    0.7168 C   0  0  0  0  0  0  0  0  0  0  0  0
   -7.1713   -2.2193    1.7126 H   0  0  0  0  0  0  0  0  0  0  0  0
   -7.5511   -2.0547    0.0101 H   0  0  0  0  0  0  0  0  0  0  0  0
   -6.2485   -3.1083    0.5191 H   0  0  0  0  0  0  0  0  0  0  0  0
   -4.4733   -1.2411    0.9668 N   0  0  0  0  0  0  0  0  0  0  0  0
   -3.4203   -0.2603    0.9449 C   0  0  2  0  0  0  0  0  0  0  0  0
   -2.1242   -0.9699    0.5759 C   0  0  0  0  0  0  0  0  0  0  0  0
   -1.8694   -2.1225    0.9189 O   0  0  0  0  0  0  0  0  0  0  0  0
   -3.2916    0.4435    2.2868 C   0  0  0  0  0  0  0  0  0  0  0  0
   -4.2421   -2.1920    1.2489 H   0  0  0  0  0  0  0  0  0  0  0  0
   -3.6772    0.4622    0.1625 H   0  0  0  0  0  0  0  0  0  0  0  0
   -3.0345   -0.2644    3.0832 H   0  0  0  0  0  0  0  0  0  0  0  0
   -2.5093    1.2092    2.2599 H   0  0  0  0  0  0  0  0  0  0  0  0
   -4.2338    0.9283    2.5645 H   0  0  0  0  0  0  0  0  0  0  0  0
   -1.2626   -0.1515   -0.1463 N   0  0  0  0  0  0  0  0  0  0  0  0
    0.0431   -0.5785   -0.5755 C   0  0  2  0  0  0  0  0  0  0  0  0
    0.1103   -2.0940   -0.4404 C   0  0  0  0  0  0  0  0  0  0  0  0
    0.5450   -2.8277   -1.3257 O   0  0  0  0  0  0  0  0  0  0  0  0
    1.1394    0.0891    0.2401 C   0  0  0  0  0  0  0  0  0  0  0  0
   -1.5766    0.7776   -0.4197 H   0  0  0  0  0  0  0  0  0  0  0  0
    0.1355   -0.3009   -1.6312 H   0  0  0  0  0  0  0  0  0  0  0  0
    1.0631   -0.1773    1.3006 H   0  0  0  0  0  0  0  0  0  0  0  0
    2.1327   -0.2149   -0.1064 H   0  0  0  0  0  0  0  0  0  0  0  0
    1.0713    1.1798    0.1656 H   0  0  0  0  0  0  0  0  0  0  0  0
   -0.4123   -2.5388    0.7690 N   0  0  0  0  0  0  0  0  0  0  0  0
   -0.4999   -3.9328    1.1160 C   0  0  2  0  0  0  0  0  0  0  0  0
   -1.7335   -4.1237    1.9885 C   0  0  0  0  0  0  0  0  0  0  0  0
   -2.1280   -3.2763    2.7869 O   0  0  0  0  0  0  0  0  0  0  0  0
    0.7538   -4.4035    1.8367 C   0  0  0  0  0  0  0  0  0  0  0  0
   -0.7130   -1.8535    1.4594 H   0  0  0  0  0  0  0  0  0  0  0  0
   -0.6262   -4.4848    0.1782 H   0  0  0  0  0  0  0  0  0  0  0  0
    0.8971   -3.8617    2.7787 H   0  0  0  0  0  0  0  0  0  0  0  0
    0.6976   -5.4709    2.0746 H   0  0  0  0  0  0  0  0  0  0  0  0
    1.6435   -4.2380    1.2195 H   0  0  0  0  0  0  0  0  0  0  0  0
   -2.3170   -5.3690    1.8021 N   0  0  0  0  0  0  0  0  0  0  0  0
   -3.4755   -5.8064    2.5455 C   0  0  0  0  0  0  0  0  0  0  0  0
   -1.9473   -5.9926    1.0906 H   0  0  0  0  0  0  0  0  0  0  0  0
   -3.1509   -6.3566    3.4410 H   0  0  0  0  0  0  0  0  0  0  0  0
   -4.0687   -4.9309    2.8482 H   0  0  0  0  0  0  0  0  0  0  0  0
   -4.0896   -6.4646    1.9134 H   0  0  0  0  0  0  0  0  0  0  0  0
  1  3  1  0  0  0  0
  1  7  1  0  0  0  0
  1  2  2  0  0  0  0
 28 29  1  0  0  0  0
 29 37  1  0  0  0  0
 29 30  2  0  0  0  0
 18 19  1  0  0  0  0
 19 27  1  0  0  0  0
 19 20  2  0  0  0  0
  8  9  1  0  0  0  0
  9 17  1  0  0  0  0
  9 10  2  0  0  0  0
 28 31  1  0  0  0  0
 18 21  1  0  0  0  0
  8 11  1  0  0  0  0
 37 38  1  0  0  0  0
 27 28  1  0  0  0  0
 17 18  1  0  0  0  0
  7  8  1  0  0  0  0
  3  4  1  0  0  0  0
  3  5  1  0  0  0  0
  3  6  1  0  0  0  0
 31 34  1  0  0  0  0
 31 35  1  0  0  0  0
 31 36  1  0  0  0  0
 21 24  1  0  0  0  0
 21 25  1  0  0  0  0
 21 26  1  0  0  0  0
 11 14  1  0  0  0  0
 11 15  1  0  0  0  0
 11 16  1  0  0  0  0
 38 40  1  0  0  0  0
 38 41  1  0  0  0  0
 38 42  1  0  0  0  0
 28 33  1  0  0  0  0
 18 23  1  0  0  0  0
  8 13  1  0  0  0  0
 37 39  1  0  0  0  0
  7 12  1  0  0  0  0
 27 32  1  0  0  0  0
 17 22  1  0  0  0  0
M  END
$$$$

  -OEChem-05262214473D

 42 41  0     1  0  0  0  0  0999 V2000
   -5.7851   -0.9580    0.6237 C   0  0  0  0  0  0  0  0  0  0  0  0
   -6.2213    0.1296    0.2652 O   0  0  0  0  0  0  0  0  0  0  0  0
   -6.7088   -2.1270    0.7168 C   0  0  0  0  0  0  0  0  0  0  0  0
   -7.1713   -2.2193    1.7126 H   0  0  0  0  0  0  0  0  0  0  0  0
   -7.5511   -2.0547    0.0101 H   0  0  0  0  0  0  0  0  0  0  0  0
   -6.2485   -3.1083    0.5191 H   0  0  0  0  0  0  0  0  0  0  0  0
   -4.4733   -1.2411    0.9668 N   0  0  0  0  0  0  0  0  0  0  0  0
   -3.4203   -0.2603    0.9449 C   0  0  2  0  0  0  0  0  0  0  0  0
   -2.1242   -0.9699    0.5759 C   0  0  0  0  0  0  0  0  0  0  0  0
   -1.8694   -2.1225    0.9189 O   0  0  0  0  0  0  0  0  0  0  0  0
   -3.2916    0.4435    2.2868 C   0  0  0  0  0  0  0  0  0  0  0  0
   -4.2421   -2.1920    1.2489 H   0  0  0  0  0  0  0  0  0  0  0  0
   -3.6772    0.4622    0.1625 H   0  0  0  0  0  0  0  0  0  0  0  0
   -3.0345   -0.2644    3.0832 H   0  0  0  0  0  0  0  0  0  0  0  0
   -2.5093    1.2092    2.2599 H   0  0  0  0  0  0  0  0  0  0  0  0
   -4.2338    0.9283    2.5645 H   0  0  0  0  0  0  0  0  0  0  0  0
   -1.2626   -0.1515   -0.1463 N   0  0  0  0  0  0  0  0  0  0  0  0
    0.0431   -0.5785   -0.5755 C   0  0  2  0  0  0  0  0  0  0  0  0
    0.1103   -2.0940   -0.4404 C   0  0  0  0  0  0  0  0  0  0  0  0
    0.7761   -2.8053   -1.1900 O   0  0  0  0  0  0  0  0  0  0  0  0
    1.1394    0.0891    0.2401 C   0  0  0  0  0  0  0  0  0  0  0  0
   -1.5766    0.7776   -0.4197 H   0  0  0  0  0  0  0  0  0  0  0  0
    0.1355   -0.3009   -1.6312 H   0  0  0  0  0  0  0  0  0  0  0  0
    1.0631   -0.1773    1.3006 H   0  0  0  0  0  0  0  0  0  0  0  0
    2.1327   -0.2149   -0.1064 H   0  0  0  0  0  0  0  0  0  0  0  0
    1.0713    1.1798    0.1656 H   0  0  0  0  0  0  0  0  0  0  0  0
   -0.6950   -2.5673    0.5897 N   0  0  0  0  0  0  0  0  0  0  0  0
   -0.8348   -3.9678    0.8906 C   0  0  2  0  0  0  0  0  0  0  0  0
   -2.2464   -4.1976    1.4142 C   0  0  0  0  0  0  0  0  0  0  0  0
   -2.8537   -3.3705    2.0910 O   0  0  0  0  0  0  0  0  0  0  0  0
    0.2022   -4.4218    1.9061 C   0  0  0  0  0  0  0  0  0  0  0  0
   -1.1799   -1.8987    1.1850 H   0  0  0  0  0  0  0  0  0  0  0  0
   -0.7019   -4.5087   -0.0526 H   0  0  0  0  0  0  0  0  0  0  0  0
    0.0849   -3.8907    2.8577 H   0  0  0  0  0  0  0  0  0  0  0  0
    0.1128   -5.4934    2.1125 H   0  0  0  0  0  0  0  0  0  0  0  0
    1.2165   -4.2284    1.5404 H   0  0  0  0  0  0  0  0  0  0  0  0
   -2.7316   -5.4524    1.0733 N   0  0  0  0  0  0  0  0  0  0  0  0
   -4.0314   -5.9252    1.4893 C   0  0  0  0  0  0  0  0  0  0  0  0
   -2.1761   -6.0576    0.4758 H   0  0  0  0  0  0  0  0  0  0  0  0
   -3.9349   -6.4812    2.4336 H   0  0  0  0  0  0  0  0  0  0  0  0
   -4.7037   -5.0671    1.6363 H   0  0  0  0  0  0  0  0  0  0  0  0
   -4.4458   -6.5872    0.7148 H   0  0  0  0  0  0  0  0  0  0  0  0
  1  3  1  0  0  0  0
  1  7  1  0  0  0  0
  1  2  2  0  0  0  0
 28 29  1  0  0  0  0
 29 37  1  0  0  0  0
 29 30  2  0  0  0  0
 18 19  1  0  0  0  0
 19 27  1  0  0  0  0
 19 20  2  0  0  0  0
  8  9  1  0  0  0  0
  9 17  1  0  0  0  0
  9 10  2  0  0  0  0
 28 31  1  0  0  0  0
 18 21  1  0  0  0  0
  8 11  1  0  0  0  0
 37 38  1  0  0  0  0
 27 28  1  0  0  0  0
 17 18  1  0  0  0  0
  7  8  1  0  0  0  0
  3  4  1  0  0  0  0
  3  5  1  0  0  0  0
  3  6  1  0  0  0  0
 31 34  1  0  0  0  0
 31 35  1  0  0  0  0
 31 36  1  0  0  0  0
 21 24  1  0  0  0  0
 21 25  1  0  0  0  0
 21 26  1  0  0  0  0
 11 14  1  0  0  0  0
 11 15  1  0  0  0  0
 11 16  1  0  0  0  0
 38 40  1  0  0  0  0
 38 41  1  0  0  0  0
 38 42  1  0  0  0  0
 28 33  1  0  0  0  0
 18 23  1  0  0  0  0
  8 13  1  0  0  0  0
 37 39  1  0  0  0  0
  7 12  1  0  0  0  0
 27 32  1  0  0  0  0
 17 22  1  0  0  0  0
M  END
$$$$

  -OEChem-05262214473D

 42 41  0     1  0  0  0  0  0999 V2000
   -5.7851   -0.9580    0.6237 C   0  0  0  0  0  0  0  0  0  0  0  0
   -6.2213    0.1296    0.2652 O   0  0  0  0  0  0  0  0  0  0  0  0
   -6.7088   -2.1270    0.7168 C   0  0  0  0  0  0  0  0  0  0  0  0
   -7.1713   -2.2193    1.7126 H   0  0  0  0  0  0  0  0  0  0  0  0
   -7.5511   -2.0547    0.0101 H   0  0  0  0  0  0  0  0  0  0  0  0
   -6.2485   -3.1083    0.5191 H   0  0  0  0  0  0  0  0  0  0  0  0
   -4.4733   -1.2411    0.9668 N   0  0  0  0  0  0  0  0  0  0  0  0
   -3.4203   -0.2603    0.9449 C   0  0  2  0  0  0  0  0  0  0  0  0
   -2.1242   -0.9699    0.5759 C   0  0  0  0  0  0  0  0  0  0  0  0
   -1.8694   -2.1225    0.9189 O   0  0  0  0  0  0  0  0  0  0  0  0
   -3.2916    0.4435    2.2868 C   0  0  0  0  0  0  0  0  0  0  0  0
   -4.2421   -2.1920    1.2489 H   0  0  0  0  0  0  0  0  0  0  0  0
   -3.6772    0.4622    0.1625 H   0  0  0  0  0  0  0  0  0  0  0  0
   -3.0345   -0.2644    3.0832 H   0  0  0  0  0  0  0  0  0  0  0  0
   -2.5093    1.2092    2.2599 H   0  0  0  0  0  0  0  0  0  0  0  0
   -4.2338    0.9283    2.5645 H   0  0  0  0  0  0  0  0  0  0  0  0
   -1.2626   -0.1515   -0.1463 N   0  0  0  0  0  0  0  0  0  0  0  0
    0.0431   -0.5785   -0.5755 C   0  0  2  0  0  0  0  0  0  0  0  0
    0.1103   -2.0940   -0.4404 C   0  0  0  0  0  0  0  0  0  0  0  0
    0.9638   -2.7800   -0.9991 O   0  0  0  0  0  0  0  0  0  0  0  0
    1.1394    0.0891    0.2401 C   0  0  0  0  0  0  0  0  0  0  0  0
   -1.5766    0.7776   -0.4197 H   0  0  0  0  0  0  0  0  0  0  0  0
    0.1355   -0.3009   -1.6312 H   0  0  0  0  0  0  0  0  0  0  0  0
    1.0631   -0.1773    1.3006 H   0  0  0  0  0  0  0  0  0  0  0  0
    2.1327   -0.2149   -0.1064 H   0  0  0  0  0  0  0  0  0  0  0  0
    1.0713    1.1798    0.1656 H   0  0  0  0  0  0  0  0  0  0  0  0
   -0.9212   -2.5993    0.3434 N   0  0  0  0  0  0  0  0  0  0  0  0
   -1.0995   -4.0066    0.5863 C   0  0  2  0  0  0  0  0  0  0  0  0
   -2.5922   -4.2743    0.7266 C   0  0  0  0  0  0  0  0  0  0  0  0
   -3.3734   -3.4702    1.2309 O   0  0  0  0  0  0  0  0  0  0  0  0
   -0.3480   -4.4529    1.8308 C   0  0  0  0  0  0  0  0  0  0  0  0
   -1.5592   -1.9499    0.7992 H   0  0  0  0  0  0  0  0  0  0  0  0
   -0.7151   -4.5310   -0.2954 H   0  0  0  0  0  0  0  0  0  0  0  0
   -0.7193   -3.9382    2.7245 H   0  0  0  0  0  0  0  0  0  0  0  0
   -0.4613   -5.5291    1.9982 H   0  0  0  0  0  0  0  0  0  0  0  0
    0.7212   -4.2325    1.7405 H   0  0  0  0  0  0  0  0  0  0  0  0
   -2.9425   -5.5341    0.2615 N   0  0  0  0  0  0  0  0  0  0  0  0
   -4.2936   -6.0406    0.3246 C   0  0  0  0  0  0  0  0  0  0  0  0
   -2.2372   -6.1185   -0.1777 H   0  0  0  0  0  0  0  0  0  0  0  0
   -4.4298   -6.6080    1.2571 H   0  0  0  0  0  0  0  0  0  0  0  0
   -5.0019   -5.1994    0.3006 H   0  0  0  0  0  0  0  0  0  0  0  0
   -4.4783   -6.7002   -0.5361 H   0  0  0  0  0  0  0  0  0  0  0  0
  1  3  1  0  0  0  0
  1  7  1  0  0  0  0
  1  2  2  0  0  0  0
 28 29  1  0  0  0  0
 29 37  1  0  0  0  0
 29 30  2  0  0  0  0
 18 19  1  0  0  0  0
 19 27  1  0  0  0  0
 19 20  2  0  0  0  0
  8  9  1  0  0  0  0
  9 17  1  0  0  0  0
  9 10  2  0  0  0  0
 28 31  1  0  0  0  0
 18 21  1  0  0  0  0
  8 11  1  0  0  0  0
 37 38  1  0  0  0  0
 27 28  1  0  0  0  0
 17 18  1  0  0  0  0
  7  8  1  0  0  0  0
  3  4  1  0  0  0  0
  3  5  1  0  0  0  0
  3  6  1  0  0  0  0
 31 34  1  0  0  0  0
 31 35  1  0  0  0  0
 31 36  1  0  0  0  0
 21 24  1  0  0  0  0
 21 25  1  0  0  0  0
 21 26  1  0  0  0  0
 11 14  1  0  0  0  0
 11 15  1  0  0  0  0
 11 16  1  0  0  0  0
 38 40  1  0  0  0  0
 38 41  1  0  0  0  0
 38 42  1  0  0  0  0
 28 33  1  0  0  0  0
 18 23  1  0  0  0  0
  8 13  1  0  0  0  0
 37 39  1  0  0  0  0
  7 12  1  0  0  0  0
 27 32  1  0  0  0  0
 17 22  1  0  0  0  0
M  END
$$$$

  -OEChem-05262214473D

 42 41  0     1  0  0  0  0  0999 V2000
   -5.7851   -0.9580    0.6237 C   0  0  0  0  0  0  0  0  0  0  0  0
   -6.2213    0.1296    0.2652 O   0  0  0  0  0  0  0  0  0  0  0  0
   -6.7088   -2.1270    0.7168 C   0  0  0  0  0  0  0  0  0  0  0  0
   -7.1713   -2.2193    1.7126 H   0  0  0  0  0  0  0  0  0  0  0  0
   -7.5511   -2.0547    0.0101 H   0  0  0  0  0  0  0  0  0  0  0  0
   -6.2485   -3.1083    0.5191 H   0  0  0  0  0  0  0  0  0  0  0  0
   -4.4733   -1.2411    0.9668 N   0  0  0  0  0  0  0  0  0  0  0  0
   -3.4203   -0.2603    0.9449 C   0  0  2  0  0  0  0  0  0  0  0  0
   -2.1242   -0.9699    0.5759 C   0  0  0  0  0  0  0  0  0  0  0  0
   -1.8694   -2.1225    0.9189 O   0  0  0  0  0  0  0  0  0  0  0  0
   -3.2916    0.4435    2.2868 C   0  0  0  0  0  0  0  0  0  0  0  0
   -4.2421   -2.1920    1.2489 H   0  0  0  0  0  0  0  0  0  0  0  0
   -3.6772    0.4622    0.1625 H   0  0  0  0  0  0  0  0  0  0  0  0
   -3.0345   -0.2644    3.0832 H   0  0  0  0  0  0  0  0  0  0  0  0
   -2.5093    1.2092    2.2599 H   0  0  0  0  0  0  0  0  0  0  0  0
   -4.2338    0.9283    2.5645 H   0  0  0  0  0  0  0  0  0  0  0  0
   -1.2626   -0.1515   -0.1463 N   0  0  0  0  0  0  0  0  0  0  0  0
    0.0431   -0.5785   -0.5755 C   0  0  2  0  0  0  0  0  0  0  0  0
    0.1103   -2.0940   -0.4404 C   0  0  0  0  0  0  0  0  0  0  0  0
    1.0953   -2.7534   -0.7660 O   0  0  0  0  0  0  0  0  0  0  0  0
    1.1394    0.0891    0.2401 C   0  0  0  0  0  0  0  0  0  0  0  0
   -1.5766    0.7776   -0.4197 H   0  0  0  0  0  0  0  0  0  0  0  0
    0.1355   -0.3009   -1.6312 H   0  0  0  0  0  0  0  0  0  0  0  0
    1.0631   -0.1773    1.3006 H   0  0  0  0  0  0  0  0  0  0  0  0
    2.1327   -0.2149   -0.1064 H   0  0  0  0  0  0  0  0  0  0  0  0
    1.0713    1.1798    0.1656 H   0  0  0  0  0  0  0  0  0  0  0  0
   -1.0755   -2.6326    0.0469 N   0  0  0  0  0  0  0  0  0  0  0  0
   -1.2759   -4.0468    0.2238 C   0  0  2  0  0  0  0  0  0  0  0  0
   -2.7474   -4.3484   -0.0276 C   0  0  0  0  0  0  0  0  0  0  0  0
   -3.6514   -3.5687    0.2652 O   0  0  0  0  0  0  0  0  0  0  0  0
   -0.8594   -4.4947    1.6161 C   0  0  0  0  0  0  0  0  0  0  0  0
   -1.8251   -2.0037    0.3283 H   0  0  0  0  0  0  0  0  0  0  0  0
   -0.6648   -4.5500   -0.5335 H   0  0  0  0  0  0  0  0  0  0  0  0
   -1.4607   -4.0011    2.3883 H   0  0  0  0  0  0  0  0  0  0  0  0
   -0.9856   -5.5754    1.7395 H   0  0  0  0  0  0  0  0  0  0  0  0
    0.1913   -4.2502    1.8062 H   0  0  0  0  0  0  0  0  0  0  0  0
   -2.9352   -5.6086   -0.5778 N   0  0  0  0  0  0  0  0  0  0  0  0
   -4.2442   -6.1449   -0.8692 C   0  0  0  0  0  0  0  0  0  0  0  0
   -2.1266   -6.1714   -0.8253 H   0  0  0  0  0  0  0  0  0  0  0  0
   -4.6020   -6.7284   -0.0082 H   0  0  0  0  0  0  0  0  0  0  0  0
   -4.9428   -5.3187   -1.0679 H   0  0  0  0  0  0  0  0  0  0  0  0
   -4.1850   -6.7958   -1.7540 H   0  0  0  0  0  0  0  0  0  0  0  0
  1  3  1  0  0  0  0
  1  7  1  0  0  0  0
  1  2  2  0  0  0  0
 28 29  1  0  0  0  0
 29 37  1  0  0  0  0
 29 30  2  0  0  0  0
 18 19  1  0  0  0  0
 19 27  1  0  0  0  0
 19 20  2  0  0  0  0
  8  9  1  0  0  0  0
  9 17  1  0  0  0  0
  9 10  2  0  0  0  0
 28 31  1  0  0  0  0
 18 21  1  0  0  0  0
  8 11  1  0  0  0  0
 37 38  1  0  0  0  0
 27 28  1  0  0  0  0
 17 18  1  0  0  0  0
  7  8  1  0  0  0  0
  3  4  1  0  0  0  0
  3  5  1  0  0  0  0
  3  6  1  0  0  0  0
 31 34  1  0  0  0  0
 31 35  1  0  0  0  0
 31 36  1  0  0  0  0
 21 24  1  0  0  0  0
 21 25  1  0  0  0  0
 21 26  1  0  0  0  0
 11 14  1  0  0  0  0
 11 15  1  0  0  0  0
 11 16  1  0  0  0  0
 38 40  1  0  0  0  0
 38 41  1  0  0  0  0
 38 42  1  0  0  0  0
 28 33  1  0  0  0  0
 18 23  1  0  0  0  0
  8 13  1  0  0  0  0
 37 39  1  0  0  0  0
  7 12  1  0  0  0  0
 27 32  1  0  0  0  0
 17 22  1  0  0  0  0
M  END
$$$$

  -OEChem-05262214473D

 42 41  0     1  0  0  0  0  0999 V2000
   -5.7851   -0.9580    0.6237 C   0  0  0  0  0  0  0  0  0  0  0  0
   -6.2213    0.1296    0.2652 O   0  0  0  0  0  0  0  0  0  0  0  0
   -6.7088   -2.1270    0.7168 C   0  0  0  0  0  0  0  0  0  0  0  0
   -7.1713   -2.2193    1.7126 H   0  0  0  0  0  0  0  0  0  0  0  0
   -7.5511   -2.0547    0.0101 H   0  0  0  0  0  0  0  0  0  0  0  0
   -6.2485   -3.1083    0.5191 H   0  0  0  0  0  0  0  0  0  0  0  0
   -4.4733   -1.2411    0.9668 N   0  0  0  0  0  0  0  0  0  0  0  0
   -3.4203   -0.2603    0.9449 C   0  0  2  0  0  0  0  0  0  0  0  0
   -2.1242   -0.9699    0.5759 C   0  0  0  0  0  0  0  0  0  0  0  0
   -1.8694   -2.1225    0.9189 O   0  0  0  0  0  0  0  0  0  0  0  0
   -3.2916    0.4435    2.2868 C   0  0  0  0  0  0  0  0  0  0  0  0
   -4.2421   -2.1920    1.2489 H   0  0  0  0  0  0  0  0  0  0  0  0
   -3.6772    0.4622    0.1625 H   0  0  0  0  0  0  0  0  0  0  0  0
   -3.0345   -0.2644    3.0832 H   0  0  0  0  0  0  0  0  0  0  0  0
   -2.5093    1.2092    2.2599 H   0  0  0  0  0  0  0  0  0  0  0  0
   -4.2338    0.9283    2.5645 H   0  0  0  0  0  0  0  0  0  0  0  0
   -1.2626   -0.1515   -0.1463 N   0  0  0  0  0  0  0  0  0  0  0  0
    0.0431   -0.5785   -0.5755 C   0  0  2  0  0  0  0  0  0  0  0  0
    0.1103   -2.0940   -0.4404 C   0  0  0  0  0  0  0  0  0  0  0  0
    1.1618   -2.7273   -0.5068 O   0  0  0  0  0  0  0  0  0  0  0  0
    1.1394    0.0891    0.2401 C   0  0  0  0  0  0  0  0  0  0  0  0
   -1.5766    0.7776   -0.4197 H   0  0  0  0  0  0  0  0  0  0  0  0
    0.1355   -0.3009   -1.6312 H   0  0  0  0  0  0  0  0  0  0  0  0
    1.0631   -0.1773    1.3006 H   0  0  0  0  0  0  0  0  0  0  0  0
    2.1327   -0.2149   -0.1064 H   0  0  0  0  0  0  0  0  0  0  0  0
    1.0713    1.1798    0.1656 H   0  0  0  0  0  0  0  0  0  0  0  0
   -1.1474   -2.6649   -0.2797 N   0  0  0  0  0  0  0  0  0  0  0  0
   -1.3519   -4.0855   -0.1723 C   0  0  2  0  0  0  0  0  0  0  0  0
   -2.7013   -4.4149   -0.7969 C   0  0  0  0  0  0  0  0  0  0  0  0
   -3.6691   -3.6591   -0.7404 O   0  0  0  0  0  0  0  0  0  0  0  0
   -1.2970   -4.5444    1.2765 C   0  0  0  0  0  0  0  0  0  0  0  0
   -1.9593   -2.0563   -0.1956 H   0  0  0  0  0  0  0  0  0  0  0  0
   -0.5544   -4.5644   -0.7507 H   0  0  0  0  0  0  0  0  0  0  0  0
   -2.0887   -4.0750    1.8718 H   0  0  0  0  0  0  0  0  0  0  0  0
   -1.4243   -5.6292    1.3542 H   0  0  0  0  0  0  0  0  0  0  0  0
   -0.3370   -4.2801    1.7329 H   0  0  0  0  0  0  0  0  0  0  0  0
   -2.7103   -5.6708   -1.3875 N   0  0  0  0  0  0  0  0  0  0  0  0
   -3.8867   -6.2308   -2.0109 C   0  0  0  0  0  0  0  0  0  0  0  0
   -1.8518   -6.2125   -1.4230 H   0  0  0  0  0  0  0  0  0  0  0  0
   -4.4397   -6.8343   -1.2761 H   0  0  0  0  0  0  0  0  0  0  0  0
   -4.5306   -5.4171   -2.3759 H   0  0  0  0  0  0  0  0  0  0  0  0
   -3.5858   -6.8674   -2.8560 H   0  0  0  0  0  0  0  0  0  0  0  0
  1  3  1  0  0  0  0
  1  7  1  0  0  0  0
  1  2  2  0  0  0  0
 28 29  1  0  0  0  0
 29 37  1  0  0  0  0
 29 30  2  0  0  0  0
 18 19  1  0  0  0  0
 19 27  1  0  0  0  0
 19 20  2  0  0  0  0
  8  9  1  0  0  0  0
  9 17  1  0  0  0  0
  9 10  2  0  0  0  0
 28 31  1  0  0  0  0
 18 21  1  0  0  0  0
  8 11  1  0  0  0  0
 37 38  1  0  0  0  0
 27 28  1  0  0  0  0
 17 18  1  0  0  0  0
  7  8  1  0  0  0  0
  3  4  1  0  0  0  0
  3  5  1  0  0  0  0
  3  6  1  0  0  0  0
 31 34  1  0  0  0  0
 31 35  1  0  0  0  0
 31 36  1  0  0  0  0
 21 24  1  0  0  0  0
 21 25  1  0  0  0  0
 21 26  1  0  0  0  0
 11 14  1  0  0  0  0
 11 15  1  0  0  0  0
 11 16  1  0  0  0  0
 38 40  1  0  0  0  0
 38 41  1  0  0  0  0
 38 42  1  0  0  0  0
 28 33  1  0  0  0  0
 18 23  1  0  0  0  0
  8 13  1  0  0  0  0
 37 39  1  0  0  0  0
  7 12  1  0  0  0  0
 27 32  1  0  0  0  0
 17 22  1  0  0  0  0
M  END
$$$$

  -OEChem-05262214473D

 42 41  0     1  0  0  0  0  0999 V2000
   -5.7851   -0.9580    0.6237 C   0  0  0  0  0  0  0  0  0  0  0  0
   -6.2213    0.1296    0.2652 O   0  0  0  0  0  0  0  0  0  0  0  0
   -6.7088   -2.1270    0.7168 C   0  0  0  0  0  0  0  0  0  0  0  0
   -7.1713   -2.2193    1.7126 H   0  0  0  0  0  0  0  0  0  0  0  0
   -7.5511   -2.0547    0.0101 H   0  0  0  0  0  0  0  0  0  0  0  0
   -6.2485   -3.1083    0.5191 H   0  0  0  0  0  0  0  0  0  0  0  0
   -4.4733   -1.2411    0.9668 N   0  0  0  0  0  0  0  0  0  0  0  0
   -3.4203   -0.2603    0.9449 C   0  0  2  0  0  0  0  0  0  0  0  0
   -2.1242   -0.9699    0.5759 C   0  0  0  0  0  0  0  0  0  0  0  0
   -1.8694   -2.1225    0.9189 O   0  0  0  0  0  0  0  0  0  0  0  0
   -3.2916    0.4435    2.2868 C   0  0  0  0  0  0  0  0  0  0  0  0
   -4.2421   -2.1920    1.2489 H   0  0  0  0  0  0  0  0  0  0  0  0
   -3.6772    0.4622    0.1625 H   0  0  0  0  0  0  0  0  0  0  0  0
   -3.0345   -0.2644    3.0832 H   0  0  0  0  0  0  0  0  0  0  0  0
   -2.5093    1.2092    2.2599 H   0  0  0  0  0  0  0  0  0  0  0  0
   -4.2338    0.9283    2.5645 H   0  0  0  0  0  0  0  0  0  0  0  0
   -1.2626   -0.1515   -0.1463 N   0  0  0  0  0  0  0  0  0  0  0  0
    0.0431   -0.5785   -0.5755 C   0  0  2  0  0  0  0  0  0  0  0  0
    0.1103   -2.0940   -0.4404 C   0  0  0  0  0  0  0  0  0  0  0  0
    1.1586   -2.7036   -0.2389 O   0  0  0  0  0  0  0  0  0  0  0  0
    1.1394    0.0891    0.2401 C   0  0  0  0  0  0  0  0  0  0  0  0
   -1.5766    0.7776   -0.4197 H   0  0  0  0  0  0  0  0  0  0  0  0
    0.1355   -0.3009   -1.6312 H   0  0  0  0  0  0  0  0  0  0  0  0
    1.0631   -0.1773    1.3006 H   0  0  0  0  0  0  0  0  0  0  0  0
    2.1327   -0.2149   -0.1064 H   0  0  0  0  0  0  0  0  0  0  0  0
    1.0713    1.1798    0.1656 H   0  0  0  0  0  0  0  0  0  0  0  0
   -1.1321   -2.6940   -0.6141 N   0  0  0  0  0  0  0  0  0  0  0  0
   -1.3225   -4.1200   -0.5749 C   0  0  2  0  0  0  0  0  0  0  0  0
   -2.4572   -4.4693   -1.5289 C   0  0  0  0  0  0  0  0  0  0  0  0
   -3.4250   -3.7353   -1.7173 O   0  0  0  0  0  0  0  0  0  0  0  0
   -1.6312   -4.5986    0.8352 C   0  0  0  0  0  0  0  0  0  0  0  0
   -1.9529   -2.1043   -0.7369 H   0  0  0  0  0  0  0  0  0  0  0  0
   -0.3915   -4.5734   -0.9323 H   0  0  0  0  0  0  0  0  0  0  0  0
   -2.5607   -4.1549    1.2103 H   0  0  0  0  0  0  0  0  0  0  0  0
   -1.7476   -5.6869    0.8683 H   0  0  0  0  0  0  0  0  0  0  0  0
   -0.8278   -4.3204    1.5258 H   0  0  0  0  0  0  0  0  0  0  0  0
   -2.2831   -5.7165   -2.1124 N   0  0  0  0  0  0  0  0  0  0  0  0
   -3.2453   -6.2925   -3.0226 C   0  0  0  0  0  0  0  0  0  0  0  0
   -1.4314   -6.2390   -1.9301 H   0  0  0  0  0  0  0  0  0  0  0  0
   -3.9539   -6.9183   -2.4601 H   0  0  0  0  0  0  0  0  0  0  0  0
   -3.7933   -5.4876   -3.5343 H   0  0  0  0  0  0  0  0  0  0  0  0
   -2.7216   -6.9103   -3.7669 H   0  0  0  0  0  0  0  0  0  0  0  0
  1  3  1  0  0  0  0
  1  7  1  0  0  0  0
  1  2  2  0  0  0  0
 28 29  1  0  0  0  0
 29 37  1  0  0  0  0
 29 30  2  0  0  0  0
 18 19  1  0  0  0  0
 19 27  1  0  0  0  0
 19 20  2  0  0  0  0
  8  9  1  0  0  0  0
  9 17  1  0  0  0  0
  9 10  2  0  0  0  0
 28 31  1  0  0  0  0
 18 21  1  0  0  0  0
  8 11  1  0  0  0  0
 37 38  1  0  0  0  0
 27 28  1  0  0  0  0
 17 18  1  0  0  0  0
  7  8  1  0  0  0  0
  3  4  1  0  0  0  0
  3  5  1  0  0  0  0
  3  6  1  0  0  0  0
 31 34  1  0  0  0  0
 31 35  1  0  0  0  0
 31 36  1  0  0  0  0
 21 24  1  0  0  0  0
 21 25  1  0  0  0  0
 21 26  1  0  0  0  0
 11 14  1  0  0  0  0
 11 15  1  0  0  0  0
 11 16  1  0  0  0  0
 38 40  1  0  0  0  0
 38 41  1  0  0  0  0
 38 42  1  0  0  0  0
 28 33  1  0  0  0  0
 18 23  1  0  0  0  0
  8 13  1  0  0  0  0
 37 39  1  0  0  0  0
  7 12  1  0  0  0  0
 27 32  1  0  0  0  0
 17 22  1  0  0  0  0
M  END
$$$$

  -OEChem-05262214473D

 42 41  0     1  0  0  0  0  0999 V2000
   -5.7851   -0.9580    0.6237 C   0  0  0  0  0  0  0  0  0  0  0  0
   -6.2213    0.1296    0.2652 O   0  0  0  0  0  0  0  0  0  0  0  0
   -6.7088   -2.1270    0.7168 C   0  0  0  0  0  0  0  0  0  0  0  0
   -7.1713   -2.2193    1.7126 H   0  0  0  0  0  0  0  0  0  0  0  0
   -7.5511   -2.0547    0.0101 H   0  0  0  0  0  0  0  0  0  0  0  0
   -6.2485   -3.1083    0.5191 H   0  0  0  0  0  0  0  0  0  0  0  0
   -4.4733   -1.2411    0.9668 N   0  0  0  0  0  0  0  0  0  0  0  0
   -3.4203   -0.2603    0.9449 C   0  0  2  0  0  0  0  0  0  0  0  0
   -2.1242   -0.9699    0.5759 C   0  0  0  0  0  0  0  0  0  0  0  0
   -1.8694   -2.1225    0.9189 O   0  0  0  0  0  0  0  0  0  0  0  0
   -3.2916    0.4435    2.2868 C   0  0  0  0  0  0  0  0  0  0  0  0
   -4.2421   -2.1920    1.2489 H   0  0  0  0  0  0  0  0  0  0  0  0
   -3.6772    0.4622    0.1625 H   0  0  0  0  0  0  0  0  0  0  0  0
   -3.0345   -0.2644    3.0832 H   0  0  0  0  0  0  0  0  0  0  0  0
   -2.5093    1.2092    2.2599 H   0  0  0  0  0  0  0  0  0  0  0  0
   -4.2338    0.9283    2.5645 H   0  0  0  0  0  0  0  0  0  0  0  0
   -1.2626   -0.1515   -0.1463 N   0  0  0  0  0  0  0  0  0  0  0  0
    0.0431   -0.5785   -0.5755 C   0  0  2  0  0  0  0  0  0  0  0  0
    0.1103   -2.0940   -0.4404 C   0  0  0  0  0  0  0  0  0  0  0  0
    1.0860   -2.6838    0.0192 O   0  0  0  0  0  0  0  0  0  0  0  0
    1.1394    0.0891    0.2401 C   0  0  0  0  0  0  0  0  0  0  0  0
   -1.5766    0.7776   -0.4197 H   0  0  0  0  0  0  0  0  0  0  0  0
    0.1355   -0.3009   -1.6312 H   0  0  0  0  0  0  0  0  0  0  0  0
    1.0631   -0.1773    1.3006 H   0  0  0  0  0  0  0  0  0  0  0  0
    2.1327   -0.2149   -0.1064 H   0  0  0  0  0  0  0  0  0  0  0  0
    1.0713    1.1798    0.1656 H   0  0  0  0  0  0  0  0  0  0  0  0
   -1.0304   -2.7180   -0.9334 N   0  0  0  0  0  0  0  0  0  0  0  0
   -1.1896   -4.1482   -0.9566 C   0  0  2  0  0  0  0  0  0  0  0  0
   -2.0316   -4.5079   -2.1737 C   0  0  0  0  0  0  0  0  0  0  0  0
   -2.9360   -3.7922   -2.5990 O   0  0  0  0  0  0  0  0  0  0  0  0
   -1.8391   -4.6535    0.3222 C   0  0  0  0  0  0  0  0  0  0  0  0
   -1.8062   -2.1443   -1.2586 H   0  0  0  0  0  0  0  0  0  0  0  0
   -0.1872   -4.5762   -1.0659 H   0  0  0  0  0  0  0  0  0  0  0  0
   -2.8444   -4.2353    0.4489 H   0  0  0  0  0  0  0  0  0  0  0  0
   -1.9334   -5.7444    0.3151 H   0  0  0  0  0  0  0  0  0  0  0  0
   -1.2476   -4.3681    1.1988 H   0  0  0  0  0  0  0  0  0  0  0  0
   -1.6828   -5.7425   -2.7031 N   0  0  0  0  0  0  0  0  0  0  0  0
   -2.3638   -6.3259   -3.8353 C   0  0  0  0  0  0  0  0  0  0  0  0
   -0.8941   -6.2492   -2.3119 H   0  0  0  0  0  0  0  0  0  0  0  0
   -3.1778   -6.9747   -3.4797 H   0  0  0  0  0  0  0  0  0  0  0  0
   -2.7812   -5.5256   -4.4642 H   0  0  0  0  0  0  0  0  0  0  0  0
   -1.6512   -6.9214   -4.4247 H   0  0  0  0  0  0  0  0  0  0  0  0
  1  3  1  0  0  0  0
  1  7  1  0  0  0  0
  1  2  2  0  0  0  0
 28 29  1  0  0  0  0
 29 37  1  0  0  0  0
 29 30  2  0  0  0  0
 18 19  1  0  0  0  0
 19 27  1  0  0  0  0
 19 20  2  0  0  0  0
  8  9  1  0  0  0  0
  9 17  1  0  0  0  0
  9 10  2  0  0  0  0
 28 31  1  0  0  0  0
 18 21  1  0  0  0  0
  8 11  1  0  0  0  0
 37 38  1  0  0  0  0
 27 28  1  0  0  0  0
 17 18  1  0  0  0  0
  7  8  1  0  0  0  0
  3  4  1  0  0  0  0
  3  5  1  0  0  0  0
  3  6  1  0  0  0  0
 31 34  1  0  0  0  0
 31 35  1  0  0  0  0
 31 36  1  0  0  0  0
 21 24  1  0  0  0  0
 21 25  1  0  0  0  0
 21 26  1  0  0  0  0
 11 14  1  0  0  0  0
 11 15  1  0  0  0  0
 11 16  1  0  0  0  0
 38 40  1  0  0  0  0
 38 41  1  0  0  0  0
 38 42  1  0  0  0  0
 28 33  1  0  0  0  0
 18 23  1  0  0  0  0
  8 13  1  0  0  0  0
 37 39  1  0  0  0  0
  7 12  1  0  0  0  0
 27 32  1  0  0  0  0
 17 22  1  0  0  0  0
M  END
$$$$

  -OEChem-05262214473D

 42 41  0     1  0  0  0  0  0999 V2000
   -5.7851   -0.9580    0.6237 C   0  0  0  0  0  0  0  0  0  0  0  0
   -6.2213    0.1296    0.2652 O   0  0  0  0  0  0  0  0  0  0  0  0
   -6.7088   -2.1270    0.7168 C   0  0  0  0  0  0  0  0  0  0  0  0
   -7.1713   -2.2193    1.7126 H   0  0  0  0  0  0  0  0  0  0  0  0
   -7.5511   -2.0547    0.0101 H   0  0  0  0  0  0  0  0  0  0  0  0
   -6.2485   -3.1083    0.5191 H   0  0  0  0  0  0  0  0  0  0  0  0
   -4.4733   -1.2411    0.9668 N   0  0  0  0  0  0  0  0  0  0  0  0
   -3.4203   -0.2603    0.9449 C   0  0  2  0  0  0  0  0  0  0  0  0
   -2.1242   -0.9699    0.5759 C   0  0  0  0  0  0  0  0  0  0  0  0
   -1.8694   -2.1225    0.9189 O   0  0  0  0  0  0  0  0  0  0  0  0
   -3.2916    0.4435    2.2868 C   0  0  0  0  0  0  0  0  0  0  0  0
   -4.2421   -2.1920    1.2489 H   0  0  0  0  0  0  0  0  0  0  0  0
   -3.6772    0.4622    0.1625 H   0  0  0  0  0  0  0  0  0  0  0  0
   -3.0345   -0.2644    3.0832 H   0  0  0  0  0  0  0  0  0  0  0  0
   -2.5093    1.2092    2.2599 H   0  0  0  0  0  0  0  0  0  0  0  0
   -4.2338    0.9283    2.5645 H   0  0  0  0  0  0  0  0  0  0  0  0
   -1.2626   -0.1515   -0.1463 N   0  0  0  0  0  0  0  0  0  0  0  0
    0.0431   -0.5785   -0.5755 C   0  0  2  0  0  0  0  0  0  0  0  0
    0.1103   -2.0940   -0.4404 C   0  0  0  0  0  0  0  0  0  0  0  0
    0.9489   -2.6693    0.2501 O   0  0  0  0  0  0  0  0  0  0  0  0
    1.1394    0.0891    0.2401 C   0  0  0  0  0  0  0  0  0  0  0  0
   -1.5766    0.7776   -0.4197 H   0  0  0  0  0  0  0  0  0  0  0  0
    0.1355   -0.3009   -1.6312 H   0  0  0  0  0  0  0  0  0  0  0  0
    1.0631   -0.1773    1.3006 H   0  0  0  0  0  0  0  0  0  0  0  0
    2.1327   -0.2149   -0.1064 H   0  0  0  0  0  0  0  0  0  0  0  0
    1.0713    1.1798    0.1656 H   0  0  0  0  0  0  0  0  0  0  0  0
   -0.8495   -2.7351   -1.2159 N   0  0  0  0  0  0  0  0  0  0  0  0
   -0.9623   -4.1679   -1.2914 C   0  0  2  0  0  0  0  0  0  0  0  0
   -1.4535   -4.5281   -2.6873 C   0  0  0  0  0  0  0  0  0  0  0  0
   -2.2352   -3.8259   -3.3253 O   0  0  0  0  0  0  0  0  0  0  0  0
   -1.9065   -4.7055   -0.2274 C   0  0  0  0  0  0  0  0  0  0  0  0
   -1.5291   -2.1736   -1.7252 H   0  0  0  0  0  0  0  0  0  0  0  0
    0.0446   -4.5728   -1.1423 H   0  0  0  0  0  0  0  0  0  0  0  0
   -2.9204   -4.3109   -0.3606 H   0  0  0  0  0  0  0  0  0  0  0  0
   -1.9691   -5.7980   -0.2678 H   0  0  0  0  0  0  0  0  0  0  0  0
   -1.5677   -4.4202    0.7744 H   0  0  0  0  0  0  0  0  0  0  0  0
   -0.9501   -5.7471   -3.1194 N   0  0  0  0  0  0  0  0  0  0  0  0
   -1.3023   -6.3285   -4.3937 C   0  0  0  0  0  0  0  0  0  0  0  0
   -0.2766   -6.2424   -2.5424 H   0  0  0  0  0  0  0  0  0  0  0  0
   -2.1643   -6.9998   -4.2653 H   0  0  0  0  0  0  0  0  0  0  0  0
   -1.5631   -5.5285   -5.1021 H   0  0  0  0  0  0  0  0  0  0  0  0
   -0.4476   -6.9001   -4.7846 H   0  0  0  0  0  0  0  0  0  0  0  0
  1  3  1  0  0  0  0
  1  7  1  0  0  0  0
  1  2  2  0  0  0  0
 28 29  1  0  0  0  0
 29 37  1  0  0  0  0
 29 30  2  0  0  0  0
 18 19  1  0  0  0  0
 19 27  1  0  0  0  0
 19 20  2  0  0  0  0
  8  9  1  0  0  0  0
  9 17  1  0  0  0  0
  9 10  2  0  0  0  0
 28 31  1  0  0  0  0
 18 21  1  0  0  0  0
  8 11  1  0  0  0  0
 37 38  1  0  0  0  0
 27 28  1  0  0  0  0
 17 18  1  0  0  0  0
  7  8  1  0  0  0  0
  3  4  1  0  0  0  0
  3  5  1  0  0  0  0
  3  6  1  0  0  0  0
 31 34  1  0  0  0  0
 31 35  1  0  0  0  0
 31 36  1  0  0  0  0
 21 24  1  0  0  0  0
 21 25  1  0  0  0  0
 21 26  1  0  0  0  0
 11 14  1  0  0  0  0
 11 15  1  0  0  0  0
 11 16  1  0  0  0  0
 38 40  1  0  0  0  0
 38 41  1  0  0  0  0
 38 42  1  0  0  0  0
 28 33  1  0  0  0  0
 18 23  1  0  0  0  0
  8 13  1  0  0  0  0
 37 39  1  0  0  0  0
  7 12  1  0  0  0  0
 27 32  1  0  0  0  0
 17 22  1  0  0  0  0
M  END
$$$$

  -OEChem-05262214473D

 42 41  0     1  0  0  0  0  0999 V2000
   -5.7851   -0.9580    0.6237 C   0  0  0  0  0  0  0  0  0  0  0  0
   -6.2213    0.1296    0.2652 O   0  0  0  0  0  0  0  0  0  0  0  0
   -6.7088   -2.1270    0.7168 C   0  0  0  0  0  0  0  0  0  0  0  0
   -7.1713   -2.2193    1.7126 H   0  0  0  0  0  0  0  0  0  0  0  0
   -7.5511   -2.0547    0.0101 H   0  0  0  0  0  0  0  0  0  0  0  0
   -6.2485   -3.1083    0.5191 H   0  0  0  0  0  0  0  0  0  0  0  0
   -4.4733   -1.2411    0.9668 N   0  0  0  0  0  0  0  0  0  0  0  0
   -3.4203   -0.2603    0.9449 C   0  0  2  0  0  0  0  0  0  0  0  0
   -2.1242   -0.9699    0.5759 C   0  0  0  0  0  0  0  0  0  0  0  0
   -1.8694   -2.1225    0.9189 O   0  0  0  0  0  0  0  0  0  0  0  0
   -3.2916    0.4435    2.2868 C   0  0  0  0  0  0  0  0  0  0  0  0
   -4.2421   -2.1920    1.2489 H   0  0  0  0  0  0  0  0  0  0  0  0
   -3.6772    0.4622    0.1625 H   0  0  0  0  0  0  0  0  0  0  0  0
   -3.0345   -0.2644    3.0832 H   0  0  0  0  0  0  0  0  0  0  0  0
   -2.5093    1.2092    2.2599 H   0  0  0  0  0  0  0  0  0  0  0  0
   -4.2338    0.9283    2.5645 H   0  0  0  0  0  0  0  0  0  0  0  0
   -1.2626   -0.1515   -0.1463 N   0  0  0  0  0  0  0  0  0  0  0  0
    0.0431   -0.5785   -0.5755 C   0  0  2  0  0  0  0  0  0  0  0  0
    0.1103   -2.0940   -0.4404 C   0  0  0  0  0  0  0  0  0  0  0  0
    0.7567   -2.6611    0.4380 O   0  0  0  0  0  0  0  0  0  0  0  0
    1.1394    0.0891    0.2401 C   0  0  0  0  0  0  0  0  0  0  0  0
   -1.5766    0.7776   -0.4197 H   0  0  0  0  0  0  0  0  0  0  0  0
    0.1355   -0.3009   -1.6312 H   0  0  0  0  0  0  0  0  0  0  0  0
    1.0631   -0.1773    1.3006 H   0  0  0  0  0  0  0  0  0  0  0  0
    2.1327   -0.2149   -0.1064 H   0  0  0  0  0  0  0  0  0  0  0  0
    1.0713    1.1798    0.1656 H   0  0  0  0  0  0  0  0  0  0  0  0
   -0.6015   -2.7443   -1.4424 N   0  0  0  0  0  0  0  0  0  0  0  0
   -0.6560   -4.1780   -1.5565 C   0  0  2  0  0  0  0  0  0  0  0  0
   -0.7624   -4.5284   -3.0348 C   0  0  0  0  0  0  0  0  0  0  0  0
   -1.3705   -3.8340   -3.8467 O   0  0  0  0  0  0  0  0  0  0  0  0
   -1.8289   -4.7510   -0.7763 C   0  0  0  0  0  0  0  0  0  0  0  0
   -1.1407   -2.1902   -2.1049 H   0  0  0  0  0  0  0  0  0  0  0  0
    0.2882   -4.5632   -1.1563 H   0  0  0  0  0  0  0  0  0  0  0  0
   -2.7837   -4.3763   -1.1629 H   0  0  0  0  0  0  0  0  0  0  0  0
   -1.8523   -5.8439   -0.8407 H   0  0  0  0  0  0  0  0  0  0  0  0
   -1.7665   -4.4729    0.2813 H   0  0  0  0  0  0  0  0  0  0  0  0
   -0.1351   -5.7300   -3.3328 N   0  0  0  0  0  0  0  0  0  0  0  0
   -0.1331   -6.3004   -4.6597 C   0  0  0  0  0  0  0  0  0  0  0  0
    0.3791   -6.2190   -2.6060 H   0  0  0  0  0  0  0  0  0  0  0  0
   -0.9824   -6.9918   -4.7634 H   0  0  0  0  0  0  0  0  0  0  0  0
   -0.2223   -5.4959   -5.4046 H   0  0  0  0  0  0  0  0  0  0  0  0
    0.8071   -6.8478   -4.8219 H   0  0  0  0  0  0  0  0  0  0  0  0
  1  3  1  0  0  0  0
  1  7  1  0  0  0  0
  1  2  2  0  0  0  0
 28 29  1  0  0  0  0
 29 37  1  0  0  0  0
 29 30  2  0  0  0  0
 18 19  1  0  0  0  0
 19 27  1  0  0  0  0
 19 20  2  0  0  0  0
  8  9  1  0  0  0  0
  9 17  1  0  0  0  0
  9 10  2  0  0  0  0
 28 31  1  0  0  0  0
 18 21  1  0  0  0  0
  8 11  1  0  0  0  0
 37 38  1  0  0  0  0
 27 28  1  0  0  0  0
 17 18  1  0  0  0  0
  7  8  1  0  0  0  0
  3  4  1  0  0  0  0
  3  5  1  0  0  0  0
  3  6  1  0  0  0  0
 31 34  1  0  0  0  0
 31 35  1  0  0  0  0
 31 36  1  0  0  0  0
 21 24  1  0  0  0  0
 21 25  1  0  0  0  0
 21 26  1  0  0  0  0
 11 14  1  0  0  0  0
 11 15  1  0  0  0  0
 11 16  1  0  0  0  0
 38 40  1  0  0  0  0
 38 41  1  0  0  0  0
 38 42  1  0  0  0  0
 28 33  1  0  0  0  0
 18 23  1  0  0  0  0
  8 13  1  0  0  0  0
 37 39  1  0  0  0  0
  7 12  1  0  0  0  0
 27 32  1  0  0  0  0
 17 22  1  0  0  0  0
M  END
$$$$

  -OEChem-05262214473D

 42 41  0     1  0  0  0  0  0999 V2000
   -5.7851   -0.9580    0.6237 C   0  0  0  0  0  0  0  0  0  0  0  0
   -6.2213    0.1296    0.2652 O   0  0  0  0  0  0  0  0  0  0  0  0
   -6.7088   -2.1270    0.7168 C   0  0  0  0  0  0  0  0  0  0  0  0
   -7.1713   -2.2193    1.7126 H   0  0  0  0  0  0  0  0  0  0  0  0
   -7.5511   -2.0547    0.0101 H   0  0  0  0  0  0  0  0  0  0  0  0
   -6.2485   -3.1083    0.5191 H   0  0  0  0  0  0  0  0  0  0  0  0
   -4.4733   -1.2411    0.9668 N   0  0  0  0  0  0  0  0  0  0  0  0
   -3.4203   -0.2603    0.9449 C   0  0  2  0  0  0  0  0  0  0  0  0
   -2.1242   -0.9699    0.5759 C   0  0  0  0  0  0  0  0  0  0  0  0
   -1.8694   -2.1225    0.9189 O   0  0  0  0  0  0  0  0  0  0  0  0
   -3.2916    0.4435    2.2868 C   0  0  0  0  0  0  0  0  0  0  0  0
   -4.2421   -2.1920    1.2489 H   0  0  0  0  0  0  0  0  0  0  0  0
   -3.6772    0.4622    0.1625 H   0  0  0  0  0  0  0  0  0  0  0  0
   -3.0345   -0.2644    3.0832 H   0  0  0  0  0  0  0  0  0  0  0  0
   -2.5093    1.2092    2.2599 H   0  0  0  0  0  0  0  0  0  0  0  0
   -4.2338    0.9283    2.5645 H   0  0  0  0  0  0  0  0  0  0  0  0
   -1.2626   -0.1515   -0.1463 N   0  0  0  0  0  0  0  0  0  0  0  0
    0.0431   -0.5785   -0.5755 C   0  0  2  0  0  0  0  0  0  0  0  0
    0.1103   -2.0940   -0.4404 C   0  0  0  0  0  0  0  0  0  0  0  0
    0.5224   -2.6597    0.5701 O   0  0  0  0  0  0  0  0  0  0  0  0
    1.1394    0.0891    0.2401 C   0  0  0  0  0  0  0  0  0  0  0  0
   -1.5766    0.7776   -0.4197 H   0  0  0  0  0  0  0  0  0  0  0  0
    0.1355   -0.3009   -1.6312 H   0  0  0  0  0  0  0  0  0  0  0  0
    1.0631   -0.1773    1.3006 H   0  0  0  0  0  0  0  0  0  0  0  0
    2.1327   -0.2149   -0.1064 H   0  0  0  0  0  0  0  0  0  0  0  0
    1.0713    1.1798    0.1656 H   0  0  0  0  0  0  0  0  0  0  0  0
   -0.3035   -2.7449   -1.5975 N   0  0  0  0  0  0  0  0  0  0  0  0
   -0.2917   -4.1776   -1.7338 C   0  0  2  0  0  0  0  0  0  0  0  0
   -0.0054   -4.5089   -3.1925 C   0  0  0  0  0  0  0  0  0  0  0  0
   -0.4008   -3.8161   -4.1278 O   0  0  0  0  0  0  0  0  0  0  0  0
   -1.6115   -4.7869   -1.2870 C   0  0  0  0  0  0  0  0  0  0  0  0
   -0.6674   -2.1930   -2.3718 H   0  0  0  0  0  0  0  0  0  0  0  0
    0.5268   -4.5482   -1.1071 H   0  0  0  0  0  0  0  0  0  0  0  0
   -2.4435   -4.4273   -1.9034 H   0  0  0  0  0  0  0  0  0  0  0  0
   -1.5908   -5.8789   -1.3644 H   0  0  0  0  0  0  0  0  0  0  0  0
   -1.8303   -4.5228   -0.2467 H   0  0  0  0  0  0  0  0  0  0  0  0
    0.7067   -5.6923   -3.3289 N   0  0  0  0  0  0  0  0  0  0  0  0
    1.0641   -6.2433   -4.6152 C   0  0  0  0  0  0  0  0  0  0  0  0
    1.0282   -6.1806   -2.4982 H   0  0  0  0  0  0  0  0  0  0  0  0
    0.2874   -6.9512   -4.9401 H   0  0  0  0  0  0  0  0  0  0  0  0
    1.1501   -5.4303   -5.3511 H   0  0  0  0  0  0  0  0  0  0  0  0
    2.0275   -6.7680   -4.5343 H   0  0  0  0  0  0  0  0  0  0  0  0
  1  3  1  0  0  0  0
  1  7  1  0  0  0  0
  1  2  2  0  0  0  0
 28 29  1  0  0  0  0
 29 37  1  0  0  0  0
 29 30  2  0  0  0  0
 18 19  1  0  0  0  0
 19 27  1  0  0  0  0
 19 20  2  0  0  0  0
  8  9  1  0  0  0  0
  9 17  1  0  0  0  0
  9 10  2  0  0  0  0
 28 31  1  0  0  0  0
 18 21  1  0  0  0  0
  8 11  1  0  0  0  0
 37 38  1  0  0  0  0
 27 28  1  0  0  0  0
 17 18  1  0  0  0  0
  7  8  1  0  0  0  0
  3  4  1  0  0  0  0
  3  5  1  0  0  0  0
  3  6  1  0  0  0  0
 31 34  1  0  0  0  0
 31 35  1  0  0  0  0
 31 36  1  0  0  0  0
 21 24  1  0  0  0  0
 21 25  1  0  0  0  0
 21 26  1  0  0  0  0
 11 14  1  0  0  0  0
 11 15  1  0  0  0  0
 11 16  1  0  0  0  0
 38 40  1  0  0  0  0
 38 41  1  0  0  0  0
 38 42  1  0  0  0  0
 28 33  1  0  0  0  0
 18 23  1  0  0  0  0
  8 13  1  0  0  0  0
 37 39  1  0  0  0  0
  7 12  1  0  0  0  0
 27 32  1  0  0  0  0
 17 22  1  0  0  0  0
M  END
$$$$

  -OEChem-05262214473D

 42 41  0     1  0  0  0  0  0999 V2000
   -5.7851   -0.9580    0.6237 C   0  0  0  0  0  0  0  0  0  0  0  0
   -6.2213    0.1296    0.2652 O   0  0  0  0  0  0  0  0  0  0  0  0
   -6.7088   -2.1270    0.7168 C   0  0  0  0  0  0  0  0  0  0  0  0
   -7.1713   -2.2193    1.7126 H   0  0  0  0  0  0  0  0  0  0  0  0
   -7.5511   -2.0547    0.0101 H   0  0  0  0  0  0  0  0  0  0  0  0
   -6.2485   -3.1083    0.5191 H   0  0  0  0  0  0  0  0  0  0  0  0
   -4.4733   -1.2411    0.9668 N   0  0  0  0  0  0  0  0  0  0  0  0
   -3.4203   -0.2603    0.9449 C   0  0  2  0  0  0  0  0  0  0  0  0
   -2.1242   -0.9699    0.5759 C   0  0  0  0  0  0  0  0  0  0  0  0
   -1.8694   -2.1225    0.9189 O   0  0  0  0  0  0  0  0  0  0  0  0
   -3.2916    0.4435    2.2868 C   0  0  0  0  0  0  0  0  0  0  0  0
   -4.2421   -2.1920    1.2489 H   0  0  0  0  0  0  0  0  0  0  0  0
   -3.6772    0.4622    0.1625 H   0  0  0  0  0  0  0  0  0  0  0  0
   -3.0345   -0.2644    3.0832 H   0  0  0  0  0  0  0  0  0  0  0  0
   -2.5093    1.2092    2.2599 H   0  0  0  0  0  0  0  0  0  0  0  0
   -4.2338    0.9283    2.5645 H   0  0  0  0  0  0  0  0  0  0  0  0
   -1.2626   -0.1515   -0.1463 N   0  0  0  0  0  0  0  0  0  0  0  0
    0.0431   -0.5785   -0.5755 C   0  0  2  0  0  0  0  0  0  0  0  0
    0.1103   -2.0940   -0.4404 C   0  0  0  0  0  0  0  0  0  0  0  0
    0.2621   -2.6652    0.6374 O   0  0  0  0  0  0  0  0  0  0  0  0
    1.1394    0.0891    0.2401 C   0  0  0  0  0  0  0  0  0  0  0  0
   -1.5766    0.7776   -0.4197 H   0  0  0  0  0  0  0  0  0  0  0  0
    0.1355   -0.3009   -1.6312 H   0  0  0  0  0  0  0  0  0  0  0  0
    1.0631   -0.1773    1.3006 H   0  0  0  0  0  0  0  0  0  0  0  0
    2.1327   -0.2149   -0.1064 H   0  0  0  0  0  0  0  0  0  0  0  0
    1.0713    1.1798    0.1656 H   0  0  0  0  0  0  0  0  0  0  0  0
    0.0243   -2.7369   -1.6705 N   0  0  0  0  0  0  0  0  0  0  0  0
    0.1059   -4.1669   -1.8112 C   0  0  2  0  0  0  0  0  0  0  0  0
    0.7660   -4.4708   -3.1496 C   0  0  0  0  0  0  0  0  0  0  0  0
    0.6079   -3.7733   -4.1493 O   0  0  0  0  0  0  0  0  0  0  0  0
   -1.2692   -4.8107   -1.7247 C   0  0  0  0  0  0  0  0  0  0  0  0
   -0.1413   -2.1818   -2.5077 H   0  0  0  0  0  0  0  0  0  0  0  0
    0.7442   -4.5289   -0.9979 H   0  0  0  0  0  0  0  0  0  0  0  0
   -1.9230   -4.4602   -2.5317 H   0  0  0  0  0  0  0  0  0  0  0  0
   -1.2025   -5.9009   -1.8034 H   0  0  0  0  0  0  0  0  0  0  0  0
   -1.7548   -4.5665   -0.7738 H   0  0  0  0  0  0  0  0  0  0  0  0
    1.5179   -5.6366   -3.1078 N   0  0  0  0  0  0  0  0  0  0  0  0
    2.2078   -6.1612   -4.2632 C   0  0  0  0  0  0  0  0  0  0  0  0
    1.6267   -6.1298   -2.2265 H   0  0  0  0  0  0  0  0  0  0  0  0
    1.5584   -6.8809   -4.7832 H   0  0  0  0  0  0  0  0  0  0  0  0
    2.4604   -5.3360   -4.9453 H   0  0  0  0  0  0  0  0  0  0  0  0
    3.1304   -6.6662   -3.9412 H   0  0  0  0  0  0  0  0  0  0  0  0
  1  3  1  0  0  0  0
  1  7  1  0  0  0  0
  1  2  2  0  0  0  0
 28 29  1  0  0  0  0
 29 37  1  0  0  0  0
 29 30  2  0  0  0  0
 18 19  1  0  0  0  0
 19 27  1  0  0  0  0
 19 20  2  0  0  0  0
  8  9  1  0  0  0  0
  9 17  1  0  0  0  0
  9 10  2  0  0  0  0
 28 31  1  0  0  0  0
 18 21  1  0  0  0  0
  8 11  1  0  0  0  0
 37 38  1  0  0  0  0
 27 28  1  0  0  0  0
 17 18  1  0  0  0  0
  7  8  1  0  0  0  0
  3  4  1  0  0  0  0
  3  5  1  0  0  0  0
  3  6  1  0  0  0  0
 31 34  1  0  0  0  0
 31 35  1  0  0  0  0
 31 36  1  0  0  0  0
 21 24  1  0  0  0  0
 21 25  1  0  0  0  0
 21 26  1  0  0  0  0
 11 14  1  0  0  0  0
 11 15  1  0  0  0  0
 11 16  1  0  0  0  0
 38 40  1  0  0  0  0
 38 41  1  0  0  0  0
 38 42  1  0  0  0  0
 28 33  1  0  0  0  0
 18 23  1  0  0  0  0
  8 13  1  0  0  0  0
 37 39  1  0  0  0  0
  7 12  1  0  0  0  0
 27 32  1  0  0  0  0
 17 22  1  0  0  0  0
M  END
$$$$

  -OEChem-05262214473D

 42 41  0     1  0  0  0  0  0999 V2000
   -5.7851   -0.9580    0.6237 C   0  0  0  0  0  0  0  0  0  0  0  0
   -6.2213    0.1296    0.2652 O   0  0  0  0  0  0  0  0  0  0  0  0
   -6.7088   -2.1270    0.7168 C   0  0  0  0  0  0  0  0  0  0  0  0
   -7.1713   -2.2193    1.7126 H   0  0  0  0  0  0  0  0  0  0  0  0
   -7.5511   -2.0547    0.0101 H   0  0  0  0  0  0  0  0  0  0  0  0
   -6.2485   -3.1083    0.5191 H   0  0  0  0  0  0  0  0  0  0  0  0
   -4.4733   -1.2411    0.9668 N   0  0  0  0  0  0  0  0  0  0  0  0
   -3.4203   -0.2603    0.9449 C   0  0  2  0  0  0  0  0  0  0  0  0
   -2.1242   -0.9699    0.5759 C   0  0  0  0  0  0  0  0  0  0  0  0
   -1.8694   -2.1225    0.9189 O   0  0  0  0  0  0  0  0  0  0  0  0
   -3.2916    0.4435    2.2868 C   0  0  0  0  0  0  0  0  0  0  0  0
   -4.2421   -2.1920    1.2489 H   0  0  0  0  0  0  0  0  0  0  0  0
   -3.6772    0.4622    0.1625 H   0  0  0  0  0  0  0  0  0  0  0  0
   -3.0345   -0.2644    3.0832 H   0  0  0  0  0  0  0  0  0  0  0  0
   -2.5093    1.2092    2.2599 H   0  0  0  0  0  0  0  0  0  0  0  0
   -4.2338    0.9283    2.5645 H   0  0  0  0  0  0  0  0  0  0  0  0
   -1.2626   -0.1515   -0.1463 N   0  0  0  0  0  0  0  0  0  0  0  0
    0.0431   -0.5785   -0.5755 C   0  0  2  0  0  0  0  0  0  0  0  0
    0.1103   -2.0940   -0.4404 C   0  0  0  0  0  0  0  0  0  0  0  0
   -0.0065   -2.6773    0.6353 O   0  0  0  0  0  0  0  0  0  0  0  0
    1.1394    0.0891    0.2401 C   0  0  0  0  0  0  0  0  0  0  0  0
   -1.5766    0.7776   -0.4197 H   0  0  0  0  0  0  0  0  0  0  0  0
    0.1355   -0.3009   -1.6312 H   0  0  0  0  0  0  0  0  0  0  0  0
    1.0631   -0.1773    1.3006 H   0  0  0  0  0  0  0  0  0  0  0  0
    2.1327   -0.2149   -0.1064 H   0  0  0  0  0  0  0  0  0  0  0  0
    1.0713    1.1798    0.1656 H   0  0  0  0  0  0  0  0  0  0  0  0
    0.3596   -2.7208   -1.6565 N   0  0  0  0  0  0  0  0  0  0  0  0
    0.5096   -4.1465   -1.7835 C   0  0  2  0  0  0  0  0  0  0  0  0
    1.4992   -4.4169   -2.9091 C   0  0  0  0  0  0  0  0  0  0  0  0
    1.5868   -3.7085   -3.9099 O   0  0  0  0  0  0  0  0  0  0  0  0
   -0.8252   -4.8209   -2.0596 C   0  0  0  0  0  0  0  0  0  0  0  0
    0.4015   -2.1574   -2.5034 H   0  0  0  0  0  0  0  0  0  0  0  0
    0.9257   -4.5064   -0.8362 H   0  0  0  0  0  0  0  0  0  0  0  0
   -1.2576   -4.4728   -3.0048 H   0  0  0  0  0  0  0  0  0  0  0  0
   -0.7139   -5.9081   -2.1276 H   0  0  0  0  0  0  0  0  0  0  0  0
   -1.5451   -4.6009   -1.2639 H   0  0  0  0  0  0  0  0  0  0  0  0
    2.2433   -5.5667   -2.6848 N   0  0  0  0  0  0  0  0  0  0  0  0
    3.2200   -6.0597   -3.6277 C   0  0  0  0  0  0  0  0  0  0  0  0
    2.1336   -6.0701   -1.8094 H   0  0  0  0  0  0  0  0  0  0  0  0
    2.7441   -6.7855   -4.3036 H   0  0  0  0  0  0  0  0  0  0  0  0
    3.6194   -5.2195   -4.2147 H   0  0  0  0  0  0  0  0  0  0  0  0
    4.0407   -6.5494   -3.0831 H   0  0  0  0  0  0  0  0  0  0  0  0
  1  3  1  0  0  0  0
  1  7  1  0  0  0  0
  1  2  2  0  0  0  0
 28 29  1  0  0  0  0
 29 37  1  0  0  0  0
 29 30  2  0  0  0  0
 18 19  1  0  0  0  0
 19 27  1  0  0  0  0
 19 20  2  0  0  0  0
  8  9  1  0  0  0  0
  9 17  1  0  0  0  0
  9 10  2  0  0  0  0
 28 31  1  0  0  0  0
 18 21  1  0  0  0  0
  8 11  1  0  0  0  0
 37 38  1  0  0  0  0
 27 28  1  0  0  0  0
 17 18  1  0  0  0  0
  7  8  1  0  0  0  0
  3  4  1  0  0  0  0
  3  5  1  0  0  0  0
  3  6  1  0  0  0  0
 31 34  1  0  0  0  0
 31 35  1  0  0  0  0
 31 36  1  0  0  0  0
 21 24  1  0  0  0  0
 21 25  1  0  0  0  0
 21 26  1  0  0  0  0
 11 14  1  0  0  0  0
 11 15  1  0  0  0  0
 11 16  1  0  0  0  0
 38 40  1  0  0  0  0
 38 41  1  0  0  0  0
 38 42  1  0  0  0  0
 28 33  1  0  0  0  0
 18 23  1  0  0  0  0
  8 13  1  0  0  0  0
 37 39  1  0  0  0  0
  7 12  1  0  0  0  0
 27 32  1  0  0  0  0
 17 22  1  0  0  0  0
M  END
$$$$

  -OEChem-05262214473D

 42 41  0     1  0  0  0  0  0999 V2000
   -5.7851   -0.9580    0.6237 C   0  0  0  0  0  0  0  0  0  0  0  0
   -6.2213    0.1296    0.2652 O   0  0  0  0  0  0  0  0  0  0  0  0
   -6.7088   -2.1270    0.7168 C   0  0  0  0  0  0  0  0  0  0  0  0
   -7.1713   -2.2193    1.7126 H   0  0  0  0  0  0  0  0  0  0  0  0
   -7.5511   -2.0547    0.0101 H   0  0  0  0  0  0  0  0  0  0  0  0
   -6.2485   -3.1083    0.5191 H   0  0  0  0  0  0  0  0  0  0  0  0
   -4.4733   -1.2411    0.9668 N   0  0  0  0  0  0  0  0  0  0  0  0
   -3.4203   -0.2603    0.9449 C   0  0  2  0  0  0  0  0  0  0  0  0
   -2.1242   -0.9699    0.5759 C   0  0  0  0  0  0  0  0  0  0  0  0
   -1.8694   -2.1225    0.9189 O   0  0  0  0  0  0  0  0  0  0  0  0
   -3.2916    0.4435    2.2868 C   0  0  0  0  0  0  0  0  0  0  0  0
   -4.2421   -2.1920    1.2489 H   0  0  0  0  0  0  0  0  0  0  0  0
   -3.6772    0.4622    0.1625 H   0  0  0  0  0  0  0  0  0  0  0  0
   -3.0345   -0.2644    3.0832 H   0  0  0  0  0  0  0  0  0  0  0  0
   -2.5093    1.2092    2.2599 H   0  0  0  0  0  0  0  0  0  0  0  0
   -4.2338    0.9283    2.5645 H   0  0  0  0  0  0  0  0  0  0  0  0
   -1.2626   -0.1515   -0.1463 N   0  0  0  0  0  0  0  0  0  0  0  0
    0.0431   -0.5785   -0.5755 C   0  0  2  0  0  0  0  0  0  0  0  0
    0.1103   -2.0940   -0.4404 C   0  0  0  0  0  0  0  0  0  0  0  0
   -0.2651   -2.6952    0.5639 O   0  0  0  0  0  0  0  0  0  0  0  0
    1.1394    0.0891    0.2401 C   0  0  0  0  0  0  0  0  0  0  0  0
   -1.5766    0.7776   -0.4197 H   0  0  0  0  0  0  0  0  0  0  0  0
    0.1355   -0.3009   -1.6312 H   0  0  0  0  0  0  0  0  0  0  0  0
    1.0631   -0.1773    1.3006 H   0  0  0  0  0  0  0  0  0  0  0  0
    2.1327   -0.2149   -0.1064 H   0  0  0  0  0  0  0  0  0  0  0  0
    1.0713    1.1798    0.1656 H   0  0  0  0  0  0  0  0  0  0  0  0
    0.6795   -2.6977   -1.5564 N   0  0  0  0  0  0  0  0  0  0  0  0
    0.8919   -4.1179   -1.6525 C   0  0  2  0  0  0  0  0  0  0  0  0
    2.1443   -4.3507   -2.4873 C   0  0  0  0  0  0  0  0  0  0  0  0
    2.4691   -3.6262   -3.4257 O   0  0  0  0  0  0  0  0  0  0  0  0
   -0.3099   -4.8167   -2.2689 C   0  0  0  0  0  0  0  0  0  0  0  0
    0.9242   -2.1213   -2.3592 H   0  0  0  0  0  0  0  0  0  0  0  0
    1.0589   -4.4824   -0.6330 H   0  0  0  0  0  0  0  0  0  0  0  0
   -0.4928   -4.4644   -3.2906 H   0  0  0  0  0  0  0  0  0  0  0  0
   -0.1583   -5.9002   -2.3151 H   0  0  0  0  0  0  0  0  0  0  0  0
   -1.2155   -4.6237   -1.6837 H   0  0  0  0  0  0  0  0  0  0  0  0
    2.8334   -5.4874   -2.0885 N   0  0  0  0  0  0  0  0  0  0  0  0
    4.0316   -5.9456   -2.7521 C   0  0  0  0  0  0  0  0  0  0  0  0
    2.5144   -6.0056   -1.2752 H   0  0  0  0  0  0  0  0  0  0  0  0
    3.7637   -6.6717   -3.5338 H   0  0  0  0  0  0  0  0  0  0  0  0
    4.5480   -5.0887   -3.2092 H   0  0  0  0  0  0  0  0  0  0  0  0
    4.6962   -6.4254   -2.0185 H   0  0  0  0  0  0  0  0  0  0  0  0
  1  3  1  0  0  0  0
  1  7  1  0  0  0  0
  1  2  2  0  0  0  0
 28 29  1  0  0  0  0
 29 37  1  0  0  0  0
 29 30  2  0  0  0  0
 18 19  1  0  0  0  0
 19 27  1  0  0  0  0
 19 20  2  0  0  0  0
  8  9  1  0  0  0  0
  9 17  1  0  0  0  0
  9 10  2  0  0  0  0
 28 31  1  0  0  0  0
 18 21  1  0  0  0  0
  8 11  1  0  0  0  0
 37 38  1  0  0  0  0
 27 28  1  0  0  0  0
 17 18  1  0  0  0  0
  7  8  1  0  0  0  0
  3  4  1  0  0  0  0
  3  5  1  0  0  0  0
  3  6  1  0  0  0  0
 31 34  1  0  0  0  0
 31 35  1  0  0  0  0
 31 36  1  0  0  0  0
 21 24  1  0  0  0  0
 21 25  1  0  0  0  0
 21 26  1  0  0  0  0
 11 14  1  0  0  0  0
 11 15  1  0  0  0  0
 11 16  1  0  0  0  0
 38 40  1  0  0  0  0
 38 41  1  0  0  0  0
 38 42  1  0  0  0  0
 28 33  1  0  0  0  0
 18 23  1  0  0  0  0
  8 13  1  0  0  0  0
 37 39  1  0  0  0  0
  7 12  1  0  0  0  0
 27 32  1  0  0  0  0
 17 22  1  0  0  0  0
M  END
$$$$

  -OEChem-05262214473D

 42 41  0     1  0  0  0  0  0999 V2000
   -5.7851   -0.9580    0.6237 C   0  0  0  0  0  0  0  0  0  0  0  0
   -6.2213    0.1296    0.2652 O   0  0  0  0  0  0  0  0  0  0  0  0
   -6.7088   -2.1270    0.7168 C   0  0  0  0  0  0  0  0  0  0  0  0
   -7.1713   -2.2193    1.7126 H   0  0  0  0  0  0  0  0  0  0  0  0
   -7.5511   -2.0547    0.0101 H   0  0  0  0  0  0  0  0  0  0  0  0
   -6.2485   -3.1083    0.5191 H   0  0  0  0  0  0  0  0  0  0  0  0
   -4.4733   -1.2411    0.9668 N   0  0  0  0  0  0  0  0  0  0  0  0
   -3.4203   -0.2603    0.9449 C   0  0  2  0  0  0  0  0  0  0  0  0
   -2.1242   -0.9699    0.5759 C   0  0  0  0  0  0  0  0  0  0  0  0
   -1.8694   -2.1225    0.9189 O   0  0  0  0  0  0  0  0  0  0  0  0
   -3.2916    0.4435    2.2868 C   0  0  0  0  0  0  0  0  0  0  0  0
   -4.2421   -2.1920    1.2489 H   0  0  0  0  0  0  0  0  0  0  0  0
   -3.6772    0.4622    0.1625 H   0  0  0  0  0  0  0  0  0  0  0  0
   -3.0345   -0.2644    3.0832 H   0  0  0  0  0  0  0  0  0  0  0  0
   -2.5093    1.2092    2.2599 H   0  0  0  0  0  0  0  0  0  0  0  0
   -4.2338    0.9283    2.5645 H   0  0  0  0  0  0  0  0  0  0  0  0
   -1.2626   -0.1515   -0.1463 N   0  0  0  0  0  0  0  0  0  0  0  0
    0.0431   -0.5785   -0.5755 C   0  0  2  0  0  0  0  0  0  0  0  0
    0.1103   -2.0940   -0.4404 C   0  0  0  0  0  0  0  0  0  0  0  0
   -0.4962   -2.7175    0.4281 O   0  0  0  0  0  0  0  0  0  0  0  0
    1.1394    0.0891    0.2401 C   0  0  0  0  0  0  0  0  0  0  0  0
   -1.5766    0.7776   -0.4197 H   0  0  0  0  0  0  0  0  0  0  0  0
    0.1355   -0.3009   -1.6312 H   0  0  0  0  0  0  0  0  0  0  0  0
    1.0631   -0.1773    1.3006 H   0  0  0  0  0  0  0  0  0  0  0  0
    2.1327   -0.2149   -0.1064 H   0  0  0  0  0  0  0  0  0  0  0  0
    1.0713    1.1798    0.1656 H   0  0  0  0  0  0  0  0  0  0  0  0
    0.9621   -2.6691   -1.3771 N   0  0  0  0  0  0  0  0  0  0  0  0
    1.2268   -4.0829   -1.4271 C   0  0  2  0  0  0  0  0  0  0  0  0
    2.6572   -4.2767   -1.9130 C   0  0  0  0  0  0  0  0  0  0  0  0
    3.1948   -3.5320   -2.7299 O   0  0  0  0  0  0  0  0  0  0  0  0
    0.2416   -4.7984   -2.3383 C   0  0  0  0  0  0  0  0  0  0  0  0
    1.3911   -2.0762   -2.0848 H   0  0  0  0  0  0  0  0  0  0  0  0
    1.1346   -4.4584   -0.4022 H   0  0  0  0  0  0  0  0  0  0  0  0
    0.3193   -4.4354   -3.3697 H   0  0  0  0  0  0  0  0  0  0  0  0
    0.4265   -5.8776   -2.3530 H   0  0  0  0  0  0  0  0  0  0  0  0
   -0.7885   -4.6333   -2.0046 H   0  0  0  0  0  0  0  0  0  0  0  0
    3.2481   -5.4041   -1.3597 N   0  0  0  0  0  0  0  0  0  0  0  0
    4.5875   -5.8268   -1.6959 C   0  0  0  0  0  0  0  0  0  0  0  0
    2.7432   -5.9407   -0.6604 H   0  0  0  0  0  0  0  0  0  0  0  0
    4.5477   -6.5471   -2.5263 H   0  0  0  0  0  0  0  0  0  0  0  0
    5.1831   -4.9525   -1.9973 H   0  0  0  0  0  0  0  0  0  0  0  0
    5.0524   -6.3028   -0.8199 H   0  0  0  0  0  0  0  0  0  0  0  0
  1  3  1  0  0  0  0
  1  7  1  0  0  0  0
  1  2  2  0  0  0  0
 28 29  1  0  0  0  0
 29 37  1  0  0  0  0
 29 30  2  0  0  0  0
 18 19  1  0  0  0  0
 19 27  1  0  0  0  0
 19 20  2  0  0  0  0
  8  9  1  0  0  0  0
  9 17  1  0  0  0  0
  9 10  2  0  0  0  0
 28 31  1  0  0  0  0
 18 21  1  0  0  0  0
  8 11  1  0  0  0  0
 37 38  1  0  0  0  0
 27 28  1  0  0  0  0
 17 18  1  0  0  0  0
  7  8  1  0  0  0  0
  3  4  1  0  0  0  0
  3  5  1  0  0  0  0
  3  6  1  0  0  0  0
 31 34  1  0  0  0  0
 31 35  1  0  0  0  0
 31 36  1  0  0  0  0
 21 24  1  0  0  0  0
 21 25  1  0  0  0  0
 21 26  1  0  0  0  0
 11 14  1  0  0  0  0
 11 15  1  0  0  0  0
 11 16  1  0  0  0  0
 38 40  1  0  0  0  0
 38 41  1  0  0  0  0
 38 42  1  0  0  0  0
 28 33  1  0  0  0  0
 18 23  1  0  0  0  0
  8 13  1  0  0  0  0
 37 39  1  0  0  0  0
  7 12  1  0  0  0  0
 27 32  1  0  0  0  0
 17 22  1  0  0  0  0
M  END
$$$$

  -OEChem-05262214473D

 42 41  0     1  0  0  0  0  0999 V2000
   -5.7851   -0.9580    0.6237 C   0  0  0  0  0  0  0  0  0  0  0  0
   -6.2213    0.1296    0.2652 O   0  0  0  0  0  0  0  0  0  0  0  0
   -6.7088   -2.1270    0.7168 C   0  0  0  0  0  0  0  0  0  0  0  0
   -7.1713   -2.2193    1.7126 H   0  0  0  0  0  0  0  0  0  0  0  0
   -7.5511   -2.0547    0.0101 H   0  0  0  0  0  0  0  0  0  0  0  0
   -6.2485   -3.1083    0.5191 H   0  0  0  0  0  0  0  0  0  0  0  0
   -4.4733   -1.2411    0.9668 N   0  0  0  0  0  0  0  0  0  0  0  0
   -3.4203   -0.2603    0.9449 C   0  0  2  0  0  0  0  0  0  0  0  0
   -2.1242   -0.9699    0.5759 C   0  0  0  0  0  0  0  0  0  0  0  0
   -1.8694   -2.1225    0.9189 O   0  0  0  0  0  0  0  0  0  0  0  0
   -3.2916    0.4435    2.2868 C   0  0  0  0  0  0  0  0  0  0  0  0
   -4.2421   -2.1920    1.2489 H   0  0  0  0  0  0  0  0  0  0  0  0
   -3.6772    0.4622    0.1625 H   0  0  0  0  0  0  0  0  0  0  0  0
   -3.0345   -0.2644    3.0832 H   0  0  0  0  0  0  0  0  0  0  0  0
   -2.5093    1.2092    2.2599 H   0  0  0  0  0  0  0  0  0  0  0  0
   -4.2338    0.9283    2.5645 H   0  0  0  0  0  0  0  0  0  0  0  0
   -1.2626   -0.1515   -0.1463 N   0  0  0  0  0  0  0  0  0  0  0  0
    0.0431   -0.5785   -0.5755 C   0  0  2  0  0  0  0  0  0  0  0  0
    0.1103   -2.0940   -0.4404 C   0  0  0  0  0  0  0  0  0  0  0  0
   -0.6839   -2.7429    0.2372 O   0  0  0  0  0  0  0  0  0  0  0  0
    1.1394    0.0891    0.2401 C   0  0  0  0  0  0  0  0  0  0  0  0
   -1.5766    0.7776   -0.4197 H   0  0  0  0  0  0  0  0  0  0  0  0
    0.1355   -0.3009   -1.6312 H   0  0  0  0  0  0  0  0  0  0  0  0
    1.0631   -0.1773    1.3006 H   0  0  0  0  0  0  0  0  0  0  0  0
    2.1327   -0.2149   -0.1064 H   0  0  0  0  0  0  0  0  0  0  0  0
    1.0713    1.1798    0.1656 H   0  0  0  0  0  0  0  0  0  0  0  0
    1.1884   -2.6371   -1.1308 N   0  0  0  0  0  0  0  0  0  0  0  0
    1.4915   -4.0441   -1.1228 C   0  0  2  0  0  0  0  0  0  0  0  0
    3.0030   -4.2001   -1.2253 C   0  0  0  0  0  0  0  0  0  0  0  0
    3.7144   -3.4323   -1.8698 O   0  0  0  0  0  0  0  0  0  0  0  0
    0.7919   -4.7673   -2.2631 C   0  0  0  0  0  0  0  0  0  0  0  0
    1.7704   -2.0249   -1.6991 H   0  0  0  0  0  0  0  0  0  0  0  0
    1.1477   -4.4362   -0.1594 H   0  0  0  0  0  0  0  0  0  0  0  0
    1.1235   -4.3879   -3.2365 H   0  0  0  0  0  0  0  0  0  0  0  0
    1.0006   -5.8419   -2.2387 H   0  0  0  0  0  0  0  0  0  0  0  0
   -0.2932   -4.6292   -2.2047 H   0  0  0  0  0  0  0  0  0  0  0  0
    3.4589   -5.3223   -0.5479 N   0  0  0  0  0  0  0  0  0  0  0  0
    4.8497   -5.7114   -0.5312 C   0  0  0  0  0  0  0  0  0  0  0  0
    2.8043   -5.8797   -0.0069 H   0  0  0  0  0  0  0  0  0  0  0  0
    5.0426   -6.4202   -1.3499 H   0  0  0  0  0  0  0  0  0  0  0  0
    5.4812   -4.8202   -0.6616 H   0  0  0  0  0  0  0  0  0  0  0  0
    5.0850   -6.1898    0.4310 H   0  0  0  0  0  0  0  0  0  0  0  0
  1  3  1  0  0  0  0
  1  7  1  0  0  0  0
  1  2  2  0  0  0  0
 28 29  1  0  0  0  0
 29 37  1  0  0  0  0
 29 30  2  0  0  0  0
 18 19  1  0  0  0  0
 19 27  1  0  0  0  0
 19 20  2  0  0  0  0
  8  9  1  0  0  0  0
  9 17  1  0  0  0  0
  9 10  2  0  0  0  0
 28 31  1  0  0  0  0
 18 21  1  0  0  0  0
  8 11  1  0  0  0  0
 37 38  1  0  0  0  0
 27 28  1  0  0  0  0
 17 18  1  0  0  0  0
  7  8  1  0  0  0  0
  3  4  1  0  0  0  0
  3  5  1  0  0  0  0
  3  6  1  0  0  0  0
 31 34  1  0  0  0  0
 31 35  1  0  0  0  0
 31 36  1  0  0  0  0
 21 24  1  0  0  0  0
 21 25  1  0  0  0  0
 21 26  1  0  0  0  0
 11 14  1  0  0  0  0
 11 15  1  0  0  0  0
 11 16  1  0  0  0  0
 38 40  1  0  0  0  0
 38 41  1  0  0  0  0
 38 42  1  0  0  0  0
 28 33  1  0  0  0  0
 18 23  1  0  0  0  0
  8 13  1  0  0  0  0
 37 39  1  0  0  0  0
  7 12  1  0  0  0  0
 27 32  1  0  0  0  0
 17 22  1  0  0  0  0
M  END
$$$$

  -OEChem-05262214473D

 42 41  0     1  0  0  0  0  0999 V2000
   -5.7851   -0.9580    0.6237 C   0  0  0  0  0  0  0  0  0  0  0  0
   -6.2213    0.1296    0.2652 O   0  0  0  0  0  0  0  0  0  0  0  0
   -6.7088   -2.1270    0.7168 C   0  0  0  0  0  0  0  0  0  0  0  0
   -7.1713   -2.2193    1.7126 H   0  0  0  0  0  0  0  0  0  0  0  0
   -7.5511   -2.0547    0.0101 H   0  0  0  0  0  0  0  0  0  0  0  0
   -6.2485   -3.1083    0.5191 H   0  0  0  0  0  0  0  0  0  0  0  0
   -4.4733   -1.2411    0.9668 N   0  0  0  0  0  0  0  0  0  0  0  0
   -3.4203   -0.2603    0.9449 C   0  0  2  0  0  0  0  0  0  0  0  0
   -2.1242   -0.9699    0.5759 C   0  0  0  0  0  0  0  0  0  0  0  0
   -1.8694   -2.1225    0.9189 O   0  0  0  0  0  0  0  0  0  0  0  0
   -3.2916    0.4435    2.2868 C   0  0  0  0  0  0  0  0  0  0  0  0
   -4.2421   -2.1920    1.2489 H   0  0  0  0  0  0  0  0  0  0  0  0
   -3.6772    0.4622    0.1625 H   0  0  0  0  0  0  0  0  0  0  0  0
   -3.0345   -0.2644    3.0832 H   0  0  0  0  0  0  0  0  0  0  0  0
   -2.5093    1.2092    2.2599 H   0  0  0  0  0  0  0  0  0  0  0  0
   -4.2338    0.9283    2.5645 H   0  0  0  0  0  0  0  0  0  0  0  0
   -1.2626   -0.1515   -0.1463 N   0  0  0  0  0  0  0  0  0  0  0  0
    0.0431   -0.5785   -0.5755 C   0  0  2  0  0  0  0  0  0  0  0  0
   -0.0048   -2.0840   -0.8005 C   0  0  0  0  0  0  0  0  0  0  0  0
   -1.0091   -2.7616   -0.5929 O   0  0  0  0  0  0  0  0  0  0  0  0
    1.1080   -0.2154    0.4476 C   0  0  0  0  0  0  0  0  0  0  0  0
   -1.5766    0.7776   -0.4197 H   0  0  0  0  0  0  0  0  0  0  0  0
    0.2446   -0.0728   -1.5262 H   0  0  0  0  0  0  0  0  0  0  0  0
    0.9229   -0.7127    1.4067 H   0  0  0  0  0  0  0  0  0  0  0  0
    2.1045   -0.5153    0.1067 H   0  0  0  0  0  0  0  0  0  0  0  0
    1.1209    0.8646    0.6303 H   0  0  0  0  0  0  0  0  0  0  0  0
    1.2194   -2.5932   -1.2201 N   0  0  0  0  0  0  0  0  0  0  0  0
    1.4410   -3.9950   -1.4594 C   0  0  2  0  0  0  0  0  0  0  0  0
    2.8891   -4.3089   -1.1076 C   0  0  0  0  0  0  0  0  0  0  0  0
    3.8096   -3.5131   -1.2823 O   0  0  0  0  0  0  0  0  0  0  0  0
    1.1403   -4.3640   -2.9037 C   0  0  0  0  0  0  0  0  0  0  0  0
    1.9857   -1.9487   -1.4045 H   0  0  0  0  0  0  0  0  0  0  0  0
    0.7737   -4.5406   -0.7834 H   0  0  0  0  0  0  0  0  0  0  0  0
    1.7990   -3.8270   -3.5960 H   0  0  0  0  0  0  0  0  0  0  0  0
    1.2819   -5.4359   -3.0771 H   0  0  0  0  0  0  0  0  0  0  0  0
    0.1070   -4.1101   -3.1638 H   0  0  0  0  0  0  0  0  0  0  0  0
    3.0390   -5.5980   -0.6157 N   0  0  0  0  0  0  0  0  0  0  0  0
    4.3232   -6.1486   -0.2503 C   0  0  0  0  0  0  0  0  0  0  0  0
    2.2162   -6.1746   -0.4661 H   0  0  0  0  0  0  0  0  0  0  0  0
    4.7523   -6.6824   -1.1111 H   0  0  0  0  0  0  0  0  0  0  0  0
    4.9991   -5.3344    0.0501 H   0  0  0  0  0  0  0  0  0  0  0  0
    4.1966   -6.8485    0.5889 H   0  0  0  0  0  0  0  0  0  0  0  0
  1  3  1  0  0  0  0
  1  7  1  0  0  0  0
  1  2  2  0  0  0  0
 28 29  1  0  0  0  0
 29 37  1  0  0  0  0
 29 30  2  0  0  0  0
 18 19  1  0  0  0  0
 19 27  1  0  0  0  0
 19 20  2  0  0  0  0
  8  9  1  0  0  0  0
  9 17  1  0  0  0  0
  9 10  2  0  0  0  0
 28 31  1  0  0  0  0
 18 21  1  0  0  0  0
  8 11  1  0  0  0  0
 37 38  1  0  0  0  0
 27 28  1  0  0  0  0
 17 18  1  0  0  0  0
  7  8  1  0  0  0  0
  3  4  1  0  0  0  0
  3  5  1  0  0  0  0
  3  6  1  0  0  0  0
 31 34  1  0  0  0  0
 31 35  1  0  0  0  0
 31 36  1  0  0  0  0
 21 24  1  0  0  0  0
 21 25  1  0  0  0  0
 21 26  1  0  0  0  0
 11 14  1  0  0  0  0
 11 15  1  0  0  0  0
 11 16  1  0  0  0  0
 38 40  1  0  0  0  0
 38 41  1  0  0  0  0
 38 42  1  0  0  0  0
 28 33  1  0  0  0  0
 18 23  1  0  0  0  0
  8 13  1  0  0  0  0
 37 39  1  0  0  0  0
  7 12  1  0  0  0  0
 27 32  1  0  0  0  0
 17 22  1  0  0  0  0
M  END
$$$$

  -OEChem-05262214473D

 42 41  0     1  0  0  0  0  0999 V2000
   -5.7851   -0.9580    0.6237 C   0  0  0  0  0  0  0  0  0  0  0  0
   -6.2213    0.1296    0.2652 O   0  0  0  0  0  0  0  0  0  0  0  0
   -6.7088   -2.1270    0.7168 C   0  0  0  0  0  0  0  0  0  0  0  0
   -7.1713   -2.2193    1.7126 H   0  0  0  0  0  0  0  0  0  0  0  0
   -7.5511   -2.0547    0.0101 H   0  0  0  0  0  0  0  0  0  0  0  0
   -6.2485   -3.1083    0.5191 H   0  0  0  0  0  0  0  0  0  0  0  0
   -4.4733   -1.2411    0.9668 N   0  0  0  0  0  0  0  0  0  0  0  0
   -3.4203   -0.2603    0.9449 C   0  0  2  0  0  0  0  0  0  0  0  0
   -2.1242   -0.9699    0.5759 C   0  0  0  0  0  0  0  0  0  0  0  0
   -1.8694   -2.1225    0.9189 O   0  0  0  0  0  0  0  0  0  0  0  0
   -3.2916    0.4435    2.2868 C   0  0  0  0  0  0  0  0  0  0  0  0
   -4.2421   -2.1920    1.2489 H   0  0  0  0  0  0  0  0  0  0  0  0
   -3.6772    0.4622    0.1625 H   0  0  0  0  0  0  0  0  0  0  0  0
   -3.0345   -0.2644    3.0832 H   0  0  0  0  0  0  0  0  0  0  0  0
   -2.5093    1.2092    2.2599 H   0  0  0  0  0  0  0  0  0  0  0  0
   -4.2338    0.9283    2.5645 H   0  0  0  0  0  0  0  0  0  0  0  0
   -1.2626   -0.1515   -0.1463 N   0  0  0  0  0  0  0  0  0  0  0  0
    0.0431   -0.5785   -0.5755 C   0  0  2  0  0  0  0  0  0  0  0  0
   -0.0048   -2.0840   -0.8005 C   0  0  0  0  0  0  0  0  0  0  0  0
   -1.0546   -2.7211   -0.8548 O   0  0  0  0  0  0  0  0  0  0  0  0
    1.1080   -0.2154    0.4476 C   0  0  0  0  0  0  0  0  0  0  0  0
   -1.5766    0.7776   -0.4197 H   0  0  0  0  0  0  0  0  0  0  0  0
    0.2446   -0.0728   -1.5262 H   0  0  0  0  0  0  0  0  0  0  0  0
    0.9229   -0.7127    1.4067 H   0  0  0  0  0  0  0  0  0  0  0  0
    2.1045   -0.5153    0.1067 H   0  0  0  0  0  0  0  0  0  0  0  0
    1.1209    0.8646    0.6303 H   0  0  0  0  0  0  0  0  0  0  0  0
    1.2650   -2.6438   -0.8911 N   0  0  0  0  0  0  0  0  0  0  0  0
    1.4852   -4.0559   -1.0613 C   0  0  2  0  0  0  0  0  0  0  0  0
    2.7817   -4.4188   -0.3494 C   0  0  0  0  0  0  0  0  0  0  0  0
    3.7468   -3.6601   -0.2852 O   0  0  0  0  0  0  0  0  0  0  0  0
    1.5495   -4.4324   -2.5333 C   0  0  0  0  0  0  0  0  0  0  0  0
    2.0777   -2.0307   -0.8752 H   0  0  0  0  0  0  0  0  0  0  0  0
    0.6463   -4.5674   -0.5769 H   0  0  0  0  0  0  0  0  0  0  0  0
    2.3839   -3.9294   -3.0355 H   0  0  0  0  0  0  0  0  0  0  0  0
    1.6885   -5.5110   -2.6612 H   0  0  0  0  0  0  0  0  0  0  0  0
    0.6279   -4.1436   -3.0501 H   0  0  0  0  0  0  0  0  0  0  0  0
    2.7501   -5.7060    0.1685 N   0  0  0  0  0  0  0  0  0  0  0  0
    3.8755   -6.2992    0.8522 C   0  0  0  0  0  0  0  0  0  0  0  0
    1.8944   -6.2496    0.1042 H   0  0  0  0  0  0  0  0  0  0  0  0
    4.4891   -6.8597    0.1316 H   0  0  0  0  0  0  0  0  0  0  0  0
    4.4836   -5.5067    1.3131 H   0  0  0  0  0  0  0  0  0  0  0  0
    3.5111   -6.9827    1.6332 H   0  0  0  0  0  0  0  0  0  0  0  0
  1  3  1  0  0  0  0
  1  7  1  0  0  0  0
  1  2  2  0  0  0  0
 28 29  1  0  0  0  0
 29 37  1  0  0  0  0
 29 30  2  0  0  0  0
 18 19  1  0  0  0  0
 19 27  1  0  0  0  0
 19 20  2  0  0  0  0
  8  9  1  0  0  0  0
  9 17  1  0  0  0  0
  9 10  2  0  0  0  0
 28 31  1  0  0  0  0
 18 21  1  0  0  0  0
  8 11  1  0  0  0  0
 37 38  1  0  0  0  0
 27 28  1  0  0  0  0
 17 18  1  0  0  0  0
  7  8  1  0  0  0  0
  3  4  1  0  0  0  0
  3  5  1  0  0  0  0
  3  6  1  0  0  0  0
 31 34  1  0  0  0  0
 31 35  1  0  0  0  0
 31 36  1  0  0  0  0
 21 24  1  0  0  0  0
 21 25  1  0  0  0  0
 21 26  1  0  0  0  0
 11 14  1  0  0  0  0
 11 15  1  0  0  0  0
 11 16  1  0  0  0  0
 38 40  1  0  0  0  0
 38 41  1  0  0  0  0
 38 42  1  0  0  0  0
 28 33  1  0  0  0  0
 18 23  1  0  0  0  0
  8 13  1  0  0  0  0
 37 39  1  0  0  0  0
  7 12  1  0  0  0  0
 27 32  1  0  0  0  0
 17 22  1  0  0  0  0
M  END
$$$$

  -OEChem-05262214473D

 42 41  0     1  0  0  0  0  0999 V2000
   -5.7851   -0.9580    0.6237 C   0  0  0  0  0  0  0  0  0  0  0  0
   -6.2213    0.1296    0.2652 O   0  0  0  0  0  0  0  0  0  0  0  0
   -6.7088   -2.1270    0.7168 C   0  0  0  0  0  0  0  0  0  0  0  0
   -7.1713   -2.2193    1.7126 H   0  0  0  0  0  0  0  0  0  0  0  0
   -7.5511   -2.0547    0.0101 H   0  0  0  0  0  0  0  0  0  0  0  0
   -6.2485   -3.1083    0.5191 H   0  0  0  0  0  0  0  0  0  0  0  0
   -4.4733   -1.2411    0.9668 N   0  0  0  0  0  0  0  0  0  0  0  0
   -3.4203   -0.2603    0.9449 C   0  0  2  0  0  0  0  0  0  0  0  0
   -2.1242   -0.9699    0.5759 C   0  0  0  0  0  0  0  0  0  0  0  0
   -1.8694   -2.1225    0.9189 O   0  0  0  0  0  0  0  0  0  0  0  0
   -3.2916    0.4435    2.2868 C   0  0  0  0  0  0  0  0  0  0  0  0
   -4.2421   -2.1920    1.2489 H   0  0  0  0  0  0  0  0  0  0  0  0
   -3.6772    0.4622    0.1625 H   0  0  0  0  0  0  0  0  0  0  0  0
   -3.0345   -0.2644    3.0832 H   0  0  0  0  0  0  0  0  0  0  0  0
   -2.5093    1.2092    2.2599 H   0  0  0  0  0  0  0  0  0  0  0  0
   -4.2338    0.9283    2.5645 H   0  0  0  0  0  0  0  0  0  0  0  0
   -1.2626   -0.1515   -0.1463 N   0  0  0  0  0  0  0  0  0  0  0  0
    0.0431   -0.5785   -0.5755 C   0  0  2  0  0  0  0  0  0  0  0  0
   -0.0048   -2.0840   -0.8005 C   0  0  0  0  0  0  0  0  0  0  0  0
   -1.0301   -2.6822   -1.1197 O   0  0  0  0  0  0  0  0  0  0  0  0
    1.1080   -0.2154    0.4476 C   0  0  0  0  0  0  0  0  0  0  0  0
   -1.5766    0.7776   -0.4197 H   0  0  0  0  0  0  0  0  0  0  0  0
    0.2446   -0.0728   -1.5262 H   0  0  0  0  0  0  0  0  0  0  0  0
    0.9229   -0.7127    1.4067 H   0  0  0  0  0  0  0  0  0  0  0  0
    2.1045   -0.5153    0.1067 H   0  0  0  0  0  0  0  0  0  0  0  0
    1.1209    0.8646    0.6303 H   0  0  0  0  0  0  0  0  0  0  0  0
    1.2229   -2.6917   -0.5613 N   0  0  0  0  0  0  0  0  0  0  0  0
    1.4237   -4.1131   -0.6649 C   0  0  2  0  0  0  0  0  0  0  0  0
    2.4798   -4.5146    0.3563 C   0  0  0  0  0  0  0  0  0  0  0  0
    3.4254   -3.7916    0.6630 O   0  0  0  0  0  0  0  0  0  0  0  0
    1.8474   -4.5110   -2.0702 C   0  0  0  0  0  0  0  0  0  0  0  0
    2.0280   -2.1092   -0.3397 H   0  0  0  0  0  0  0  0  0  0  0  0
    0.4694   -4.5868   -0.4098 H   0  0  0  0  0  0  0  0  0  0  0  0
    2.8016   -4.0461   -2.3436 H   0  0  0  0  0  0  0  0  0  0  0  0
    1.9720   -5.5956   -2.1549 H   0  0  0  0  0  0  0  0  0  0  0  0
    1.1006   -4.1950   -2.8066 H   0  0  0  0  0  0  0  0  0  0  0  0
    2.2662   -5.7929    0.8529 N   0  0  0  0  0  0  0  0  0  0  0  0
    3.1552   -6.4185    1.8038 C   0  0  0  0  0  0  0  0  0  0  0  0
    1.4347   -6.3051    0.5734 H   0  0  0  0  0  0  0  0  0  0  0  0
    3.9101   -7.0108    1.2661 H   0  0  0  0  0  0  0  0  0  0  0  0
    3.6559   -5.6432    2.4025 H   0  0  0  0  0  0  0  0  0  0  0  0
    2.5767   -7.0777    2.4677 H   0  0  0  0  0  0  0  0  0  0  0  0
  1  3  1  0  0  0  0
  1  7  1  0  0  0  0
  1  2  2  0  0  0  0
 28 29  1  0  0  0  0
 29 37  1  0  0  0  0
 29 30  2  0  0  0  0
 18 19  1  0  0  0  0
 19 27  1  0  0  0  0
 19 20  2  0  0  0  0
  8  9  1  0  0  0  0
  9 17  1  0  0  0  0
  9 10  2  0  0  0  0
 28 31  1  0  0  0  0
 18 21  1  0  0  0  0
  8 11  1  0  0  0  0
 37 38  1  0  0  0  0
 27 28  1  0  0  0  0
 17 18  1  0  0  0  0
  7  8  1  0  0  0  0
  3  4  1  0  0  0  0
  3  5  1  0  0  0  0
  3  6  1  0  0  0  0
 31 34  1  0  0  0  0
 31 35  1  0  0  0  0
 31 36  1  0  0  0  0
 21 24  1  0  0  0  0
 21 25  1  0  0  0  0
 21 26  1  0  0  0  0
 11 14  1  0  0  0  0
 11 15  1  0  0  0  0
 11 16  1  0  0  0  0
 38 40  1  0  0  0  0
 38 41  1  0  0  0  0
 38 42  1  0  0  0  0
 28 33  1  0  0  0  0
 18 23  1  0  0  0  0
  8 13  1  0  0  0  0
 37 39  1  0  0  0  0
  7 12  1  0  0  0  0
 27 32  1  0  0  0  0
 17 22  1  0  0  0  0
M  END
$$$$

  -OEChem-05262214473D

 42 41  0     1  0  0  0  0  0999 V2000
   -5.7851   -0.9580    0.6237 C   0  0  0  0  0  0  0  0  0  0  0  0
   -6.2213    0.1296    0.2652 O   0  0  0  0  0  0  0  0  0  0  0  0
   -6.7088   -2.1270    0.7168 C   0  0  0  0  0  0  0  0  0  0  0  0
   -7.1713   -2.2193    1.7126 H   0  0  0  0  0  0  0  0  0  0  0  0
   -7.5511   -2.0547    0.0101 H   0  0  0  0  0  0  0  0  0  0  0  0
   -6.2485   -3.1083    0.5191 H   0  0  0  0  0  0  0  0  0  0  0  0
   -4.4733   -1.2411    0.9668 N   0  0  0  0  0  0  0  0  0  0  0  0
   -3.4203   -0.2603    0.9449 C   0  0  2  0  0  0  0  0  0  0  0  0
   -2.1242   -0.9699    0.5759 C   0  0  0  0  0  0  0  0  0  0  0  0
   -1.8694   -2.1225    0.9189 O   0  0  0  0  0  0  0  0  0  0  0  0
   -3.2916    0.4435    2.2868 C   0  0  0  0  0  0  0  0  0  0  0  0
   -4.2421   -2.1920    1.2489 H   0  0  0  0  0  0  0  0  0  0  0  0
   -3.6772    0.4622    0.1625 H   0  0  0  0  0  0  0  0  0  0  0  0
   -3.0345   -0.2644    3.0832 H   0  0  0  0  0  0  0  0  0  0  0  0
   -2.5093    1.2092    2.2599 H   0  0  0  0  0  0  0  0  0  0  0  0
   -4.2338    0.9283    2.5645 H   0  0  0  0  0  0  0  0  0  0  0  0
   -1.2626   -0.1515   -0.1463 N   0  0  0  0  0  0  0  0  0  0  0  0
    0.0431   -0.5785   -0.5755 C   0  0  2  0  0  0  0  0  0  0  0  0
   -0.0048   -2.0840   -0.8005 C   0  0  0  0  0  0  0  0  0  0  0  0
   -0.9370   -2.6478   -1.3697 O   0  0  0  0  0  0  0  0  0  0  0  0
    1.1080   -0.2154    0.4476 C   0  0  0  0  0  0  0  0  0  0  0  0
   -1.5766    0.7776   -0.4197 H   0  0  0  0  0  0  0  0  0  0  0  0
    0.2446   -0.0728   -1.5262 H   0  0  0  0  0  0  0  0  0  0  0  0
    0.9229   -0.7127    1.4067 H   0  0  0  0  0  0  0  0  0  0  0  0
    2.1045   -0.5153    0.1067 H   0  0  0  0  0  0  0  0  0  0  0  0
    1.1209    0.8646    0.6303 H   0  0  0  0  0  0  0  0  0  0  0  0
    1.0961   -2.7338   -0.2530 N   0  0  0  0  0  0  0  0  0  0  0  0
    1.2607   -4.1629   -0.2974 C   0  0  2  0  0  0  0  0  0  0  0  0
    2.0039   -4.5900    0.9615 C   0  0  0  0  0  0  0  0  0  0  0  0
    2.8673   -3.8986    1.4978 O   0  0  0  0  0  0  0  0  0  0  0  0
    2.0136   -4.5947   -1.5461 C   0  0  0  0  0  0  0  0  0  0  0  0
    1.8400   -2.1787    0.1654 H   0  0  0  0  0  0  0  0  0  0  0  0
    0.2550   -4.5973   -0.2935 H   0  0  0  0  0  0  0  0  0  0  0  0
    3.0235   -4.1691   -1.5676 H   0  0  0  0  0  0  0  0  0  0  0  0
    2.1130   -5.6841   -1.5926 H   0  0  0  0  0  0  0  0  0  0  0  0
    1.4930   -4.2608   -2.4501 H   0  0  0  0  0  0  0  0  0  0  0  0
    1.6204   -5.8528    1.3909 N   0  0  0  0  0  0  0  0  0  0  0  0
    2.2114   -6.4984    2.5397 C   0  0  0  0  0  0  0  0  0  0  0  0
    0.8686   -6.3373    0.9095 H   0  0  0  0  0  0  0  0  0  0  0  0
    3.0549   -7.1255    2.2150 H   0  0  0  0  0  0  0  0  0  0  0  0
    2.5724   -5.7345    3.2441 H   0  0  0  0  0  0  0  0  0  0  0  0
    1.4570   -7.1270    3.0354 H   0  0  0  0  0  0  0  0  0  0  0  0
  1  3  1  0  0  0  0
  1  7  1  0  0  0  0
  1  2  2  0  0  0  0
 28 29  1  0  0  0  0
 29 37  1  0  0  0  0
 29 30  2  0  0  0  0
 18 19  1  0  0  0  0
 19 27  1  0  0  0  0
 19 20  2  0  0  0  0
  8  9  1  0  0  0  0
  9 17  1  0  0  0  0
  9 10  2  0  0  0  0
 28 31  1  0  0  0  0
 18 21  1  0  0  0  0
  8 11  1  0  0  0  0
 37 38  1  0  0  0  0
 27 28  1  0  0  0  0
 17 18  1  0  0  0  0
  7  8  1  0  0  0  0
  3  4  1  0  0  0  0
  3  5  1  0  0  0  0
  3  6  1  0  0  0  0
 31 34  1  0  0  0  0
 31 35  1  0  0  0  0
 31 36  1  0  0  0  0
 21 24  1  0  0  0  0
 21 25  1  0  0  0  0
 21 26  1  0  0  0  0
 11 14  1  0  0  0  0
 11 15  1  0  0  0  0
 11 16  1  0  0  0  0
 38 40  1  0  0  0  0
 38 41  1  0  0  0  0
 38 42  1  0  0  0  0
 28 33  1  0  0  0  0
 18 23  1  0  0  0  0
  8 13  1  0  0  0  0
 37 39  1  0  0  0  0
  7 12  1  0  0  0  0
 27 32  1  0  0  0  0
 17 22  1  0  0  0  0
M  END
$$$$

  -OEChem-05262214473D

 42 41  0     1  0  0  0  0  0999 V2000
   -5.7851   -0.9580    0.6237 C   0  0  0  0  0  0  0  0  0  0  0  0
   -6.2213    0.1296    0.2652 O   0  0  0  0  0  0  0  0  0  0  0  0
   -6.7088   -2.1270    0.7168 C   0  0  0  0  0  0  0  0  0  0  0  0
   -7.1713   -2.2193    1.7126 H   0  0  0  0  0  0  0  0  0  0  0  0
   -7.5511   -2.0547    0.0101 H   0  0  0  0  0  0  0  0  0  0  0  0
   -6.2485   -3.1083    0.5191 H   0  0  0  0  0  0  0  0  0  0  0  0
   -4.4733   -1.2411    0.9668 N   0  0  0  0  0  0  0  0  0  0  0  0
   -3.4203   -0.2603    0.9449 C   0  0  2  0  0  0  0  0  0  0  0  0
   -2.1242   -0.9699    0.5759 C   0  0  0  0  0  0  0  0  0  0  0  0
   -1.8694   -2.1225    0.9189 O   0  0  0  0  0  0  0  0  0  0  0  0
   -3.2916    0.4435    2.2868 C   0  0  0  0  0  0  0  0  0  0  0  0
   -4.2421   -2.1920    1.2489 H   0  0  0  0  0  0  0  0  0  0  0  0
   -3.6772    0.4622    0.1625 H   0  0  0  0  0  0  0  0  0  0  0  0
   -3.0345   -0.2644    3.0832 H   0  0  0  0  0  0  0  0  0  0  0  0
   -2.5093    1.2092    2.2599 H   0  0  0  0  0  0  0  0  0  0  0  0
   -4.2338    0.9283    2.5645 H   0  0  0  0  0  0  0  0  0  0  0  0
   -1.2626   -0.1515   -0.1463 N   0  0  0  0  0  0  0  0  0  0  0  0
    0.0431   -0.5785   -0.5755 C   0  0  2  0  0  0  0  0  0  0  0  0
   -0.0048   -2.0840   -0.8005 C   0  0  0  0  0  0  0  0  0  0  0  0
   -0.7819   -2.6202   -1.5876 O   0  0  0  0  0  0  0  0  0  0  0  0
    1.1080   -0.2154    0.4476 C   0  0  0  0  0  0  0  0  0  0  0  0
   -1.5766    0.7776   -0.4197 H   0  0  0  0  0  0  0  0  0  0  0  0
    0.2446   -0.0728   -1.5262 H   0  0  0  0  0  0  0  0  0  0  0  0
    0.9229   -0.7127    1.4067 H   0  0  0  0  0  0  0  0  0  0  0  0
    2.1045   -0.5153    0.1067 H   0  0  0  0  0  0  0  0  0  0  0  0
    1.1209    0.8646    0.6303 H   0  0  0  0  0  0  0  0  0  0  0  0
    0.8931   -2.7670    0.0126 N   0  0  0  0  0  0  0  0  0  0  0  0
    1.0072   -4.2017    0.0164 C   0  0  2  0  0  0  0  0  0  0  0  0
    1.3866   -4.6396    1.4249 C   0  0  0  0  0  0  0  0  0  0  0  0
    2.1106   -3.9738    2.1622 O   0  0  0  0  0  0  0  0  0  0  0  0
    2.0369   -4.6775   -0.9966 C   0  0  0  0  0  0  0  0  0  0  0  0
    1.5265   -2.2345    0.6057 H   0  0  0  0  0  0  0  0  0  0  0  0
    0.0178   -4.5984   -0.2360 H   0  0  0  0  0  0  0  0  0  0  0  0
    3.0347   -4.2901   -0.7602 H   0  0  0  0  0  0  0  0  0  0  0  0
    2.1020   -5.7705   -1.0127 H   0  0  0  0  0  0  0  0  0  0  0  0
    1.7783   -4.3364   -2.0048 H   0  0  0  0  0  0  0  0  0  0  0  0
    0.8567   -5.8815    1.7458 N   0  0  0  0  0  0  0  0  0  0  0  0
    1.1085   -6.5336    3.0097 C   0  0  0  0  0  0  0  0  0  0  0  0
    0.2345   -6.3440    1.0895 H   0  0  0  0  0  0  0  0  0  0  0  0
    1.9816   -7.1957    2.9137 H   0  0  0  0  0  0  0  0  0  0  0  0
    1.3071   -5.7745    3.7806 H   0  0  0  0  0  0  0  0  0  0  0  0
    0.2282   -7.1271    3.2977 H   0  0  0  0  0  0  0  0  0  0  0  0
  1  3  1  0  0  0  0
  1  7  1  0  0  0  0
  1  2  2  0  0  0  0
 28 29  1  0  0  0  0
 29 37  1  0  0  0  0
 29 30  2  0  0  0  0
 18 19  1  0  0  0  0
 19 27  1  0  0  0  0
 19 20  2  0  0  0  0
  8  9  1  0  0  0  0
  9 17  1  0  0  0  0
  9 10  2  0  0  0  0
 28 31  1  0  0  0  0
 18 21  1  0  0  0  0
  8 11  1  0  0  0  0
 37 38  1  0  0  0  0
 27 28  1  0  0  0  0
 17 18  1  0  0  0  0
  7  8  1  0  0  0  0
  3  4  1  0  0  0  0
  3  5  1  0  0  0  0
  3  6  1  0  0  0  0
 31 34  1  0  0  0  0
 31 35  1  0  0  0  0
 31 36  1  0  0  0  0
 21 24  1  0  0  0  0
 21 25  1  0  0  0  0
 21 26  1  0  0  0  0
 11 14  1  0  0  0  0
 11 15  1  0  0  0  0
 11 16  1  0  0  0  0
 38 40  1  0  0  0  0
 38 41  1  0  0  0  0
 38 42  1  0  0  0  0
 28 33  1  0  0  0  0
 18 23  1  0  0  0  0
  8 13  1  0  0  0  0
 37 39  1  0  0  0  0
  7 12  1  0  0  0  0
 27 32  1  0  0  0  0
 17 22  1  0  0  0  0
M  END
$$$$

  -OEChem-05262214473D

 42 41  0     1  0  0  0  0  0999 V2000
   -5.7851   -0.9580    0.6237 C   0  0  0  0  0  0  0  0  0  0  0  0
   -6.2213    0.1296    0.2652 O   0  0  0  0  0  0  0  0  0  0  0  0
   -6.7088   -2.1270    0.7168 C   0  0  0  0  0  0  0  0  0  0  0  0
   -7.1713   -2.2193    1.7126 H   0  0  0  0  0  0  0  0  0  0  0  0
   -7.5511   -2.0547    0.0101 H   0  0  0  0  0  0  0  0  0  0  0  0
   -6.2485   -3.1083    0.5191 H   0  0  0  0  0  0  0  0  0  0  0  0
   -4.4733   -1.2411    0.9668 N   0  0  0  0  0  0  0  0  0  0  0  0
   -3.4203   -0.2603    0.9449 C   0  0  2  0  0  0  0  0  0  0  0  0
   -2.1242   -0.9699    0.5759 C   0  0  0  0  0  0  0  0  0  0  0  0
   -1.8694   -2.1225    0.9189 O   0  0  0  0  0  0  0  0  0  0  0  0
   -3.2916    0.4435    2.2868 C   0  0  0  0  0  0  0  0  0  0  0  0
   -4.2421   -2.1920    1.2489 H   0  0  0  0  0  0  0  0  0  0  0  0
   -3.6772    0.4622    0.1625 H   0  0  0  0  0  0  0  0  0  0  0  0
   -3.0345   -0.2644    3.0832 H   0  0  0  0  0  0  0  0  0  0  0  0
   -2.5093    1.2092    2.2599 H   0  0  0  0  0  0  0  0  0  0  0  0
   -4.2338    0.9283    2.5645 H   0  0  0  0  0  0  0  0  0  0  0  0
   -1.2626   -0.1515   -0.1463 N   0  0  0  0  0  0  0  0  0  0  0  0
    0.0431   -0.5785   -0.5755 C   0  0  2  0  0  0  0  0  0  0  0  0
   -0.0048   -2.0840   -0.8005 C   0  0  0  0  0  0  0  0  0  0  0  0
   -0.5753   -2.6012   -1.7586 O   0  0  0  0  0  0  0  0  0  0  0  0
    1.1080   -0.2154    0.4476 C   0  0  0  0  0  0  0  0  0  0  0  0
   -1.5766    0.7776   -0.4197 H   0  0  0  0  0  0  0  0  0  0  0  0
    0.2446   -0.0728   -1.5262 H   0  0  0  0  0  0  0  0  0  0  0  0
    0.9229   -0.7127    1.4067 H   0  0  0  0  0  0  0  0  0  0  0  0
    2.1045   -0.5153    0.1067 H   0  0  0  0  0  0  0  0  0  0  0  0
    1.1209    0.8646    0.6303 H   0  0  0  0  0  0  0  0  0  0  0  0
    0.6278   -2.7892    0.2175 N   0  0  0  0  0  0  0  0  0  0  0  0
    0.6807   -4.2270    0.2549 C   0  0  2  0  0  0  0  0  0  0  0  0
    0.6698   -4.6601    1.7150 C   0  0  0  0  0  0  0  0  0  0  0  0
    1.2068   -4.0121    2.6110 O   0  0  0  0  0  0  0  0  0  0  0  0
    1.9156   -4.7540   -0.4592 C   0  0  0  0  0  0  0  0  0  0  0  0
    1.1089   -2.2729    0.9514 H   0  0  0  0  0  0  0  0  0  0  0  0
   -0.2261   -4.5899   -0.2411 H   0  0  0  0  0  0  0  0  0  0  0  0
    2.8342   -4.4008    0.0236 H   0  0  0  0  0  0  0  0  0  0  0  0
    1.9397   -5.8487   -0.4546 H   0  0  0  0  0  0  0  0  0  0  0  0
    1.9370   -4.4167   -1.5011 H   0  0  0  0  0  0  0  0  0  0  0  0
    0.0271   -5.8772    1.8935 N   0  0  0  0  0  0  0  0  0  0  0  0
   -0.0785   -6.5215    3.1818 C   0  0  0  0  0  0  0  0  0  0  0  0
   -0.4243   -6.3248    1.1012 H   0  0  0  0  0  0  0  0  0  0  0  0
    0.7634   -7.2169    3.3146 H   0  0  0  0  0  0  0  0  0  0  0  0
   -0.0539   -5.7603    3.9754 H   0  0  0  0  0  0  0  0  0  0  0  0
   -1.0257   -7.0781    3.2367 H   0  0  0  0  0  0  0  0  0  0  0  0
  1  3  1  0  0  0  0
  1  7  1  0  0  0  0
  1  2  2  0  0  0  0
 28 29  1  0  0  0  0
 29 37  1  0  0  0  0
 29 30  2  0  0  0  0
 18 19  1  0  0  0  0
 19 27  1  0  0  0  0
 19 20  2  0  0  0  0
  8  9  1  0  0  0  0
  9 17  1  0  0  0  0
  9 10  2  0  0  0  0
 28 31  1  0  0  0  0
 18 21  1  0  0  0  0
  8 11  1  0  0  0  0
 37 38  1  0  0  0  0
 27 28  1  0  0  0  0
 17 18  1  0  0  0  0
  7  8  1  0  0  0  0
  3  4  1  0  0  0  0
  3  5  1  0  0  0  0
  3  6  1  0  0  0  0
 31 34  1  0  0  0  0
 31 35  1  0  0  0  0
 31 36  1  0  0  0  0
 21 24  1  0  0  0  0
 21 25  1  0  0  0  0
 21 26  1  0  0  0  0
 11 14  1  0  0  0  0
 11 15  1  0  0  0  0
 11 16  1  0  0  0  0
 38 40  1  0  0  0  0
 38 41  1  0  0  0  0
 38 42  1  0  0  0  0
 28 33  1  0  0  0  0
 18 23  1  0  0  0  0
  8 13  1  0  0  0  0
 37 39  1  0  0  0  0
  7 12  1  0  0  0  0
 27 32  1  0  0  0  0
 17 22  1  0  0  0  0
M  END
$$$$

  -OEChem-05262214473D

 42 41  0     1  0  0  0  0  0999 V2000
   -5.7851   -0.9580    0.6237 C   0  0  0  0  0  0  0  0  0  0  0  0
   -6.2213    0.1296    0.2652 O   0  0  0  0  0  0  0  0  0  0  0  0
   -6.7088   -2.1270    0.7168 C   0  0  0  0  0  0  0  0  0  0  0  0
   -7.1713   -2.2193    1.7126 H   0  0  0  0  0  0  0  0  0  0  0  0
   -7.5511   -2.0547    0.0101 H   0  0  0  0  0  0  0  0  0  0  0  0
   -6.2485   -3.1083    0.5191 H   0  0  0  0  0  0  0  0  0  0  0  0
   -4.4733   -1.2411    0.9668 N   0  0  0  0  0  0  0  0  0  0  0  0
   -3.4203   -0.2603    0.9449 C   0  0  2  0  0  0  0  0  0  0  0  0
   -2.1242   -0.9699    0.5759 C   0  0  0  0  0  0  0  0  0  0  0  0
   -1.8694   -2.1225    0.9189 O   0  0  0  0  0  0  0  0  0  0  0  0
   -3.2916    0.4435    2.2868 C   0  0  0  0  0  0  0  0  0  0  0  0
   -4.2421   -2.1920    1.2489 H   0  0  0  0  0  0  0  0  0  0  0  0
   -3.6772    0.4622    0.1625 H   0  0  0  0  0  0  0  0  0  0  0  0
   -3.0345   -0.2644    3.0832 H   0  0  0  0  0  0  0  0  0  0  0  0
   -2.5093    1.2092    2.2599 H   0  0  0  0  0  0  0  0  0  0  0  0
   -4.2338    0.9283    2.5645 H   0  0  0  0  0  0  0  0  0  0  0  0
   -1.2626   -0.1515   -0.1463 N   0  0  0  0  0  0  0  0  0  0  0  0
    0.0431   -0.5785   -0.5755 C   0  0  2  0  0  0  0  0  0  0  0  0
   -0.0048   -2.0840   -0.8005 C   0  0  0  0  0  0  0  0  0  0  0  0
   -0.3312   -2.5922   -1.8711 O   0  0  0  0  0  0  0  0  0  0  0  0
    1.1080   -0.2154    0.4476 C   0  0  0  0  0  0  0  0  0  0  0  0
   -1.5766    0.7776   -0.4197 H   0  0  0  0  0  0  0  0  0  0  0  0
    0.2446   -0.0728   -1.5262 H   0  0  0  0  0  0  0  0  0  0  0  0
    0.9229   -0.7127    1.4067 H   0  0  0  0  0  0  0  0  0  0  0  0
    2.1045   -0.5153    0.1067 H   0  0  0  0  0  0  0  0  0  0  0  0
    1.1209    0.8646    0.6303 H   0  0  0  0  0  0  0  0  0  0  0  0
    0.3182   -2.7988    0.3478 N   0  0  0  0  0  0  0  0  0  0  0  0
    0.3033   -4.2369    0.4020 C   0  0  2  0  0  0  0  0  0  0  0  0
   -0.0976   -4.6502    1.8120 C   0  0  0  0  0  0  0  0  0  0  0  0
    0.2175   -4.0109    2.8135 O   0  0  0  0  0  0  0  0  0  0  0  0
    1.6581   -4.8188    0.0295 C   0  0  0  0  0  0  0  0  0  0  0  0
    0.6156   -2.2912    1.1787 H   0  0  0  0  0  0  0  0  0  0  0  0
   -0.4601   -4.5723   -0.3085 H   0  0  0  0  0  0  0  0  0  0  0  0
    2.4358   -4.4938    0.7302 H   0  0  0  0  0  0  0  0  0  0  0  0
    1.6372   -5.9135    0.0436 H   0  0  0  0  0  0  0  0  0  0  0  0
    1.9584   -4.4963   -0.9733 H   0  0  0  0  0  0  0  0  0  0  0  0
   -0.8118   -5.8401    1.8238 N   0  0  0  0  0  0  0  0  0  0  0  0
   -1.2686   -6.4631    3.0442 C   0  0  0  0  0  0  0  0  0  0  0  0
   -1.0629   -6.2810    0.9439 H   0  0  0  0  0  0  0  0  0  0  0  0
   -0.5166   -7.1875    3.3903 H   0  0  0  0  0  0  0  0  0  0  0  0
   -1.4179   -5.6930    3.8153 H   0  0  0  0  0  0  0  0  0  0  0  0
   -2.2195   -6.9833    2.8565 H   0  0  0  0  0  0  0  0  0  0  0  0
  1  3  1  0  0  0  0
  1  7  1  0  0  0  0
  1  2  2  0  0  0  0
 28 29  1  0  0  0  0
 29 37  1  0  0  0  0
 29 30  2  0  0  0  0
 18 19  1  0  0  0  0
 19 27  1  0  0  0  0
 19 20  2  0  0  0  0
  8  9  1  0  0  0  0
  9 17  1  0  0  0  0
  9 10  2  0  0  0  0
 28 31  1  0  0  0  0
 18 21  1  0  0  0  0
  8 11  1  0  0  0  0
 37 38  1  0  0  0  0
 27 28  1  0  0  0  0
 17 18  1  0  0  0  0
  7  8  1  0  0  0  0
  3  4  1  0  0  0  0
  3  5  1  0  0  0  0
  3  6  1  0  0  0  0
 31 34  1  0  0  0  0
 31 35  1  0  0  0  0
 31 36  1  0  0  0  0
 21 24  1  0  0  0  0
 21 25  1  0  0  0  0
 21 26  1  0  0  0  0
 11 14  1  0  0  0  0
 11 15  1  0  0  0  0
 11 16  1  0  0  0  0
 38 40  1  0  0  0  0
 38 41  1  0  0  0  0
 38 42  1  0  0  0  0
 28 33  1  0  0  0  0
 18 23  1  0  0  0  0
  8 13  1  0  0  0  0
 37 39  1  0  0  0  0
  7 12  1  0  0  0  0
 27 32  1  0  0  0  0
 17 22  1  0  0  0  0
M  END
$$$$

  -OEChem-05262214473D

 42 41  0     1  0  0  0  0  0999 V2000
   -5.7851   -0.9580    0.6237 C   0  0  0  0  0  0  0  0  0  0  0  0
   -6.2213    0.1296    0.2652 O   0  0  0  0  0  0  0  0  0  0  0  0
   -6.7088   -2.1270    0.7168 C   0  0  0  0  0  0  0  0  0  0  0  0
   -7.1713   -2.2193    1.7126 H   0  0  0  0  0  0  0  0  0  0  0  0
   -7.5511   -2.0547    0.0101 H   0  0  0  0  0  0  0  0  0  0  0  0
   -6.2485   -3.1083    0.5191 H   0  0  0  0  0  0  0  0  0  0  0  0
   -4.4733   -1.2411    0.9668 N   0  0  0  0  0  0  0  0  0  0  0  0
   -3.4203   -0.2603    0.9449 C   0  0  2  0  0  0  0  0  0  0  0  0
   -2.1242   -0.9699    0.5759 C   0  0  0  0  0  0  0  0  0  0  0  0
   -1.8694   -2.1225    0.9189 O   0  0  0  0  0  0  0  0  0  0  0  0
   -3.2916    0.4435    2.2868 C   0  0  0  0  0  0  0  0  0  0  0  0
   -4.2421   -2.1920    1.2489 H   0  0  0  0  0  0  0  0  0  0  0  0
   -3.6772    0.4622    0.1625 H   0  0  0  0  0  0  0  0  0  0  0  0
   -3.0345   -0.2644    3.0832 H   0  0  0  0  0  0  0  0  0  0  0  0
   -2.5093    1.2092    2.2599 H   0  0  0  0  0  0  0  0  0  0  0  0
   -4.2338    0.9283    2.5645 H   0  0  0  0  0  0  0  0  0  0  0  0
   -1.2626   -0.1515   -0.1463 N   0  0  0  0  0  0  0  0  0  0  0  0
    0.0431   -0.5785   -0.5755 C   0  0  2  0  0  0  0  0  0  0  0  0
   -0.0048   -2.0840   -0.8005 C   0  0  0  0  0  0  0  0  0  0  0  0
   -0.0663   -2.5937   -1.9174 O   0  0  0  0  0  0  0  0  0  0  0  0
    1.1080   -0.2154    0.4476 C   0  0  0  0  0  0  0  0  0  0  0  0
   -1.5766    0.7776   -0.4197 H   0  0  0  0  0  0  0  0  0  0  0  0
    0.2446   -0.0728   -1.5262 H   0  0  0  0  0  0  0  0  0  0  0  0
    0.9229   -0.7127    1.4067 H   0  0  0  0  0  0  0  0  0  0  0  0
    2.1045   -0.5153    0.1067 H   0  0  0  0  0  0  0  0  0  0  0  0
    1.1209    0.8646    0.6303 H   0  0  0  0  0  0  0  0  0  0  0  0
   -0.0144   -2.7952    0.3944 N   0  0  0  0  0  0  0  0  0  0  0  0
   -0.0992   -4.2310    0.4476 C   0  0  2  0  0  0  0  0  0  0  0  0
   -0.8632   -4.6105    1.7092 C   0  0  0  0  0  0  0  0  0  0  0  0
   -0.7898   -3.9703    2.7561 O   0  0  0  0  0  0  0  0  0  0  0  0
    1.2818   -4.8676    0.4362 C   0  0  0  0  0  0  0  0  0  0  0  0
    0.0803   -2.2881    1.2722 H   0  0  0  0  0  0  0  0  0  0  0  0
   -0.6682   -4.5470   -0.4336 H   0  0  0  0  0  0  0  0  0  0  0  0
    1.8667   -4.5626    1.3116 H   0  0  0  0  0  0  0  0  0  0  0  0
    1.2150   -5.9605    0.4479 H   0  0  0  0  0  0  0  0  0  0  0  0
    1.8409   -4.5697   -0.4573 H   0  0  0  0  0  0  0  0  0  0  0  0
   -1.6030   -5.7728    1.5416 N   0  0  0  0  0  0  0  0  0  0  0  0
   -2.3807   -6.3624    2.6063 C   0  0  0  0  0  0  0  0  0  0  0  0
   -1.6378   -6.2155    0.6281 H   0  0  0  0  0  0  0  0  0  0  0  0
   -1.7713   -7.1096    3.1357 H   0  0  0  0  0  0  0  0  0  0  0  0
   -2.6918   -5.5772    3.3111 H   0  0  0  0  0  0  0  0  0  0  0  0
   -3.2716   -6.8493    2.1831 H   0  0  0  0  0  0  0  0  0  0  0  0
  1  3  1  0  0  0  0
  1  7  1  0  0  0  0
  1  2  2  0  0  0  0
 28 29  1  0  0  0  0
 29 37  1  0  0  0  0
 29 30  2  0  0  0  0
 18 19  1  0  0  0  0
 19 27  1  0  0  0  0
 19 20  2  0  0  0  0
  8  9  1  0  0  0  0
  9 17  1  0  0  0  0
  9 10  2  0  0  0  0
 28 31  1  0  0  0  0
 18 21  1  0  0  0  0
  8 11  1  0  0  0  0
 37 38  1  0  0  0  0
 27 28  1  0  0  0  0
 17 18  1  0  0  0  0
  7  8  1  0  0  0  0
  3  4  1  0  0  0  0
  3  5  1  0  0  0  0
  3  6  1  0  0  0  0
 31 34  1  0  0  0  0
 31 35  1  0  0  0  0
 31 36  1  0  0  0  0
 21 24  1  0  0  0  0
 21 25  1  0  0  0  0
 21 26  1  0  0  0  0
 11 14  1  0  0  0  0
 11 15  1  0  0  0  0
 11 16  1  0  0  0  0
 38 40  1  0  0  0  0
 38 41  1  0  0  0  0
 38 42  1  0  0  0  0
 28 33  1  0  0  0  0
 18 23  1  0  0  0  0
  8 13  1  0  0  0  0
 37 39  1  0  0  0  0
  7 12  1  0  0  0  0
 27 32  1  0  0  0  0
 17 22  1  0  0  0  0
M  END
$$$$

  -OEChem-05262214473D

 42 41  0     1  0  0  0  0  0999 V2000
   -5.7851   -0.9580    0.6237 C   0  0  0  0  0  0  0  0  0  0  0  0
   -6.2213    0.1296    0.2652 O   0  0  0  0  0  0  0  0  0  0  0  0
   -6.7088   -2.1270    0.7168 C   0  0  0  0  0  0  0  0  0  0  0  0
   -7.1713   -2.2193    1.7126 H   0  0  0  0  0  0  0  0  0  0  0  0
   -7.5511   -2.0547    0.0101 H   0  0  0  0  0  0  0  0  0  0  0  0
   -6.2485   -3.1083    0.5191 H   0  0  0  0  0  0  0  0  0  0  0  0
   -4.4733   -1.2411    0.9668 N   0  0  0  0  0  0  0  0  0  0  0  0
   -3.4203   -0.2603    0.9449 C   0  0  2  0  0  0  0  0  0  0  0  0
   -2.1242   -0.9699    0.5759 C   0  0  0  0  0  0  0  0  0  0  0  0
   -1.8694   -2.1225    0.9189 O   0  0  0  0  0  0  0  0  0  0  0  0
   -3.2916    0.4435    2.2868 C   0  0  0  0  0  0  0  0  0  0  0  0
   -4.2421   -2.1920    1.2489 H   0  0  0  0  0  0  0  0  0  0  0  0
   -3.6772    0.4622    0.1625 H   0  0  0  0  0  0  0  0  0  0  0  0
   -3.0345   -0.2644    3.0832 H   0  0  0  0  0  0  0  0  0  0  0  0
   -2.5093    1.2092    2.2599 H   0  0  0  0  0  0  0  0  0  0  0  0
   -4.2338    0.9283    2.5645 H   0  0  0  0  0  0  0  0  0  0  0  0
   -1.2626   -0.1515   -0.1463 N   0  0  0  0  0  0  0  0  0  0  0  0
    0.0431   -0.5785   -0.5755 C   0  0  2  0  0  0  0  0  0  0  0  0
   -0.0048   -2.0840   -0.8005 C   0  0  0  0  0  0  0  0  0  0  0  0
    0.2014   -2.6056   -1.8943 O   0  0  0  0  0  0  0  0  0  0  0  0
    1.1080   -0.2154    0.4476 C   0  0  0  0  0  0  0  0  0  0  0  0
   -1.5766    0.7776   -0.4197 H   0  0  0  0  0  0  0  0  0  0  0  0
    0.2446   -0.0728   -1.5262 H   0  0  0  0  0  0  0  0  0  0  0  0
    0.9229   -0.7127    1.4067 H   0  0  0  0  0  0  0  0  0  0  0  0
    2.1045   -0.5153    0.1067 H   0  0  0  0  0  0  0  0  0  0  0  0
    1.1209    0.8646    0.6303 H   0  0  0  0  0  0  0  0  0  0  0  0
   -0.3476   -2.7786    0.3544 N   0  0  0  0  0  0  0  0  0  0  0  0
   -0.4995   -4.2094    0.3886 C   0  0  2  0  0  0  0  0  0  0  0  0
   -1.5750   -4.5438    1.4138 C   0  0  0  0  0  0  0  0  0  0  0  0
   -1.7466   -3.8930    2.4425 O   0  0  0  0  0  0  0  0  0  0  0  0
    0.8124   -4.8971    0.7332 C   0  0  0  0  0  0  0  0  0  0  0  0
   -0.4606   -2.2639    1.2255 H   0  0  0  0  0  0  0  0  0  0  0  0
   -0.8362   -4.5156   -0.6078 H   0  0  0  0  0  0  0  0  0  0  0  0
    1.1655   -4.6025    1.7282 H   0  0  0  0  0  0  0  0  0  0  0  0
    0.7019   -5.9865    0.7308 H   0  0  0  0  0  0  0  0  0  0  0  0
    1.5927   -4.6318    0.0116 H   0  0  0  0  0  0  0  0  0  0  0  0
   -2.2924   -5.6798    1.0660 N   0  0  0  0  0  0  0  0  0  0  0  0
   -3.3390   -6.2260    1.8980 C   0  0  0  0  0  0  0  0  0  0  0  0
   -2.1098   -6.1329    0.1754 H   0  0  0  0  0  0  0  0  0  0  0  0
   -2.9151   -6.9884    2.5682 H   0  0  0  0  0  0  0  0  0  0  0  0
   -3.7889   -5.4207    2.4972 H   0  0  0  0  0  0  0  0  0  0  0  0
   -4.1106   -6.6850    1.2624 H   0  0  0  0  0  0  0  0  0  0  0  0
  1  3  1  0  0  0  0
  1  7  1  0  0  0  0
  1  2  2  0  0  0  0
 28 29  1  0  0  0  0
 29 37  1  0  0  0  0
 29 30  2  0  0  0  0
 18 19  1  0  0  0  0
 19 27  1  0  0  0  0
 19 20  2  0  0  0  0
  8  9  1  0  0  0  0
  9 17  1  0  0  0  0
  9 10  2  0  0  0  0
 28 31  1  0  0  0  0
 18 21  1  0  0  0  0
  8 11  1  0  0  0  0
 37 38  1  0  0  0  0
 27 28  1  0  0  0  0
 17 18  1  0  0  0  0
  7  8  1  0  0  0  0
  3  4  1  0  0  0  0
  3  5  1  0  0  0  0
  3  6  1  0  0  0  0
 31 34  1  0  0  0  0
 31 35  1  0  0  0  0
 31 36  1  0  0  0  0
 21 24  1  0  0  0  0
 21 25  1  0  0  0  0
 21 26  1  0  0  0  0
 11 14  1  0  0  0  0
 11 15  1  0  0  0  0
 11 16  1  0  0  0  0
 38 40  1  0  0  0  0
 38 41  1  0  0  0  0
 38 42  1  0  0  0  0
 28 33  1  0  0  0  0
 18 23  1  0  0  0  0
  8 13  1  0  0  0  0
 37 39  1  0  0  0  0
  7 12  1  0  0  0  0
 27 32  1  0  0  0  0
 17 22  1  0  0  0  0
M  END
$$$$

  -OEChem-05262214473D

 42 41  0     1  0  0  0  0  0999 V2000
   -5.7851   -0.9580    0.6237 C   0  0  0  0  0  0  0  0  0  0  0  0
   -6.2213    0.1296    0.2652 O   0  0  0  0  0  0  0  0  0  0  0  0
   -6.7088   -2.1270    0.7168 C   0  0  0  0  0  0  0  0  0  0  0  0
   -7.1713   -2.2193    1.7126 H   0  0  0  0  0  0  0  0  0  0  0  0
   -7.5511   -2.0547    0.0101 H   0  0  0  0  0  0  0  0  0  0  0  0
   -6.2485   -3.1083    0.5191 H   0  0  0  0  0  0  0  0  0  0  0  0
   -4.4733   -1.2411    0.9668 N   0  0  0  0  0  0  0  0  0  0  0  0
   -3.4203   -0.2603    0.9449 C   0  0  2  0  0  0  0  0  0  0  0  0
   -2.1242   -0.9699    0.5759 C   0  0  0  0  0  0  0  0  0  0  0  0
   -1.8694   -2.1225    0.9189 O   0  0  0  0  0  0  0  0  0  0  0  0
   -3.2916    0.4435    2.2868 C   0  0  0  0  0  0  0  0  0  0  0  0
   -4.2421   -2.1920    1.2489 H   0  0  0  0  0  0  0  0  0  0  0  0
   -3.6772    0.4622    0.1625 H   0  0  0  0  0  0  0  0  0  0  0  0
   -3.0345   -0.2644    3.0832 H   0  0  0  0  0  0  0  0  0  0  0  0
   -2.5093    1.2092    2.2599 H   0  0  0  0  0  0  0  0  0  0  0  0
   -4.2338    0.9283    2.5645 H   0  0  0  0  0  0  0  0  0  0  0  0
   -1.2626   -0.1515   -0.1463 N   0  0  0  0  0  0  0  0  0  0  0  0
    0.0431   -0.5785   -0.5755 C   0  0  2  0  0  0  0  0  0  0  0  0
   -0.0048   -2.0840   -0.8005 C   0  0  0  0  0  0  0  0  0  0  0  0
    0.4535   -2.6272   -1.8034 O   0  0  0  0  0  0  0  0  0  0  0  0
    1.1080   -0.2154    0.4476 C   0  0  0  0  0  0  0  0  0  0  0  0
   -1.5766    0.7776   -0.4197 H   0  0  0  0  0  0  0  0  0  0  0  0
    0.2446   -0.0728   -1.5262 H   0  0  0  0  0  0  0  0  0  0  0  0
    0.9229   -0.7127    1.4067 H   0  0  0  0  0  0  0  0  0  0  0  0
    2.1045   -0.5153    0.1067 H   0  0  0  0  0  0  0  0  0  0  0  0
    1.1209    0.8646    0.6303 H   0  0  0  0  0  0  0  0  0  0  0  0
   -0.6585   -2.7502    0.2303 N   0  0  0  0  0  0  0  0  0  0  0  0
   -0.8702   -4.1738    0.2290 C   0  0  2  0  0  0  0  0  0  0  0  0
   -2.1844   -4.4544    0.9458 C   0  0  0  0  0  0  0  0  0  0  0  0
   -2.5876   -3.7844    1.8942 O   0  0  0  0  0  0  0  0  0  0  0  0
    0.2819   -4.9051    0.9001 C   0  0  0  0  0  0  0  0  0  0  0  0
   -0.9702   -2.2203    1.0419 H   0  0  0  0  0  0  0  0  0  0  0  0
   -0.9527   -4.4803   -0.8194 H   0  0  0  0  0  0  0  0  0  0  0  0
    0.3802   -4.6109    1.9514 H   0  0  0  0  0  0  0  0  0  0  0  0
    0.1330   -5.9896    0.8730 H   0  0  0  0  0  0  0  0  0  0  0  0
    1.2306   -4.6786    0.4016 H   0  0  0  0  0  0  0  0  0  0  0  0
   -2.8330   -5.5675    0.4295 N   0  0  0  0  0  0  0  0  0  0  0  0
   -4.0782   -6.0635    0.9676 C   0  0  0  0  0  0  0  0  0  0  0  0
   -2.4468   -6.0387   -0.3832 H   0  0  0  0  0  0  0  0  0  0  0  0
   -3.8700   -6.8322    1.7263 H   0  0  0  0  0  0  0  0  0  0  0  0
   -4.6343   -5.2342    1.4290 H   0  0  0  0  0  0  0  0  0  0  0  0
   -4.6790   -6.5017    0.1570 H   0  0  0  0  0  0  0  0  0  0  0  0
  1  3  1  0  0  0  0
  1  7  1  0  0  0  0
  1  2  2  0  0  0  0
 28 29  1  0  0  0  0
 29 37  1  0  0  0  0
 29 30  2  0  0  0  0
 18 19  1  0  0  0  0
 19 27  1  0  0  0  0
 19 20  2  0  0  0  0
  8  9  1  0  0  0  0
  9 17  1  0  0  0  0
  9 10  2  0  0  0  0
 28 31  1  0  0  0  0
 18 21  1  0  0  0  0
  8 11  1  0  0  0  0
 37 38  1  0  0  0  0
 27 28  1  0  0  0  0
 17 18  1  0  0  0  0
  7  8  1  0  0  0  0
  3  4  1  0  0  0  0
  3  5  1  0  0  0  0
  3  6  1  0  0  0  0
 31 34  1  0  0  0  0
 31 35  1  0  0  0  0
 31 36  1  0  0  0  0
 21 24  1  0  0  0  0
 21 25  1  0  0  0  0
 21 26  1  0  0  0  0
 11 14  1  0  0  0  0
 11 15  1  0  0  0  0
 11 16  1  0  0  0  0
 38 40  1  0  0  0  0
 38 41  1  0  0  0  0
 38 42  1  0  0  0  0
 28 33  1  0  0  0  0
 18 23  1  0  0  0  0
  8 13  1  0  0  0  0
 37 39  1  0  0  0  0
  7 12  1  0  0  0  0
 27 32  1  0  0  0  0
 17 22  1  0  0  0  0
M  END
$$$$

  -OEChem-05262214473D

 42 41  0     1  0  0  0  0  0999 V2000
   -5.7851   -0.9580    0.6237 C   0  0  0  0  0  0  0  0  0  0  0  0
   -6.2213    0.1296    0.2652 O   0  0  0  0  0  0  0  0  0  0  0  0
   -6.7088   -2.1270    0.7168 C   0  0  0  0  0  0  0  0  0  0  0  0
   -7.1713   -2.2193    1.7126 H   0  0  0  0  0  0  0  0  0  0  0  0
   -7.5511   -2.0547    0.0101 H   0  0  0  0  0  0  0  0  0  0  0  0
   -6.2485   -3.1083    0.5191 H   0  0  0  0  0  0  0  0  0  0  0  0
   -4.4733   -1.2411    0.9668 N   0  0  0  0  0  0  0  0  0  0  0  0
   -3.4203   -0.2603    0.9449 C   0  0  2  0  0  0  0  0  0  0  0  0
   -2.1242   -0.9699    0.5759 C   0  0  0  0  0  0  0  0  0  0  0  0
   -1.8694   -2.1225    0.9189 O   0  0  0  0  0  0  0  0  0  0  0  0
   -3.2916    0.4435    2.2868 C   0  0  0  0  0  0  0  0  0  0  0  0
   -4.2421   -2.1920    1.2489 H   0  0  0  0  0  0  0  0  0  0  0  0
   -3.6772    0.4622    0.1625 H   0  0  0  0  0  0  0  0  0  0  0  0
   -3.0345   -0.2644    3.0832 H   0  0  0  0  0  0  0  0  0  0  0  0
   -2.5093    1.2092    2.2599 H   0  0  0  0  0  0  0  0  0  0  0  0
   -4.2338    0.9283    2.5645 H   0  0  0  0  0  0  0  0  0  0  0  0
   -1.2626   -0.1515   -0.1463 N   0  0  0  0  0  0  0  0  0  0  0  0
    0.0431   -0.5785   -0.5755 C   0  0  2  0  0  0  0  0  0  0  0  0
   -0.0048   -2.0840   -0.8005 C   0  0  0  0  0  0  0  0  0  0  0  0
    0.6730   -2.6570   -1.6510 O   0  0  0  0  0  0  0  0  0  0  0  0
    1.1080   -0.2154    0.4476 C   0  0  0  0  0  0  0  0  0  0  0  0
   -1.5766    0.7776   -0.4197 H   0  0  0  0  0  0  0  0  0  0  0  0
    0.2446   -0.0728   -1.5262 H   0  0  0  0  0  0  0  0  0  0  0  0
    0.9229   -0.7127    1.4067 H   0  0  0  0  0  0  0  0  0  0  0  0
    2.1045   -0.5153    0.1067 H   0  0  0  0  0  0  0  0  0  0  0  0
    1.1209    0.8646    0.6303 H   0  0  0  0  0  0  0  0  0  0  0  0
   -0.9260   -2.7119    0.0307 N   0  0  0  0  0  0  0  0  0  0  0  0
   -1.1861   -4.1265   -0.0203 C   0  0  2  0  0  0  0  0  0  0  0  0
   -2.6498   -4.3487    0.3370 C   0  0  0  0  0  0  0  0  0  0  0  0
   -3.2555   -3.6517    1.1485 O   0  0  0  0  0  0  0  0  0  0  0  0
   -0.2735   -4.8913    0.9257 C   0  0  0  0  0  0  0  0  0  0  0  0
   -1.4137   -2.1602    0.7337 H   0  0  0  0  0  0  0  0  0  0  0  0
   -1.0097   -4.4435   -1.0539 H   0  0  0  0  0  0  0  0  0  0  0  0
   -0.4359   -4.5872    1.9662 H   0  0  0  0  0  0  0  0  0  0  0  0
   -0.4530   -5.9698    0.8648 H   0  0  0  0  0  0  0  0  0  0  0  0
    0.7792   -4.7067    0.6860 H   0  0  0  0  0  0  0  0  0  0  0  0
   -3.1881   -5.4435   -0.3245 N   0  0  0  0  0  0  0  0  0  0  0  0
   -4.5480   -5.8858   -0.1216 C   0  0  0  0  0  0  0  0  0  0  0  0
   -2.6257   -5.9394   -1.0098 H   0  0  0  0  0  0  0  0  0  0  0  0
   -4.5711   -6.6517    0.6676 H   0  0  0  0  0  0  0  0  0  0  0  0
   -5.1706   -5.0304    0.1795 H   0  0  0  0  0  0  0  0  0  0  0  0
   -4.9383   -6.3120   -1.0576 H   0  0  0  0  0  0  0  0  0  0  0  0
  1  3  1  0  0  0  0
  1  7  1  0  0  0  0
  1  2  2  0  0  0  0
 28 29  1  0  0  0  0
 29 37  1  0  0  0  0
 29 30  2  0  0  0  0
 18 19  1  0  0  0  0
 19 27  1  0  0  0  0
 19 20  2  0  0  0  0
  8  9  1  0  0  0  0
  9 17  1  0  0  0  0
  9 10  2  0  0  0  0
 28 31  1  0  0  0  0
 18 21  1  0  0  0  0
  8 11  1  0  0  0  0
 37 38  1  0  0  0  0
 27 28  1  0  0  0  0
 17 18  1  0  0  0  0
  7  8  1  0  0  0  0
  3  4  1  0  0  0  0
  3  5  1  0  0  0  0
  3  6  1  0  0  0  0
 31 34  1  0  0  0  0
 31 35  1  0  0  0  0
 31 36  1  0  0  0  0
 21 24  1  0  0  0  0
 21 25  1  0  0  0  0
 21 26  1  0  0  0  0
 11 14  1  0  0  0  0
 11 15  1  0  0  0  0
 11 16  1  0  0  0  0
 38 40  1  0  0  0  0
 38 41  1  0  0  0  0
 38 42  1  0  0  0  0
 28 33  1  0  0  0  0
 18 23  1  0  0  0  0
  8 13  1  0  0  0  0
 37 39  1  0  0  0  0
  7 12  1  0  0  0  0
 27 32  1  0  0  0  0
 17 22  1  0  0  0  0
M  END
$$$$

  -OEChem-05262214473D

 42 41  0     1  0  0  0  0  0999 V2000
   -5.7851   -0.9580    0.6237 C   0  0  0  0  0  0  0  0  0  0  0  0
   -6.2213    0.1296    0.2652 O   0  0  0  0  0  0  0  0  0  0  0  0
   -6.7088   -2.1270    0.7168 C   0  0  0  0  0  0  0  0  0  0  0  0
   -7.1713   -2.2193    1.7126 H   0  0  0  0  0  0  0  0  0  0  0  0
   -7.5511   -2.0547    0.0101 H   0  0  0  0  0  0  0  0  0  0  0  0
   -6.2485   -3.1083    0.5191 H   0  0  0  0  0  0  0  0  0  0  0  0
   -4.4733   -1.2411    0.9668 N   0  0  0  0  0  0  0  0  0  0  0  0
   -3.4203   -0.2603    0.9449 C   0  0  2  0  0  0  0  0  0  0  0  0
   -2.1242   -0.9699    0.5759 C   0  0  0  0  0  0  0  0  0  0  0  0
   -1.8694   -2.1225    0.9189 O   0  0  0  0  0  0  0  0  0  0  0  0
   -3.2916    0.4435    2.2868 C   0  0  0  0  0  0  0  0  0  0  0  0
   -4.2421   -2.1920    1.2489 H   0  0  0  0  0  0  0  0  0  0  0  0
   -3.6772    0.4622    0.1625 H   0  0  0  0  0  0  0  0  0  0  0  0
   -3.0345   -0.2644    3.0832 H   0  0  0  0  0  0  0  0  0  0  0  0
   -2.5093    1.2092    2.2599 H   0  0  0  0  0  0  0  0  0  0  0  0
   -4.2338    0.9283    2.5645 H   0  0  0  0  0  0  0  0  0  0  0  0
   -1.2626   -0.1515   -0.1463 N   0  0  0  0  0  0  0  0  0  0  0  0
    0.0431   -0.5785   -0.5755 C   0  0  2  0  0  0  0  0  0  0  0  0
   -0.0048   -2.0840   -0.8005 C   0  0  0  0  0  0  0  0  0  0  0  0
    0.8449   -2.6929   -1.4473 O   0  0  0  0  0  0  0  0  0  0  0  0
    1.1080   -0.2154    0.4476 C   0  0  0  0  0  0  0  0  0  0  0  0
   -1.5766    0.7776   -0.4197 H   0  0  0  0  0  0  0  0  0  0  0  0
    0.2446   -0.0728   -1.5262 H   0  0  0  0  0  0  0  0  0  0  0  0
    0.9229   -0.7127    1.4067 H   0  0  0  0  0  0  0  0  0  0  0  0
    2.1045   -0.5153    0.1067 H   0  0  0  0  0  0  0  0  0  0  0  0
    1.1209    0.8646    0.6303 H   0  0  0  0  0  0  0  0  0  0  0  0
   -1.1318   -2.6662   -0.2309 N   0  0  0  0  0  0  0  0  0  0  0  0
   -1.4256   -4.0708   -0.3422 C   0  0  2  0  0  0  0  0  0  0  0  0
   -2.9396   -4.2337   -0.3709 C   0  0  0  0  0  0  0  0  0  0  0  0
   -3.7048   -3.5041    0.2563 O   0  0  0  0  0  0  0  0  0  0  0  0
   -0.8161   -4.8565    0.8083 C   0  0  0  0  0  0  0  0  0  0  0  0
   -1.7610   -2.0876    0.3221 H   0  0  0  0  0  0  0  0  0  0  0  0
   -1.0034   -4.4076   -1.2953 H   0  0  0  0  0  0  0  0  0  0  0  0
   -1.2270   -4.5329    1.7716 H   0  0  0  0  0  0  0  0  0  0  0  0
   -1.0163   -5.9283    0.7068 H   0  0  0  0  0  0  0  0  0  0  0  0
    0.2694   -4.7144    0.8454 H   0  0  0  0  0  0  0  0  0  0  0  0
   -3.3335   -5.3163   -1.1447 N   0  0  0  0  0  0  0  0  0  0  0  0
   -4.7163   -5.7051   -1.2953 C   0  0  0  0  0  0  0  0  0  0  0  0
   -2.6345   -5.8417   -1.6616 H   0  0  0  0  0  0  0  0  0  0  0  0
   -4.9705   -6.4592   -0.5360 H   0  0  0  0  0  0  0  0  0  0  0  0
   -5.3611   -4.8232   -1.1664 H   0  0  0  0  0  0  0  0  0  0  0  0
   -4.8708   -6.1287   -2.2987 H   0  0  0  0  0  0  0  0  0  0  0  0
  1  3  1  0  0  0  0
  1  7  1  0  0  0  0
  1  2  2  0  0  0  0
 28 29  1  0  0  0  0
 29 37  1  0  0  0  0
 29 30  2  0  0  0  0
 18 19  1  0  0  0  0
 19 27  1  0  0  0  0
 19 20  2  0  0  0  0
  8  9  1  0  0  0  0
  9 17  1  0  0  0  0
  9 10  2  0  0  0  0
 28 31  1  0  0  0  0
 18 21  1  0  0  0  0
  8 11  1  0  0  0  0
 37 38  1  0  0  0  0
 27 28  1  0  0  0  0
 17 18  1  0  0  0  0
  7  8  1  0  0  0  0
  3  4  1  0  0  0  0
  3  5  1  0  0  0  0
  3  6  1  0  0  0  0
 31 34  1  0  0  0  0
 31 35  1  0  0  0  0
 31 36  1  0  0  0  0
 21 24  1  0  0  0  0
 21 25  1  0  0  0  0
 21 26  1  0  0  0  0
 11 14  1  0  0  0  0
 11 15  1  0  0  0  0
 11 16  1  0  0  0  0
 38 40  1  0  0  0  0
 38 41  1  0  0  0  0
 38 42  1  0  0  0  0
 28 33  1  0  0  0  0
 18 23  1  0  0  0  0
  8 13  1  0  0  0  0
 37 39  1  0  0  0  0
  7 12  1  0  0  0  0
 27 32  1  0  0  0  0
 17 22  1  0  0  0  0
M  END
$$$$

  -OEChem-05262214473D

 42 41  0     1  0  0  0  0  0999 V2000
   -5.7851   -0.9580    0.6237 C   0  0  0  0  0  0  0  0  0  0  0  0
   -6.2213    0.1296    0.2652 O   0  0  0  0  0  0  0  0  0  0  0  0
   -6.7088   -2.1270    0.7168 C   0  0  0  0  0  0  0  0  0  0  0  0
   -7.1713   -2.2193    1.7126 H   0  0  0  0  0  0  0  0  0  0  0  0
   -7.5511   -2.0547    0.0101 H   0  0  0  0  0  0  0  0  0  0  0  0
   -6.2485   -3.1083    0.5191 H   0  0  0  0  0  0  0  0  0  0  0  0
   -4.4733   -1.2411    0.9668 N   0  0  0  0  0  0  0  0  0  0  0  0
   -3.4203   -0.2603    0.9449 C   0  0  2  0  0  0  0  0  0  0  0  0
   -2.1242   -0.9699    0.5759 C   0  0  0  0  0  0  0  0  0  0  0  0
   -1.8694   -2.1225    0.9189 O   0  0  0  0  0  0  0  0  0  0  0  0
   -3.2916    0.4435    2.2868 C   0  0  0  0  0  0  0  0  0  0  0  0
   -4.2421   -2.1920    1.2489 H   0  0  0  0  0  0  0  0  0  0  0  0
   -3.6772    0.4622    0.1625 H   0  0  0  0  0  0  0  0  0  0  0  0
   -3.0345   -0.2644    3.0832 H   0  0  0  0  0  0  0  0  0  0  0  0
   -2.5093    1.2092    2.2599 H   0  0  0  0  0  0  0  0  0  0  0  0
   -4.2338    0.9283    2.5645 H   0  0  0  0  0  0  0  0  0  0  0  0
   -1.2626   -0.1515   -0.1463 N   0  0  0  0  0  0  0  0  0  0  0  0
    0.0431   -0.5785   -0.5755 C   0  0  2  0  0  0  0  0  0  0  0  0
   -0.0048   -2.0840   -0.8005 C   0  0  0  0  0  0  0  0  0  0  0  0
    0.9574   -2.7325   -1.2063 O   0  0  0  0  0  0  0  0  0  0  0  0
    1.1080   -0.2154    0.4476 C   0  0  0  0  0  0  0  0  0  0  0  0
   -1.5766    0.7776   -0.4197 H   0  0  0  0  0  0  0  0  0  0  0  0
    0.2446   -0.0728   -1.5262 H   0  0  0  0  0  0  0  0  0  0  0  0
    0.9229   -0.7127    1.4067 H   0  0  0  0  0  0  0  0  0  0  0  0
    2.1045   -0.5153    0.1067 H   0  0  0  0  0  0  0  0  0  0  0  0
    1.1209    0.8646    0.6303 H   0  0  0  0  0  0  0  0  0  0  0  0
   -1.2620   -2.6164   -0.5366 N   0  0  0  0  0  0  0  0  0  0  0  0
   -1.5725   -4.0104   -0.7150 C   0  0  2  0  0  0  0  0  0  0  0  0
   -3.0340   -4.1173   -1.1298 C   0  0  0  0  0  0  0  0  0  0  0  0
   -3.9048   -3.3516   -0.7217 O   0  0  0  0  0  0  0  0  0  0  0  0
   -1.3087   -4.8031    0.5557 C   0  0  0  0  0  0  0  0  0  0  0  0
   -1.9885   -2.0076   -0.1649 H   0  0  0  0  0  0  0  0  0  0  0  0
   -0.9342   -4.3752   -1.5271 H   0  0  0  0  0  0  0  0  0  0  0  0
   -1.9393   -4.4519    1.3807 H   0  0  0  0  0  0  0  0  0  0  0  0
   -1.5183   -5.8679    0.4098 H   0  0  0  0  0  0  0  0  0  0  0  0
   -0.2641   -4.7009    0.8690 H   0  0  0  0  0  0  0  0  0  0  0  0
   -3.2591   -5.1946   -1.9752 N   0  0  0  0  0  0  0  0  0  0  0  0
   -4.5717   -5.5336   -2.4736 C   0  0  0  0  0  0  0  0  0  0  0  0
   -2.4724   -5.7523   -2.2943 H   0  0  0  0  0  0  0  0  0  0  0  0
   -5.0410   -6.2677   -1.8022 H   0  0  0  0  0  0  0  0  0  0  0  0
   -5.1928   -4.6268   -2.5168 H   0  0  0  0  0  0  0  0  0  0  0  0
   -4.4810   -5.9643   -3.4817 H   0  0  0  0  0  0  0  0  0  0  0  0
  1  3  1  0  0  0  0
  1  7  1  0  0  0  0
  1  2  2  0  0  0  0
 28 29  1  0  0  0  0
 29 37  1  0  0  0  0
 29 30  2  0  0  0  0
 18 19  1  0  0  0  0
 19 27  1  0  0  0  0
 19 20  2  0  0  0  0
  8  9  1  0  0  0  0
  9 17  1  0  0  0  0
  9 10  2  0  0  0  0
 28 31  1  0  0  0  0
 18 21  1  0  0  0  0
  8 11  1  0  0  0  0
 37 38  1  0  0  0  0
 27 28  1  0  0  0  0
 17 18  1  0  0  0  0
  7  8  1  0  0  0  0
  3  4  1  0  0  0  0
  3  5  1  0  0  0  0
  3  6  1  0  0  0  0
 31 34  1  0  0  0  0
 31 35  1  0  0  0  0
 31 36  1  0  0  0  0
 21 24  1  0  0  0  0
 21 25  1  0  0  0  0
 21 26  1  0  0  0  0
 11 14  1  0  0  0  0
 11 15  1  0  0  0  0
 11 16  1  0  0  0  0
 38 40  1  0  0  0  0
 38 41  1  0  0  0  0
 38 42  1  0  0  0  0
 28 33  1  0  0  0  0
 18 23  1  0  0  0  0
  8 13  1  0  0  0  0
 37 39  1  0  0  0  0
  7 12  1  0  0  0  0
 27 32  1  0  0  0  0
 17 22  1  0  0  0  0
M  END
$$$$

  -OEChem-05262214473D

 42 41  0     1  0  0  0  0  0999 V2000
   -5.7851   -0.9580    0.6237 C   0  0  0  0  0  0  0  0  0  0  0  0
   -6.2213    0.1296    0.2652 O   0  0  0  0  0  0  0  0  0  0  0  0
   -6.7088   -2.1270    0.7168 C   0  0  0  0  0  0  0  0  0  0  0  0
   -7.1713   -2.2193    1.7126 H   0  0  0  0  0  0  0  0  0  0  0  0
   -7.5511   -2.0547    0.0101 H   0  0  0  0  0  0  0  0  0  0  0  0
   -6.2485   -3.1083    0.5191 H   0  0  0  0  0  0  0  0  0  0  0  0
   -4.4733   -1.2411    0.9668 N   0  0  0  0  0  0  0  0  0  0  0  0
   -3.4203   -0.2603    0.9449 C   0  0  2  0  0  0  0  0  0  0  0  0
   -2.1242   -0.9699    0.5759 C   0  0  0  0  0  0  0  0  0  0  0  0
   -1.8694   -2.1225    0.9189 O   0  0  0  0  0  0  0  0  0  0  0  0
   -3.2916    0.4435    2.2868 C   0  0  0  0  0  0  0  0  0  0  0  0
   -4.2421   -2.1920    1.2489 H   0  0  0  0  0  0  0  0  0  0  0  0
   -3.6772    0.4622    0.1625 H   0  0  0  0  0  0  0  0  0  0  0  0
   -3.0345   -0.2644    3.0832 H   0  0  0  0  0  0  0  0  0  0  0  0
   -2.5093    1.2092    2.2599 H   0  0  0  0  0  0  0  0  0  0  0  0
   -4.2338    0.9283    2.5645 H   0  0  0  0  0  0  0  0  0  0  0  0
   -1.2626   -0.1515   -0.1463 N   0  0  0  0  0  0  0  0  0  0  0  0
    0.0431   -0.5785   -0.5755 C   0  0  2  0  0  0  0  0  0  0  0  0
   -0.0048   -2.0840   -0.8005 C   0  0  0  0  0  0  0  0  0  0  0  0
    1.0030   -2.7731   -0.9444 O   0  0  0  0  0  0  0  0  0  0  0  0
    1.1080   -0.2154    0.4476 C   0  0  0  0  0  0  0  0  0  0  0  0
   -1.5766    0.7776   -0.4197 H   0  0  0  0  0  0  0  0  0  0  0  0
    0.2446   -0.0728   -1.5262 H   0  0  0  0  0  0  0  0  0  0  0  0
    0.9229   -0.7127    1.4067 H   0  0  0  0  0  0  0  0  0  0  0  0
    2.1045   -0.5153    0.1067 H   0  0  0  0  0  0  0  0  0  0  0  0
    1.1209    0.8646    0.6303 H   0  0  0  0  0  0  0  0  0  0  0  0
   -1.3076   -2.5658   -0.8655 N   0  0  0  0  0  0  0  0  0  0  0  0
   -1.6167   -3.9495   -1.1131 C   0  0  2  0  0  0  0  0  0  0  0  0
   -2.9266   -4.0074   -1.8879 C   0  0  0  0  0  0  0  0  0  0  0  0
   -3.8420   -3.2046   -1.7188 O   0  0  0  0  0  0  0  0  0  0  0  0
   -1.7180   -4.7347    0.1853 C   0  0  0  0  0  0  0  0  0  0  0  0
   -2.0804   -1.9256   -0.6942 H   0  0  0  0  0  0  0  0  0  0  0  0
   -0.8068   -4.3484   -1.7336 H   0  0  0  0  0  0  0  0  0  0  0  0
   -2.5241   -4.3495    0.8202 H   0  0  0  0  0  0  0  0  0  0  0  0
   -1.9249   -5.7928   -0.0061 H   0  0  0  0  0  0  0  0  0  0  0  0
   -0.7850   -4.6674    0.7553 H   0  0  0  0  0  0  0  0  0  0  0  0
   -2.9702   -5.0866   -2.7594 N   0  0  0  0  0  0  0  0  0  0  0  0
   -4.1239   -5.3831   -3.5761 C   0  0  0  0  0  0  0  0  0  0  0  0
   -2.1506   -5.6773   -2.8647 H   0  0  0  0  0  0  0  0  0  0  0  0
   -4.7778   -6.0904   -3.0450 H   0  0  0  0  0  0  0  0  0  0  0  0
   -4.6773   -4.4544   -3.7798 H   0  0  0  0  0  0  0  0  0  0  0  0
   -3.7955   -5.8300   -4.5260 H   0  0  0  0  0  0  0  0  0  0  0  0
  1  3  1  0  0  0  0
  1  7  1  0  0  0  0
  1  2  2  0  0  0  0
 28 29  1  0  0  0  0
 29 37  1  0  0  0  0
 29 30  2  0  0  0  0
 18 19  1  0  0  0  0
 19 27  1  0  0  0  0
 19 20  2  0  0  0  0
  8  9  1  0  0  0  0
  9 17  1  0  0  0  0
  9 10  2  0  0  0  0
 28 31  1  0  0  0  0
 18 21  1  0  0  0  0
  8 11  1  0  0  0  0
 37 38  1  0  0  0  0
 27 28  1  0  0  0  0
 17 18  1  0  0  0  0
  7  8  1  0  0  0  0
  3  4  1  0  0  0  0
  3  5  1  0  0  0  0
  3  6  1  0  0  0  0
 31 34  1  0  0  0  0
 31 35  1  0  0  0  0
 31 36  1  0  0  0  0
 21 24  1  0  0  0  0
 21 25  1  0  0  0  0
 21 26  1  0  0  0  0
 11 14  1  0  0  0  0
 11 15  1  0  0  0  0
 11 16  1  0  0  0  0
 38 40  1  0  0  0  0
 38 41  1  0  0  0  0
 38 42  1  0  0  0  0
 28 33  1  0  0  0  0
 18 23  1  0  0  0  0
  8 13  1  0  0  0  0
 37 39  1  0  0  0  0
  7 12  1  0  0  0  0
 27 32  1  0  0  0  0
 17 22  1  0  0  0  0
M  END
$$$$

  -OEChem-05262214473D

 42 41  0     1  0  0  0  0  0999 V2000
   -5.7851   -0.9580    0.6237 C   0  0  0  0  0  0  0  0  0  0  0  0
   -6.2213    0.1296    0.2652 O   0  0  0  0  0  0  0  0  0  0  0  0
   -6.7088   -2.1270    0.7168 C   0  0  0  0  0  0  0  0  0  0  0  0
   -7.1713   -2.2193    1.7126 H   0  0  0  0  0  0  0  0  0  0  0  0
   -7.5511   -2.0547    0.0101 H   0  0  0  0  0  0  0  0  0  0  0  0
   -6.2485   -3.1083    0.5191 H   0  0  0  0  0  0  0  0  0  0  0  0
   -4.4733   -1.2411    0.9668 N   0  0  0  0  0  0  0  0  0  0  0  0
   -3.4203   -0.2603    0.9449 C   0  0  2  0  0  0  0  0  0  0  0  0
   -2.1242   -0.9699    0.5759 C   0  0  0  0  0  0  0  0  0  0  0  0
   -1.8694   -2.1225    0.9189 O   0  0  0  0  0  0  0  0  0  0  0  0
   -3.2916    0.4435    2.2868 C   0  0  0  0  0  0  0  0  0  0  0  0
   -4.2421   -2.1920    1.2489 H   0  0  0  0  0  0  0  0  0  0  0  0
   -3.6772    0.4622    0.1625 H   0  0  0  0  0  0  0  0  0  0  0  0
   -3.0345   -0.2644    3.0832 H   0  0  0  0  0  0  0  0  0  0  0  0
   -2.5093    1.2092    2.2599 H   0  0  0  0  0  0  0  0  0  0  0  0
   -4.2338    0.9283    2.5645 H   0  0  0  0  0  0  0  0  0  0  0  0
   -1.2626   -0.1515   -0.1463 N   0  0  0  0  0  0  0  0  0  0  0  0
    0.0431   -0.5785   -0.5755 C   0  0  2  0  0  0  0  0  0  0  0  0
   -0.0048   -2.0840   -0.8005 C   0  0  0  0  0  0  0  0  0  0  0  0
    0.9784   -2.8119   -0.6794 O   0  0  0  0  0  0  0  0  0  0  0  0
    1.1080   -0.2154    0.4476 C   0  0  0  0  0  0  0  0  0  0  0  0
   -1.5766    0.7776   -0.4197 H   0  0  0  0  0  0  0  0  0  0  0  0
    0.2446   -0.0728   -1.5262 H   0  0  0  0  0  0  0  0  0  0  0  0
    0.9229   -0.7127    1.4067 H   0  0  0  0  0  0  0  0  0  0  0  0
    2.1045   -0.5153    0.1067 H   0  0  0  0  0  0  0  0  0  0  0  0
    1.1209    0.8646    0.6303 H   0  0  0  0  0  0  0  0  0  0  0  0
   -1.2655   -2.5179   -1.1954 N   0  0  0  0  0  0  0  0  0  0  0  0
   -1.5552   -3.8922   -1.5095 C   0  0  2  0  0  0  0  0  0  0  0  0
   -2.6247   -3.9115   -2.5936 C   0  0  0  0  0  0  0  0  0  0  0  0
   -3.5206   -3.0731   -2.6670 O   0  0  0  0  0  0  0  0  0  0  0  0
   -2.0158   -4.6561   -0.2778 C   0  0  0  0  0  0  0  0  0  0  0  0
   -2.0307   -1.8471   -1.2296 H   0  0  0  0  0  0  0  0  0  0  0  0
   -0.6299   -4.3290   -1.9007 H   0  0  0  0  0  0  0  0  0  0  0  0
   -2.9418   -4.2328    0.1284 H   0  0  0  0  0  0  0  0  0  0  0  0
   -2.2084   -5.7082   -0.5124 H   0  0  0  0  0  0  0  0  0  0  0  0
   -1.2577   -4.6159    0.5118 H   0  0  0  0  0  0  0  0  0  0  0  0
   -2.4864   -4.9997   -3.4438 N   0  0  0  0  0  0  0  0  0  0  0  0
   -3.4036   -5.2638   -4.5277 C   0  0  0  0  0  0  0  0  0  0  0  0
   -1.6910   -5.6218   -3.3339 H   0  0  0  0  0  0  0  0  0  0  0  0
   -4.1989   -5.9393   -4.1794 H   0  0  0  0  0  0  0  0  0  0  0  0
   -3.8496   -4.3180   -4.8692 H   0  0  0  0  0  0  0  0  0  0  0  0
   -2.8611   -5.7350   -5.3605 H   0  0  0  0  0  0  0  0  0  0  0  0
  1  3  1  0  0  0  0
  1  7  1  0  0  0  0
  1  2  2  0  0  0  0
 28 29  1  0  0  0  0
 29 37  1  0  0  0  0
 29 30  2  0  0  0  0
 18 19  1  0  0  0  0
 19 27  1  0  0  0  0
 19 20  2  0  0  0  0
  8  9  1  0  0  0  0
  9 17  1  0  0  0  0
  9 10  2  0  0  0  0
 28 31  1  0  0  0  0
 18 21  1  0  0  0  0
  8 11  1  0  0  0  0
 37 38  1  0  0  0  0
 27 28  1  0  0  0  0
 17 18  1  0  0  0  0
  7  8  1  0  0  0  0
  3  4  1  0  0  0  0
  3  5  1  0  0  0  0
  3  6  1  0  0  0  0
 31 34  1  0  0  0  0
 31 35  1  0  0  0  0
 31 36  1  0  0  0  0
 21 24  1  0  0  0  0
 21 25  1  0  0  0  0
 21 26  1  0  0  0  0
 11 14  1  0  0  0  0
 11 15  1  0  0  0  0
 11 16  1  0  0  0  0
 38 40  1  0  0  0  0
 38 41  1  0  0  0  0
 38 42  1  0  0  0  0
 28 33  1  0  0  0  0
 18 23  1  0  0  0  0
  8 13  1  0  0  0  0
 37 39  1  0  0  0  0
  7 12  1  0  0  0  0
 27 32  1  0  0  0  0
 17 22  1  0  0  0  0
M  END
$$$$

  -OEChem-05262214473D

 42 41  0     1  0  0  0  0  0999 V2000
   -5.7851   -0.9580    0.6237 C   0  0  0  0  0  0  0  0  0  0  0  0
   -6.2213    0.1296    0.2652 O   0  0  0  0  0  0  0  0  0  0  0  0
   -6.7088   -2.1270    0.7168 C   0  0  0  0  0  0  0  0  0  0  0  0
   -7.1713   -2.2193    1.7126 H   0  0  0  0  0  0  0  0  0  0  0  0
   -7.5511   -2.0547    0.0101 H   0  0  0  0  0  0  0  0  0  0  0  0
   -6.2485   -3.1083    0.5191 H   0  0  0  0  0  0  0  0  0  0  0  0
   -4.4733   -1.2411    0.9668 N   0  0  0  0  0  0  0  0  0  0  0  0
   -3.4203   -0.2603    0.9449 C   0  0  2  0  0  0  0  0  0  0  0  0
   -2.1242   -0.9699    0.5759 C   0  0  0  0  0  0  0  0  0  0  0  0
   -1.8694   -2.1225    0.9189 O   0  0  0  0  0  0  0  0  0  0  0  0
   -3.2916    0.4435    2.2868 C   0  0  0  0  0  0  0  0  0  0  0  0
   -4.2421   -2.1920    1.2489 H   0  0  0  0  0  0  0  0  0  0  0  0
   -3.6772    0.4622    0.1625 H   0  0  0  0  0  0  0  0  0  0  0  0
   -3.0345   -0.2644    3.0832 H   0  0  0  0  0  0  0  0  0  0  0  0
   -2.5093    1.2092    2.2599 H   0  0  0  0  0  0  0  0  0  0  0  0
   -4.2338    0.9283    2.5645 H   0  0  0  0  0  0  0  0  0  0  0  0
   -1.2626   -0.1515   -0.1463 N   0  0  0  0  0  0  0  0  0  0  0  0
    0.0431   -0.5785   -0.5755 C   0  0  2  0  0  0  0  0  0  0  0  0
   -0.0048   -2.0840   -0.8005 C   0  0  0  0  0  0  0  0  0  0  0  0
    0.8854   -2.8463   -0.4295 O   0  0  0  0  0  0  0  0  0  0  0  0
    1.1080   -0.2154    0.4476 C   0  0  0  0  0  0  0  0  0  0  0  0
   -1.5766    0.7776   -0.4197 H   0  0  0  0  0  0  0  0  0  0  0  0
    0.2446   -0.0728   -1.5262 H   0  0  0  0  0  0  0  0  0  0  0  0
    0.9229   -0.7127    1.4067 H   0  0  0  0  0  0  0  0  0  0  0  0
    2.1045   -0.5153    0.1067 H   0  0  0  0  0  0  0  0  0  0  0  0
    1.1209    0.8646    0.6303 H   0  0  0  0  0  0  0  0  0  0  0  0
   -1.1387   -2.4758   -1.5036 N   0  0  0  0  0  0  0  0  0  0  0  0
   -1.3922   -3.8425   -1.8771 C   0  0  2  0  0  0  0  0  0  0  0  0
   -2.1488   -3.8362   -3.1988 C   0  0  0  0  0  0  0  0  0  0  0  0
   -2.9626   -2.9661   -3.5018 O   0  0  0  0  0  0  0  0  0  0  0  0
   -2.1821   -4.5725   -0.8020 C   0  0  0  0  0  0  0  0  0  0  0  0
   -1.8428   -1.7776   -1.7347 H   0  0  0  0  0  0  0  0  0  0  0  0
   -0.4155   -4.3185   -2.0170 H   0  0  0  0  0  0  0  0  0  0  0  0
   -3.1637   -4.1098   -0.6477 H   0  0  0  0  0  0  0  0  0  0  0  0
   -2.3494   -5.6197   -1.0747 H   0  0  0  0  0  0  0  0  0  0  0  0
   -1.6501   -4.5502    0.1553 H   0  0  0  0  0  0  0  0  0  0  0  0
   -1.8406   -4.9399   -3.9818 N   0  0  0  0  0  0  0  0  0  0  0  0
   -2.4599   -5.1838   -5.2636 C   0  0  0  0  0  0  0  0  0  0  0  0
   -1.1248   -5.5896   -3.6699 H   0  0  0  0  0  0  0  0  0  0  0  0
   -3.3436   -5.8247   -5.1284 H   0  0  0  0  0  0  0  0  0  0  0  0
   -2.7661   -4.2266   -5.7108 H   0  0  0  0  0  0  0  0  0  0  0  0
   -1.7413   -5.6858   -5.9282 H   0  0  0  0  0  0  0  0  0  0  0  0
  1  3  1  0  0  0  0
  1  7  1  0  0  0  0
  1  2  2  0  0  0  0
 28 29  1  0  0  0  0
 29 37  1  0  0  0  0
 29 30  2  0  0  0  0
 18 19  1  0  0  0  0
 19 27  1  0  0  0  0
 19 20  2  0  0  0  0
  8  9  1  0  0  0  0
  9 17  1  0  0  0  0
  9 10  2  0  0  0  0
 28 31  1  0  0  0  0
 18 21  1  0  0  0  0
  8 11  1  0  0  0  0
 37 38  1  0  0  0  0
 27 28  1  0  0  0  0
 17 18  1  0  0  0  0
  7  8  1  0  0  0  0
  3  4  1  0  0  0  0
  3  5  1  0  0  0  0
  3  6  1  0  0  0  0
 31 34  1  0  0  0  0
 31 35  1  0  0  0  0
 31 36  1  0  0  0  0
 21 24  1  0  0  0  0
 21 25  1  0  0  0  0
 21 26  1  0  0  0  0
 11 14  1  0  0  0  0
 11 15  1  0  0  0  0
 11 16  1  0  0  0  0
 38 40  1  0  0  0  0
 38 41  1  0  0  0  0
 38 42  1  0  0  0  0
 28 33  1  0  0  0  0
 18 23  1  0  0  0  0
  8 13  1  0  0  0  0
 37 39  1  0  0  0  0
  7 12  1  0  0  0  0
 27 32  1  0  0  0  0
 17 22  1  0  0  0  0
M  END
$$$$

  -OEChem-05262214473D

 42 41  0     1  0  0  0  0  0999 V2000
   -5.7851   -0.9580    0.6237 C   0  0  0  0  0  0  0  0  0  0  0  0
   -6.2213    0.1296    0.2652 O   0  0  0  0  0  0  0  0  0  0  0  0
   -6.7088   -2.1270    0.7168 C   0  0  0  0  0  0  0  0  0  0  0  0
   -7.1713   -2.2193    1.7126 H   0  0  0  0  0  0  0  0  0  0  0  0
   -7.5511   -2.0547    0.0101 H   0  0  0  0  0  0  0  0  0  0  0  0
   -6.2485   -3.1083    0.5191 H   0  0  0  0  0  0  0  0  0  0  0  0
   -4.4733   -1.2411    0.9668 N   0  0  0  0  0  0  0  0  0  0  0  0
   -3.4203   -0.2603    0.9449 C   0  0  2  0  0  0  0  0  0  0  0  0
   -2.1242   -0.9699    0.5759 C   0  0  0  0  0  0  0  0  0  0  0  0
   -1.8694   -2.1225    0.9189 O   0  0  0  0  0  0  0  0  0  0  0  0
   -3.2916    0.4435    2.2868 C   0  0  0  0  0  0  0  0  0  0  0  0
   -4.2421   -2.1920    1.2489 H   0  0  0  0  0  0  0  0  0  0  0  0
   -3.6772    0.4622    0.1625 H   0  0  0  0  0  0  0  0  0  0  0  0
   -3.0345   -0.2644    3.0832 H   0  0  0  0  0  0  0  0  0  0  0  0
   -2.5093    1.2092    2.2599 H   0  0  0  0  0  0  0  0  0  0  0  0
   -4.2338    0.9283    2.5645 H   0  0  0  0  0  0  0  0  0  0  0  0
   -1.2626   -0.1515   -0.1463 N   0  0  0  0  0  0  0  0  0  0  0  0
    0.0431   -0.5785   -0.5755 C   0  0  2  0  0  0  0  0  0  0  0  0
   -0.0048   -2.0840   -0.8005 C   0  0  0  0  0  0  0  0  0  0  0  0
    0.7302   -2.8739   -0.2115 O   0  0  0  0  0  0  0  0  0  0  0  0
    1.1080   -0.2154    0.4476 C   0  0  0  0  0  0  0  0  0  0  0  0
   -1.5766    0.7776   -0.4197 H   0  0  0  0  0  0  0  0  0  0  0  0
    0.2446   -0.0728   -1.5262 H   0  0  0  0  0  0  0  0  0  0  0  0
    0.9229   -0.7127    1.4067 H   0  0  0  0  0  0  0  0  0  0  0  0
    2.1045   -0.5153    0.1067 H   0  0  0  0  0  0  0  0  0  0  0  0
    1.1209    0.8646    0.6303 H   0  0  0  0  0  0  0  0  0  0  0  0
   -0.9357   -2.4426   -1.7693 N   0  0  0  0  0  0  0  0  0  0  0  0
   -1.1388   -3.8036   -2.1908 C   0  0  2  0  0  0  0  0  0  0  0  0
   -1.5315   -3.7866   -3.6622 C   0  0  0  0  0  0  0  0  0  0  0  0
   -2.2058   -2.8909   -4.1662 O   0  0  0  0  0  0  0  0  0  0  0  0
   -2.2054   -4.4896   -1.3515 C   0  0  0  0  0  0  0  0  0  0  0  0
   -1.5293   -1.7218   -2.1751 H   0  0  0  0  0  0  0  0  0  0  0  0
   -0.1783   -4.3174   -2.0745 H   0  0  0  0  0  0  0  0  0  0  0  0
   -3.1749   -3.9888   -1.4551 H   0  0  0  0  0  0  0  0  0  0  0  0
   -2.3384   -5.5333   -1.6547 H   0  0  0  0  0  0  0  0  0  0  0  0
   -1.9354   -4.4746   -0.2900 H   0  0  0  0  0  0  0  0  0  0  0  0
   -1.0769   -4.9111   -4.3367 N   0  0  0  0  0  0  0  0  0  0  0  0
   -1.3569   -5.1487   -5.7336 C   0  0  0  0  0  0  0  0  0  0  0  0
   -0.4907   -5.5828   -3.8500 H   0  0  0  0  0  0  0  0  0  0  0  0
   -2.2703   -5.7544   -5.8271 H   0  0  0  0  0  0  0  0  0  0  0  0
   -1.5008   -4.1867   -6.2473 H   0  0  0  0  0  0  0  0  0  0  0  0
   -0.5126   -5.6857   -6.1905 H   0  0  0  0  0  0  0  0  0  0  0  0
  1  3  1  0  0  0  0
  1  7  1  0  0  0  0
  1  2  2  0  0  0  0
 28 29  1  0  0  0  0
 29 37  1  0  0  0  0
 29 30  2  0  0  0  0
 18 19  1  0  0  0  0
 19 27  1  0  0  0  0
 19 20  2  0  0  0  0
  8  9  1  0  0  0  0
  9 17  1  0  0  0  0
  9 10  2  0  0  0  0
 28 31  1  0  0  0  0
 18 21  1  0  0  0  0
  8 11  1  0  0  0  0
 37 38  1  0  0  0  0
 27 28  1  0  0  0  0
 17 18  1  0  0  0  0
  7  8  1  0  0  0  0
  3  4  1  0  0  0  0
  3  5  1  0  0  0  0
  3  6  1  0  0  0  0
 31 34  1  0  0  0  0
 31 35  1  0  0  0  0
 31 36  1  0  0  0  0
 21 24  1  0  0  0  0
 21 25  1  0  0  0  0
 21 26  1  0  0  0  0
 11 14  1  0  0  0  0
 11 15  1  0  0  0  0
 11 16  1  0  0  0  0
 38 40  1  0  0  0  0
 38 41  1  0  0  0  0
 38 42  1  0  0  0  0
 28 33  1  0  0  0  0
 18 23  1  0  0  0  0
  8 13  1  0  0  0  0
 37 39  1  0  0  0  0
  7 12  1  0  0  0  0
 27 32  1  0  0  0  0
 17 22  1  0  0  0  0
M  END
$$$$

  -OEChem-05262214473D

 42 41  0     1  0  0  0  0  0999 V2000
   -5.7851   -0.9580    0.6237 C   0  0  0  0  0  0  0  0  0  0  0  0
   -6.2213    0.1296    0.2652 O   0  0  0  0  0  0  0  0  0  0  0  0
   -6.7088   -2.1270    0.7168 C   0  0  0  0  0  0  0  0  0  0  0  0
   -7.1713   -2.2193    1.7126 H   0  0  0  0  0  0  0  0  0  0  0  0
   -7.5511   -2.0547    0.0101 H   0  0  0  0  0  0  0  0  0  0  0  0
   -6.2485   -3.1083    0.5191 H   0  0  0  0  0  0  0  0  0  0  0  0
   -4.4733   -1.2411    0.9668 N   0  0  0  0  0  0  0  0  0  0  0  0
   -3.4203   -0.2603    0.9449 C   0  0  2  0  0  0  0  0  0  0  0  0
   -2.1242   -0.9699    0.5759 C   0  0  0  0  0  0  0  0  0  0  0  0
   -1.8694   -2.1225    0.9189 O   0  0  0  0  0  0  0  0  0  0  0  0
   -3.2916    0.4435    2.2868 C   0  0  0  0  0  0  0  0  0  0  0  0
   -4.2421   -2.1920    1.2489 H   0  0  0  0  0  0  0  0  0  0  0  0
   -3.6772    0.4622    0.1625 H   0  0  0  0  0  0  0  0  0  0  0  0
   -3.0345   -0.2644    3.0832 H   0  0  0  0  0  0  0  0  0  0  0  0
   -2.5093    1.2092    2.2599 H   0  0  0  0  0  0  0  0  0  0  0  0
   -4.2338    0.9283    2.5645 H   0  0  0  0  0  0  0  0  0  0  0  0
   -1.2626   -0.1515   -0.1463 N   0  0  0  0  0  0  0  0  0  0  0  0
    0.0431   -0.5785   -0.5755 C   0  0  2  0  0  0  0  0  0  0  0  0
   -0.0048   -2.0840   -0.8005 C   0  0  0  0  0  0  0  0  0  0  0  0
    0.5236   -2.8929   -0.0405 O   0  0  0  0  0  0  0  0  0  0  0  0
    1.1080   -0.2154    0.4476 C   0  0  0  0  0  0  0  0  0  0  0  0
   -1.5766    0.7776   -0.4197 H   0  0  0  0  0  0  0  0  0  0  0  0
    0.2446   -0.0728   -1.5262 H   0  0  0  0  0  0  0  0  0  0  0  0
    0.9229   -0.7127    1.4067 H   0  0  0  0  0  0  0  0  0  0  0  0
    2.1045   -0.5153    0.1067 H   0  0  0  0  0  0  0  0  0  0  0  0
    1.1209    0.8646    0.6303 H   0  0  0  0  0  0  0  0  0  0  0  0
   -0.6704   -2.4204   -1.9742 N   0  0  0  0  0  0  0  0  0  0  0  0
   -0.8122   -3.7784   -2.4294 C   0  0  2  0  0  0  0  0  0  0  0  0
   -0.8147   -3.7661   -3.9523 C   0  0  0  0  0  0  0  0  0  0  0  0
   -1.3021   -2.8526   -4.6149 O   0  0  0  0  0  0  0  0  0  0  0  0
   -2.0841   -4.4131   -1.8889 C   0  0  0  0  0  0  0  0  0  0  0  0
   -1.1117   -1.6834   -2.5207 H   0  0  0  0  0  0  0  0  0  0  0  0
    0.0656   -4.3259   -2.0694 H   0  0  0  0  0  0  0  0  0  0  0  0
   -2.9744   -3.8781   -2.2389 H   0  0  0  0  0  0  0  0  0  0  0  0
   -2.1761   -5.4551   -2.2127 H   0  0  0  0  0  0  0  0  0  0  0  0
   -2.0941   -4.3943   -0.7937 H   0  0  0  0  0  0  0  0  0  0  0  0
   -0.2472   -4.9154   -4.4844 N   0  0  0  0  0  0  0  0  0  0  0  0
   -0.1699   -5.1607   -5.9056 C   0  0  0  0  0  0  0  0  0  0  0  0
    0.1681   -5.6020   -3.8617 H   0  0  0  0  0  0  0  0  0  0  0  0
   -1.0522   -5.7332   -6.2280 H   0  0  0  0  0  0  0  0  0  0  0  0
   -0.1398   -4.2009   -6.4421 H   0  0  0  0  0  0  0  0  0  0  0  0
    0.7413   -5.7347   -6.1295 H   0  0  0  0  0  0  0  0  0  0  0  0
  1  3  1  0  0  0  0
  1  7  1  0  0  0  0
  1  2  2  0  0  0  0
 28 29  1  0  0  0  0
 29 37  1  0  0  0  0
 29 30  2  0  0  0  0
 18 19  1  0  0  0  0
 19 27  1  0  0  0  0
 19 20  2  0  0  0  0
  8  9  1  0  0  0  0
  9 17  1  0  0  0  0
  9 10  2  0  0  0  0
 28 31  1  0  0  0  0
 18 21  1  0  0  0  0
  8 11  1  0  0  0  0
 37 38  1  0  0  0  0
 27 28  1  0  0  0  0
 17 18  1  0  0  0  0
  7  8  1  0  0  0  0
  3  4  1  0  0  0  0
  3  5  1  0  0  0  0
  3  6  1  0  0  0  0
 31 34  1  0  0  0  0
 31 35  1  0  0  0  0
 31 36  1  0  0  0  0
 21 24  1  0  0  0  0
 21 25  1  0  0  0  0
 21 26  1  0  0  0  0
 11 14  1  0  0  0  0
 11 15  1  0  0  0  0
 11 16  1  0  0  0  0
 38 40  1  0  0  0  0
 38 41  1  0  0  0  0
 38 42  1  0  0  0  0
 28 33  1  0  0  0  0
 18 23  1  0  0  0  0
  8 13  1  0  0  0  0
 37 39  1  0  0  0  0
  7 12  1  0  0  0  0
 27 32  1  0  0  0  0
 17 22  1  0  0  0  0
M  END
$$$$

  -OEChem-05262214473D

 42 41  0     1  0  0  0  0  0999 V2000
   -5.7851   -0.9580    0.6237 C   0  0  0  0  0  0  0  0  0  0  0  0
   -6.2213    0.1296    0.2652 O   0  0  0  0  0  0  0  0  0  0  0  0
   -6.7088   -2.1270    0.7168 C   0  0  0  0  0  0  0  0  0  0  0  0
   -7.1713   -2.2193    1.7126 H   0  0  0  0  0  0  0  0  0  0  0  0
   -7.5511   -2.0547    0.0101 H   0  0  0  0  0  0  0  0  0  0  0  0
   -6.2485   -3.1083    0.5191 H   0  0  0  0  0  0  0  0  0  0  0  0
   -4.4733   -1.2411    0.9668 N   0  0  0  0  0  0  0  0  0  0  0  0
   -3.4203   -0.2603    0.9449 C   0  0  2  0  0  0  0  0  0  0  0  0
   -2.1242   -0.9699    0.5759 C   0  0  0  0  0  0  0  0  0  0  0  0
   -1.8694   -2.1225    0.9189 O   0  0  0  0  0  0  0  0  0  0  0  0
   -3.2916    0.4435    2.2868 C   0  0  0  0  0  0  0  0  0  0  0  0
   -4.2421   -2.1920    1.2489 H   0  0  0  0  0  0  0  0  0  0  0  0
   -3.6772    0.4622    0.1625 H   0  0  0  0  0  0  0  0  0  0  0  0
   -3.0345   -0.2644    3.0832 H   0  0  0  0  0  0  0  0  0  0  0  0
   -2.5093    1.2092    2.2599 H   0  0  0  0  0  0  0  0  0  0  0  0
   -4.2338    0.9283    2.5645 H   0  0  0  0  0  0  0  0  0  0  0  0
   -1.2626   -0.1515   -0.1463 N   0  0  0  0  0  0  0  0  0  0  0  0
    0.0431   -0.5785   -0.5755 C   0  0  2  0  0  0  0  0  0  0  0  0
   -0.0048   -2.0840   -0.8005 C   0  0  0  0  0  0  0  0  0  0  0  0
    0.2795   -2.9020    0.0720 O   0  0  0  0  0  0  0  0  0  0  0  0
    1.1080   -0.2154    0.4476 C   0  0  0  0  0  0  0  0  0  0  0  0
   -1.5766    0.7776   -0.4197 H   0  0  0  0  0  0  0  0  0  0  0  0
    0.2446   -0.0728   -1.5262 H   0  0  0  0  0  0  0  0  0  0  0  0
    0.9229   -0.7127    1.4067 H   0  0  0  0  0  0  0  0  0  0  0  0
    2.1045   -0.5153    0.1067 H   0  0  0  0  0  0  0  0  0  0  0  0
    1.1209    0.8646    0.6303 H   0  0  0  0  0  0  0  0  0  0  0  0
   -0.3609   -2.4108   -2.1044 N   0  0  0  0  0  0  0  0  0  0  0  0
   -0.4348   -3.7684   -2.5764 C   0  0  2  0  0  0  0  0  0  0  0  0
   -0.0473   -3.7760   -4.0493 C   0  0  0  0  0  0  0  0  0  0  0  0
   -0.3128   -2.8537   -4.8175 O   0  0  0  0  0  0  0  0  0  0  0  0
   -1.8265   -4.3483   -2.3776 C   0  0  0  0  0  0  0  0  0  0  0  0
   -0.6184   -1.6651   -2.7480 H   0  0  0  0  0  0  0  0  0  0  0  0
    0.2996   -4.3434   -2.0020 H   0  0  0  0  0  0  0  0  0  0  0  0
   -2.5760   -3.7851   -2.9455 H   0  0  0  0  0  0  0  0  0  0  0  0
   -1.8736   -5.3903   -2.7109 H   0  0  0  0  0  0  0  0  0  0  0  0
   -2.1155   -4.3147   -1.3216 H   0  0  0  0  0  0  0  0  0  0  0  0
    0.5917   -4.9525   -4.4148 N   0  0  0  0  0  0  0  0  0  0  0  0
    1.0201   -5.2191   -5.7680 C   0  0  0  0  0  0  0  0  0  0  0  0
    0.8067   -5.6459   -3.7043 H   0  0  0  0  0  0  0  0  0  0  0  0
    0.2279   -5.7626   -6.3037 H   0  0  0  0  0  0  0  0  0  0  0  0
    1.2242   -4.2682   -6.2820 H   0  0  0  0  0  0  0  0  0  0  0  0
    1.9351   -5.8294   -5.7493 H   0  0  0  0  0  0  0  0  0  0  0  0
  1  3  1  0  0  0  0
  1  7  1  0  0  0  0
  1  2  2  0  0  0  0
 28 29  1  0  0  0  0
 29 37  1  0  0  0  0
 29 30  2  0  0  0  0
 18 19  1  0  0  0  0
 19 27  1  0  0  0  0
 19 20  2  0  0  0  0
  8  9  1  0  0  0  0
  9 17  1  0  0  0  0
  9 10  2  0  0  0  0
 28 31  1  0  0  0  0
 18 21  1  0  0  0  0
  8 11  1  0  0  0  0
 37 38  1  0  0  0  0
 27 28  1  0  0  0  0
 17 18  1  0  0  0  0
  7  8  1  0  0  0  0
  3  4  1  0  0  0  0
  3  5  1  0  0  0  0
  3  6  1  0  0  0  0
 31 34  1  0  0  0  0
 31 35  1  0  0  0  0
 31 36  1  0  0  0  0
 21 24  1  0  0  0  0
 21 25  1  0  0  0  0
 21 26  1  0  0  0  0
 11 14  1  0  0  0  0
 11 15  1  0  0  0  0
 11 16  1  0  0  0  0
 38 40  1  0  0  0  0
 38 41  1  0  0  0  0
 38 42  1  0  0  0  0
 28 33  1  0  0  0  0
 18 23  1  0  0  0  0
  8 13  1  0  0  0  0
 37 39  1  0  0  0  0
  7 12  1  0  0  0  0
 27 32  1  0  0  0  0
 17 22  1  0  0  0  0
M  END
$$$$

  -OEChem-05262214473D

 42 41  0     1  0  0  0  0  0999 V2000
   -5.7851   -0.9580    0.6237 C   0  0  0  0  0  0  0  0  0  0  0  0
   -6.2213    0.1296    0.2652 O   0  0  0  0  0  0  0  0  0  0  0  0
   -6.7088   -2.1270    0.7168 C   0  0  0  0  0  0  0  0  0  0  0  0
   -7.1713   -2.2193    1.7126 H   0  0  0  0  0  0  0  0  0  0  0  0
   -7.5511   -2.0547    0.0101 H   0  0  0  0  0  0  0  0  0  0  0  0
   -6.2485   -3.1083    0.5191 H   0  0  0  0  0  0  0  0  0  0  0  0
   -4.4733   -1.2411    0.9668 N   0  0  0  0  0  0  0  0  0  0  0  0
   -3.4203   -0.2603    0.9449 C   0  0  2  0  0  0  0  0  0  0  0  0
   -2.1242   -0.9699    0.5759 C   0  0  0  0  0  0  0  0  0  0  0  0
   -1.8694   -2.1225    0.9189 O   0  0  0  0  0  0  0  0  0  0  0  0
   -3.2916    0.4435    2.2868 C   0  0  0  0  0  0  0  0  0  0  0  0
   -4.2421   -2.1920    1.2489 H   0  0  0  0  0  0  0  0  0  0  0  0
   -3.6772    0.4622    0.1625 H   0  0  0  0  0  0  0  0  0  0  0  0
   -3.0345   -0.2644    3.0832 H   0  0  0  0  0  0  0  0  0  0  0  0
   -2.5093    1.2092    2.2599 H   0  0  0  0  0  0  0  0  0  0  0  0
   -4.2338    0.9283    2.5645 H   0  0  0  0  0  0  0  0  0  0  0  0
   -1.2626   -0.1515   -0.1463 N   0  0  0  0  0  0  0  0  0  0  0  0
    0.0431   -0.5785   -0.5755 C   0  0  2  0  0  0  0  0  0  0  0  0
   -0.0048   -2.0840   -0.8005 C   0  0  0  0  0  0  0  0  0  0  0  0
    0.0146   -2.9005    0.1182 O   0  0  0  0  0  0  0  0  0  0  0  0
    1.1080   -0.2154    0.4476 C   0  0  0  0  0  0  0  0  0  0  0  0
   -1.5766    0.7776   -0.4197 H   0  0  0  0  0  0  0  0  0  0  0  0
    0.2446   -0.0728   -1.5262 H   0  0  0  0  0  0  0  0  0  0  0  0
    0.9229   -0.7127    1.4067 H   0  0  0  0  0  0  0  0  0  0  0  0
    2.1045   -0.5153    0.1067 H   0  0  0  0  0  0  0  0  0  0  0  0
    1.1209    0.8646    0.6303 H   0  0  0  0  0  0  0  0  0  0  0  0
   -0.0282   -2.4144   -2.1511 N   0  0  0  0  0  0  0  0  0  0  0  0
   -0.0323   -3.7744   -2.6220 C   0  0  2  0  0  0  0  0  0  0  0  0
    0.7183   -3.8157   -3.9465 C   0  0  0  0  0  0  0  0  0  0  0  0
    0.6946   -2.8944   -4.7600 O   0  0  0  0  0  0  0  0  0  0  0  0
   -1.4503   -4.2995   -2.7842 C   0  0  0  0  0  0  0  0  0  0  0  0
   -0.0831   -1.6682   -2.8415 H   0  0  0  0  0  0  0  0  0  0  0  0
    0.5077   -4.3687   -1.8769 H   0  0  0  0  0  0  0  0  0  0  0  0
   -2.0069   -3.7164   -3.5269 H   0  0  0  0  0  0  0  0  0  0  0  0
   -1.4514   -5.3433   -3.1152 H   0  0  0  0  0  0  0  0  0  0  0  0
   -1.9981   -4.2413   -1.8375 H   0  0  0  0  0  0  0  0  0  0  0  0
    1.3828   -5.0198   -4.1325 N   0  0  0  0  0  0  0  0  0  0  0  0
    2.1322   -5.3199   -5.3302 C   0  0  0  0  0  0  0  0  0  0  0  0
    1.3816   -5.7113   -3.3885 H   0  0  0  0  0  0  0  0  0  0  0  0
    1.4825   -5.8405   -6.0491 H   0  0  0  0  0  0  0  0  0  0  0  0
    2.4981   -4.3840   -5.7778 H   0  0  0  0  0  0  0  0  0  0  0  0
    2.9873   -5.9635   -5.0759 H   0  0  0  0  0  0  0  0  0  0  0  0
  1  3  1  0  0  0  0
  1  7  1  0  0  0  0
  1  2  2  0  0  0  0
 28 29  1  0  0  0  0
 29 37  1  0  0  0  0
 29 30  2  0  0  0  0
 18 19  1  0  0  0  0
 19 27  1  0  0  0  0
 19 20  2  0  0  0  0
  8  9  1  0  0  0  0
  9 17  1  0  0  0  0
  9 10  2  0  0  0  0
 28 31  1  0  0  0  0
 18 21  1  0  0  0  0
  8 11  1  0  0  0  0
 37 38  1  0  0  0  0
 27 28  1  0  0  0  0
 17 18  1  0  0  0  0
  7  8  1  0  0  0  0
  3  4  1  0  0  0  0
  3  5  1  0  0  0  0
  3  6  1  0  0  0  0
 31 34  1  0  0  0  0
 31 35  1  0  0  0  0
 31 36  1  0  0  0  0
 21 24  1  0  0  0  0
 21 25  1  0  0  0  0
 21 26  1  0  0  0  0
 11 14  1  0  0  0  0
 11 15  1  0  0  0  0
 11 16  1  0  0  0  0
 38 40  1  0  0  0  0
 38 41  1  0  0  0  0
 38 42  1  0  0  0  0
 28 33  1  0  0  0  0
 18 23  1  0  0  0  0
  8 13  1  0  0  0  0
 37 39  1  0  0  0  0
  7 12  1  0  0  0  0
 27 32  1  0  0  0  0
 17 22  1  0  0  0  0
M  END
$$$$

  -OEChem-05262214473D

 42 41  0     1  0  0  0  0  0999 V2000
   -5.7851   -0.9580    0.6237 C   0  0  0  0  0  0  0  0  0  0  0  0
   -6.2213    0.1296    0.2652 O   0  0  0  0  0  0  0  0  0  0  0  0
   -6.7088   -2.1270    0.7168 C   0  0  0  0  0  0  0  0  0  0  0  0
   -7.1713   -2.2193    1.7126 H   0  0  0  0  0  0  0  0  0  0  0  0
   -7.5511   -2.0547    0.0101 H   0  0  0  0  0  0  0  0  0  0  0  0
   -6.2485   -3.1083    0.5191 H   0  0  0  0  0  0  0  0  0  0  0  0
   -4.4733   -1.2411    0.9668 N   0  0  0  0  0  0  0  0  0  0  0  0
   -3.4203   -0.2603    0.9449 C   0  0  2  0  0  0  0  0  0  0  0  0
   -2.1242   -0.9699    0.5759 C   0  0  0  0  0  0  0  0  0  0  0  0
   -1.8694   -2.1225    0.9189 O   0  0  0  0  0  0  0  0  0  0  0  0
   -3.2916    0.4435    2.2868 C   0  0  0  0  0  0  0  0  0  0  0  0
   -4.2421   -2.1920    1.2489 H   0  0  0  0  0  0  0  0  0  0  0  0
   -3.6772    0.4622    0.1625 H   0  0  0  0  0  0  0  0  0  0  0  0
   -3.0345   -0.2644    3.0832 H   0  0  0  0  0  0  0  0  0  0  0  0
   -2.5093    1.2092    2.2599 H   0  0  0  0  0  0  0  0  0  0  0  0
   -4.2338    0.9283    2.5645 H   0  0  0  0  0  0  0  0  0  0  0  0
   -1.2626   -0.1515   -0.1463 N   0  0  0  0  0  0  0  0  0  0  0  0
    0.0431   -0.5785   -0.5755 C   0  0  2  0  0  0  0  0  0  0  0  0
   -0.0048   -2.0840   -0.8005 C   0  0  0  0  0  0  0  0  0  0  0  0
   -0.2531   -2.8885    0.0952 O   0  0  0  0  0  0  0  0  0  0  0  0
    1.1080   -0.2154    0.4476 C   0  0  0  0  0  0  0  0  0  0  0  0
   -1.5766    0.7776   -0.4197 H   0  0  0  0  0  0  0  0  0  0  0  0
    0.2446   -0.0728   -1.5262 H   0  0  0  0  0  0  0  0  0  0  0  0
    0.9229   -0.7127    1.4067 H   0  0  0  0  0  0  0  0  0  0  0  0
    2.1045   -0.5153    0.1067 H   0  0  0  0  0  0  0  0  0  0  0  0
    1.1209    0.8646    0.6303 H   0  0  0  0  0  0  0  0  0  0  0  0
    0.3050   -2.4310   -2.1110 N   0  0  0  0  0  0  0  0  0  0  0  0
    0.3680   -3.7959   -2.5630 C   0  0  2  0  0  0  0  0  0  0  0  0
    1.4301   -3.8824   -3.6511 C   0  0  0  0  0  0  0  0  0  0  0  0
    1.6514   -2.9716   -4.4464 O   0  0  0  0  0  0  0  0  0  0  0  0
   -0.9809   -4.2701   -3.0812 C   0  0  0  0  0  0  0  0  0  0  0  0
    0.4578   -1.6924   -2.7949 H   0  0  0  0  0  0  0  0  0  0  0  0
    0.6757   -4.4001   -1.7026 H   0  0  0  0  0  0  0  0  0  0  0  0
   -1.3057   -3.6764   -3.9435 H   0  0  0  0  0  0  0  0  0  0  0  0
   -0.9383   -5.3173   -3.3981 H   0  0  0  0  0  0  0  0  0  0  0  0
   -1.7498   -4.1792   -2.3064 H   0  0  0  0  0  0  0  0  0  0  0  0
    2.0722   -5.1128   -3.6570 N   0  0  0  0  0  0  0  0  0  0  0  0
    3.0905   -5.4562   -4.6219 C   0  0  0  0  0  0  0  0  0  0  0  0
    1.8536   -5.7940   -2.9359 H   0  0  0  0  0  0  0  0  0  0  0  0
    2.6263   -5.9617   -5.4815 H   0  0  0  0  0  0  0  0  0  0  0  0
    3.5952   -4.5405   -4.9638 H   0  0  0  0  0  0  0  0  0  0  0  0
    3.8262   -6.1278   -4.1552 H   0  0  0  0  0  0  0  0  0  0  0  0
  1  3  1  0  0  0  0
  1  7  1  0  0  0  0
  1  2  2  0  0  0  0
 28 29  1  0  0  0  0
 29 37  1  0  0  0  0
 29 30  2  0  0  0  0
 18 19  1  0  0  0  0
 19 27  1  0  0  0  0
 19 20  2  0  0  0  0
  8  9  1  0  0  0  0
  9 17  1  0  0  0  0
  9 10  2  0  0  0  0
 28 31  1  0  0  0  0
 18 21  1  0  0  0  0
  8 11  1  0  0  0  0
 37 38  1  0  0  0  0
 27 28  1  0  0  0  0
 17 18  1  0  0  0  0
  7  8  1  0  0  0  0
  3  4  1  0  0  0  0
  3  5  1  0  0  0  0
  3  6  1  0  0  0  0
 31 34  1  0  0  0  0
 31 35  1  0  0  0  0
 31 36  1  0  0  0  0
 21 24  1  0  0  0  0
 21 25  1  0  0  0  0
 21 26  1  0  0  0  0
 11 14  1  0  0  0  0
 11 15  1  0  0  0  0
 11 16  1  0  0  0  0
 38 40  1  0  0  0  0
 38 41  1  0  0  0  0
 38 42  1  0  0  0  0
 28 33  1  0  0  0  0
 18 23  1  0  0  0  0
  8 13  1  0  0  0  0
 37 39  1  0  0  0  0
  7 12  1  0  0  0  0
 27 32  1  0  0  0  0
 17 22  1  0  0  0  0
M  END
$$$$

  -OEChem-05262214473D

 42 41  0     1  0  0  0  0  0999 V2000
   -5.7851   -0.9580    0.6237 C   0  0  0  0  0  0  0  0  0  0  0  0
   -6.2213    0.1296    0.2652 O   0  0  0  0  0  0  0  0  0  0  0  0
   -6.7088   -2.1270    0.7168 C   0  0  0  0  0  0  0  0  0  0  0  0
   -7.1713   -2.2193    1.7126 H   0  0  0  0  0  0  0  0  0  0  0  0
   -7.5511   -2.0547    0.0101 H   0  0  0  0  0  0  0  0  0  0  0  0
   -6.2485   -3.1083    0.5191 H   0  0  0  0  0  0  0  0  0  0  0  0
   -4.4733   -1.2411    0.9668 N   0  0  0  0  0  0  0  0  0  0  0  0
   -3.4203   -0.2603    0.9449 C   0  0  2  0  0  0  0  0  0  0  0  0
   -2.1242   -0.9699    0.5759 C   0  0  0  0  0  0  0  0  0  0  0  0
   -1.8694   -2.1225    0.9189 O   0  0  0  0  0  0  0  0  0  0  0  0
   -3.2916    0.4435    2.2868 C   0  0  0  0  0  0  0  0  0  0  0  0
   -4.2421   -2.1920    1.2489 H   0  0  0  0  0  0  0  0  0  0  0  0
   -3.6772    0.4622    0.1625 H   0  0  0  0  0  0  0  0  0  0  0  0
   -3.0345   -0.2644    3.0832 H   0  0  0  0  0  0  0  0  0  0  0  0
   -2.5093    1.2092    2.2599 H   0  0  0  0  0  0  0  0  0  0  0  0
   -4.2338    0.9283    2.5645 H   0  0  0  0  0  0  0  0  0  0  0  0
   -1.2626   -0.1515   -0.1463 N   0  0  0  0  0  0  0  0  0  0  0  0
    0.0431   -0.5785   -0.5755 C   0  0  2  0  0  0  0  0  0  0  0  0
   -0.0048   -2.0840   -0.8005 C   0  0  0  0  0  0  0  0  0  0  0  0
   -0.5052   -2.8669    0.0043 O   0  0  0  0  0  0  0  0  0  0  0  0
    1.1080   -0.2154    0.4476 C   0  0  0  0  0  0  0  0  0  0  0  0
   -1.5766    0.7776   -0.4197 H   0  0  0  0  0  0  0  0  0  0  0  0
    0.2446   -0.0728   -1.5262 H   0  0  0  0  0  0  0  0  0  0  0  0
    0.9229   -0.7127    1.4067 H   0  0  0  0  0  0  0  0  0  0  0  0
    2.1045   -0.5153    0.1067 H   0  0  0  0  0  0  0  0  0  0  0  0
    1.1209    0.8646    0.6303 H   0  0  0  0  0  0  0  0  0  0  0  0
    0.6159   -2.4594   -1.9869 N   0  0  0  0  0  0  0  0  0  0  0  0
    0.7387   -3.8316   -2.4034 C   0  0  2  0  0  0  0  0  0  0  0  0
    2.0395   -3.9718   -3.1831 C   0  0  0  0  0  0  0  0  0  0  0  0
    2.4923   -3.0803   -3.8981 O   0  0  0  0  0  0  0  0  0  0  0  0
   -0.4504   -4.2620   -3.2482 C   0  0  0  0  0  0  0  0  0  0  0  0
    0.9674   -1.7360   -2.6112 H   0  0  0  0  0  0  0  0  0  0  0  0
    0.7922   -4.4354   -1.4910 H   0  0  0  0  0  0  0  0  0  0  0  0
   -0.5204   -3.6680   -4.1667 H   0  0  0  0  0  0  0  0  0  0  0  0
   -0.3694   -5.3142   -3.5403 H   0  0  0  0  0  0  0  0  0  0  0  0
   -1.3877   -4.1324   -2.6964 H   0  0  0  0  0  0  0  0  0  0  0  0
    2.6129   -5.2251   -3.0205 N   0  0  0  0  0  0  0  0  0  0  0  0
    3.8298   -5.6187   -3.6914 C   0  0  0  0  0  0  0  0  0  0  0  0
    2.1906   -5.8882   -2.3772 H   0  0  0  0  0  0  0  0  0  0  0  0
    3.5813   -6.1179   -4.6397 H   0  0  0  0  0  0  0  0  0  0  0  0
    4.4406   -4.7270   -3.8957 H   0  0  0  0  0  0  0  0  0  0  0  0
    4.3947   -6.3110   -3.0499 H   0  0  0  0  0  0  0  0  0  0  0  0
  1  3  1  0  0  0  0
  1  7  1  0  0  0  0
  1  2  2  0  0  0  0
 28 29  1  0  0  0  0
 29 37  1  0  0  0  0
 29 30  2  0  0  0  0
 18 19  1  0  0  0  0
 19 27  1  0  0  0  0
 19 20  2  0  0  0  0
  8  9  1  0  0  0  0
  9 17  1  0  0  0  0
  9 10  2  0  0  0  0
 28 31  1  0  0  0  0
 18 21  1  0  0  0  0
  8 11  1  0  0  0  0
 37 38  1  0  0  0  0
 27 28  1  0  0  0  0
 17 18  1  0  0  0  0
  7  8  1  0  0  0  0
  3  4  1  0  0  0  0
  3  5  1  0  0  0  0
  3  6  1  0  0  0  0
 31 34  1  0  0  0  0
 31 35  1  0  0  0  0
 31 36  1  0  0  0  0
 21 24  1  0  0  0  0
 21 25  1  0  0  0  0
 21 26  1  0  0  0  0
 11 14  1  0  0  0  0
 11 15  1  0  0  0  0
 11 16  1  0  0  0  0
 38 40  1  0  0  0  0
 38 41  1  0  0  0  0
 38 42  1  0  0  0  0
 28 33  1  0  0  0  0
 18 23  1  0  0  0  0
  8 13  1  0  0  0  0
 37 39  1  0  0  0  0
  7 12  1  0  0  0  0
 27 32  1  0  0  0  0
 17 22  1  0  0  0  0
M  END
$$$$

  -OEChem-05262214473D

 42 41  0     1  0  0  0  0  0999 V2000
   -5.7851   -0.9580    0.6237 C   0  0  0  0  0  0  0  0  0  0  0  0
   -6.2213    0.1296    0.2652 O   0  0  0  0  0  0  0  0  0  0  0  0
   -6.7088   -2.1270    0.7168 C   0  0  0  0  0  0  0  0  0  0  0  0
   -7.1713   -2.2193    1.7126 H   0  0  0  0  0  0  0  0  0  0  0  0
   -7.5511   -2.0547    0.0101 H   0  0  0  0  0  0  0  0  0  0  0  0
   -6.2485   -3.1083    0.5191 H   0  0  0  0  0  0  0  0  0  0  0  0
   -4.4733   -1.2411    0.9668 N   0  0  0  0  0  0  0  0  0  0  0  0
   -3.4203   -0.2603    0.9449 C   0  0  2  0  0  0  0  0  0  0  0  0
   -2.1242   -0.9699    0.5759 C   0  0  0  0  0  0  0  0  0  0  0  0
   -1.8694   -2.1225    0.9189 O   0  0  0  0  0  0  0  0  0  0  0  0
   -3.2916    0.4435    2.2868 C   0  0  0  0  0  0  0  0  0  0  0  0
   -4.2421   -2.1920    1.2489 H   0  0  0  0  0  0  0  0  0  0  0  0
   -3.6772    0.4622    0.1625 H   0  0  0  0  0  0  0  0  0  0  0  0
   -3.0345   -0.2644    3.0832 H   0  0  0  0  0  0  0  0  0  0  0  0
   -2.5093    1.2092    2.2599 H   0  0  0  0  0  0  0  0  0  0  0  0
   -4.2338    0.9283    2.5645 H   0  0  0  0  0  0  0  0  0  0  0  0
   -1.2626   -0.1515   -0.1463 N   0  0  0  0  0  0  0  0  0  0  0  0
    0.0431   -0.5785   -0.5755 C   0  0  2  0  0  0  0  0  0  0  0  0
   -0.0048   -2.0840   -0.8005 C   0  0  0  0  0  0  0  0  0  0  0  0
   -0.7247   -2.8371   -0.1482 O   0  0  0  0  0  0  0  0  0  0  0  0
    1.1080   -0.2154    0.4476 C   0  0  0  0  0  0  0  0  0  0  0  0
   -1.5766    0.7776   -0.4197 H   0  0  0  0  0  0  0  0  0  0  0  0
    0.2446   -0.0728   -1.5262 H   0  0  0  0  0  0  0  0  0  0  0  0
    0.9229   -0.7127    1.4067 H   0  0  0  0  0  0  0  0  0  0  0  0
    2.1045   -0.5153    0.1067 H   0  0  0  0  0  0  0  0  0  0  0  0
    1.1209    0.8646    0.6303 H   0  0  0  0  0  0  0  0  0  0  0  0
    0.8834   -2.4977   -1.7873 N   0  0  0  0  0  0  0  0  0  0  0  0
    1.0546   -3.8789   -2.1542 C   0  0  2  0  0  0  0  0  0  0  0  0
    2.5049   -4.0775   -2.5744 C   0  0  0  0  0  0  0  0  0  0  0  0
    3.1602   -3.2130   -3.1525 O   0  0  0  0  0  0  0  0  0  0  0  0
    0.1051   -4.2758   -3.2738 C   0  0  0  0  0  0  0  0  0  0  0  0
    1.4109   -1.7962   -2.3031 H   0  0  0  0  0  0  0  0  0  0  0  0
    0.8492   -4.4723   -1.2566 H   0  0  0  0  0  0  0  0  0  0  0  0
    0.2957   -3.6917   -4.1815 H   0  0  0  0  0  0  0  0  0  0  0  0
    0.2166   -5.3340   -3.5321 H   0  0  0  0  0  0  0  0  0  0  0  0
   -0.9363   -4.1043   -2.9808 H   0  0  0  0  0  0  0  0  0  0  0  0
    2.9680   -5.3491   -2.2664 N   0  0  0  0  0  0  0  0  0  0  0  0
    4.2996   -5.7964   -2.6022 C   0  0  0  0  0  0  0  0  0  0  0  0
    2.3695   -5.9875   -1.7506 H   0  0  0  0  0  0  0  0  0  0  0  0
    4.2824   -6.2984   -3.5809 H   0  0  0  0  0  0  0  0  0  0  0  0
    4.9769   -4.9308   -2.6461 H   0  0  0  0  0  0  0  0  0  0  0  0
    4.6540   -6.5008   -1.8352 H   0  0  0  0  0  0  0  0  0  0  0  0
  1  3  1  0  0  0  0
  1  7  1  0  0  0  0
  1  2  2  0  0  0  0
 28 29  1  0  0  0  0
 29 37  1  0  0  0  0
 29 30  2  0  0  0  0
 18 19  1  0  0  0  0
 19 27  1  0  0  0  0
 19 20  2  0  0  0  0
  8  9  1  0  0  0  0
  9 17  1  0  0  0  0
  9 10  2  0  0  0  0
 28 31  1  0  0  0  0
 18 21  1  0  0  0  0
  8 11  1  0  0  0  0
 37 38  1  0  0  0  0
 27 28  1  0  0  0  0
 17 18  1  0  0  0  0
  7  8  1  0  0  0  0
  3  4  1  0  0  0  0
  3  5  1  0  0  0  0
  3  6  1  0  0  0  0
 31 34  1  0  0  0  0
 31 35  1  0  0  0  0
 31 36  1  0  0  0  0
 21 24  1  0  0  0  0
 21 25  1  0  0  0  0
 21 26  1  0  0  0  0
 11 14  1  0  0  0  0
 11 15  1  0  0  0  0
 11 16  1  0  0  0  0
 38 40  1  0  0  0  0
 38 41  1  0  0  0  0
 38 42  1  0  0  0  0
 28 33  1  0  0  0  0
 18 23  1  0  0  0  0
  8 13  1  0  0  0  0
 37 39  1  0  0  0  0
  7 12  1  0  0  0  0
 27 32  1  0  0  0  0
 17 22  1  0  0  0  0
M  END
$$$$

  -OEChem-05262214473D

 42 41  0     1  0  0  0  0  0999 V2000
   -5.7851   -0.9580    0.6237 C   0  0  0  0  0  0  0  0  0  0  0  0
   -6.2213    0.1296    0.2652 O   0  0  0  0  0  0  0  0  0  0  0  0
   -6.7088   -2.1270    0.7168 C   0  0  0  0  0  0  0  0  0  0  0  0
   -7.1713   -2.2193    1.7126 H   0  0  0  0  0  0  0  0  0  0  0  0
   -7.5511   -2.0547    0.0101 H   0  0  0  0  0  0  0  0  0  0  0  0
   -6.2485   -3.1083    0.5191 H   0  0  0  0  0  0  0  0  0  0  0  0
   -4.4733   -1.2411    0.9668 N   0  0  0  0  0  0  0  0  0  0  0  0
   -3.4203   -0.2603    0.9449 C   0  0  2  0  0  0  0  0  0  0  0  0
   -2.1242   -0.9699    0.5759 C   0  0  0  0  0  0  0  0  0  0  0  0
   -1.8694   -2.1225    0.9189 O   0  0  0  0  0  0  0  0  0  0  0  0
   -3.2916    0.4435    2.2868 C   0  0  0  0  0  0  0  0  0  0  0  0
   -4.2421   -2.1920    1.2489 H   0  0  0  0  0  0  0  0  0  0  0  0
   -3.6772    0.4622    0.1625 H   0  0  0  0  0  0  0  0  0  0  0  0
   -3.0345   -0.2644    3.0832 H   0  0  0  0  0  0  0  0  0  0  0  0
   -2.5093    1.2092    2.2599 H   0  0  0  0  0  0  0  0  0  0  0  0
   -4.2338    0.9283    2.5645 H   0  0  0  0  0  0  0  0  0  0  0  0
   -1.2626   -0.1515   -0.1463 N   0  0  0  0  0  0  0  0  0  0  0  0
    0.0431   -0.5785   -0.5755 C   0  0  2  0  0  0  0  0  0  0  0  0
   -0.0048   -2.0840   -0.8005 C   0  0  0  0  0  0  0  0  0  0  0  0
   -0.8966   -2.8012   -0.3519 O   0  0  0  0  0  0  0  0  0  0  0  0
    1.1080   -0.2154    0.4476 C   0  0  0  0  0  0  0  0  0  0  0  0
   -1.5766    0.7776   -0.4197 H   0  0  0  0  0  0  0  0  0  0  0  0
    0.2446   -0.0728   -1.5262 H   0  0  0  0  0  0  0  0  0  0  0  0
    0.9229   -0.7127    1.4067 H   0  0  0  0  0  0  0  0  0  0  0  0
    2.1045   -0.5153    0.1067 H   0  0  0  0  0  0  0  0  0  0  0  0
    1.1209    0.8646    0.6303 H   0  0  0  0  0  0  0  0  0  0  0  0
    1.0892   -2.5434   -1.5258 N   0  0  0  0  0  0  0  0  0  0  0  0
    1.2941   -3.9346   -1.8322 C   0  0  2  0  0  0  0  0  0  0  0  0
    2.7947   -4.1925   -1.8664 C   0  0  0  0  0  0  0  0  0  0  0  0
    3.6095   -3.3606   -2.2602 O   0  0  0  0  0  0  0  0  0  0  0  0
    0.6476   -4.3106   -3.1563 C   0  0  0  0  0  0  0  0  0  0  0  0
    1.7583   -1.8687   -1.8915 H   0  0  0  0  0  0  0  0  0  0  0  0
    0.8429   -4.5082   -1.0152 H   0  0  0  0  0  0  0  0  0  0  0  0
    1.0868   -3.7460   -3.9869 H   0  0  0  0  0  0  0  0  0  0  0  0
    0.7799   -5.3755   -3.3742 H   0  0  0  0  0  0  0  0  0  0  0  0
   -0.4265   -4.0966   -3.1402 H   0  0  0  0  0  0  0  0  0  0  0  0
    3.1133   -5.4763   -1.4462 N   0  0  0  0  0  0  0  0  0  0  0  0
    4.4679   -5.9772   -1.4285 C   0  0  0  0  0  0  0  0  0  0  0  0
    2.3783   -6.0852   -1.0988 H   0  0  0  0  0  0  0  0  0  0  0  0
    4.6818   -6.4909   -2.3774 H   0  0  0  0  0  0  0  0  0  0  0  0
    5.1674   -5.1380   -1.3003 H   0  0  0  0  0  0  0  0  0  0  0  0
    4.5864   -6.6841   -0.5941 H   0  0  0  0  0  0  0  0  0  0  0  0
  1  3  1  0  0  0  0
  1  7  1  0  0  0  0
  1  2  2  0  0  0  0
 28 29  1  0  0  0  0
 29 37  1  0  0  0  0
 29 30  2  0  0  0  0
 18 19  1  0  0  0  0
 19 27  1  0  0  0  0
 19 20  2  0  0  0  0
  8  9  1  0  0  0  0
  9 17  1  0  0  0  0
  9 10  2  0  0  0  0
 28 31  1  0  0  0  0
 18 21  1  0  0  0  0
  8 11  1  0  0  0  0
 37 38  1  0  0  0  0
 27 28  1  0  0  0  0
 17 18  1  0  0  0  0
  7  8  1  0  0  0  0
  3  4  1  0  0  0  0
  3  5  1  0  0  0  0
  3  6  1  0  0  0  0
 31 34  1  0  0  0  0
 31 35  1  0  0  0  0
 31 36  1  0  0  0  0
 21 24  1  0  0  0  0
 21 25  1  0  0  0  0
 21 26  1  0  0  0  0
 11 14  1  0  0  0  0
 11 15  1  0  0  0  0
 11 16  1  0  0  0  0
 38 40  1  0  0  0  0
 38 41  1  0  0  0  0
 38 42  1  0  0  0  0
 28 33  1  0  0  0  0
 18 23  1  0  0  0  0
  8 13  1  0  0  0  0
 37 39  1  0  0  0  0
  7 12  1  0  0  0  0
 27 32  1  0  0  0  0
 17 22  1  0  0  0  0
M  END
$$$$

  -OEChem-05262214473D

 42 41  0     1  0  0  0  0  0999 V2000
   -5.7851   -0.9580    0.6237 C   0  0  0  0  0  0  0  0  0  0  0  0
   -6.2213    0.1296    0.2652 O   0  0  0  0  0  0  0  0  0  0  0  0
   -6.7088   -2.1270    0.7168 C   0  0  0  0  0  0  0  0  0  0  0  0
   -7.1713   -2.2193    1.7126 H   0  0  0  0  0  0  0  0  0  0  0  0
   -7.5511   -2.0547    0.0101 H   0  0  0  0  0  0  0  0  0  0  0  0
   -6.2485   -3.1083    0.5191 H   0  0  0  0  0  0  0  0  0  0  0  0
   -4.4733   -1.2411    0.9668 N   0  0  0  0  0  0  0  0  0  0  0  0
   -3.4203   -0.2603    0.9449 C   0  0  2  0  0  0  0  0  0  0  0  0
   -2.1242   -0.9699    0.5759 C   0  0  0  0  0  0  0  0  0  0  0  0
   -1.8694   -2.1225    0.9189 O   0  0  0  0  0  0  0  0  0  0  0  0
   -3.2916    0.4435    2.2868 C   0  0  0  0  0  0  0  0  0  0  0  0
   -4.2421   -2.1920    1.2489 H   0  0  0  0  0  0  0  0  0  0  0  0
   -3.6772    0.4622    0.1625 H   0  0  0  0  0  0  0  0  0  0  0  0
   -3.0345   -0.2644    3.0832 H   0  0  0  0  0  0  0  0  0  0  0  0
   -2.5093    1.2092    2.2599 H   0  0  0  0  0  0  0  0  0  0  0  0
   -4.2338    0.9283    2.5645 H   0  0  0  0  0  0  0  0  0  0  0  0
   -1.2626   -0.1515   -0.1463 N   0  0  0  0  0  0  0  0  0  0  0  0
    0.0431   -0.5785   -0.5755 C   0  0  2  0  0  0  0  0  0  0  0  0
   -0.0875   -1.9809   -1.1548 C   0  0  0  0  0  0  0  0  0  0  0  0
   -1.1498   -2.5989   -1.1826 O   0  0  0  0  0  0  0  0  0  0  0  0
    1.0383   -0.5557    0.5742 C   0  0  0  0  0  0  0  0  0  0  0  0
   -1.5766    0.7776   -0.4197 H   0  0  0  0  0  0  0  0  0  0  0  0
    0.3595    0.1145   -1.3628 H   0  0  0  0  0  0  0  0  0  0  0  0
    0.7380   -1.2440    1.3727 H   0  0  0  0  0  0  0  0  0  0  0  0
    2.0376   -0.8534    0.2398 H   0  0  0  0  0  0  0  0  0  0  0  0
    1.1088    0.4472    1.0088 H   0  0  0  0  0  0  0  0  0  0  0  0
    1.1307   -2.4827   -1.5997 N   0  0  0  0  0  0  0  0  0  0  0  0
    1.2762   -3.8046   -2.1500 C   0  0  2  0  0  0  0  0  0  0  0  0
    2.6640   -4.3154   -1.7859 C   0  0  0  0  0  0  0  0  0  0  0  0
    3.6481   -3.5833   -1.7038 O   0  0  0  0  0  0  0  0  0  0  0  0
    1.0764   -3.8014   -3.6576 C   0  0  0  0  0  0  0  0  0  0  0  0
    1.9521   -1.8817   -1.5734 H   0  0  0  0  0  0  0  0  0  0  0  0
    0.5177   -4.4324   -1.6698 H   0  0  0  0  0  0  0  0  0  0  0  0
    1.8273   -3.1776   -4.1561 H   0  0  0  0  0  0  0  0  0  0  0  0
    1.1592   -4.8121   -4.0710 H   0  0  0  0  0  0  0  0  0  0  0  0
    0.0890   -3.4059   -3.9191 H   0  0  0  0  0  0  0  0  0  0  0  0
    2.6830   -5.6914   -1.6058 N   0  0  0  0  0  0  0  0  0  0  0  0
    3.8906   -6.4205   -1.2959 C   0  0  0  0  0  0  0  0  0  0  0  0
    1.8131   -6.2137   -1.6536 H   0  0  0  0  0  0  0  0  0  0  0  0
    4.3548   -6.7752   -2.2280 H   0  0  0  0  0  0  0  0  0  0  0  0
    4.5920   -5.7596   -0.7655 H   0  0  0  0  0  0  0  0  0  0  0  0
    3.6450   -7.2822   -0.6578 H   0  0  0  0  0  0  0  0  0  0  0  0
  1  3  1  0  0  0  0
  1  7  1  0  0  0  0
  1  2  2  0  0  0  0
 28 29  1  0  0  0  0
 29 37  1  0  0  0  0
 29 30  2  0  0  0  0
 18 19  1  0  0  0  0
 19 27  1  0  0  0  0
 19 20  2  0  0  0  0
  8  9  1  0  0  0  0
  9 17  1  0  0  0  0
  9 10  2  0  0  0  0
 28 31  1  0  0  0  0
 18 21  1  0  0  0  0
  8 11  1  0  0  0  0
 37 38  1  0  0  0  0
 27 28  1  0  0  0  0
 17 18  1  0  0  0  0
  7  8  1  0  0  0  0
  3  4  1  0  0  0  0
  3  5  1  0  0  0  0
  3  6  1  0  0  0  0
 31 34  1  0  0  0  0
 31 35  1  0  0  0  0
 31 36  1  0  0  0  0
 21 24  1  0  0  0  0
 21 25  1  0  0  0  0
 21 26  1  0  0  0  0
 11 14  1  0  0  0  0
 11 15  1  0  0  0  0
 11 16  1  0  0  0  0
 38 40  1  0  0  0  0
 38 41  1  0  0  0  0
 38 42  1  0  0  0  0
 28 33  1  0  0  0  0
 18 23  1  0  0  0  0
  8 13  1  0  0  0  0
 37 39  1  0  0  0  0
  7 12  1  0  0  0  0
 27 32  1  0  0  0  0
 17 22  1  0  0  0  0
M  END
$$$$

  -OEChem-05262214473D

 42 41  0     1  0  0  0  0  0999 V2000
   -5.7851   -0.9580    0.6237 C   0  0  0  0  0  0  0  0  0  0  0  0
   -6.2213    0.1296    0.2652 O   0  0  0  0  0  0  0  0  0  0  0  0
   -6.7088   -2.1270    0.7168 C   0  0  0  0  0  0  0  0  0  0  0  0
   -7.1713   -2.2193    1.7126 H   0  0  0  0  0  0  0  0  0  0  0  0
   -7.5511   -2.0547    0.0101 H   0  0  0  0  0  0  0  0  0  0  0  0
   -6.2485   -3.1083    0.5191 H   0  0  0  0  0  0  0  0  0  0  0  0
   -4.4733   -1.2411    0.9668 N   0  0  0  0  0  0  0  0  0  0  0  0
   -3.4203   -0.2603    0.9449 C   0  0  2  0  0  0  0  0  0  0  0  0
   -2.1242   -0.9699    0.5759 C   0  0  0  0  0  0  0  0  0  0  0  0
   -1.8694   -2.1225    0.9189 O   0  0  0  0  0  0  0  0  0  0  0  0
   -3.2916    0.4435    2.2868 C   0  0  0  0  0  0  0  0  0  0  0  0
   -4.2421   -2.1920    1.2489 H   0  0  0  0  0  0  0  0  0  0  0  0
   -3.6772    0.4622    0.1625 H   0  0  0  0  0  0  0  0  0  0  0  0
   -3.0345   -0.2644    3.0832 H   0  0  0  0  0  0  0  0  0  0  0  0
   -2.5093    1.2092    2.2599 H   0  0  0  0  0  0  0  0  0  0  0  0
   -4.2338    0.9283    2.5645 H   0  0  0  0  0  0  0  0  0  0  0  0
   -1.2626   -0.1515   -0.1463 N   0  0  0  0  0  0  0  0  0  0  0  0
    0.0431   -0.5785   -0.5755 C   0  0  2  0  0  0  0  0  0  0  0  0
   -0.0875   -1.9809   -1.1548 C   0  0  0  0  0  0  0  0  0  0  0  0
   -1.1697   -2.4949   -1.4298 O   0  0  0  0  0  0  0  0  0  0  0  0
    1.0383   -0.5557    0.5742 C   0  0  0  0  0  0  0  0  0  0  0  0
   -1.5766    0.7776   -0.4197 H   0  0  0  0  0  0  0  0  0  0  0  0
    0.3595    0.1145   -1.3628 H   0  0  0  0  0  0  0  0  0  0  0  0
    0.7380   -1.2440    1.3727 H   0  0  0  0  0  0  0  0  0  0  0  0
    2.0376   -0.8534    0.2398 H   0  0  0  0  0  0  0  0  0  0  0  0
    1.1088    0.4472    1.0088 H   0  0  0  0  0  0  0  0  0  0  0  0
    1.1443   -2.6120   -1.2899 N   0  0  0  0  0  0  0  0  0  0  0  0
    1.2818   -3.9597   -1.7758 C   0  0  2  0  0  0  0  0  0  0  0  0
    2.4846   -4.5883   -1.0847 C   0  0  0  0  0  0  0  0  0  0  0  0
    3.4899   -3.9514   -0.7769 O   0  0  0  0  0  0  0  0  0  0  0  0
    1.4467   -3.9889   -3.2873 C   0  0  0  0  0  0  0  0  0  0  0  0
    1.9924   -2.0918   -1.0738 H   0  0  0  0  0  0  0  0  0  0  0  0
    0.3715   -4.4952   -1.4847 H   0  0  0  0  0  0  0  0  0  0  0  0
    2.3535   -3.4572   -3.5979 H   0  0  0  0  0  0  0  0  0  0  0  0
    1.5225   -5.0163   -3.6584 H   0  0  0  0  0  0  0  0  0  0  0  0
    0.5947   -3.5098   -3.7816 H   0  0  0  0  0  0  0  0  0  0  0  0
    2.3211   -5.9529   -0.8912 N   0  0  0  0  0  0  0  0  0  0  0  0
    3.3406   -6.7833   -0.2937 C   0  0  0  0  0  0  0  0  0  0  0  0
    1.4391   -6.3908   -1.1405 H   0  0  0  0  0  0  0  0  0  0  0  0
    3.9743   -7.2124   -1.0838 H   0  0  0  0  0  0  0  0  0  0  0  0
    3.9592   -6.1748    0.3824 H   0  0  0  0  0  0  0  0  0  0  0  0
    2.8647   -7.5952    0.2759 H   0  0  0  0  0  0  0  0  0  0  0  0
  1  3  1  0  0  0  0
  1  7  1  0  0  0  0
  1  2  2  0  0  0  0
 28 29  1  0  0  0  0
 29 37  1  0  0  0  0
 29 30  2  0  0  0  0
 18 19  1  0  0  0  0
 19 27  1  0  0  0  0
 19 20  2  0  0  0  0
  8  9  1  0  0  0  0
  9 17  1  0  0  0  0
  9 10  2  0  0  0  0
 28 31  1  0  0  0  0
 18 21  1  0  0  0  0
  8 11  1  0  0  0  0
 37 38  1  0  0  0  0
 27 28  1  0  0  0  0
 17 18  1  0  0  0  0
  7  8  1  0  0  0  0
  3  4  1  0  0  0  0
  3  5  1  0  0  0  0
  3  6  1  0  0  0  0
 31 34  1  0  0  0  0
 31 35  1  0  0  0  0
 31 36  1  0  0  0  0
 21 24  1  0  0  0  0
 21 25  1  0  0  0  0
 21 26  1  0  0  0  0
 11 14  1  0  0  0  0
 11 15  1  0  0  0  0
 11 16  1  0  0  0  0
 38 40  1  0  0  0  0
 38 41  1  0  0  0  0
 38 42  1  0  0  0  0
 28 33  1  0  0  0  0
 18 23  1  0  0  0  0
  8 13  1  0  0  0  0
 37 39  1  0  0  0  0
  7 12  1  0  0  0  0
 27 32  1  0  0  0  0
 17 22  1  0  0  0  0
M  END
$$$$

  -OEChem-05262214473D

 42 41  0     1  0  0  0  0  0999 V2000
   -5.7851   -0.9580    0.6237 C   0  0  0  0  0  0  0  0  0  0  0  0
   -6.2213    0.1296    0.2652 O   0  0  0  0  0  0  0  0  0  0  0  0
   -6.7088   -2.1270    0.7168 C   0  0  0  0  0  0  0  0  0  0  0  0
   -7.1713   -2.2193    1.7126 H   0  0  0  0  0  0  0  0  0  0  0  0
   -7.5511   -2.0547    0.0101 H   0  0  0  0  0  0  0  0  0  0  0  0
   -6.2485   -3.1083    0.5191 H   0  0  0  0  0  0  0  0  0  0  0  0
   -4.4733   -1.2411    0.9668 N   0  0  0  0  0  0  0  0  0  0  0  0
   -3.4203   -0.2603    0.9449 C   0  0  2  0  0  0  0  0  0  0  0  0
   -2.1242   -0.9699    0.5759 C   0  0  0  0  0  0  0  0  0  0  0  0
   -1.8694   -2.1225    0.9189 O   0  0  0  0  0  0  0  0  0  0  0  0
   -3.2916    0.4435    2.2868 C   0  0  0  0  0  0  0  0  0  0  0  0
   -4.2421   -2.1920    1.2489 H   0  0  0  0  0  0  0  0  0  0  0  0
   -3.6772    0.4622    0.1625 H   0  0  0  0  0  0  0  0  0  0  0  0
   -3.0345   -0.2644    3.0832 H   0  0  0  0  0  0  0  0  0  0  0  0
   -2.5093    1.2092    2.2599 H   0  0  0  0  0  0  0  0  0  0  0  0
   -4.2338    0.9283    2.5645 H   0  0  0  0  0  0  0  0  0  0  0  0
   -1.2626   -0.1515   -0.1463 N   0  0  0  0  0  0  0  0  0  0  0  0
    0.0431   -0.5785   -0.5755 C   0  0  2  0  0  0  0  0  0  0  0  0
   -0.0875   -1.9809   -1.1548 C   0  0  0  0  0  0  0  0  0  0  0  0
   -1.1199   -2.3980   -1.6757 O   0  0  0  0  0  0  0  0  0  0  0  0
    1.0383   -0.5557    0.5742 C   0  0  0  0  0  0  0  0  0  0  0  0
   -1.5766    0.7776   -0.4197 H   0  0  0  0  0  0  0  0  0  0  0  0
    0.3595    0.1145   -1.3628 H   0  0  0  0  0  0  0  0  0  0  0  0
    0.7380   -1.2440    1.3727 H   0  0  0  0  0  0  0  0  0  0  0  0
    2.0376   -0.8534    0.2398 H   0  0  0  0  0  0  0  0  0  0  0  0
    1.1088    0.4472    1.0088 H   0  0  0  0  0  0  0  0  0  0  0  0
    1.0709   -2.7313   -0.9846 N   0  0  0  0  0  0  0  0  0  0  0  0
    1.1826   -4.1018   -1.4095 C   0  0  2  0  0  0  0  0  0  0  0  0
    2.1173   -4.8187   -0.4441 C   0  0  0  0  0  0  0  0  0  0  0  0
    3.0800   -4.2709    0.0890 O   0  0  0  0  0  0  0  0  0  0  0  0
    1.6976   -4.1982   -2.8372 C   0  0  0  0  0  0  0  0  0  0  0  0
    1.8916   -2.2876   -0.5770 H   0  0  0  0  0  0  0  0  0  0  0  0
    0.1800   -4.5374   -1.3394 H   0  0  0  0  0  0  0  0  0  0  0  0
    2.7012   -3.7667   -2.9271 H   0  0  0  0  0  0  0  0  0  0  0  0
    1.7550   -5.2402   -3.1688 H   0  0  0  0  0  0  0  0  0  0  0  0
    1.0402   -3.6568   -3.5260 H   0  0  0  0  0  0  0  0  0  0  0  0
    1.7753   -6.1539   -0.2814 N   0  0  0  0  0  0  0  0  0  0  0  0
    2.5347   -7.0572    0.5514 C   0  0  0  0  0  0  0  0  0  0  0  0
    0.9381   -6.5136   -0.7301 H   0  0  0  0  0  0  0  0  0  0  0  0
    3.2910   -7.5718   -0.0596 H   0  0  0  0  0  0  0  0  0  0  0  0
    3.0335   -6.4881    1.3496 H   0  0  0  0  0  0  0  0  0  0  0  0
    1.8577   -7.7999    0.9987 H   0  0  0  0  0  0  0  0  0  0  0  0
  1  3  1  0  0  0  0
  1  7  1  0  0  0  0
  1  2  2  0  0  0  0
 28 29  1  0  0  0  0
 29 37  1  0  0  0  0
 29 30  2  0  0  0  0
 18 19  1  0  0  0  0
 19 27  1  0  0  0  0
 19 20  2  0  0  0  0
  8  9  1  0  0  0  0
  9 17  1  0  0  0  0
  9 10  2  0  0  0  0
 28 31  1  0  0  0  0
 18 21  1  0  0  0  0
  8 11  1  0  0  0  0
 37 38  1  0  0  0  0
 27 28  1  0  0  0  0
 17 18  1  0  0  0  0
  7  8  1  0  0  0  0
  3  4  1  0  0  0  0
  3  5  1  0  0  0  0
  3  6  1  0  0  0  0
 31 34  1  0  0  0  0
 31 35  1  0  0  0  0
 31 36  1  0  0  0  0
 21 24  1  0  0  0  0
 21 25  1  0  0  0  0
 21 26  1  0  0  0  0
 11 14  1  0  0  0  0
 11 15  1  0  0  0  0
 11 16  1  0  0  0  0
 38 40  1  0  0  0  0
 38 41  1  0  0  0  0
 38 42  1  0  0  0  0
 28 33  1  0  0  0  0
 18 23  1  0  0  0  0
  8 13  1  0  0  0  0
 37 39  1  0  0  0  0
  7 12  1  0  0  0  0
 27 32  1  0  0  0  0
 17 22  1  0  0  0  0
M  END
$$$$

  -OEChem-05262214473D

 42 41  0     1  0  0  0  0  0999 V2000
   -5.7851   -0.9580    0.6237 C   0  0  0  0  0  0  0  0  0  0  0  0
   -6.2213    0.1296    0.2652 O   0  0  0  0  0  0  0  0  0  0  0  0
   -6.7088   -2.1270    0.7168 C   0  0  0  0  0  0  0  0  0  0  0  0
   -7.1713   -2.2193    1.7126 H   0  0  0  0  0  0  0  0  0  0  0  0
   -7.5511   -2.0547    0.0101 H   0  0  0  0  0  0  0  0  0  0  0  0
   -6.2485   -3.1083    0.5191 H   0  0  0  0  0  0  0  0  0  0  0  0
   -4.4733   -1.2411    0.9668 N   0  0  0  0  0  0  0  0  0  0  0  0
   -3.4203   -0.2603    0.9449 C   0  0  2  0  0  0  0  0  0  0  0  0
   -2.1242   -0.9699    0.5759 C   0  0  0  0  0  0  0  0  0  0  0  0
   -1.8694   -2.1225    0.9189 O   0  0  0  0  0  0  0  0  0  0  0  0
   -3.2916    0.4435    2.2868 C   0  0  0  0  0  0  0  0  0  0  0  0
   -4.2421   -2.1920    1.2489 H   0  0  0  0  0  0  0  0  0  0  0  0
   -3.6772    0.4622    0.1625 H   0  0  0  0  0  0  0  0  0  0  0  0
   -3.0345   -0.2644    3.0832 H   0  0  0  0  0  0  0  0  0  0  0  0
   -2.5093    1.2092    2.2599 H   0  0  0  0  0  0  0  0  0  0  0  0
   -4.2338    0.9283    2.5645 H   0  0  0  0  0  0  0  0  0  0  0  0
   -1.2626   -0.1515   -0.1463 N   0  0  0  0  0  0  0  0  0  0  0  0
    0.0431   -0.5785   -0.5755 C   0  0  2  0  0  0  0  0  0  0  0  0
   -0.0875   -1.9809   -1.1548 C   0  0  0  0  0  0  0  0  0  0  0  0
   -1.0036   -2.3148   -1.9034 O   0  0  0  0  0  0  0  0  0  0  0  0
    1.0383   -0.5557    0.5742 C   0  0  0  0  0  0  0  0  0  0  0  0
   -1.5766    0.7776   -0.4197 H   0  0  0  0  0  0  0  0  0  0  0  0
    0.3595    0.1145   -1.3628 H   0  0  0  0  0  0  0  0  0  0  0  0
    0.7380   -1.2440    1.3727 H   0  0  0  0  0  0  0  0  0  0  0  0
    2.0376   -0.8534    0.2398 H   0  0  0  0  0  0  0  0  0  0  0  0
    1.1088    0.4472    1.0088 H   0  0  0  0  0  0  0  0  0  0  0  0
    0.9154   -2.8325   -0.7045 N   0  0  0  0  0  0  0  0  0  0  0  0
    0.9856   -4.2211   -1.0762 C   0  0  2  0  0  0  0  0  0  0  0  0
    1.5871   -4.9909    0.0922 C   0  0  0  0  0  0  0  0  0  0  0  0
    2.4462   -4.5198    0.8346 O   0  0  0  0  0  0  0  0  0  0  0  0
    1.8121   -4.4150   -2.3379 C   0  0  0  0  0  0  0  0  0  0  0  0
    1.6566   -2.4558   -0.1168 H   0  0  0  0  0  0  0  0  0  0  0  0
   -0.0438   -4.5561   -1.2437 H   0  0  0  0  0  0  0  0  0  0  0  0
    2.8467   -4.0849   -2.1893 H   0  0  0  0  0  0  0  0  0  0  0  0
    1.8408   -5.4685   -2.6354 H   0  0  0  0  0  0  0  0  0  0  0  0
    1.3950   -3.8370   -3.1697 H   0  0  0  0  0  0  0  0  0  0  0  0
    1.0831   -6.2809    0.1821 N   0  0  0  0  0  0  0  0  0  0  0  0
    1.5278   -7.2238    1.1816 C   0  0  0  0  0  0  0  0  0  0  0  0
    0.3443   -6.5738   -0.4504 H   0  0  0  0  0  0  0  0  0  0  0  0
    2.3515   -7.8289    0.7749 H   0  0  0  0  0  0  0  0  0  0  0  0
    1.8780   -6.6781    2.0702 H   0  0  0  0  0  0  0  0  0  0  0  0
    0.6925   -7.8825    1.4614 H   0  0  0  0  0  0  0  0  0  0  0  0
  1  3  1  0  0  0  0
  1  7  1  0  0  0  0
  1  2  2  0  0  0  0
 28 29  1  0  0  0  0
 29 37  1  0  0  0  0
 29 30  2  0  0  0  0
 18 19  1  0  0  0  0
 19 27  1  0  0  0  0
 19 20  2  0  0  0  0
  8  9  1  0  0  0  0
  9 17  1  0  0  0  0
  9 10  2  0  0  0  0
 28 31  1  0  0  0  0
 18 21  1  0  0  0  0
  8 11  1  0  0  0  0
 37 38  1  0  0  0  0
 27 28  1  0  0  0  0
 17 18  1  0  0  0  0
  7  8  1  0  0  0  0
  3  4  1  0  0  0  0
  3  5  1  0  0  0  0
  3  6  1  0  0  0  0
 31 34  1  0  0  0  0
 31 35  1  0  0  0  0
 31 36  1  0  0  0  0
 21 24  1  0  0  0  0
 21 25  1  0  0  0  0
 21 26  1  0  0  0  0
 11 14  1  0  0  0  0
 11 15  1  0  0  0  0
 11 16  1  0  0  0  0
 38 40  1  0  0  0  0
 38 41  1  0  0  0  0
 38 42  1  0  0  0  0
 28 33  1  0  0  0  0
 18 23  1  0  0  0  0
  8 13  1  0  0  0  0
 37 39  1  0  0  0  0
  7 12  1  0  0  0  0
 27 32  1  0  0  0  0
 17 22  1  0  0  0  0
M  END
$$$$

  -OEChem-05262214473D

 42 41  0     1  0  0  0  0  0999 V2000
   -5.7851   -0.9580    0.6237 C   0  0  0  0  0  0  0  0  0  0  0  0
   -6.2213    0.1296    0.2652 O   0  0  0  0  0  0  0  0  0  0  0  0
   -6.7088   -2.1270    0.7168 C   0  0  0  0  0  0  0  0  0  0  0  0
   -7.1713   -2.2193    1.7126 H   0  0  0  0  0  0  0  0  0  0  0  0
   -7.5511   -2.0547    0.0101 H   0  0  0  0  0  0  0  0  0  0  0  0
   -6.2485   -3.1083    0.5191 H   0  0  0  0  0  0  0  0  0  0  0  0
   -4.4733   -1.2411    0.9668 N   0  0  0  0  0  0  0  0  0  0  0  0
   -3.4203   -0.2603    0.9449 C   0  0  2  0  0  0  0  0  0  0  0  0
   -2.1242   -0.9699    0.5759 C   0  0  0  0  0  0  0  0  0  0  0  0
   -1.8694   -2.1225    0.9189 O   0  0  0  0  0  0  0  0  0  0  0  0
   -3.2916    0.4435    2.2868 C   0  0  0  0  0  0  0  0  0  0  0  0
   -4.2421   -2.1920    1.2489 H   0  0  0  0  0  0  0  0  0  0  0  0
   -3.6772    0.4622    0.1625 H   0  0  0  0  0  0  0  0  0  0  0  0
   -3.0345   -0.2644    3.0832 H   0  0  0  0  0  0  0  0  0  0  0  0
   -2.5093    1.2092    2.2599 H   0  0  0  0  0  0  0  0  0  0  0  0
   -4.2338    0.9283    2.5645 H   0  0  0  0  0  0  0  0  0  0  0  0
   -1.2626   -0.1515   -0.1463 N   0  0  0  0  0  0  0  0  0  0  0  0
    0.0431   -0.5785   -0.5755 C   0  0  2  0  0  0  0  0  0  0  0  0
   -0.0875   -1.9809   -1.1548 C   0  0  0  0  0  0  0  0  0  0  0  0
   -0.8287   -2.2509   -2.0975 O   0  0  0  0  0  0  0  0  0  0  0  0
    1.0383   -0.5557    0.5742 C   0  0  0  0  0  0  0  0  0  0  0  0
   -1.5766    0.7776   -0.4197 H   0  0  0  0  0  0  0  0  0  0  0  0
    0.3595    0.1145   -1.3628 H   0  0  0  0  0  0  0  0  0  0  0  0
    0.7380   -1.2440    1.3727 H   0  0  0  0  0  0  0  0  0  0  0  0
    2.0376   -0.8534    0.2398 H   0  0  0  0  0  0  0  0  0  0  0  0
    1.1088    0.4472    1.0088 H   0  0  0  0  0  0  0  0  0  0  0  0
    0.6885   -2.9087   -0.4687 N   0  0  0  0  0  0  0  0  0  0  0  0
    0.7041   -4.3096   -0.7985 C   0  0  2  0  0  0  0  0  0  0  0  0
    0.9303   -5.0931    0.4877 C   0  0  0  0  0  0  0  0  0  0  0  0
    1.6318   -4.6814    1.4094 O   0  0  0  0  0  0  0  0  0  0  0  0
    1.7823   -4.6247   -1.8236 C   0  0  0  0  0  0  0  0  0  0  0  0
    1.3033   -2.5849    0.2754 H   0  0  0  0  0  0  0  0  0  0  0  0
   -0.2846   -4.5500   -1.2042 H   0  0  0  0  0  0  0  0  0  0  0  0
    2.7801   -4.3903   -1.4350 H   0  0  0  0  0  0  0  0  0  0  0  0
    1.7741   -5.6856   -2.0948 H   0  0  0  0  0  0  0  0  0  0  0  0
    1.6351   -4.0382   -2.7369 H   0  0  0  0  0  0  0  0  0  0  0  0
    0.2915   -6.3250    0.4675 N   0  0  0  0  0  0  0  0  0  0  0  0
    0.3887   -7.2715    1.5541 C   0  0  0  0  0  0  0  0  0  0  0  0
   -0.3019   -6.5673   -0.3204 H   0  0  0  0  0  0  0  0  0  0  0  0
    1.2198   -7.9663    1.3627 H   0  0  0  0  0  0  0  0  0  0  0  0
    0.5715   -6.7319    2.4951 H   0  0  0  0  0  0  0  0  0  0  0  0
   -0.5513   -7.8374    1.6325 H   0  0  0  0  0  0  0  0  0  0  0  0
  1  3  1  0  0  0  0
  1  7  1  0  0  0  0
  1  2  2  0  0  0  0
 28 29  1  0  0  0  0
 29 37  1  0  0  0  0
 29 30  2  0  0  0  0
 18 19  1  0  0  0  0
 19 27  1  0  0  0  0
 19 20  2  0  0  0  0
  8  9  1  0  0  0  0
  9 17  1  0  0  0  0
  9 10  2  0  0  0  0
 28 31  1  0  0  0  0
 18 21  1  0  0  0  0
  8 11  1  0  0  0  0
 37 38  1  0  0  0  0
 27 28  1  0  0  0  0
 17 18  1  0  0  0  0
  7  8  1  0  0  0  0
  3  4  1  0  0  0  0
  3  5  1  0  0  0  0
  3  6  1  0  0  0  0
 31 34  1  0  0  0  0
 31 35  1  0  0  0  0
 31 36  1  0  0  0  0
 21 24  1  0  0  0  0
 21 25  1  0  0  0  0
 21 26  1  0  0  0  0
 11 14  1  0  0  0  0
 11 15  1  0  0  0  0
 11 16  1  0  0  0  0
 38 40  1  0  0  0  0
 38 41  1  0  0  0  0
 38 42  1  0  0  0  0
 28 33  1  0  0  0  0
 18 23  1  0  0  0  0
  8 13  1  0  0  0  0
 37 39  1  0  0  0  0
  7 12  1  0  0  0  0
 27 32  1  0  0  0  0
 17 22  1  0  0  0  0
M  END
$$$$

  -OEChem-05262214473D

 42 41  0     1  0  0  0  0  0999 V2000
   -5.7851   -0.9580    0.6237 C   0  0  0  0  0  0  0  0  0  0  0  0
   -6.2213    0.1296    0.2652 O   0  0  0  0  0  0  0  0  0  0  0  0
   -6.7088   -2.1270    0.7168 C   0  0  0  0  0  0  0  0  0  0  0  0
   -7.1713   -2.2193    1.7126 H   0  0  0  0  0  0  0  0  0  0  0  0
   -7.5511   -2.0547    0.0101 H   0  0  0  0  0  0  0  0  0  0  0  0
   -6.2485   -3.1083    0.5191 H   0  0  0  0  0  0  0  0  0  0  0  0
   -4.4733   -1.2411    0.9668 N   0  0  0  0  0  0  0  0  0  0  0  0
   -3.4203   -0.2603    0.9449 C   0  0  2  0  0  0  0  0  0  0  0  0
   -2.1242   -0.9699    0.5759 C   0  0  0  0  0  0  0  0  0  0  0  0
   -1.8694   -2.1225    0.9189 O   0  0  0  0  0  0  0  0  0  0  0  0
   -3.2916    0.4435    2.2868 C   0  0  0  0  0  0  0  0  0  0  0  0
   -4.2421   -2.1920    1.2489 H   0  0  0  0  0  0  0  0  0  0  0  0
   -3.6772    0.4622    0.1625 H   0  0  0  0  0  0  0  0  0  0  0  0
   -3.0345   -0.2644    3.0832 H   0  0  0  0  0  0  0  0  0  0  0  0
   -2.5093    1.2092    2.2599 H   0  0  0  0  0  0  0  0  0  0  0  0
   -4.2338    0.9283    2.5645 H   0  0  0  0  0  0  0  0  0  0  0  0
   -1.2626   -0.1515   -0.1463 N   0  0  0  0  0  0  0  0  0  0  0  0
    0.0431   -0.5785   -0.5755 C   0  0  2  0  0  0  0  0  0  0  0  0
   -0.0875   -1.9809   -1.1548 C   0  0  0  0  0  0  0  0  0  0  0  0
   -0.6073   -2.2107   -2.2448 O   0  0  0  0  0  0  0  0  0  0  0  0
    1.0383   -0.5557    0.5742 C   0  0  0  0  0  0  0  0  0  0  0  0
   -1.5766    0.7776   -0.4197 H   0  0  0  0  0  0  0  0  0  0  0  0
    0.3595    0.1145   -1.3628 H   0  0  0  0  0  0  0  0  0  0  0  0
    0.7380   -1.2440    1.3727 H   0  0  0  0  0  0  0  0  0  0  0  0
    2.0376   -0.8534    0.2398 H   0  0  0  0  0  0  0  0  0  0  0  0
    1.1088    0.4472    1.0088 H   0  0  0  0  0  0  0  0  0  0  0  0
    0.4057   -2.9548   -0.2934 N   0  0  0  0  0  0  0  0  0  0  0  0
    0.3573   -4.3611   -0.5955 C   0  0  2  0  0  0  0  0  0  0  0  0
    0.1914   -5.1183    0.7155 C   0  0  0  0  0  0  0  0  0  0  0  0
    0.6922   -4.7445    1.7741 O   0  0  0  0  0  0  0  0  0  0  0  0
    1.6104   -4.8129   -1.3293 C   0  0  0  0  0  0  0  0  0  0  0  0
    0.8559   -2.6662    0.5730 H   0  0  0  0  0  0  0  0  0  0  0  0
   -0.5260   -4.5195   -1.2236 H   0  0  0  0  0  0  0  0  0  0  0  0
    2.5059   -4.6619   -0.7155 H   0  0  0  0  0  0  0  0  0  0  0  0
    1.5595   -5.8767   -1.5836 H   0  0  0  0  0  0  0  0  0  0  0  0
    1.7441   -4.2465   -2.2572 H   0  0  0  0  0  0  0  0  0  0  0  0
   -0.5455   -6.2835    0.5556 N   0  0  0  0  0  0  0  0  0  0  0  0
   -0.8051   -7.1973    1.6435 C   0  0  0  0  0  0  0  0  0  0  0  0
   -0.9565   -6.4946   -0.3490 H   0  0  0  0  0  0  0  0  0  0  0  0
   -0.0269   -7.9745    1.6637 H   0  0  0  0  0  0  0  0  0  0  0  0
   -0.7971   -6.6458    2.5952 H   0  0  0  0  0  0  0  0  0  0  0  0
   -1.7891   -7.6675    1.5004 H   0  0  0  0  0  0  0  0  0  0  0  0
  1  3  1  0  0  0  0
  1  7  1  0  0  0  0
  1  2  2  0  0  0  0
 28 29  1  0  0  0  0
 29 37  1  0  0  0  0
 29 30  2  0  0  0  0
 18 19  1  0  0  0  0
 19 27  1  0  0  0  0
 19 20  2  0  0  0  0
  8  9  1  0  0  0  0
  9 17  1  0  0  0  0
  9 10  2  0  0  0  0
 28 31  1  0  0  0  0
 18 21  1  0  0  0  0
  8 11  1  0  0  0  0
 37 38  1  0  0  0  0
 27 28  1  0  0  0  0
 17 18  1  0  0  0  0
  7  8  1  0  0  0  0
  3  4  1  0  0  0  0
  3  5  1  0  0  0  0
  3  6  1  0  0  0  0
 31 34  1  0  0  0  0
 31 35  1  0  0  0  0
 31 36  1  0  0  0  0
 21 24  1  0  0  0  0
 21 25  1  0  0  0  0
 21 26  1  0  0  0  0
 11 14  1  0  0  0  0
 11 15  1  0  0  0  0
 11 16  1  0  0  0  0
 38 40  1  0  0  0  0
 38 41  1  0  0  0  0
 38 42  1  0  0  0  0
 28 33  1  0  0  0  0
 18 23  1  0  0  0  0
  8 13  1  0  0  0  0
 37 39  1  0  0  0  0
  7 12  1  0  0  0  0
 27 32  1  0  0  0  0
 17 22  1  0  0  0  0
M  END
$$$$

  -OEChem-05262214473D

 42 41  0     1  0  0  0  0  0999 V2000
   -5.7851   -0.9580    0.6237 C   0  0  0  0  0  0  0  0  0  0  0  0
   -6.2213    0.1296    0.2652 O   0  0  0  0  0  0  0  0  0  0  0  0
   -6.7088   -2.1270    0.7168 C   0  0  0  0  0  0  0  0  0  0  0  0
   -7.1713   -2.2193    1.7126 H   0  0  0  0  0  0  0  0  0  0  0  0
   -7.5511   -2.0547    0.0101 H   0  0  0  0  0  0  0  0  0  0  0  0
   -6.2485   -3.1083    0.5191 H   0  0  0  0  0  0  0  0  0  0  0  0
   -4.4733   -1.2411    0.9668 N   0  0  0  0  0  0  0  0  0  0  0  0
   -3.4203   -0.2603    0.9449 C   0  0  2  0  0  0  0  0  0  0  0  0
   -2.1242   -0.9699    0.5759 C   0  0  0  0  0  0  0  0  0  0  0  0
   -1.8694   -2.1225    0.9189 O   0  0  0  0  0  0  0  0  0  0  0  0
   -3.2916    0.4435    2.2868 C   0  0  0  0  0  0  0  0  0  0  0  0
   -4.2421   -2.1920    1.2489 H   0  0  0  0  0  0  0  0  0  0  0  0
   -3.6772    0.4622    0.1625 H   0  0  0  0  0  0  0  0  0  0  0  0
   -3.0345   -0.2644    3.0832 H   0  0  0  0  0  0  0  0  0  0  0  0
   -2.5093    1.2092    2.2599 H   0  0  0  0  0  0  0  0  0  0  0  0
   -4.2338    0.9283    2.5645 H   0  0  0  0  0  0  0  0  0  0  0  0
   -1.2626   -0.1515   -0.1463 N   0  0  0  0  0  0  0  0  0  0  0  0
    0.0431   -0.5785   -0.5755 C   0  0  2  0  0  0  0  0  0  0  0  0
   -0.0875   -1.9809   -1.1548 C   0  0  0  0  0  0  0  0  0  0  0  0
   -0.3544   -2.1970   -2.3351 O   0  0  0  0  0  0  0  0  0  0  0  0
    1.0383   -0.5557    0.5742 C   0  0  0  0  0  0  0  0  0  0  0  0
   -1.5766    0.7776   -0.4197 H   0  0  0  0  0  0  0  0  0  0  0  0
    0.3595    0.1145   -1.3628 H   0  0  0  0  0  0  0  0  0  0  0  0
    0.7380   -1.2440    1.3727 H   0  0  0  0  0  0  0  0  0  0  0  0
    2.0376   -0.8534    0.2398 H   0  0  0  0  0  0  0  0  0  0  0  0
    1.1088    0.4472    1.0088 H   0  0  0  0  0  0  0  0  0  0  0  0
    0.0862   -2.9676   -0.1904 N   0  0  0  0  0  0  0  0  0  0  0  0
   -0.0311   -4.3723   -0.4808 C   0  0  2  0  0  0  0  0  0  0  0  0
   -0.5790   -5.0650    0.7600 C   0  0  0  0  0  0  0  0  0  0  0  0
   -0.3084   -4.7049    1.9038 O   0  0  0  0  0  0  0  0  0  0  0  0
    1.3079   -4.9667   -0.8886 C   0  0  0  0  0  0  0  0  0  0  0  0
    0.3448   -2.6940    0.7556 H   0  0  0  0  0  0  0  0  0  0  0  0
   -0.7516   -4.4667   -1.3006 H   0  0  0  0  0  0  0  0  0  0  0  0
    2.0428   -4.8814   -0.0798 H   0  0  0  0  0  0  0  0  0  0  0  0
    1.2115   -6.0289   -1.1367 H   0  0  0  0  0  0  0  0  0  0  0  0
    1.7146   -4.4477   -1.7633 H   0  0  0  0  0  0  0  0  0  0  0  0
   -1.3709   -6.1589    0.4402 N   0  0  0  0  0  0  0  0  0  0  0  0
   -1.9722   -7.0060    1.4437 C   0  0  0  0  0  0  0  0  0  0  0  0
   -1.5747   -6.3605   -0.5342 H   0  0  0  0  0  0  0  0  0  0  0  0
   -1.3038   -7.8531    1.6576 H   0  0  0  0  0  0  0  0  0  0  0  0
   -2.1345   -6.4257    2.3639 H   0  0  0  0  0  0  0  0  0  0  0  0
   -2.9366   -7.3845    1.0739 H   0  0  0  0  0  0  0  0  0  0  0  0
  1  3  1  0  0  0  0
  1  7  1  0  0  0  0
  1  2  2  0  0  0  0
 28 29  1  0  0  0  0
 29 37  1  0  0  0  0
 29 30  2  0  0  0  0
 18 19  1  0  0  0  0
 19 27  1  0  0  0  0
 19 20  2  0  0  0  0
  8  9  1  0  0  0  0
  9 17  1  0  0  0  0
  9 10  2  0  0  0  0
 28 31  1  0  0  0  0
 18 21  1  0  0  0  0
  8 11  1  0  0  0  0
 37 38  1  0  0  0  0
 27 28  1  0  0  0  0
 17 18  1  0  0  0  0
  7  8  1  0  0  0  0
  3  4  1  0  0  0  0
  3  5  1  0  0  0  0
  3  6  1  0  0  0  0
 31 34  1  0  0  0  0
 31 35  1  0  0  0  0
 31 36  1  0  0  0  0
 21 24  1  0  0  0  0
 21 25  1  0  0  0  0
 21 26  1  0  0  0  0
 11 14  1  0  0  0  0
 11 15  1  0  0  0  0
 11 16  1  0  0  0  0
 38 40  1  0  0  0  0
 38 41  1  0  0  0  0
 38 42  1  0  0  0  0
 28 33  1  0  0  0  0
 18 23  1  0  0  0  0
  8 13  1  0  0  0  0
 37 39  1  0  0  0  0
  7 12  1  0  0  0  0
 27 32  1  0  0  0  0
 17 22  1  0  0  0  0
M  END
$$$$

  -OEChem-05262214473D

 42 41  0     1  0  0  0  0  0999 V2000
   -5.7851   -0.9580    0.6237 C   0  0  0  0  0  0  0  0  0  0  0  0
   -6.2213    0.1296    0.2652 O   0  0  0  0  0  0  0  0  0  0  0  0
   -6.7088   -2.1270    0.7168 C   0  0  0  0  0  0  0  0  0  0  0  0
   -7.1713   -2.2193    1.7126 H   0  0  0  0  0  0  0  0  0  0  0  0
   -7.5511   -2.0547    0.0101 H   0  0  0  0  0  0  0  0  0  0  0  0
   -6.2485   -3.1083    0.5191 H   0  0  0  0  0  0  0  0  0  0  0  0
   -4.4733   -1.2411    0.9668 N   0  0  0  0  0  0  0  0  0  0  0  0
   -3.4203   -0.2603    0.9449 C   0  0  2  0  0  0  0  0  0  0  0  0
   -2.1242   -0.9699    0.5759 C   0  0  0  0  0  0  0  0  0  0  0  0
   -1.8694   -2.1225    0.9189 O   0  0  0  0  0  0  0  0  0  0  0  0
   -3.2916    0.4435    2.2868 C   0  0  0  0  0  0  0  0  0  0  0  0
   -4.2421   -2.1920    1.2489 H   0  0  0  0  0  0  0  0  0  0  0  0
   -3.6772    0.4622    0.1625 H   0  0  0  0  0  0  0  0  0  0  0  0
   -3.0345   -0.2644    3.0832 H   0  0  0  0  0  0  0  0  0  0  0  0
   -2.5093    1.2092    2.2599 H   0  0  0  0  0  0  0  0  0  0  0  0
   -4.2338    0.9283    2.5645 H   0  0  0  0  0  0  0  0  0  0  0  0
   -1.2626   -0.1515   -0.1463 N   0  0  0  0  0  0  0  0  0  0  0  0
    0.0431   -0.5785   -0.5755 C   0  0  2  0  0  0  0  0  0  0  0  0
   -0.0875   -1.9809   -1.1548 C   0  0  0  0  0  0  0  0  0  0  0  0
   -0.0873   -2.2106   -2.3624 O   0  0  0  0  0  0  0  0  0  0  0  0
    1.0383   -0.5557    0.5742 C   0  0  0  0  0  0  0  0  0  0  0  0
   -1.5766    0.7776   -0.4197 H   0  0  0  0  0  0  0  0  0  0  0  0
    0.3595    0.1145   -1.3628 H   0  0  0  0  0  0  0  0  0  0  0  0
    0.7380   -1.2440    1.3727 H   0  0  0  0  0  0  0  0  0  0  0  0
    2.0376   -0.8534    0.2398 H   0  0  0  0  0  0  0  0  0  0  0  0
    1.1088    0.4472    1.0088 H   0  0  0  0  0  0  0  0  0  0  0  0
   -0.2483   -2.9462   -0.1668 N   0  0  0  0  0  0  0  0  0  0  0  0
   -0.4348   -4.3423   -0.4624 C   0  0  2  0  0  0  0  0  0  0  0  0
   -1.3285   -4.9366    0.6182 C   0  0  0  0  0  0  0  0  0  0  0  0
   -1.3020   -4.5652    1.7897 O   0  0  0  0  0  0  0  0  0  0  0  0
    0.8956   -5.0758   -0.5316 C   0  0  0  0  0  0  0  0  0  0  0  0
   -0.1951   -2.6665    0.8107 H   0  0  0  0  0  0  0  0  0  0  0  0
   -0.9460   -4.3952   -1.4298 H   0  0  0  0  0  0  0  0  0  0  0  0
    1.4224   -5.0336    0.4287 H   0  0  0  0  0  0  0  0  0  0  0  0
    0.7539   -6.1317   -0.7847 H   0  0  0  0  0  0  0  0  0  0  0  0
    1.5485   -4.6283   -1.2887 H   0  0  0  0  0  0  0  0  0  0  0  0
   -2.1284   -5.9600    0.1293 N   0  0  0  0  0  0  0  0  0  0  0  0
   -3.0330   -6.7109    0.9682 C   0  0  0  0  0  0  0  0  0  0  0  0
   -2.1145   -6.1742   -0.8635 H   0  0  0  0  0  0  0  0  0  0  0  0
   -2.5237   -7.6102    1.3447 H   0  0  0  0  0  0  0  0  0  0  0  0
   -3.3495   -6.0866    1.8168 H   0  0  0  0  0  0  0  0  0  0  0  0
   -3.9154   -7.0076    0.3822 H   0  0  0  0  0  0  0  0  0  0  0  0
  1  3  1  0  0  0  0
  1  7  1  0  0  0  0
  1  2  2  0  0  0  0
 28 29  1  0  0  0  0
 29 37  1  0  0  0  0
 29 30  2  0  0  0  0
 18 19  1  0  0  0  0
 19 27  1  0  0  0  0
 19 20  2  0  0  0  0
  8  9  1  0  0  0  0
  9 17  1  0  0  0  0
  9 10  2  0  0  0  0
 28 31  1  0  0  0  0
 18 21  1  0  0  0  0
  8 11  1  0  0  0  0
 37 38  1  0  0  0  0
 27 28  1  0  0  0  0
 17 18  1  0  0  0  0
  7  8  1  0  0  0  0
  3  4  1  0  0  0  0
  3  5  1  0  0  0  0
  3  6  1  0  0  0  0
 31 34  1  0  0  0  0
 31 35  1  0  0  0  0
 31 36  1  0  0  0  0
 21 24  1  0  0  0  0
 21 25  1  0  0  0  0
 21 26  1  0  0  0  0
 11 14  1  0  0  0  0
 11 15  1  0  0  0  0
 11 16  1  0  0  0  0
 38 40  1  0  0  0  0
 38 41  1  0  0  0  0
 38 42  1  0  0  0  0
 28 33  1  0  0  0  0
 18 23  1  0  0  0  0
  8 13  1  0  0  0  0
 37 39  1  0  0  0  0
  7 12  1  0  0  0  0
 27 32  1  0  0  0  0
 17 22  1  0  0  0  0
M  END
$$$$

  -OEChem-05262214473D

 42 41  0     1  0  0  0  0  0999 V2000
   -5.7851   -0.9580    0.6237 C   0  0  0  0  0  0  0  0  0  0  0  0
   -6.2213    0.1296    0.2652 O   0  0  0  0  0  0  0  0  0  0  0  0
   -6.7088   -2.1270    0.7168 C   0  0  0  0  0  0  0  0  0  0  0  0
   -7.1713   -2.2193    1.7126 H   0  0  0  0  0  0  0  0  0  0  0  0
   -7.5511   -2.0547    0.0101 H   0  0  0  0  0  0  0  0  0  0  0  0
   -6.2485   -3.1083    0.5191 H   0  0  0  0  0  0  0  0  0  0  0  0
   -4.4733   -1.2411    0.9668 N   0  0  0  0  0  0  0  0  0  0  0  0
   -3.4203   -0.2603    0.9449 C   0  0  2  0  0  0  0  0  0  0  0  0
   -2.1242   -0.9699    0.5759 C   0  0  0  0  0  0  0  0  0  0  0  0
   -1.8694   -2.1225    0.9189 O   0  0  0  0  0  0  0  0  0  0  0  0
   -3.2916    0.4435    2.2868 C   0  0  0  0  0  0  0  0  0  0  0  0
   -4.2421   -2.1920    1.2489 H   0  0  0  0  0  0  0  0  0  0  0  0
   -3.6772    0.4622    0.1625 H   0  0  0  0  0  0  0  0  0  0  0  0
   -3.0345   -0.2644    3.0832 H   0  0  0  0  0  0  0  0  0  0  0  0
   -2.5093    1.2092    2.2599 H   0  0  0  0  0  0  0  0  0  0  0  0
   -4.2338    0.9283    2.5645 H   0  0  0  0  0  0  0  0  0  0  0  0
   -1.2626   -0.1515   -0.1463 N   0  0  0  0  0  0  0  0  0  0  0  0
    0.0431   -0.5785   -0.5755 C   0  0  2  0  0  0  0  0  0  0  0  0
   -0.0875   -1.9809   -1.1548 C   0  0  0  0  0  0  0  0  0  0  0  0
    0.1760   -2.2506   -2.3248 O   0  0  0  0  0  0  0  0  0  0  0  0
    1.0383   -0.5557    0.5742 C   0  0  0  0  0  0  0  0  0  0  0  0
   -1.5766    0.7776   -0.4197 H   0  0  0  0  0  0  0  0  0  0  0  0
    0.3595    0.1145   -1.3628 H   0  0  0  0  0  0  0  0  0  0  0  0
    0.7380   -1.2440    1.3727 H   0  0  0  0  0  0  0  0  0  0  0  0
    2.0376   -0.8534    0.2398 H   0  0  0  0  0  0  0  0  0  0  0  0
    1.1088    0.4472    1.0088 H   0  0  0  0  0  0  0  0  0  0  0  0
   -0.5748   -2.8921   -0.2242 N   0  0  0  0  0  0  0  0  0  0  0  0
   -0.8261   -4.2732   -0.5415 C   0  0  2  0  0  0  0  0  0  0  0  0
   -2.0060   -4.7419    0.2997 C   0  0  0  0  0  0  0  0  0  0  0  0
   -2.2208   -4.3350    1.4396 O   0  0  0  0  0  0  0  0  0  0  0  0
    0.4015   -5.1326   -0.2826 C   0  0  0  0  0  0  0  0  0  0  0  0
   -0.7270   -2.5855    0.7347 H   0  0  0  0  0  0  0  0  0  0  0  0
   -1.0958   -4.3099   -1.6026 H   0  0  0  0  0  0  0  0  0  0  0  0
    0.6870   -5.1084    0.7755 H   0  0  0  0  0  0  0  0  0  0  0  0
    0.2178   -6.1781   -0.5514 H   0  0  0  0  0  0  0  0  0  0  0  0
    1.2572   -4.7758   -0.8659 H   0  0  0  0  0  0  0  0  0  0  0  0
   -2.7664   -5.7001   -0.3559 N   0  0  0  0  0  0  0  0  0  0  0  0
   -3.9154   -6.3319    0.2496 C   0  0  0  0  0  0  0  0  0  0  0  0
   -2.5392   -5.9485   -1.3143 H   0  0  0  0  0  0  0  0  0  0  0  0
   -3.6035   -7.2625    0.7463 H   0  0  0  0  0  0  0  0  0  0  0  0
   -4.3593   -5.6515    0.9913 H   0  0  0  0  0  0  0  0  0  0  0  0
   -4.6589   -6.5626   -0.5276 H   0  0  0  0  0  0  0  0  0  0  0  0
  1  3  1  0  0  0  0
  1  7  1  0  0  0  0
  1  2  2  0  0  0  0
 28 29  1  0  0  0  0
 29 37  1  0  0  0  0
 29 30  2  0  0  0  0
 18 19  1  0  0  0  0
 19 27  1  0  0  0  0
 19 20  2  0  0  0  0
  8  9  1  0  0  0  0
  9 17  1  0  0  0  0
  9 10  2  0  0  0  0
 28 31  1  0  0  0  0
 18 21  1  0  0  0  0
  8 11  1  0  0  0  0
 37 38  1  0  0  0  0
 27 28  1  0  0  0  0
 17 18  1  0  0  0  0
  7  8  1  0  0  0  0
  3  4  1  0  0  0  0
  3  5  1  0  0  0  0
  3  6  1  0  0  0  0
 31 34  1  0  0  0  0
 31 35  1  0  0  0  0
 31 36  1  0  0  0  0
 21 24  1  0  0  0  0
 21 25  1  0  0  0  0
 21 26  1  0  0  0  0
 11 14  1  0  0  0  0
 11 15  1  0  0  0  0
 11 16  1  0  0  0  0
 38 40  1  0  0  0  0
 38 41  1  0  0  0  0
 38 42  1  0  0  0  0
 28 33  1  0  0  0  0
 18 23  1  0  0  0  0
  8 13  1  0  0  0  0
 37 39  1  0  0  0  0
  7 12  1  0  0  0  0
 27 32  1  0  0  0  0
 17 22  1  0  0  0  0
M  END
$$$$

  -OEChem-05262214473D

 42 41  0     1  0  0  0  0  0999 V2000
   -5.7851   -0.9580    0.6237 C   0  0  0  0  0  0  0  0  0  0  0  0
   -6.2213    0.1296    0.2652 O   0  0  0  0  0  0  0  0  0  0  0  0
   -6.7088   -2.1270    0.7168 C   0  0  0  0  0  0  0  0  0  0  0  0
   -7.1713   -2.2193    1.7126 H   0  0  0  0  0  0  0  0  0  0  0  0
   -7.5511   -2.0547    0.0101 H   0  0  0  0  0  0  0  0  0  0  0  0
   -6.2485   -3.1083    0.5191 H   0  0  0  0  0  0  0  0  0  0  0  0
   -4.4733   -1.2411    0.9668 N   0  0  0  0  0  0  0  0  0  0  0  0
   -3.4203   -0.2603    0.9449 C   0  0  2  0  0  0  0  0  0  0  0  0
   -2.1242   -0.9699    0.5759 C   0  0  0  0  0  0  0  0  0  0  0  0
   -1.8694   -2.1225    0.9189 O   0  0  0  0  0  0  0  0  0  0  0  0
   -3.2916    0.4435    2.2868 C   0  0  0  0  0  0  0  0  0  0  0  0
   -4.2421   -2.1920    1.2489 H   0  0  0  0  0  0  0  0  0  0  0  0
   -3.6772    0.4622    0.1625 H   0  0  0  0  0  0  0  0  0  0  0  0
   -3.0345   -0.2644    3.0832 H   0  0  0  0  0  0  0  0  0  0  0  0
   -2.5093    1.2092    2.2599 H   0  0  0  0  0  0  0  0  0  0  0  0
   -4.2338    0.9283    2.5645 H   0  0  0  0  0  0  0  0  0  0  0  0
   -1.2626   -0.1515   -0.1463 N   0  0  0  0  0  0  0  0  0  0  0  0
    0.0431   -0.5785   -0.5755 C   0  0  2  0  0  0  0  0  0  0  0  0
   -0.0875   -1.9809   -1.1548 C   0  0  0  0  0  0  0  0  0  0  0  0
    0.4173   -2.3144   -2.2248 O   0  0  0  0  0  0  0  0  0  0  0  0
    1.0383   -0.5557    0.5742 C   0  0  0  0  0  0  0  0  0  0  0  0
   -1.5766    0.7776   -0.4197 H   0  0  0  0  0  0  0  0  0  0  0  0
    0.3595    0.1145   -1.3628 H   0  0  0  0  0  0  0  0  0  0  0  0
    0.7380   -1.2440    1.3727 H   0  0  0  0  0  0  0  0  0  0  0  0
    2.0376   -0.8534    0.2398 H   0  0  0  0  0  0  0  0  0  0  0  0
    1.1088    0.4472    1.0088 H   0  0  0  0  0  0  0  0  0  0  0  0
   -0.8713   -2.8089   -0.3586 N   0  0  0  0  0  0  0  0  0  0  0  0
   -1.1784   -4.1697   -0.7127 C   0  0  2  0  0  0  0  0  0  0  0  0
   -2.5654   -4.4943   -0.1738 C   0  0  0  0  0  0  0  0  0  0  0  0
   -3.0022   -4.0300    0.8773 O   0  0  0  0  0  0  0  0  0  0  0  0
   -0.1407   -5.1334   -0.1585 C   0  0  0  0  0  0  0  0  0  0  0  0
   -1.2148   -2.4567    0.5327 H   0  0  0  0  0  0  0  0  0  0  0  0
   -1.1910   -4.2165   -1.8071 H   0  0  0  0  0  0  0  0  0  0  0  0
   -0.1134   -5.1004    0.9368 H   0  0  0  0  0  0  0  0  0  0  0  0
   -0.3601   -6.1650   -0.4528 H   0  0  0  0  0  0  0  0  0  0  0  0
    0.8605   -4.8802   -0.5236 H   0  0  0  0  0  0  0  0  0  0  0  0
   -3.2414   -5.3971   -0.9825 N   0  0  0  0  0  0  0  0  0  0  0  0
   -4.5591   -5.8949   -0.6633 C   0  0  0  0  0  0  0  0  0  0  0  0
   -2.8196   -5.6986   -1.8560 H   0  0  0  0  0  0  0  0  0  0  0  0
   -4.4697   -6.8336   -0.0968 H   0  0  0  0  0  0  0  0  0  0  0  0
   -5.0951   -5.1502   -0.0565 H   0  0  0  0  0  0  0  0  0  0  0  0
   -5.1164   -6.0797   -1.5934 H   0  0  0  0  0  0  0  0  0  0  0  0
  1  3  1  0  0  0  0
  1  7  1  0  0  0  0
  1  2  2  0  0  0  0
 28 29  1  0  0  0  0
 29 37  1  0  0  0  0
 29 30  2  0  0  0  0
 18 19  1  0  0  0  0
 19 27  1  0  0  0  0
 19 20  2  0  0  0  0
  8  9  1  0  0  0  0
  9 17  1  0  0  0  0
  9 10  2  0  0  0  0
 28 31  1  0  0  0  0
 18 21  1  0  0  0  0
  8 11  1  0  0  0  0
 37 38  1  0  0  0  0
 27 28  1  0  0  0  0
 17 18  1  0  0  0  0
  7  8  1  0  0  0  0
  3  4  1  0  0  0  0
  3  5  1  0  0  0  0
  3  6  1  0  0  0  0
 31 34  1  0  0  0  0
 31 35  1  0  0  0  0
 31 36  1  0  0  0  0
 21 24  1  0  0  0  0
 21 25  1  0  0  0  0
 21 26  1  0  0  0  0
 11 14  1  0  0  0  0
 11 15  1  0  0  0  0
 11 16  1  0  0  0  0
 38 40  1  0  0  0  0
 38 41  1  0  0  0  0
 38 42  1  0  0  0  0
 28 33  1  0  0  0  0
 18 23  1  0  0  0  0
  8 13  1  0  0  0  0
 37 39  1  0  0  0  0
  7 12  1  0  0  0  0
 27 32  1  0  0  0  0
 17 22  1  0  0  0  0
M  END
$$$$

  -OEChem-05262214473D

 42 41  0     1  0  0  0  0  0999 V2000
   -5.7851   -0.9580    0.6237 C   0  0  0  0  0  0  0  0  0  0  0  0
   -6.2213    0.1296    0.2652 O   0  0  0  0  0  0  0  0  0  0  0  0
   -6.7088   -2.1270    0.7168 C   0  0  0  0  0  0  0  0  0  0  0  0
   -7.1713   -2.2193    1.7126 H   0  0  0  0  0  0  0  0  0  0  0  0
   -7.5511   -2.0547    0.0101 H   0  0  0  0  0  0  0  0  0  0  0  0
   -6.2485   -3.1083    0.5191 H   0  0  0  0  0  0  0  0  0  0  0  0
   -4.4733   -1.2411    0.9668 N   0  0  0  0  0  0  0  0  0  0  0  0
   -3.4203   -0.2603    0.9449 C   0  0  2  0  0  0  0  0  0  0  0  0
   -2.1242   -0.9699    0.5759 C   0  0  0  0  0  0  0  0  0  0  0  0
   -1.8694   -2.1225    0.9189 O   0  0  0  0  0  0  0  0  0  0  0  0
   -3.2916    0.4435    2.2868 C   0  0  0  0  0  0  0  0  0  0  0  0
   -4.2421   -2.1920    1.2489 H   0  0  0  0  0  0  0  0  0  0  0  0
   -3.6772    0.4622    0.1625 H   0  0  0  0  0  0  0  0  0  0  0  0
   -3.0345   -0.2644    3.0832 H   0  0  0  0  0  0  0  0  0  0  0  0
   -2.5093    1.2092    2.2599 H   0  0  0  0  0  0  0  0  0  0  0  0
   -4.2338    0.9283    2.5645 H   0  0  0  0  0  0  0  0  0  0  0  0
   -1.2626   -0.1515   -0.1463 N   0  0  0  0  0  0  0  0  0  0  0  0
    0.0431   -0.5785   -0.5755 C   0  0  2  0  0  0  0  0  0  0  0  0
   -0.0875   -1.9809   -1.1548 C   0  0  0  0  0  0  0  0  0  0  0  0
    0.6204   -2.3975   -2.0693 O   0  0  0  0  0  0  0  0  0  0  0  0
    1.0383   -0.5557    0.5742 C   0  0  0  0  0  0  0  0  0  0  0  0
   -1.5766    0.7776   -0.4197 H   0  0  0  0  0  0  0  0  0  0  0  0
    0.3595    0.1145   -1.3628 H   0  0  0  0  0  0  0  0  0  0  0  0
    0.7380   -1.2440    1.3727 H   0  0  0  0  0  0  0  0  0  0  0  0
    2.0376   -0.8534    0.2398 H   0  0  0  0  0  0  0  0  0  0  0  0
    1.1088    0.4472    1.0088 H   0  0  0  0  0  0  0  0  0  0  0  0
   -1.1174   -2.7024   -0.5610 N   0  0  0  0  0  0  0  0  0  0  0  0
   -1.4677   -4.0388   -0.9643 C   0  0  2  0  0  0  0  0  0  0  0  0
   -2.9685   -4.2105   -0.7699 C   0  0  0  0  0  0  0  0  0  0  0  0
   -3.5929   -3.6710    0.1412 O   0  0  0  0  0  0  0  0  0  0  0  0
   -0.6940   -5.0779   -0.1679 C   0  0  0  0  0  0  0  0  0  0  0  0
   -1.6251   -2.2887    0.2185 H   0  0  0  0  0  0  0  0  0  0  0  0
   -1.2251   -4.1216   -2.0294 H   0  0  0  0  0  0  0  0  0  0  0  0
   -0.9242   -5.0104    0.9016 H   0  0  0  0  0  0  0  0  0  0  0  0
   -0.9406   -6.0933   -0.4956 H   0  0  0  0  0  0  0  0  0  0  0  0
    0.3855   -4.9344   -0.2853 H   0  0  0  0  0  0  0  0  0  0  0  0
   -3.5211   -5.0715   -1.7077 N   0  0  0  0  0  0  0  0  0  0  0  0
   -4.9203   -5.4297   -1.7081 C   0  0  0  0  0  0  0  0  0  0  0  0
   -2.9369   -5.4417   -2.4516 H   0  0  0  0  0  0  0  0  0  0  0  0
   -5.0632   -6.3527   -1.1271 H   0  0  0  0  0  0  0  0  0  0  0  0
   -5.5068   -4.6168   -1.2550 H   0  0  0  0  0  0  0  0  0  0  0  0
   -5.2568   -5.5919   -2.7427 H   0  0  0  0  0  0  0  0  0  0  0  0
  1  3  1  0  0  0  0
  1  7  1  0  0  0  0
  1  2  2  0  0  0  0
 28 29  1  0  0  0  0
 29 37  1  0  0  0  0
 29 30  2  0  0  0  0
 18 19  1  0  0  0  0
 19 27  1  0  0  0  0
 19 20  2  0  0  0  0
  8  9  1  0  0  0  0
  9 17  1  0  0  0  0
  9 10  2  0  0  0  0
 28 31  1  0  0  0  0
 18 21  1  0  0  0  0
  8 11  1  0  0  0  0
 37 38  1  0  0  0  0
 27 28  1  0  0  0  0
 17 18  1  0  0  0  0
  7  8  1  0  0  0  0
  3  4  1  0  0  0  0
  3  5  1  0  0  0  0
  3  6  1  0  0  0  0
 31 34  1  0  0  0  0
 31 35  1  0  0  0  0
 31 36  1  0  0  0  0
 21 24  1  0  0  0  0
 21 25  1  0  0  0  0
 21 26  1  0  0  0  0
 11 14  1  0  0  0  0
 11 15  1  0  0  0  0
 11 16  1  0  0  0  0
 38 40  1  0  0  0  0
 38 41  1  0  0  0  0
 38 42  1  0  0  0  0
 28 33  1  0  0  0  0
 18 23  1  0  0  0  0
  8 13  1  0  0  0  0
 37 39  1  0  0  0  0
  7 12  1  0  0  0  0
 27 32  1  0  0  0  0
 17 22  1  0  0  0  0
M  END
$$$$

  -OEChem-05262214473D

 42 41  0     1  0  0  0  0  0999 V2000
   -5.7851   -0.9580    0.6237 C   0  0  0  0  0  0  0  0  0  0  0  0
   -6.2213    0.1296    0.2652 O   0  0  0  0  0  0  0  0  0  0  0  0
   -6.7088   -2.1270    0.7168 C   0  0  0  0  0  0  0  0  0  0  0  0
   -7.1713   -2.2193    1.7126 H   0  0  0  0  0  0  0  0  0  0  0  0
   -7.5511   -2.0547    0.0101 H   0  0  0  0  0  0  0  0  0  0  0  0
   -6.2485   -3.1083    0.5191 H   0  0  0  0  0  0  0  0  0  0  0  0
   -4.4733   -1.2411    0.9668 N   0  0  0  0  0  0  0  0  0  0  0  0
   -3.4203   -0.2603    0.9449 C   0  0  2  0  0  0  0  0  0  0  0  0
   -2.1242   -0.9699    0.5759 C   0  0  0  0  0  0  0  0  0  0  0  0
   -1.8694   -2.1225    0.9189 O   0  0  0  0  0  0  0  0  0  0  0  0
   -3.2916    0.4435    2.2868 C   0  0  0  0  0  0  0  0  0  0  0  0
   -4.2421   -2.1920    1.2489 H   0  0  0  0  0  0  0  0  0  0  0  0
   -3.6772    0.4622    0.1625 H   0  0  0  0  0  0  0  0  0  0  0  0
   -3.0345   -0.2644    3.0832 H   0  0  0  0  0  0  0  0  0  0  0  0
   -2.5093    1.2092    2.2599 H   0  0  0  0  0  0  0  0  0  0  0  0
   -4.2338    0.9283    2.5645 H   0  0  0  0  0  0  0  0  0  0  0  0
   -1.2626   -0.1515   -0.1463 N   0  0  0  0  0  0  0  0  0  0  0  0
    0.0431   -0.5785   -0.5755 C   0  0  2  0  0  0  0  0  0  0  0  0
   -0.0875   -1.9809   -1.1548 C   0  0  0  0  0  0  0  0  0  0  0  0
    0.7713   -2.4944   -1.8689 O   0  0  0  0  0  0  0  0  0  0  0  0
    1.0383   -0.5557    0.5742 C   0  0  0  0  0  0  0  0  0  0  0  0
   -1.5766    0.7776   -0.4197 H   0  0  0  0  0  0  0  0  0  0  0  0
    0.3595    0.1145   -1.3628 H   0  0  0  0  0  0  0  0  0  0  0  0
    0.7380   -1.2440    1.3727 H   0  0  0  0  0  0  0  0  0  0  0  0
    2.0376   -0.8534    0.2398 H   0  0  0  0  0  0  0  0  0  0  0  0
    1.1088    0.4472    1.0088 H   0  0  0  0  0  0  0  0  0  0  0  0
   -1.2964   -2.5798   -0.8175 N   0  0  0  0  0  0  0  0  0  0  0  0
   -1.6744   -3.8895   -1.2793 C   0  0  2  0  0  0  0  0  0  0  0  0
   -3.1878   -3.9100   -1.4480 C   0  0  0  0  0  0  0  0  0  0  0  0
   -3.9527   -3.2823   -0.7185 O   0  0  0  0  0  0  0  0  0  0  0  0
   -1.2208   -4.9701   -0.3102 C   0  0  0  0  0  0  0  0  0  0  0  0
   -1.9300   -2.0930   -0.1865 H   0  0  0  0  0  0  0  0  0  0  0  0
   -1.1956   -4.0314   -2.2543 H   0  0  0  0  0  0  0  0  0  0  0  0
   -1.6901   -4.8444    0.6724 H   0  0  0  0  0  0  0  0  0  0  0  0
   -1.4840   -5.9678   -0.6769 H   0  0  0  0  0  0  0  0  0  0  0  0
   -0.1354   -4.9347   -0.1670 H   0  0  0  0  0  0  0  0  0  0  0  0
   -3.5864   -4.7456   -2.4820 N   0  0  0  0  0  0  0  0  0  0  0  0
   -4.9743   -4.9679   -2.8138 C   0  0  0  0  0  0  0  0  0  0  0  0
   -2.8829   -5.1952   -3.0605 H   0  0  0  0  0  0  0  0  0  0  0  0
   -5.3436   -5.8527   -2.2745 H   0  0  0  0  0  0  0  0  0  0  0  0
   -5.5663   -4.0877   -2.5227 H   0  0  0  0  0  0  0  0  0  0  0  0
   -5.0704   -5.1325   -3.8972 H   0  0  0  0  0  0  0  0  0  0  0  0
  1  3  1  0  0  0  0
  1  7  1  0  0  0  0
  1  2  2  0  0  0  0
 28 29  1  0  0  0  0
 29 37  1  0  0  0  0
 29 30  2  0  0  0  0
 18 19  1  0  0  0  0
 19 27  1  0  0  0  0
 19 20  2  0  0  0  0
  8  9  1  0  0  0  0
  9 17  1  0  0  0  0
  9 10  2  0  0  0  0
 28 31  1  0  0  0  0
 18 21  1  0  0  0  0
  8 11  1  0  0  0  0
 37 38  1  0  0  0  0
 27 28  1  0  0  0  0
 17 18  1  0  0  0  0
  7  8  1  0  0  0  0
  3  4  1  0  0  0  0
  3  5  1  0  0  0  0
  3  6  1  0  0  0  0
 31 34  1  0  0  0  0
 31 35  1  0  0  0  0
 31 36  1  0  0  0  0
 21 24  1  0  0  0  0
 21 25  1  0  0  0  0
 21 26  1  0  0  0  0
 11 14  1  0  0  0  0
 11 15  1  0  0  0  0
 11 16  1  0  0  0  0
 38 40  1  0  0  0  0
 38 41  1  0  0  0  0
 38 42  1  0  0  0  0
 28 33  1  0  0  0  0
 18 23  1  0  0  0  0
  8 13  1  0  0  0  0
 37 39  1  0  0  0  0
  7 12  1  0  0  0  0
 27 32  1  0  0  0  0
 17 22  1  0  0  0  0
M  END
$$$$

  -OEChem-05262214473D

 42 41  0     1  0  0  0  0  0999 V2000
   -5.7851   -0.9580    0.6237 C   0  0  0  0  0  0  0  0  0  0  0  0
   -6.2213    0.1296    0.2652 O   0  0  0  0  0  0  0  0  0  0  0  0
   -6.7088   -2.1270    0.7168 C   0  0  0  0  0  0  0  0  0  0  0  0
   -7.1713   -2.2193    1.7126 H   0  0  0  0  0  0  0  0  0  0  0  0
   -7.5511   -2.0547    0.0101 H   0  0  0  0  0  0  0  0  0  0  0  0
   -6.2485   -3.1083    0.5191 H   0  0  0  0  0  0  0  0  0  0  0  0
   -4.4733   -1.2411    0.9668 N   0  0  0  0  0  0  0  0  0  0  0  0
   -3.4203   -0.2603    0.9449 C   0  0  2  0  0  0  0  0  0  0  0  0
   -2.1242   -0.9699    0.5759 C   0  0  0  0  0  0  0  0  0  0  0  0
   -1.8694   -2.1225    0.9189 O   0  0  0  0  0  0  0  0  0  0  0  0
   -3.2916    0.4435    2.2868 C   0  0  0  0  0  0  0  0  0  0  0  0
   -4.2421   -2.1920    1.2489 H   0  0  0  0  0  0  0  0  0  0  0  0
   -3.6772    0.4622    0.1625 H   0  0  0  0  0  0  0  0  0  0  0  0
   -3.0345   -0.2644    3.0832 H   0  0  0  0  0  0  0  0  0  0  0  0
   -2.5093    1.2092    2.2599 H   0  0  0  0  0  0  0  0  0  0  0  0
   -4.2338    0.9283    2.5645 H   0  0  0  0  0  0  0  0  0  0  0  0
   -1.2626   -0.1515   -0.1463 N   0  0  0  0  0  0  0  0  0  0  0  0
    0.0431   -0.5785   -0.5755 C   0  0  2  0  0  0  0  0  0  0  0  0
   -0.0875   -1.9809   -1.1548 C   0  0  0  0  0  0  0  0  0  0  0  0
    0.8597   -2.5983   -1.6372 O   0  0  0  0  0  0  0  0  0  0  0  0
    1.0383   -0.5557    0.5742 C   0  0  0  0  0  0  0  0  0  0  0  0
   -1.5766    0.7776   -0.4197 H   0  0  0  0  0  0  0  0  0  0  0  0
    0.3595    0.1145   -1.3628 H   0  0  0  0  0  0  0  0  0  0  0  0
    0.7380   -1.2440    1.3727 H   0  0  0  0  0  0  0  0  0  0  0  0
    2.0376   -0.8534    0.2398 H   0  0  0  0  0  0  0  0  0  0  0  0
    1.1088    0.4472    1.0088 H   0  0  0  0  0  0  0  0  0  0  0  0
   -1.3961   -2.4494   -1.1106 N   0  0  0  0  0  0  0  0  0  0  0  0
   -1.7842   -3.7319   -1.6360 C   0  0  2  0  0  0  0  0  0  0  0  0
   -3.2085   -3.6131   -2.1621 C   0  0  0  0  0  0  0  0  0  0  0  0
   -4.0571   -2.8906   -1.6434 O   0  0  0  0  0  0  0  0  0  0  0  0
   -1.6852   -4.8173   -0.5755 C   0  0  0  0  0  0  0  0  0  0  0  0
   -2.1087   -1.8829   -0.6548 H   0  0  0  0  0  0  0  0  0  0  0  0
   -1.1047   -3.9522   -2.4665 H   0  0  0  0  0  0  0  0  0  0  0  0
   -2.3590   -4.6138    0.2648 H   0  0  0  0  0  0  0  0  0  0  0  0
   -1.9533   -5.7971   -0.9843 H   0  0  0  0  0  0  0  0  0  0  0  0
   -0.6669   -4.8811   -0.1770 H   0  0  0  0  0  0  0  0  0  0  0  0
   -3.4328   -4.4416   -3.2527 N   0  0  0  0  0  0  0  0  0  0  0  0
   -4.7176   -4.5412   -3.9049 C   0  0  0  0  0  0  0  0  0  0  0  0
   -2.6613   -4.9759   -3.6414 H   0  0  0  0  0  0  0  0  0  0  0  0
   -5.2918   -5.3676   -3.4607 H   0  0  0  0  0  0  0  0  0  0  0  0
   -5.2696   -3.5989   -3.7731 H   0  0  0  0  0  0  0  0  0  0  0  0
   -4.5701   -4.7326   -4.9780 H   0  0  0  0  0  0  0  0  0  0  0  0
  1  3  1  0  0  0  0
  1  7  1  0  0  0  0
  1  2  2  0  0  0  0
 28 29  1  0  0  0  0
 29 37  1  0  0  0  0
 29 30  2  0  0  0  0
 18 19  1  0  0  0  0
 19 27  1  0  0  0  0
 19 20  2  0  0  0  0
  8  9  1  0  0  0  0
  9 17  1  0  0  0  0
  9 10  2  0  0  0  0
 28 31  1  0  0  0  0
 18 21  1  0  0  0  0
  8 11  1  0  0  0  0
 37 38  1  0  0  0  0
 27 28  1  0  0  0  0
 17 18  1  0  0  0  0
  7  8  1  0  0  0  0
  3  4  1  0  0  0  0
  3  5  1  0  0  0  0
  3  6  1  0  0  0  0
 31 34  1  0  0  0  0
 31 35  1  0  0  0  0
 31 36  1  0  0  0  0
 21 24  1  0  0  0  0
 21 25  1  0  0  0  0
 21 26  1  0  0  0  0
 11 14  1  0  0  0  0
 11 15  1  0  0  0  0
 11 16  1  0  0  0  0
 38 40  1  0  0  0  0
 38 41  1  0  0  0  0
 38 42  1  0  0  0  0
 28 33  1  0  0  0  0
 18 23  1  0  0  0  0
  8 13  1  0  0  0  0
 37 39  1  0  0  0  0
  7 12  1  0  0  0  0
 27 32  1  0  0  0  0
 17 22  1  0  0  0  0
M  END
$$$$

  -OEChem-05262214473D

 42 41  0     1  0  0  0  0  0999 V2000
   -5.7851   -0.9580    0.6237 C   0  0  0  0  0  0  0  0  0  0  0  0
   -6.2213    0.1296    0.2652 O   0  0  0  0  0  0  0  0  0  0  0  0
   -6.7088   -2.1270    0.7168 C   0  0  0  0  0  0  0  0  0  0  0  0
   -7.1713   -2.2193    1.7126 H   0  0  0  0  0  0  0  0  0  0  0  0
   -7.5511   -2.0547    0.0101 H   0  0  0  0  0  0  0  0  0  0  0  0
   -6.2485   -3.1083    0.5191 H   0  0  0  0  0  0  0  0  0  0  0  0
   -4.4733   -1.2411    0.9668 N   0  0  0  0  0  0  0  0  0  0  0  0
   -3.4203   -0.2603    0.9449 C   0  0  2  0  0  0  0  0  0  0  0  0
   -2.1242   -0.9699    0.5759 C   0  0  0  0  0  0  0  0  0  0  0  0
   -1.8694   -2.1225    0.9189 O   0  0  0  0  0  0  0  0  0  0  0  0
   -3.2916    0.4435    2.2868 C   0  0  0  0  0  0  0  0  0  0  0  0
   -4.2421   -2.1920    1.2489 H   0  0  0  0  0  0  0  0  0  0  0  0
   -3.6772    0.4622    0.1625 H   0  0  0  0  0  0  0  0  0  0  0  0
   -3.0345   -0.2644    3.0832 H   0  0  0  0  0  0  0  0  0  0  0  0
   -2.5093    1.2092    2.2599 H   0  0  0  0  0  0  0  0  0  0  0  0
   -4.2338    0.9283    2.5645 H   0  0  0  0  0  0  0  0  0  0  0  0
   -1.2626   -0.1515   -0.1463 N   0  0  0  0  0  0  0  0  0  0  0  0
    0.0431   -0.5785   -0.5755 C   0  0  2  0  0  0  0  0  0  0  0  0
   -0.0875   -1.9809   -1.1548 C   0  0  0  0  0  0  0  0  0  0  0  0
    0.8797   -2.7023   -1.3900 O   0  0  0  0  0  0  0  0  0  0  0  0
    1.0383   -0.5557    0.5742 C   0  0  0  0  0  0  0  0  0  0  0  0
   -1.5766    0.7776   -0.4197 H   0  0  0  0  0  0  0  0  0  0  0  0
    0.3595    0.1145   -1.3628 H   0  0  0  0  0  0  0  0  0  0  0  0
    0.7380   -1.2440    1.3727 H   0  0  0  0  0  0  0  0  0  0  0  0
    2.0376   -0.8534    0.2398 H   0  0  0  0  0  0  0  0  0  0  0  0
    1.1088    0.4472    1.0088 H   0  0  0  0  0  0  0  0  0  0  0  0
   -1.4097   -2.3202   -1.4204 N   0  0  0  0  0  0  0  0  0  0  0  0
   -1.7897   -3.5768   -2.0103 C   0  0  2  0  0  0  0  0  0  0  0  0
   -3.0290   -3.3402   -2.8633 C   0  0  0  0  0  0  0  0  0  0  0  0
   -3.8989   -2.5225   -2.5703 O   0  0  0  0  0  0  0  0  0  0  0  0
   -2.0554   -4.6299   -0.9458 C   0  0  0  0  0  0  0  0  0  0  0  0
   -2.1490   -1.6728   -1.1543 H   0  0  0  0  0  0  0  0  0  0  0  0
   -0.9585   -3.8894   -2.6516 H   0  0  0  0  0  0  0  0  0  0  0  0
   -2.8852   -4.3342   -0.2934 H   0  0  0  0  0  0  0  0  0  0  0  0
   -2.3166   -5.5929   -1.3968 H   0  0  0  0  0  0  0  0  0  0  0  0
   -1.1725   -4.7773   -0.3144 H   0  0  0  0  0  0  0  0  0  0  0  0
   -3.0708   -4.1801   -3.9673 N   0  0  0  0  0  0  0  0  0  0  0  0
   -4.1675   -4.1784   -4.9071 C   0  0  0  0  0  0  0  0  0  0  0  0
   -2.2873   -4.7988   -4.1544 H   0  0  0  0  0  0  0  0  0  0  0  0
   -4.9113   -4.9304   -4.6049 H   0  0  0  0  0  0  0  0  0  0  0  0
   -4.6368   -3.1837   -4.9210 H   0  0  0  0  0  0  0  0  0  0  0  0
   -3.7898   -4.4197   -5.9117 H   0  0  0  0  0  0  0  0  0  0  0  0
  1  3  1  0  0  0  0
  1  7  1  0  0  0  0
  1  2  2  0  0  0  0
 28 29  1  0  0  0  0
 29 37  1  0  0  0  0
 29 30  2  0  0  0  0
 18 19  1  0  0  0  0
 19 27  1  0  0  0  0
 19 20  2  0  0  0  0
  8  9  1  0  0  0  0
  9 17  1  0  0  0  0
  9 10  2  0  0  0  0
 28 31  1  0  0  0  0
 18 21  1  0  0  0  0
  8 11  1  0  0  0  0
 37 38  1  0  0  0  0
 27 28  1  0  0  0  0
 17 18  1  0  0  0  0
  7  8  1  0  0  0  0
  3  4  1  0  0  0  0
  3  5  1  0  0  0  0
  3  6  1  0  0  0  0
 31 34  1  0  0  0  0
 31 35  1  0  0  0  0
 31 36  1  0  0  0  0
 21 24  1  0  0  0  0
 21 25  1  0  0  0  0
 21 26  1  0  0  0  0
 11 14  1  0  0  0  0
 11 15  1  0  0  0  0
 11 16  1  0  0  0  0
 38 40  1  0  0  0  0
 38 41  1  0  0  0  0
 38 42  1  0  0  0  0
 28 33  1  0  0  0  0
 18 23  1  0  0  0  0
  8 13  1  0  0  0  0
 37 39  1  0  0  0  0
  7 12  1  0  0  0  0
 27 32  1  0  0  0  0
 17 22  1  0  0  0  0
M  END
$$$$

  -OEChem-05262214473D

 42 41  0     1  0  0  0  0  0999 V2000
   -5.7851   -0.9580    0.6237 C   0  0  0  0  0  0  0  0  0  0  0  0
   -6.2213    0.1296    0.2652 O   0  0  0  0  0  0  0  0  0  0  0  0
   -6.7088   -2.1270    0.7168 C   0  0  0  0  0  0  0  0  0  0  0  0
   -7.1713   -2.2193    1.7126 H   0  0  0  0  0  0  0  0  0  0  0  0
   -7.5511   -2.0547    0.0101 H   0  0  0  0  0  0  0  0  0  0  0  0
   -6.2485   -3.1083    0.5191 H   0  0  0  0  0  0  0  0  0  0  0  0
   -4.4733   -1.2411    0.9668 N   0  0  0  0  0  0  0  0  0  0  0  0
   -3.4203   -0.2603    0.9449 C   0  0  2  0  0  0  0  0  0  0  0  0
   -2.1242   -0.9699    0.5759 C   0  0  0  0  0  0  0  0  0  0  0  0
   -1.8694   -2.1225    0.9189 O   0  0  0  0  0  0  0  0  0  0  0  0
   -3.2916    0.4435    2.2868 C   0  0  0  0  0  0  0  0  0  0  0  0
   -4.2421   -2.1920    1.2489 H   0  0  0  0  0  0  0  0  0  0  0  0
   -3.6772    0.4622    0.1625 H   0  0  0  0  0  0  0  0  0  0  0  0
   -3.0345   -0.2644    3.0832 H   0  0  0  0  0  0  0  0  0  0  0  0
   -2.5093    1.2092    2.2599 H   0  0  0  0  0  0  0  0  0  0  0  0
   -4.2338    0.9283    2.5645 H   0  0  0  0  0  0  0  0  0  0  0  0
   -1.2626   -0.1515   -0.1463 N   0  0  0  0  0  0  0  0  0  0  0  0
    0.0431   -0.5785   -0.5755 C   0  0  2  0  0  0  0  0  0  0  0  0
   -0.0875   -1.9809   -1.1548 C   0  0  0  0  0  0  0  0  0  0  0  0
    0.8298   -2.7992   -1.1442 O   0  0  0  0  0  0  0  0  0  0  0  0
    1.0383   -0.5557    0.5742 C   0  0  0  0  0  0  0  0  0  0  0  0
   -1.5766    0.7776   -0.4197 H   0  0  0  0  0  0  0  0  0  0  0  0
    0.3595    0.1145   -1.3628 H   0  0  0  0  0  0  0  0  0  0  0  0
    0.7380   -1.2440    1.3727 H   0  0  0  0  0  0  0  0  0  0  0  0
    2.0376   -0.8534    0.2398 H   0  0  0  0  0  0  0  0  0  0  0  0
    1.1088    0.4472    1.0088 H   0  0  0  0  0  0  0  0  0  0  0  0
   -1.3362   -2.2009   -1.7258 N   0  0  0  0  0  0  0  0  0  0  0  0
   -1.6906   -3.4347   -2.3766 C   0  0  2  0  0  0  0  0  0  0  0  0
   -2.6617   -3.1098   -3.5039 C   0  0  0  0  0  0  0  0  0  0  0  0
   -3.4889   -2.2031   -3.4361 O   0  0  0  0  0  0  0  0  0  0  0  0
   -2.3063   -4.4206   -1.3959 C   0  0  0  0  0  0  0  0  0  0  0  0
   -2.0483   -1.4770   -1.6511 H   0  0  0  0  0  0  0  0  0  0  0  0
   -0.7669   -3.8472   -2.7970 H   0  0  0  0  0  0  0  0  0  0  0  0
   -3.2329   -4.0247   -0.9643 H   0  0  0  0  0  0  0  0  0  0  0  0
   -2.5491   -5.3690   -1.8865 H   0  0  0  0  0  0  0  0  0  0  0  0
   -1.6180   -4.6302   -0.5700 H   0  0  0  0  0  0  0  0  0  0  0  0
   -2.5251   -3.9790   -4.5772 N   0  0  0  0  0  0  0  0  0  0  0  0
   -3.3616   -3.9045   -5.7522 C   0  0  0  0  0  0  0  0  0  0  0  0
   -1.7863   -4.6760   -4.5648 H   0  0  0  0  0  0  0  0  0  0  0  0
   -4.2279   -4.5710   -5.6291 H   0  0  0  0  0  0  0  0  0  0  0  0
   -3.7112   -2.8704   -5.8882 H   0  0  0  0  0  0  0  0  0  0  0  0
   -2.7827   -4.2149   -6.6345 H   0  0  0  0  0  0  0  0  0  0  0  0
  1  3  1  0  0  0  0
  1  7  1  0  0  0  0
  1  2  2  0  0  0  0
 28 29  1  0  0  0  0
 29 37  1  0  0  0  0
 29 30  2  0  0  0  0
 18 19  1  0  0  0  0
 19 27  1  0  0  0  0
 19 20  2  0  0  0  0
  8  9  1  0  0  0  0
  9 17  1  0  0  0  0
  9 10  2  0  0  0  0
 28 31  1  0  0  0  0
 18 21  1  0  0  0  0
  8 11  1  0  0  0  0
 37 38  1  0  0  0  0
 27 28  1  0  0  0  0
 17 18  1  0  0  0  0
  7  8  1  0  0  0  0
  3  4  1  0  0  0  0
  3  5  1  0  0  0  0
  3  6  1  0  0  0  0
 31 34  1  0  0  0  0
 31 35  1  0  0  0  0
 31 36  1  0  0  0  0
 21 24  1  0  0  0  0
 21 25  1  0  0  0  0
 21 26  1  0  0  0  0
 11 14  1  0  0  0  0
 11 15  1  0  0  0  0
 11 16  1  0  0  0  0
 38 40  1  0  0  0  0
 38 41  1  0  0  0  0
 38 42  1  0  0  0  0
 28 33  1  0  0  0  0
 18 23  1  0  0  0  0
  8 13  1  0  0  0  0
 37 39  1  0  0  0  0
  7 12  1  0  0  0  0
 27 32  1  0  0  0  0
 17 22  1  0  0  0  0
M  END
$$$$

  -OEChem-05262214473D

 42 41  0     1  0  0  0  0  0999 V2000
   -5.7851   -0.9580    0.6237 C   0  0  0  0  0  0  0  0  0  0  0  0
   -6.2213    0.1296    0.2652 O   0  0  0  0  0  0  0  0  0  0  0  0
   -6.7088   -2.1270    0.7168 C   0  0  0  0  0  0  0  0  0  0  0  0
   -7.1713   -2.2193    1.7126 H   0  0  0  0  0  0  0  0  0  0  0  0
   -7.5511   -2.0547    0.0101 H   0  0  0  0  0  0  0  0  0  0  0  0
   -6.2485   -3.1083    0.5191 H   0  0  0  0  0  0  0  0  0  0  0  0
   -4.4733   -1.2411    0.9668 N   0  0  0  0  0  0  0  0  0  0  0  0
   -3.4203   -0.2603    0.9449 C   0  0  2  0  0  0  0  0  0  0  0  0
   -2.1242   -0.9699    0.5759 C   0  0  0  0  0  0  0  0  0  0  0  0
   -1.8694   -2.1225    0.9189 O   0  0  0  0  0  0  0  0  0  0  0  0
   -3.2916    0.4435    2.2868 C   0  0  0  0  0  0  0  0  0  0  0  0
   -4.2421   -2.1920    1.2489 H   0  0  0  0  0  0  0  0  0  0  0  0
   -3.6772    0.4622    0.1625 H   0  0  0  0  0  0  0  0  0  0  0  0
   -3.0345   -0.2644    3.0832 H   0  0  0  0  0  0  0  0  0  0  0  0
   -2.5093    1.2092    2.2599 H   0  0  0  0  0  0  0  0  0  0  0  0
   -4.2338    0.9283    2.5645 H   0  0  0  0  0  0  0  0  0  0  0  0
   -1.2626   -0.1515   -0.1463 N   0  0  0  0  0  0  0  0  0  0  0  0
    0.0431   -0.5785   -0.5755 C   0  0  2  0  0  0  0  0  0  0  0  0
   -0.0875   -1.9809   -1.1548 C   0  0  0  0  0  0  0  0  0  0  0  0
    0.7135   -2.8824   -0.9164 O   0  0  0  0  0  0  0  0  0  0  0  0
    1.0383   -0.5557    0.5742 C   0  0  0  0  0  0  0  0  0  0  0  0
   -1.5766    0.7776   -0.4197 H   0  0  0  0  0  0  0  0  0  0  0  0
    0.3595    0.1145   -1.3628 H   0  0  0  0  0  0  0  0  0  0  0  0
    0.7380   -1.2440    1.3727 H   0  0  0  0  0  0  0  0  0  0  0  0
    2.0376   -0.8534    0.2398 H   0  0  0  0  0  0  0  0  0  0  0  0
    1.1088    0.4472    1.0088 H   0  0  0  0  0  0  0  0  0  0  0  0
   -1.1808   -2.0997   -2.0059 N   0  0  0  0  0  0  0  0  0  0  0  0
   -1.4936   -3.3154   -2.7099 C   0  0  2  0  0  0  0  0  0  0  0  0
   -2.1316   -2.9377   -4.0402 C   0  0  0  0  0  0  0  0  0  0  0  0
   -2.8552   -1.9541   -4.1818 O   0  0  0  0  0  0  0  0  0  0  0  0
   -2.4208   -4.2037   -1.8951 C   0  0  0  0  0  0  0  0  0  0  0  0
   -1.8132   -1.3088   -2.1113 H   0  0  0  0  0  0  0  0  0  0  0  0
   -0.5431   -3.8285   -2.8926 H   0  0  0  0  0  0  0  0  0  0  0  0
   -3.3784   -3.7064   -1.7020 H   0  0  0  0  0  0  0  0  0  0  0  0
   -2.6349   -5.1407   -2.4198 H   0  0  0  0  0  0  0  0  0  0  0  0
   -1.9729   -4.4500   -0.9264 H   0  0  0  0  0  0  0  0  0  0  0  0
   -1.8329   -3.8521   -5.0406 N   0  0  0  0  0  0  0  0  0  0  0  0
   -2.3548   -3.7379   -6.3824 C   0  0  0  0  0  0  0  0  0  0  0  0
   -1.1924   -4.6157   -4.8445 H   0  0  0  0  0  0  0  0  0  0  0  0
   -3.2884   -4.3139   -6.4635 H   0  0  0  0  0  0  0  0  0  0  0  0
   -2.5557   -2.6804   -6.6088 H   0  0  0  0  0  0  0  0  0  0  0  0
   -1.6176   -4.1323   -7.0973 H   0  0  0  0  0  0  0  0  0  0  0  0
  1  3  1  0  0  0  0
  1  7  1  0  0  0  0
  1  2  2  0  0  0  0
 28 29  1  0  0  0  0
 29 37  1  0  0  0  0
 29 30  2  0  0  0  0
 18 19  1  0  0  0  0
 19 27  1  0  0  0  0
 19 20  2  0  0  0  0
  8  9  1  0  0  0  0
  9 17  1  0  0  0  0
  9 10  2  0  0  0  0
 28 31  1  0  0  0  0
 18 21  1  0  0  0  0
  8 11  1  0  0  0  0
 37 38  1  0  0  0  0
 27 28  1  0  0  0  0
 17 18  1  0  0  0  0
  7  8  1  0  0  0  0
  3  4  1  0  0  0  0
  3  5  1  0  0  0  0
  3  6  1  0  0  0  0
 31 34  1  0  0  0  0
 31 35  1  0  0  0  0
 31 36  1  0  0  0  0
 21 24  1  0  0  0  0
 21 25  1  0  0  0  0
 21 26  1  0  0  0  0
 11 14  1  0  0  0  0
 11 15  1  0  0  0  0
 11 16  1  0  0  0  0
 38 40  1  0  0  0  0
 38 41  1  0  0  0  0
 38 42  1  0  0  0  0
 28 33  1  0  0  0  0
 18 23  1  0  0  0  0
  8 13  1  0  0  0  0
 37 39  1  0  0  0  0
  7 12  1  0  0  0  0
 27 32  1  0  0  0  0
 17 22  1  0  0  0  0
M  END
$$$$

  -OEChem-05262214473D

 42 41  0     1  0  0  0  0  0999 V2000
   -5.7851   -0.9580    0.6237 C   0  0  0  0  0  0  0  0  0  0  0  0
   -6.2213    0.1296    0.2652 O   0  0  0  0  0  0  0  0  0  0  0  0
   -6.7088   -2.1270    0.7168 C   0  0  0  0  0  0  0  0  0  0  0  0
   -7.1713   -2.2193    1.7126 H   0  0  0  0  0  0  0  0  0  0  0  0
   -7.5511   -2.0547    0.0101 H   0  0  0  0  0  0  0  0  0  0  0  0
   -6.2485   -3.1083    0.5191 H   0  0  0  0  0  0  0  0  0  0  0  0
   -4.4733   -1.2411    0.9668 N   0  0  0  0  0  0  0  0  0  0  0  0
   -3.4203   -0.2603    0.9449 C   0  0  2  0  0  0  0  0  0  0  0  0
   -2.1242   -0.9699    0.5759 C   0  0  0  0  0  0  0  0  0  0  0  0
   -1.8694   -2.1225    0.9189 O   0  0  0  0  0  0  0  0  0  0  0  0
   -3.2916    0.4435    2.2868 C   0  0  0  0  0  0  0  0  0  0  0  0
   -4.2421   -2.1920    1.2489 H   0  0  0  0  0  0  0  0  0  0  0  0
   -3.6772    0.4622    0.1625 H   0  0  0  0  0  0  0  0  0  0  0  0
   -3.0345   -0.2644    3.0832 H   0  0  0  0  0  0  0  0  0  0  0  0
   -2.5093    1.2092    2.2599 H   0  0  0  0  0  0  0  0  0  0  0  0
   -4.2338    0.9283    2.5645 H   0  0  0  0  0  0  0  0  0  0  0  0
   -1.2626   -0.1515   -0.1463 N   0  0  0  0  0  0  0  0  0  0  0  0
    0.0431   -0.5785   -0.5755 C   0  0  2  0  0  0  0  0  0  0  0  0
   -0.0875   -1.9809   -1.1548 C   0  0  0  0  0  0  0  0  0  0  0  0
    0.5387   -2.9463   -0.7223 O   0  0  0  0  0  0  0  0  0  0  0  0
    1.0383   -0.5557    0.5742 C   0  0  0  0  0  0  0  0  0  0  0  0
   -1.5766    0.7776   -0.4197 H   0  0  0  0  0  0  0  0  0  0  0  0
    0.3595    0.1145   -1.3628 H   0  0  0  0  0  0  0  0  0  0  0  0
    0.7380   -1.2440    1.3727 H   0  0  0  0  0  0  0  0  0  0  0  0
    2.0376   -0.8534    0.2398 H   0  0  0  0  0  0  0  0  0  0  0  0
    1.1088    0.4472    1.0088 H   0  0  0  0  0  0  0  0  0  0  0  0
   -0.9539   -2.0234   -2.2417 N   0  0  0  0  0  0  0  0  0  0  0  0
   -1.2121   -3.2269   -2.9875 C   0  0  2  0  0  0  0  0  0  0  0  0
   -1.4747   -2.8355   -4.4357 C   0  0  0  0  0  0  0  0  0  0  0  0
   -2.0408   -1.7925   -4.7566 O   0  0  0  0  0  0  0  0  0  0  0  0
   -2.3911   -3.9940   -2.4094 C   0  0  0  0  0  0  0  0  0  0  0  0
   -1.4600   -1.1797   -2.5036 H   0  0  0  0  0  0  0  0  0  0  0  0
   -0.3023   -3.8346   -2.9321 H   0  0  0  0  0  0  0  0  0  0  0  0
   -3.3118   -3.4011   -2.4563 H   0  0  0  0  0  0  0  0  0  0  0  0
   -2.5682   -4.9236   -2.9605 H   0  0  0  0  0  0  0  0  0  0  0  0
   -2.2130   -4.2488   -1.3591 H   0  0  0  0  0  0  0  0  0  0  0  0
   -1.0413   -3.8079   -5.3260 N   0  0  0  0  0  0  0  0  0  0  0  0
   -1.2157   -3.6901   -6.7549 C   0  0  0  0  0  0  0  0  0  0  0  0
   -0.5462   -4.6222   -4.9745 H   0  0  0  0  0  0  0  0  0  0  0  0
   -2.1568   -4.1765   -7.0513 H   0  0  0  0  0  0  0  0  0  0  0  0
   -1.2491   -2.6266   -7.0337 H   0  0  0  0  0  0  0  0  0  0  0  0
   -0.3737   -4.1775   -7.2683 H   0  0  0  0  0  0  0  0  0  0  0  0
  1  3  1  0  0  0  0
  1  7  1  0  0  0  0
  1  2  2  0  0  0  0
 28 29  1  0  0  0  0
 29 37  1  0  0  0  0
 29 30  2  0  0  0  0
 18 19  1  0  0  0  0
 19 27  1  0  0  0  0
 19 20  2  0  0  0  0
  8  9  1  0  0  0  0
  9 17  1  0  0  0  0
  9 10  2  0  0  0  0
 28 31  1  0  0  0  0
 18 21  1  0  0  0  0
  8 11  1  0  0  0  0
 37 38  1  0  0  0  0
 27 28  1  0  0  0  0
 17 18  1  0  0  0  0
  7  8  1  0  0  0  0
  3  4  1  0  0  0  0
  3  5  1  0  0  0  0
  3  6  1  0  0  0  0
 31 34  1  0  0  0  0
 31 35  1  0  0  0  0
 31 36  1  0  0  0  0
 21 24  1  0  0  0  0
 21 25  1  0  0  0  0
 21 26  1  0  0  0  0
 11 14  1  0  0  0  0
 11 15  1  0  0  0  0
 11 16  1  0  0  0  0
 38 40  1  0  0  0  0
 38 41  1  0  0  0  0
 38 42  1  0  0  0  0
 28 33  1  0  0  0  0
 18 23  1  0  0  0  0
  8 13  1  0  0  0  0
 37 39  1  0  0  0  0
  7 12  1  0  0  0  0
 27 32  1  0  0  0  0
 17 22  1  0  0  0  0
M  END
$$$$

  -OEChem-05262214473D

 42 41  0     1  0  0  0  0  0999 V2000
   -5.7851   -0.9580    0.6237 C   0  0  0  0  0  0  0  0  0  0  0  0
   -6.2213    0.1296    0.2652 O   0  0  0  0  0  0  0  0  0  0  0  0
   -6.7088   -2.1270    0.7168 C   0  0  0  0  0  0  0  0  0  0  0  0
   -7.1713   -2.2193    1.7126 H   0  0  0  0  0  0  0  0  0  0  0  0
   -7.5511   -2.0547    0.0101 H   0  0  0  0  0  0  0  0  0  0  0  0
   -6.2485   -3.1083    0.5191 H   0  0  0  0  0  0  0  0  0  0  0  0
   -4.4733   -1.2411    0.9668 N   0  0  0  0  0  0  0  0  0  0  0  0
   -3.4203   -0.2603    0.9449 C   0  0  2  0  0  0  0  0  0  0  0  0
   -2.1242   -0.9699    0.5759 C   0  0  0  0  0  0  0  0  0  0  0  0
   -1.8694   -2.1225    0.9189 O   0  0  0  0  0  0  0  0  0  0  0  0
   -3.2916    0.4435    2.2868 C   0  0  0  0  0  0  0  0  0  0  0  0
   -4.2421   -2.1920    1.2489 H   0  0  0  0  0  0  0  0  0  0  0  0
   -3.6772    0.4622    0.1625 H   0  0  0  0  0  0  0  0  0  0  0  0
   -3.0345   -0.2644    3.0832 H   0  0  0  0  0  0  0  0  0  0  0  0
   -2.5093    1.2092    2.2599 H   0  0  0  0  0  0  0  0  0  0  0  0
   -4.2338    0.9283    2.5645 H   0  0  0  0  0  0  0  0  0  0  0  0
   -1.2626   -0.1515   -0.1463 N   0  0  0  0  0  0  0  0  0  0  0  0
    0.0431   -0.5785   -0.5755 C   0  0  2  0  0  0  0  0  0  0  0  0
   -0.0875   -1.9809   -1.1548 C   0  0  0  0  0  0  0  0  0  0  0  0
    0.3173   -2.9865   -0.5751 O   0  0  0  0  0  0  0  0  0  0  0  0
    1.0383   -0.5557    0.5742 C   0  0  0  0  0  0  0  0  0  0  0  0
   -1.5766    0.7776   -0.4197 H   0  0  0  0  0  0  0  0  0  0  0  0
    0.3595    0.1145   -1.3628 H   0  0  0  0  0  0  0  0  0  0  0  0
    0.7380   -1.2440    1.3727 H   0  0  0  0  0  0  0  0  0  0  0  0
    2.0376   -0.8534    0.2398 H   0  0  0  0  0  0  0  0  0  0  0  0
    1.1088    0.4472    1.0088 H   0  0  0  0  0  0  0  0  0  0  0  0
   -0.6711   -1.9774   -2.4170 N   0  0  0  0  0  0  0  0  0  0  0  0
   -0.8653   -3.1754   -3.1906 C   0  0  2  0  0  0  0  0  0  0  0  0
   -0.7359   -2.8102   -4.6635 C   0  0  0  0  0  0  0  0  0  0  0  0
   -1.1012   -1.7294   -5.1212 O   0  0  0  0  0  0  0  0  0  0  0  0
   -2.2191   -3.8059   -2.9038 C   0  0  0  0  0  0  0  0  0  0  0  0
   -1.0126   -1.0985   -2.8011 H   0  0  0  0  0  0  0  0  0  0  0  0
   -0.0609   -3.8651   -2.9127 H   0  0  0  0  0  0  0  0  0  0  0  0
   -3.0376   -3.1294   -3.1758 H   0  0  0  0  0  0  0  0  0  0  0  0
   -2.3536   -4.7324   -3.4716 H   0  0  0  0  0  0  0  0  0  0  0  0
   -2.3220   -4.0406   -1.8388 H   0  0  0  0  0  0  0  0  0  0  0  0
   -0.2043   -3.8495   -5.4141 N   0  0  0  0  0  0  0  0  0  0  0  0
   -0.0219   -3.7644   -6.8443 C   0  0  0  0  0  0  0  0  0  0  0  0
    0.1083   -4.6950   -4.9459 H   0  0  0  0  0  0  0  0  0  0  0  0
   -0.9100   -4.1682   -7.3524 H   0  0  0  0  0  0  0  0  0  0  0  0
    0.1195   -2.7127   -7.1338 H   0  0  0  0  0  0  0  0  0  0  0  0
    0.8641   -4.3473   -7.1362 H   0  0  0  0  0  0  0  0  0  0  0  0
  1  3  1  0  0  0  0
  1  7  1  0  0  0  0
  1  2  2  0  0  0  0
 28 29  1  0  0  0  0
 29 37  1  0  0  0  0
 29 30  2  0  0  0  0
 18 19  1  0  0  0  0
 19 27  1  0  0  0  0
 19 20  2  0  0  0  0
  8  9  1  0  0  0  0
  9 17  1  0  0  0  0
  9 10  2  0  0  0  0
 28 31  1  0  0  0  0
 18 21  1  0  0  0  0
  8 11  1  0  0  0  0
 37 38  1  0  0  0  0
 27 28  1  0  0  0  0
 17 18  1  0  0  0  0
  7  8  1  0  0  0  0
  3  4  1  0  0  0  0
  3  5  1  0  0  0  0
  3  6  1  0  0  0  0
 31 34  1  0  0  0  0
 31 35  1  0  0  0  0
 31 36  1  0  0  0  0
 21 24  1  0  0  0  0
 21 25  1  0  0  0  0
 21 26  1  0  0  0  0
 11 14  1  0  0  0  0
 11 15  1  0  0  0  0
 11 16  1  0  0  0  0
 38 40  1  0  0  0  0
 38 41  1  0  0  0  0
 38 42  1  0  0  0  0
 28 33  1  0  0  0  0
 18 23  1  0  0  0  0
  8 13  1  0  0  0  0
 37 39  1  0  0  0  0
  7 12  1  0  0  0  0
 27 32  1  0  0  0  0
 17 22  1  0  0  0  0
M  END
$$$$

  -OEChem-05262214473D

 42 41  0     1  0  0  0  0  0999 V2000
   -5.7851   -0.9580    0.6237 C   0  0  0  0  0  0  0  0  0  0  0  0
   -6.2213    0.1296    0.2652 O   0  0  0  0  0  0  0  0  0  0  0  0
   -6.7088   -2.1270    0.7168 C   0  0  0  0  0  0  0  0  0  0  0  0
   -7.1713   -2.2193    1.7126 H   0  0  0  0  0  0  0  0  0  0  0  0
   -7.5511   -2.0547    0.0101 H   0  0  0  0  0  0  0  0  0  0  0  0
   -6.2485   -3.1083    0.5191 H   0  0  0  0  0  0  0  0  0  0  0  0
   -4.4733   -1.2411    0.9668 N   0  0  0  0  0  0  0  0  0  0  0  0
   -3.4203   -0.2603    0.9449 C   0  0  2  0  0  0  0  0  0  0  0  0
   -2.1242   -0.9699    0.5759 C   0  0  0  0  0  0  0  0  0  0  0  0
   -1.8694   -2.1225    0.9189 O   0  0  0  0  0  0  0  0  0  0  0  0
   -3.2916    0.4435    2.2868 C   0  0  0  0  0  0  0  0  0  0  0  0
   -4.2421   -2.1920    1.2489 H   0  0  0  0  0  0  0  0  0  0  0  0
   -3.6772    0.4622    0.1625 H   0  0  0  0  0  0  0  0  0  0  0  0
   -3.0345   -0.2644    3.0832 H   0  0  0  0  0  0  0  0  0  0  0  0
   -2.5093    1.2092    2.2599 H   0  0  0  0  0  0  0  0  0  0  0  0
   -4.2338    0.9283    2.5645 H   0  0  0  0  0  0  0  0  0  0  0  0
   -1.2626   -0.1515   -0.1463 N   0  0  0  0  0  0  0  0  0  0  0  0
    0.0431   -0.5785   -0.5755 C   0  0  2  0  0  0  0  0  0  0  0  0
   -0.0875   -1.9809   -1.1548 C   0  0  0  0  0  0  0  0  0  0  0  0
    0.0644   -3.0003   -0.4847 O   0  0  0  0  0  0  0  0  0  0  0  0
    1.0383   -0.5557    0.5742 C   0  0  0  0  0  0  0  0  0  0  0  0
   -1.5766    0.7776   -0.4197 H   0  0  0  0  0  0  0  0  0  0  0  0
    0.3595    0.1145   -1.3628 H   0  0  0  0  0  0  0  0  0  0  0  0
    0.7380   -1.2440    1.3727 H   0  0  0  0  0  0  0  0  0  0  0  0
    2.0376   -0.8534    0.2398 H   0  0  0  0  0  0  0  0  0  0  0  0
    1.1088    0.4472    1.0088 H   0  0  0  0  0  0  0  0  0  0  0  0
   -0.3516   -1.9646   -2.5200 N   0  0  0  0  0  0  0  0  0  0  0  0
   -0.4768   -3.1642   -3.3053 C   0  0  2  0  0  0  0  0  0  0  0  0
    0.0345   -2.8636   -4.7080 C   0  0  0  0  0  0  0  0  0  0  0  0
   -0.1005   -1.7690   -5.2510 O   0  0  0  0  0  0  0  0  0  0  0  0
   -1.9167   -3.6520   -3.3445 C   0  0  0  0  0  0  0  0  0  0  0  0
   -0.5015   -1.0707   -2.9837 H   0  0  0  0  0  0  0  0  0  0  0  0
    0.1647   -3.9179   -2.8358 H   0  0  0  0  0  0  0  0  0  0  0  0
   -2.5745   -2.9100   -3.8115 H   0  0  0  0  0  0  0  0  0  0  0  0
   -2.0056   -4.5803   -3.9185 H   0  0  0  0  0  0  0  0  0  0  0  0
   -2.2924   -3.8393   -2.3328 H   0  0  0  0  0  0  0  0  0  0  0  0
    0.6211   -3.9740   -5.2988 N   0  0  0  0  0  0  0  0  0  0  0  0
    1.1452   -3.9556   -6.6445 C   0  0  0  0  0  0  0  0  0  0  0  0
    0.7265   -4.8291   -4.7607 H   0  0  0  0  0  0  0  0  0  0  0  0
    0.3668   -4.2897   -7.3463 H   0  0  0  0  0  0  0  0  0  0  0  0
    1.4569   -2.9328   -6.9025 H   0  0  0  0  0  0  0  0  0  0  0  0
    2.0115   -4.6304   -6.7097 H   0  0  0  0  0  0  0  0  0  0  0  0
  1  3  1  0  0  0  0
  1  7  1  0  0  0  0
  1  2  2  0  0  0  0
 28 29  1  0  0  0  0
 29 37  1  0  0  0  0
 29 30  2  0  0  0  0
 18 19  1  0  0  0  0
 19 27  1  0  0  0  0
 19 20  2  0  0  0  0
  8  9  1  0  0  0  0
  9 17  1  0  0  0  0
  9 10  2  0  0  0  0
 28 31  1  0  0  0  0
 18 21  1  0  0  0  0
  8 11  1  0  0  0  0
 37 38  1  0  0  0  0
 27 28  1  0  0  0  0
 17 18  1  0  0  0  0
  7  8  1  0  0  0  0
  3  4  1  0  0  0  0
  3  5  1  0  0  0  0
  3  6  1  0  0  0  0
 31 34  1  0  0  0  0
 31 35  1  0  0  0  0
 31 36  1  0  0  0  0
 21 24  1  0  0  0  0
 21 25  1  0  0  0  0
 21 26  1  0  0  0  0
 11 14  1  0  0  0  0
 11 15  1  0  0  0  0
 11 16  1  0  0  0  0
 38 40  1  0  0  0  0
 38 41  1  0  0  0  0
 38 42  1  0  0  0  0
 28 33  1  0  0  0  0
 18 23  1  0  0  0  0
  8 13  1  0  0  0  0
 37 39  1  0  0  0  0
  7 12  1  0  0  0  0
 27 32  1  0  0  0  0
 17 22  1  0  0  0  0
M  END
$$$$

  -OEChem-05262214473D

 42 41  0     1  0  0  0  0  0999 V2000
   -5.7851   -0.9580    0.6237 C   0  0  0  0  0  0  0  0  0  0  0  0
   -6.2213    0.1296    0.2652 O   0  0  0  0  0  0  0  0  0  0  0  0
   -6.7088   -2.1270    0.7168 C   0  0  0  0  0  0  0  0  0  0  0  0
   -7.1713   -2.2193    1.7126 H   0  0  0  0  0  0  0  0  0  0  0  0
   -7.5511   -2.0547    0.0101 H   0  0  0  0  0  0  0  0  0  0  0  0
   -6.2485   -3.1083    0.5191 H   0  0  0  0  0  0  0  0  0  0  0  0
   -4.4733   -1.2411    0.9668 N   0  0  0  0  0  0  0  0  0  0  0  0
   -3.4203   -0.2603    0.9449 C   0  0  2  0  0  0  0  0  0  0  0  0
   -2.1242   -0.9699    0.5759 C   0  0  0  0  0  0  0  0  0  0  0  0
   -1.8694   -2.1225    0.9189 O   0  0  0  0  0  0  0  0  0  0  0  0
   -3.2916    0.4435    2.2868 C   0  0  0  0  0  0  0  0  0  0  0  0
   -4.2421   -2.1920    1.2489 H   0  0  0  0  0  0  0  0  0  0  0  0
   -3.6772    0.4622    0.1625 H   0  0  0  0  0  0  0  0  0  0  0  0
   -3.0345   -0.2644    3.0832 H   0  0  0  0  0  0  0  0  0  0  0  0
   -2.5093    1.2092    2.2599 H   0  0  0  0  0  0  0  0  0  0  0  0
   -4.2338    0.9283    2.5645 H   0  0  0  0  0  0  0  0  0  0  0  0
   -1.2626   -0.1515   -0.1463 N   0  0  0  0  0  0  0  0  0  0  0  0
    0.0431   -0.5785   -0.5755 C   0  0  2  0  0  0  0  0  0  0  0  0
   -0.0875   -1.9809   -1.1548 C   0  0  0  0  0  0  0  0  0  0  0  0
   -0.2028   -2.9866   -0.4574 O   0  0  0  0  0  0  0  0  0  0  0  0
    1.0383   -0.5557    0.5742 C   0  0  0  0  0  0  0  0  0  0  0  0
   -1.5766    0.7776   -0.4197 H   0  0  0  0  0  0  0  0  0  0  0  0
    0.3595    0.1145   -1.3628 H   0  0  0  0  0  0  0  0  0  0  0  0
    0.7380   -1.2440    1.3727 H   0  0  0  0  0  0  0  0  0  0  0  0
    2.0376   -0.8534    0.2398 H   0  0  0  0  0  0  0  0  0  0  0  0
    1.1088    0.4472    1.0088 H   0  0  0  0  0  0  0  0  0  0  0  0
   -0.0171   -1.9860   -2.5436 N   0  0  0  0  0  0  0  0  0  0  0  0
   -0.0732   -3.1942   -3.3237 C   0  0  2  0  0  0  0  0  0  0  0  0
    0.7840   -2.9920   -4.5662 C   0  0  0  0  0  0  0  0  0  0  0  0
    0.8930   -1.9087   -5.1369 O   0  0  0  0  0  0  0  0  0  0  0  0
   -1.5044   -3.5429   -3.7015 C   0  0  0  0  0  0  0  0  0  0  0  0
    0.0384   -1.0982   -3.0389 H   0  0  0  0  0  0  0  0  0  0  0  0
    0.3590   -3.9894   -2.7065 H   0  0  0  0  0  0  0  0  0  0  0  0
   -1.9541   -2.7577   -4.3201 H   0  0  0  0  0  0  0  0  0  0  0  0
   -1.5480   -4.4775   -4.2705 H   0  0  0  0  0  0  0  0  0  0  0  0
   -2.1263   -3.6587   -2.8074 H   0  0  0  0  0  0  0  0  0  0  0  0
    1.3786   -4.1730   -4.9878 N   0  0  0  0  0  0  0  0  0  0  0  0
    2.2061   -4.2508   -6.1690 C   0  0  0  0  0  0  0  0  0  0  0  0
    1.2664   -5.0154   -4.4315 H   0  0  0  0  0  0  0  0  0  0  0  0
    1.5867   -4.5326   -7.0333 H   0  0  0  0  0  0  0  0  0  0  0  0
    2.6719   -3.2719   -6.3554 H   0  0  0  0  0  0  0  0  0  0  0  0
    2.9903   -5.0072   -6.0180 H   0  0  0  0  0  0  0  0  0  0  0  0
  1  3  1  0  0  0  0
  1  7  1  0  0  0  0
  1  2  2  0  0  0  0
 28 29  1  0  0  0  0
 29 37  1  0  0  0  0
 29 30  2  0  0  0  0
 18 19  1  0  0  0  0
 19 27  1  0  0  0  0
 19 20  2  0  0  0  0
  8  9  1  0  0  0  0
  9 17  1  0  0  0  0
  9 10  2  0  0  0  0
 28 31  1  0  0  0  0
 18 21  1  0  0  0  0
  8 11  1  0  0  0  0
 37 38  1  0  0  0  0
 27 28  1  0  0  0  0
 17 18  1  0  0  0  0
  7  8  1  0  0  0  0
  3  4  1  0  0  0  0
  3  5  1  0  0  0  0
  3  6  1  0  0  0  0
 31 34  1  0  0  0  0
 31 35  1  0  0  0  0
 31 36  1  0  0  0  0
 21 24  1  0  0  0  0
 21 25  1  0  0  0  0
 21 26  1  0  0  0  0
 11 14  1  0  0  0  0
 11 15  1  0  0  0  0
 11 16  1  0  0  0  0
 38 40  1  0  0  0  0
 38 41  1  0  0  0  0
 38 42  1  0  0  0  0
 28 33  1  0  0  0  0
 18 23  1  0  0  0  0
  8 13  1  0  0  0  0
 37 39  1  0  0  0  0
  7 12  1  0  0  0  0
 27 32  1  0  0  0  0
 17 22  1  0  0  0  0
M  END
$$$$

  -OEChem-05262214473D

 42 41  0     1  0  0  0  0  0999 V2000
   -5.7851   -0.9580    0.6237 C   0  0  0  0  0  0  0  0  0  0  0  0
   -6.2213    0.1296    0.2652 O   0  0  0  0  0  0  0  0  0  0  0  0
   -6.7088   -2.1270    0.7168 C   0  0  0  0  0  0  0  0  0  0  0  0
   -7.1713   -2.2193    1.7126 H   0  0  0  0  0  0  0  0  0  0  0  0
   -7.5511   -2.0547    0.0101 H   0  0  0  0  0  0  0  0  0  0  0  0
   -6.2485   -3.1083    0.5191 H   0  0  0  0  0  0  0  0  0  0  0  0
   -4.4733   -1.2411    0.9668 N   0  0  0  0  0  0  0  0  0  0  0  0
   -3.4203   -0.2603    0.9449 C   0  0  2  0  0  0  0  0  0  0  0  0
   -2.1242   -0.9699    0.5759 C   0  0  0  0  0  0  0  0  0  0  0  0
   -1.8694   -2.1225    0.9189 O   0  0  0  0  0  0  0  0  0  0  0  0
   -3.2916    0.4435    2.2868 C   0  0  0  0  0  0  0  0  0  0  0  0
   -4.2421   -2.1920    1.2489 H   0  0  0  0  0  0  0  0  0  0  0  0
   -3.6772    0.4622    0.1625 H   0  0  0  0  0  0  0  0  0  0  0  0
   -3.0345   -0.2644    3.0832 H   0  0  0  0  0  0  0  0  0  0  0  0
   -2.5093    1.2092    2.2599 H   0  0  0  0  0  0  0  0  0  0  0  0
   -4.2338    0.9283    2.5645 H   0  0  0  0  0  0  0  0  0  0  0  0
   -1.2626   -0.1515   -0.1463 N   0  0  0  0  0  0  0  0  0  0  0  0
    0.0431   -0.5785   -0.5755 C   0  0  2  0  0  0  0  0  0  0  0  0
   -0.0875   -1.9809   -1.1548 C   0  0  0  0  0  0  0  0  0  0  0  0
   -0.4661   -2.9466   -0.4951 O   0  0  0  0  0  0  0  0  0  0  0  0
    1.0383   -0.5557    0.5742 C   0  0  0  0  0  0  0  0  0  0  0  0
   -1.5766    0.7776   -0.4197 H   0  0  0  0  0  0  0  0  0  0  0  0
    0.3595    0.1145   -1.3628 H   0  0  0  0  0  0  0  0  0  0  0  0
    0.7380   -1.2440    1.3727 H   0  0  0  0  0  0  0  0  0  0  0  0
    2.0376   -0.8534    0.2398 H   0  0  0  0  0  0  0  0  0  0  0  0
    1.1088    0.4472    1.0088 H   0  0  0  0  0  0  0  0  0  0  0  0
    0.3094   -2.0401   -2.4862 N   0  0  0  0  0  0  0  0  0  0  0  0
    0.3181   -3.2633   -3.2446 C   0  0  2  0  0  0  0  0  0  0  0  0
    1.4615   -3.1866   -4.2477 C   0  0  0  0  0  0  0  0  0  0  0  0
    1.8118   -2.1389   -4.7868 O   0  0  0  0  0  0  0  0  0  0  0  0
   -1.0103   -3.4861   -3.9505 C   0  0  0  0  0  0  0  0  0  0  0  0
    0.5704   -1.1791   -2.9629 H   0  0  0  0  0  0  0  0  0  0  0  0
    0.5089   -4.0747   -2.5338 H   0  0  0  0  0  0  0  0  0  0  0  0
   -1.2186   -2.6830   -4.6668 H   0  0  0  0  0  0  0  0  0  0  0  0
   -1.0120   -4.4311   -4.5038 H   0  0  0  0  0  0  0  0  0  0  0  0
   -1.8350   -3.5112   -3.2302 H   0  0  0  0  0  0  0  0  0  0  0  0
    2.0166   -4.4328   -4.5026 N   0  0  0  0  0  0  0  0  0  0  0  0
    3.0884   -4.6298   -5.4504 C   0  0  0  0  0  0  0  0  0  0  0  0
    1.6910   -5.2411   -3.9806 H   0  0  0  0  0  0  0  0  0  0  0  0
    2.6666   -4.8803   -6.4349 H   0  0  0  0  0  0  0  0  0  0  0  0
    3.6817   -3.7069   -5.5299 H   0  0  0  0  0  0  0  0  0  0  0  0
    3.7338   -5.4522   -5.1082 H   0  0  0  0  0  0  0  0  0  0  0  0
  1  3  1  0  0  0  0
  1  7  1  0  0  0  0
  1  2  2  0  0  0  0
 28 29  1  0  0  0  0
 29 37  1  0  0  0  0
 29 30  2  0  0  0  0
 18 19  1  0  0  0  0
 19 27  1  0  0  0  0
 19 20  2  0  0  0  0
  8  9  1  0  0  0  0
  9 17  1  0  0  0  0
  9 10  2  0  0  0  0
 28 31  1  0  0  0  0
 18 21  1  0  0  0  0
  8 11  1  0  0  0  0
 37 38  1  0  0  0  0
 27 28  1  0  0  0  0
 17 18  1  0  0  0  0
  7  8  1  0  0  0  0
  3  4  1  0  0  0  0
  3  5  1  0  0  0  0
  3  6  1  0  0  0  0
 31 34  1  0  0  0  0
 31 35  1  0  0  0  0
 31 36  1  0  0  0  0
 21 24  1  0  0  0  0
 21 25  1  0  0  0  0
 21 26  1  0  0  0  0
 11 14  1  0  0  0  0
 11 15  1  0  0  0  0
 11 16  1  0  0  0  0
 38 40  1  0  0  0  0
 38 41  1  0  0  0  0
 38 42  1  0  0  0  0
 28 33  1  0  0  0  0
 18 23  1  0  0  0  0
  8 13  1  0  0  0  0
 37 39  1  0  0  0  0
  7 12  1  0  0  0  0
 27 32  1  0  0  0  0
 17 22  1  0  0  0  0
M  END
$$$$

  -OEChem-05262214473D

 42 41  0     1  0  0  0  0  0999 V2000
   -5.7851   -0.9580    0.6237 C   0  0  0  0  0  0  0  0  0  0  0  0
   -6.2213    0.1296    0.2652 O   0  0  0  0  0  0  0  0  0  0  0  0
   -6.7088   -2.1270    0.7168 C   0  0  0  0  0  0  0  0  0  0  0  0
   -7.1713   -2.2193    1.7126 H   0  0  0  0  0  0  0  0  0  0  0  0
   -7.5511   -2.0547    0.0101 H   0  0  0  0  0  0  0  0  0  0  0  0
   -6.2485   -3.1083    0.5191 H   0  0  0  0  0  0  0  0  0  0  0  0
   -4.4733   -1.2411    0.9668 N   0  0  0  0  0  0  0  0  0  0  0  0
   -3.4203   -0.2603    0.9449 C   0  0  2  0  0  0  0  0  0  0  0  0
   -2.1242   -0.9699    0.5759 C   0  0  0  0  0  0  0  0  0  0  0  0
   -1.8694   -2.1225    0.9189 O   0  0  0  0  0  0  0  0  0  0  0  0
   -3.2916    0.4435    2.2868 C   0  0  0  0  0  0  0  0  0  0  0  0
   -4.2421   -2.1920    1.2489 H   0  0  0  0  0  0  0  0  0  0  0  0
   -3.6772    0.4622    0.1625 H   0  0  0  0  0  0  0  0  0  0  0  0
   -3.0345   -0.2644    3.0832 H   0  0  0  0  0  0  0  0  0  0  0  0
   -2.5093    1.2092    2.2599 H   0  0  0  0  0  0  0  0  0  0  0  0
   -4.2338    0.9283    2.5645 H   0  0  0  0  0  0  0  0  0  0  0  0
   -1.2626   -0.1515   -0.1463 N   0  0  0  0  0  0  0  0  0  0  0  0
    0.0431   -0.5785   -0.5755 C   0  0  2  0  0  0  0  0  0  0  0  0
   -0.0875   -1.9809   -1.1548 C   0  0  0  0  0  0  0  0  0  0  0  0
   -0.7074   -2.8828   -0.5950 O   0  0  0  0  0  0  0  0  0  0  0  0
    1.0383   -0.5557    0.5742 C   0  0  0  0  0  0  0  0  0  0  0  0
   -1.5766    0.7776   -0.4197 H   0  0  0  0  0  0  0  0  0  0  0  0
    0.3595    0.1145   -1.3628 H   0  0  0  0  0  0  0  0  0  0  0  0
    0.7380   -1.2440    1.3727 H   0  0  0  0  0  0  0  0  0  0  0  0
    2.0376   -0.8534    0.2398 H   0  0  0  0  0  0  0  0  0  0  0  0
    1.1088    0.4472    1.0088 H   0  0  0  0  0  0  0  0  0  0  0  0
    0.6059   -2.1232   -2.3518 N   0  0  0  0  0  0  0  0  0  0  0  0
    0.6705   -3.3668   -3.0734 C   0  0  2  0  0  0  0  0  0  0  0  0
    2.0209   -3.4343   -3.7742 C   0  0  0  0  0  0  0  0  0  0  0  0
    2.5932   -2.4439   -4.2245 O   0  0  0  0  0  0  0  0  0  0  0  0
   -0.4681   -3.4854   -4.0745 C   0  0  0  0  0  0  0  0  0  0  0  0
    1.0582   -1.3080   -2.7609 H   0  0  0  0  0  0  0  0  0  0  0  0
    0.6041   -4.1681   -2.3293 H   0  0  0  0  0  0  0  0  0  0  0  0
   -0.4182   -2.6909   -4.8281 H   0  0  0  0  0  0  0  0  0  0  0  0
   -0.4340   -4.4442   -4.6024 H   0  0  0  0  0  0  0  0  0  0  0  0
   -1.4384   -3.4068   -3.5724 H   0  0  0  0  0  0  0  0  0  0  0  0
    2.4917   -4.7359   -3.8760 N   0  0  0  0  0  0  0  0  0  0  0  0
    3.7321   -5.0668   -4.5376 C   0  0  0  0  0  0  0  0  0  0  0  0
    1.9715   -5.4910   -3.4390 H   0  0  0  0  0  0  0  0  0  0  0  0
    3.5328   -5.3092   -5.5918 H   0  0  0  0  0  0  0  0  0  0  0  0
    4.4175   -4.2082   -4.4821 H   0  0  0  0  0  0  0  0  0  0  0  0
    4.1914   -5.9351   -4.0424 H   0  0  0  0  0  0  0  0  0  0  0  0
  1  3  1  0  0  0  0
  1  7  1  0  0  0  0
  1  2  2  0  0  0  0
 28 29  1  0  0  0  0
 29 37  1  0  0  0  0
 29 30  2  0  0  0  0
 18 19  1  0  0  0  0
 19 27  1  0  0  0  0
 19 20  2  0  0  0  0
  8  9  1  0  0  0  0
  9 17  1  0  0  0  0
  9 10  2  0  0  0  0
 28 31  1  0  0  0  0
 18 21  1  0  0  0  0
  8 11  1  0  0  0  0
 37 38  1  0  0  0  0
 27 28  1  0  0  0  0
 17 18  1  0  0  0  0
  7  8  1  0  0  0  0
  3  4  1  0  0  0  0
  3  5  1  0  0  0  0
  3  6  1  0  0  0  0
 31 34  1  0  0  0  0
 31 35  1  0  0  0  0
 31 36  1  0  0  0  0
 21 24  1  0  0  0  0
 21 25  1  0  0  0  0
 21 26  1  0  0  0  0
 11 14  1  0  0  0  0
 11 15  1  0  0  0  0
 11 16  1  0  0  0  0
 38 40  1  0  0  0  0
 38 41  1  0  0  0  0
 38 42  1  0  0  0  0
 28 33  1  0  0  0  0
 18 23  1  0  0  0  0
  8 13  1  0  0  0  0
 37 39  1  0  0  0  0
  7 12  1  0  0  0  0
 27 32  1  0  0  0  0
 17 22  1  0  0  0  0
M  END
$$$$

  -OEChem-05262214473D

 42 41  0     1  0  0  0  0  0999 V2000
   -5.7851   -0.9580    0.6237 C   0  0  0  0  0  0  0  0  0  0  0  0
   -6.2213    0.1296    0.2652 O   0  0  0  0  0  0  0  0  0  0  0  0
   -6.7088   -2.1270    0.7168 C   0  0  0  0  0  0  0  0  0  0  0  0
   -7.1713   -2.2193    1.7126 H   0  0  0  0  0  0  0  0  0  0  0  0
   -7.5511   -2.0547    0.0101 H   0  0  0  0  0  0  0  0  0  0  0  0
   -6.2485   -3.1083    0.5191 H   0  0  0  0  0  0  0  0  0  0  0  0
   -4.4733   -1.2411    0.9668 N   0  0  0  0  0  0  0  0  0  0  0  0
   -3.4203   -0.2603    0.9449 C   0  0  2  0  0  0  0  0  0  0  0  0
   -2.1242   -0.9699    0.5759 C   0  0  0  0  0  0  0  0  0  0  0  0
   -1.8694   -2.1225    0.9189 O   0  0  0  0  0  0  0  0  0  0  0  0
   -3.2916    0.4435    2.2868 C   0  0  0  0  0  0  0  0  0  0  0  0
   -4.2421   -2.1920    1.2489 H   0  0  0  0  0  0  0  0  0  0  0  0
   -3.6772    0.4622    0.1625 H   0  0  0  0  0  0  0  0  0  0  0  0
   -3.0345   -0.2644    3.0832 H   0  0  0  0  0  0  0  0  0  0  0  0
   -2.5093    1.2092    2.2599 H   0  0  0  0  0  0  0  0  0  0  0  0
   -4.2338    0.9283    2.5645 H   0  0  0  0  0  0  0  0  0  0  0  0
   -1.2626   -0.1515   -0.1463 N   0  0  0  0  0  0  0  0  0  0  0  0
    0.0431   -0.5785   -0.5755 C   0  0  2  0  0  0  0  0  0  0  0  0
   -0.0875   -1.9809   -1.1548 C   0  0  0  0  0  0  0  0  0  0  0  0
   -0.9105   -2.7997   -0.7505 O   0  0  0  0  0  0  0  0  0  0  0  0
    1.0383   -0.5557    0.5742 C   0  0  0  0  0  0  0  0  0  0  0  0
   -1.5766    0.7776   -0.4197 H   0  0  0  0  0  0  0  0  0  0  0  0
    0.3595    0.1145   -1.3628 H   0  0  0  0  0  0  0  0  0  0  0  0
    0.7380   -1.2440    1.3727 H   0  0  0  0  0  0  0  0  0  0  0  0
    2.0376   -0.8534    0.2398 H   0  0  0  0  0  0  0  0  0  0  0  0
    1.1088    0.4472    1.0088 H   0  0  0  0  0  0  0  0  0  0  0  0
    0.8520   -2.2298   -2.1494 N   0  0  0  0  0  0  0  0  0  0  0  0
    0.9598   -3.4977   -2.8217 C   0  0  2  0  0  0  0  0  0  0  0  0
    2.4240   -3.7180   -3.1781 C   0  0  0  0  0  0  0  0  0  0  0  0
    3.1839   -2.8029   -3.4884 O   0  0  0  0  0  0  0  0  0  0  0  0
    0.0853   -3.5408   -4.0651 C   0  0  0  0  0  0  0  0  0  0  0  0
    1.4685   -1.4760   -2.4466 H   0  0  0  0  0  0  0  0  0  0  0  0
    0.6381   -4.2630   -2.1070 H   0  0  0  0  0  0  0  0  0  0  0  0
    0.3925   -2.7809   -4.7929 H   0  0  0  0  0  0  0  0  0  0  0  0
    0.1464   -4.5159   -4.5596 H   0  0  0  0  0  0  0  0  0  0  0  0
   -0.9634   -3.3526   -3.8108 H   0  0  0  0  0  0  0  0  0  0  0  0
    2.7713   -5.0615   -3.1509 N   0  0  0  0  0  0  0  0  0  0  0  0
    4.0933   -5.5320   -3.4927 C   0  0  0  0  0  0  0  0  0  0  0  0
    2.0887   -5.7479   -2.8434 H   0  0  0  0  0  0  0  0  0  0  0  0
    4.1263   -5.7901   -4.5615 H   0  0  0  0  0  0  0  0  0  0  0  0
    4.8292   -4.7416   -3.2836 H   0  0  0  0  0  0  0  0  0  0  0  0
    4.3317   -6.4229   -2.8931 H   0  0  0  0  0  0  0  0  0  0  0  0
  1  3  1  0  0  0  0
  1  7  1  0  0  0  0
  1  2  2  0  0  0  0
 28 29  1  0  0  0  0
 29 37  1  0  0  0  0
 29 30  2  0  0  0  0
 18 19  1  0  0  0  0
 19 27  1  0  0  0  0
 19 20  2  0  0  0  0
  8  9  1  0  0  0  0
  9 17  1  0  0  0  0
  9 10  2  0  0  0  0
 28 31  1  0  0  0  0
 18 21  1  0  0  0  0
  8 11  1  0  0  0  0
 37 38  1  0  0  0  0
 27 28  1  0  0  0  0
 17 18  1  0  0  0  0
  7  8  1  0  0  0  0
  3  4  1  0  0  0  0
  3  5  1  0  0  0  0
  3  6  1  0  0  0  0
 31 34  1  0  0  0  0
 31 35  1  0  0  0  0
 31 36  1  0  0  0  0
 21 24  1  0  0  0  0
 21 25  1  0  0  0  0
 21 26  1  0  0  0  0
 11 14  1  0  0  0  0
 11 15  1  0  0  0  0
 11 16  1  0  0  0  0
 38 40  1  0  0  0  0
 38 41  1  0  0  0  0
 38 42  1  0  0  0  0
 28 33  1  0  0  0  0
 18 23  1  0  0  0  0
  8 13  1  0  0  0  0
 37 39  1  0  0  0  0
  7 12  1  0  0  0  0
 27 32  1  0  0  0  0
 17 22  1  0  0  0  0
M  END
$$$$

  -OEChem-05262214473D

 42 41  0     1  0  0  0  0  0999 V2000
   -5.7851   -0.9580    0.6237 C   0  0  0  0  0  0  0  0  0  0  0  0
   -6.2213    0.1296    0.2652 O   0  0  0  0  0  0  0  0  0  0  0  0
   -6.7088   -2.1270    0.7168 C   0  0  0  0  0  0  0  0  0  0  0  0
   -7.1713   -2.2193    1.7126 H   0  0  0  0  0  0  0  0  0  0  0  0
   -7.5511   -2.0547    0.0101 H   0  0  0  0  0  0  0  0  0  0  0  0
   -6.2485   -3.1083    0.5191 H   0  0  0  0  0  0  0  0  0  0  0  0
   -4.4733   -1.2411    0.9668 N   0  0  0  0  0  0  0  0  0  0  0  0
   -3.4203   -0.2603    0.9449 C   0  0  2  0  0  0  0  0  0  0  0  0
   -2.1242   -0.9699    0.5759 C   0  0  0  0  0  0  0  0  0  0  0  0
   -1.8694   -2.1225    0.9189 O   0  0  0  0  0  0  0  0  0  0  0  0
   -3.2916    0.4435    2.2868 C   0  0  0  0  0  0  0  0  0  0  0  0
   -4.2421   -2.1920    1.2489 H   0  0  0  0  0  0  0  0  0  0  0  0
   -3.6772    0.4622    0.1625 H   0  0  0  0  0  0  0  0  0  0  0  0
   -3.0345   -0.2644    3.0832 H   0  0  0  0  0  0  0  0  0  0  0  0
   -2.5093    1.2092    2.2599 H   0  0  0  0  0  0  0  0  0  0  0  0
   -4.2338    0.9283    2.5645 H   0  0  0  0  0  0  0  0  0  0  0  0
   -1.2626   -0.1515   -0.1463 N   0  0  0  0  0  0  0  0  0  0  0  0
    0.0431   -0.5785   -0.5755 C   0  0  2  0  0  0  0  0  0  0  0  0
   -0.0875   -1.9809   -1.1548 C   0  0  0  0  0  0  0  0  0  0  0  0
   -1.0613   -2.7029   -0.9509 O   0  0  0  0  0  0  0  0  0  0  0  0
    1.0383   -0.5557    0.5742 C   0  0  0  0  0  0  0  0  0  0  0  0
   -1.5766    0.7776   -0.4197 H   0  0  0  0  0  0  0  0  0  0  0  0
    0.3595    0.1145   -1.3628 H   0  0  0  0  0  0  0  0  0  0  0  0
    0.7380   -1.2440    1.3727 H   0  0  0  0  0  0  0  0  0  0  0  0
    2.0376   -0.8534    0.2398 H   0  0  0  0  0  0  0  0  0  0  0  0
    1.1088    0.4472    1.0088 H   0  0  0  0  0  0  0  0  0  0  0  0
    1.0310   -2.3524   -1.8929 N   0  0  0  0  0  0  0  0  0  0  0  0
    1.1664   -3.6470   -2.5068 C   0  0  2  0  0  0  0  0  0  0  0  0
    2.6434   -4.0186   -2.5000 C   0  0  0  0  0  0  0  0  0  0  0  0
    3.5437   -3.1916   -2.6286 O   0  0  0  0  0  0  0  0  0  0  0  0
    0.6121   -3.6486   -3.9229 C   0  0  0  0  0  0  0  0  0  0  0  0
    1.7734   -1.6717   -2.0416 H   0  0  0  0  0  0  0  0  0  0  0  0
    0.6087   -4.3532   -1.8821 H   0  0  0  0  0  0  0  0  0  0  0  0
    1.1584   -2.9469   -4.5637 H   0  0  0  0  0  0  0  0  0  0  0  0
    0.6899   -4.6414   -4.3783 H   0  0  0  0  0  0  0  0  0  0  0  0
   -0.4424   -3.3523   -3.9290 H   0  0  0  0  0  0  0  0  0  0  0  0
    2.8366   -5.3874   -2.3765 N   0  0  0  0  0  0  0  0  0  0  0  0
    4.1474   -5.9938   -2.3870 C   0  0  0  0  0  0  0  0  0  0  0  0
    2.0347   -5.9944   -2.2344 H   0  0  0  0  0  0  0  0  0  0  0  0
    4.4067   -6.2901   -3.4141 H   0  0  0  0  0  0  0  0  0  0  0  0
    4.8887   -5.2708   -2.0159 H   0  0  0  0  0  0  0  0  0  0  0  0
    4.1454   -6.8824   -1.7386 H   0  0  0  0  0  0  0  0  0  0  0  0
  1  3  1  0  0  0  0
  1  7  1  0  0  0  0
  1  2  2  0  0  0  0
 28 29  1  0  0  0  0
 29 37  1  0  0  0  0
 29 30  2  0  0  0  0
 18 19  1  0  0  0  0
 19 27  1  0  0  0  0
 19 20  2  0  0  0  0
  8  9  1  0  0  0  0
  9 17  1  0  0  0  0
  9 10  2  0  0  0  0
 28 31  1  0  0  0  0
 18 21  1  0  0  0  0
  8 11  1  0  0  0  0
 37 38  1  0  0  0  0
 27 28  1  0  0  0  0
 17 18  1  0  0  0  0
  7  8  1  0  0  0  0
  3  4  1  0  0  0  0
  3  5  1  0  0  0  0
  3  6  1  0  0  0  0
 31 34  1  0  0  0  0
 31 35  1  0  0  0  0
 31 36  1  0  0  0  0
 21 24  1  0  0  0  0
 21 25  1  0  0  0  0
 21 26  1  0  0  0  0
 11 14  1  0  0  0  0
 11 15  1  0  0  0  0
 11 16  1  0  0  0  0
 38 40  1  0  0  0  0
 38 41  1  0  0  0  0
 38 42  1  0  0  0  0
 28 33  1  0  0  0  0
 18 23  1  0  0  0  0
  8 13  1  0  0  0  0
 37 39  1  0  0  0  0
  7 12  1  0  0  0  0
 27 32  1  0  0  0  0
 17 22  1  0  0  0  0
M  END
$$$$

  -OEChem-05262214473D

 42 41  0     1  0  0  0  0  0999 V2000
   -5.7851   -0.9580    0.6237 C   0  0  0  0  0  0  0  0  0  0  0  0
   -6.2213    0.1296    0.2652 O   0  0  0  0  0  0  0  0  0  0  0  0
   -6.7088   -2.1270    0.7168 C   0  0  0  0  0  0  0  0  0  0  0  0
   -7.1713   -2.2193    1.7126 H   0  0  0  0  0  0  0  0  0  0  0  0
   -7.5511   -2.0547    0.0101 H   0  0  0  0  0  0  0  0  0  0  0  0
   -6.2485   -3.1083    0.5191 H   0  0  0  0  0  0  0  0  0  0  0  0
   -4.4733   -1.2411    0.9668 N   0  0  0  0  0  0  0  0  0  0  0  0
   -3.4203   -0.2603    0.9449 C   0  0  2  0  0  0  0  0  0  0  0  0
   -2.1242   -0.9699    0.5759 C   0  0  0  0  0  0  0  0  0  0  0  0
   -1.8694   -2.1225    0.9189 O   0  0  0  0  0  0  0  0  0  0  0  0
   -3.2916    0.4435    2.2868 C   0  0  0  0  0  0  0  0  0  0  0  0
   -4.2421   -2.1920    1.2489 H   0  0  0  0  0  0  0  0  0  0  0  0
   -3.6772    0.4622    0.1625 H   0  0  0  0  0  0  0  0  0  0  0  0
   -3.0345   -0.2644    3.0832 H   0  0  0  0  0  0  0  0  0  0  0  0
   -2.5093    1.2092    2.2599 H   0  0  0  0  0  0  0  0  0  0  0  0
   -4.2338    0.9283    2.5645 H   0  0  0  0  0  0  0  0  0  0  0  0
   -1.2626   -0.1515   -0.1463 N   0  0  0  0  0  0  0  0  0  0  0  0
    0.0431   -0.5785   -0.5755 C   0  0  2  0  0  0  0  0  0  0  0  0
   -0.1323   -1.7918   -1.4792 C   0  0  0  0  0  0  0  0  0  0  0  0
   -1.2278   -2.2924   -1.7249 O   0  0  0  0  0  0  0  0  0  0  0  0
    0.9350   -0.9089    0.6111 C   0  0  0  0  0  0  0  0  0  0  0  0
   -1.5766    0.7776   -0.4197 H   0  0  0  0  0  0  0  0  0  0  0  0
    0.4725    0.2481   -1.1522 H   0  0  0  0  0  0  0  0  0  0  0  0
    0.5210   -1.7349    1.2009 H   0  0  0  0  0  0  0  0  0  0  0  0
    1.9368   -1.2061    0.2839 H   0  0  0  0  0  0  0  0  0  0  0  0
    1.0359   -0.0440    1.2756 H   0  0  0  0  0  0  0  0  0  0  0  0
    1.0827   -2.2801   -1.9473 N   0  0  0  0  0  0  0  0  0  0  0  0
    1.1848   -3.4459   -2.7851 C   0  0  2  0  0  0  0  0  0  0  0  0
    2.4982   -4.1450   -2.4600 C   0  0  0  0  0  0  0  0  0  0  0  0
    3.5190   -3.5397   -2.1398 O   0  0  0  0  0  0  0  0  0  0  0  0
    1.1161   -3.0761   -4.2586 C   0  0  0  0  0  0  0  0  0  0  0  0
    1.9377   -1.7748   -1.7233 H   0  0  0  0  0  0  0  0  0  0  0  0
    0.3469   -4.1000   -2.5203 H   0  0  0  0  0  0  0  0  0  0  0  0
    1.9477   -2.4209   -4.5426 H   0  0  0  0  0  0  0  0  0  0  0  0
    1.1652   -3.9666   -4.8939 H   0  0  0  0  0  0  0  0  0  0  0  0
    0.1840   -2.5470   -4.4846 H   0  0  0  0  0  0  0  0  0  0  0  0
    2.4080   -5.5217   -2.6114 N   0  0  0  0  0  0  0  0  0  0  0  0
    3.5321   -6.4042   -2.4030 C   0  0  0  0  0  0  0  0  0  0  0  0
    1.5119   -5.9415   -2.8407 H   0  0  0  0  0  0  0  0  0  0  0  0
    4.0495   -6.5719   -3.3591 H   0  0  0  0  0  0  0  0  0  0  0  0
    4.2285   -5.9473   -1.6845 H   0  0  0  0  0  0  0  0  0  0  0  0
    3.1745   -7.3658   -2.0062 H   0  0  0  0  0  0  0  0  0  0  0  0
  1  3  1  0  0  0  0
  1  7  1  0  0  0  0
  1  2  2  0  0  0  0
 28 29  1  0  0  0  0
 29 37  1  0  0  0  0
 29 30  2  0  0  0  0
 18 19  1  0  0  0  0
 19 27  1  0  0  0  0
 19 20  2  0  0  0  0
  8  9  1  0  0  0  0
  9 17  1  0  0  0  0
  9 10  2  0  0  0  0
 28 31  1  0  0  0  0
 18 21  1  0  0  0  0
  8 11  1  0  0  0  0
 37 38  1  0  0  0  0
 27 28  1  0  0  0  0
 17 18  1  0  0  0  0
  7  8  1  0  0  0  0
  3  4  1  0  0  0  0
  3  5  1  0  0  0  0
  3  6  1  0  0  0  0
 31 34  1  0  0  0  0
 31 35  1  0  0  0  0
 31 36  1  0  0  0  0
 21 24  1  0  0  0  0
 21 25  1  0  0  0  0
 21 26  1  0  0  0  0
 11 14  1  0  0  0  0
 11 15  1  0  0  0  0
 11 16  1  0  0  0  0
 38 40  1  0  0  0  0
 38 41  1  0  0  0  0
 38 42  1  0  0  0  0
 28 33  1  0  0  0  0
 18 23  1  0  0  0  0
  8 13  1  0  0  0  0
 37 39  1  0  0  0  0
  7 12  1  0  0  0  0
 27 32  1  0  0  0  0
 17 22  1  0  0  0  0
M  END
$$$$

  -OEChem-05262214473D

 42 41  0     1  0  0  0  0  0999 V2000
   -5.7851   -0.9580    0.6237 C   0  0  0  0  0  0  0  0  0  0  0  0
   -6.2213    0.1296    0.2652 O   0  0  0  0  0  0  0  0  0  0  0  0
   -6.7088   -2.1270    0.7168 C   0  0  0  0  0  0  0  0  0  0  0  0
   -7.1713   -2.2193    1.7126 H   0  0  0  0  0  0  0  0  0  0  0  0
   -7.5511   -2.0547    0.0101 H   0  0  0  0  0  0  0  0  0  0  0  0
   -6.2485   -3.1083    0.5191 H   0  0  0  0  0  0  0  0  0  0  0  0
   -4.4733   -1.2411    0.9668 N   0  0  0  0  0  0  0  0  0  0  0  0
   -3.4203   -0.2603    0.9449 C   0  0  2  0  0  0  0  0  0  0  0  0
   -2.1242   -0.9699    0.5759 C   0  0  0  0  0  0  0  0  0  0  0  0
   -1.8694   -2.1225    0.9189 O   0  0  0  0  0  0  0  0  0  0  0  0
   -3.2916    0.4435    2.2868 C   0  0  0  0  0  0  0  0  0  0  0  0
   -4.2421   -2.1920    1.2489 H   0  0  0  0  0  0  0  0  0  0  0  0
   -3.6772    0.4622    0.1625 H   0  0  0  0  0  0  0  0  0  0  0  0
   -3.0345   -0.2644    3.0832 H   0  0  0  0  0  0  0  0  0  0  0  0
   -2.5093    1.2092    2.2599 H   0  0  0  0  0  0  0  0  0  0  0  0
   -4.2338    0.9283    2.5645 H   0  0  0  0  0  0  0  0  0  0  0  0
   -1.2626   -0.1515   -0.1463 N   0  0  0  0  0  0  0  0  0  0  0  0
    0.0431   -0.5785   -0.5755 C   0  0  2  0  0  0  0  0  0  0  0  0
   -0.1323   -1.7918   -1.4792 C   0  0  0  0  0  0  0  0  0  0  0  0
   -1.2193   -2.1326   -1.9411 O   0  0  0  0  0  0  0  0  0  0  0  0
    0.9350   -0.9089    0.6111 C   0  0  0  0  0  0  0  0  0  0  0  0
   -1.5766    0.7776   -0.4197 H   0  0  0  0  0  0  0  0  0  0  0  0
    0.4725    0.2481   -1.1522 H   0  0  0  0  0  0  0  0  0  0  0  0
    0.5210   -1.7349    1.2009 H   0  0  0  0  0  0  0  0  0  0  0  0
    1.9368   -1.2061    0.2839 H   0  0  0  0  0  0  0  0  0  0  0  0
    1.0359   -0.0440    1.2756 H   0  0  0  0  0  0  0  0  0  0  0  0
    1.0608   -2.4783   -1.6770 N   0  0  0  0  0  0  0  0  0  0  0  0
    1.1476   -3.6834   -2.4590 C   0  0  2  0  0  0  0  0  0  0  0  0
    2.2410   -4.5565   -1.8576 C   0  0  0  0  0  0  0  0  0  0  0  0
    3.2570   -4.0976   -1.3399 O   0  0  0  0  0  0  0  0  0  0  0  0
    1.4395   -3.3755   -3.9194 C   0  0  0  0  0  0  0  0  0  0  0  0
    1.9206   -2.0976   -1.2865 H   0  0  0  0  0  0  0  0  0  0  0  0
    0.1814   -4.1911   -2.3658 H   0  0  0  0  0  0  0  0  0  0  0  0
    2.4037   -2.8667   -4.0326 H   0  0  0  0  0  0  0  0  0  0  0  0
    1.4769   -4.2915   -4.5181 H   0  0  0  0  0  0  0  0  0  0  0  0
    0.6677   -2.7231   -4.3419 H   0  0  0  0  0  0  0  0  0  0  0  0
    1.9690   -5.9094   -2.0056 N   0  0  0  0  0  0  0  0  0  0  0  0
    2.8745   -6.9405   -1.5553 C   0  0  0  0  0  0  0  0  0  0  0  0
    1.0840   -6.1997   -2.4109 H   0  0  0  0  0  0  0  0  0  0  0  0
    3.5432   -7.2278   -2.3801 H   0  0  0  0  0  0  0  0  0  0  0  0
    3.4726   -6.5611   -0.7137 H   0  0  0  0  0  0  0  0  0  0  0  0
    2.2973   -7.8181   -1.2286 H   0  0  0  0  0  0  0  0  0  0  0  0
  1  3  1  0  0  0  0
  1  7  1  0  0  0  0
  1  2  2  0  0  0  0
 28 29  1  0  0  0  0
 29 37  1  0  0  0  0
 29 30  2  0  0  0  0
 18 19  1  0  0  0  0
 19 27  1  0  0  0  0
 19 20  2  0  0  0  0
  8  9  1  0  0  0  0
  9 17  1  0  0  0  0
  9 10  2  0  0  0  0
 28 31  1  0  0  0  0
 18 21  1  0  0  0  0
  8 11  1  0  0  0  0
 37 38  1  0  0  0  0
 27 28  1  0  0  0  0
 17 18  1  0  0  0  0
  7  8  1  0  0  0  0
  3  4  1  0  0  0  0
  3  5  1  0  0  0  0
  3  6  1  0  0  0  0
 31 34  1  0  0  0  0
 31 35  1  0  0  0  0
 31 36  1  0  0  0  0
 21 24  1  0  0  0  0
 21 25  1  0  0  0  0
 21 26  1  0  0  0  0
 11 14  1  0  0  0  0
 11 15  1  0  0  0  0
 11 16  1  0  0  0  0
 38 40  1  0  0  0  0
 38 41  1  0  0  0  0
 38 42  1  0  0  0  0
 28 33  1  0  0  0  0
 18 23  1  0  0  0  0
  8 13  1  0  0  0  0
 37 39  1  0  0  0  0
  7 12  1  0  0  0  0
 27 32  1  0  0  0  0
 17 22  1  0  0  0  0
M  END
$$$$

  -OEChem-05262214473D

 42 41  0     1  0  0  0  0  0999 V2000
   -5.7851   -0.9580    0.6237 C   0  0  0  0  0  0  0  0  0  0  0  0
   -6.2213    0.1296    0.2652 O   0  0  0  0  0  0  0  0  0  0  0  0
   -6.7088   -2.1270    0.7168 C   0  0  0  0  0  0  0  0  0  0  0  0
   -7.1713   -2.2193    1.7126 H   0  0  0  0  0  0  0  0  0  0  0  0
   -7.5511   -2.0547    0.0101 H   0  0  0  0  0  0  0  0  0  0  0  0
   -6.2485   -3.1083    0.5191 H   0  0  0  0  0  0  0  0  0  0  0  0
   -4.4733   -1.2411    0.9668 N   0  0  0  0  0  0  0  0  0  0  0  0
   -3.4203   -0.2603    0.9449 C   0  0  2  0  0  0  0  0  0  0  0  0
   -2.1242   -0.9699    0.5759 C   0  0  0  0  0  0  0  0  0  0  0  0
   -1.8694   -2.1225    0.9189 O   0  0  0  0  0  0  0  0  0  0  0  0
   -3.2916    0.4435    2.2868 C   0  0  0  0  0  0  0  0  0  0  0  0
   -4.2421   -2.1920    1.2489 H   0  0  0  0  0  0  0  0  0  0  0  0
   -3.6772    0.4622    0.1625 H   0  0  0  0  0  0  0  0  0  0  0  0
   -3.0345   -0.2644    3.0832 H   0  0  0  0  0  0  0  0  0  0  0  0
   -2.5093    1.2092    2.2599 H   0  0  0  0  0  0  0  0  0  0  0  0
   -4.2338    0.9283    2.5645 H   0  0  0  0  0  0  0  0  0  0  0  0
   -1.2626   -0.1515   -0.1463 N   0  0  0  0  0  0  0  0  0  0  0  0
    0.0431   -0.5785   -0.5755 C   0  0  2  0  0  0  0  0  0  0  0  0
   -0.1323   -1.7918   -1.4792 C   0  0  0  0  0  0  0  0  0  0  0  0
   -1.1420   -1.9861   -2.1528 O   0  0  0  0  0  0  0  0  0  0  0  0
    0.9350   -0.9089    0.6111 C   0  0  0  0  0  0  0  0  0  0  0  0
   -1.5766    0.7776   -0.4197 H   0  0  0  0  0  0  0  0  0  0  0  0
    0.4725    0.2481   -1.1522 H   0  0  0  0  0  0  0  0  0  0  0  0
    0.5210   -1.7349    1.2009 H   0  0  0  0  0  0  0  0  0  0  0  0
    1.9368   -1.2061    0.2839 H   0  0  0  0  0  0  0  0  0  0  0  0
    1.0359   -0.0440    1.2756 H   0  0  0  0  0  0  0  0  0  0  0  0
    0.9534   -2.6583   -1.4144 N   0  0  0  0  0  0  0  0  0  0  0  0
    1.0079   -3.8974   -2.1445 C   0  0  2  0  0  0  0  0  0  0  0  0
    1.8051   -4.8965   -1.3165 C   0  0  0  0  0  0  0  0  0  0  0  0
    2.7534   -4.5724   -0.6046 O   0  0  0  0  0  0  0  0  0  0  0  0
    1.6360   -3.7043   -3.5160 C   0  0  0  0  0  0  0  0  0  0  0  0
    1.7644   -2.3938   -0.8585 H   0  0  0  0  0  0  0  0  0  0  0  0
   -0.0244   -4.2492   -2.2480 H   0  0  0  0  0  0  0  0  0  0  0  0
    2.6706   -3.3520   -3.4327 H   0  0  0  0  0  0  0  0  0  0  0  0
    1.6507   -4.6420   -4.0813 H   0  0  0  0  0  0  0  0  0  0  0  0
    1.0785   -2.9633   -4.0992 H   0  0  0  0  0  0  0  0  0  0  0  0
    1.3604   -6.1984   -1.4994 N   0  0  0  0  0  0  0  0  0  0  0  0
    1.9821   -7.3323   -0.8561 C   0  0  0  0  0  0  0  0  0  0  0  0
    0.5424   -6.3706   -2.0764 H   0  0  0  0  0  0  0  0  0  0  0  0
    2.7514   -7.7545   -1.5193 H   0  0  0  0  0  0  0  0  0  0  0  0
    2.4480   -7.0089    0.0864 H   0  0  0  0  0  0  0  0  0  0  0  0
    1.2203   -8.0971   -0.6450 H   0  0  0  0  0  0  0  0  0  0  0  0
  1  3  1  0  0  0  0
  1  7  1  0  0  0  0
  1  2  2  0  0  0  0
 28 29  1  0  0  0  0
 29 37  1  0  0  0  0
 29 30  2  0  0  0  0
 18 19  1  0  0  0  0
 19 27  1  0  0  0  0
 19 20  2  0  0  0  0
  8  9  1  0  0  0  0
  9 17  1  0  0  0  0
  9 10  2  0  0  0  0
 28 31  1  0  0  0  0
 18 21  1  0  0  0  0
  8 11  1  0  0  0  0
 37 38  1  0  0  0  0
 27 28  1  0  0  0  0
 17 18  1  0  0  0  0
  7  8  1  0  0  0  0
  3  4  1  0  0  0  0
  3  5  1  0  0  0  0
  3  6  1  0  0  0  0
 31 34  1  0  0  0  0
 31 35  1  0  0  0  0
 31 36  1  0  0  0  0
 21 24  1  0  0  0  0
 21 25  1  0  0  0  0
 21 26  1  0  0  0  0
 11 14  1  0  0  0  0
 11 15  1  0  0  0  0
 11 16  1  0  0  0  0
 38 40  1  0  0  0  0
 38 41  1  0  0  0  0
 38 42  1  0  0  0  0
 28 33  1  0  0  0  0
 18 23  1  0  0  0  0
  8 13  1  0  0  0  0
 37 39  1  0  0  0  0
  7 12  1  0  0  0  0
 27 32  1  0  0  0  0
 17 22  1  0  0  0  0
M  END
$$$$

  -OEChem-05262214473D

 42 41  0     1  0  0  0  0  0999 V2000
   -5.7851   -0.9580    0.6237 C   0  0  0  0  0  0  0  0  0  0  0  0
   -6.2213    0.1296    0.2652 O   0  0  0  0  0  0  0  0  0  0  0  0
   -6.7088   -2.1270    0.7168 C   0  0  0  0  0  0  0  0  0  0  0  0
   -7.1713   -2.2193    1.7126 H   0  0  0  0  0  0  0  0  0  0  0  0
   -7.5511   -2.0547    0.0101 H   0  0  0  0  0  0  0  0  0  0  0  0
   -6.2485   -3.1083    0.5191 H   0  0  0  0  0  0  0  0  0  0  0  0
   -4.4733   -1.2411    0.9668 N   0  0  0  0  0  0  0  0  0  0  0  0
   -3.4203   -0.2603    0.9449 C   0  0  2  0  0  0  0  0  0  0  0  0
   -2.1242   -0.9699    0.5759 C   0  0  0  0  0  0  0  0  0  0  0  0
   -1.8694   -2.1225    0.9189 O   0  0  0  0  0  0  0  0  0  0  0  0
   -3.2916    0.4435    2.2868 C   0  0  0  0  0  0  0  0  0  0  0  0
   -4.2421   -2.1920    1.2489 H   0  0  0  0  0  0  0  0  0  0  0  0
   -3.6772    0.4622    0.1625 H   0  0  0  0  0  0  0  0  0  0  0  0
   -3.0345   -0.2644    3.0832 H   0  0  0  0  0  0  0  0  0  0  0  0
   -2.5093    1.2092    2.2599 H   0  0  0  0  0  0  0  0  0  0  0  0
   -4.2338    0.9283    2.5645 H   0  0  0  0  0  0  0  0  0  0  0  0
   -1.2626   -0.1515   -0.1463 N   0  0  0  0  0  0  0  0  0  0  0  0
    0.0431   -0.5785   -0.5755 C   0  0  2  0  0  0  0  0  0  0  0  0
   -0.1323   -1.7918   -1.4792 C   0  0  0  0  0  0  0  0  0  0  0  0
   -1.0011   -1.8627   -2.3459 O   0  0  0  0  0  0  0  0  0  0  0  0
    0.9350   -0.9089    0.6111 C   0  0  0  0  0  0  0  0  0  0  0  0
   -1.5766    0.7776   -0.4197 H   0  0  0  0  0  0  0  0  0  0  0  0
    0.4725    0.2481   -1.1522 H   0  0  0  0  0  0  0  0  0  0  0  0
    0.5210   -1.7349    1.2009 H   0  0  0  0  0  0  0  0  0  0  0  0
    1.9368   -1.2061    0.2839 H   0  0  0  0  0  0  0  0  0  0  0  0
    1.0359   -0.0440    1.2756 H   0  0  0  0  0  0  0  0  0  0  0  0
    0.7679   -2.8079   -1.1776 N   0  0  0  0  0  0  0  0  0  0  0  0
    0.7753   -4.0732   -1.8633 C   0  0  2  0  0  0  0  0  0  0  0  0
    1.2203   -5.1419   -0.8736 C   0  0  0  0  0  0  0  0  0  0  0  0
    2.0424   -4.9317    0.0159 O   0  0  0  0  0  0  0  0  0  0  0  0
    1.6921   -4.0400   -3.0761 C   0  0  0  0  0  0  0  0  0  0  0  0
    1.4797   -2.6431   -0.4685 H   0  0  0  0  0  0  0  0  0  0  0  0
   -0.2563   -4.2701   -2.1748 H   0  0  0  0  0  0  0  0  0  0  0  0
    2.7301   -3.8440   -2.7837 H   0  0  0  0  0  0  0  0  0  0  0  0
    1.6746   -4.9943   -3.6130 H   0  0  0  0  0  0  0  0  0  0  0  0
    1.3884   -3.2512   -3.7728 H   0  0  0  0  0  0  0  0  0  0  0  0
    0.6239   -6.3691   -1.1274 N   0  0  0  0  0  0  0  0  0  0  0  0
    0.9158   -7.5528   -0.3530 C   0  0  0  0  0  0  0  0  0  0  0  0
   -0.0760   -6.4425   -1.8598 H   0  0  0  0  0  0  0  0  0  0  0  0
    1.7284   -8.1159   -0.8354 H   0  0  0  0  0  0  0  0  0  0  0  0
    1.2246   -7.2603    0.6614 H   0  0  0  0  0  0  0  0  0  0  0  0
    0.0167   -8.1838   -0.2950 H   0  0  0  0  0  0  0  0  0  0  0  0
  1  3  1  0  0  0  0
  1  7  1  0  0  0  0
  1  2  2  0  0  0  0
 28 29  1  0  0  0  0
 29 37  1  0  0  0  0
 29 30  2  0  0  0  0
 18 19  1  0  0  0  0
 19 27  1  0  0  0  0
 19 20  2  0  0  0  0
  8  9  1  0  0  0  0
  9 17  1  0  0  0  0
  9 10  2  0  0  0  0
 28 31  1  0  0  0  0
 18 21  1  0  0  0  0
  8 11  1  0  0  0  0
 37 38  1  0  0  0  0
 27 28  1  0  0  0  0
 17 18  1  0  0  0  0
  7  8  1  0  0  0  0
  3  4  1  0  0  0  0
  3  5  1  0  0  0  0
  3  6  1  0  0  0  0
 31 34  1  0  0  0  0
 31 35  1  0  0  0  0
 31 36  1  0  0  0  0
 21 24  1  0  0  0  0
 21 25  1  0  0  0  0
 21 26  1  0  0  0  0
 11 14  1  0  0  0  0
 11 15  1  0  0  0  0
 11 16  1  0  0  0  0
 38 40  1  0  0  0  0
 38 41  1  0  0  0  0
 38 42  1  0  0  0  0
 28 33  1  0  0  0  0
 18 23  1  0  0  0  0
  8 13  1  0  0  0  0
 37 39  1  0  0  0  0
  7 12  1  0  0  0  0
 27 32  1  0  0  0  0
 17 22  1  0  0  0  0
M  END
$$$$

  -OEChem-05262214473D

 42 41  0     1  0  0  0  0  0999 V2000
   -5.7851   -0.9580    0.6237 C   0  0  0  0  0  0  0  0  0  0  0  0
   -6.2213    0.1296    0.2652 O   0  0  0  0  0  0  0  0  0  0  0  0
   -6.7088   -2.1270    0.7168 C   0  0  0  0  0  0  0  0  0  0  0  0
   -7.1713   -2.2193    1.7126 H   0  0  0  0  0  0  0  0  0  0  0  0
   -7.5511   -2.0547    0.0101 H   0  0  0  0  0  0  0  0  0  0  0  0
   -6.2485   -3.1083    0.5191 H   0  0  0  0  0  0  0  0  0  0  0  0
   -4.4733   -1.2411    0.9668 N   0  0  0  0  0  0  0  0  0  0  0  0
   -3.4203   -0.2603    0.9449 C   0  0  2  0  0  0  0  0  0  0  0  0
   -2.1242   -0.9699    0.5759 C   0  0  0  0  0  0  0  0  0  0  0  0
   -1.8694   -2.1225    0.9189 O   0  0  0  0  0  0  0  0  0  0  0  0
   -3.2916    0.4435    2.2868 C   0  0  0  0  0  0  0  0  0  0  0  0
   -4.2421   -2.1920    1.2489 H   0  0  0  0  0  0  0  0  0  0  0  0
   -3.6772    0.4622    0.1625 H   0  0  0  0  0  0  0  0  0  0  0  0
   -3.0345   -0.2644    3.0832 H   0  0  0  0  0  0  0  0  0  0  0  0
   -2.5093    1.2092    2.2599 H   0  0  0  0  0  0  0  0  0  0  0  0
   -4.2338    0.9283    2.5645 H   0  0  0  0  0  0  0  0  0  0  0  0
   -1.2626   -0.1515   -0.1463 N   0  0  0  0  0  0  0  0  0  0  0  0
    0.0431   -0.5785   -0.5755 C   0  0  2  0  0  0  0  0  0  0  0  0
   -0.1323   -1.7918   -1.4792 C   0  0  0  0  0  0  0  0  0  0  0  0
   -0.8063   -1.7709   -2.5069 O   0  0  0  0  0  0  0  0  0  0  0  0
    0.9350   -0.9089    0.6111 C   0  0  0  0  0  0  0  0  0  0  0  0
   -1.5766    0.7776   -0.4197 H   0  0  0  0  0  0  0  0  0  0  0  0
    0.4725    0.2481   -1.1522 H   0  0  0  0  0  0  0  0  0  0  0  0
    0.5210   -1.7349    1.2009 H   0  0  0  0  0  0  0  0  0  0  0  0
    1.9368   -1.2061    0.2839 H   0  0  0  0  0  0  0  0  0  0  0  0
    1.0359   -0.0440    1.2756 H   0  0  0  0  0  0  0  0  0  0  0  0
    0.5170   -2.9168   -0.9826 N   0  0  0  0  0  0  0  0  0  0  0  0
    0.4656   -4.1990   -1.6343 C   0  0  2  0  0  0  0  0  0  0  0  0
    0.5264   -5.2758   -0.5590 C   0  0  0  0  0  0  0  0  0  0  0  0
    1.1725   -5.1512    0.4793 O   0  0  0  0  0  0  0  0  0  0  0  0
    1.6040   -4.3598   -2.6297 C   0  0  0  0  0  0  0  0  0  0  0  0
    1.0861   -2.8287   -0.1430 H   0  0  0  0  0  0  0  0  0  0  0  0
   -0.4987   -4.2525   -2.1514 H   0  0  0  0  0  0  0  0  0  0  0  0
    2.5783   -4.3089   -2.1299 H   0  0  0  0  0  0  0  0  0  0  0  0
    1.5470   -5.3242   -3.1452 H   0  0  0  0  0  0  0  0  0  0  0  0
    1.5761   -3.5671   -3.3851 H   0  0  0  0  0  0  0  0  0  0  0  0
   -0.1905   -6.4097   -0.9147 N   0  0  0  0  0  0  0  0  0  0  0  0
   -0.2517   -7.5870   -0.0804 C   0  0  0  0  0  0  0  0  0  0  0  0
   -0.7291   -6.4106   -1.7759 H   0  0  0  0  0  0  0  0  0  0  0  0
    0.5436   -8.2876   -0.3750 H   0  0  0  0  0  0  0  0  0  0  0  0
   -0.1143   -7.2980    0.9720 H   0  0  0  0  0  0  0  0  0  0  0  0
   -1.2313   -8.0723   -0.2025 H   0  0  0  0  0  0  0  0  0  0  0  0
  1  3  1  0  0  0  0
  1  7  1  0  0  0  0
  1  2  2  0  0  0  0
 28 29  1  0  0  0  0
 29 37  1  0  0  0  0
 29 30  2  0  0  0  0
 18 19  1  0  0  0  0
 19 27  1  0  0  0  0
 19 20  2  0  0  0  0
  8  9  1  0  0  0  0
  9 17  1  0  0  0  0
  9 10  2  0  0  0  0
 28 31  1  0  0  0  0
 18 21  1  0  0  0  0
  8 11  1  0  0  0  0
 37 38  1  0  0  0  0
 27 28  1  0  0  0  0
 17 18  1  0  0  0  0
  7  8  1  0  0  0  0
  3  4  1  0  0  0  0
  3  5  1  0  0  0  0
  3  6  1  0  0  0  0
 31 34  1  0  0  0  0
 31 35  1  0  0  0  0
 31 36  1  0  0  0  0
 21 24  1  0  0  0  0
 21 25  1  0  0  0  0
 21 26  1  0  0  0  0
 11 14  1  0  0  0  0
 11 15  1  0  0  0  0
 11 16  1  0  0  0  0
 38 40  1  0  0  0  0
 38 41  1  0  0  0  0
 38 42  1  0  0  0  0
 28 33  1  0  0  0  0
 18 23  1  0  0  0  0
  8 13  1  0  0  0  0
 37 39  1  0  0  0  0
  7 12  1  0  0  0  0
 27 32  1  0  0  0  0
 17 22  1  0  0  0  0
M  END
$$$$

  -OEChem-05262214473D

 42 41  0     1  0  0  0  0  0999 V2000
   -5.7851   -0.9580    0.6237 C   0  0  0  0  0  0  0  0  0  0  0  0
   -6.2213    0.1296    0.2652 O   0  0  0  0  0  0  0  0  0  0  0  0
   -6.7088   -2.1270    0.7168 C   0  0  0  0  0  0  0  0  0  0  0  0
   -7.1713   -2.2193    1.7126 H   0  0  0  0  0  0  0  0  0  0  0  0
   -7.5511   -2.0547    0.0101 H   0  0  0  0  0  0  0  0  0  0  0  0
   -6.2485   -3.1083    0.5191 H   0  0  0  0  0  0  0  0  0  0  0  0
   -4.4733   -1.2411    0.9668 N   0  0  0  0  0  0  0  0  0  0  0  0
   -3.4203   -0.2603    0.9449 C   0  0  2  0  0  0  0  0  0  0  0  0
   -2.1242   -0.9699    0.5759 C   0  0  0  0  0  0  0  0  0  0  0  0
   -1.8694   -2.1225    0.9189 O   0  0  0  0  0  0  0  0  0  0  0  0
   -3.2916    0.4435    2.2868 C   0  0  0  0  0  0  0  0  0  0  0  0
   -4.2421   -2.1920    1.2489 H   0  0  0  0  0  0  0  0  0  0  0  0
   -3.6772    0.4622    0.1625 H   0  0  0  0  0  0  0  0  0  0  0  0
   -3.0345   -0.2644    3.0832 H   0  0  0  0  0  0  0  0  0  0  0  0
   -2.5093    1.2092    2.2599 H   0  0  0  0  0  0  0  0  0  0  0  0
   -4.2338    0.9283    2.5645 H   0  0  0  0  0  0  0  0  0  0  0  0
   -1.2626   -0.1515   -0.1463 N   0  0  0  0  0  0  0  0  0  0  0  0
    0.0431   -0.5785   -0.5755 C   0  0  2  0  0  0  0  0  0  0  0  0
   -0.1323   -1.7918   -1.4792 C   0  0  0  0  0  0  0  0  0  0  0  0
   -0.5709   -1.7169   -2.6251 O   0  0  0  0  0  0  0  0  0  0  0  0
    0.9350   -0.9089    0.6111 C   0  0  0  0  0  0  0  0  0  0  0  0
   -1.5766    0.7776   -0.4197 H   0  0  0  0  0  0  0  0  0  0  0  0
    0.4725    0.2481   -1.1522 H   0  0  0  0  0  0  0  0  0  0  0  0
    0.5210   -1.7349    1.2009 H   0  0  0  0  0  0  0  0  0  0  0  0
    1.9368   -1.2061    0.2839 H   0  0  0  0  0  0  0  0  0  0  0  0
    1.0359   -0.0440    1.2756 H   0  0  0  0  0  0  0  0  0  0  0  0
    0.2176   -2.9777   -0.8428 N   0  0  0  0  0  0  0  0  0  0  0  0
    0.0999   -4.2661   -1.4732 C   0  0  2  0  0  0  0  0  0  0  0  0
   -0.2292   -5.2893   -0.3942 C   0  0  0  0  0  0  0  0  0  0  0  0
    0.2029   -5.2157    0.7542 O   0  0  0  0  0  0  0  0  0  0  0  0
    1.3778   -4.6419   -2.2070 C   0  0  0  0  0  0  0  0  0  0  0  0
    0.6103   -2.9377    0.0958 H   0  0  0  0  0  0  0  0  0  0  0  0
   -0.7349   -4.1976   -2.1792 H   0  0  0  0  0  0  0  0  0  0  0  0
    2.2254   -4.7153   -1.5159 H   0  0  0  0  0  0  0  0  0  0  0  0
    1.2767   -5.6094   -2.7099 H   0  0  0  0  0  0  0  0  0  0  0  0
    1.6291   -3.8895   -2.9624 H   0  0  0  0  0  0  0  0  0  0  0  0
   -1.0272   -6.3175   -0.8761 N   0  0  0  0  0  0  0  0  0  0  0  0
   -1.4409   -7.4327   -0.0568 C   0  0  0  0  0  0  0  0  0  0  0  0
   -1.3723   -6.2769   -1.8306 H   0  0  0  0  0  0  0  0  0  0  0  0
   -0.7221   -8.2577   -0.1695 H   0  0  0  0  0  0  0  0  0  0  0  0
   -1.4774   -7.1197    0.9971 H   0  0  0  0  0  0  0  0  0  0  0  0
   -2.4387   -7.7701   -0.3738 H   0  0  0  0  0  0  0  0  0  0  0  0
  1  3  1  0  0  0  0
  1  7  1  0  0  0  0
  1  2  2  0  0  0  0
 28 29  1  0  0  0  0
 29 37  1  0  0  0  0
 29 30  2  0  0  0  0
 18 19  1  0  0  0  0
 19 27  1  0  0  0  0
 19 20  2  0  0  0  0
  8  9  1  0  0  0  0
  9 17  1  0  0  0  0
  9 10  2  0  0  0  0
 28 31  1  0  0  0  0
 18 21  1  0  0  0  0
  8 11  1  0  0  0  0
 37 38  1  0  0  0  0
 27 28  1  0  0  0  0
 17 18  1  0  0  0  0
  7  8  1  0  0  0  0
  3  4  1  0  0  0  0
  3  5  1  0  0  0  0
  3  6  1  0  0  0  0
 31 34  1  0  0  0  0
 31 35  1  0  0  0  0
 31 36  1  0  0  0  0
 21 24  1  0  0  0  0
 21 25  1  0  0  0  0
 21 26  1  0  0  0  0
 11 14  1  0  0  0  0
 11 15  1  0  0  0  0
 11 16  1  0  0  0  0
 38 40  1  0  0  0  0
 38 41  1  0  0  0  0
 38 42  1  0  0  0  0
 28 33  1  0  0  0  0
 18 23  1  0  0  0  0
  8 13  1  0  0  0  0
 37 39  1  0  0  0  0
  7 12  1  0  0  0  0
 27 32  1  0  0  0  0
 17 22  1  0  0  0  0
M  END
$$$$

  -OEChem-05262214473D

 42 41  0     1  0  0  0  0  0999 V2000
   -5.7851   -0.9580    0.6237 C   0  0  0  0  0  0  0  0  0  0  0  0
   -6.2213    0.1296    0.2652 O   0  0  0  0  0  0  0  0  0  0  0  0
   -6.7088   -2.1270    0.7168 C   0  0  0  0  0  0  0  0  0  0  0  0
   -7.1713   -2.2193    1.7126 H   0  0  0  0  0  0  0  0  0  0  0  0
   -7.5511   -2.0547    0.0101 H   0  0  0  0  0  0  0  0  0  0  0  0
   -6.2485   -3.1083    0.5191 H   0  0  0  0  0  0  0  0  0  0  0  0
   -4.4733   -1.2411    0.9668 N   0  0  0  0  0  0  0  0  0  0  0  0
   -3.4203   -0.2603    0.9449 C   0  0  2  0  0  0  0  0  0  0  0  0
   -2.1242   -0.9699    0.5759 C   0  0  0  0  0  0  0  0  0  0  0  0
   -1.8694   -2.1225    0.9189 O   0  0  0  0  0  0  0  0  0  0  0  0
   -3.2916    0.4435    2.2868 C   0  0  0  0  0  0  0  0  0  0  0  0
   -4.2421   -2.1920    1.2489 H   0  0  0  0  0  0  0  0  0  0  0  0
   -3.6772    0.4622    0.1625 H   0  0  0  0  0  0  0  0  0  0  0  0
   -3.0345   -0.2644    3.0832 H   0  0  0  0  0  0  0  0  0  0  0  0
   -2.5093    1.2092    2.2599 H   0  0  0  0  0  0  0  0  0  0  0  0
   -4.2338    0.9283    2.5645 H   0  0  0  0  0  0  0  0  0  0  0  0
   -1.2626   -0.1515   -0.1463 N   0  0  0  0  0  0  0  0  0  0  0  0
    0.0431   -0.5785   -0.5755 C   0  0  2  0  0  0  0  0  0  0  0  0
   -0.1323   -1.7918   -1.4792 C   0  0  0  0  0  0  0  0  0  0  0  0
   -0.3108   -1.7045   -2.6923 O   0  0  0  0  0  0  0  0  0  0  0  0
    0.9350   -0.9089    0.6111 C   0  0  0  0  0  0  0  0  0  0  0  0
   -1.5766    0.7776   -0.4197 H   0  0  0  0  0  0  0  0  0  0  0  0
    0.4725    0.2481   -1.1522 H   0  0  0  0  0  0  0  0  0  0  0  0
    0.5210   -1.7349    1.2009 H   0  0  0  0  0  0  0  0  0  0  0  0
    1.9368   -1.2061    0.2839 H   0  0  0  0  0  0  0  0  0  0  0  0
    1.0359   -0.0440    1.2756 H   0  0  0  0  0  0  0  0  0  0  0  0
   -0.1097   -2.9863   -0.7676 N   0  0  0  0  0  0  0  0  0  0  0  0
   -0.2968   -4.2700   -1.3910 C   0  0  2  0  0  0  0  0  0  0  0  0
   -0.9952   -5.1814   -0.3905 C   0  0  0  0  0  0  0  0  0  0  0  0
   -0.8002   -5.1210    0.8217 O   0  0  0  0  0  0  0  0  0  0  0  0
    1.0288   -4.8670   -1.8370 C   0  0  0  0  0  0  0  0  0  0  0  0
    0.0847   -2.9628    0.2315 H   0  0  0  0  0  0  0  0  0  0  0  0
   -0.9489   -4.1092   -2.2565 H   0  0  0  0  0  0  0  0  0  0  0  0
    1.6955   -5.0352   -0.9834 H   0  0  0  0  0  0  0  0  0  0  0  0
    0.8820   -5.8303   -2.3366 H   0  0  0  0  0  0  0  0  0  0  0  0
    1.5435   -4.1965   -2.5337 H   0  0  0  0  0  0  0  0  0  0  0  0
   -1.8292   -6.0989   -1.0140 N   0  0  0  0  0  0  0  0  0  0  0  0
   -2.5708   -7.1003   -0.2838 C   0  0  0  0  0  0  0  0  0  0  0  0
   -1.9617   -6.0507   -2.0199 H   0  0  0  0  0  0  0  0  0  0  0  0
   -1.9824   -8.0283   -0.2328 H   0  0  0  0  0  0  0  0  0  0  0  0
   -2.7718   -6.7373    0.7349 H   0  0  0  0  0  0  0  0  0  0  0  0
   -3.5233   -7.2980   -0.7973 H   0  0  0  0  0  0  0  0  0  0  0  0
  1  3  1  0  0  0  0
  1  7  1  0  0  0  0
  1  2  2  0  0  0  0
 28 29  1  0  0  0  0
 29 37  1  0  0  0  0
 29 30  2  0  0  0  0
 18 19  1  0  0  0  0
 19 27  1  0  0  0  0
 19 20  2  0  0  0  0
  8  9  1  0  0  0  0
  9 17  1  0  0  0  0
  9 10  2  0  0  0  0
 28 31  1  0  0  0  0
 18 21  1  0  0  0  0
  8 11  1  0  0  0  0
 37 38  1  0  0  0  0
 27 28  1  0  0  0  0
 17 18  1  0  0  0  0
  7  8  1  0  0  0  0
  3  4  1  0  0  0  0
  3  5  1  0  0  0  0
  3  6  1  0  0  0  0
 31 34  1  0  0  0  0
 31 35  1  0  0  0  0
 31 36  1  0  0  0  0
 21 24  1  0  0  0  0
 21 25  1  0  0  0  0
 21 26  1  0  0  0  0
 11 14  1  0  0  0  0
 11 15  1  0  0  0  0
 11 16  1  0  0  0  0
 38 40  1  0  0  0  0
 38 41  1  0  0  0  0
 38 42  1  0  0  0  0
 28 33  1  0  0  0  0
 18 23  1  0  0  0  0
  8 13  1  0  0  0  0
 37 39  1  0  0  0  0
  7 12  1  0  0  0  0
 27 32  1  0  0  0  0
 17 22  1  0  0  0  0
M  END
$$$$

  -OEChem-05262214473D

 42 41  0     1  0  0  0  0  0999 V2000
   -5.7851   -0.9580    0.6237 C   0  0  0  0  0  0  0  0  0  0  0  0
   -6.2213    0.1296    0.2652 O   0  0  0  0  0  0  0  0  0  0  0  0
   -6.7088   -2.1270    0.7168 C   0  0  0  0  0  0  0  0  0  0  0  0
   -7.1713   -2.2193    1.7126 H   0  0  0  0  0  0  0  0  0  0  0  0
   -7.5511   -2.0547    0.0101 H   0  0  0  0  0  0  0  0  0  0  0  0
   -6.2485   -3.1083    0.5191 H   0  0  0  0  0  0  0  0  0  0  0  0
   -4.4733   -1.2411    0.9668 N   0  0  0  0  0  0  0  0  0  0  0  0
   -3.4203   -0.2603    0.9449 C   0  0  2  0  0  0  0  0  0  0  0  0
   -2.1242   -0.9699    0.5759 C   0  0  0  0  0  0  0  0  0  0  0  0
   -1.8694   -2.1225    0.9189 O   0  0  0  0  0  0  0  0  0  0  0  0
   -3.2916    0.4435    2.2868 C   0  0  0  0  0  0  0  0  0  0  0  0
   -4.2421   -2.1920    1.2489 H   0  0  0  0  0  0  0  0  0  0  0  0
   -3.6772    0.4622    0.1625 H   0  0  0  0  0  0  0  0  0  0  0  0
   -3.0345   -0.2644    3.0832 H   0  0  0  0  0  0  0  0  0  0  0  0
   -2.5093    1.2092    2.2599 H   0  0  0  0  0  0  0  0  0  0  0  0
   -4.2338    0.9283    2.5645 H   0  0  0  0  0  0  0  0  0  0  0  0
   -1.2626   -0.1515   -0.1463 N   0  0  0  0  0  0  0  0  0  0  0  0
    0.0431   -0.5785   -0.5755 C   0  0  2  0  0  0  0  0  0  0  0  0
   -0.1323   -1.7918   -1.4792 C   0  0  0  0  0  0  0  0  0  0  0  0
   -0.0438   -1.7344   -2.7039 O   0  0  0  0  0  0  0  0  0  0  0  0
    0.9350   -0.9089    0.6111 C   0  0  0  0  0  0  0  0  0  0  0  0
   -1.5766    0.7776   -0.4197 H   0  0  0  0  0  0  0  0  0  0  0  0
    0.4725    0.2481   -1.1522 H   0  0  0  0  0  0  0  0  0  0  0  0
    0.5210   -1.7349    1.2009 H   0  0  0  0  0  0  0  0  0  0  0  0
    1.9368   -1.2061    0.2839 H   0  0  0  0  0  0  0  0  0  0  0  0
    1.0359   -0.0440    1.2756 H   0  0  0  0  0  0  0  0  0  0  0  0
   -0.4427   -2.9422   -0.7622 N   0  0  0  0  0  0  0  0  0  0  0  0
   -0.6976   -4.2103   -1.3933 C   0  0  2  0  0  0  0  0  0  0  0  0
   -1.7192   -4.9594   -0.5480 C   0  0  0  0  0  0  0  0  0  0  0  0
   -1.7684   -4.8734    0.6772 O   0  0  0  0  0  0  0  0  0  0  0  0
    0.5808   -5.0198   -1.5449 C   0  0  0  0  0  0  0  0  0  0  0  0
   -0.4549   -2.9024    0.2550 H   0  0  0  0  0  0  0  0  0  0  0  0
   -1.1261   -3.9932   -2.3779 H   0  0  0  0  0  0  0  0  0  0  0  0
    1.0247   -5.2471   -0.5688 H   0  0  0  0  0  0  0  0  0  0  0  0
    0.3899   -5.9720   -2.0508 H   0  0  0  0  0  0  0  0  0  0  0  0
    1.3253   -4.4671   -2.1280 H   0  0  0  0  0  0  0  0  0  0  0  0
   -2.5419   -5.7686   -1.3191 N   0  0  0  0  0  0  0  0  0  0  0  0
   -3.5643   -6.6125   -0.7460 C   0  0  0  0  0  0  0  0  0  0  0  0
   -2.4573   -5.7473   -2.3311 H   0  0  0  0  0  0  0  0  0  0  0  0
   -3.1515   -7.6152   -0.5607 H   0  0  0  0  0  0  0  0  0  0  0  0
   -3.9094   -6.1770    0.2034 H   0  0  0  0  0  0  0  0  0  0  0  0
   -4.4111   -6.6880   -1.4440 H   0  0  0  0  0  0  0  0  0  0  0  0
  1  3  1  0  0  0  0
  1  7  1  0  0  0  0
  1  2  2  0  0  0  0
 28 29  1  0  0  0  0
 29 37  1  0  0  0  0
 29 30  2  0  0  0  0
 18 19  1  0  0  0  0
 19 27  1  0  0  0  0
 19 20  2  0  0  0  0
  8  9  1  0  0  0  0
  9 17  1  0  0  0  0
  9 10  2  0  0  0  0
 28 31  1  0  0  0  0
 18 21  1  0  0  0  0
  8 11  1  0  0  0  0
 37 38  1  0  0  0  0
 27 28  1  0  0  0  0
 17 18  1  0  0  0  0
  7  8  1  0  0  0  0
  3  4  1  0  0  0  0
  3  5  1  0  0  0  0
  3  6  1  0  0  0  0
 31 34  1  0  0  0  0
 31 35  1  0  0  0  0
 31 36  1  0  0  0  0
 21 24  1  0  0  0  0
 21 25  1  0  0  0  0
 21 26  1  0  0  0  0
 11 14  1  0  0  0  0
 11 15  1  0  0  0  0
 11 16  1  0  0  0  0
 38 40  1  0  0  0  0
 38 41  1  0  0  0  0
 38 42  1  0  0  0  0
 28 33  1  0  0  0  0
 18 23  1  0  0  0  0
  8 13  1  0  0  0  0
 37 39  1  0  0  0  0
  7 12  1  0  0  0  0
 27 32  1  0  0  0  0
 17 22  1  0  0  0  0
M  END
$$$$

  -OEChem-05262214473D

 42 41  0     1  0  0  0  0  0999 V2000
   -5.7851   -0.9580    0.6237 C   0  0  0  0  0  0  0  0  0  0  0  0
   -6.2213    0.1296    0.2652 O   0  0  0  0  0  0  0  0  0  0  0  0
   -6.7088   -2.1270    0.7168 C   0  0  0  0  0  0  0  0  0  0  0  0
   -7.1713   -2.2193    1.7126 H   0  0  0  0  0  0  0  0  0  0  0  0
   -7.5511   -2.0547    0.0101 H   0  0  0  0  0  0  0  0  0  0  0  0
   -6.2485   -3.1083    0.5191 H   0  0  0  0  0  0  0  0  0  0  0  0
   -4.4733   -1.2411    0.9668 N   0  0  0  0  0  0  0  0  0  0  0  0
   -3.4203   -0.2603    0.9449 C   0  0  2  0  0  0  0  0  0  0  0  0
   -2.1242   -0.9699    0.5759 C   0  0  0  0  0  0  0  0  0  0  0  0
   -1.8694   -2.1225    0.9189 O   0  0  0  0  0  0  0  0  0  0  0  0
   -3.2916    0.4435    2.2868 C   0  0  0  0  0  0  0  0  0  0  0  0
   -4.2421   -2.1920    1.2489 H   0  0  0  0  0  0  0  0  0  0  0  0
   -3.6772    0.4622    0.1625 H   0  0  0  0  0  0  0  0  0  0  0  0
   -3.0345   -0.2644    3.0832 H   0  0  0  0  0  0  0  0  0  0  0  0
   -2.5093    1.2092    2.2599 H   0  0  0  0  0  0  0  0  0  0  0  0
   -4.2338    0.9283    2.5645 H   0  0  0  0  0  0  0  0  0  0  0  0
   -1.2626   -0.1515   -0.1463 N   0  0  0  0  0  0  0  0  0  0  0  0
    0.0431   -0.5785   -0.5755 C   0  0  2  0  0  0  0  0  0  0  0  0
   -0.1323   -1.7918   -1.4792 C   0  0  0  0  0  0  0  0  0  0  0  0
    0.2119   -1.8047   -2.6592 O   0  0  0  0  0  0  0  0  0  0  0  0
    0.9350   -0.9089    0.6111 C   0  0  0  0  0  0  0  0  0  0  0  0
   -1.5766    0.7776   -0.4197 H   0  0  0  0  0  0  0  0  0  0  0  0
    0.4725    0.2481   -1.1522 H   0  0  0  0  0  0  0  0  0  0  0  0
    0.5210   -1.7349    1.2009 H   0  0  0  0  0  0  0  0  0  0  0  0
    1.9368   -1.2061    0.2839 H   0  0  0  0  0  0  0  0  0  0  0  0
    1.0359   -0.0440    1.2756 H   0  0  0  0  0  0  0  0  0  0  0  0
   -0.7587   -2.8483   -0.8270 N   0  0  0  0  0  0  0  0  0  0  0  0
   -1.0750   -4.0912   -1.4800 C   0  0  2  0  0  0  0  0  0  0  0  0
   -2.3521   -4.6385   -0.8561 C   0  0  0  0  0  0  0  0  0  0  0  0
   -2.6359   -4.4899    0.3307 O   0  0  0  0  0  0  0  0  0  0  0  0
    0.0645   -5.0900   -1.3505 C   0  0  0  0  0  0  0  0  0  0  0  0
   -0.9716   -2.7604    0.1647 H   0  0  0  0  0  0  0  0  0  0  0  0
   -1.2544   -3.8575   -2.5351 H   0  0  0  0  0  0  0  0  0  0  0  0
    0.2588   -5.3363   -0.3003 H   0  0  0  0  0  0  0  0  0  0  0  0
   -0.1661   -6.0248   -1.8721 H   0  0  0  0  0  0  0  0  0  0  0  0
    0.9894   -4.6829   -1.7731 H   0  0  0  0  0  0  0  0  0  0  0  0
   -3.1166   -5.3493   -1.7706 N   0  0  0  0  0  0  0  0  0  0  0  0
   -4.3538   -6.0025   -1.4118 C   0  0  0  0  0  0  0  0  0  0  0  0
   -2.8252   -5.3874   -2.7429 H   0  0  0  0  0  0  0  0  0  0  0  0
   -4.1498   -7.0463   -1.1307 H   0  0  0  0  0  0  0  0  0  0  0  0
   -4.8125   -5.4769   -0.5613 H   0  0  0  0  0  0  0  0  0  0  0  0
   -5.0416   -5.9817   -2.2699 H   0  0  0  0  0  0  0  0  0  0  0  0
  1  3  1  0  0  0  0
  1  7  1  0  0  0  0
  1  2  2  0  0  0  0
 28 29  1  0  0  0  0
 29 37  1  0  0  0  0
 29 30  2  0  0  0  0
 18 19  1  0  0  0  0
 19 27  1  0  0  0  0
 19 20  2  0  0  0  0
  8  9  1  0  0  0  0
  9 17  1  0  0  0  0
  9 10  2  0  0  0  0
 28 31  1  0  0  0  0
 18 21  1  0  0  0  0
  8 11  1  0  0  0  0
 37 38  1  0  0  0  0
 27 28  1  0  0  0  0
 17 18  1  0  0  0  0
  7  8  1  0  0  0  0
  3  4  1  0  0  0  0
  3  5  1  0  0  0  0
  3  6  1  0  0  0  0
 31 34  1  0  0  0  0
 31 35  1  0  0  0  0
 31 36  1  0  0  0  0
 21 24  1  0  0  0  0
 21 25  1  0  0  0  0
 21 26  1  0  0  0  0
 11 14  1  0  0  0  0
 11 15  1  0  0  0  0
 11 16  1  0  0  0  0
 38 40  1  0  0  0  0
 38 41  1  0  0  0  0
 38 42  1  0  0  0  0
 28 33  1  0  0  0  0
 18 23  1  0  0  0  0
  8 13  1  0  0  0  0
 37 39  1  0  0  0  0
  7 12  1  0  0  0  0
 27 32  1  0  0  0  0
 17 22  1  0  0  0  0
M  END
$$$$

  -OEChem-05262214473D

 42 41  0     1  0  0  0  0  0999 V2000
   -5.7851   -0.9580    0.6237 C   0  0  0  0  0  0  0  0  0  0  0  0
   -6.2213    0.1296    0.2652 O   0  0  0  0  0  0  0  0  0  0  0  0
   -6.7088   -2.1270    0.7168 C   0  0  0  0  0  0  0  0  0  0  0  0
   -7.1713   -2.2193    1.7126 H   0  0  0  0  0  0  0  0  0  0  0  0
   -7.5511   -2.0547    0.0101 H   0  0  0  0  0  0  0  0  0  0  0  0
   -6.2485   -3.1083    0.5191 H   0  0  0  0  0  0  0  0  0  0  0  0
   -4.4733   -1.2411    0.9668 N   0  0  0  0  0  0  0  0  0  0  0  0
   -3.4203   -0.2603    0.9449 C   0  0  2  0  0  0  0  0  0  0  0  0
   -2.1242   -0.9699    0.5759 C   0  0  0  0  0  0  0  0  0  0  0  0
   -1.8694   -2.1225    0.9189 O   0  0  0  0  0  0  0  0  0  0  0  0
   -3.2916    0.4435    2.2868 C   0  0  0  0  0  0  0  0  0  0  0  0
   -4.2421   -2.1920    1.2489 H   0  0  0  0  0  0  0  0  0  0  0  0
   -3.6772    0.4622    0.1625 H   0  0  0  0  0  0  0  0  0  0  0  0
   -3.0345   -0.2644    3.0832 H   0  0  0  0  0  0  0  0  0  0  0  0
   -2.5093    1.2092    2.2599 H   0  0  0  0  0  0  0  0  0  0  0  0
   -4.2338    0.9283    2.5645 H   0  0  0  0  0  0  0  0  0  0  0  0
   -1.2626   -0.1515   -0.1463 N   0  0  0  0  0  0  0  0  0  0  0  0
    0.0431   -0.5785   -0.5755 C   0  0  2  0  0  0  0  0  0  0  0  0
   -0.1323   -1.7918   -1.4792 C   0  0  0  0  0  0  0  0  0  0  0  0
    0.4389   -1.9105   -2.5612 O   0  0  0  0  0  0  0  0  0  0  0  0
    0.9350   -0.9089    0.6111 C   0  0  0  0  0  0  0  0  0  0  0  0
   -1.5766    0.7776   -0.4197 H   0  0  0  0  0  0  0  0  0  0  0  0
    0.4725    0.2481   -1.1522 H   0  0  0  0  0  0  0  0  0  0  0  0
    0.5210   -1.7349    1.2009 H   0  0  0  0  0  0  0  0  0  0  0  0
    1.9368   -1.2061    0.2839 H   0  0  0  0  0  0  0  0  0  0  0  0
    1.0359   -0.0440    1.2756 H   0  0  0  0  0  0  0  0  0  0  0  0
   -1.0361   -2.7109   -0.9576 N   0  0  0  0  0  0  0  0  0  0  0  0
   -1.4035   -3.9208   -1.6451 C   0  0  2  0  0  0  0  0  0  0  0  0
   -2.8505   -4.2405   -1.2937 C   0  0  0  0  0  0  0  0  0  0  0  0
   -3.3435   -3.9966   -0.1944 O   0  0  0  0  0  0  0  0  0  0  0  0
   -0.4852   -5.0726   -1.2672 C   0  0  0  0  0  0  0  0  0  0  0  0
   -1.4303   -2.5466   -0.0334 H   0  0  0  0  0  0  0  0  0  0  0  0
   -1.3251   -3.7115   -2.7175 H   0  0  0  0  0  0  0  0  0  0  0  0
   -0.5501   -5.2969   -0.1962 H   0  0  0  0  0  0  0  0  0  0  0  0
   -0.7482   -5.9850   -1.8125 H   0  0  0  0  0  0  0  0  0  0  0  0
    0.5586   -4.8291   -1.4931 H   0  0  0  0  0  0  0  0  0  0  0  0
   -3.5143   -4.8694   -2.3378 N   0  0  0  0  0  0  0  0  0  0  0  0
   -4.8854   -5.3119   -2.2358 C   0  0  0  0  0  0  0  0  0  0  0  0
   -3.0405   -4.9955   -3.2273 H   0  0  0  0  0  0  0  0  0  0  0  0
   -4.9091   -6.3605   -1.9042 H   0  0  0  0  0  0  0  0  0  0  0  0
   -5.4197   -4.6848   -1.5070 H   0  0  0  0  0  0  0  0  0  0  0  0
   -5.3719   -5.2273   -3.2188 H   0  0  0  0  0  0  0  0  0  0  0  0
  1  3  1  0  0  0  0
  1  7  1  0  0  0  0
  1  2  2  0  0  0  0
 28 29  1  0  0  0  0
 29 37  1  0  0  0  0
 29 30  2  0  0  0  0
 18 19  1  0  0  0  0
 19 27  1  0  0  0  0
 19 20  2  0  0  0  0
  8  9  1  0  0  0  0
  9 17  1  0  0  0  0
  9 10  2  0  0  0  0
 28 31  1  0  0  0  0
 18 21  1  0  0  0  0
  8 11  1  0  0  0  0
 37 38  1  0  0  0  0
 27 28  1  0  0  0  0
 17 18  1  0  0  0  0
  7  8  1  0  0  0  0
  3  4  1  0  0  0  0
  3  5  1  0  0  0  0
  3  6  1  0  0  0  0
 31 34  1  0  0  0  0
 31 35  1  0  0  0  0
 31 36  1  0  0  0  0
 21 24  1  0  0  0  0
 21 25  1  0  0  0  0
 21 26  1  0  0  0  0
 11 14  1  0  0  0  0
 11 15  1  0  0  0  0
 11 16  1  0  0  0  0
 38 40  1  0  0  0  0
 38 41  1  0  0  0  0
 38 42  1  0  0  0  0
 28 33  1  0  0  0  0
 18 23  1  0  0  0  0
  8 13  1  0  0  0  0
 37 39  1  0  0  0  0
  7 12  1  0  0  0  0
 27 32  1  0  0  0  0
 17 22  1  0  0  0  0
M  END
$$$$

  -OEChem-05262214473D

 42 41  0     1  0  0  0  0  0999 V2000
   -5.7851   -0.9580    0.6237 C   0  0  0  0  0  0  0  0  0  0  0  0
   -6.2213    0.1296    0.2652 O   0  0  0  0  0  0  0  0  0  0  0  0
   -6.7088   -2.1270    0.7168 C   0  0  0  0  0  0  0  0  0  0  0  0
   -7.1713   -2.2193    1.7126 H   0  0  0  0  0  0  0  0  0  0  0  0
   -7.5511   -2.0547    0.0101 H   0  0  0  0  0  0  0  0  0  0  0  0
   -6.2485   -3.1083    0.5191 H   0  0  0  0  0  0  0  0  0  0  0  0
   -4.4733   -1.2411    0.9668 N   0  0  0  0  0  0  0  0  0  0  0  0
   -3.4203   -0.2603    0.9449 C   0  0  2  0  0  0  0  0  0  0  0  0
   -2.1242   -0.9699    0.5759 C   0  0  0  0  0  0  0  0  0  0  0  0
   -1.8694   -2.1225    0.9189 O   0  0  0  0  0  0  0  0  0  0  0  0
   -3.2916    0.4435    2.2868 C   0  0  0  0  0  0  0  0  0  0  0  0
   -4.2421   -2.1920    1.2489 H   0  0  0  0  0  0  0  0  0  0  0  0
   -3.6772    0.4622    0.1625 H   0  0  0  0  0  0  0  0  0  0  0  0
   -3.0345   -0.2644    3.0832 H   0  0  0  0  0  0  0  0  0  0  0  0
   -2.5093    1.2092    2.2599 H   0  0  0  0  0  0  0  0  0  0  0  0
   -4.2338    0.9283    2.5645 H   0  0  0  0  0  0  0  0  0  0  0  0
   -1.2626   -0.1515   -0.1463 N   0  0  0  0  0  0  0  0  0  0  0  0
    0.0431   -0.5785   -0.5755 C   0  0  2  0  0  0  0  0  0  0  0  0
   -0.1323   -1.7918   -1.4792 C   0  0  0  0  0  0  0  0  0  0  0  0
    0.6217   -2.0446   -2.4166 O   0  0  0  0  0  0  0  0  0  0  0  0
    0.9350   -0.9089    0.6111 C   0  0  0  0  0  0  0  0  0  0  0  0
   -1.5766    0.7776   -0.4197 H   0  0  0  0  0  0  0  0  0  0  0  0
    0.4725    0.2481   -1.1522 H   0  0  0  0  0  0  0  0  0  0  0  0
    0.5210   -1.7349    1.2009 H   0  0  0  0  0  0  0  0  0  0  0  0
    1.9368   -1.2061    0.2839 H   0  0  0  0  0  0  0  0  0  0  0  0
    1.0359   -0.0440    1.2756 H   0  0  0  0  0  0  0  0  0  0  0  0
   -1.2561   -2.5396   -1.1450 N   0  0  0  0  0  0  0  0  0  0  0  0
   -1.6605   -3.7107   -1.8773 C   0  0  2  0  0  0  0  0  0  0  0  0
   -3.1806   -3.7925   -1.8311 C   0  0  0  0  0  0  0  0  0  0  0  0
   -3.8429   -3.4271   -0.8622 O   0  0  0  0  0  0  0  0  0  0  0  0
   -1.0306   -4.9689   -1.3005 C   0  0  0  0  0  0  0  0  0  0  0  0
   -1.7996   -2.2755   -0.3256 H   0  0  0  0  0  0  0  0  0  0  0  0
   -1.3334   -3.5650   -2.9126 H   0  0  0  0  0  0  0  0  0  0  0  0
   -1.3468   -5.1315   -0.2636 H   0  0  0  0  0  0  0  0  0  0  0  0
   -1.3166   -5.8555   -1.8761 H   0  0  0  0  0  0  0  0  0  0  0  0
    0.0623   -4.8959   -1.3071 H   0  0  0  0  0  0  0  0  0  0  0  0
   -3.7078   -4.3617   -2.9819 N   0  0  0  0  0  0  0  0  0  0  0  0
   -5.1229   -4.5878   -3.1620 C   0  0  0  0  0  0  0  0  0  0  0  0
   -3.0883   -4.5984   -3.7513 H   0  0  0  0  0  0  0  0  0  0  0  0
   -5.3777   -5.6045   -2.8283 H   0  0  0  0  0  0  0  0  0  0  0  0
   -5.6896   -3.8546   -2.5693 H   0  0  0  0  0  0  0  0  0  0  0  0
   -5.3794   -4.4762   -4.2259 H   0  0  0  0  0  0  0  0  0  0  0  0
  1  3  1  0  0  0  0
  1  7  1  0  0  0  0
  1  2  2  0  0  0  0
 28 29  1  0  0  0  0
 29 37  1  0  0  0  0
 29 30  2  0  0  0  0
 18 19  1  0  0  0  0
 19 27  1  0  0  0  0
 19 20  2  0  0  0  0
  8  9  1  0  0  0  0
  9 17  1  0  0  0  0
  9 10  2  0  0  0  0
 28 31  1  0  0  0  0
 18 21  1  0  0  0  0
  8 11  1  0  0  0  0
 37 38  1  0  0  0  0
 27 28  1  0  0  0  0
 17 18  1  0  0  0  0
  7  8  1  0  0  0  0
  3  4  1  0  0  0  0
  3  5  1  0  0  0  0
  3  6  1  0  0  0  0
 31 34  1  0  0  0  0
 31 35  1  0  0  0  0
 31 36  1  0  0  0  0
 21 24  1  0  0  0  0
 21 25  1  0  0  0  0
 21 26  1  0  0  0  0
 11 14  1  0  0  0  0
 11 15  1  0  0  0  0
 11 16  1  0  0  0  0
 38 40  1  0  0  0  0
 38 41  1  0  0  0  0
 38 42  1  0  0  0  0
 28 33  1  0  0  0  0
 18 23  1  0  0  0  0
  8 13  1  0  0  0  0
 37 39  1  0  0  0  0
  7 12  1  0  0  0  0
 27 32  1  0  0  0  0
 17 22  1  0  0  0  0
M  END
$$$$

  -OEChem-05262214473D

 42 41  0     1  0  0  0  0  0999 V2000
   -5.7851   -0.9580    0.6237 C   0  0  0  0  0  0  0  0  0  0  0  0
   -6.2213    0.1296    0.2652 O   0  0  0  0  0  0  0  0  0  0  0  0
   -6.7088   -2.1270    0.7168 C   0  0  0  0  0  0  0  0  0  0  0  0
   -7.1713   -2.2193    1.7126 H   0  0  0  0  0  0  0  0  0  0  0  0
   -7.5511   -2.0547    0.0101 H   0  0  0  0  0  0  0  0  0  0  0  0
   -6.2485   -3.1083    0.5191 H   0  0  0  0  0  0  0  0  0  0  0  0
   -4.4733   -1.2411    0.9668 N   0  0  0  0  0  0  0  0  0  0  0  0
   -3.4203   -0.2603    0.9449 C   0  0  2  0  0  0  0  0  0  0  0  0
   -2.1242   -0.9699    0.5759 C   0  0  0  0  0  0  0  0  0  0  0  0
   -1.8694   -2.1225    0.9189 O   0  0  0  0  0  0  0  0  0  0  0  0
   -3.2916    0.4435    2.2868 C   0  0  0  0  0  0  0  0  0  0  0  0
   -4.2421   -2.1920    1.2489 H   0  0  0  0  0  0  0  0  0  0  0  0
   -3.6772    0.4622    0.1625 H   0  0  0  0  0  0  0  0  0  0  0  0
   -3.0345   -0.2644    3.0832 H   0  0  0  0  0  0  0  0  0  0  0  0
   -2.5093    1.2092    2.2599 H   0  0  0  0  0  0  0  0  0  0  0  0
   -4.2338    0.9283    2.5645 H   0  0  0  0  0  0  0  0  0  0  0  0
   -1.2626   -0.1515   -0.1463 N   0  0  0  0  0  0  0  0  0  0  0  0
    0.0431   -0.5785   -0.5755 C   0  0  2  0  0  0  0  0  0  0  0  0
   -0.1323   -1.7918   -1.4792 C   0  0  0  0  0  0  0  0  0  0  0  0
    0.7478   -2.1979   -2.2352 O   0  0  0  0  0  0  0  0  0  0  0  0
    0.9350   -0.9089    0.6111 C   0  0  0  0  0  0  0  0  0  0  0  0
   -1.5766    0.7776   -0.4197 H   0  0  0  0  0  0  0  0  0  0  0  0
    0.4725    0.2481   -1.1522 H   0  0  0  0  0  0  0  0  0  0  0  0
    0.5210   -1.7349    1.2009 H   0  0  0  0  0  0  0  0  0  0  0  0
    1.9368   -1.2061    0.2839 H   0  0  0  0  0  0  0  0  0  0  0  0
    1.0359   -0.0440    1.2756 H   0  0  0  0  0  0  0  0  0  0  0  0
   -1.4036   -2.3458   -1.3764 N   0  0  0  0  0  0  0  0  0  0  0  0
   -1.8287   -3.4752   -2.1609 C   0  0  2  0  0  0  0  0  0  0  0  0
   -3.3199   -3.3252   -2.4316 C   0  0  0  0  0  0  0  0  0  0  0  0
   -4.1002   -2.8201   -1.6271 O   0  0  0  0  0  0  0  0  0  0  0  0
   -1.5347   -4.7860   -1.4482 C   0  0  0  0  0  0  0  0  0  0  0  0
   -2.0546   -1.9657   -0.6921 H   0  0  0  0  0  0  0  0  0  0  0  0
   -1.2786   -3.4280   -3.1071 H   0  0  0  0  0  0  0  0  0  0  0  0
   -2.0771   -4.8514   -0.4980 H   0  0  0  0  0  0  0  0  0  0  0  0
   -1.8326   -5.6450   -2.0586 H   0  0  0  0  0  0  0  0  0  0  0  0
   -0.4658   -4.8786   -1.2278 H   0  0  0  0  0  0  0  0  0  0  0  0
   -3.6839   -3.8608   -3.6591 N   0  0  0  0  0  0  0  0  0  0  0  0
   -5.0501   -3.8795   -4.1272 C   0  0  0  0  0  0  0  0  0  0  0  0
   -2.9655   -4.2230   -4.2790 H   0  0  0  0  0  0  0  0  0  0  0  0
   -5.5237   -4.8298   -3.8400 H   0  0  0  0  0  0  0  0  0  0  0  0
   -5.6037   -3.0429   -3.6758 H   0  0  0  0  0  0  0  0  0  0  0  0
   -5.0636   -3.7795   -5.2226 H   0  0  0  0  0  0  0  0  0  0  0  0
  1  3  1  0  0  0  0
  1  7  1  0  0  0  0
  1  2  2  0  0  0  0
 28 29  1  0  0  0  0
 29 37  1  0  0  0  0
 29 30  2  0  0  0  0
 18 19  1  0  0  0  0
 19 27  1  0  0  0  0
 19 20  2  0  0  0  0
  8  9  1  0  0  0  0
  9 17  1  0  0  0  0
  9 10  2  0  0  0  0
 28 31  1  0  0  0  0
 18 21  1  0  0  0  0
  8 11  1  0  0  0  0
 37 38  1  0  0  0  0
 27 28  1  0  0  0  0
 17 18  1  0  0  0  0
  7  8  1  0  0  0  0
  3  4  1  0  0  0  0
  3  5  1  0  0  0  0
  3  6  1  0  0  0  0
 31 34  1  0  0  0  0
 31 35  1  0  0  0  0
 31 36  1  0  0  0  0
 21 24  1  0  0  0  0
 21 25  1  0  0  0  0
 21 26  1  0  0  0  0
 11 14  1  0  0  0  0
 11 15  1  0  0  0  0
 11 16  1  0  0  0  0
 38 40  1  0  0  0  0
 38 41  1  0  0  0  0
 38 42  1  0  0  0  0
 28 33  1  0  0  0  0
 18 23  1  0  0  0  0
  8 13  1  0  0  0  0
 37 39  1  0  0  0  0
  7 12  1  0  0  0  0
 27 32  1  0  0  0  0
 17 22  1  0  0  0  0
M  END
$$$$

  -OEChem-05262214473D

 42 41  0     1  0  0  0  0  0999 V2000
   -5.7851   -0.9580    0.6237 C   0  0  0  0  0  0  0  0  0  0  0  0
   -6.2213    0.1296    0.2652 O   0  0  0  0  0  0  0  0  0  0  0  0
   -6.7088   -2.1270    0.7168 C   0  0  0  0  0  0  0  0  0  0  0  0
   -7.1713   -2.2193    1.7126 H   0  0  0  0  0  0  0  0  0  0  0  0
   -7.5511   -2.0547    0.0101 H   0  0  0  0  0  0  0  0  0  0  0  0
   -6.2485   -3.1083    0.5191 H   0  0  0  0  0  0  0  0  0  0  0  0
   -4.4733   -1.2411    0.9668 N   0  0  0  0  0  0  0  0  0  0  0  0
   -3.4203   -0.2603    0.9449 C   0  0  2  0  0  0  0  0  0  0  0  0
   -2.1242   -0.9699    0.5759 C   0  0  0  0  0  0  0  0  0  0  0  0
   -1.8694   -2.1225    0.9189 O   0  0  0  0  0  0  0  0  0  0  0  0
   -3.2916    0.4435    2.2868 C   0  0  0  0  0  0  0  0  0  0  0  0
   -4.2421   -2.1920    1.2489 H   0  0  0  0  0  0  0  0  0  0  0  0
   -3.6772    0.4622    0.1625 H   0  0  0  0  0  0  0  0  0  0  0  0
   -3.0345   -0.2644    3.0832 H   0  0  0  0  0  0  0  0  0  0  0  0
   -2.5093    1.2092    2.2599 H   0  0  0  0  0  0  0  0  0  0  0  0
   -4.2338    0.9283    2.5645 H   0  0  0  0  0  0  0  0  0  0  0  0
   -1.2626   -0.1515   -0.1463 N   0  0  0  0  0  0  0  0  0  0  0  0
    0.0431   -0.5785   -0.5755 C   0  0  2  0  0  0  0  0  0  0  0  0
   -0.1323   -1.7918   -1.4792 C   0  0  0  0  0  0  0  0  0  0  0  0
    0.8087   -2.3600   -2.0294 O   0  0  0  0  0  0  0  0  0  0  0  0
    0.9350   -0.9089    0.6111 C   0  0  0  0  0  0  0  0  0  0  0  0
   -1.5766    0.7776   -0.4197 H   0  0  0  0  0  0  0  0  0  0  0  0
    0.4725    0.2481   -1.1522 H   0  0  0  0  0  0  0  0  0  0  0  0
    0.5210   -1.7349    1.2009 H   0  0  0  0  0  0  0  0  0  0  0  0
    1.9368   -1.2061    0.2839 H   0  0  0  0  0  0  0  0  0  0  0  0
    1.0359   -0.0440    1.2756 H   0  0  0  0  0  0  0  0  0  0  0  0
   -1.4686   -2.1430   -1.6362 N   0  0  0  0  0  0  0  0  0  0  0  0
   -1.8964   -3.2303   -2.4765 C   0  0  2  0  0  0  0  0  0  0  0  0
   -3.2588   -2.8703   -3.0542 C   0  0  0  0  0  0  0  0  0  0  0  0
   -4.0977   -2.2172   -2.4372 O   0  0  0  0  0  0  0  0  0  0  0  0
   -1.9630   -4.5364   -1.7003 C   0  0  0  0  0  0  0  0  0  0  0  0
   -2.1776   -1.6382   -1.1079 H   0  0  0  0  0  0  0  0  0  0  0  0
   -1.1646   -3.3099   -3.2877 H   0  0  0  0  0  0  0  0  0  0  0  0
   -2.6912   -4.4757   -0.8833 H   0  0  0  0  0  0  0  0  0  0  0  0
   -2.2611   -5.3678   -2.3476 H   0  0  0  0  0  0  0  0  0  0  0  0
   -0.9895   -4.7785   -1.2606 H   0  0  0  0  0  0  0  0  0  0  0  0
   -3.4443   -3.4008   -4.3232 N   0  0  0  0  0  0  0  0  0  0  0  0
   -4.6720   -3.2352   -5.0656 C   0  0  0  0  0  0  0  0  0  0  0  0
   -2.6804   -3.8951   -4.7747 H   0  0  0  0  0  0  0  0  0  0  0  0
   -5.3372   -4.0893   -4.8705 H   0  0  0  0  0  0  0  0  0  0  0  0
   -5.1680   -2.3051   -4.7511 H   0  0  0  0  0  0  0  0  0  0  0  0
   -4.4461   -3.1847   -6.1410 H   0  0  0  0  0  0  0  0  0  0  0  0
  1  3  1  0  0  0  0
  1  7  1  0  0  0  0
  1  2  2  0  0  0  0
 28 29  1  0  0  0  0
 29 37  1  0  0  0  0
 29 30  2  0  0  0  0
 18 19  1  0  0  0  0
 19 27  1  0  0  0  0
 19 20  2  0  0  0  0
  8  9  1  0  0  0  0
  9 17  1  0  0  0  0
  9 10  2  0  0  0  0
 28 31  1  0  0  0  0
 18 21  1  0  0  0  0
  8 11  1  0  0  0  0
 37 38  1  0  0  0  0
 27 28  1  0  0  0  0
 17 18  1  0  0  0  0
  7  8  1  0  0  0  0
  3  4  1  0  0  0  0
  3  5  1  0  0  0  0
  3  6  1  0  0  0  0
 31 34  1  0  0  0  0
 31 35  1  0  0  0  0
 31 36  1  0  0  0  0
 21 24  1  0  0  0  0
 21 25  1  0  0  0  0
 21 26  1  0  0  0  0
 11 14  1  0  0  0  0
 11 15  1  0  0  0  0
 11 16  1  0  0  0  0
 38 40  1  0  0  0  0
 38 41  1  0  0  0  0
 38 42  1  0  0  0  0
 28 33  1  0  0  0  0
 18 23  1  0  0  0  0
  8 13  1  0  0  0  0
 37 39  1  0  0  0  0
  7 12  1  0  0  0  0
 27 32  1  0  0  0  0
 17 22  1  0  0  0  0
M  END
$$$$

  -OEChem-05262214473D

 42 41  0     1  0  0  0  0  0999 V2000
   -5.7851   -0.9580    0.6237 C   0  0  0  0  0  0  0  0  0  0  0  0
   -6.2213    0.1296    0.2652 O   0  0  0  0  0  0  0  0  0  0  0  0
   -6.7088   -2.1270    0.7168 C   0  0  0  0  0  0  0  0  0  0  0  0
   -7.1713   -2.2193    1.7126 H   0  0  0  0  0  0  0  0  0  0  0  0
   -7.5511   -2.0547    0.0101 H   0  0  0  0  0  0  0  0  0  0  0  0
   -6.2485   -3.1083    0.5191 H   0  0  0  0  0  0  0  0  0  0  0  0
   -4.4733   -1.2411    0.9668 N   0  0  0  0  0  0  0  0  0  0  0  0
   -3.4203   -0.2603    0.9449 C   0  0  2  0  0  0  0  0  0  0  0  0
   -2.1242   -0.9699    0.5759 C   0  0  0  0  0  0  0  0  0  0  0  0
   -1.8694   -2.1225    0.9189 O   0  0  0  0  0  0  0  0  0  0  0  0
   -3.2916    0.4435    2.2868 C   0  0  0  0  0  0  0  0  0  0  0  0
   -4.2421   -2.1920    1.2489 H   0  0  0  0  0  0  0  0  0  0  0  0
   -3.6772    0.4622    0.1625 H   0  0  0  0  0  0  0  0  0  0  0  0
   -3.0345   -0.2644    3.0832 H   0  0  0  0  0  0  0  0  0  0  0  0
   -2.5093    1.2092    2.2599 H   0  0  0  0  0  0  0  0  0  0  0  0
   -4.2338    0.9283    2.5645 H   0  0  0  0  0  0  0  0  0  0  0  0
   -1.2626   -0.1515   -0.1463 N   0  0  0  0  0  0  0  0  0  0  0  0
    0.0431   -0.5785   -0.5755 C   0  0  2  0  0  0  0  0  0  0  0  0
   -0.1323   -1.7918   -1.4792 C   0  0  0  0  0  0  0  0  0  0  0  0
    0.8002   -2.5197   -1.8133 O   0  0  0  0  0  0  0  0  0  0  0  0
    0.9350   -0.9089    0.6111 C   0  0  0  0  0  0  0  0  0  0  0  0
   -1.5766    0.7776   -0.4197 H   0  0  0  0  0  0  0  0  0  0  0  0
    0.4725    0.2481   -1.1522 H   0  0  0  0  0  0  0  0  0  0  0  0
    0.5210   -1.7349    1.2009 H   0  0  0  0  0  0  0  0  0  0  0  0
    1.9368   -1.2061    0.2839 H   0  0  0  0  0  0  0  0  0  0  0  0
    1.0359   -0.0440    1.2756 H   0  0  0  0  0  0  0  0  0  0  0  0
   -1.4467   -1.9448   -1.9066 N   0  0  0  0  0  0  0  0  0  0  0  0
   -1.8592   -2.9928   -2.8027 C   0  0  2  0  0  0  0  0  0  0  0  0
   -3.0016   -2.4588   -3.6566 C   0  0  0  0  0  0  0  0  0  0  0  0
   -3.8358   -1.6593   -3.2371 O   0  0  0  0  0  0  0  0  0  0  0  0
   -2.2864   -4.2369   -2.0396 C   0  0  0  0  0  0  0  0  0  0  0  0
   -2.1605   -1.3154   -1.5447 H   0  0  0  0  0  0  0  0  0  0  0  0
   -0.9990   -3.2188   -3.4423 H   0  0  0  0  0  0  0  0  0  0  0  0
   -3.1472   -4.0300   -1.3932 H   0  0  0  0  0  0  0  0  0  0  0  0
   -2.5728   -5.0429   -2.7233 H   0  0  0  0  0  0  0  0  0  0  0  0
   -1.4732   -4.6023   -1.4033 H   0  0  0  0  0  0  0  0  0  0  0  0
   -3.0053   -3.0131   -4.9290 N   0  0  0  0  0  0  0  0  0  0  0  0
   -4.0144   -2.6989   -5.9133 C   0  0  0  0  0  0  0  0  0  0  0  0
   -2.2524   -3.6369   -5.2045 H   0  0  0  0  0  0  0  0  0  0  0  0
   -4.8308   -3.4334   -5.8495 H   0  0  0  0  0  0  0  0  0  0  0  0
   -4.4121   -1.6913   -5.7219 H   0  0  0  0  0  0  0  0  0  0  0  0
   -3.5690   -2.7324   -6.9185 H   0  0  0  0  0  0  0  0  0  0  0  0
  1  3  1  0  0  0  0
  1  7  1  0  0  0  0
  1  2  2  0  0  0  0
 28 29  1  0  0  0  0
 29 37  1  0  0  0  0
 29 30  2  0  0  0  0
 18 19  1  0  0  0  0
 19 27  1  0  0  0  0
 19 20  2  0  0  0  0
  8  9  1  0  0  0  0
  9 17  1  0  0  0  0
  9 10  2  0  0  0  0
 28 31  1  0  0  0  0
 18 21  1  0  0  0  0
  8 11  1  0  0  0  0
 37 38  1  0  0  0  0
 27 28  1  0  0  0  0
 17 18  1  0  0  0  0
  7  8  1  0  0  0  0
  3  4  1  0  0  0  0
  3  5  1  0  0  0  0
  3  6  1  0  0  0  0
 31 34  1  0  0  0  0
 31 35  1  0  0  0  0
 31 36  1  0  0  0  0
 21 24  1  0  0  0  0
 21 25  1  0  0  0  0
 21 26  1  0  0  0  0
 11 14  1  0  0  0  0
 11 15  1  0  0  0  0
 11 16  1  0  0  0  0
 38 40  1  0  0  0  0
 38 41  1  0  0  0  0
 38 42  1  0  0  0  0
 28 33  1  0  0  0  0
 18 23  1  0  0  0  0
  8 13  1  0  0  0  0
 37 39  1  0  0  0  0
  7 12  1  0  0  0  0
 27 32  1  0  0  0  0
 17 22  1  0  0  0  0
M  END
$$$$

  -OEChem-05262214473D

 42 41  0     1  0  0  0  0  0999 V2000
   -5.7851   -0.9580    0.6237 C   0  0  0  0  0  0  0  0  0  0  0  0
   -6.2213    0.1296    0.2652 O   0  0  0  0  0  0  0  0  0  0  0  0
   -6.7088   -2.1270    0.7168 C   0  0  0  0  0  0  0  0  0  0  0  0
   -7.1713   -2.2193    1.7126 H   0  0  0  0  0  0  0  0  0  0  0  0
   -7.5511   -2.0547    0.0101 H   0  0  0  0  0  0  0  0  0  0  0  0
   -6.2485   -3.1083    0.5191 H   0  0  0  0  0  0  0  0  0  0  0  0
   -4.4733   -1.2411    0.9668 N   0  0  0  0  0  0  0  0  0  0  0  0
   -3.4203   -0.2603    0.9449 C   0  0  2  0  0  0  0  0  0  0  0  0
   -2.1242   -0.9699    0.5759 C   0  0  0  0  0  0  0  0  0  0  0  0
   -1.8694   -2.1225    0.9189 O   0  0  0  0  0  0  0  0  0  0  0  0
   -3.2916    0.4435    2.2868 C   0  0  0  0  0  0  0  0  0  0  0  0
   -4.2421   -2.1920    1.2489 H   0  0  0  0  0  0  0  0  0  0  0  0
   -3.6772    0.4622    0.1625 H   0  0  0  0  0  0  0  0  0  0  0  0
   -3.0345   -0.2644    3.0832 H   0  0  0  0  0  0  0  0  0  0  0  0
   -2.5093    1.2092    2.2599 H   0  0  0  0  0  0  0  0  0  0  0  0
   -4.2338    0.9283    2.5645 H   0  0  0  0  0  0  0  0  0  0  0  0
   -1.2626   -0.1515   -0.1463 N   0  0  0  0  0  0  0  0  0  0  0  0
    0.0431   -0.5785   -0.5755 C   0  0  2  0  0  0  0  0  0  0  0  0
   -0.1323   -1.7918   -1.4792 C   0  0  0  0  0  0  0  0  0  0  0  0
    0.7229   -2.6663   -1.6015 O   0  0  0  0  0  0  0  0  0  0  0  0
    0.9350   -0.9089    0.6111 C   0  0  0  0  0  0  0  0  0  0  0  0
   -1.5766    0.7776   -0.4197 H   0  0  0  0  0  0  0  0  0  0  0  0
    0.4725    0.2481   -1.1522 H   0  0  0  0  0  0  0  0  0  0  0  0
    0.5210   -1.7349    1.2009 H   0  0  0  0  0  0  0  0  0  0  0  0
    1.9368   -1.2061    0.2839 H   0  0  0  0  0  0  0  0  0  0  0  0
    1.0359   -0.0440    1.2756 H   0  0  0  0  0  0  0  0  0  0  0  0
   -1.3393   -1.7648   -2.1691 N   0  0  0  0  0  0  0  0  0  0  0  0
   -1.7195   -2.7788   -3.1171 C   0  0  2  0  0  0  0  0  0  0  0  0
   -2.5657   -2.1188   -4.1977 C   0  0  0  0  0  0  0  0  0  0  0  0
   -3.3321   -1.1845   -3.9723 O   0  0  0  0  0  0  0  0  0  0  0  0
   -2.4829   -3.9081   -2.4429 C   0  0  0  0  0  0  0  0  0  0  0  0
   -2.0043   -1.0192   -1.9728 H   0  0  0  0  0  0  0  0  0  0  0  0
   -0.7933   -3.1607   -3.5601 H   0  0  0  0  0  0  0  0  0  0  0  0
   -3.4140   -3.5446   -1.9931 H   0  0  0  0  0  0  0  0  0  0  0  0
   -2.7465   -4.6924   -3.1602 H   0  0  0  0  0  0  0  0  0  0  0  0
   -1.8840   -4.3621   -1.6460 H   0  0  0  0  0  0  0  0  0  0  0  0
   -2.3968   -2.7241   -5.4352 N   0  0  0  0  0  0  0  0  0  0  0  0
   -3.1221   -2.3072   -6.6125 C   0  0  0  0  0  0  0  0  0  0  0  0
   -1.7108   -3.4660   -5.5391 H   0  0  0  0  0  0  0  0  0  0  0  0
   -4.0391   -2.9068   -6.7103 H   0  0  0  0  0  0  0  0  0  0  0  0
   -3.3875   -1.2435   -6.5220 H   0  0  0  0  0  0  0  0  0  0  0  0
   -2.4919   -2.4534   -7.5022 H   0  0  0  0  0  0  0  0  0  0  0  0
  1  3  1  0  0  0  0
  1  7  1  0  0  0  0
  1  2  2  0  0  0  0
 28 29  1  0  0  0  0
 29 37  1  0  0  0  0
 29 30  2  0  0  0  0
 18 19  1  0  0  0  0
 19 27  1  0  0  0  0
 19 20  2  0  0  0  0
  8  9  1  0  0  0  0
  9 17  1  0  0  0  0
  9 10  2  0  0  0  0
 28 31  1  0  0  0  0
 18 21  1  0  0  0  0
  8 11  1  0  0  0  0
 37 38  1  0  0  0  0
 27 28  1  0  0  0  0
 17 18  1  0  0  0  0
  7  8  1  0  0  0  0
  3  4  1  0  0  0  0
  3  5  1  0  0  0  0
  3  6  1  0  0  0  0
 31 34  1  0  0  0  0
 31 35  1  0  0  0  0
 31 36  1  0  0  0  0
 21 24  1  0  0  0  0
 21 25  1  0  0  0  0
 21 26  1  0  0  0  0
 11 14  1  0  0  0  0
 11 15  1  0  0  0  0
 11 16  1  0  0  0  0
 38 40  1  0  0  0  0
 38 41  1  0  0  0  0
 38 42  1  0  0  0  0
 28 33  1  0  0  0  0
 18 23  1  0  0  0  0
  8 13  1  0  0  0  0
 37 39  1  0  0  0  0
  7 12  1  0  0  0  0
 27 32  1  0  0  0  0
 17 22  1  0  0  0  0
M  END
$$$$

  -OEChem-05262214473D

 42 41  0     1  0  0  0  0  0999 V2000
   -5.7851   -0.9580    0.6237 C   0  0  0  0  0  0  0  0  0  0  0  0
   -6.2213    0.1296    0.2652 O   0  0  0  0  0  0  0  0  0  0  0  0
   -6.7088   -2.1270    0.7168 C   0  0  0  0  0  0  0  0  0  0  0  0
   -7.1713   -2.2193    1.7126 H   0  0  0  0  0  0  0  0  0  0  0  0
   -7.5511   -2.0547    0.0101 H   0  0  0  0  0  0  0  0  0  0  0  0
   -6.2485   -3.1083    0.5191 H   0  0  0  0  0  0  0  0  0  0  0  0
   -4.4733   -1.2411    0.9668 N   0  0  0  0  0  0  0  0  0  0  0  0
   -3.4203   -0.2603    0.9449 C   0  0  2  0  0  0  0  0  0  0  0  0
   -2.1242   -0.9699    0.5759 C   0  0  0  0  0  0  0  0  0  0  0  0
   -1.8694   -2.1225    0.9189 O   0  0  0  0  0  0  0  0  0  0  0  0
   -3.2916    0.4435    2.2868 C   0  0  0  0  0  0  0  0  0  0  0  0
   -4.2421   -2.1920    1.2489 H   0  0  0  0  0  0  0  0  0  0  0  0
   -3.6772    0.4622    0.1625 H   0  0  0  0  0  0  0  0  0  0  0  0
   -3.0345   -0.2644    3.0832 H   0  0  0  0  0  0  0  0  0  0  0  0
   -2.5093    1.2092    2.2599 H   0  0  0  0  0  0  0  0  0  0  0  0
   -4.2338    0.9283    2.5645 H   0  0  0  0  0  0  0  0  0  0  0  0
   -1.2626   -0.1515   -0.1463 N   0  0  0  0  0  0  0  0  0  0  0  0
    0.0431   -0.5785   -0.5755 C   0  0  2  0  0  0  0  0  0  0  0  0
   -0.1323   -1.7918   -1.4792 C   0  0  0  0  0  0  0  0  0  0  0  0
    0.5821   -2.7897   -1.4085 O   0  0  0  0  0  0  0  0  0  0  0  0
    0.9350   -0.9089    0.6111 C   0  0  0  0  0  0  0  0  0  0  0  0
   -1.5766    0.7776   -0.4197 H   0  0  0  0  0  0  0  0  0  0  0  0
    0.4725    0.2481   -1.1522 H   0  0  0  0  0  0  0  0  0  0  0  0
    0.5210   -1.7349    1.2009 H   0  0  0  0  0  0  0  0  0  0  0  0
    1.9368   -1.2061    0.2839 H   0  0  0  0  0  0  0  0  0  0  0  0
    1.0359   -0.0440    1.2756 H   0  0  0  0  0  0  0  0  0  0  0  0
   -1.1539   -1.6152   -2.4060 N   0  0  0  0  0  0  0  0  0  0  0  0
   -1.4869   -2.6029   -3.3984 C   0  0  2  0  0  0  0  0  0  0  0  0
   -1.9809   -1.8735   -4.6407 C   0  0  0  0  0  0  0  0  0  0  0  0
   -2.6211   -0.8252   -4.5928 O   0  0  0  0  0  0  0  0  0  0  0  0
   -2.5390   -3.5724   -2.8828 C   0  0  0  0  0  0  0  0  0  0  0  0
   -1.7196   -0.7698   -2.3628 H   0  0  0  0  0  0  0  0  0  0  0  0
   -0.5613   -3.1398   -3.6333 H   0  0  0  0  0  0  0  0  0  0  0  0
   -3.4736   -3.0527   -2.6421 H   0  0  0  0  0  0  0  0  0  0  0  0
   -2.7704   -4.3402   -3.6285 H   0  0  0  0  0  0  0  0  0  0  0  0
   -2.1938   -4.0742   -1.9724 H   0  0  0  0  0  0  0  0  0  0  0  0
   -1.6602   -2.5534   -5.8073 N   0  0  0  0  0  0  0  0  0  0  0  0
   -2.0558   -2.0867   -7.1155 C   0  0  0  0  0  0  0  0  0  0  0  0
   -1.0924   -3.3941   -5.7556 H   0  0  0  0  0  0  0  0  0  0  0  0
   -3.0160   -2.5453   -7.3942 H   0  0  0  0  0  0  0  0  0  0  0  0
   -2.1641   -0.9922   -7.0970 H   0  0  0  0  0  0  0  0  0  0  0  0
   -1.2884   -2.3667   -7.8522 H   0  0  0  0  0  0  0  0  0  0  0  0
  1  3  1  0  0  0  0
  1  7  1  0  0  0  0
  1  2  2  0  0  0  0
 28 29  1  0  0  0  0
 29 37  1  0  0  0  0
 29 30  2  0  0  0  0
 18 19  1  0  0  0  0
 19 27  1  0  0  0  0
 19 20  2  0  0  0  0
  8  9  1  0  0  0  0
  9 17  1  0  0  0  0
  9 10  2  0  0  0  0
 28 31  1  0  0  0  0
 18 21  1  0  0  0  0
  8 11  1  0  0  0  0
 37 38  1  0  0  0  0
 27 28  1  0  0  0  0
 17 18  1  0  0  0  0
  7  8  1  0  0  0  0
  3  4  1  0  0  0  0
  3  5  1  0  0  0  0
  3  6  1  0  0  0  0
 31 34  1  0  0  0  0
 31 35  1  0  0  0  0
 31 36  1  0  0  0  0
 21 24  1  0  0  0  0
 21 25  1  0  0  0  0
 21 26  1  0  0  0  0
 11 14  1  0  0  0  0
 11 15  1  0  0  0  0
 11 16  1  0  0  0  0
 38 40  1  0  0  0  0
 38 41  1  0  0  0  0
 38 42  1  0  0  0  0
 28 33  1  0  0  0  0
 18 23  1  0  0  0  0
  8 13  1  0  0  0  0
 37 39  1  0  0  0  0
  7 12  1  0  0  0  0
 27 32  1  0  0  0  0
 17 22  1  0  0  0  0
M  END
$$$$

  -OEChem-05262214473D

 42 41  0     1  0  0  0  0  0999 V2000
   -5.7851   -0.9580    0.6237 C   0  0  0  0  0  0  0  0  0  0  0  0
   -6.2213    0.1296    0.2652 O   0  0  0  0  0  0  0  0  0  0  0  0
   -6.7088   -2.1270    0.7168 C   0  0  0  0  0  0  0  0  0  0  0  0
   -7.1713   -2.2193    1.7126 H   0  0  0  0  0  0  0  0  0  0  0  0
   -7.5511   -2.0547    0.0101 H   0  0  0  0  0  0  0  0  0  0  0  0
   -6.2485   -3.1083    0.5191 H   0  0  0  0  0  0  0  0  0  0  0  0
   -4.4733   -1.2411    0.9668 N   0  0  0  0  0  0  0  0  0  0  0  0
   -3.4203   -0.2603    0.9449 C   0  0  2  0  0  0  0  0  0  0  0  0
   -2.1242   -0.9699    0.5759 C   0  0  0  0  0  0  0  0  0  0  0  0
   -1.8694   -2.1225    0.9189 O   0  0  0  0  0  0  0  0  0  0  0  0
   -3.2916    0.4435    2.2868 C   0  0  0  0  0  0  0  0  0  0  0  0
   -4.2421   -2.1920    1.2489 H   0  0  0  0  0  0  0  0  0  0  0  0
   -3.6772    0.4622    0.1625 H   0  0  0  0  0  0  0  0  0  0  0  0
   -3.0345   -0.2644    3.0832 H   0  0  0  0  0  0  0  0  0  0  0  0
   -2.5093    1.2092    2.2599 H   0  0  0  0  0  0  0  0  0  0  0  0
   -4.2338    0.9283    2.5645 H   0  0  0  0  0  0  0  0  0  0  0  0
   -1.2626   -0.1515   -0.1463 N   0  0  0  0  0  0  0  0  0  0  0  0
    0.0431   -0.5785   -0.5755 C   0  0  2  0  0  0  0  0  0  0  0  0
   -0.1323   -1.7918   -1.4792 C   0  0  0  0  0  0  0  0  0  0  0  0
    0.3873   -2.8815   -1.2474 O   0  0  0  0  0  0  0  0  0  0  0  0
    0.9350   -0.9089    0.6111 C   0  0  0  0  0  0  0  0  0  0  0  0
   -1.5766    0.7776   -0.4197 H   0  0  0  0  0  0  0  0  0  0  0  0
    0.4725    0.2481   -1.1522 H   0  0  0  0  0  0  0  0  0  0  0  0
    0.5210   -1.7349    1.2009 H   0  0  0  0  0  0  0  0  0  0  0  0
    1.9368   -1.2061    0.2839 H   0  0  0  0  0  0  0  0  0  0  0  0
    1.0359   -0.0440    1.2756 H   0  0  0  0  0  0  0  0  0  0  0  0
   -0.9029   -1.5062   -2.6009 N   0  0  0  0  0  0  0  0  0  0  0  0
   -1.1772   -2.4772   -3.6273 C   0  0  2  0  0  0  0  0  0  0  0  0
   -1.2871   -1.7395   -4.9552 C   0  0  0  0  0  0  0  0  0  0  0  0
   -1.7512   -0.6057   -5.0563 O   0  0  0  0  0  0  0  0  0  0  0  0
   -2.4510   -3.2526   -3.3293 C   0  0  0  0  0  0  0  0  0  0  0  0
   -1.3260   -0.5843   -2.6883 H   0  0  0  0  0  0  0  0  0  0  0  0
   -0.3190   -3.1574   -3.6567 H   0  0  0  0  0  0  0  0  0  0  0  0
   -3.3217   -2.5877   -3.2959 H   0  0  0  0  0  0  0  0  0  0  0  0
   -2.6429   -4.0103   -4.0962 H   0  0  0  0  0  0  0  0  0  0  0  0
   -2.3816   -3.7583   -2.3601 H   0  0  0  0  0  0  0  0  0  0  0  0
   -0.8458   -2.5128   -6.0199 N   0  0  0  0  0  0  0  0  0  0  0  0
   -0.8883   -2.0524   -7.3882 C   0  0  0  0  0  0  0  0  0  0  0  0
   -0.4394   -3.4260   -5.8395 H   0  0  0  0  0  0  0  0  0  0  0  0
   -1.8313   -2.3737   -7.8546 H   0  0  0  0  0  0  0  0  0  0  0  0
   -0.8252   -0.9544   -7.4076 H   0  0  0  0  0  0  0  0  0  0  0  0
   -0.0404   -2.4783   -7.9447 H   0  0  0  0  0  0  0  0  0  0  0  0
  1  3  1  0  0  0  0
  1  7  1  0  0  0  0
  1  2  2  0  0  0  0
 28 29  1  0  0  0  0
 29 37  1  0  0  0  0
 29 30  2  0  0  0  0
 18 19  1  0  0  0  0
 19 27  1  0  0  0  0
 19 20  2  0  0  0  0
  8  9  1  0  0  0  0
  9 17  1  0  0  0  0
  9 10  2  0  0  0  0
 28 31  1  0  0  0  0
 18 21  1  0  0  0  0
  8 11  1  0  0  0  0
 37 38  1  0  0  0  0
 27 28  1  0  0  0  0
 17 18  1  0  0  0  0
  7  8  1  0  0  0  0
  3  4  1  0  0  0  0
  3  5  1  0  0  0  0
  3  6  1  0  0  0  0
 31 34  1  0  0  0  0
 31 35  1  0  0  0  0
 31 36  1  0  0  0  0
 21 24  1  0  0  0  0
 21 25  1  0  0  0  0
 21 26  1  0  0  0  0
 11 14  1  0  0  0  0
 11 15  1  0  0  0  0
 11 16  1  0  0  0  0
 38 40  1  0  0  0  0
 38 41  1  0  0  0  0
 38 42  1  0  0  0  0
 28 33  1  0  0  0  0
 18 23  1  0  0  0  0
  8 13  1  0  0  0  0
 37 39  1  0  0  0  0
  7 12  1  0  0  0  0
 27 32  1  0  0  0  0
 17 22  1  0  0  0  0
M  END
$$$$

  -OEChem-05262214473D

 42 41  0     1  0  0  0  0  0999 V2000
   -5.7851   -0.9580    0.6237 C   0  0  0  0  0  0  0  0  0  0  0  0
   -6.2213    0.1296    0.2652 O   0  0  0  0  0  0  0  0  0  0  0  0
   -6.7088   -2.1270    0.7168 C   0  0  0  0  0  0  0  0  0  0  0  0
   -7.1713   -2.2193    1.7126 H   0  0  0  0  0  0  0  0  0  0  0  0
   -7.5511   -2.0547    0.0101 H   0  0  0  0  0  0  0  0  0  0  0  0
   -6.2485   -3.1083    0.5191 H   0  0  0  0  0  0  0  0  0  0  0  0
   -4.4733   -1.2411    0.9668 N   0  0  0  0  0  0  0  0  0  0  0  0
   -3.4203   -0.2603    0.9449 C   0  0  2  0  0  0  0  0  0  0  0  0
   -2.1242   -0.9699    0.5759 C   0  0  0  0  0  0  0  0  0  0  0  0
   -1.8694   -2.1225    0.9189 O   0  0  0  0  0  0  0  0  0  0  0  0
   -3.2916    0.4435    2.2868 C   0  0  0  0  0  0  0  0  0  0  0  0
   -4.2421   -2.1920    1.2489 H   0  0  0  0  0  0  0  0  0  0  0  0
   -3.6772    0.4622    0.1625 H   0  0  0  0  0  0  0  0  0  0  0  0
   -3.0345   -0.2644    3.0832 H   0  0  0  0  0  0  0  0  0  0  0  0
   -2.5093    1.2092    2.2599 H   0  0  0  0  0  0  0  0  0  0  0  0
   -4.2338    0.9283    2.5645 H   0  0  0  0  0  0  0  0  0  0  0  0
   -1.2626   -0.1515   -0.1463 N   0  0  0  0  0  0  0  0  0  0  0  0
    0.0431   -0.5785   -0.5755 C   0  0  2  0  0  0  0  0  0  0  0  0
   -0.1323   -1.7918   -1.4792 C   0  0  0  0  0  0  0  0  0  0  0  0
    0.1518   -2.9354   -1.1293 O   0  0  0  0  0  0  0  0  0  0  0  0
    0.9350   -0.9089    0.6111 C   0  0  0  0  0  0  0  0  0  0  0  0
   -1.5766    0.7776   -0.4197 H   0  0  0  0  0  0  0  0  0  0  0  0
    0.4725    0.2481   -1.1522 H   0  0  0  0  0  0  0  0  0  0  0  0
    0.5210   -1.7349    1.2009 H   0  0  0  0  0  0  0  0  0  0  0  0
    1.9368   -1.2061    0.2839 H   0  0  0  0  0  0  0  0  0  0  0  0
    1.0359   -0.0440    1.2756 H   0  0  0  0  0  0  0  0  0  0  0  0
   -0.6035   -1.4454   -2.7408 N   0  0  0  0  0  0  0  0  0  0  0  0
   -0.8115   -2.4101   -3.7884 C   0  0  2  0  0  0  0  0  0  0  0  0
   -0.5314   -1.7260   -5.1200 C   0  0  0  0  0  0  0  0  0  0  0  0
   -0.7816   -0.5412   -5.3312 O   0  0  0  0  0  0  0  0  0  0  0  0
   -2.2247   -2.9706   -3.7519 C   0  0  0  0  0  0  0  0  0  0  0  0
   -0.8502   -0.4753   -2.9270 H   0  0  0  0  0  0  0  0  0  0  0  0
   -0.0828   -3.2123   -3.6288 H   0  0  0  0  0  0  0  0  0  0  0  0
   -2.9688   -2.1814   -3.9099 H   0  0  0  0  0  0  0  0  0  0  0  0
   -2.3726   -3.7251   -4.5316 H   0  0  0  0  0  0  0  0  0  0  0  0
   -2.4345   -3.4359   -2.7828 H   0  0  0  0  0  0  0  0  0  0  0  0
   -0.0091   -2.6049   -6.0585 N   0  0  0  0  0  0  0  0  0  0  0  0
    0.3010   -2.2067   -7.4118 C   0  0  0  0  0  0  0  0  0  0  0  0
    0.2038   -3.5597   -5.7849 H   0  0  0  0  0  0  0  0  0  0  0  0
   -0.5656   -2.4035   -8.0601 H   0  0  0  0  0  0  0  0  0  0  0  0
    0.5379   -1.1327   -7.4326 H   0  0  0  0  0  0  0  0  0  0  0  0
    1.1671   -2.7804   -7.7733 H   0  0  0  0  0  0  0  0  0  0  0  0
  1  3  1  0  0  0  0
  1  7  1  0  0  0  0
  1  2  2  0  0  0  0
 28 29  1  0  0  0  0
 29 37  1  0  0  0  0
 29 30  2  0  0  0  0
 18 19  1  0  0  0  0
 19 27  1  0  0  0  0
 19 20  2  0  0  0  0
  8  9  1  0  0  0  0
  9 17  1  0  0  0  0
  9 10  2  0  0  0  0
 28 31  1  0  0  0  0
 18 21  1  0  0  0  0
  8 11  1  0  0  0  0
 37 38  1  0  0  0  0
 27 28  1  0  0  0  0
 17 18  1  0  0  0  0
  7  8  1  0  0  0  0
  3  4  1  0  0  0  0
  3  5  1  0  0  0  0
  3  6  1  0  0  0  0
 31 34  1  0  0  0  0
 31 35  1  0  0  0  0
 31 36  1  0  0  0  0
 21 24  1  0  0  0  0
 21 25  1  0  0  0  0
 21 26  1  0  0  0  0
 11 14  1  0  0  0  0
 11 15  1  0  0  0  0
 11 16  1  0  0  0  0
 38 40  1  0  0  0  0
 38 41  1  0  0  0  0
 38 42  1  0  0  0  0
 28 33  1  0  0  0  0
 18 23  1  0  0  0  0
  8 13  1  0  0  0  0
 37 39  1  0  0  0  0
  7 12  1  0  0  0  0
 27 32  1  0  0  0  0
 17 22  1  0  0  0  0
M  END
$$$$

  -OEChem-05262214473D

 42 41  0     1  0  0  0  0  0999 V2000
   -5.7851   -0.9580    0.6237 C   0  0  0  0  0  0  0  0  0  0  0  0
   -6.2213    0.1296    0.2652 O   0  0  0  0  0  0  0  0  0  0  0  0
   -6.7088   -2.1270    0.7168 C   0  0  0  0  0  0  0  0  0  0  0  0
   -7.1713   -2.2193    1.7126 H   0  0  0  0  0  0  0  0  0  0  0  0
   -7.5511   -2.0547    0.0101 H   0  0  0  0  0  0  0  0  0  0  0  0
   -6.2485   -3.1083    0.5191 H   0  0  0  0  0  0  0  0  0  0  0  0
   -4.4733   -1.2411    0.9668 N   0  0  0  0  0  0  0  0  0  0  0  0
   -3.4203   -0.2603    0.9449 C   0  0  2  0  0  0  0  0  0  0  0  0
   -2.1242   -0.9699    0.5759 C   0  0  0  0  0  0  0  0  0  0  0  0
   -1.8694   -2.1225    0.9189 O   0  0  0  0  0  0  0  0  0  0  0  0
   -3.2916    0.4435    2.2868 C   0  0  0  0  0  0  0  0  0  0  0  0
   -4.2421   -2.1920    1.2489 H   0  0  0  0  0  0  0  0  0  0  0  0
   -3.6772    0.4622    0.1625 H   0  0  0  0  0  0  0  0  0  0  0  0
   -3.0345   -0.2644    3.0832 H   0  0  0  0  0  0  0  0  0  0  0  0
   -2.5093    1.2092    2.2599 H   0  0  0  0  0  0  0  0  0  0  0  0
   -4.2338    0.9283    2.5645 H   0  0  0  0  0  0  0  0  0  0  0  0
   -1.2626   -0.1515   -0.1463 N   0  0  0  0  0  0  0  0  0  0  0  0
    0.0431   -0.5785   -0.5755 C   0  0  2  0  0  0  0  0  0  0  0  0
   -0.1323   -1.7918   -1.4792 C   0  0  0  0  0  0  0  0  0  0  0  0
   -0.1083   -2.9479   -1.0621 O   0  0  0  0  0  0  0  0  0  0  0  0
    0.9350   -0.9089    0.6111 C   0  0  0  0  0  0  0  0  0  0  0  0
   -1.5766    0.7776   -0.4197 H   0  0  0  0  0  0  0  0  0  0  0  0
    0.4725    0.2481   -1.1522 H   0  0  0  0  0  0  0  0  0  0  0  0
    0.5210   -1.7349    1.2009 H   0  0  0  0  0  0  0  0  0  0  0  0
    1.9368   -1.2061    0.2839 H   0  0  0  0  0  0  0  0  0  0  0  0
    1.0359   -0.0440    1.2756 H   0  0  0  0  0  0  0  0  0  0  0  0
   -0.2762   -1.4367   -2.8159 N   0  0  0  0  0  0  0  0  0  0  0  0
   -0.4148   -2.4062   -3.8706 C   0  0  2  0  0  0  0  0  0  0  0  0
    0.2346   -1.8340   -5.1237 C   0  0  0  0  0  0  0  0  0  0  0  0
    0.2214   -0.6359   -5.3987 O   0  0  0  0  0  0  0  0  0  0  0  0
   -1.8757   -2.7454   -4.1219 C   0  0  0  0  0  0  0  0  0  0  0  0
   -0.3246   -0.4502   -3.0628 H   0  0  0  0  0  0  0  0  0  0  0  0
    0.1312   -3.3007   -3.5516 H   0  0  0  0  0  0  0  0  0  0  0  0
   -2.4390   -1.8614   -4.4424 H   0  0  0  0  0  0  0  0  0  0  0  0
   -1.9779   -3.5041   -4.9048 H   0  0  0  0  0  0  0  0  0  0  0  0
   -2.3490   -3.1289   -3.2115 H   0  0  0  0  0  0  0  0  0  0  0  0
    0.7929   -2.8236   -5.9206 N   0  0  0  0  0  0  0  0  0  0  0  0
    1.4308   -2.5391   -7.1848 C   0  0  0  0  0  0  0  0  0  0  0  0
    0.7933   -3.7859   -5.5955 H   0  0  0  0  0  0  0  0  0  0  0  0
    0.6948   -2.6329   -7.9968 H   0  0  0  0  0  0  0  0  0  0  0  0
    1.8324   -1.5151   -7.1705 H   0  0  0  0  0  0  0  0  0  0  0  0
    2.2516   -3.2526   -7.3499 H   0  0  0  0  0  0  0  0  0  0  0  0
  1  3  1  0  0  0  0
  1  7  1  0  0  0  0
  1  2  2  0  0  0  0
 28 29  1  0  0  0  0
 29 37  1  0  0  0  0
 29 30  2  0  0  0  0
 18 19  1  0  0  0  0
 19 27  1  0  0  0  0
 19 20  2  0  0  0  0
  8  9  1  0  0  0  0
  9 17  1  0  0  0  0
  9 10  2  0  0  0  0
 28 31  1  0  0  0  0
 18 21  1  0  0  0  0
  8 11  1  0  0  0  0
 37 38  1  0  0  0  0
 27 28  1  0  0  0  0
 17 18  1  0  0  0  0
  7  8  1  0  0  0  0
  3  4  1  0  0  0  0
  3  5  1  0  0  0  0
  3  6  1  0  0  0  0
 31 34  1  0  0  0  0
 31 35  1  0  0  0  0
 31 36  1  0  0  0  0
 21 24  1  0  0  0  0
 21 25  1  0  0  0  0
 21 26  1  0  0  0  0
 11 14  1  0  0  0  0
 11 15  1  0  0  0  0
 11 16  1  0  0  0  0
 38 40  1  0  0  0  0
 38 41  1  0  0  0  0
 38 42  1  0  0  0  0
 28 33  1  0  0  0  0
 18 23  1  0  0  0  0
  8 13  1  0  0  0  0
 37 39  1  0  0  0  0
  7 12  1  0  0  0  0
 27 32  1  0  0  0  0
 17 22  1  0  0  0  0
M  END
$$$$

  -OEChem-05262214473D

 42 41  0     1  0  0  0  0  0999 V2000
   -5.7851   -0.9580    0.6237 C   0  0  0  0  0  0  0  0  0  0  0  0
   -6.2213    0.1296    0.2652 O   0  0  0  0  0  0  0  0  0  0  0  0
   -6.7088   -2.1270    0.7168 C   0  0  0  0  0  0  0  0  0  0  0  0
   -7.1713   -2.2193    1.7126 H   0  0  0  0  0  0  0  0  0  0  0  0
   -7.5511   -2.0547    0.0101 H   0  0  0  0  0  0  0  0  0  0  0  0
   -6.2485   -3.1083    0.5191 H   0  0  0  0  0  0  0  0  0  0  0  0
   -4.4733   -1.2411    0.9668 N   0  0  0  0  0  0  0  0  0  0  0  0
   -3.4203   -0.2603    0.9449 C   0  0  2  0  0  0  0  0  0  0  0  0
   -2.1242   -0.9699    0.5759 C   0  0  0  0  0  0  0  0  0  0  0  0
   -1.8694   -2.1225    0.9189 O   0  0  0  0  0  0  0  0  0  0  0  0
   -3.2916    0.4435    2.2868 C   0  0  0  0  0  0  0  0  0  0  0  0
   -4.2421   -2.1920    1.2489 H   0  0  0  0  0  0  0  0  0  0  0  0
   -3.6772    0.4622    0.1625 H   0  0  0  0  0  0  0  0  0  0  0  0
   -3.0345   -0.2644    3.0832 H   0  0  0  0  0  0  0  0  0  0  0  0
   -2.5093    1.2092    2.2599 H   0  0  0  0  0  0  0  0  0  0  0  0
   -4.2338    0.9283    2.5645 H   0  0  0  0  0  0  0  0  0  0  0  0
   -1.2626   -0.1515   -0.1463 N   0  0  0  0  0  0  0  0  0  0  0  0
    0.0431   -0.5785   -0.5755 C   0  0  2  0  0  0  0  0  0  0  0  0
   -0.1323   -1.7918   -1.4792 C   0  0  0  0  0  0  0  0  0  0  0  0
   -0.3753   -2.9179   -1.0504 O   0  0  0  0  0  0  0  0  0  0  0  0
    0.9350   -0.9089    0.6111 C   0  0  0  0  0  0  0  0  0  0  0  0
   -1.5766    0.7776   -0.4197 H   0  0  0  0  0  0  0  0  0  0  0  0
    0.4725    0.2481   -1.1522 H   0  0  0  0  0  0  0  0  0  0  0  0
    0.5210   -1.7349    1.2009 H   0  0  0  0  0  0  0  0  0  0  0  0
    1.9368   -1.2061    0.2839 H   0  0  0  0  0  0  0  0  0  0  0  0
    1.0359   -0.0440    1.2756 H   0  0  0  0  0  0  0  0  0  0  0  0
    0.0568   -1.4808   -2.8213 N   0  0  0  0  0  0  0  0  0  0  0  0
   -0.0140   -2.4659   -3.8683 C   0  0  2  0  0  0  0  0  0  0  0  0
    0.9586   -2.0559   -4.9662 C   0  0  0  0  0  0  0  0  0  0  0  0
    1.1897   -0.8835   -5.2542 O   0  0  0  0  0  0  0  0  0  0  0  0
   -1.4278   -2.5926   -4.4141 C   0  0  0  0  0  0  0  0  0  0  0  0
    0.2150   -0.5106   -3.0863 H   0  0  0  0  0  0  0  0  0  0  0  0
    0.3084   -3.4167   -3.4302 H   0  0  0  0  0  0  0  0  0  0  0  0
   -1.7682   -1.6496   -4.8570 H   0  0  0  0  0  0  0  0  0  0  0  0
   -1.4858   -3.3625   -5.1906 H   0  0  0  0  0  0  0  0  0  0  0  0
   -2.1308   -2.8584   -3.6172 H   0  0  0  0  0  0  0  0  0  0  0  0
    1.5056   -3.1539   -5.6155 N   0  0  0  0  0  0  0  0  0  0  0  0
    2.4243   -3.0269   -6.7226 C   0  0  0  0  0  0  0  0  0  0  0  0
    1.2889   -4.0893   -5.2843 H   0  0  0  0  0  0  0  0  0  0  0  0
    1.8639   -3.0461   -7.6689 H   0  0  0  0  0  0  0  0  0  0  0  0
    2.9699   -2.0754   -6.6389 H   0  0  0  0  0  0  0  0  0  0  0  0
    3.1394   -3.8626   -6.7032 H   0  0  0  0  0  0  0  0  0  0  0  0
  1  3  1  0  0  0  0
  1  7  1  0  0  0  0
  1  2  2  0  0  0  0
 28 29  1  0  0  0  0
 29 37  1  0  0  0  0
 29 30  2  0  0  0  0
 18 19  1  0  0  0  0
 19 27  1  0  0  0  0
 19 20  2  0  0  0  0
  8  9  1  0  0  0  0
  9 17  1  0  0  0  0
  9 10  2  0  0  0  0
 28 31  1  0  0  0  0
 18 21  1  0  0  0  0
  8 11  1  0  0  0  0
 37 38  1  0  0  0  0
 27 28  1  0  0  0  0
 17 18  1  0  0  0  0
  7  8  1  0  0  0  0
  3  4  1  0  0  0  0
  3  5  1  0  0  0  0
  3  6  1  0  0  0  0
 31 34  1  0  0  0  0
 31 35  1  0  0  0  0
 31 36  1  0  0  0  0
 21 24  1  0  0  0  0
 21 25  1  0  0  0  0
 21 26  1  0  0  0  0
 11 14  1  0  0  0  0
 11 15  1  0  0  0  0
 11 16  1  0  0  0  0
 38 40  1  0  0  0  0
 38 41  1  0  0  0  0
 38 42  1  0  0  0  0
 28 33  1  0  0  0  0
 18 23  1  0  0  0  0
  8 13  1  0  0  0  0
 37 39  1  0  0  0  0
  7 12  1  0  0  0  0
 27 32  1  0  0  0  0
 17 22  1  0  0  0  0
M  END
$$$$

  -OEChem-05262214473D

 42 41  0     1  0  0  0  0  0999 V2000
   -5.7851   -0.9580    0.6237 C   0  0  0  0  0  0  0  0  0  0  0  0
   -6.2213    0.1296    0.2652 O   0  0  0  0  0  0  0  0  0  0  0  0
   -6.7088   -2.1270    0.7168 C   0  0  0  0  0  0  0  0  0  0  0  0
   -7.1713   -2.2193    1.7126 H   0  0  0  0  0  0  0  0  0  0  0  0
   -7.5511   -2.0547    0.0101 H   0  0  0  0  0  0  0  0  0  0  0  0
   -6.2485   -3.1083    0.5191 H   0  0  0  0  0  0  0  0  0  0  0  0
   -4.4733   -1.2411    0.9668 N   0  0  0  0  0  0  0  0  0  0  0  0
   -3.4203   -0.2603    0.9449 C   0  0  2  0  0  0  0  0  0  0  0  0
   -2.1242   -0.9699    0.5759 C   0  0  0  0  0  0  0  0  0  0  0  0
   -1.8694   -2.1225    0.9189 O   0  0  0  0  0  0  0  0  0  0  0  0
   -3.2916    0.4435    2.2868 C   0  0  0  0  0  0  0  0  0  0  0  0
   -4.2421   -2.1920    1.2489 H   0  0  0  0  0  0  0  0  0  0  0  0
   -3.6772    0.4622    0.1625 H   0  0  0  0  0  0  0  0  0  0  0  0
   -3.0345   -0.2644    3.0832 H   0  0  0  0  0  0  0  0  0  0  0  0
   -2.5093    1.2092    2.2599 H   0  0  0  0  0  0  0  0  0  0  0  0
   -4.2338    0.9283    2.5645 H   0  0  0  0  0  0  0  0  0  0  0  0
   -1.2626   -0.1515   -0.1463 N   0  0  0  0  0  0  0  0  0  0  0  0
    0.0431   -0.5785   -0.5755 C   0  0  2  0  0  0  0  0  0  0  0  0
   -0.1323   -1.7918   -1.4792 C   0  0  0  0  0  0  0  0  0  0  0  0
   -0.6310   -2.8477   -1.0951 O   0  0  0  0  0  0  0  0  0  0  0  0
    0.9350   -0.9089    0.6111 C   0  0  0  0  0  0  0  0  0  0  0  0
   -1.5766    0.7776   -0.4197 H   0  0  0  0  0  0  0  0  0  0  0  0
    0.4725    0.2481   -1.1522 H   0  0  0  0  0  0  0  0  0  0  0  0
    0.5210   -1.7349    1.2009 H   0  0  0  0  0  0  0  0  0  0  0  0
    1.9368   -1.2061    0.2839 H   0  0  0  0  0  0  0  0  0  0  0  0
    1.0359   -0.0440    1.2756 H   0  0  0  0  0  0  0  0  0  0  0  0
    0.3728   -1.5748   -2.7565 N   0  0  0  0  0  0  0  0  0  0  0  0
    0.3634   -2.5849   -3.7816 C   0  0  2  0  0  0  0  0  0  0  0  0
    1.5914   -2.3769   -4.6581 C   0  0  0  0  0  0  0  0  0  0  0  0
    2.0572   -1.2670   -4.9076 O   0  0  0  0  0  0  0  0  0  0  0  0
   -0.9114   -2.5225   -4.6084 C   0  0  0  0  0  0  0  0  0  0  0  0
    0.7317   -0.6526   -2.9960 H   0  0  0  0  0  0  0  0  0  0  0  0
    0.4367   -3.5524   -3.2730 H   0  0  0  0  0  0  0  0  0  0  0  0
   -1.0023   -1.5603   -5.1255 H   0  0  0  0  0  0  0  0  0  0  0  0
   -0.9298   -3.3097   -5.3694 H   0  0  0  0  0  0  0  0  0  0  0  0
   -1.7949   -2.6426   -3.9721 H   0  0  0  0  0  0  0  0  0  0  0  0
    2.0803   -3.5732   -5.1640 N   0  0  0  0  0  0  0  0  0  0  0  0
    3.2138   -3.6369   -6.0568 C   0  0  0  0  0  0  0  0  0  0  0  0
    1.6568   -4.4492   -4.8725 H   0  0  0  0  0  0  0  0  0  0  0  0
    2.8621   -3.6150   -7.0989 H   0  0  0  0  0  0  0  0  0  0  0  0
    3.8731   -2.7755   -5.8743 H   0  0  0  0  0  0  0  0  0  0  0  0
    3.7699   -4.5688   -5.8772 H   0  0  0  0  0  0  0  0  0  0  0  0
  1  3  1  0  0  0  0
  1  7  1  0  0  0  0
  1  2  2  0  0  0  0
 28 29  1  0  0  0  0
 29 37  1  0  0  0  0
 29 30  2  0  0  0  0
 18 19  1  0  0  0  0
 19 27  1  0  0  0  0
 19 20  2  0  0  0  0
  8  9  1  0  0  0  0
  9 17  1  0  0  0  0
  9 10  2  0  0  0  0
 28 31  1  0  0  0  0
 18 21  1  0  0  0  0
  8 11  1  0  0  0  0
 37 38  1  0  0  0  0
 27 28  1  0  0  0  0
 17 18  1  0  0  0  0
  7  8  1  0  0  0  0
  3  4  1  0  0  0  0
  3  5  1  0  0  0  0
  3  6  1  0  0  0  0
 31 34  1  0  0  0  0
 31 35  1  0  0  0  0
 31 36  1  0  0  0  0
 21 24  1  0  0  0  0
 21 25  1  0  0  0  0
 21 26  1  0  0  0  0
 11 14  1  0  0  0  0
 11 15  1  0  0  0  0
 11 16  1  0  0  0  0
 38 40  1  0  0  0  0
 38 41  1  0  0  0  0
 38 42  1  0  0  0  0
 28 33  1  0  0  0  0
 18 23  1  0  0  0  0
  8 13  1  0  0  0  0
 37 39  1  0  0  0  0
  7 12  1  0  0  0  0
 27 32  1  0  0  0  0
 17 22  1  0  0  0  0
M  END
$$$$

  -OEChem-05262214473D

 42 41  0     1  0  0  0  0  0999 V2000
   -5.7851   -0.9580    0.6237 C   0  0  0  0  0  0  0  0  0  0  0  0
   -6.2213    0.1296    0.2652 O   0  0  0  0  0  0  0  0  0  0  0  0
   -6.7088   -2.1270    0.7168 C   0  0  0  0  0  0  0  0  0  0  0  0
   -7.1713   -2.2193    1.7126 H   0  0  0  0  0  0  0  0  0  0  0  0
   -7.5511   -2.0547    0.0101 H   0  0  0  0  0  0  0  0  0  0  0  0
   -6.2485   -3.1083    0.5191 H   0  0  0  0  0  0  0  0  0  0  0  0
   -4.4733   -1.2411    0.9668 N   0  0  0  0  0  0  0  0  0  0  0  0
   -3.4203   -0.2603    0.9449 C   0  0  2  0  0  0  0  0  0  0  0  0
   -2.1242   -0.9699    0.5759 C   0  0  0  0  0  0  0  0  0  0  0  0
   -1.8694   -2.1225    0.9189 O   0  0  0  0  0  0  0  0  0  0  0  0
   -3.2916    0.4435    2.2868 C   0  0  0  0  0  0  0  0  0  0  0  0
   -4.2421   -2.1920    1.2489 H   0  0  0  0  0  0  0  0  0  0  0  0
   -3.6772    0.4622    0.1625 H   0  0  0  0  0  0  0  0  0  0  0  0
   -3.0345   -0.2644    3.0832 H   0  0  0  0  0  0  0  0  0  0  0  0
   -2.5093    1.2092    2.2599 H   0  0  0  0  0  0  0  0  0  0  0  0
   -4.2338    0.9283    2.5645 H   0  0  0  0  0  0  0  0  0  0  0  0
   -1.2626   -0.1515   -0.1463 N   0  0  0  0  0  0  0  0  0  0  0  0
    0.0431   -0.5785   -0.5755 C   0  0  2  0  0  0  0  0  0  0  0  0
   -0.1323   -1.7918   -1.4792 C   0  0  0  0  0  0  0  0  0  0  0  0
   -0.8579   -2.7419   -1.1931 O   0  0  0  0  0  0  0  0  0  0  0  0
    0.9350   -0.9089    0.6111 C   0  0  0  0  0  0  0  0  0  0  0  0
   -1.5766    0.7776   -0.4197 H   0  0  0  0  0  0  0  0  0  0  0  0
    0.4725    0.2481   -1.1522 H   0  0  0  0  0  0  0  0  0  0  0  0
    0.5210   -1.7349    1.2009 H   0  0  0  0  0  0  0  0  0  0  0  0
    1.9368   -1.2061    0.2839 H   0  0  0  0  0  0  0  0  0  0  0  0
    1.0359   -0.0440    1.2756 H   0  0  0  0  0  0  0  0  0  0  0  0
    0.6502   -1.7121   -2.6260 N   0  0  0  0  0  0  0  0  0  0  0  0
    0.6919   -2.7554   -3.6166 C   0  0  2  0  0  0  0  0  0  0  0  0
    2.0899   -2.7749   -4.2205 C   0  0  0  0  0  0  0  0  0  0  0  0
    2.7648   -1.7603   -4.3826 O   0  0  0  0  0  0  0  0  0  0  0  0
   -0.3618   -2.5399   -4.6918 C   0  0  0  0  0  0  0  0  0  0  0  0
    1.1904   -0.8664   -2.7979 H   0  0  0  0  0  0  0  0  0  0  0  0
    0.5074   -3.6984   -3.0906 H   0  0  0  0  0  0  0  0  0  0  0  0
   -0.1934   -1.5997   -5.2296 H   0  0  0  0  0  0  0  0  0  0  0  0
   -0.3477   -3.3494   -5.4290 H   0  0  0  0  0  0  0  0  0  0  0  0
   -1.3641   -2.4963   -4.2521 H   0  0  0  0  0  0  0  0  0  0  0  0
    2.4780   -4.0531   -4.5969 N   0  0  0  0  0  0  0  0  0  0  0  0
    3.7454   -4.3275   -5.2328 C   0  0  0  0  0  0  0  0  0  0  0  0
    1.8720   -4.8411   -4.3881 H   0  0  0  0  0  0  0  0  0  0  0  0
    3.6214   -4.3008   -6.3254 H   0  0  0  0  0  0  0  0  0  0  0  0
    4.4803   -3.5676   -4.9285 H   0  0  0  0  0  0  0  0  0  0  0  0
    4.1002   -5.3232   -4.9284 H   0  0  0  0  0  0  0  0  0  0  0  0
  1  3  1  0  0  0  0
  1  7  1  0  0  0  0
  1  2  2  0  0  0  0
 28 29  1  0  0  0  0
 29 37  1  0  0  0  0
 29 30  2  0  0  0  0
 18 19  1  0  0  0  0
 19 27  1  0  0  0  0
 19 20  2  0  0  0  0
  8  9  1  0  0  0  0
  9 17  1  0  0  0  0
  9 10  2  0  0  0  0
 28 31  1  0  0  0  0
 18 21  1  0  0  0  0
  8 11  1  0  0  0  0
 37 38  1  0  0  0  0
 27 28  1  0  0  0  0
 17 18  1  0  0  0  0
  7  8  1  0  0  0  0
  3  4  1  0  0  0  0
  3  5  1  0  0  0  0
  3  6  1  0  0  0  0
 31 34  1  0  0  0  0
 31 35  1  0  0  0  0
 31 36  1  0  0  0  0
 21 24  1  0  0  0  0
 21 25  1  0  0  0  0
 21 26  1  0  0  0  0
 11 14  1  0  0  0  0
 11 15  1  0  0  0  0
 11 16  1  0  0  0  0
 38 40  1  0  0  0  0
 38 41  1  0  0  0  0
 38 42  1  0  0  0  0
 28 33  1  0  0  0  0
 18 23  1  0  0  0  0
  8 13  1  0  0  0  0
 37 39  1  0  0  0  0
  7 12  1  0  0  0  0
 27 32  1  0  0  0  0
 17 22  1  0  0  0  0
M  END
$$$$

  -OEChem-05262214473D

 42 41  0     1  0  0  0  0  0999 V2000
   -5.7851   -0.9580    0.6237 C   0  0  0  0  0  0  0  0  0  0  0  0
   -6.2213    0.1296    0.2652 O   0  0  0  0  0  0  0  0  0  0  0  0
   -6.7088   -2.1270    0.7168 C   0  0  0  0  0  0  0  0  0  0  0  0
   -7.1713   -2.2193    1.7126 H   0  0  0  0  0  0  0  0  0  0  0  0
   -7.5511   -2.0547    0.0101 H   0  0  0  0  0  0  0  0  0  0  0  0
   -6.2485   -3.1083    0.5191 H   0  0  0  0  0  0  0  0  0  0  0  0
   -4.4733   -1.2411    0.9668 N   0  0  0  0  0  0  0  0  0  0  0  0
   -3.4203   -0.2603    0.9449 C   0  0  2  0  0  0  0  0  0  0  0  0
   -2.1242   -0.9699    0.5759 C   0  0  0  0  0  0  0  0  0  0  0  0
   -1.8694   -2.1225    0.9189 O   0  0  0  0  0  0  0  0  0  0  0  0
   -3.2916    0.4435    2.2868 C   0  0  0  0  0  0  0  0  0  0  0  0
   -4.2421   -2.1920    1.2489 H   0  0  0  0  0  0  0  0  0  0  0  0
   -3.6772    0.4622    0.1625 H   0  0  0  0  0  0  0  0  0  0  0  0
   -3.0345   -0.2644    3.0832 H   0  0  0  0  0  0  0  0  0  0  0  0
   -2.5093    1.2092    2.2599 H   0  0  0  0  0  0  0  0  0  0  0  0
   -4.2338    0.9283    2.5645 H   0  0  0  0  0  0  0  0  0  0  0  0
   -1.2626   -0.1515   -0.1463 N   0  0  0  0  0  0  0  0  0  0  0  0
    0.0431   -0.5785   -0.5755 C   0  0  2  0  0  0  0  0  0  0  0  0
   -0.1323   -1.7918   -1.4792 C   0  0  0  0  0  0  0  0  0  0  0  0
   -1.0407   -2.6078   -1.3378 O   0  0  0  0  0  0  0  0  0  0  0  0
    0.9350   -0.9089    0.6111 C   0  0  0  0  0  0  0  0  0  0  0  0
   -1.5766    0.7776   -0.4197 H   0  0  0  0  0  0  0  0  0  0  0  0
    0.4725    0.2481   -1.1522 H   0  0  0  0  0  0  0  0  0  0  0  0
    0.5210   -1.7349    1.2009 H   0  0  0  0  0  0  0  0  0  0  0  0
    1.9368   -1.2061    0.2839 H   0  0  0  0  0  0  0  0  0  0  0  0
    1.0359   -0.0440    1.2756 H   0  0  0  0  0  0  0  0  0  0  0  0
    0.8702   -1.8835   -2.4386 N   0  0  0  0  0  0  0  0  0  0  0  0
    0.9489   -2.9655   -3.3843 C   0  0  2  0  0  0  0  0  0  0  0  0
    2.4200   -3.2228   -3.6831 C   0  0  0  0  0  0  0  0  0  0  0  0
    3.2642   -2.3298   -3.7148 O   0  0  0  0  0  0  0  0  0  0  0  0
    0.1837   -2.6435   -4.6585 C   0  0  0  0  0  0  0  0  0  0  0  0
    1.5597   -1.1375   -2.5057 H   0  0  0  0  0  0  0  0  0  0  0  0
    0.5157   -3.8449   -2.8955 H   0  0  0  0  0  0  0  0  0  0  0  0
    0.6033   -1.7651   -5.1622 H   0  0  0  0  0  0  0  0  0  0  0  0
    0.2207   -3.4790   -5.3654 H   0  0  0  0  0  0  0  0  0  0  0  0
   -0.8677   -2.4296   -4.4381 H   0  0  0  0  0  0  0  0  0  0  0  0
    2.6715   -4.5608   -3.9527 N   0  0  0  0  0  0  0  0  0  0  0  0
    3.9829   -5.0516   -4.3066 C   0  0  0  0  0  0  0  0  0  0  0  0
    1.9198   -5.2382   -3.8642 H   0  0  0  0  0  0  0  0  0  0  0  0
    4.0900   -5.0568   -5.4013 H   0  0  0  0  0  0  0  0  0  0  0  0
    4.7501   -4.3978   -3.8662 H   0  0  0  0  0  0  0  0  0  0  0  0
    4.1077   -6.0744   -3.9213 H   0  0  0  0  0  0  0  0  0  0  0  0
  1  3  1  0  0  0  0
  1  7  1  0  0  0  0
  1  2  2  0  0  0  0
 28 29  1  0  0  0  0
 29 37  1  0  0  0  0
 29 30  2  0  0  0  0
 18 19  1  0  0  0  0
 19 27  1  0  0  0  0
 19 20  2  0  0  0  0
  8  9  1  0  0  0  0
  9 17  1  0  0  0  0
  9 10  2  0  0  0  0
 28 31  1  0  0  0  0
 18 21  1  0  0  0  0
  8 11  1  0  0  0  0
 37 38  1  0  0  0  0
 27 28  1  0  0  0  0
 17 18  1  0  0  0  0
  7  8  1  0  0  0  0
  3  4  1  0  0  0  0
  3  5  1  0  0  0  0
  3  6  1  0  0  0  0
 31 34  1  0  0  0  0
 31 35  1  0  0  0  0
 31 36  1  0  0  0  0
 21 24  1  0  0  0  0
 21 25  1  0  0  0  0
 21 26  1  0  0  0  0
 11 14  1  0  0  0  0
 11 15  1  0  0  0  0
 11 16  1  0  0  0  0
 38 40  1  0  0  0  0
 38 41  1  0  0  0  0
 38 42  1  0  0  0  0
 28 33  1  0  0  0  0
 18 23  1  0  0  0  0
  8 13  1  0  0  0  0
 37 39  1  0  0  0  0
  7 12  1  0  0  0  0
 27 32  1  0  0  0  0
 17 22  1  0  0  0  0
M  END
$$$$

  -OEChem-05262214473D

 42 41  0     1  0  0  0  0  0999 V2000
   -5.7851   -0.9580    0.6237 C   0  0  0  0  0  0  0  0  0  0  0  0
   -6.2213    0.1296    0.2652 O   0  0  0  0  0  0  0  0  0  0  0  0
   -6.7088   -2.1270    0.7168 C   0  0  0  0  0  0  0  0  0  0  0  0
   -7.1713   -2.2193    1.7126 H   0  0  0  0  0  0  0  0  0  0  0  0
   -7.5511   -2.0547    0.0101 H   0  0  0  0  0  0  0  0  0  0  0  0
   -6.2485   -3.1083    0.5191 H   0  0  0  0  0  0  0  0  0  0  0  0
   -4.4733   -1.2411    0.9668 N   0  0  0  0  0  0  0  0  0  0  0  0
   -3.4203   -0.2603    0.9449 C   0  0  2  0  0  0  0  0  0  0  0  0
   -2.1242   -0.9699    0.5759 C   0  0  0  0  0  0  0  0  0  0  0  0
   -1.8694   -2.1225    0.9189 O   0  0  0  0  0  0  0  0  0  0  0  0
   -3.2916    0.4435    2.2868 C   0  0  0  0  0  0  0  0  0  0  0  0
   -4.2421   -2.1920    1.2489 H   0  0  0  0  0  0  0  0  0  0  0  0
   -3.6772    0.4622    0.1625 H   0  0  0  0  0  0  0  0  0  0  0  0
   -3.0345   -0.2644    3.0832 H   0  0  0  0  0  0  0  0  0  0  0  0
   -2.5093    1.2092    2.2599 H   0  0  0  0  0  0  0  0  0  0  0  0
   -4.2338    0.9283    2.5645 H   0  0  0  0  0  0  0  0  0  0  0  0
   -1.2626   -0.1515   -0.1463 N   0  0  0  0  0  0  0  0  0  0  0  0
    0.0431   -0.5785   -0.5755 C   0  0  2  0  0  0  0  0  0  0  0  0
   -0.1323   -1.7918   -1.4792 C   0  0  0  0  0  0  0  0  0  0  0  0
   -1.1669   -2.4544   -1.5191 O   0  0  0  0  0  0  0  0  0  0  0  0
    0.9350   -0.9089    0.6111 C   0  0  0  0  0  0  0  0  0  0  0  0
   -1.5766    0.7776   -0.4197 H   0  0  0  0  0  0  0  0  0  0  0  0
    0.4725    0.2481   -1.1522 H   0  0  0  0  0  0  0  0  0  0  0  0
    0.5210   -1.7349    1.2009 H   0  0  0  0  0  0  0  0  0  0  0  0
    1.9368   -1.2061    0.2839 H   0  0  0  0  0  0  0  0  0  0  0  0
    1.0359   -0.0440    1.2756 H   0  0  0  0  0  0  0  0  0  0  0  0
    1.0177   -2.0772   -2.2071 N   0  0  0  0  0  0  0  0  0  0  0  0
    1.1171   -3.2010   -3.1007 C   0  0  2  0  0  0  0  0  0  0  0  0
    2.5592   -3.6901   -3.0827 C   0  0  0  0  0  0  0  0  0  0  0  0
    3.5215   -2.9368   -2.9498 O   0  0  0  0  0  0  0  0  0  0  0  0
    0.6878   -2.8264   -4.5107 C   0  0  0  0  0  0  0  0  0  0  0  0
    1.8147   -1.4473   -2.1392 H   0  0  0  0  0  0  0  0  0  0  0  0
    0.4609   -3.9819   -2.7010 H   0  0  0  0  0  0  0  0  0  0  0  0
    1.3336   -2.0452   -4.9279 H   0  0  0  0  0  0  0  0  0  0  0  0
    0.7367   -3.6895   -5.1828 H   0  0  0  0  0  0  0  0  0  0  0  0
   -0.3397   -2.4468   -4.5174 H   0  0  0  0  0  0  0  0  0  0  0  0
    2.6476   -5.0617   -3.2755 N   0  0  0  0  0  0  0  0  0  0  0  0
    3.9102   -5.7600   -3.3414 C   0  0  0  0  0  0  0  0  0  0  0  0
    1.7970   -5.6136   -3.3364 H   0  0  0  0  0  0  0  0  0  0  0  0
    4.2361   -5.8314   -4.3896 H   0  0  0  0  0  0  0  0  0  0  0  0
    4.6643   -5.2095   -2.7598 H   0  0  0  0  0  0  0  0  0  0  0  0
    3.7920   -6.7711   -2.9246 H   0  0  0  0  0  0  0  0  0  0  0  0
  1  3  1  0  0  0  0
  1  7  1  0  0  0  0
  1  2  2  0  0  0  0
 28 29  1  0  0  0  0
 29 37  1  0  0  0  0
 29 30  2  0  0  0  0
 18 19  1  0  0  0  0
 19 27  1  0  0  0  0
 19 20  2  0  0  0  0
  8  9  1  0  0  0  0
  9 17  1  0  0  0  0
  9 10  2  0  0  0  0
 28 31  1  0  0  0  0
 18 21  1  0  0  0  0
  8 11  1  0  0  0  0
 37 38  1  0  0  0  0
 27 28  1  0  0  0  0
 17 18  1  0  0  0  0
  7  8  1  0  0  0  0
  3  4  1  0  0  0  0
  3  5  1  0  0  0  0
  3  6  1  0  0  0  0
 31 34  1  0  0  0  0
 31 35  1  0  0  0  0
 31 36  1  0  0  0  0
 21 24  1  0  0  0  0
 21 25  1  0  0  0  0
 21 26  1  0  0  0  0
 11 14  1  0  0  0  0
 11 15  1  0  0  0  0
 11 16  1  0  0  0  0
 38 40  1  0  0  0  0
 38 41  1  0  0  0  0
 38 42  1  0  0  0  0
 28 33  1  0  0  0  0
 18 23  1  0  0  0  0
  8 13  1  0  0  0  0
 37 39  1  0  0  0  0
  7 12  1  0  0  0  0
 27 32  1  0  0  0  0
 17 22  1  0  0  0  0
M  END
$$$$

  -OEChem-05262214473D

 42 41  0     1  0  0  0  0  0999 V2000
   -5.7851   -0.9580    0.6237 C   0  0  0  0  0  0  0  0  0  0  0  0
   -6.2213    0.1296    0.2652 O   0  0  0  0  0  0  0  0  0  0  0  0
   -6.7088   -2.1270    0.7168 C   0  0  0  0  0  0  0  0  0  0  0  0
   -7.1713   -2.2193    1.7126 H   0  0  0  0  0  0  0  0  0  0  0  0
   -7.5511   -2.0547    0.0101 H   0  0  0  0  0  0  0  0  0  0  0  0
   -6.2485   -3.1083    0.5191 H   0  0  0  0  0  0  0  0  0  0  0  0
   -4.4733   -1.2411    0.9668 N   0  0  0  0  0  0  0  0  0  0  0  0
   -3.4203   -0.2603    0.9449 C   0  0  2  0  0  0  0  0  0  0  0  0
   -2.1242   -0.9699    0.5759 C   0  0  0  0  0  0  0  0  0  0  0  0
   -1.8694   -2.1225    0.9189 O   0  0  0  0  0  0  0  0  0  0  0  0
   -3.2916    0.4435    2.2868 C   0  0  0  0  0  0  0  0  0  0  0  0
   -4.2421   -2.1920    1.2489 H   0  0  0  0  0  0  0  0  0  0  0  0
   -3.6772    0.4622    0.1625 H   0  0  0  0  0  0  0  0  0  0  0  0
   -3.0345   -0.2644    3.0832 H   0  0  0  0  0  0  0  0  0  0  0  0
   -2.5093    1.2092    2.2599 H   0  0  0  0  0  0  0  0  0  0  0  0
   -4.2338    0.9283    2.5645 H   0  0  0  0  0  0  0  0  0  0  0  0
   -1.2626   -0.1515   -0.1463 N   0  0  0  0  0  0  0  0  0  0  0  0
    0.0431   -0.5785   -0.5755 C   0  0  2  0  0  0  0  0  0  0  0  0
   -0.1360   -1.5295   -1.7515 C   0  0  0  0  0  0  0  0  0  0  0  0
   -1.2378   -1.8630   -2.1827 O   0  0  0  0  0  0  0  0  0  0  0  0
    0.8051   -1.2507    0.5559 C   0  0  0  0  0  0  0  0  0  0  0  0
   -1.5766    0.7776   -0.4197 H   0  0  0  0  0  0  0  0  0  0  0  0
    0.5757    0.3190   -0.9087 H   0  0  0  0  0  0  0  0  0  0  0  0
    0.2867   -2.1519    0.9030 H   0  0  0  0  0  0  0  0  0  0  0  0
    1.8088   -1.5493    0.2359 H   0  0  0  0  0  0  0  0  0  0  0  0
    0.9071   -0.5754    1.4123 H   0  0  0  0  0  0  0  0  0  0  0  0
    1.0787   -1.9990   -2.2392 N   0  0  0  0  0  0  0  0  0  0  0  0
    1.1729   -2.9432   -3.3213 C   0  0  2  0  0  0  0  0  0  0  0  0
    2.4029   -3.8094   -3.0839 C   0  0  0  0  0  0  0  0  0  0  0  0
    3.4312   -3.3852   -2.5606 O   0  0  0  0  0  0  0  0  0  0  0  0
    1.2565   -2.2374   -4.6658 C   0  0  0  0  0  0  0  0  0  0  0  0
    1.9437   -1.6351   -1.8442 H   0  0  0  0  0  0  0  0  0  0  0  0
    0.2728   -3.5660   -3.2769 H   0  0  0  0  0  0  0  0  0  0  0  0
    2.1521   -1.6086   -4.7289 H   0  0  0  0  0  0  0  0  0  0  0  0
    1.2994   -2.9573   -5.4898 H   0  0  0  0  0  0  0  0  0  0  0  0
    0.3855   -1.5919   -4.8219 H   0  0  0  0  0  0  0  0  0  0  0  0
    2.2327   -5.1004   -3.5640 N   0  0  0  0  0  0  0  0  0  0  0  0
    3.2720   -6.1009   -3.4960 C   0  0  0  0  0  0  0  0  0  0  0  0
    1.3332   -5.3766   -3.9466 H   0  0  0  0  0  0  0  0  0  0  0  0
    3.8572   -6.0864   -4.4273 H   0  0  0  0  0  0  0  0  0  0  0  0
    3.9336   -5.8848   -2.6441 H   0  0  0  0  0  0  0  0  0  0  0  0
    2.8170   -7.0937   -3.3644 H   0  0  0  0  0  0  0  0  0  0  0  0
  1  3  1  0  0  0  0
  1  7  1  0  0  0  0
  1  2  2  0  0  0  0
 28 29  1  0  0  0  0
 29 37  1  0  0  0  0
 29 30  2  0  0  0  0
 18 19  1  0  0  0  0
 19 27  1  0  0  0  0
 19 20  2  0  0  0  0
  8  9  1  0  0  0  0
  9 17  1  0  0  0  0
  9 10  2  0  0  0  0
 28 31  1  0  0  0  0
 18 21  1  0  0  0  0
  8 11  1  0  0  0  0
 37 38  1  0  0  0  0
 27 28  1  0  0  0  0
 17 18  1  0  0  0  0
  7  8  1  0  0  0  0
  3  4  1  0  0  0  0
  3  5  1  0  0  0  0
  3  6  1  0  0  0  0
 31 34  1  0  0  0  0
 31 35  1  0  0  0  0
 31 36  1  0  0  0  0
 21 24  1  0  0  0  0
 21 25  1  0  0  0  0
 21 26  1  0  0  0  0
 11 14  1  0  0  0  0
 11 15  1  0  0  0  0
 11 16  1  0  0  0  0
 38 40  1  0  0  0  0
 38 41  1  0  0  0  0
 38 42  1  0  0  0  0
 28 33  1  0  0  0  0
 18 23  1  0  0  0  0
  8 13  1  0  0  0  0
 37 39  1  0  0  0  0
  7 12  1  0  0  0  0
 27 32  1  0  0  0  0
 17 22  1  0  0  0  0
M  END
$$$$

  -OEChem-05262214473D

 42 41  0     1  0  0  0  0  0999 V2000
   -5.7851   -0.9580    0.6237 C   0  0  0  0  0  0  0  0  0  0  0  0
   -6.2213    0.1296    0.2652 O   0  0  0  0  0  0  0  0  0  0  0  0
   -6.7088   -2.1270    0.7168 C   0  0  0  0  0  0  0  0  0  0  0  0
   -7.1713   -2.2193    1.7126 H   0  0  0  0  0  0  0  0  0  0  0  0
   -7.5511   -2.0547    0.0101 H   0  0  0  0  0  0  0  0  0  0  0  0
   -6.2485   -3.1083    0.5191 H   0  0  0  0  0  0  0  0  0  0  0  0
   -4.4733   -1.2411    0.9668 N   0  0  0  0  0  0  0  0  0  0  0  0
   -3.4203   -0.2603    0.9449 C   0  0  2  0  0  0  0  0  0  0  0  0
   -2.1242   -0.9699    0.5759 C   0  0  0  0  0  0  0  0  0  0  0  0
   -1.8694   -2.1225    0.9189 O   0  0  0  0  0  0  0  0  0  0  0  0
   -3.2916    0.4435    2.2868 C   0  0  0  0  0  0  0  0  0  0  0  0
   -4.2421   -2.1920    1.2489 H   0  0  0  0  0  0  0  0  0  0  0  0
   -3.6772    0.4622    0.1625 H   0  0  0  0  0  0  0  0  0  0  0  0
   -3.0345   -0.2644    3.0832 H   0  0  0  0  0  0  0  0  0  0  0  0
   -2.5093    1.2092    2.2599 H   0  0  0  0  0  0  0  0  0  0  0  0
   -4.2338    0.9283    2.5645 H   0  0  0  0  0  0  0  0  0  0  0  0
   -1.2626   -0.1515   -0.1463 N   0  0  0  0  0  0  0  0  0  0  0  0
    0.0431   -0.5785   -0.5755 C   0  0  2  0  0  0  0  0  0  0  0  0
   -0.1360   -1.5295   -1.7515 C   0  0  0  0  0  0  0  0  0  0  0  0
   -1.1999   -1.6588   -2.3536 O   0  0  0  0  0  0  0  0  0  0  0  0
    0.8051   -1.2507    0.5559 C   0  0  0  0  0  0  0  0  0  0  0  0
   -1.5766    0.7776   -0.4197 H   0  0  0  0  0  0  0  0  0  0  0  0
    0.5757    0.3190   -0.9087 H   0  0  0  0  0  0  0  0  0  0  0  0
    0.2867   -2.1519    0.9030 H   0  0  0  0  0  0  0  0  0  0  0  0
    1.8088   -1.5493    0.2359 H   0  0  0  0  0  0  0  0  0  0  0  0
    0.9071   -0.5754    1.4123 H   0  0  0  0  0  0  0  0  0  0  0  0
    1.0202   -2.2518   -2.0258 N   0  0  0  0  0  0  0  0  0  0  0  0
    1.0917   -3.2457   -3.0643 C   0  0  2  0  0  0  0  0  0  0  0  0
    2.0674   -4.3255   -2.6154 C   0  0  0  0  0  0  0  0  0  0  0  0
    3.0641   -4.0886   -1.9359 O   0  0  0  0  0  0  0  0  0  0  0  0
    1.5284   -2.6341   -4.3864 C   0  0  0  0  0  0  0  0  0  0  0  0
    1.8671   -2.0477   -1.4989 H   0  0  0  0  0  0  0  0  0  0  0  0
    0.0888   -3.6758   -3.1601 H   0  0  0  0  0  0  0  0  0  0  0  0
    2.5312   -2.1981   -4.3100 H   0  0  0  0  0  0  0  0  0  0  0  0
    1.5548   -3.3861   -5.1819 H   0  0  0  0  0  0  0  0  0  0  0  0
    0.8420   -1.8374   -4.6929 H   0  0  0  0  0  0  0  0  0  0  0  0
    1.7178   -5.5785   -3.0989 N   0  0  0  0  0  0  0  0  0  0  0  0
    2.5090   -6.7602   -2.8466 C   0  0  0  0  0  0  0  0  0  0  0  0
    0.8533   -5.6895   -3.6205 H   0  0  0  0  0  0  0  0  0  0  0  0
    3.2250   -6.9052   -3.6689 H   0  0  0  0  0  0  0  0  0  0  0  0
    3.0570   -6.6393   -1.9005 H   0  0  0  0  0  0  0  0  0  0  0  0
    1.8475   -7.6364   -2.7778 H   0  0  0  0  0  0  0  0  0  0  0  0
  1  3  1  0  0  0  0
  1  7  1  0  0  0  0
  1  2  2  0  0  0  0
 28 29  1  0  0  0  0
 29 37  1  0  0  0  0
 29 30  2  0  0  0  0
 18 19  1  0  0  0  0
 19 27  1  0  0  0  0
 19 20  2  0  0  0  0
  8  9  1  0  0  0  0
  9 17  1  0  0  0  0
  9 10  2  0  0  0  0
 28 31  1  0  0  0  0
 18 21  1  0  0  0  0
  8 11  1  0  0  0  0
 37 38  1  0  0  0  0
 27 28  1  0  0  0  0
 17 18  1  0  0  0  0
  7  8  1  0  0  0  0
  3  4  1  0  0  0  0
  3  5  1  0  0  0  0
  3  6  1  0  0  0  0
 31 34  1  0  0  0  0
 31 35  1  0  0  0  0
 31 36  1  0  0  0  0
 21 24  1  0  0  0  0
 21 25  1  0  0  0  0
 21 26  1  0  0  0  0
 11 14  1  0  0  0  0
 11 15  1  0  0  0  0
 11 16  1  0  0  0  0
 38 40  1  0  0  0  0
 38 41  1  0  0  0  0
 38 42  1  0  0  0  0
 28 33  1  0  0  0  0
 18 23  1  0  0  0  0
  8 13  1  0  0  0  0
 37 39  1  0  0  0  0
  7 12  1  0  0  0  0
 27 32  1  0  0  0  0
 17 22  1  0  0  0  0
M  END
$$$$

  -OEChem-05262214473D

 42 41  0     1  0  0  0  0  0999 V2000
   -5.7851   -0.9580    0.6237 C   0  0  0  0  0  0  0  0  0  0  0  0
   -6.2213    0.1296    0.2652 O   0  0  0  0  0  0  0  0  0  0  0  0
   -6.7088   -2.1270    0.7168 C   0  0  0  0  0  0  0  0  0  0  0  0
   -7.1713   -2.2193    1.7126 H   0  0  0  0  0  0  0  0  0  0  0  0
   -7.5511   -2.0547    0.0101 H   0  0  0  0  0  0  0  0  0  0  0  0
   -6.2485   -3.1083    0.5191 H   0  0  0  0  0  0  0  0  0  0  0  0
   -4.4733   -1.2411    0.9668 N   0  0  0  0  0  0  0  0  0  0  0  0
   -3.4203   -0.2603    0.9449 C   0  0  2  0  0  0  0  0  0  0  0  0
   -2.1242   -0.9699    0.5759 C   0  0  0  0  0  0  0  0  0  0  0  0
   -1.8694   -2.1225    0.9189 O   0  0  0  0  0  0  0  0  0  0  0  0
   -3.2916    0.4435    2.2868 C   0  0  0  0  0  0  0  0  0  0  0  0
   -4.2421   -2.1920    1.2489 H   0  0  0  0  0  0  0  0  0  0  0  0
   -3.6772    0.4622    0.1625 H   0  0  0  0  0  0  0  0  0  0  0  0
   -3.0345   -0.2644    3.0832 H   0  0  0  0  0  0  0  0  0  0  0  0
   -2.5093    1.2092    2.2599 H   0  0  0  0  0  0  0  0  0  0  0  0
   -4.2338    0.9283    2.5645 H   0  0  0  0  0  0  0  0  0  0  0  0
   -1.2626   -0.1515   -0.1463 N   0  0  0  0  0  0  0  0  0  0  0  0
    0.0431   -0.5785   -0.5755 C   0  0  2  0  0  0  0  0  0  0  0  0
   -0.1360   -1.5295   -1.7515 C   0  0  0  0  0  0  0  0  0  0  0  0
   -1.0949   -1.4744   -2.5187 O   0  0  0  0  0  0  0  0  0  0  0  0
    0.8051   -1.2507    0.5559 C   0  0  0  0  0  0  0  0  0  0  0  0
   -1.5766    0.7776   -0.4197 H   0  0  0  0  0  0  0  0  0  0  0  0
    0.5757    0.3190   -0.9087 H   0  0  0  0  0  0  0  0  0  0  0  0
    0.2867   -2.1519    0.9030 H   0  0  0  0  0  0  0  0  0  0  0  0
    1.8088   -1.5493    0.2359 H   0  0  0  0  0  0  0  0  0  0  0  0
    0.9071   -0.5754    1.4123 H   0  0  0  0  0  0  0  0  0  0  0  0
    0.8786   -2.4778   -1.8215 N   0  0  0  0  0  0  0  0  0  0  0  0
    0.9113   -3.5138   -2.8200 C   0  0  2  0  0  0  0  0  0  0  0  0
    1.5646   -4.7427   -2.2014 C   0  0  0  0  0  0  0  0  0  0  0  0
    2.4679   -4.6755   -1.3705 O   0  0  0  0  0  0  0  0  0  0  0  0
    1.6667   -3.0631   -4.0605 C   0  0  0  0  0  0  0  0  0  0  0  0
    1.6549   -2.4204   -1.1652 H   0  0  0  0  0  0  0  0  0  0  0  0
   -0.1298   -3.7416   -3.0736 H   0  0  0  0  0  0  0  0  0  0  0  0
    2.7118   -2.8304   -3.8261 H   0  0  0  0  0  0  0  0  0  0  0  0
    1.6661   -3.8420   -4.8302 H   0  0  0  0  0  0  0  0  0  0  0  0
    1.2131   -2.1619   -4.4870 H   0  0  0  0  0  0  0  0  0  0  0  0
    1.0498   -5.9234   -2.7183 N   0  0  0  0  0  0  0  0  0  0  0  0
    1.5353   -7.2248   -2.3226 C   0  0  0  0  0  0  0  0  0  0  0  0
    0.2745   -5.8858   -3.3736 H   0  0  0  0  0  0  0  0  0  0  0  0
    2.3283   -7.5466   -3.0136 H   0  0  0  0  0  0  0  0  0  0  0  0
    1.9393   -7.1702   -1.3009 H   0  0  0  0  0  0  0  0  0  0  0  0
    0.7078   -7.9490   -2.3514 H   0  0  0  0  0  0  0  0  0  0  0  0
  1  3  1  0  0  0  0
  1  7  1  0  0  0  0
  1  2  2  0  0  0  0
 28 29  1  0  0  0  0
 29 37  1  0  0  0  0
 29 30  2  0  0  0  0
 18 19  1  0  0  0  0
 19 27  1  0  0  0  0
 19 20  2  0  0  0  0
  8  9  1  0  0  0  0
  9 17  1  0  0  0  0
  9 10  2  0  0  0  0
 28 31  1  0  0  0  0
 18 21  1  0  0  0  0
  8 11  1  0  0  0  0
 37 38  1  0  0  0  0
 27 28  1  0  0  0  0
 17 18  1  0  0  0  0
  7  8  1  0  0  0  0
  3  4  1  0  0  0  0
  3  5  1  0  0  0  0
  3  6  1  0  0  0  0
 31 34  1  0  0  0  0
 31 35  1  0  0  0  0
 31 36  1  0  0  0  0
 21 24  1  0  0  0  0
 21 25  1  0  0  0  0
 21 26  1  0  0  0  0
 11 14  1  0  0  0  0
 11 15  1  0  0  0  0
 11 16  1  0  0  0  0
 38 40  1  0  0  0  0
 38 41  1  0  0  0  0
 38 42  1  0  0  0  0
 28 33  1  0  0  0  0
 18 23  1  0  0  0  0
  8 13  1  0  0  0  0
 37 39  1  0  0  0  0
  7 12  1  0  0  0  0
 27 32  1  0  0  0  0
 17 22  1  0  0  0  0
M  END
$$$$

  -OEChem-05262214473D

 42 41  0     1  0  0  0  0  0999 V2000
   -5.7851   -0.9580    0.6237 C   0  0  0  0  0  0  0  0  0  0  0  0
   -6.2213    0.1296    0.2652 O   0  0  0  0  0  0  0  0  0  0  0  0
   -6.7088   -2.1270    0.7168 C   0  0  0  0  0  0  0  0  0  0  0  0
   -7.1713   -2.2193    1.7126 H   0  0  0  0  0  0  0  0  0  0  0  0
   -7.5511   -2.0547    0.0101 H   0  0  0  0  0  0  0  0  0  0  0  0
   -6.2485   -3.1083    0.5191 H   0  0  0  0  0  0  0  0  0  0  0  0
   -4.4733   -1.2411    0.9668 N   0  0  0  0  0  0  0  0  0  0  0  0
   -3.4203   -0.2603    0.9449 C   0  0  2  0  0  0  0  0  0  0  0  0
   -2.1242   -0.9699    0.5759 C   0  0  0  0  0  0  0  0  0  0  0  0
   -1.8694   -2.1225    0.9189 O   0  0  0  0  0  0  0  0  0  0  0  0
   -3.2916    0.4435    2.2868 C   0  0  0  0  0  0  0  0  0  0  0  0
   -4.2421   -2.1920    1.2489 H   0  0  0  0  0  0  0  0  0  0  0  0
   -3.6772    0.4622    0.1625 H   0  0  0  0  0  0  0  0  0  0  0  0
   -3.0345   -0.2644    3.0832 H   0  0  0  0  0  0  0  0  0  0  0  0
   -2.5093    1.2092    2.2599 H   0  0  0  0  0  0  0  0  0  0  0  0
   -4.2338    0.9283    2.5645 H   0  0  0  0  0  0  0  0  0  0  0  0
   -1.2626   -0.1515   -0.1463 N   0  0  0  0  0  0  0  0  0  0  0  0
    0.0431   -0.5785   -0.5755 C   0  0  2  0  0  0  0  0  0  0  0  0
   -0.1360   -1.5295   -1.7515 C   0  0  0  0  0  0  0  0  0  0  0  0
   -0.9299   -1.3222   -2.6669 O   0  0  0  0  0  0  0  0  0  0  0  0
    0.8051   -1.2507    0.5559 C   0  0  0  0  0  0  0  0  0  0  0  0
   -1.5766    0.7776   -0.4197 H   0  0  0  0  0  0  0  0  0  0  0  0
    0.5757    0.3190   -0.9087 H   0  0  0  0  0  0  0  0  0  0  0  0
    0.2867   -2.1519    0.9030 H   0  0  0  0  0  0  0  0  0  0  0  0
    1.8088   -1.5493    0.2359 H   0  0  0  0  0  0  0  0  0  0  0  0
    0.9071   -0.5754    1.4123 H   0  0  0  0  0  0  0  0  0  0  0  0
    0.6637   -2.6616   -1.6401 N   0  0  0  0  0  0  0  0  0  0  0  0
    0.6439   -3.7294   -2.6050 C   0  0  2  0  0  0  0  0  0  0  0  0
    0.9285   -5.0326   -1.8701 C   0  0  0  0  0  0  0  0  0  0  0  0
    1.6834   -5.1062   -0.9027 O   0  0  0  0  0  0  0  0  0  0  0  0
    1.6618   -3.4952   -3.7103 C   0  0  0  0  0  0  0  0  0  0  0  0
    1.3215   -2.7278   -0.8658 H   0  0  0  0  0  0  0  0  0  0  0  0
   -0.3680   -3.7588   -3.0234 H   0  0  0  0  0  0  0  0  0  0  0  0
    2.6817   -3.4627   -3.3102 H   0  0  0  0  0  0  0  0  0  0  0  0
    1.6256   -4.2939   -4.4586 H   0  0  0  0  0  0  0  0  0  0  0  0
    1.4735   -2.5432   -4.2183 H   0  0  0  0  0  0  0  0  0  0  0  0
    0.2740   -6.1114   -2.4481 N   0  0  0  0  0  0  0  0  0  0  0  0
    0.4171   -7.4630   -1.9596 C   0  0  0  0  0  0  0  0  0  0  0  0
   -0.3637   -5.9523   -3.2226 H   0  0  0  0  0  0  0  0  0  0  0  0
    1.2279   -7.9670   -2.5061 H   0  0  0  0  0  0  0  0  0  0  0  0
    0.6567   -7.4414   -0.8863 H   0  0  0  0  0  0  0  0  0  0  0  0
   -0.5245   -8.0102   -2.1142 H   0  0  0  0  0  0  0  0  0  0  0  0
  1  3  1  0  0  0  0
  1  7  1  0  0  0  0
  1  2  2  0  0  0  0
 28 29  1  0  0  0  0
 29 37  1  0  0  0  0
 29 30  2  0  0  0  0
 18 19  1  0  0  0  0
 19 27  1  0  0  0  0
 19 20  2  0  0  0  0
  8  9  1  0  0  0  0
  9 17  1  0  0  0  0
  9 10  2  0  0  0  0
 28 31  1  0  0  0  0
 18 21  1  0  0  0  0
  8 11  1  0  0  0  0
 37 38  1  0  0  0  0
 27 28  1  0  0  0  0
 17 18  1  0  0  0  0
  7  8  1  0  0  0  0
  3  4  1  0  0  0  0
  3  5  1  0  0  0  0
  3  6  1  0  0  0  0
 31 34  1  0  0  0  0
 31 35  1  0  0  0  0
 31 36  1  0  0  0  0
 21 24  1  0  0  0  0
 21 25  1  0  0  0  0
 21 26  1  0  0  0  0
 11 14  1  0  0  0  0
 11 15  1  0  0  0  0
 11 16  1  0  0  0  0
 38 40  1  0  0  0  0
 38 41  1  0  0  0  0
 38 42  1  0  0  0  0
 28 33  1  0  0  0  0
 18 23  1  0  0  0  0
  8 13  1  0  0  0  0
 37 39  1  0  0  0  0
  7 12  1  0  0  0  0
 27 32  1  0  0  0  0
 17 22  1  0  0  0  0
M  END
$$$$

  -OEChem-05262214473D

 42 41  0     1  0  0  0  0  0999 V2000
   -5.7851   -0.9580    0.6237 C   0  0  0  0  0  0  0  0  0  0  0  0
   -6.2213    0.1296    0.2652 O   0  0  0  0  0  0  0  0  0  0  0  0
   -6.7088   -2.1270    0.7168 C   0  0  0  0  0  0  0  0  0  0  0  0
   -7.1713   -2.2193    1.7126 H   0  0  0  0  0  0  0  0  0  0  0  0
   -7.5511   -2.0547    0.0101 H   0  0  0  0  0  0  0  0  0  0  0  0
   -6.2485   -3.1083    0.5191 H   0  0  0  0  0  0  0  0  0  0  0  0
   -4.4733   -1.2411    0.9668 N   0  0  0  0  0  0  0  0  0  0  0  0
   -3.4203   -0.2603    0.9449 C   0  0  2  0  0  0  0  0  0  0  0  0
   -2.1242   -0.9699    0.5759 C   0  0  0  0  0  0  0  0  0  0  0  0
   -1.8694   -2.1225    0.9189 O   0  0  0  0  0  0  0  0  0  0  0  0
   -3.2916    0.4435    2.2868 C   0  0  0  0  0  0  0  0  0  0  0  0
   -4.2421   -2.1920    1.2489 H   0  0  0  0  0  0  0  0  0  0  0  0
   -3.6772    0.4622    0.1625 H   0  0  0  0  0  0  0  0  0  0  0  0
   -3.0345   -0.2644    3.0832 H   0  0  0  0  0  0  0  0  0  0  0  0
   -2.5093    1.2092    2.2599 H   0  0  0  0  0  0  0  0  0  0  0  0
   -4.2338    0.9283    2.5645 H   0  0  0  0  0  0  0  0  0  0  0  0
   -1.2626   -0.1515   -0.1463 N   0  0  0  0  0  0  0  0  0  0  0  0
    0.0431   -0.5785   -0.5755 C   0  0  2  0  0  0  0  0  0  0  0  0
   -0.1360   -1.5295   -1.7515 C   0  0  0  0  0  0  0  0  0  0  0  0
   -0.7162   -1.2128   -2.7879 O   0  0  0  0  0  0  0  0  0  0  0  0
    0.8051   -1.2507    0.5559 C   0  0  0  0  0  0  0  0  0  0  0  0
   -1.5766    0.7776   -0.4197 H   0  0  0  0  0  0  0  0  0  0  0  0
    0.5757    0.3190   -0.9087 H   0  0  0  0  0  0  0  0  0  0  0  0
    0.2867   -2.1519    0.9030 H   0  0  0  0  0  0  0  0  0  0  0  0
    1.8088   -1.5493    0.2359 H   0  0  0  0  0  0  0  0  0  0  0  0
    0.9071   -0.5754    1.4123 H   0  0  0  0  0  0  0  0  0  0  0  0
    0.3901   -2.7907   -1.4941 N   0  0  0  0  0  0  0  0  0  0  0  0
    0.3079   -3.8776   -2.4339 C   0  0  2  0  0  0  0  0  0  0  0  0
    0.2027   -5.1754   -1.6440 C   0  0  0  0  0  0  0  0  0  0  0  0
    0.7640   -5.3511   -0.5646 O   0  0  0  0  0  0  0  0  0  0  0  0
    1.5141   -3.9010   -3.3597 C   0  0  0  0  0  0  0  0  0  0  0  0
    0.8896   -2.9490   -0.6211 H   0  0  0  0  0  0  0  0  0  0  0  0
   -0.6097   -3.7263   -3.0128 H   0  0  0  0  0  0  0  0  0  0  0  0
    2.4430   -4.0516   -2.7976 H   0  0  0  0  0  0  0  0  0  0  0  0
    1.4362   -4.7109   -4.0925 H   0  0  0  0  0  0  0  0  0  0  0  0
    1.6053   -2.9554   -3.9050 H   0  0  0  0  0  0  0  0  0  0  0  0
   -0.5565   -6.1297   -2.3068 N   0  0  0  0  0  0  0  0  0  0  0  0
   -0.7691   -7.4585   -1.7825 C   0  0  0  0  0  0  0  0  0  0  0  0
   -1.0178   -5.8844   -3.1779 H   0  0  0  0  0  0  0  0  0  0  0  0
   -0.0009   -8.1377   -2.1808 H   0  0  0  0  0  0  0  0  0  0  0  0
   -0.7034   -7.4343   -0.6847 H   0  0  0  0  0  0  0  0  0  0  0  0
   -1.7653   -7.8158   -2.0824 H   0  0  0  0  0  0  0  0  0  0  0  0
  1  3  1  0  0  0  0
  1  7  1  0  0  0  0
  1  2  2  0  0  0  0
 28 29  1  0  0  0  0
 29 37  1  0  0  0  0
 29 30  2  0  0  0  0
 18 19  1  0  0  0  0
 19 27  1  0  0  0  0
 19 20  2  0  0  0  0
  8  9  1  0  0  0  0
  9 17  1  0  0  0  0
  9 10  2  0  0  0  0
 28 31  1  0  0  0  0
 18 21  1  0  0  0  0
  8 11  1  0  0  0  0
 37 38  1  0  0  0  0
 27 28  1  0  0  0  0
 17 18  1  0  0  0  0
  7  8  1  0  0  0  0
  3  4  1  0  0  0  0
  3  5  1  0  0  0  0
  3  6  1  0  0  0  0
 31 34  1  0  0  0  0
 31 35  1  0  0  0  0
 31 36  1  0  0  0  0
 21 24  1  0  0  0  0
 21 25  1  0  0  0  0
 21 26  1  0  0  0  0
 11 14  1  0  0  0  0
 11 15  1  0  0  0  0
 11 16  1  0  0  0  0
 38 40  1  0  0  0  0
 38 41  1  0  0  0  0
 38 42  1  0  0  0  0
 28 33  1  0  0  0  0
 18 23  1  0  0  0  0
  8 13  1  0  0  0  0
 37 39  1  0  0  0  0
  7 12  1  0  0  0  0
 27 32  1  0  0  0  0
 17 22  1  0  0  0  0
M  END
$$$$

  -OEChem-05262214473D

 42 41  0     1  0  0  0  0  0999 V2000
   -5.7851   -0.9580    0.6237 C   0  0  0  0  0  0  0  0  0  0  0  0
   -6.2213    0.1296    0.2652 O   0  0  0  0  0  0  0  0  0  0  0  0
   -6.7088   -2.1270    0.7168 C   0  0  0  0  0  0  0  0  0  0  0  0
   -7.1713   -2.2193    1.7126 H   0  0  0  0  0  0  0  0  0  0  0  0
   -7.5511   -2.0547    0.0101 H   0  0  0  0  0  0  0  0  0  0  0  0
   -6.2485   -3.1083    0.5191 H   0  0  0  0  0  0  0  0  0  0  0  0
   -4.4733   -1.2411    0.9668 N   0  0  0  0  0  0  0  0  0  0  0  0
   -3.4203   -0.2603    0.9449 C   0  0  2  0  0  0  0  0  0  0  0  0
   -2.1242   -0.9699    0.5759 C   0  0  0  0  0  0  0  0  0  0  0  0
   -1.8694   -2.1225    0.9189 O   0  0  0  0  0  0  0  0  0  0  0  0
   -3.2916    0.4435    2.2868 C   0  0  0  0  0  0  0  0  0  0  0  0
   -4.2421   -2.1920    1.2489 H   0  0  0  0  0  0  0  0  0  0  0  0
   -3.6772    0.4622    0.1625 H   0  0  0  0  0  0  0  0  0  0  0  0
   -3.0345   -0.2644    3.0832 H   0  0  0  0  0  0  0  0  0  0  0  0
   -2.5093    1.2092    2.2599 H   0  0  0  0  0  0  0  0  0  0  0  0
   -4.2338    0.9283    2.5645 H   0  0  0  0  0  0  0  0  0  0  0  0
   -1.2626   -0.1515   -0.1463 N   0  0  0  0  0  0  0  0  0  0  0  0
    0.0431   -0.5785   -0.5755 C   0  0  2  0  0  0  0  0  0  0  0  0
   -0.1360   -1.5295   -1.7515 C   0  0  0  0  0  0  0  0  0  0  0  0
   -0.4683   -1.1534   -2.8737 O   0  0  0  0  0  0  0  0  0  0  0  0
    0.8051   -1.2507    0.5559 C   0  0  0  0  0  0  0  0  0  0  0  0
   -1.5766    0.7776   -0.4197 H   0  0  0  0  0  0  0  0  0  0  0  0
    0.5757    0.3190   -0.9087 H   0  0  0  0  0  0  0  0  0  0  0  0
    0.2867   -2.1519    0.9030 H   0  0  0  0  0  0  0  0  0  0  0  0
    1.8088   -1.5493    0.2359 H   0  0  0  0  0  0  0  0  0  0  0  0
    0.9071   -0.5754    1.4123 H   0  0  0  0  0  0  0  0  0  0  0  0
    0.0764   -2.8562   -1.3933 N   0  0  0  0  0  0  0  0  0  0  0  0
   -0.0740   -3.9483   -2.3185 C   0  0  2  0  0  0  0  0  0  0  0  0
   -0.5635   -5.1614   -1.5386 C   0  0  0  0  0  0  0  0  0  0  0  0
   -0.2278   -5.3936   -0.3791 O   0  0  0  0  0  0  0  0  0  0  0  0
    1.2337   -4.2527   -3.0326 C   0  0  0  0  0  0  0  0  0  0  0  0
    0.3887   -3.0690   -0.4478 H   0  0  0  0  0  0  0  0  0  0  0  0
   -0.8384   -3.6463   -3.0427 H   0  0  0  0  0  0  0  0  0  0  0  0
    2.0118   -4.5572   -2.3231 H   0  0  0  0  0  0  0  0  0  0  0  0
    1.1107   -5.0648   -3.7567 H   0  0  0  0  0  0  0  0  0  0  0  0
    1.5996   -3.3703   -3.5686 H   0  0  0  0  0  0  0  0  0  0  0  0
   -1.3852   -5.9771   -2.3039 N   0  0  0  0  0  0  0  0  0  0  0  0
   -1.9427   -7.2118   -1.8033 C   0  0  0  0  0  0  0  0  0  0  0  0
   -1.6433   -5.6867   -3.2425 H   0  0  0  0  0  0  0  0  0  0  0  0
   -1.2746   -8.0471   -2.0601 H   0  0  0  0  0  0  0  0  0  0  0  0
   -2.0483   -7.1496   -0.7101 H   0  0  0  0  0  0  0  0  0  0  0  0
   -2.9302   -7.3791   -2.2581 H   0  0  0  0  0  0  0  0  0  0  0  0
  1  3  1  0  0  0  0
  1  7  1  0  0  0  0
  1  2  2  0  0  0  0
 28 29  1  0  0  0  0
 29 37  1  0  0  0  0
 29 30  2  0  0  0  0
 18 19  1  0  0  0  0
 19 27  1  0  0  0  0
 19 20  2  0  0  0  0
  8  9  1  0  0  0  0
  9 17  1  0  0  0  0
  9 10  2  0  0  0  0
 28 31  1  0  0  0  0
 18 21  1  0  0  0  0
  8 11  1  0  0  0  0
 37 38  1  0  0  0  0
 27 28  1  0  0  0  0
 17 18  1  0  0  0  0
  7  8  1  0  0  0  0
  3  4  1  0  0  0  0
  3  5  1  0  0  0  0
  3  6  1  0  0  0  0
 31 34  1  0  0  0  0
 31 35  1  0  0  0  0
 31 36  1  0  0  0  0
 21 24  1  0  0  0  0
 21 25  1  0  0  0  0
 21 26  1  0  0  0  0
 11 14  1  0  0  0  0
 11 15  1  0  0  0  0
 11 16  1  0  0  0  0
 38 40  1  0  0  0  0
 38 41  1  0  0  0  0
 38 42  1  0  0  0  0
 28 33  1  0  0  0  0
 18 23  1  0  0  0  0
  8 13  1  0  0  0  0
 37 39  1  0  0  0  0
  7 12  1  0  0  0  0
 27 32  1  0  0  0  0
 17 22  1  0  0  0  0
M  END
$$$$

  -OEChem-05262214473D

 42 41  0     1  0  0  0  0  0999 V2000
   -5.7851   -0.9580    0.6237 C   0  0  0  0  0  0  0  0  0  0  0  0
   -6.2213    0.1296    0.2652 O   0  0  0  0  0  0  0  0  0  0  0  0
   -6.7088   -2.1270    0.7168 C   0  0  0  0  0  0  0  0  0  0  0  0
   -7.1713   -2.2193    1.7126 H   0  0  0  0  0  0  0  0  0  0  0  0
   -7.5511   -2.0547    0.0101 H   0  0  0  0  0  0  0  0  0  0  0  0
   -6.2485   -3.1083    0.5191 H   0  0  0  0  0  0  0  0  0  0  0  0
   -4.4733   -1.2411    0.9668 N   0  0  0  0  0  0  0  0  0  0  0  0
   -3.4203   -0.2603    0.9449 C   0  0  2  0  0  0  0  0  0  0  0  0
   -2.1242   -0.9699    0.5759 C   0  0  0  0  0  0  0  0  0  0  0  0
   -1.8694   -2.1225    0.9189 O   0  0  0  0  0  0  0  0  0  0  0  0
   -3.2916    0.4435    2.2868 C   0  0  0  0  0  0  0  0  0  0  0  0
   -4.2421   -2.1920    1.2489 H   0  0  0  0  0  0  0  0  0  0  0  0
   -3.6772    0.4622    0.1625 H   0  0  0  0  0  0  0  0  0  0  0  0
   -3.0345   -0.2644    3.0832 H   0  0  0  0  0  0  0  0  0  0  0  0
   -2.5093    1.2092    2.2599 H   0  0  0  0  0  0  0  0  0  0  0  0
   -4.2338    0.9283    2.5645 H   0  0  0  0  0  0  0  0  0  0  0  0
   -1.2626   -0.1515   -0.1463 N   0  0  0  0  0  0  0  0  0  0  0  0
    0.0431   -0.5785   -0.5755 C   0  0  2  0  0  0  0  0  0  0  0  0
   -0.1360   -1.5295   -1.7515 C   0  0  0  0  0  0  0  0  0  0  0  0
   -0.2032   -1.1483   -2.9183 O   0  0  0  0  0  0  0  0  0  0  0  0
    0.8051   -1.2507    0.5559 C   0  0  0  0  0  0  0  0  0  0  0  0
   -1.5766    0.7776   -0.4197 H   0  0  0  0  0  0  0  0  0  0  0  0
    0.5757    0.3190   -0.9087 H   0  0  0  0  0  0  0  0  0  0  0  0
    0.2867   -2.1519    0.9030 H   0  0  0  0  0  0  0  0  0  0  0  0
    1.8088   -1.5493    0.2359 H   0  0  0  0  0  0  0  0  0  0  0  0
    0.9071   -0.5754    1.4123 H   0  0  0  0  0  0  0  0  0  0  0  0
   -0.2560   -2.8538   -1.3446 N   0  0  0  0  0  0  0  0  0  0  0  0
   -0.4757   -3.9369   -2.2666 C   0  0  2  0  0  0  0  0  0  0  0  0
   -1.3179   -4.9916   -1.5611 C   0  0  0  0  0  0  0  0  0  0  0  0
   -1.2242   -5.2309   -0.3590 O   0  0  0  0  0  0  0  0  0  0  0  0
    0.8397   -4.5265   -2.7512 C   0  0  0  0  0  0  0  0  0  0  0  0
   -0.1471   -3.0794   -0.3578 H   0  0  0  0  0  0  0  0  0  0  0  0
   -1.0385   -3.5242   -3.1110 H   0  0  0  0  0  0  0  0  0  0  0  0
    1.4175   -4.9449   -1.9190 H   0  0  0  0  0  0  0  0  0  0  0  0
    0.6713   -5.3313   -3.4743 H   0  0  0  0  0  0  0  0  0  0  0  0
    1.4568   -3.7598   -3.2319 H   0  0  0  0  0  0  0  0  0  0  0  0
   -2.1556   -5.6640   -2.4398 N   0  0  0  0  0  0  0  0  0  0  0  0
   -3.0236   -6.7396   -2.0205 C   0  0  0  0  0  0  0  0  0  0  0  0
   -2.1976   -5.3727   -3.4120 H   0  0  0  0  0  0  0  0  0  0  0  0
   -2.5063   -7.7014   -2.1520 H   0  0  0  0  0  0  0  0  0  0  0  0
   -3.2864   -6.6066   -0.9607 H   0  0  0  0  0  0  0  0  0  0  0  0
   -3.9397   -6.7298   -2.6294 H   0  0  0  0  0  0  0  0  0  0  0  0
  1  3  1  0  0  0  0
  1  7  1  0  0  0  0
  1  2  2  0  0  0  0
 28 29  1  0  0  0  0
 29 37  1  0  0  0  0
 29 30  2  0  0  0  0
 18 19  1  0  0  0  0
 19 27  1  0  0  0  0
 19 20  2  0  0  0  0
  8  9  1  0  0  0  0
  9 17  1  0  0  0  0
  9 10  2  0  0  0  0
 28 31  1  0  0  0  0
 18 21  1  0  0  0  0
  8 11  1  0  0  0  0
 37 38  1  0  0  0  0
 27 28  1  0  0  0  0
 17 18  1  0  0  0  0
  7  8  1  0  0  0  0
  3  4  1  0  0  0  0
  3  5  1  0  0  0  0
  3  6  1  0  0  0  0
 31 34  1  0  0  0  0
 31 35  1  0  0  0  0
 31 36  1  0  0  0  0
 21 24  1  0  0  0  0
 21 25  1  0  0  0  0
 21 26  1  0  0  0  0
 11 14  1  0  0  0  0
 11 15  1  0  0  0  0
 11 16  1  0  0  0  0
 38 40  1  0  0  0  0
 38 41  1  0  0  0  0
 38 42  1  0  0  0  0
 28 33  1  0  0  0  0
 18 23  1  0  0  0  0
  8 13  1  0  0  0  0
 37 39  1  0  0  0  0
  7 12  1  0  0  0  0
 27 32  1  0  0  0  0
 17 22  1  0  0  0  0
M  END
$$$$

  -OEChem-05262214473D

 42 41  0     1  0  0  0  0  0999 V2000
   -5.7851   -0.9580    0.6237 C   0  0  0  0  0  0  0  0  0  0  0  0
   -6.2213    0.1296    0.2652 O   0  0  0  0  0  0  0  0  0  0  0  0
   -6.7088   -2.1270    0.7168 C   0  0  0  0  0  0  0  0  0  0  0  0
   -7.1713   -2.2193    1.7126 H   0  0  0  0  0  0  0  0  0  0  0  0
   -7.5511   -2.0547    0.0101 H   0  0  0  0  0  0  0  0  0  0  0  0
   -6.2485   -3.1083    0.5191 H   0  0  0  0  0  0  0  0  0  0  0  0
   -4.4733   -1.2411    0.9668 N   0  0  0  0  0  0  0  0  0  0  0  0
   -3.4203   -0.2603    0.9449 C   0  0  2  0  0  0  0  0  0  0  0  0
   -2.1242   -0.9699    0.5759 C   0  0  0  0  0  0  0  0  0  0  0  0
   -1.8694   -2.1225    0.9189 O   0  0  0  0  0  0  0  0  0  0  0  0
   -3.2916    0.4435    2.2868 C   0  0  0  0  0  0  0  0  0  0  0  0
   -4.2421   -2.1920    1.2489 H   0  0  0  0  0  0  0  0  0  0  0  0
   -3.6772    0.4622    0.1625 H   0  0  0  0  0  0  0  0  0  0  0  0
   -3.0345   -0.2644    3.0832 H   0  0  0  0  0  0  0  0  0  0  0  0
   -2.5093    1.2092    2.2599 H   0  0  0  0  0  0  0  0  0  0  0  0
   -4.2338    0.9283    2.5645 H   0  0  0  0  0  0  0  0  0  0  0  0
   -1.2626   -0.1515   -0.1463 N   0  0  0  0  0  0  0  0  0  0  0  0
    0.0431   -0.5785   -0.5755 C   0  0  2  0  0  0  0  0  0  0  0  0
   -0.1360   -1.5295   -1.7515 C   0  0  0  0  0  0  0  0  0  0  0  0
    0.0612   -1.1976   -2.9186 O   0  0  0  0  0  0  0  0  0  0  0  0
    0.8051   -1.2507    0.5559 C   0  0  0  0  0  0  0  0  0  0  0  0
   -1.5766    0.7776   -0.4197 H   0  0  0  0  0  0  0  0  0  0  0  0
    0.5757    0.3190   -0.9087 H   0  0  0  0  0  0  0  0  0  0  0  0
    0.2867   -2.1519    0.9030 H   0  0  0  0  0  0  0  0  0  0  0  0
    1.8088   -1.5493    0.2359 H   0  0  0  0  0  0  0  0  0  0  0  0
    0.9071   -0.5754    1.4123 H   0  0  0  0  0  0  0  0  0  0  0  0
   -0.5844   -2.7835   -1.3514 N   0  0  0  0  0  0  0  0  0  0  0  0
   -0.8698   -3.8439   -2.2817 C   0  0  2  0  0  0  0  0  0  0  0  0
   -2.0089   -4.6774   -1.7098 C   0  0  0  0  0  0  0  0  0  0  0  0
   -2.1573   -4.8739   -0.5055 O   0  0  0  0  0  0  0  0  0  0  0  0
    0.3589   -4.7036   -2.5347 C   0  0  0  0  0  0  0  0  0  0  0  0
   -0.6813   -2.9797   -0.3571 H   0  0  0  0  0  0  0  0  0  0  0  0
   -1.1963   -3.3683   -3.2130 H   0  0  0  0  0  0  0  0  0  0  0  0
    0.7007   -5.1883   -1.6130 H   0  0  0  0  0  0  0  0  0  0  0  0
    0.1479   -5.4924   -3.2643 H   0  0  0  0  0  0  0  0  0  0  0  0
    1.1867   -4.0971   -2.9180 H   0  0  0  0  0  0  0  0  0  0  0  0
   -2.8153   -5.2118   -2.7050 N   0  0  0  0  0  0  0  0  0  0  0  0
   -3.9382   -6.0740   -2.4194 C   0  0  0  0  0  0  0  0  0  0  0  0
   -2.6428   -4.9638   -3.6748 H   0  0  0  0  0  0  0  0  0  0  0  0
   -3.6121   -7.1241   -2.4505 H   0  0  0  0  0  0  0  0  0  0  0  0
   -4.3333   -5.8423   -1.4193 H   0  0  0  0  0  0  0  0  0  0  0  0
   -4.7250   -5.9122   -3.1710 H   0  0  0  0  0  0  0  0  0  0  0  0
  1  3  1  0  0  0  0
  1  7  1  0  0  0  0
  1  2  2  0  0  0  0
 28 29  1  0  0  0  0
 29 37  1  0  0  0  0
 29 30  2  0  0  0  0
 18 19  1  0  0  0  0
 19 27  1  0  0  0  0
 19 20  2  0  0  0  0
  8  9  1  0  0  0  0
  9 17  1  0  0  0  0
  9 10  2  0  0  0  0
 28 31  1  0  0  0  0
 18 21  1  0  0  0  0
  8 11  1  0  0  0  0
 37 38  1  0  0  0  0
 27 28  1  0  0  0  0
 17 18  1  0  0  0  0
  7  8  1  0  0  0  0
  3  4  1  0  0  0  0
  3  5  1  0  0  0  0
  3  6  1  0  0  0  0
 31 34  1  0  0  0  0
 31 35  1  0  0  0  0
 31 36  1  0  0  0  0
 21 24  1  0  0  0  0
 21 25  1  0  0  0  0
 21 26  1  0  0  0  0
 11 14  1  0  0  0  0
 11 15  1  0  0  0  0
 11 16  1  0  0  0  0
 38 40  1  0  0  0  0
 38 41  1  0  0  0  0
 38 42  1  0  0  0  0
 28 33  1  0  0  0  0
 18 23  1  0  0  0  0
  8 13  1  0  0  0  0
 37 39  1  0  0  0  0
  7 12  1  0  0  0  0
 27 32  1  0  0  0  0
 17 22  1  0  0  0  0
M  END
$$$$

  -OEChem-05262214473D

 42 41  0     1  0  0  0  0  0999 V2000
   -5.7851   -0.9580    0.6237 C   0  0  0  0  0  0  0  0  0  0  0  0
   -6.2213    0.1296    0.2652 O   0  0  0  0  0  0  0  0  0  0  0  0
   -6.7088   -2.1270    0.7168 C   0  0  0  0  0  0  0  0  0  0  0  0
   -7.1713   -2.2193    1.7126 H   0  0  0  0  0  0  0  0  0  0  0  0
   -7.5511   -2.0547    0.0101 H   0  0  0  0  0  0  0  0  0  0  0  0
   -6.2485   -3.1083    0.5191 H   0  0  0  0  0  0  0  0  0  0  0  0
   -4.4733   -1.2411    0.9668 N   0  0  0  0  0  0  0  0  0  0  0  0
   -3.4203   -0.2603    0.9449 C   0  0  2  0  0  0  0  0  0  0  0  0
   -2.1242   -0.9699    0.5759 C   0  0  0  0  0  0  0  0  0  0  0  0
   -1.8694   -2.1225    0.9189 O   0  0  0  0  0  0  0  0  0  0  0  0
   -3.2916    0.4435    2.2868 C   0  0  0  0  0  0  0  0  0  0  0  0
   -4.2421   -2.1920    1.2489 H   0  0  0  0  0  0  0  0  0  0  0  0
   -3.6772    0.4622    0.1625 H   0  0  0  0  0  0  0  0  0  0  0  0
   -3.0345   -0.2644    3.0832 H   0  0  0  0  0  0  0  0  0  0  0  0
   -2.5093    1.2092    2.2599 H   0  0  0  0  0  0  0  0  0  0  0  0
   -4.2338    0.9283    2.5645 H   0  0  0  0  0  0  0  0  0  0  0  0
   -1.2626   -0.1515   -0.1463 N   0  0  0  0  0  0  0  0  0  0  0  0
    0.0431   -0.5785   -0.5755 C   0  0  2  0  0  0  0  0  0  0  0  0
   -0.1360   -1.5295   -1.7515 C   0  0  0  0  0  0  0  0  0  0  0  0
    0.3067   -1.2982   -2.8747 O   0  0  0  0  0  0  0  0  0  0  0  0
    0.8051   -1.2507    0.5559 C   0  0  0  0  0  0  0  0  0  0  0  0
   -1.5766    0.7776   -0.4197 H   0  0  0  0  0  0  0  0  0  0  0  0
    0.5757    0.3190   -0.9087 H   0  0  0  0  0  0  0  0  0  0  0  0
    0.2867   -2.1519    0.9030 H   0  0  0  0  0  0  0  0  0  0  0  0
    1.8088   -1.5493    0.2359 H   0  0  0  0  0  0  0  0  0  0  0  0
    0.9071   -0.5754    1.4123 H   0  0  0  0  0  0  0  0  0  0  0  0
   -0.8866   -2.6502   -1.4132 N   0  0  0  0  0  0  0  0  0  0  0  0
   -1.2294   -3.6759   -2.3629 C   0  0  2  0  0  0  0  0  0  0  0  0
   -2.5896   -4.2404   -1.9748 C   0  0  0  0  0  0  0  0  0  0  0  0
   -2.9637   -4.3471   -0.8087 O   0  0  0  0  0  0  0  0  0  0  0  0
   -0.1758   -4.7720   -2.3980 C   0  0  0  0  0  0  0  0  0  0  0  0
   -1.1775   -2.7765   -0.4458 H   0  0  0  0  0  0  0  0  0  0  0  0
   -1.3011   -3.1893   -3.3418 H   0  0  0  0  0  0  0  0  0  0  0  0
   -0.0897   -5.2709   -1.4258 H   0  0  0  0  0  0  0  0  0  0  0  0
   -0.4237   -5.5369   -3.1412 H   0  0  0  0  0  0  0  0  0  0  0  0
    0.8076   -4.3595   -2.6481 H   0  0  0  0  0  0  0  0  0  0  0  0
   -3.3193   -4.6511   -3.0816 N   0  0  0  0  0  0  0  0  0  0  0  0
   -4.6242   -5.2605   -2.9728 C   0  0  0  0  0  0  0  0  0  0  0  0
   -2.9486   -4.4878   -4.0131 H   0  0  0  0  0  0  0  0  0  0  0  0
   -4.5166   -6.3545   -2.9350 H   0  0  0  0  0  0  0  0  0  0  0  0
   -5.1176   -4.9087   -2.0548 H   0  0  0  0  0  0  0  0  0  0  0  0
   -5.2327   -4.9820   -3.8459 H   0  0  0  0  0  0  0  0  0  0  0  0
  1  3  1  0  0  0  0
  1  7  1  0  0  0  0
  1  2  2  0  0  0  0
 28 29  1  0  0  0  0
 29 37  1  0  0  0  0
 29 30  2  0  0  0  0
 18 19  1  0  0  0  0
 19 27  1  0  0  0  0
 19 20  2  0  0  0  0
  8  9  1  0  0  0  0
  9 17  1  0  0  0  0
  9 10  2  0  0  0  0
 28 31  1  0  0  0  0
 18 21  1  0  0  0  0
  8 11  1  0  0  0  0
 37 38  1  0  0  0  0
 27 28  1  0  0  0  0
 17 18  1  0  0  0  0
  7  8  1  0  0  0  0
  3  4  1  0  0  0  0
  3  5  1  0  0  0  0
  3  6  1  0  0  0  0
 31 34  1  0  0  0  0
 31 35  1  0  0  0  0
 31 36  1  0  0  0  0
 21 24  1  0  0  0  0
 21 25  1  0  0  0  0
 21 26  1  0  0  0  0
 11 14  1  0  0  0  0
 11 15  1  0  0  0  0
 11 16  1  0  0  0  0
 38 40  1  0  0  0  0
 38 41  1  0  0  0  0
 38 42  1  0  0  0  0
 28 33  1  0  0  0  0
 18 23  1  0  0  0  0
  8 13  1  0  0  0  0
 37 39  1  0  0  0  0
  7 12  1  0  0  0  0
 27 32  1  0  0  0  0
 17 22  1  0  0  0  0
M  END
$$$$

  -OEChem-05262214473D

 42 41  0     1  0  0  0  0  0999 V2000
   -5.7851   -0.9580    0.6237 C   0  0  0  0  0  0  0  0  0  0  0  0
   -6.2213    0.1296    0.2652 O   0  0  0  0  0  0  0  0  0  0  0  0
   -6.7088   -2.1270    0.7168 C   0  0  0  0  0  0  0  0  0  0  0  0
   -7.1713   -2.2193    1.7126 H   0  0  0  0  0  0  0  0  0  0  0  0
   -7.5511   -2.0547    0.0101 H   0  0  0  0  0  0  0  0  0  0  0  0
   -6.2485   -3.1083    0.5191 H   0  0  0  0  0  0  0  0  0  0  0  0
   -4.4733   -1.2411    0.9668 N   0  0  0  0  0  0  0  0  0  0  0  0
   -3.4203   -0.2603    0.9449 C   0  0  2  0  0  0  0  0  0  0  0  0
   -2.1242   -0.9699    0.5759 C   0  0  0  0  0  0  0  0  0  0  0  0
   -1.8694   -2.1225    0.9189 O   0  0  0  0  0  0  0  0  0  0  0  0
   -3.2916    0.4435    2.2868 C   0  0  0  0  0  0  0  0  0  0  0  0
   -4.2421   -2.1920    1.2489 H   0  0  0  0  0  0  0  0  0  0  0  0
   -3.6772    0.4622    0.1625 H   0  0  0  0  0  0  0  0  0  0  0  0
   -3.0345   -0.2644    3.0832 H   0  0  0  0  0  0  0  0  0  0  0  0
   -2.5093    1.2092    2.2599 H   0  0  0  0  0  0  0  0  0  0  0  0
   -4.2338    0.9283    2.5645 H   0  0  0  0  0  0  0  0  0  0  0  0
   -1.2626   -0.1515   -0.1463 N   0  0  0  0  0  0  0  0  0  0  0  0
    0.0431   -0.5785   -0.5755 C   0  0  2  0  0  0  0  0  0  0  0  0
   -0.1360   -1.5295   -1.7515 C   0  0  0  0  0  0  0  0  0  0  0  0
    0.5167   -1.4430   -2.7896 O   0  0  0  0  0  0  0  0  0  0  0  0
    0.8051   -1.2507    0.5559 C   0  0  0  0  0  0  0  0  0  0  0  0
   -1.5766    0.7776   -0.4197 H   0  0  0  0  0  0  0  0  0  0  0  0
    0.5757    0.3190   -0.9087 H   0  0  0  0  0  0  0  0  0  0  0  0
    0.2867   -2.1519    0.9030 H   0  0  0  0  0  0  0  0  0  0  0  0
    1.8088   -1.5493    0.2359 H   0  0  0  0  0  0  0  0  0  0  0  0
    0.9071   -0.5754    1.4123 H   0  0  0  0  0  0  0  0  0  0  0  0
   -1.1418   -2.4629   -1.5258 N   0  0  0  0  0  0  0  0  0  0  0  0
   -1.5301   -3.4441   -2.5045 C   0  0  2  0  0  0  0  0  0  0  0  0
   -3.0203   -3.7103   -2.3379 C   0  0  0  0  0  0  0  0  0  0  0  0
   -3.5883   -3.6863   -1.2479 O   0  0  0  0  0  0  0  0  0  0  0  0
   -0.7282   -4.7270   -2.3502 C   0  0  0  0  0  0  0  0  0  0  0  0
   -1.6019   -2.4839   -0.6178 H   0  0  0  0  0  0  0  0  0  0  0  0
   -1.3457   -2.9995   -3.4885 H   0  0  0  0  0  0  0  0  0  0  0  0
   -0.9000   -5.1870   -1.3702 H   0  0  0  0  0  0  0  0  0  0  0  0
   -1.0047   -5.4620   -3.1133 H   0  0  0  0  0  0  0  0  0  0  0  0
    0.3453   -4.5289   -2.4407 H   0  0  0  0  0  0  0  0  0  0  0  0
   -3.6331   -4.0204   -3.5439 N   0  0  0  0  0  0  0  0  0  0  0  0
   -5.0348   -4.3544   -3.6430 C   0  0  0  0  0  0  0  0  0  0  0  0
   -3.0942   -3.9773   -4.4038 H   0  0  0  0  0  0  0  0  0  0  0  0
   -5.1582   -5.4452   -3.5726 H   0  0  0  0  0  0  0  0  0  0  0  0
   -5.5859   -3.8696   -2.8238 H   0  0  0  0  0  0  0  0  0  0  0  0
   -5.4281   -4.0026   -4.6082 H   0  0  0  0  0  0  0  0  0  0  0  0
  1  3  1  0  0  0  0
  1  7  1  0  0  0  0
  1  2  2  0  0  0  0
 28 29  1  0  0  0  0
 29 37  1  0  0  0  0
 29 30  2  0  0  0  0
 18 19  1  0  0  0  0
 19 27  1  0  0  0  0
 19 20  2  0  0  0  0
  8  9  1  0  0  0  0
  9 17  1  0  0  0  0
  9 10  2  0  0  0  0
 28 31  1  0  0  0  0
 18 21  1  0  0  0  0
  8 11  1  0  0  0  0
 37 38  1  0  0  0  0
 27 28  1  0  0  0  0
 17 18  1  0  0  0  0
  7  8  1  0  0  0  0
  3  4  1  0  0  0  0
  3  5  1  0  0  0  0
  3  6  1  0  0  0  0
 31 34  1  0  0  0  0
 31 35  1  0  0  0  0
 31 36  1  0  0  0  0
 21 24  1  0  0  0  0
 21 25  1  0  0  0  0
 21 26  1  0  0  0  0
 11 14  1  0  0  0  0
 11 15  1  0  0  0  0
 11 16  1  0  0  0  0
 38 40  1  0  0  0  0
 38 41  1  0  0  0  0
 38 42  1  0  0  0  0
 28 33  1  0  0  0  0
 18 23  1  0  0  0  0
  8 13  1  0  0  0  0
 37 39  1  0  0  0  0
  7 12  1  0  0  0  0
 27 32  1  0  0  0  0
 17 22  1  0  0  0  0
M  END
$$$$

  -OEChem-05262214473D

 42 41  0     1  0  0  0  0  0999 V2000
   -5.7851   -0.9580    0.6237 C   0  0  0  0  0  0  0  0  0  0  0  0
   -6.2213    0.1296    0.2652 O   0  0  0  0  0  0  0  0  0  0  0  0
   -6.7088   -2.1270    0.7168 C   0  0  0  0  0  0  0  0  0  0  0  0
   -7.1713   -2.2193    1.7126 H   0  0  0  0  0  0  0  0  0  0  0  0
   -7.5511   -2.0547    0.0101 H   0  0  0  0  0  0  0  0  0  0  0  0
   -6.2485   -3.1083    0.5191 H   0  0  0  0  0  0  0  0  0  0  0  0
   -4.4733   -1.2411    0.9668 N   0  0  0  0  0  0  0  0  0  0  0  0
   -3.4203   -0.2603    0.9449 C   0  0  2  0  0  0  0  0  0  0  0  0
   -2.1242   -0.9699    0.5759 C   0  0  0  0  0  0  0  0  0  0  0  0
   -1.8694   -2.1225    0.9189 O   0  0  0  0  0  0  0  0  0  0  0  0
   -3.2916    0.4435    2.2868 C   0  0  0  0  0  0  0  0  0  0  0  0
   -4.2421   -2.1920    1.2489 H   0  0  0  0  0  0  0  0  0  0  0  0
   -3.6772    0.4622    0.1625 H   0  0  0  0  0  0  0  0  0  0  0  0
   -3.0345   -0.2644    3.0832 H   0  0  0  0  0  0  0  0  0  0  0  0
   -2.5093    1.2092    2.2599 H   0  0  0  0  0  0  0  0  0  0  0  0
   -4.2338    0.9283    2.5645 H   0  0  0  0  0  0  0  0  0  0  0  0
   -1.2626   -0.1515   -0.1463 N   0  0  0  0  0  0  0  0  0  0  0  0
    0.0431   -0.5785   -0.5755 C   0  0  2  0  0  0  0  0  0  0  0  0
   -0.1360   -1.5295   -1.7515 C   0  0  0  0  0  0  0  0  0  0  0  0
    0.6768   -1.6222   -2.6690 O   0  0  0  0  0  0  0  0  0  0  0  0
    0.8051   -1.2507    0.5559 C   0  0  0  0  0  0  0  0  0  0  0  0
   -1.5766    0.7776   -0.4197 H   0  0  0  0  0  0  0  0  0  0  0  0
    0.5757    0.3190   -0.9087 H   0  0  0  0  0  0  0  0  0  0  0  0
    0.2867   -2.1519    0.9030 H   0  0  0  0  0  0  0  0  0  0  0  0
    1.8088   -1.5493    0.2359 H   0  0  0  0  0  0  0  0  0  0  0  0
    0.9071   -0.5754    1.4123 H   0  0  0  0  0  0  0  0  0  0  0  0
   -1.3326   -2.2344   -1.6815 N   0  0  0  0  0  0  0  0  0  0  0  0
   -1.7513   -3.1645   -2.6969 C   0  0  2  0  0  0  0  0  0  0  0  0
   -3.2718   -3.1233   -2.7743 C   0  0  0  0  0  0  0  0  0  0  0  0
   -3.9886   -2.9365   -1.7933 O   0  0  0  0  0  0  0  0  0  0  0  0
   -1.2604   -4.5717   -2.3947 C   0  0  0  0  0  0  0  0  0  0  0  0
   -1.9254   -2.1216   -0.8615 H   0  0  0  0  0  0  0  0  0  0  0  0
   -1.3272   -2.8116   -3.6433 H   0  0  0  0  0  0  0  0  0  0  0  0
   -1.6749   -4.9423   -1.4500 H   0  0  0  0  0  0  0  0  0  0  0  0
   -1.5554   -5.2726   -3.1826 H   0  0  0  0  0  0  0  0  0  0  0  0
   -0.1686   -4.5938   -2.3099 H   0  0  0  0  0  0  0  0  0  0  0  0
   -3.7355   -3.3625   -4.0603 N   0  0  0  0  0  0  0  0  0  0  0  0
   -5.1420   -3.4176   -4.3843 C   0  0  0  0  0  0  0  0  0  0  0  0
   -3.0697   -3.4669   -4.8203 H   0  0  0  0  0  0  0  0  0  0  0  0
   -5.4931   -4.4580   -4.3199 H   0  0  0  0  0  0  0  0  0  0  0  0
   -5.7064   -2.7956   -3.6739 H   0  0  0  0  0  0  0  0  0  0  0  0
   -5.2978   -3.0407   -5.4059 H   0  0  0  0  0  0  0  0  0  0  0  0
  1  3  1  0  0  0  0
  1  7  1  0  0  0  0
  1  2  2  0  0  0  0
 28 29  1  0  0  0  0
 29 37  1  0  0  0  0
 29 30  2  0  0  0  0
 18 19  1  0  0  0  0
 19 27  1  0  0  0  0
 19 20  2  0  0  0  0
  8  9  1  0  0  0  0
  9 17  1  0  0  0  0
  9 10  2  0  0  0  0
 28 31  1  0  0  0  0
 18 21  1  0  0  0  0
  8 11  1  0  0  0  0
 37 38  1  0  0  0  0
 27 28  1  0  0  0  0
 17 18  1  0  0  0  0
  7  8  1  0  0  0  0
  3  4  1  0  0  0  0
  3  5  1  0  0  0  0
  3  6  1  0  0  0  0
 31 34  1  0  0  0  0
 31 35  1  0  0  0  0
 31 36  1  0  0  0  0
 21 24  1  0  0  0  0
 21 25  1  0  0  0  0
 21 26  1  0  0  0  0
 11 14  1  0  0  0  0
 11 15  1  0  0  0  0
 11 16  1  0  0  0  0
 38 40  1  0  0  0  0
 38 41  1  0  0  0  0
 38 42  1  0  0  0  0
 28 33  1  0  0  0  0
 18 23  1  0  0  0  0
  8 13  1  0  0  0  0
 37 39  1  0  0  0  0
  7 12  1  0  0  0  0
 27 32  1  0  0  0  0
 17 22  1  0  0  0  0
M  END
$$$$

  -OEChem-05262214473D

 42 41  0     1  0  0  0  0  0999 V2000
   -5.7851   -0.9580    0.6237 C   0  0  0  0  0  0  0  0  0  0  0  0
   -6.2213    0.1296    0.2652 O   0  0  0  0  0  0  0  0  0  0  0  0
   -6.7088   -2.1270    0.7168 C   0  0  0  0  0  0  0  0  0  0  0  0
   -7.1713   -2.2193    1.7126 H   0  0  0  0  0  0  0  0  0  0  0  0
   -7.5511   -2.0547    0.0101 H   0  0  0  0  0  0  0  0  0  0  0  0
   -6.2485   -3.1083    0.5191 H   0  0  0  0  0  0  0  0  0  0  0  0
   -4.4733   -1.2411    0.9668 N   0  0  0  0  0  0  0  0  0  0  0  0
   -3.4203   -0.2603    0.9449 C   0  0  2  0  0  0  0  0  0  0  0  0
   -2.1242   -0.9699    0.5759 C   0  0  0  0  0  0  0  0  0  0  0  0
   -1.8694   -2.1225    0.9189 O   0  0  0  0  0  0  0  0  0  0  0  0
   -3.2916    0.4435    2.2868 C   0  0  0  0  0  0  0  0  0  0  0  0
   -4.2421   -2.1920    1.2489 H   0  0  0  0  0  0  0  0  0  0  0  0
   -3.6772    0.4622    0.1625 H   0  0  0  0  0  0  0  0  0  0  0  0
   -3.0345   -0.2644    3.0832 H   0  0  0  0  0  0  0  0  0  0  0  0
   -2.5093    1.2092    2.2599 H   0  0  0  0  0  0  0  0  0  0  0  0
   -4.2338    0.9283    2.5645 H   0  0  0  0  0  0  0  0  0  0  0  0
   -1.2626   -0.1515   -0.1463 N   0  0  0  0  0  0  0  0  0  0  0  0
    0.0431   -0.5785   -0.5755 C   0  0  2  0  0  0  0  0  0  0  0  0
   -0.1360   -1.5295   -1.7515 C   0  0  0  0  0  0  0  0  0  0  0  0
    0.7762   -1.8237   -2.5212 O   0  0  0  0  0  0  0  0  0  0  0  0
    0.8051   -1.2507    0.5559 C   0  0  0  0  0  0  0  0  0  0  0  0
   -1.5766    0.7776   -0.4197 H   0  0  0  0  0  0  0  0  0  0  0  0
    0.5757    0.3190   -0.9087 H   0  0  0  0  0  0  0  0  0  0  0  0
    0.2867   -2.1519    0.9030 H   0  0  0  0  0  0  0  0  0  0  0  0
    1.8088   -1.5493    0.2359 H   0  0  0  0  0  0  0  0  0  0  0  0
    0.9071   -0.5754    1.4123 H   0  0  0  0  0  0  0  0  0  0  0  0
   -1.4462   -1.9804   -1.8696 N   0  0  0  0  0  0  0  0  0  0  0  0
   -1.8780   -2.8560   -2.9270 C   0  0  2  0  0  0  0  0  0  0  0  0
   -3.3268   -2.5192   -3.2544 C   0  0  0  0  0  0  0  0  0  0  0  0
   -4.1372   -2.1489   -2.4075 O   0  0  0  0  0  0  0  0  0  0  0  0
   -1.7363   -4.3167   -2.5284 C   0  0  0  0  0  0  0  0  0  0  0  0
   -2.1262   -1.7144   -1.1601 H   0  0  0  0  0  0  0  0  0  0  0  0
   -1.2467   -2.6385   -3.7955 H   0  0  0  0  0  0  0  0  0  0  0  0
   -2.3616   -4.5536   -1.6598 H   0  0  0  0  0  0  0  0  0  0  0  0
   -2.0383   -4.9818   -3.3442 H   0  0  0  0  0  0  0  0  0  0  0  0
   -0.6990   -4.5499   -2.2646 H   0  0  0  0  0  0  0  0  0  0  0  0
   -3.6195   -2.7222   -4.5958 N   0  0  0  0  0  0  0  0  0  0  0  0
   -4.9385   -2.5138   -5.1461 C   0  0  0  0  0  0  0  0  0  0  0  0
   -2.8767   -2.9915   -5.2341 H   0  0  0  0  0  0  0  0  0  0  0  0
   -5.4985   -3.4603   -5.1259 H   0  0  0  0  0  0  0  0  0  0  0  0
   -5.4707   -1.7601   -4.5472 H   0  0  0  0  0  0  0  0  0  0  0  0
   -4.8509   -2.1619   -6.1846 H   0  0  0  0  0  0  0  0  0  0  0  0
  1  3  1  0  0  0  0
  1  7  1  0  0  0  0
  1  2  2  0  0  0  0
 28 29  1  0  0  0  0
 29 37  1  0  0  0  0
 29 30  2  0  0  0  0
 18 19  1  0  0  0  0
 19 27  1  0  0  0  0
 19 20  2  0  0  0  0
  8  9  1  0  0  0  0
  9 17  1  0  0  0  0
  9 10  2  0  0  0  0
 28 31  1  0  0  0  0
 18 21  1  0  0  0  0
  8 11  1  0  0  0  0
 37 38  1  0  0  0  0
 27 28  1  0  0  0  0
 17 18  1  0  0  0  0
  7  8  1  0  0  0  0
  3  4  1  0  0  0  0
  3  5  1  0  0  0  0
  3  6  1  0  0  0  0
 31 34  1  0  0  0  0
 31 35  1  0  0  0  0
 31 36  1  0  0  0  0
 21 24  1  0  0  0  0
 21 25  1  0  0  0  0
 21 26  1  0  0  0  0
 11 14  1  0  0  0  0
 11 15  1  0  0  0  0
 11 16  1  0  0  0  0
 38 40  1  0  0  0  0
 38 41  1  0  0  0  0
 38 42  1  0  0  0  0
 28 33  1  0  0  0  0
 18 23  1  0  0  0  0
  8 13  1  0  0  0  0
 37 39  1  0  0  0  0
  7 12  1  0  0  0  0
 27 32  1  0  0  0  0
 17 22  1  0  0  0  0
M  END
$$$$

  -OEChem-05262214473D

 42 41  0     1  0  0  0  0  0999 V2000
   -5.7851   -0.9580    0.6237 C   0  0  0  0  0  0  0  0  0  0  0  0
   -6.2213    0.1296    0.2652 O   0  0  0  0  0  0  0  0  0  0  0  0
   -6.7088   -2.1270    0.7168 C   0  0  0  0  0  0  0  0  0  0  0  0
   -7.1713   -2.2193    1.7126 H   0  0  0  0  0  0  0  0  0  0  0  0
   -7.5511   -2.0547    0.0101 H   0  0  0  0  0  0  0  0  0  0  0  0
   -6.2485   -3.1083    0.5191 H   0  0  0  0  0  0  0  0  0  0  0  0
   -4.4733   -1.2411    0.9668 N   0  0  0  0  0  0  0  0  0  0  0  0
   -3.4203   -0.2603    0.9449 C   0  0  2  0  0  0  0  0  0  0  0  0
   -2.1242   -0.9699    0.5759 C   0  0  0  0  0  0  0  0  0  0  0  0
   -1.8694   -2.1225    0.9189 O   0  0  0  0  0  0  0  0  0  0  0  0
   -3.2916    0.4435    2.2868 C   0  0  0  0  0  0  0  0  0  0  0  0
   -4.2421   -2.1920    1.2489 H   0  0  0  0  0  0  0  0  0  0  0  0
   -3.6772    0.4622    0.1625 H   0  0  0  0  0  0  0  0  0  0  0  0
   -3.0345   -0.2644    3.0832 H   0  0  0  0  0  0  0  0  0  0  0  0
   -2.5093    1.2092    2.2599 H   0  0  0  0  0  0  0  0  0  0  0  0
   -4.2338    0.9283    2.5645 H   0  0  0  0  0  0  0  0  0  0  0  0
   -1.2626   -0.1515   -0.1463 N   0  0  0  0  0  0  0  0  0  0  0  0
    0.0431   -0.5785   -0.5755 C   0  0  2  0  0  0  0  0  0  0  0  0
   -0.1360   -1.5295   -1.7515 C   0  0  0  0  0  0  0  0  0  0  0  0
    0.8080   -2.0337   -2.3563 O   0  0  0  0  0  0  0  0  0  0  0  0
    0.8051   -1.2507    0.5559 C   0  0  0  0  0  0  0  0  0  0  0  0
   -1.5766    0.7776   -0.4197 H   0  0  0  0  0  0  0  0  0  0  0  0
    0.5757    0.3190   -0.9087 H   0  0  0  0  0  0  0  0  0  0  0  0
    0.2867   -2.1519    0.9030 H   0  0  0  0  0  0  0  0  0  0  0  0
    1.8088   -1.5493    0.2359 H   0  0  0  0  0  0  0  0  0  0  0  0
    0.9071   -0.5754    1.4123 H   0  0  0  0  0  0  0  0  0  0  0  0
   -1.4747   -1.7180   -2.0775 N   0  0  0  0  0  0  0  0  0  0  0  0
   -1.9016   -2.5398   -3.1792 C   0  0  2  0  0  0  0  0  0  0  0  0
   -3.1816   -1.9394   -3.7454 C   0  0  0  0  0  0  0  0  0  0  0  0
   -4.0241   -1.3772   -3.0489 O   0  0  0  0  0  0  0  0  0  0  0  0
   -2.1234   -3.9794   -2.7422 C   0  0  0  0  0  0  0  0  0  0  0  0
   -2.1905   -1.2901   -1.4935 H   0  0  0  0  0  0  0  0  0  0  0  0
   -1.1098   -2.4921   -3.9347 H   0  0  0  0  0  0  0  0  0  0  0  0
   -2.9133   -4.0472   -1.9853 H   0  0  0  0  0  0  0  0  0  0  0  0
   -2.4205   -4.6093   -3.5873 H   0  0  0  0  0  0  0  0  0  0  0  0
   -1.2100   -4.4000   -2.3080 H   0  0  0  0  0  0  0  0  0  0  0  0
   -3.2929   -2.1433   -5.1137 N   0  0  0  0  0  0  0  0  0  0  0  0
   -4.4381   -1.7047   -5.8767 C   0  0  0  0  0  0  0  0  0  0  0  0
   -2.5284   -2.5835   -5.6171 H   0  0  0  0  0  0  0  0  0  0  0  0
   -5.1741   -2.5201   -5.9357 H   0  0  0  0  0  0  0  0  0  0  0  0
   -4.8949   -0.8336   -5.3842 H   0  0  0  0  0  0  0  0  0  0  0  0
   -4.1177   -1.4260   -6.8914 H   0  0  0  0  0  0  0  0  0  0  0  0
  1  3  1  0  0  0  0
  1  7  1  0  0  0  0
  1  2  2  0  0  0  0
 28 29  1  0  0  0  0
 29 37  1  0  0  0  0
 29 30  2  0  0  0  0
 18 19  1  0  0  0  0
 19 27  1  0  0  0  0
 19 20  2  0  0  0  0
  8  9  1  0  0  0  0
  9 17  1  0  0  0  0
  9 10  2  0  0  0  0
 28 31  1  0  0  0  0
 18 21  1  0  0  0  0
  8 11  1  0  0  0  0
 37 38  1  0  0  0  0
 27 28  1  0  0  0  0
 17 18  1  0  0  0  0
  7  8  1  0  0  0  0
  3  4  1  0  0  0  0
  3  5  1  0  0  0  0
  3  6  1  0  0  0  0
 31 34  1  0  0  0  0
 31 35  1  0  0  0  0
 31 36  1  0  0  0  0
 21 24  1  0  0  0  0
 21 25  1  0  0  0  0
 21 26  1  0  0  0  0
 11 14  1  0  0  0  0
 11 15  1  0  0  0  0
 11 16  1  0  0  0  0
 38 40  1  0  0  0  0
 38 41  1  0  0  0  0
 38 42  1  0  0  0  0
 28 33  1  0  0  0  0
 18 23  1  0  0  0  0
  8 13  1  0  0  0  0
 37 39  1  0  0  0  0
  7 12  1  0  0  0  0
 27 32  1  0  0  0  0
 17 22  1  0  0  0  0
M  END
$$$$

  -OEChem-05262214473D

 42 41  0     1  0  0  0  0  0999 V2000
   -5.7851   -0.9580    0.6237 C   0  0  0  0  0  0  0  0  0  0  0  0
   -6.2213    0.1296    0.2652 O   0  0  0  0  0  0  0  0  0  0  0  0
   -6.7088   -2.1270    0.7168 C   0  0  0  0  0  0  0  0  0  0  0  0
   -7.1713   -2.2193    1.7126 H   0  0  0  0  0  0  0  0  0  0  0  0
   -7.5511   -2.0547    0.0101 H   0  0  0  0  0  0  0  0  0  0  0  0
   -6.2485   -3.1083    0.5191 H   0  0  0  0  0  0  0  0  0  0  0  0
   -4.4733   -1.2411    0.9668 N   0  0  0  0  0  0  0  0  0  0  0  0
   -3.4203   -0.2603    0.9449 C   0  0  2  0  0  0  0  0  0  0  0  0
   -2.1242   -0.9699    0.5759 C   0  0  0  0  0  0  0  0  0  0  0  0
   -1.8694   -2.1225    0.9189 O   0  0  0  0  0  0  0  0  0  0  0  0
   -3.2916    0.4435    2.2868 C   0  0  0  0  0  0  0  0  0  0  0  0
   -4.2421   -2.1920    1.2489 H   0  0  0  0  0  0  0  0  0  0  0  0
   -3.6772    0.4622    0.1625 H   0  0  0  0  0  0  0  0  0  0  0  0
   -3.0345   -0.2644    3.0832 H   0  0  0  0  0  0  0  0  0  0  0  0
   -2.5093    1.2092    2.2599 H   0  0  0  0  0  0  0  0  0  0  0  0
   -4.2338    0.9283    2.5645 H   0  0  0  0  0  0  0  0  0  0  0  0
   -1.2626   -0.1515   -0.1463 N   0  0  0  0  0  0  0  0  0  0  0  0
    0.0431   -0.5785   -0.5755 C   0  0  2  0  0  0  0  0  0  0  0  0
   -0.1360   -1.5295   -1.7515 C   0  0  0  0  0  0  0  0  0  0  0  0
    0.7701   -2.2379   -2.1854 O   0  0  0  0  0  0  0  0  0  0  0  0
    0.8051   -1.2507    0.5559 C   0  0  0  0  0  0  0  0  0  0  0  0
   -1.5766    0.7776   -0.4197 H   0  0  0  0  0  0  0  0  0  0  0  0
    0.5757    0.3190   -0.9087 H   0  0  0  0  0  0  0  0  0  0  0  0
    0.2867   -2.1519    0.9030 H   0  0  0  0  0  0  0  0  0  0  0  0
    1.8088   -1.5493    0.2359 H   0  0  0  0  0  0  0  0  0  0  0  0
    0.9071   -0.5754    1.4123 H   0  0  0  0  0  0  0  0  0  0  0  0
   -1.4162   -1.4651   -2.2909 N   0  0  0  0  0  0  0  0  0  0  0  0
   -1.8204   -2.2373   -3.4362 C   0  0  2  0  0  0  0  0  0  0  0  0
   -2.8461   -1.4233   -4.2139 C   0  0  0  0  0  0  0  0  0  0  0  0
   -3.6570   -0.6738   -3.6736 O   0  0  0  0  0  0  0  0  0  0  0  0
   -2.3953   -3.5827   -3.0216 C   0  0  0  0  0  0  0  0  0  0  0  0
   -2.1140   -0.8775   -1.8388 H   0  0  0  0  0  0  0  0  0  0  0  0
   -0.9258   -2.3822   -4.0516 H   0  0  0  0  0  0  0  0  0  0  0  0
   -3.2924   -3.4577   -2.4042 H   0  0  0  0  0  0  0  0  0  0  0  0
   -2.6759   -4.1804   -3.8951 H   0  0  0  0  0  0  0  0  0  0  0  0
   -1.6665   -4.1545   -2.4370 H   0  0  0  0  0  0  0  0  0  0  0  0
   -2.7781   -1.6651   -5.5788 N   0  0  0  0  0  0  0  0  0  0  0  0
   -3.6751   -1.0454   -6.5261 C   0  0  0  0  0  0  0  0  0  0  0  0
   -2.0485   -2.2706   -5.9432 H   0  0  0  0  0  0  0  0  0  0  0  0
   -4.5420   -1.7013   -6.6941 H   0  0  0  0  0  0  0  0  0  0  0  0
   -4.0183   -0.0792   -6.1278 H   0  0  0  0  0  0  0  0  0  0  0  0
   -3.1482   -0.8833   -7.4779 H   0  0  0  0  0  0  0  0  0  0  0  0
  1  3  1  0  0  0  0
  1  7  1  0  0  0  0
  1  2  2  0  0  0  0
 28 29  1  0  0  0  0
 29 37  1  0  0  0  0
 29 30  2  0  0  0  0
 18 19  1  0  0  0  0
 19 27  1  0  0  0  0
 19 20  2  0  0  0  0
  8  9  1  0  0  0  0
  9 17  1  0  0  0  0
  9 10  2  0  0  0  0
 28 31  1  0  0  0  0
 18 21  1  0  0  0  0
  8 11  1  0  0  0  0
 37 38  1  0  0  0  0
 27 28  1  0  0  0  0
 17 18  1  0  0  0  0
  7  8  1  0  0  0  0
  3  4  1  0  0  0  0
  3  5  1  0  0  0  0
  3  6  1  0  0  0  0
 31 34  1  0  0  0  0
 31 35  1  0  0  0  0
 31 36  1  0  0  0  0
 21 24  1  0  0  0  0
 21 25  1  0  0  0  0
 21 26  1  0  0  0  0
 11 14  1  0  0  0  0
 11 15  1  0  0  0  0
 11 16  1  0  0  0  0
 38 40  1  0  0  0  0
 38 41  1  0  0  0  0
 38 42  1  0  0  0  0
 28 33  1  0  0  0  0
 18 23  1  0  0  0  0
  8 13  1  0  0  0  0
 37 39  1  0  0  0  0
  7 12  1  0  0  0  0
 27 32  1  0  0  0  0
 17 22  1  0  0  0  0
M  END
$$$$

  -OEChem-05262214473D

 42 41  0     1  0  0  0  0  0999 V2000
   -5.7851   -0.9580    0.6237 C   0  0  0  0  0  0  0  0  0  0  0  0
   -6.2213    0.1296    0.2652 O   0  0  0  0  0  0  0  0  0  0  0  0
   -6.7088   -2.1270    0.7168 C   0  0  0  0  0  0  0  0  0  0  0  0
   -7.1713   -2.2193    1.7126 H   0  0  0  0  0  0  0  0  0  0  0  0
   -7.5511   -2.0547    0.0101 H   0  0  0  0  0  0  0  0  0  0  0  0
   -6.2485   -3.1083    0.5191 H   0  0  0  0  0  0  0  0  0  0  0  0
   -4.4733   -1.2411    0.9668 N   0  0  0  0  0  0  0  0  0  0  0  0
   -3.4203   -0.2603    0.9449 C   0  0  2  0  0  0  0  0  0  0  0  0
   -2.1242   -0.9699    0.5759 C   0  0  0  0  0  0  0  0  0  0  0  0
   -1.8694   -2.1225    0.9189 O   0  0  0  0  0  0  0  0  0  0  0  0
   -3.2916    0.4435    2.2868 C   0  0  0  0  0  0  0  0  0  0  0  0
   -4.2421   -2.1920    1.2489 H   0  0  0  0  0  0  0  0  0  0  0  0
   -3.6772    0.4622    0.1625 H   0  0  0  0  0  0  0  0  0  0  0  0
   -3.0345   -0.2644    3.0832 H   0  0  0  0  0  0  0  0  0  0  0  0
   -2.5093    1.2092    2.2599 H   0  0  0  0  0  0  0  0  0  0  0  0
   -4.2338    0.9283    2.5645 H   0  0  0  0  0  0  0  0  0  0  0  0
   -1.2626   -0.1515   -0.1463 N   0  0  0  0  0  0  0  0  0  0  0  0
    0.0431   -0.5785   -0.5755 C   0  0  2  0  0  0  0  0  0  0  0  0
   -0.1360   -1.5295   -1.7515 C   0  0  0  0  0  0  0  0  0  0  0  0
    0.6651   -2.4223   -2.0202 O   0  0  0  0  0  0  0  0  0  0  0  0
    0.8051   -1.2507    0.5559 C   0  0  0  0  0  0  0  0  0  0  0  0
   -1.5766    0.7776   -0.4197 H   0  0  0  0  0  0  0  0  0  0  0  0
    0.5757    0.3190   -0.9087 H   0  0  0  0  0  0  0  0  0  0  0  0
    0.2867   -2.1519    0.9030 H   0  0  0  0  0  0  0  0  0  0  0  0
    1.8088   -1.5493    0.2359 H   0  0  0  0  0  0  0  0  0  0  0  0
    0.9071   -0.5754    1.4123 H   0  0  0  0  0  0  0  0  0  0  0  0
   -1.2746   -1.2391   -2.4952 N   0  0  0  0  0  0  0  0  0  0  0  0
   -1.6399   -1.9691   -3.6806 C   0  0  2  0  0  0  0  0  0  0  0  0
   -2.3433   -1.0061   -4.6279 C   0  0  0  0  0  0  0  0  0  0  0  0
   -3.0608   -0.0869   -4.2391 O   0  0  0  0  0  0  0  0  0  0  0  0
   -2.5335   -3.1537   -3.3475 C   0  0  0  0  0  0  0  0  0  0  0  0
   -1.9017   -0.5048   -2.1725 H   0  0  0  0  0  0  0  0  0  0  0  0
   -0.7072   -2.3165   -4.1381 H   0  0  0  0  0  0  0  0  0  0  0  0
   -3.4730   -2.8253   -2.8881 H   0  0  0  0  0  0  0  0  0  0  0  0
   -2.7872   -3.7246   -4.2468 H   0  0  0  0  0  0  0  0  0  0  0  0
   -2.0376   -3.8300   -2.6429 H   0  0  0  0  0  0  0  0  0  0  0  0
   -2.1100   -1.3203   -5.9594 N   0  0  0  0  0  0  0  0  0  0  0  0
   -2.7014   -0.5808   -7.0501 C   0  0  0  0  0  0  0  0  0  0  0  0
   -1.4697   -2.0743   -6.1902 H   0  0  0  0  0  0  0  0  0  0  0  0
   -3.6452   -1.0599   -7.3494 H   0  0  0  0  0  0  0  0  0  0  0  0
   -2.9006    0.4517   -6.7274 H   0  0  0  0  0  0  0  0  0  0  0  0
   -2.0084   -0.5707   -7.9043 H   0  0  0  0  0  0  0  0  0  0  0  0
  1  3  1  0  0  0  0
  1  7  1  0  0  0  0
  1  2  2  0  0  0  0
 28 29  1  0  0  0  0
 29 37  1  0  0  0  0
 29 30  2  0  0  0  0
 18 19  1  0  0  0  0
 19 27  1  0  0  0  0
 19 20  2  0  0  0  0
  8  9  1  0  0  0  0
  9 17  1  0  0  0  0
  9 10  2  0  0  0  0
 28 31  1  0  0  0  0
 18 21  1  0  0  0  0
  8 11  1  0  0  0  0
 37 38  1  0  0  0  0
 27 28  1  0  0  0  0
 17 18  1  0  0  0  0
  7  8  1  0  0  0  0
  3  4  1  0  0  0  0
  3  5  1  0  0  0  0
  3  6  1  0  0  0  0
 31 34  1  0  0  0  0
 31 35  1  0  0  0  0
 31 36  1  0  0  0  0
 21 24  1  0  0  0  0
 21 25  1  0  0  0  0
 21 26  1  0  0  0  0
 11 14  1  0  0  0  0
 11 15  1  0  0  0  0
 11 16  1  0  0  0  0
 38 40  1  0  0  0  0
 38 41  1  0  0  0  0
 38 42  1  0  0  0  0
 28 33  1  0  0  0  0
 18 23  1  0  0  0  0
  8 13  1  0  0  0  0
 37 39  1  0  0  0  0
  7 12  1  0  0  0  0
 27 32  1  0  0  0  0
 17 22  1  0  0  0  0
M  END
$$$$

  -OEChem-05262214473D

 42 41  0     1  0  0  0  0  0999 V2000
   -5.7851   -0.9580    0.6237 C   0  0  0  0  0  0  0  0  0  0  0  0
   -6.2213    0.1296    0.2652 O   0  0  0  0  0  0  0  0  0  0  0  0
   -6.7088   -2.1270    0.7168 C   0  0  0  0  0  0  0  0  0  0  0  0
   -7.1713   -2.2193    1.7126 H   0  0  0  0  0  0  0  0  0  0  0  0
   -7.5511   -2.0547    0.0101 H   0  0  0  0  0  0  0  0  0  0  0  0
   -6.2485   -3.1083    0.5191 H   0  0  0  0  0  0  0  0  0  0  0  0
   -4.4733   -1.2411    0.9668 N   0  0  0  0  0  0  0  0  0  0  0  0
   -3.4203   -0.2603    0.9449 C   0  0  2  0  0  0  0  0  0  0  0  0
   -2.1242   -0.9699    0.5759 C   0  0  0  0  0  0  0  0  0  0  0  0
   -1.8694   -2.1225    0.9189 O   0  0  0  0  0  0  0  0  0  0  0  0
   -3.2916    0.4435    2.2868 C   0  0  0  0  0  0  0  0  0  0  0  0
   -4.2421   -2.1920    1.2489 H   0  0  0  0  0  0  0  0  0  0  0  0
   -3.6772    0.4622    0.1625 H   0  0  0  0  0  0  0  0  0  0  0  0
   -3.0345   -0.2644    3.0832 H   0  0  0  0  0  0  0  0  0  0  0  0
   -2.5093    1.2092    2.2599 H   0  0  0  0  0  0  0  0  0  0  0  0
   -4.2338    0.9283    2.5645 H   0  0  0  0  0  0  0  0  0  0  0  0
   -1.2626   -0.1515   -0.1463 N   0  0  0  0  0  0  0  0  0  0  0  0
    0.0431   -0.5785   -0.5755 C   0  0  2  0  0  0  0  0  0  0  0  0
   -0.1360   -1.5295   -1.7515 C   0  0  0  0  0  0  0  0  0  0  0  0
    0.5001   -2.5744   -1.8721 O   0  0  0  0  0  0  0  0  0  0  0  0
    0.8051   -1.2507    0.5559 C   0  0  0  0  0  0  0  0  0  0  0  0
   -1.5766    0.7776   -0.4197 H   0  0  0  0  0  0  0  0  0  0  0  0
    0.5757    0.3190   -0.9087 H   0  0  0  0  0  0  0  0  0  0  0  0
    0.2867   -2.1519    0.9030 H   0  0  0  0  0  0  0  0  0  0  0  0
    1.8088   -1.5493    0.2359 H   0  0  0  0  0  0  0  0  0  0  0  0
    0.9071   -0.5754    1.4123 H   0  0  0  0  0  0  0  0  0  0  0  0
   -1.0597   -1.0553   -2.6766 N   0  0  0  0  0  0  0  0  0  0  0  0
   -1.3726   -1.7536   -3.8956 C   0  0  2  0  0  0  0  0  0  0  0  0
   -1.7072   -0.7162   -4.9592 C   0  0  0  0  0  0  0  0  0  0  0  0
   -2.2763    0.3438   -4.7068 O   0  0  0  0  0  0  0  0  0  0  0  0
   -2.5286   -2.7216   -3.6977 C   0  0  0  0  0  0  0  0  0  0  0  0
   -1.5683   -0.1974   -2.4719 H   0  0  0  0  0  0  0  0  0  0  0  0
   -0.4689   -2.2992   -4.1883 H   0  0  0  0  0  0  0  0  0  0  0  0
   -3.4429   -2.1931   -3.4040 H   0  0  0  0  0  0  0  0  0  0  0  0
   -2.7467   -3.2727   -4.6184 H   0  0  0  0  0  0  0  0  0  0  0  0
   -2.2980   -3.4487   -2.9116 H   0  0  0  0  0  0  0  0  0  0  0  0
   -1.3343   -1.1323   -6.2296 N   0  0  0  0  0  0  0  0  0  0  0  0
   -1.5833   -0.3426   -7.4130 C   0  0  0  0  0  0  0  0  0  0  0  0
   -0.8315   -2.0078   -6.3412 H   0  0  0  0  0  0  0  0  0  0  0  0
   -2.5449   -0.6395   -7.8570 H   0  0  0  0  0  0  0  0  0  0  0  0
   -1.6181    0.7229   -7.1420 H   0  0  0  0  0  0  0  0  0  0  0  0
   -0.7762   -0.5095   -8.1415 H   0  0  0  0  0  0  0  0  0  0  0  0
  1  3  1  0  0  0  0
  1  7  1  0  0  0  0
  1  2  2  0  0  0  0
 28 29  1  0  0  0  0
 29 37  1  0  0  0  0
 29 30  2  0  0  0  0
 18 19  1  0  0  0  0
 19 27  1  0  0  0  0
 19 20  2  0  0  0  0
  8  9  1  0  0  0  0
  9 17  1  0  0  0  0
  9 10  2  0  0  0  0
 28 31  1  0  0  0  0
 18 21  1  0  0  0  0
  8 11  1  0  0  0  0
 37 38  1  0  0  0  0
 27 28  1  0  0  0  0
 17 18  1  0  0  0  0
  7  8  1  0  0  0  0
  3  4  1  0  0  0  0
  3  5  1  0  0  0  0
  3  6  1  0  0  0  0
 31 34  1  0  0  0  0
 31 35  1  0  0  0  0
 31 36  1  0  0  0  0
 21 24  1  0  0  0  0
 21 25  1  0  0  0  0
 21 26  1  0  0  0  0
 11 14  1  0  0  0  0
 11 15  1  0  0  0  0
 11 16  1  0  0  0  0
 38 40  1  0  0  0  0
 38 41  1  0  0  0  0
 38 42  1  0  0  0  0
 28 33  1  0  0  0  0
 18 23  1  0  0  0  0
  8 13  1  0  0  0  0
 37 39  1  0  0  0  0
  7 12  1  0  0  0  0
 27 32  1  0  0  0  0
 17 22  1  0  0  0  0
M  END
$$$$

  -OEChem-05262214473D

 42 41  0     1  0  0  0  0  0999 V2000
   -5.7851   -0.9580    0.6237 C   0  0  0  0  0  0  0  0  0  0  0  0
   -6.2213    0.1296    0.2652 O   0  0  0  0  0  0  0  0  0  0  0  0
   -6.7088   -2.1270    0.7168 C   0  0  0  0  0  0  0  0  0  0  0  0
   -7.1713   -2.2193    1.7126 H   0  0  0  0  0  0  0  0  0  0  0  0
   -7.5511   -2.0547    0.0101 H   0  0  0  0  0  0  0  0  0  0  0  0
   -6.2485   -3.1083    0.5191 H   0  0  0  0  0  0  0  0  0  0  0  0
   -4.4733   -1.2411    0.9668 N   0  0  0  0  0  0  0  0  0  0  0  0
   -3.4203   -0.2603    0.9449 C   0  0  2  0  0  0  0  0  0  0  0  0
   -2.1242   -0.9699    0.5759 C   0  0  0  0  0  0  0  0  0  0  0  0
   -1.8694   -2.1225    0.9189 O   0  0  0  0  0  0  0  0  0  0  0  0
   -3.2916    0.4435    2.2868 C   0  0  0  0  0  0  0  0  0  0  0  0
   -4.2421   -2.1920    1.2489 H   0  0  0  0  0  0  0  0  0  0  0  0
   -3.6772    0.4622    0.1625 H   0  0  0  0  0  0  0  0  0  0  0  0
   -3.0345   -0.2644    3.0832 H   0  0  0  0  0  0  0  0  0  0  0  0
   -2.5093    1.2092    2.2599 H   0  0  0  0  0  0  0  0  0  0  0  0
   -4.2338    0.9283    2.5645 H   0  0  0  0  0  0  0  0  0  0  0  0
   -1.2626   -0.1515   -0.1463 N   0  0  0  0  0  0  0  0  0  0  0  0
    0.0431   -0.5785   -0.5755 C   0  0  2  0  0  0  0  0  0  0  0  0
   -0.1360   -1.5295   -1.7515 C   0  0  0  0  0  0  0  0  0  0  0  0
    0.2864   -2.6839   -1.7510 O   0  0  0  0  0  0  0  0  0  0  0  0
    0.8051   -1.2507    0.5559 C   0  0  0  0  0  0  0  0  0  0  0  0
   -1.5766    0.7776   -0.4197 H   0  0  0  0  0  0  0  0  0  0  0  0
    0.5757    0.3190   -0.9087 H   0  0  0  0  0  0  0  0  0  0  0  0
    0.2867   -2.1519    0.9030 H   0  0  0  0  0  0  0  0  0  0  0  0
    1.8088   -1.5493    0.2359 H   0  0  0  0  0  0  0  0  0  0  0  0
    0.9071   -0.5754    1.4123 H   0  0  0  0  0  0  0  0  0  0  0  0
   -0.7861   -0.9262   -2.8226 N   0  0  0  0  0  0  0  0  0  0  0  0
   -1.0365   -1.6054   -4.0666 C   0  0  2  0  0  0  0  0  0  0  0  0
   -0.9814   -0.5734   -5.1852 C   0  0  0  0  0  0  0  0  0  0  0  0
   -1.3569    0.5887   -5.0449 O   0  0  0  0  0  0  0  0  0  0  0  0
   -2.3810   -2.3158   -4.0483 C   0  0  0  0  0  0  0  0  0  0  0  0
   -1.1364    0.0238   -2.7166 H   0  0  0  0  0  0  0  0  0  0  0  0
   -0.2272   -2.3318   -4.1988 H   0  0  0  0  0  0  0  0  0  0  0  0
   -3.2041   -1.6041   -3.9166 H   0  0  0  0  0  0  0  0  0  0  0  0
   -2.5573   -2.8556   -4.9846 H   0  0  0  0  0  0  0  0  0  0  0  0
   -2.4298   -3.0365   -3.2248 H   0  0  0  0  0  0  0  0  0  0  0  0
   -0.5038   -1.1139   -6.3709 N   0  0  0  0  0  0  0  0  0  0  0  0
   -0.3970   -0.3470   -7.5901 C   0  0  0  0  0  0  0  0  0  0  0  0
   -0.1774   -2.0757   -6.3859 H   0  0  0  0  0  0  0  0  0  0  0  0
   -1.3160   -0.4688   -8.1822 H   0  0  0  0  0  0  0  0  0  0  0  0
   -0.2580    0.7159   -7.3435 H   0  0  0  0  0  0  0  0  0  0  0  0
    0.4647   -0.7039   -8.1733 H   0  0  0  0  0  0  0  0  0  0  0  0
  1  3  1  0  0  0  0
  1  7  1  0  0  0  0
  1  2  2  0  0  0  0
 28 29  1  0  0  0  0
 29 37  1  0  0  0  0
 29 30  2  0  0  0  0
 18 19  1  0  0  0  0
 19 27  1  0  0  0  0
 19 20  2  0  0  0  0
  8  9  1  0  0  0  0
  9 17  1  0  0  0  0
  9 10  2  0  0  0  0
 28 31  1  0  0  0  0
 18 21  1  0  0  0  0
  8 11  1  0  0  0  0
 37 38  1  0  0  0  0
 27 28  1  0  0  0  0
 17 18  1  0  0  0  0
  7  8  1  0  0  0  0
  3  4  1  0  0  0  0
  3  5  1  0  0  0  0
  3  6  1  0  0  0  0
 31 34  1  0  0  0  0
 31 35  1  0  0  0  0
 31 36  1  0  0  0  0
 21 24  1  0  0  0  0
 21 25  1  0  0  0  0
 21 26  1  0  0  0  0
 11 14  1  0  0  0  0
 11 15  1  0  0  0  0
 11 16  1  0  0  0  0
 38 40  1  0  0  0  0
 38 41  1  0  0  0  0
 38 42  1  0  0  0  0
 28 33  1  0  0  0  0
 18 23  1  0  0  0  0
  8 13  1  0  0  0  0
 37 39  1  0  0  0  0
  7 12  1  0  0  0  0
 27 32  1  0  0  0  0
 17 22  1  0  0  0  0
M  END
$$$$

  -OEChem-05262214473D

 42 41  0     1  0  0  0  0  0999 V2000
   -5.7851   -0.9580    0.6237 C   0  0  0  0  0  0  0  0  0  0  0  0
   -6.2213    0.1296    0.2652 O   0  0  0  0  0  0  0  0  0  0  0  0
   -6.7088   -2.1270    0.7168 C   0  0  0  0  0  0  0  0  0  0  0  0
   -7.1713   -2.2193    1.7126 H   0  0  0  0  0  0  0  0  0  0  0  0
   -7.5511   -2.0547    0.0101 H   0  0  0  0  0  0  0  0  0  0  0  0
   -6.2485   -3.1083    0.5191 H   0  0  0  0  0  0  0  0  0  0  0  0
   -4.4733   -1.2411    0.9668 N   0  0  0  0  0  0  0  0  0  0  0  0
   -3.4203   -0.2603    0.9449 C   0  0  2  0  0  0  0  0  0  0  0  0
   -2.1242   -0.9699    0.5759 C   0  0  0  0  0  0  0  0  0  0  0  0
   -1.8694   -2.1225    0.9189 O   0  0  0  0  0  0  0  0  0  0  0  0
   -3.2916    0.4435    2.2868 C   0  0  0  0  0  0  0  0  0  0  0  0
   -4.2421   -2.1920    1.2489 H   0  0  0  0  0  0  0  0  0  0  0  0
   -3.6772    0.4622    0.1625 H   0  0  0  0  0  0  0  0  0  0  0  0
   -3.0345   -0.2644    3.0832 H   0  0  0  0  0  0  0  0  0  0  0  0
   -2.5093    1.2092    2.2599 H   0  0  0  0  0  0  0  0  0  0  0  0
   -4.2338    0.9283    2.5645 H   0  0  0  0  0  0  0  0  0  0  0  0
   -1.2626   -0.1515   -0.1463 N   0  0  0  0  0  0  0  0  0  0  0  0
    0.0431   -0.5785   -0.5755 C   0  0  2  0  0  0  0  0  0  0  0  0
   -0.1360   -1.5295   -1.7515 C   0  0  0  0  0  0  0  0  0  0  0  0
    0.0385   -2.7432   -1.6653 O   0  0  0  0  0  0  0  0  0  0  0  0
    0.8051   -1.2507    0.5559 C   0  0  0  0  0  0  0  0  0  0  0  0
   -1.5766    0.7776   -0.4197 H   0  0  0  0  0  0  0  0  0  0  0  0
    0.5757    0.3190   -0.9087 H   0  0  0  0  0  0  0  0  0  0  0  0
    0.2867   -2.1519    0.9030 H   0  0  0  0  0  0  0  0  0  0  0  0
    1.8088   -1.5493    0.2359 H   0  0  0  0  0  0  0  0  0  0  0  0
    0.9071   -0.5754    1.4123 H   0  0  0  0  0  0  0  0  0  0  0  0
   -0.4724   -0.8607   -2.9234 N   0  0  0  0  0  0  0  0  0  0  0  0
   -0.6546   -1.5346   -4.1820 C   0  0  2  0  0  0  0  0  0  0  0  0
   -0.2152   -0.5874   -5.2906 C   0  0  0  0  0  0  0  0  0  0  0  0
   -0.3651    0.6312   -5.2304 O   0  0  0  0  0  0  0  0  0  0  0  0
   -2.1006   -1.9641   -4.3754 C   0  0  0  0  0  0  0  0  0  0  0  0
   -0.6355    0.1437   -2.8899 H   0  0  0  0  0  0  0  0  0  0  0  0
    0.0015   -2.4118   -4.1689 H   0  0  0  0  0  0  0  0  0  0  0  0
   -2.7729   -1.0986   -4.3911 H   0  0  0  0  0  0  0  0  0  0  0  0
   -2.2318   -2.5017   -5.3203 H   0  0  0  0  0  0  0  0  0  0  0  0
   -2.4241   -2.6215   -3.5612 H   0  0  0  0  0  0  0  0  0  0  0  0
    0.3249   -1.2665   -6.3738 N   0  0  0  0  0  0  0  0  0  0  0  0
    0.7766   -0.5938   -7.5694 C   0  0  0  0  0  0  0  0  0  0  0  0
    0.4481   -2.2734   -6.3213 H   0  0  0  0  0  0  0  0  0  0  0  0
   -0.0423   -0.5594   -8.3030 H   0  0  0  0  0  0  0  0  0  0  0  0
    1.0870    0.4312   -7.3182 H   0  0  0  0  0  0  0  0  0  0  0  0
    1.6296   -1.1406   -7.9976 H   0  0  0  0  0  0  0  0  0  0  0  0
  1  3  1  0  0  0  0
  1  7  1  0  0  0  0
  1  2  2  0  0  0  0
 28 29  1  0  0  0  0
 29 37  1  0  0  0  0
 29 30  2  0  0  0  0
 18 19  1  0  0  0  0
 19 27  1  0  0  0  0
 19 20  2  0  0  0  0
  8  9  1  0  0  0  0
  9 17  1  0  0  0  0
  9 10  2  0  0  0  0
 28 31  1  0  0  0  0
 18 21  1  0  0  0  0
  8 11  1  0  0  0  0
 37 38  1  0  0  0  0
 27 28  1  0  0  0  0
 17 18  1  0  0  0  0
  7  8  1  0  0  0  0
  3  4  1  0  0  0  0
  3  5  1  0  0  0  0
  3  6  1  0  0  0  0
 31 34  1  0  0  0  0
 31 35  1  0  0  0  0
 31 36  1  0  0  0  0
 21 24  1  0  0  0  0
 21 25  1  0  0  0  0
 21 26  1  0  0  0  0
 11 14  1  0  0  0  0
 11 15  1  0  0  0  0
 11 16  1  0  0  0  0
 38 40  1  0  0  0  0
 38 41  1  0  0  0  0
 38 42  1  0  0  0  0
 28 33  1  0  0  0  0
 18 23  1  0  0  0  0
  8 13  1  0  0  0  0
 37 39  1  0  0  0  0
  7 12  1  0  0  0  0
 27 32  1  0  0  0  0
 17 22  1  0  0  0  0
M  END
$$$$

  -OEChem-05262214473D

 42 41  0     1  0  0  0  0  0999 V2000
   -5.7851   -0.9580    0.6237 C   0  0  0  0  0  0  0  0  0  0  0  0
   -6.2213    0.1296    0.2652 O   0  0  0  0  0  0  0  0  0  0  0  0
   -6.7088   -2.1270    0.7168 C   0  0  0  0  0  0  0  0  0  0  0  0
   -7.1713   -2.2193    1.7126 H   0  0  0  0  0  0  0  0  0  0  0  0
   -7.5511   -2.0547    0.0101 H   0  0  0  0  0  0  0  0  0  0  0  0
   -6.2485   -3.1083    0.5191 H   0  0  0  0  0  0  0  0  0  0  0  0
   -4.4733   -1.2411    0.9668 N   0  0  0  0  0  0  0  0  0  0  0  0
   -3.4203   -0.2603    0.9449 C   0  0  2  0  0  0  0  0  0  0  0  0
   -2.1242   -0.9699    0.5759 C   0  0  0  0  0  0  0  0  0  0  0  0
   -1.8694   -2.1225    0.9189 O   0  0  0  0  0  0  0  0  0  0  0  0
   -3.2916    0.4435    2.2868 C   0  0  0  0  0  0  0  0  0  0  0  0
   -4.2421   -2.1920    1.2489 H   0  0  0  0  0  0  0  0  0  0  0  0
   -3.6772    0.4622    0.1625 H   0  0  0  0  0  0  0  0  0  0  0  0
   -3.0345   -0.2644    3.0832 H   0  0  0  0  0  0  0  0  0  0  0  0
   -2.5093    1.2092    2.2599 H   0  0  0  0  0  0  0  0  0  0  0  0
   -4.2338    0.9283    2.5645 H   0  0  0  0  0  0  0  0  0  0  0  0
   -1.2626   -0.1515   -0.1463 N   0  0  0  0  0  0  0  0  0  0  0  0
    0.0431   -0.5785   -0.5755 C   0  0  2  0  0  0  0  0  0  0  0  0
   -0.1360   -1.5295   -1.7515 C   0  0  0  0  0  0  0  0  0  0  0  0
   -0.2266   -2.7484   -1.6207 O   0  0  0  0  0  0  0  0  0  0  0  0
    0.8051   -1.2507    0.5559 C   0  0  0  0  0  0  0  0  0  0  0  0
   -1.5766    0.7776   -0.4197 H   0  0  0  0  0  0  0  0  0  0  0  0
    0.5757    0.3190   -0.9087 H   0  0  0  0  0  0  0  0  0  0  0  0
    0.2867   -2.1519    0.9030 H   0  0  0  0  0  0  0  0  0  0  0  0
    1.8088   -1.5493    0.2359 H   0  0  0  0  0  0  0  0  0  0  0  0
    0.9071   -0.5754    1.4123 H   0  0  0  0  0  0  0  0  0  0  0  0
   -0.1400   -0.8631   -2.9721 N   0  0  0  0  0  0  0  0  0  0  0  0
   -0.2529   -1.5461   -4.2339 C   0  0  2  0  0  0  0  0  0  0  0  0
    0.5392   -0.7572   -5.2682 C   0  0  0  0  0  0  0  0  0  0  0  0
    0.6313    0.4685   -5.2505 O   0  0  0  0  0  0  0  0  0  0  0  0
   -1.7066   -1.6904   -4.6568 C   0  0  0  0  0  0  0  0  0  0  0  0
   -0.0997    0.1542   -2.9799 H   0  0  0  0  0  0  0  0  0  0  0  0
    0.2015   -2.5339   -4.1007 H   0  0  0  0  0  0  0  0  0  0  0  0
   -2.1787   -0.7109   -4.7952 H   0  0  0  0  0  0  0  0  0  0  0  0
   -1.7924   -2.2352   -5.6028 H   0  0  0  0  0  0  0  0  0  0  0  0
   -2.2813   -2.2321   -3.8979 H   0  0  0  0  0  0  0  0  0  0  0  0
    1.0954   -1.5796   -6.2380 N   0  0  0  0  0  0  0  0  0  0  0  0
    1.8575   -1.0660   -7.3521 C   0  0  0  0  0  0  0  0  0  0  0  0
    1.0023   -2.5874   -6.1518 H   0  0  0  0  0  0  0  0  0  0  0  0
    1.1894   -0.9051   -8.2110 H   0  0  0  0  0  0  0  0  0  0  0  0
    2.3251   -0.1118   -7.0676 H   0  0  0  0  0  0  0  0  0  0  0  0
    2.6391   -1.7899   -7.6263 H   0  0  0  0  0  0  0  0  0  0  0  0
  1  3  1  0  0  0  0
  1  7  1  0  0  0  0
  1  2  2  0  0  0  0
 28 29  1  0  0  0  0
 29 37  1  0  0  0  0
 29 30  2  0  0  0  0
 18 19  1  0  0  0  0
 19 27  1  0  0  0  0
 19 20  2  0  0  0  0
  8  9  1  0  0  0  0
  9 17  1  0  0  0  0
  9 10  2  0  0  0  0
 28 31  1  0  0  0  0
 18 21  1  0  0  0  0
  8 11  1  0  0  0  0
 37 38  1  0  0  0  0
 27 28  1  0  0  0  0
 17 18  1  0  0  0  0
  7  8  1  0  0  0  0
  3  4  1  0  0  0  0
  3  5  1  0  0  0  0
  3  6  1  0  0  0  0
 31 34  1  0  0  0  0
 31 35  1  0  0  0  0
 31 36  1  0  0  0  0
 21 24  1  0  0  0  0
 21 25  1  0  0  0  0
 21 26  1  0  0  0  0
 11 14  1  0  0  0  0
 11 15  1  0  0  0  0
 11 16  1  0  0  0  0
 38 40  1  0  0  0  0
 38 41  1  0  0  0  0
 38 42  1  0  0  0  0
 28 33  1  0  0  0  0
 18 23  1  0  0  0  0
  8 13  1  0  0  0  0
 37 39  1  0  0  0  0
  7 12  1  0  0  0  0
 27 32  1  0  0  0  0
 17 22  1  0  0  0  0
M  END
$$$$

  -OEChem-05262214473D

 42 41  0     1  0  0  0  0  0999 V2000
   -5.7851   -0.9580    0.6237 C   0  0  0  0  0  0  0  0  0  0  0  0
   -6.2213    0.1296    0.2652 O   0  0  0  0  0  0  0  0  0  0  0  0
   -6.7088   -2.1270    0.7168 C   0  0  0  0  0  0  0  0  0  0  0  0
   -7.1713   -2.2193    1.7126 H   0  0  0  0  0  0  0  0  0  0  0  0
   -7.5511   -2.0547    0.0101 H   0  0  0  0  0  0  0  0  0  0  0  0
   -6.2485   -3.1083    0.5191 H   0  0  0  0  0  0  0  0  0  0  0  0
   -4.4733   -1.2411    0.9668 N   0  0  0  0  0  0  0  0  0  0  0  0
   -3.4203   -0.2603    0.9449 C   0  0  2  0  0  0  0  0  0  0  0  0
   -2.1242   -0.9699    0.5759 C   0  0  0  0  0  0  0  0  0  0  0  0
   -1.8694   -2.1225    0.9189 O   0  0  0  0  0  0  0  0  0  0  0  0
   -3.2916    0.4435    2.2868 C   0  0  0  0  0  0  0  0  0  0  0  0
   -4.2421   -2.1920    1.2489 H   0  0  0  0  0  0  0  0  0  0  0  0
   -3.6772    0.4622    0.1625 H   0  0  0  0  0  0  0  0  0  0  0  0
   -3.0345   -0.2644    3.0832 H   0  0  0  0  0  0  0  0  0  0  0  0
   -2.5093    1.2092    2.2599 H   0  0  0  0  0  0  0  0  0  0  0  0
   -4.2338    0.9283    2.5645 H   0  0  0  0  0  0  0  0  0  0  0  0
   -1.2626   -0.1515   -0.1463 N   0  0  0  0  0  0  0  0  0  0  0  0
    0.0431   -0.5785   -0.5755 C   0  0  2  0  0  0  0  0  0  0  0  0
   -0.1360   -1.5295   -1.7515 C   0  0  0  0  0  0  0  0  0  0  0  0
   -0.4910   -2.6990   -1.6203 O   0  0  0  0  0  0  0  0  0  0  0  0
    0.8051   -1.2507    0.5559 C   0  0  0  0  0  0  0  0  0  0  0  0
   -1.5766    0.7776   -0.4197 H   0  0  0  0  0  0  0  0  0  0  0  0
    0.5757    0.3190   -0.9087 H   0  0  0  0  0  0  0  0  0  0  0  0
    0.2867   -2.1519    0.9030 H   0  0  0  0  0  0  0  0  0  0  0  0
    1.8088   -1.5493    0.2359 H   0  0  0  0  0  0  0  0  0  0  0  0
    0.9071   -0.5754    1.4123 H   0  0  0  0  0  0  0  0  0  0  0  0
    0.1885   -0.9334   -2.9653 N   0  0  0  0  0  0  0  0  0  0  0  0
    0.1411   -1.6390   -4.2188 C   0  0  2  0  0  0  0  0  0  0  0  0
    1.2302   -1.0713   -5.1194 C   0  0  0  0  0  0  0  0  0  0  0  0
    1.5644    0.1115   -5.1040 O   0  0  0  0  0  0  0  0  0  0  0  0
   -1.2258   -1.5133   -4.8733 C   0  0  0  0  0  0  0  0  0  0  0  0
    0.4345    0.0544   -2.9806 H   0  0  0  0  0  0  0  0  0  0  0  0
    0.3593   -2.6897   -3.9987 H   0  0  0  0  0  0  0  0  0  0  0  0
   -1.4619   -0.4674   -5.1012 H   0  0  0  0  0  0  0  0  0  0  0  0
   -1.2690   -2.0742   -5.8127 H   0  0  0  0  0  0  0  0  0  0  0  0
   -2.0112   -1.8947   -4.2119 H   0  0  0  0  0  0  0  0  0  0  0  0
    1.7551   -2.0319   -5.9727 N   0  0  0  0  0  0  0  0  0  0  0  0
    2.7721   -1.7316   -6.9532 C   0  0  0  0  0  0  0  0  0  0  0  0
    1.4475   -2.9963   -5.8889 H   0  0  0  0  0  0  0  0  0  0  0  0
    2.2951   -1.4824   -7.9126 H   0  0  0  0  0  0  0  0  0  0  0  0
    3.3719   -0.8762   -6.6090 H   0  0  0  0  0  0  0  0  0  0  0  0
    3.4244   -2.6075   -7.0848 H   0  0  0  0  0  0  0  0  0  0  0  0
  1  3  1  0  0  0  0
  1  7  1  0  0  0  0
  1  2  2  0  0  0  0
 28 29  1  0  0  0  0
 29 37  1  0  0  0  0
 29 30  2  0  0  0  0
 18 19  1  0  0  0  0
 19 27  1  0  0  0  0
 19 20  2  0  0  0  0
  8  9  1  0  0  0  0
  9 17  1  0  0  0  0
  9 10  2  0  0  0  0
 28 31  1  0  0  0  0
 18 21  1  0  0  0  0
  8 11  1  0  0  0  0
 37 38  1  0  0  0  0
 27 28  1  0  0  0  0
 17 18  1  0  0  0  0
  7  8  1  0  0  0  0
  3  4  1  0  0  0  0
  3  5  1  0  0  0  0
  3  6  1  0  0  0  0
 31 34  1  0  0  0  0
 31 35  1  0  0  0  0
 31 36  1  0  0  0  0
 21 24  1  0  0  0  0
 21 25  1  0  0  0  0
 21 26  1  0  0  0  0
 11 14  1  0  0  0  0
 11 15  1  0  0  0  0
 11 16  1  0  0  0  0
 38 40  1  0  0  0  0
 38 41  1  0  0  0  0
 38 42  1  0  0  0  0
 28 33  1  0  0  0  0
 18 23  1  0  0  0  0
  8 13  1  0  0  0  0
 37 39  1  0  0  0  0
  7 12  1  0  0  0  0
 27 32  1  0  0  0  0
 17 22  1  0  0  0  0
M  END
$$$$

  -OEChem-05262214473D

 42 41  0     1  0  0  0  0  0999 V2000
   -5.7851   -0.9580    0.6237 C   0  0  0  0  0  0  0  0  0  0  0  0
   -6.2213    0.1296    0.2652 O   0  0  0  0  0  0  0  0  0  0  0  0
   -6.7088   -2.1270    0.7168 C   0  0  0  0  0  0  0  0  0  0  0  0
   -7.1713   -2.2193    1.7126 H   0  0  0  0  0  0  0  0  0  0  0  0
   -7.5511   -2.0547    0.0101 H   0  0  0  0  0  0  0  0  0  0  0  0
   -6.2485   -3.1083    0.5191 H   0  0  0  0  0  0  0  0  0  0  0  0
   -4.4733   -1.2411    0.9668 N   0  0  0  0  0  0  0  0  0  0  0  0
   -3.4203   -0.2603    0.9449 C   0  0  2  0  0  0  0  0  0  0  0  0
   -2.1242   -0.9699    0.5759 C   0  0  0  0  0  0  0  0  0  0  0  0
   -1.8694   -2.1225    0.9189 O   0  0  0  0  0  0  0  0  0  0  0  0
   -3.2916    0.4435    2.2868 C   0  0  0  0  0  0  0  0  0  0  0  0
   -4.2421   -2.1920    1.2489 H   0  0  0  0  0  0  0  0  0  0  0  0
   -3.6772    0.4622    0.1625 H   0  0  0  0  0  0  0  0  0  0  0  0
   -3.0345   -0.2644    3.0832 H   0  0  0  0  0  0  0  0  0  0  0  0
   -2.5093    1.2092    2.2599 H   0  0  0  0  0  0  0  0  0  0  0  0
   -4.2338    0.9283    2.5645 H   0  0  0  0  0  0  0  0  0  0  0  0
   -1.2626   -0.1515   -0.1463 N   0  0  0  0  0  0  0  0  0  0  0  0
    0.0431   -0.5785   -0.5755 C   0  0  2  0  0  0  0  0  0  0  0  0
   -0.1360   -1.5295   -1.7515 C   0  0  0  0  0  0  0  0  0  0  0  0
   -0.7365   -2.5985   -1.6642 O   0  0  0  0  0  0  0  0  0  0  0  0
    0.8051   -1.2507    0.5559 C   0  0  0  0  0  0  0  0  0  0  0  0
   -1.5766    0.7776   -0.4197 H   0  0  0  0  0  0  0  0  0  0  0  0
    0.5757    0.3190   -0.9087 H   0  0  0  0  0  0  0  0  0  0  0  0
    0.2867   -2.1519    0.9030 H   0  0  0  0  0  0  0  0  0  0  0  0
    1.8088   -1.5493    0.2359 H   0  0  0  0  0  0  0  0  0  0  0  0
    0.9071   -0.5754    1.4123 H   0  0  0  0  0  0  0  0  0  0  0  0
    0.4906   -1.0667   -2.9035 N   0  0  0  0  0  0  0  0  0  0  0  0
    0.5008   -1.8071   -4.1376 C   0  0  2  0  0  0  0  0  0  0  0  0
    1.8109   -1.5084   -4.8545 C   0  0  0  0  0  0  0  0  0  0  0  0
    2.3708   -0.4153   -4.8008 O   0  0  0  0  0  0  0  0  0  0  0  0
   -0.6910   -1.4449   -5.0101 C   0  0  0  0  0  0  0  0  0  0  0  0
    0.9307   -0.1487   -2.8919 H   0  0  0  0  0  0  0  0  0  0  0  0
    0.4641   -2.8687   -3.8699 H   0  0  0  0  0  0  0  0  0  0  0  0
   -0.6715   -0.3849   -5.2884 H   0  0  0  0  0  0  0  0  0  0  0  0
   -0.6974   -2.0296   -5.9358 H   0  0  0  0  0  0  0  0  0  0  0  0
   -1.6320   -1.6324   -4.4818 H   0  0  0  0  0  0  0  0  0  0  0  0
    2.2590   -2.5925   -5.5961 N   0  0  0  0  0  0  0  0  0  0  0  0
    3.4581   -2.5451   -6.3998 C   0  0  0  0  0  0  0  0  0  0  0  0
    1.7534   -3.4723   -5.5506 H   0  0  0  0  0  0  0  0  0  0  0  0
    3.1996   -2.2519   -7.4280 H   0  0  0  0  0  0  0  0  0  0  0  0
    4.1563   -1.8097   -5.9735 H   0  0  0  0  0  0  0  0  0  0  0  0
    3.9321   -3.5377   -6.4098 H   0  0  0  0  0  0  0  0  0  0  0  0
  1  3  1  0  0  0  0
  1  7  1  0  0  0  0
  1  2  2  0  0  0  0
 28 29  1  0  0  0  0
 29 37  1  0  0  0  0
 29 30  2  0  0  0  0
 18 19  1  0  0  0  0
 19 27  1  0  0  0  0
 19 20  2  0  0  0  0
  8  9  1  0  0  0  0
  9 17  1  0  0  0  0
  9 10  2  0  0  0  0
 28 31  1  0  0  0  0
 18 21  1  0  0  0  0
  8 11  1  0  0  0  0
 37 38  1  0  0  0  0
 27 28  1  0  0  0  0
 17 18  1  0  0  0  0
  7  8  1  0  0  0  0
  3  4  1  0  0  0  0
  3  5  1  0  0  0  0
  3  6  1  0  0  0  0
 31 34  1  0  0  0  0
 31 35  1  0  0  0  0
 31 36  1  0  0  0  0
 21 24  1  0  0  0  0
 21 25  1  0  0  0  0
 21 26  1  0  0  0  0
 11 14  1  0  0  0  0
 11 15  1  0  0  0  0
 11 16  1  0  0  0  0
 38 40  1  0  0  0  0
 38 41  1  0  0  0  0
 38 42  1  0  0  0  0
 28 33  1  0  0  0  0
 18 23  1  0  0  0  0
  8 13  1  0  0  0  0
 37 39  1  0  0  0  0
  7 12  1  0  0  0  0
 27 32  1  0  0  0  0
 17 22  1  0  0  0  0
M  END
$$$$

  -OEChem-05262214473D

 42 41  0     1  0  0  0  0  0999 V2000
   -5.7851   -0.9580    0.6237 C   0  0  0  0  0  0  0  0  0  0  0  0
   -6.2213    0.1296    0.2652 O   0  0  0  0  0  0  0  0  0  0  0  0
   -6.7088   -2.1270    0.7168 C   0  0  0  0  0  0  0  0  0  0  0  0
   -7.1713   -2.2193    1.7126 H   0  0  0  0  0  0  0  0  0  0  0  0
   -7.5511   -2.0547    0.0101 H   0  0  0  0  0  0  0  0  0  0  0  0
   -6.2485   -3.1083    0.5191 H   0  0  0  0  0  0  0  0  0  0  0  0
   -4.4733   -1.2411    0.9668 N   0  0  0  0  0  0  0  0  0  0  0  0
   -3.4203   -0.2603    0.9449 C   0  0  2  0  0  0  0  0  0  0  0  0
   -2.1242   -0.9699    0.5759 C   0  0  0  0  0  0  0  0  0  0  0  0
   -1.8694   -2.1225    0.9189 O   0  0  0  0  0  0  0  0  0  0  0  0
   -3.2916    0.4435    2.2868 C   0  0  0  0  0  0  0  0  0  0  0  0
   -4.2421   -2.1920    1.2489 H   0  0  0  0  0  0  0  0  0  0  0  0
   -3.6772    0.4622    0.1625 H   0  0  0  0  0  0  0  0  0  0  0  0
   -3.0345   -0.2644    3.0832 H   0  0  0  0  0  0  0  0  0  0  0  0
   -2.5093    1.2092    2.2599 H   0  0  0  0  0  0  0  0  0  0  0  0
   -4.2338    0.9283    2.5645 H   0  0  0  0  0  0  0  0  0  0  0  0
   -1.2626   -0.1515   -0.1463 N   0  0  0  0  0  0  0  0  0  0  0  0
    0.0431   -0.5785   -0.5755 C   0  0  2  0  0  0  0  0  0  0  0  0
   -0.1360   -1.5295   -1.7515 C   0  0  0  0  0  0  0  0  0  0  0  0
   -0.9465   -2.4537   -1.7494 O   0  0  0  0  0  0  0  0  0  0  0  0
    0.8051   -1.2507    0.5559 C   0  0  0  0  0  0  0  0  0  0  0  0
   -1.5766    0.7776   -0.4197 H   0  0  0  0  0  0  0  0  0  0  0  0
    0.5757    0.3190   -0.9087 H   0  0  0  0  0  0  0  0  0  0  0  0
    0.2867   -2.1519    0.9030 H   0  0  0  0  0  0  0  0  0  0  0  0
    1.8088   -1.5493    0.2359 H   0  0  0  0  0  0  0  0  0  0  0  0
    0.9071   -0.5754    1.4123 H   0  0  0  0  0  0  0  0  0  0  0  0
    0.7458   -1.2540   -2.7909 N   0  0  0  0  0  0  0  0  0  0  0  0
    0.8015   -2.0388   -3.9960 C   0  0  2  0  0  0  0  0  0  0  0  0
    2.2416   -2.0385   -4.4914 C   0  0  0  0  0  0  0  0  0  0  0  0
    2.9954   -1.0761   -4.3616 O   0  0  0  0  0  0  0  0  0  0  0  0
   -0.1387   -1.4898   -5.0578 C   0  0  0  0  0  0  0  0  0  0  0  0
    1.3550   -0.4414   -2.7199 H   0  0  0  0  0  0  0  0  0  0  0  0
    0.5088   -3.0586   -3.7232 H   0  0  0  0  0  0  0  0  0  0  0  0
    0.1388   -0.4688   -5.3440 H   0  0  0  0  0  0  0  0  0  0  0  0
   -0.1164   -2.1046   -5.9637 H   0  0  0  0  0  0  0  0  0  0  0  0
   -1.1698   -1.4630   -4.6892 H   0  0  0  0  0  0  0  0  0  0  0  0
    2.5729   -3.2232   -5.1338 N   0  0  0  0  0  0  0  0  0  0  0  0
    3.8686   -3.4512   -5.7296 C   0  0  0  0  0  0  0  0  0  0  0  0
    1.8990   -3.9828   -5.1599 H   0  0  0  0  0  0  0  0  0  0  0  0
    3.8412   -3.1613   -6.7904 H   0  0  0  0  0  0  0  0  0  0  0  0
    4.6246   -2.8489   -5.2045 H   0  0  0  0  0  0  0  0  0  0  0  0
    4.1274   -4.5172   -5.6476 H   0  0  0  0  0  0  0  0  0  0  0  0
  1  3  1  0  0  0  0
  1  7  1  0  0  0  0
  1  2  2  0  0  0  0
 28 29  1  0  0  0  0
 29 37  1  0  0  0  0
 29 30  2  0  0  0  0
 18 19  1  0  0  0  0
 19 27  1  0  0  0  0
 19 20  2  0  0  0  0
  8  9  1  0  0  0  0
  9 17  1  0  0  0  0
  9 10  2  0  0  0  0
 28 31  1  0  0  0  0
 18 21  1  0  0  0  0
  8 11  1  0  0  0  0
 37 38  1  0  0  0  0
 27 28  1  0  0  0  0
 17 18  1  0  0  0  0
  7  8  1  0  0  0  0
  3  4  1  0  0  0  0
  3  5  1  0  0  0  0
  3  6  1  0  0  0  0
 31 34  1  0  0  0  0
 31 35  1  0  0  0  0
 31 36  1  0  0  0  0
 21 24  1  0  0  0  0
 21 25  1  0  0  0  0
 21 26  1  0  0  0  0
 11 14  1  0  0  0  0
 11 15  1  0  0  0  0
 11 16  1  0  0  0  0
 38 40  1  0  0  0  0
 38 41  1  0  0  0  0
 38 42  1  0  0  0  0
 28 33  1  0  0  0  0
 18 23  1  0  0  0  0
  8 13  1  0  0  0  0
 37 39  1  0  0  0  0
  7 12  1  0  0  0  0
 27 32  1  0  0  0  0
 17 22  1  0  0  0  0
M  END
$$$$

  -OEChem-05262214473D

 42 41  0     1  0  0  0  0  0999 V2000
   -5.7851   -0.9580    0.6237 C   0  0  0  0  0  0  0  0  0  0  0  0
   -6.2213    0.1296    0.2652 O   0  0  0  0  0  0  0  0  0  0  0  0
   -6.7088   -2.1270    0.7168 C   0  0  0  0  0  0  0  0  0  0  0  0
   -7.1713   -2.2193    1.7126 H   0  0  0  0  0  0  0  0  0  0  0  0
   -7.5511   -2.0547    0.0101 H   0  0  0  0  0  0  0  0  0  0  0  0
   -6.2485   -3.1083    0.5191 H   0  0  0  0  0  0  0  0  0  0  0  0
   -4.4733   -1.2411    0.9668 N   0  0  0  0  0  0  0  0  0  0  0  0
   -3.4203   -0.2603    0.9449 C   0  0  2  0  0  0  0  0  0  0  0  0
   -2.1242   -0.9699    0.5759 C   0  0  0  0  0  0  0  0  0  0  0  0
   -1.8694   -2.1225    0.9189 O   0  0  0  0  0  0  0  0  0  0  0  0
   -3.2916    0.4435    2.2868 C   0  0  0  0  0  0  0  0  0  0  0  0
   -4.2421   -2.1920    1.2489 H   0  0  0  0  0  0  0  0  0  0  0  0
   -3.6772    0.4622    0.1625 H   0  0  0  0  0  0  0  0  0  0  0  0
   -3.0345   -0.2644    3.0832 H   0  0  0  0  0  0  0  0  0  0  0  0
   -2.5093    1.2092    2.2599 H   0  0  0  0  0  0  0  0  0  0  0  0
   -4.2338    0.9283    2.5645 H   0  0  0  0  0  0  0  0  0  0  0  0
   -1.2626   -0.1515   -0.1463 N   0  0  0  0  0  0  0  0  0  0  0  0
    0.0431   -0.5785   -0.5755 C   0  0  2  0  0  0  0  0  0  0  0  0
   -0.1360   -1.5295   -1.7515 C   0  0  0  0  0  0  0  0  0  0  0  0
   -1.1066   -2.2744   -1.8699 O   0  0  0  0  0  0  0  0  0  0  0  0
    0.8051   -1.2507    0.5559 C   0  0  0  0  0  0  0  0  0  0  0  0
   -1.5766    0.7776   -0.4197 H   0  0  0  0  0  0  0  0  0  0  0  0
    0.5757    0.3190   -0.9087 H   0  0  0  0  0  0  0  0  0  0  0  0
    0.2867   -2.1519    0.9030 H   0  0  0  0  0  0  0  0  0  0  0  0
    1.8088   -1.5493    0.2359 H   0  0  0  0  0  0  0  0  0  0  0  0
    0.9071   -0.5754    1.4123 H   0  0  0  0  0  0  0  0  0  0  0  0
    0.9367   -1.4825   -2.6352 N   0  0  0  0  0  0  0  0  0  0  0  0
    1.0227   -2.3185   -3.8036 C   0  0  2  0  0  0  0  0  0  0  0  0
    2.4931   -2.6255   -4.0549 C   0  0  0  0  0  0  0  0  0  0  0  0
    3.3957   -1.8259   -3.8162 O   0  0  0  0  0  0  0  0  0  0  0  0
    0.3935   -1.6451   -5.0133 C   0  0  0  0  0  0  0  0  0  0  0  0
    1.6786   -0.8036   -2.4763 H   0  0  0  0  0  0  0  0  0  0  0  0
    0.4902   -3.2465   -3.5684 H   0  0  0  0  0  0  0  0  0  0  0  0
    0.9137   -0.7134   -5.2642 H   0  0  0  0  0  0  0  0  0  0  0  0
    0.4343   -2.2939   -5.8945 H   0  0  0  0  0  0  0  0  0  0  0  0
   -0.6559   -1.3981   -4.8200 H   0  0  0  0  0  0  0  0  0  0  0  0
    2.6753   -3.8812   -4.6174 N   0  0  0  0  0  0  0  0  0  0  0  0
    3.9758   -4.3880   -4.9884 C   0  0  0  0  0  0  0  0  0  0  0  0
    1.8745   -4.4932   -4.7435 H   0  0  0  0  0  0  0  0  0  0  0  0
    4.1761   -4.1484   -6.0431 H   0  0  0  0  0  0  0  0  0  0  0  0
    4.7450   -3.9228   -4.3544 H   0  0  0  0  0  0  0  0  0  0  0  0
    3.9972   -5.4790   -4.8499 H   0  0  0  0  0  0  0  0  0  0  0  0
  1  3  1  0  0  0  0
  1  7  1  0  0  0  0
  1  2  2  0  0  0  0
 28 29  1  0  0  0  0
 29 37  1  0  0  0  0
 29 30  2  0  0  0  0
 18 19  1  0  0  0  0
 19 27  1  0  0  0  0
 19 20  2  0  0  0  0
  8  9  1  0  0  0  0
  9 17  1  0  0  0  0
  9 10  2  0  0  0  0
 28 31  1  0  0  0  0
 18 21  1  0  0  0  0
  8 11  1  0  0  0  0
 37 38  1  0  0  0  0
 27 28  1  0  0  0  0
 17 18  1  0  0  0  0
  7  8  1  0  0  0  0
  3  4  1  0  0  0  0
  3  5  1  0  0  0  0
  3  6  1  0  0  0  0
 31 34  1  0  0  0  0
 31 35  1  0  0  0  0
 31 36  1  0  0  0  0
 21 24  1  0  0  0  0
 21 25  1  0  0  0  0
 21 26  1  0  0  0  0
 11 14  1  0  0  0  0
 11 15  1  0  0  0  0
 11 16  1  0  0  0  0
 38 40  1  0  0  0  0
 38 41  1  0  0  0  0
 38 42  1  0  0  0  0
 28 33  1  0  0  0  0
 18 23  1  0  0  0  0
  8 13  1  0  0  0  0
 37 39  1  0  0  0  0
  7 12  1  0  0  0  0
 27 32  1  0  0  0  0
 17 22  1  0  0  0  0
M  END
$$$$

  -OEChem-05262214473D

 42 41  0     1  0  0  0  0  0999 V2000
   -5.7851   -0.9580    0.6237 C   0  0  0  0  0  0  0  0  0  0  0  0
   -6.2213    0.1296    0.2652 O   0  0  0  0  0  0  0  0  0  0  0  0
   -6.7088   -2.1270    0.7168 C   0  0  0  0  0  0  0  0  0  0  0  0
   -7.1713   -2.2193    1.7126 H   0  0  0  0  0  0  0  0  0  0  0  0
   -7.5511   -2.0547    0.0101 H   0  0  0  0  0  0  0  0  0  0  0  0
   -6.2485   -3.1083    0.5191 H   0  0  0  0  0  0  0  0  0  0  0  0
   -4.4733   -1.2411    0.9668 N   0  0  0  0  0  0  0  0  0  0  0  0
   -3.4203   -0.2603    0.9449 C   0  0  2  0  0  0  0  0  0  0  0  0
   -2.1242   -0.9699    0.5759 C   0  0  0  0  0  0  0  0  0  0  0  0
   -1.8694   -2.1225    0.9189 O   0  0  0  0  0  0  0  0  0  0  0  0
   -3.2916    0.4435    2.2868 C   0  0  0  0  0  0  0  0  0  0  0  0
   -4.2421   -2.1920    1.2489 H   0  0  0  0  0  0  0  0  0  0  0  0
   -3.6772    0.4622    0.1625 H   0  0  0  0  0  0  0  0  0  0  0  0
   -3.0345   -0.2644    3.0832 H   0  0  0  0  0  0  0  0  0  0  0  0
   -2.5093    1.2092    2.2599 H   0  0  0  0  0  0  0  0  0  0  0  0
   -4.2338    0.9283    2.5645 H   0  0  0  0  0  0  0  0  0  0  0  0
   -1.2626   -0.1515   -0.1463 N   0  0  0  0  0  0  0  0  0  0  0  0
    0.0431   -0.5785   -0.5755 C   0  0  2  0  0  0  0  0  0  0  0  0
   -0.1360   -1.5295   -1.7515 C   0  0  0  0  0  0  0  0  0  0  0  0
   -1.2060   -2.0729   -2.0177 O   0  0  0  0  0  0  0  0  0  0  0  0
    0.8051   -1.2507    0.5559 C   0  0  0  0  0  0  0  0  0  0  0  0
   -1.5766    0.7776   -0.4197 H   0  0  0  0  0  0  0  0  0  0  0  0
    0.5757    0.3190   -0.9087 H   0  0  0  0  0  0  0  0  0  0  0  0
    0.2867   -2.1519    0.9030 H   0  0  0  0  0  0  0  0  0  0  0  0
    1.8088   -1.5493    0.2359 H   0  0  0  0  0  0  0  0  0  0  0  0
    0.9071   -0.5754    1.4123 H   0  0  0  0  0  0  0  0  0  0  0  0
    1.0502   -1.7366   -2.4470 N   0  0  0  0  0  0  0  0  0  0  0  0
    1.1494   -2.6269   -3.5735 C   0  0  2  0  0  0  0  0  0  0  0  0
    2.5481   -3.2296   -3.5749 C   0  0  0  0  0  0  0  0  0  0  0  0
    3.5443   -2.6135   -3.2020 O   0  0  0  0  0  0  0  0  0  0  0  0
    0.8694   -1.9001   -4.8796 C   0  0  0  0  0  0  0  0  0  0  0  0
    1.8794   -1.2108   -2.1776 H   0  0  0  0  0  0  0  0  0  0  0  0
    0.4097   -3.4195   -3.4162 H   0  0  0  0  0  0  0  0  0  0  0  0
    1.6004   -1.1022   -5.0544 H   0  0  0  0  0  0  0  0  0  0  0  0
    0.9172   -2.5848   -5.7328 H   0  0  0  0  0  0  0  0  0  0  0  0
   -0.1255   -1.4420   -4.8652 H   0  0  0  0  0  0  0  0  0  0  0  0
    2.5592   -4.5214   -4.0820 N   0  0  0  0  0  0  0  0  0  0  0  0
    3.7723   -5.2918   -4.2265 C   0  0  0  0  0  0  0  0  0  0  0  0
    1.6815   -4.9686   -4.3296 H   0  0  0  0  0  0  0  0  0  0  0  0
    4.1816   -5.1461   -5.2371 H   0  0  0  0  0  0  0  0  0  0  0  0
    4.5093   -4.9583   -3.4811 H   0  0  0  0  0  0  0  0  0  0  0  0
    3.5503   -6.3579   -4.0711 H   0  0  0  0  0  0  0  0  0  0  0  0
  1  3  1  0  0  0  0
  1  7  1  0  0  0  0
  1  2  2  0  0  0  0
 28 29  1  0  0  0  0
 29 37  1  0  0  0  0
 29 30  2  0  0  0  0
 18 19  1  0  0  0  0
 19 27  1  0  0  0  0
 19 20  2  0  0  0  0
  8  9  1  0  0  0  0
  9 17  1  0  0  0  0
  9 10  2  0  0  0  0
 28 31  1  0  0  0  0
 18 21  1  0  0  0  0
  8 11  1  0  0  0  0
 37 38  1  0  0  0  0
 27 28  1  0  0  0  0
 17 18  1  0  0  0  0
  7  8  1  0  0  0  0
  3  4  1  0  0  0  0
  3  5  1  0  0  0  0
  3  6  1  0  0  0  0
 31 34  1  0  0  0  0
 31 35  1  0  0  0  0
 31 36  1  0  0  0  0
 21 24  1  0  0  0  0
 21 25  1  0  0  0  0
 21 26  1  0  0  0  0
 11 14  1  0  0  0  0
 11 15  1  0  0  0  0
 11 16  1  0  0  0  0
 38 40  1  0  0  0  0
 38 41  1  0  0  0  0
 38 42  1  0  0  0  0
 28 33  1  0  0  0  0
 18 23  1  0  0  0  0
  8 13  1  0  0  0  0
 37 39  1  0  0  0  0
  7 12  1  0  0  0  0
 27 32  1  0  0  0  0
 17 22  1  0  0  0  0
M  END
$$$$

  -OEChem-05262214473D

 42 41  0     1  0  0  0  0  0999 V2000
   -5.7851   -0.9580    0.6237 C   0  0  0  0  0  0  0  0  0  0  0  0
   -6.2213    0.1296    0.2652 O   0  0  0  0  0  0  0  0  0  0  0  0
   -6.7088   -2.1270    0.7168 C   0  0  0  0  0  0  0  0  0  0  0  0
   -7.1713   -2.2193    1.7126 H   0  0  0  0  0  0  0  0  0  0  0  0
   -7.5511   -2.0547    0.0101 H   0  0  0  0  0  0  0  0  0  0  0  0
   -6.2485   -3.1083    0.5191 H   0  0  0  0  0  0  0  0  0  0  0  0
   -4.4733   -1.2411    0.9668 N   0  0  0  0  0  0  0  0  0  0  0  0
   -3.4203   -0.2603    0.9449 C   0  0  2  0  0  0  0  0  0  0  0  0
   -2.1242   -0.9699    0.5759 C   0  0  0  0  0  0  0  0  0  0  0  0
   -1.8694   -2.1225    0.9189 O   0  0  0  0  0  0  0  0  0  0  0  0
   -3.2916    0.4435    2.2868 C   0  0  0  0  0  0  0  0  0  0  0  0
   -4.2421   -2.1920    1.2489 H   0  0  0  0  0  0  0  0  0  0  0  0
   -3.6772    0.4622    0.1625 H   0  0  0  0  0  0  0  0  0  0  0  0
   -3.0345   -0.2644    3.0832 H   0  0  0  0  0  0  0  0  0  0  0  0
   -2.5093    1.2092    2.2599 H   0  0  0  0  0  0  0  0  0  0  0  0
   -4.2338    0.9283    2.5645 H   0  0  0  0  0  0  0  0  0  0  0  0
   -1.2626   -0.1515   -0.1463 N   0  0  0  0  0  0  0  0  0  0  0  0
    0.0431   -0.5785   -0.5755 C   0  0  2  0  0  0  0  0  0  0  0  0
   -0.0985   -1.2119   -1.9533 C   0  0  0  0  0  0  0  0  0  0  0  0
   -1.1792   -1.3399   -2.5248 O   0  0  0  0  0  0  0  0  0  0  0  0
    0.6575   -1.5579    0.4124 C   0  0  0  0  0  0  0  0  0  0  0  0
   -1.5766    0.7776   -0.4197 H   0  0  0  0  0  0  0  0  0  0  0  0
    0.6622    0.3223   -0.6489 H   0  0  0  0  0  0  0  0  0  0  0  0
    0.0511   -2.4668    0.4994 H   0  0  0  0  0  0  0  0  0  0  0  0
    1.6623   -1.8597    0.0991 H   0  0  0  0  0  0  0  0  0  0  0  0
    0.7311   -1.1108    1.4097 H   0  0  0  0  0  0  0  0  0  0  0  0
    1.1189   -1.6586   -2.4554 N   0  0  0  0  0  0  0  0  0  0  0  0
    1.2415   -2.3308   -3.7221 C   0  0  2  0  0  0  0  0  0  0  0  0
    2.3847   -3.3313   -3.6149 C   0  0  0  0  0  0  0  0  0  0  0  0
    3.3906   -3.1304   -2.9376 O   0  0  0  0  0  0  0  0  0  0  0  0
    1.4881   -1.3425   -4.8514 C   0  0  0  0  0  0  0  0  0  0  0  0
    1.9695   -1.4723   -1.9277 H   0  0  0  0  0  0  0  0  0  0  0  0
    0.3006   -2.8668   -3.8880 H   0  0  0  0  0  0  0  0  0  0  0  0
    2.4265   -0.7959   -4.7025 H   0  0  0  0  0  0  0  0  0  0  0  0
    1.5527   -1.8527   -5.8181 H   0  0  0  0  0  0  0  0  0  0  0  0
    0.6797   -0.6056   -4.9079 H   0  0  0  0  0  0  0  0  0  0  0  0
    2.1689   -4.4562   -4.3987 N   0  0  0  0  0  0  0  0  0  0  0  0
    3.1282   -5.5311   -4.5005 C   0  0  0  0  0  0  0  0  0  0  0  0
    1.2890   -4.5575   -4.8959 H   0  0  0  0  0  0  0  0  0  0  0  0
    3.7909   -5.3518   -5.3600 H   0  0  0  0  0  0  0  0  0  0  0  0
    3.7271   -5.5764   -3.5790 H   0  0  0  0  0  0  0  0  0  0  0  0
    2.5971   -6.4843   -4.6398 H   0  0  0  0  0  0  0  0  0  0  0  0
  1  3  1  0  0  0  0
  1  7  1  0  0  0  0
  1  2  2  0  0  0  0
 28 29  1  0  0  0  0
 29 37  1  0  0  0  0
 29 30  2  0  0  0  0
 18 19  1  0  0  0  0
 19 27  1  0  0  0  0
 19 20  2  0  0  0  0
  8  9  1  0  0  0  0
  9 17  1  0  0  0  0
  9 10  2  0  0  0  0
 28 31  1  0  0  0  0
 18 21  1  0  0  0  0
  8 11  1  0  0  0  0
 37 38  1  0  0  0  0
 27 28  1  0  0  0  0
 17 18  1  0  0  0  0
  7  8  1  0  0  0  0
  3  4  1  0  0  0  0
  3  5  1  0  0  0  0
  3  6  1  0  0  0  0
 31 34  1  0  0  0  0
 31 35  1  0  0  0  0
 31 36  1  0  0  0  0
 21 24  1  0  0  0  0
 21 25  1  0  0  0  0
 21 26  1  0  0  0  0
 11 14  1  0  0  0  0
 11 15  1  0  0  0  0
 11 16  1  0  0  0  0
 38 40  1  0  0  0  0
 38 41  1  0  0  0  0
 38 42  1  0  0  0  0
 28 33  1  0  0  0  0
 18 23  1  0  0  0  0
  8 13  1  0  0  0  0
 37 39  1  0  0  0  0
  7 12  1  0  0  0  0
 27 32  1  0  0  0  0
 17 22  1  0  0  0  0
M  END
$$$$

  -OEChem-05262214473D

 42 41  0     1  0  0  0  0  0999 V2000
   -5.7851   -0.9580    0.6237 C   0  0  0  0  0  0  0  0  0  0  0  0
   -6.2213    0.1296    0.2652 O   0  0  0  0  0  0  0  0  0  0  0  0
   -6.7088   -2.1270    0.7168 C   0  0  0  0  0  0  0  0  0  0  0  0
   -7.1713   -2.2193    1.7126 H   0  0  0  0  0  0  0  0  0  0  0  0
   -7.5511   -2.0547    0.0101 H   0  0  0  0  0  0  0  0  0  0  0  0
   -6.2485   -3.1083    0.5191 H   0  0  0  0  0  0  0  0  0  0  0  0
   -4.4733   -1.2411    0.9668 N   0  0  0  0  0  0  0  0  0  0  0  0
   -3.4203   -0.2603    0.9449 C   0  0  2  0  0  0  0  0  0  0  0  0
   -2.1242   -0.9699    0.5759 C   0  0  0  0  0  0  0  0  0  0  0  0
   -1.8694   -2.1225    0.9189 O   0  0  0  0  0  0  0  0  0  0  0  0
   -3.2916    0.4435    2.2868 C   0  0  0  0  0  0  0  0  0  0  0  0
   -4.2421   -2.1920    1.2489 H   0  0  0  0  0  0  0  0  0  0  0  0
   -3.6772    0.4622    0.1625 H   0  0  0  0  0  0  0  0  0  0  0  0
   -3.0345   -0.2644    3.0832 H   0  0  0  0  0  0  0  0  0  0  0  0
   -2.5093    1.2092    2.2599 H   0  0  0  0  0  0  0  0  0  0  0  0
   -4.2338    0.9283    2.5645 H   0  0  0  0  0  0  0  0  0  0  0  0
   -1.2626   -0.1515   -0.1463 N   0  0  0  0  0  0  0  0  0  0  0  0
    0.0431   -0.5785   -0.5755 C   0  0  2  0  0  0  0  0  0  0  0  0
   -0.0985   -1.2119   -1.9533 C   0  0  0  0  0  0  0  0  0  0  0  0
   -1.1130   -1.1058   -2.6393 O   0  0  0  0  0  0  0  0  0  0  0  0
    0.6575   -1.5579    0.4124 C   0  0  0  0  0  0  0  0  0  0  0  0
   -1.5766    0.7776   -0.4197 H   0  0  0  0  0  0  0  0  0  0  0  0
    0.6622    0.3223   -0.6489 H   0  0  0  0  0  0  0  0  0  0  0  0
    0.0511   -2.4668    0.4994 H   0  0  0  0  0  0  0  0  0  0  0  0
    1.6623   -1.8597    0.0991 H   0  0  0  0  0  0  0  0  0  0  0  0
    0.7311   -1.1108    1.4097 H   0  0  0  0  0  0  0  0  0  0  0  0
    1.0252   -1.9480   -2.3127 N   0  0  0  0  0  0  0  0  0  0  0  0
    1.1181   -2.6765   -3.5505 C   0  0  2  0  0  0  0  0  0  0  0  0
    1.9758   -3.9110   -3.3064 C   0  0  0  0  0  0  0  0  0  0  0  0
    2.9242   -3.9250   -2.5244 O   0  0  0  0  0  0  0  0  0  0  0  0
    1.7074   -1.8151   -4.6566 C   0  0  0  0  0  0  0  0  0  0  0  0
    1.8356   -1.9455   -1.6964 H   0  0  0  0  0  0  0  0  0  0  0  0
    0.1002   -2.9844   -3.8134 H   0  0  0  0  0  0  0  0  0  0  0  0
    2.7272   -1.4969   -4.4111 H   0  0  0  0  0  0  0  0  0  0  0  0
    1.7509   -2.3616   -5.6045 H   0  0  0  0  0  0  0  0  0  0  0  0
    1.1057   -0.9129   -4.8105 H   0  0  0  0  0  0  0  0  0  0  0  0
    1.5847   -4.9829   -4.0966 N   0  0  0  0  0  0  0  0  0  0  0  0
    2.2690   -6.2546   -4.0796 C   0  0  0  0  0  0  0  0  0  0  0  0
    0.7627   -4.8948   -4.6868 H   0  0  0  0  0  0  0  0  0  0  0  0
    3.0416   -6.2663   -4.8626 H   0  0  0  0  0  0  0  0  0  0  0  0
    2.7406   -6.4041   -3.0971 H   0  0  0  0  0  0  0  0  0  0  0  0
    1.5461   -7.0624   -4.2661 H   0  0  0  0  0  0  0  0  0  0  0  0
  1  3  1  0  0  0  0
  1  7  1  0  0  0  0
  1  2  2  0  0  0  0
 28 29  1  0  0  0  0
 29 37  1  0  0  0  0
 29 30  2  0  0  0  0
 18 19  1  0  0  0  0
 19 27  1  0  0  0  0
 19 20  2  0  0  0  0
  8  9  1  0  0  0  0
  9 17  1  0  0  0  0
  9 10  2  0  0  0  0
 28 31  1  0  0  0  0
 18 21  1  0  0  0  0
  8 11  1  0  0  0  0
 37 38  1  0  0  0  0
 27 28  1  0  0  0  0
 17 18  1  0  0  0  0
  7  8  1  0  0  0  0
  3  4  1  0  0  0  0
  3  5  1  0  0  0  0
  3  6  1  0  0  0  0
 31 34  1  0  0  0  0
 31 35  1  0  0  0  0
 31 36  1  0  0  0  0
 21 24  1  0  0  0  0
 21 25  1  0  0  0  0
 21 26  1  0  0  0  0
 11 14  1  0  0  0  0
 11 15  1  0  0  0  0
 11 16  1  0  0  0  0
 38 40  1  0  0  0  0
 38 41  1  0  0  0  0
 38 42  1  0  0  0  0
 28 33  1  0  0  0  0
 18 23  1  0  0  0  0
  8 13  1  0  0  0  0
 37 39  1  0  0  0  0
  7 12  1  0  0  0  0
 27 32  1  0  0  0  0
 17 22  1  0  0  0  0
M  END
$$$$

  -OEChem-05262214473D

 42 41  0     1  0  0  0  0  0999 V2000
   -5.7851   -0.9580    0.6237 C   0  0  0  0  0  0  0  0  0  0  0  0
   -6.2213    0.1296    0.2652 O   0  0  0  0  0  0  0  0  0  0  0  0
   -6.7088   -2.1270    0.7168 C   0  0  0  0  0  0  0  0  0  0  0  0
   -7.1713   -2.2193    1.7126 H   0  0  0  0  0  0  0  0  0  0  0  0
   -7.5511   -2.0547    0.0101 H   0  0  0  0  0  0  0  0  0  0  0  0
   -6.2485   -3.1083    0.5191 H   0  0  0  0  0  0  0  0  0  0  0  0
   -4.4733   -1.2411    0.9668 N   0  0  0  0  0  0  0  0  0  0  0  0
   -3.4203   -0.2603    0.9449 C   0  0  2  0  0  0  0  0  0  0  0  0
   -2.1242   -0.9699    0.5759 C   0  0  0  0  0  0  0  0  0  0  0  0
   -1.8694   -2.1225    0.9189 O   0  0  0  0  0  0  0  0  0  0  0  0
   -3.2916    0.4435    2.2868 C   0  0  0  0  0  0  0  0  0  0  0  0
   -4.2421   -2.1920    1.2489 H   0  0  0  0  0  0  0  0  0  0  0  0
   -3.6772    0.4622    0.1625 H   0  0  0  0  0  0  0  0  0  0  0  0
   -3.0345   -0.2644    3.0832 H   0  0  0  0  0  0  0  0  0  0  0  0
   -2.5093    1.2092    2.2599 H   0  0  0  0  0  0  0  0  0  0  0  0
   -4.2338    0.9283    2.5645 H   0  0  0  0  0  0  0  0  0  0  0  0
   -1.2626   -0.1515   -0.1463 N   0  0  0  0  0  0  0  0  0  0  0  0
    0.0431   -0.5785   -0.5755 C   0  0  2  0  0  0  0  0  0  0  0  0
   -0.0985   -1.2119   -1.9533 C   0  0  0  0  0  0  0  0  0  0  0  0
   -0.9819   -0.8978   -2.7483 O   0  0  0  0  0  0  0  0  0  0  0  0
    0.6575   -1.5579    0.4124 C   0  0  0  0  0  0  0  0  0  0  0  0
   -1.5766    0.7776   -0.4197 H   0  0  0  0  0  0  0  0  0  0  0  0
    0.6622    0.3223   -0.6489 H   0  0  0  0  0  0  0  0  0  0  0  0
    0.0511   -2.4668    0.4994 H   0  0  0  0  0  0  0  0  0  0  0  0
    1.6623   -1.8597    0.0991 H   0  0  0  0  0  0  0  0  0  0  0  0
    0.7311   -1.1108    1.4097 H   0  0  0  0  0  0  0  0  0  0  0  0
    0.8516   -2.2021   -2.1781 N   0  0  0  0  0  0  0  0  0  0  0  0
    0.8995   -2.9773   -3.3897 C   0  0  2  0  0  0  0  0  0  0  0  0
    1.4120   -4.3678   -3.0385 C   0  0  0  0  0  0  0  0  0  0  0  0
    2.2431   -4.5733   -2.1563 O   0  0  0  0  0  0  0  0  0  0  0  0
    1.7876   -2.3183   -4.4335 C   0  0  0  0  0  0  0  0  0  0  0  0
    1.5706   -2.3657   -1.4760 H   0  0  0  0  0  0  0  0  0  0  0  0
   -0.1290   -3.0493   -3.7600 H   0  0  0  0  0  0  0  0  0  0  0  0
    2.8221   -2.2374   -4.0804 H   0  0  0  0  0  0  0  0  0  0  0  0
    1.8003   -2.8945   -5.3646 H   0  0  0  0  0  0  0  0  0  0  0  0
    1.4348   -1.3070   -4.6631 H   0  0  0  0  0  0  0  0  0  0  0  0
    0.8645   -5.3475   -3.8549 N   0  0  0  0  0  0  0  0  0  0  0  0
    1.2245   -6.7421   -3.7482 C   0  0  0  0  0  0  0  0  0  0  0  0
    0.1528   -5.0923   -4.5333 H   0  0  0  0  0  0  0  0  0  0  0  0
    2.0503   -6.9622   -4.4407 H   0  0  0  0  0  0  0  0  0  0  0  0
    1.5420   -6.9609   -2.7179 H   0  0  0  0  0  0  0  0  0  0  0  0
    0.3553   -7.3657   -4.0042 H   0  0  0  0  0  0  0  0  0  0  0  0
  1  3  1  0  0  0  0
  1  7  1  0  0  0  0
  1  2  2  0  0  0  0
 28 29  1  0  0  0  0
 29 37  1  0  0  0  0
 29 30  2  0  0  0  0
 18 19  1  0  0  0  0
 19 27  1  0  0  0  0
 19 20  2  0  0  0  0
  8  9  1  0  0  0  0
  9 17  1  0  0  0  0
  9 10  2  0  0  0  0
 28 31  1  0  0  0  0
 18 21  1  0  0  0  0
  8 11  1  0  0  0  0
 37 38  1  0  0  0  0
 27 28  1  0  0  0  0
 17 18  1  0  0  0  0
  7  8  1  0  0  0  0
  3  4  1  0  0  0  0
  3  5  1  0  0  0  0
  3  6  1  0  0  0  0
 31 34  1  0  0  0  0
 31 35  1  0  0  0  0
 31 36  1  0  0  0  0
 21 24  1  0  0  0  0
 21 25  1  0  0  0  0
 21 26  1  0  0  0  0
 11 14  1  0  0  0  0
 11 15  1  0  0  0  0
 11 16  1  0  0  0  0
 38 40  1  0  0  0  0
 38 41  1  0  0  0  0
 38 42  1  0  0  0  0
 28 33  1  0  0  0  0
 18 23  1  0  0  0  0
  8 13  1  0  0  0  0
 37 39  1  0  0  0  0
  7 12  1  0  0  0  0
 27 32  1  0  0  0  0
 17 22  1  0  0  0  0
M  END
$$$$

  -OEChem-05262214473D

 42 41  0     1  0  0  0  0  0999 V2000
   -5.7851   -0.9580    0.6237 C   0  0  0  0  0  0  0  0  0  0  0  0
   -6.2213    0.1296    0.2652 O   0  0  0  0  0  0  0  0  0  0  0  0
   -6.7088   -2.1270    0.7168 C   0  0  0  0  0  0  0  0  0  0  0  0
   -7.1713   -2.2193    1.7126 H   0  0  0  0  0  0  0  0  0  0  0  0
   -7.5511   -2.0547    0.0101 H   0  0  0  0  0  0  0  0  0  0  0  0
   -6.2485   -3.1083    0.5191 H   0  0  0  0  0  0  0  0  0  0  0  0
   -4.4733   -1.2411    0.9668 N   0  0  0  0  0  0  0  0  0  0  0  0
   -3.4203   -0.2603    0.9449 C   0  0  2  0  0  0  0  0  0  0  0  0
   -2.1242   -0.9699    0.5759 C   0  0  0  0  0  0  0  0  0  0  0  0
   -1.8694   -2.1225    0.9189 O   0  0  0  0  0  0  0  0  0  0  0  0
   -3.2916    0.4435    2.2868 C   0  0  0  0  0  0  0  0  0  0  0  0
   -4.2421   -2.1920    1.2489 H   0  0  0  0  0  0  0  0  0  0  0  0
   -3.6772    0.4622    0.1625 H   0  0  0  0  0  0  0  0  0  0  0  0
   -3.0345   -0.2644    3.0832 H   0  0  0  0  0  0  0  0  0  0  0  0
   -2.5093    1.2092    2.2599 H   0  0  0  0  0  0  0  0  0  0  0  0
   -4.2338    0.9283    2.5645 H   0  0  0  0  0  0  0  0  0  0  0  0
   -1.2626   -0.1515   -0.1463 N   0  0  0  0  0  0  0  0  0  0  0  0
    0.0431   -0.5785   -0.5755 C   0  0  2  0  0  0  0  0  0  0  0  0
   -0.0985   -1.2119   -1.9533 C   0  0  0  0  0  0  0  0  0  0  0  0
   -0.7948   -0.7304   -2.8446 O   0  0  0  0  0  0  0  0  0  0  0  0
    0.6575   -1.5579    0.4124 C   0  0  0  0  0  0  0  0  0  0  0  0
   -1.5766    0.7776   -0.4197 H   0  0  0  0  0  0  0  0  0  0  0  0
    0.6622    0.3223   -0.6489 H   0  0  0  0  0  0  0  0  0  0  0  0
    0.0511   -2.4668    0.4994 H   0  0  0  0  0  0  0  0  0  0  0  0
    1.6623   -1.8597    0.0991 H   0  0  0  0  0  0  0  0  0  0  0  0
    0.7311   -1.1108    1.4097 H   0  0  0  0  0  0  0  0  0  0  0  0
    0.6099   -2.4037   -2.0606 N   0  0  0  0  0  0  0  0  0  0  0  0
    0.6006   -3.2129   -3.2507 C   0  0  2  0  0  0  0  0  0  0  0  0
    0.7316   -4.6706   -2.8294 C   0  0  0  0  0  0  0  0  0  0  0  0
    1.3937   -5.0313   -1.8585 O   0  0  0  0  0  0  0  0  0  0  0  0
    1.7233   -2.8177   -4.1973 C   0  0  0  0  0  0  0  0  0  0  0  0
    1.1925   -2.7042   -1.2816 H   0  0  0  0  0  0  0  0  0  0  0  0
   -0.3713   -3.0571   -3.7315 H   0  0  0  0  0  0  0  0  0  0  0  0
    2.7049   -2.9670   -3.7330 H   0  0  0  0  0  0  0  0  0  0  0  0
    1.6974   -3.4150   -5.1148 H   0  0  0  0  0  0  0  0  0  0  0  0
    1.6445   -1.7613   -4.4758 H   0  0  0  0  0  0  0  0  0  0  0  0
    0.0574   -5.5253   -3.6902 N   0  0  0  0  0  0  0  0  0  0  0  0
    0.0657   -6.9605   -3.5287 C   0  0  0  0  0  0  0  0  0  0  0  0
   -0.4990   -5.1366   -4.4459 H   0  0  0  0  0  0  0  0  0  0  0  0
    0.8844   -7.3922   -4.1232 H   0  0  0  0  0  0  0  0  0  0  0  0
    0.2130   -7.2090   -2.4673 H   0  0  0  0  0  0  0  0  0  0  0  0
   -0.8941   -7.3736   -3.8722 H   0  0  0  0  0  0  0  0  0  0  0  0
  1  3  1  0  0  0  0
  1  7  1  0  0  0  0
  1  2  2  0  0  0  0
 28 29  1  0  0  0  0
 29 37  1  0  0  0  0
 29 30  2  0  0  0  0
 18 19  1  0  0  0  0
 19 27  1  0  0  0  0
 19 20  2  0  0  0  0
  8  9  1  0  0  0  0
  9 17  1  0  0  0  0
  9 10  2  0  0  0  0
 28 31  1  0  0  0  0
 18 21  1  0  0  0  0
  8 11  1  0  0  0  0
 37 38  1  0  0  0  0
 27 28  1  0  0  0  0
 17 18  1  0  0  0  0
  7  8  1  0  0  0  0
  3  4  1  0  0  0  0
  3  5  1  0  0  0  0
  3  6  1  0  0  0  0
 31 34  1  0  0  0  0
 31 35  1  0  0  0  0
 31 36  1  0  0  0  0
 21 24  1  0  0  0  0
 21 25  1  0  0  0  0
 21 26  1  0  0  0  0
 11 14  1  0  0  0  0
 11 15  1  0  0  0  0
 11 16  1  0  0  0  0
 38 40  1  0  0  0  0
 38 41  1  0  0  0  0
 38 42  1  0  0  0  0
 28 33  1  0  0  0  0
 18 23  1  0  0  0  0
  8 13  1  0  0  0  0
 37 39  1  0  0  0  0
  7 12  1  0  0  0  0
 27 32  1  0  0  0  0
 17 22  1  0  0  0  0
M  END
$$$$

  -OEChem-05262214473D

 42 41  0     1  0  0  0  0  0999 V2000
   -5.7851   -0.9580    0.6237 C   0  0  0  0  0  0  0  0  0  0  0  0
   -6.2213    0.1296    0.2652 O   0  0  0  0  0  0  0  0  0  0  0  0
   -6.7088   -2.1270    0.7168 C   0  0  0  0  0  0  0  0  0  0  0  0
   -7.1713   -2.2193    1.7126 H   0  0  0  0  0  0  0  0  0  0  0  0
   -7.5511   -2.0547    0.0101 H   0  0  0  0  0  0  0  0  0  0  0  0
   -6.2485   -3.1083    0.5191 H   0  0  0  0  0  0  0  0  0  0  0  0
   -4.4733   -1.2411    0.9668 N   0  0  0  0  0  0  0  0  0  0  0  0
   -3.4203   -0.2603    0.9449 C   0  0  2  0  0  0  0  0  0  0  0  0
   -2.1242   -0.9699    0.5759 C   0  0  0  0  0  0  0  0  0  0  0  0
   -1.8694   -2.1225    0.9189 O   0  0  0  0  0  0  0  0  0  0  0  0
   -3.2916    0.4435    2.2868 C   0  0  0  0  0  0  0  0  0  0  0  0
   -4.2421   -2.1920    1.2489 H   0  0  0  0  0  0  0  0  0  0  0  0
   -3.6772    0.4622    0.1625 H   0  0  0  0  0  0  0  0  0  0  0  0
   -3.0345   -0.2644    3.0832 H   0  0  0  0  0  0  0  0  0  0  0  0
   -2.5093    1.2092    2.2599 H   0  0  0  0  0  0  0  0  0  0  0  0
   -4.2338    0.9283    2.5645 H   0  0  0  0  0  0  0  0  0  0  0  0
   -1.2626   -0.1515   -0.1463 N   0  0  0  0  0  0  0  0  0  0  0  0
    0.0431   -0.5785   -0.5755 C   0  0  2  0  0  0  0  0  0  0  0  0
   -0.0985   -1.2119   -1.9533 C   0  0  0  0  0  0  0  0  0  0  0  0
   -0.5645   -0.6147   -2.9214 O   0  0  0  0  0  0  0  0  0  0  0  0
    0.6575   -1.5579    0.4124 C   0  0  0  0  0  0  0  0  0  0  0  0
   -1.5766    0.7776   -0.4197 H   0  0  0  0  0  0  0  0  0  0  0  0
    0.6622    0.3223   -0.6489 H   0  0  0  0  0  0  0  0  0  0  0  0
    0.0511   -2.4668    0.4994 H   0  0  0  0  0  0  0  0  0  0  0  0
    1.6623   -1.8597    0.0991 H   0  0  0  0  0  0  0  0  0  0  0  0
    0.7311   -1.1108    1.4097 H   0  0  0  0  0  0  0  0  0  0  0  0
    0.3166   -2.5390   -1.9682 N   0  0  0  0  0  0  0  0  0  0  0  0
    0.2417   -3.3671   -3.1429 C   0  0  2  0  0  0  0  0  0  0  0  0
   -0.0190   -4.7987   -2.6933 C   0  0  0  0  0  0  0  0  0  0  0  0
    0.4341   -5.2676   -1.6513 O   0  0  0  0  0  0  0  0  0  0  0  0
    1.5187   -3.2794   -3.9641 C   0  0  0  0  0  0  0  0  0  0  0  0
    0.7272   -2.9379   -1.1263 H   0  0  0  0  0  0  0  0  0  0  0  0
   -0.6103   -3.0071   -3.7299 H   0  0  0  0  0  0  0  0  0  0  0  0
    2.3834   -3.6358   -3.3925 H   0  0  0  0  0  0  0  0  0  0  0  0
    1.4492   -3.8876   -4.8720 H   0  0  0  0  0  0  0  0  0  0  0  0
    1.7206   -2.2446   -4.2614 H   0  0  0  0  0  0  0  0  0  0  0  0
   -0.7815   -5.5041   -3.6138 N   0  0  0  0  0  0  0  0  0  0  0  0
   -1.1283   -6.8948   -3.4362 C   0  0  0  0  0  0  0  0  0  0  0  0
   -1.1485   -5.0247   -4.4306 H   0  0  0  0  0  0  0  0  0  0  0  0
   -0.3767   -7.5269   -3.9317 H   0  0  0  0  0  0  0  0  0  0  0  0
   -1.1557   -7.1315   -2.3623 H   0  0  0  0  0  0  0  0  0  0  0  0
   -2.1170   -7.0855   -3.8790 H   0  0  0  0  0  0  0  0  0  0  0  0
  1  3  1  0  0  0  0
  1  7  1  0  0  0  0
  1  2  2  0  0  0  0
 28 29  1  0  0  0  0
 29 37  1  0  0  0  0
 29 30  2  0  0  0  0
 18 19  1  0  0  0  0
 19 27  1  0  0  0  0
 19 20  2  0  0  0  0
  8  9  1  0  0  0  0
  9 17  1  0  0  0  0
  9 10  2  0  0  0  0
 28 31  1  0  0  0  0
 18 21  1  0  0  0  0
  8 11  1  0  0  0  0
 37 38  1  0  0  0  0
 27 28  1  0  0  0  0
 17 18  1  0  0  0  0
  7  8  1  0  0  0  0
  3  4  1  0  0  0  0
  3  5  1  0  0  0  0
  3  6  1  0  0  0  0
 31 34  1  0  0  0  0
 31 35  1  0  0  0  0
 31 36  1  0  0  0  0
 21 24  1  0  0  0  0
 21 25  1  0  0  0  0
 21 26  1  0  0  0  0
 11 14  1  0  0  0  0
 11 15  1  0  0  0  0
 11 16  1  0  0  0  0
 38 40  1  0  0  0  0
 38 41  1  0  0  0  0
 38 42  1  0  0  0  0
 28 33  1  0  0  0  0
 18 23  1  0  0  0  0
  8 13  1  0  0  0  0
 37 39  1  0  0  0  0
  7 12  1  0  0  0  0
 27 32  1  0  0  0  0
 17 22  1  0  0  0  0
M  END
$$$$

  -OEChem-05262214473D

 42 41  0     1  0  0  0  0  0999 V2000
   -5.7851   -0.9580    0.6237 C   0  0  0  0  0  0  0  0  0  0  0  0
   -6.2213    0.1296    0.2652 O   0  0  0  0  0  0  0  0  0  0  0  0
   -6.7088   -2.1270    0.7168 C   0  0  0  0  0  0  0  0  0  0  0  0
   -7.1713   -2.2193    1.7126 H   0  0  0  0  0  0  0  0  0  0  0  0
   -7.5511   -2.0547    0.0101 H   0  0  0  0  0  0  0  0  0  0  0  0
   -6.2485   -3.1083    0.5191 H   0  0  0  0  0  0  0  0  0  0  0  0
   -4.4733   -1.2411    0.9668 N   0  0  0  0  0  0  0  0  0  0  0  0
   -3.4203   -0.2603    0.9449 C   0  0  2  0  0  0  0  0  0  0  0  0
   -2.1242   -0.9699    0.5759 C   0  0  0  0  0  0  0  0  0  0  0  0
   -1.8694   -2.1225    0.9189 O   0  0  0  0  0  0  0  0  0  0  0  0
   -3.2916    0.4435    2.2868 C   0  0  0  0  0  0  0  0  0  0  0  0
   -4.2421   -2.1920    1.2489 H   0  0  0  0  0  0  0  0  0  0  0  0
   -3.6772    0.4622    0.1625 H   0  0  0  0  0  0  0  0  0  0  0  0
   -3.0345   -0.2644    3.0832 H   0  0  0  0  0  0  0  0  0  0  0  0
   -2.5093    1.2092    2.2599 H   0  0  0  0  0  0  0  0  0  0  0  0
   -4.2338    0.9283    2.5645 H   0  0  0  0  0  0  0  0  0  0  0  0
   -1.2626   -0.1515   -0.1463 N   0  0  0  0  0  0  0  0  0  0  0  0
    0.0431   -0.5785   -0.5755 C   0  0  2  0  0  0  0  0  0  0  0  0
   -0.0985   -1.2119   -1.9533 C   0  0  0  0  0  0  0  0  0  0  0  0
   -0.3067   -0.5587   -2.9736 O   0  0  0  0  0  0  0  0  0  0  0  0
    0.6575   -1.5579    0.4124 C   0  0  0  0  0  0  0  0  0  0  0  0
   -1.5766    0.7776   -0.4197 H   0  0  0  0  0  0  0  0  0  0  0  0
    0.6622    0.3223   -0.6489 H   0  0  0  0  0  0  0  0  0  0  0  0
    0.0511   -2.4668    0.4994 H   0  0  0  0  0  0  0  0  0  0  0  0
    1.6623   -1.8597    0.0991 H   0  0  0  0  0  0  0  0  0  0  0  0
    0.7311   -1.1108    1.4097 H   0  0  0  0  0  0  0  0  0  0  0  0
   -0.0084   -2.5988   -1.9073 N   0  0  0  0  0  0  0  0  0  0  0  0
   -0.1526   -3.4295   -3.0738 C   0  0  2  0  0  0  0  0  0  0  0  0
   -0.7887   -4.7434   -2.6396 C   0  0  0  0  0  0  0  0  0  0  0  0
   -0.5705   -5.2661   -1.5487 O   0  0  0  0  0  0  0  0  0  0  0  0
    1.1880   -3.6718   -3.7497 C   0  0  0  0  0  0  0  0  0  0  0  0
    0.2062   -3.0510   -1.0208 H   0  0  0  0  0  0  0  0  0  0  0  0
   -0.8296   -2.9029   -3.7553 H   0  0  0  0  0  0  0  0  0  0  0  0
    1.8796   -4.1984   -3.0820 H   0  0  0  0  0  0  0  0  0  0  0  0
    1.0727   -4.2802   -4.6528 H   0  0  0  0  0  0  0  0  0  0  0  0
    1.6578   -2.7242   -4.0345 H   0  0  0  0  0  0  0  0  0  0  0  0
   -1.5951   -5.2854   -3.6307 N   0  0  0  0  0  0  0  0  0  0  0  0
   -2.2763   -6.5496   -3.4769 C   0  0  0  0  0  0  0  0  0  0  0  0
   -1.7512   -4.7642   -4.4885 H   0  0  0  0  0  0  0  0  0  0  0  0
   -1.6469   -7.3571   -3.8792 H   0  0  0  0  0  0  0  0  0  0  0  0
   -2.4710   -6.7336   -2.4100 H   0  0  0  0  0  0  0  0  0  0  0  0
   -3.2301   -6.5210   -4.0241 H   0  0  0  0  0  0  0  0  0  0  0  0
  1  3  1  0  0  0  0
  1  7  1  0  0  0  0
  1  2  2  0  0  0  0
 28 29  1  0  0  0  0
 29 37  1  0  0  0  0
 29 30  2  0  0  0  0
 18 19  1  0  0  0  0
 19 27  1  0  0  0  0
 19 20  2  0  0  0  0
  8  9  1  0  0  0  0
  9 17  1  0  0  0  0
  9 10  2  0  0  0  0
 28 31  1  0  0  0  0
 18 21  1  0  0  0  0
  8 11  1  0  0  0  0
 37 38  1  0  0  0  0
 27 28  1  0  0  0  0
 17 18  1  0  0  0  0
  7  8  1  0  0  0  0
  3  4  1  0  0  0  0
  3  5  1  0  0  0  0
  3  6  1  0  0  0  0
 31 34  1  0  0  0  0
 31 35  1  0  0  0  0
 31 36  1  0  0  0  0
 21 24  1  0  0  0  0
 21 25  1  0  0  0  0
 21 26  1  0  0  0  0
 11 14  1  0  0  0  0
 11 15  1  0  0  0  0
 11 16  1  0  0  0  0
 38 40  1  0  0  0  0
 38 41  1  0  0  0  0
 38 42  1  0  0  0  0
 28 33  1  0  0  0  0
 18 23  1  0  0  0  0
  8 13  1  0  0  0  0
 37 39  1  0  0  0  0
  7 12  1  0  0  0  0
 27 32  1  0  0  0  0
 17 22  1  0  0  0  0
M  END
$$$$

  -OEChem-05262214473D

 42 41  0     1  0  0  0  0  0999 V2000
   -5.7851   -0.9580    0.6237 C   0  0  0  0  0  0  0  0  0  0  0  0
   -6.2213    0.1296    0.2652 O   0  0  0  0  0  0  0  0  0  0  0  0
   -6.7088   -2.1270    0.7168 C   0  0  0  0  0  0  0  0  0  0  0  0
   -7.1713   -2.2193    1.7126 H   0  0  0  0  0  0  0  0  0  0  0  0
   -7.5511   -2.0547    0.0101 H   0  0  0  0  0  0  0  0  0  0  0  0
   -6.2485   -3.1083    0.5191 H   0  0  0  0  0  0  0  0  0  0  0  0
   -4.4733   -1.2411    0.9668 N   0  0  0  0  0  0  0  0  0  0  0  0
   -3.4203   -0.2603    0.9449 C   0  0  2  0  0  0  0  0  0  0  0  0
   -2.1242   -0.9699    0.5759 C   0  0  0  0  0  0  0  0  0  0  0  0
   -1.8694   -2.1225    0.9189 O   0  0  0  0  0  0  0  0  0  0  0  0
   -3.2916    0.4435    2.2868 C   0  0  0  0  0  0  0  0  0  0  0  0
   -4.2421   -2.1920    1.2489 H   0  0  0  0  0  0  0  0  0  0  0  0
   -3.6772    0.4622    0.1625 H   0  0  0  0  0  0  0  0  0  0  0  0
   -3.0345   -0.2644    3.0832 H   0  0  0  0  0  0  0  0  0  0  0  0
   -2.5093    1.2092    2.2599 H   0  0  0  0  0  0  0  0  0  0  0  0
   -4.2338    0.9283    2.5645 H   0  0  0  0  0  0  0  0  0  0  0  0
   -1.2626   -0.1515   -0.1463 N   0  0  0  0  0  0  0  0  0  0  0  0
    0.0431   -0.5785   -0.5755 C   0  0  2  0  0  0  0  0  0  0  0  0
   -0.0985   -1.2119   -1.9533 C   0  0  0  0  0  0  0  0  0  0  0  0
   -0.0390   -0.5663   -2.9977 O   0  0  0  0  0  0  0  0  0  0  0  0
    0.6575   -1.5579    0.4124 C   0  0  0  0  0  0  0  0  0  0  0  0
   -1.5766    0.7776   -0.4197 H   0  0  0  0  0  0  0  0  0  0  0  0
    0.6622    0.3223   -0.6489 H   0  0  0  0  0  0  0  0  0  0  0  0
    0.0511   -2.4668    0.4994 H   0  0  0  0  0  0  0  0  0  0  0  0
    1.6623   -1.8597    0.0991 H   0  0  0  0  0  0  0  0  0  0  0  0
    0.7311   -1.1108    1.4097 H   0  0  0  0  0  0  0  0  0  0  0  0
   -0.3428   -2.5790   -1.8821 N   0  0  0  0  0  0  0  0  0  0  0  0
   -0.5555   -3.3957   -3.0479 C   0  0  2  0  0  0  0  0  0  0  0  0
   -1.5250   -4.5085   -2.6720 C   0  0  0  0  0  0  0  0  0  0  0  0
   -1.5515   -5.0271   -1.5578 O   0  0  0  0  0  0  0  0  0  0  0  0
    0.7535   -3.9682   -3.5688 C   0  0  0  0  0  0  0  0  0  0  0  0
   -0.3348   -3.0357   -0.9722 H   0  0  0  0  0  0  0  0  0  0  0  0
   -1.0142   -2.7515   -3.8059 H   0  0  0  0  0  0  0  0  0  0  0  0
    1.2278   -4.6165   -2.8229 H   0  0  0  0  0  0  0  0  0  0  0  0
    0.5935   -4.5660   -4.4722 H   0  0  0  0  0  0  0  0  0  0  0  0
    1.4604   -3.1672   -3.8105 H   0  0  0  0  0  0  0  0  0  0  0  0
   -2.3279   -4.8840   -3.7399 N   0  0  0  0  0  0  0  0  0  0  0  0
   -3.2999   -5.9483   -3.6481 C   0  0  0  0  0  0  0  0  0  0  0  0
   -2.2662   -4.3728   -4.6155 H   0  0  0  0  0  0  0  0  0  0  0  0
   -2.8398   -6.8945   -3.9693 H   0  0  0  0  0  0  0  0  0  0  0  0
   -3.6432   -6.0425   -2.6073 H   0  0  0  0  0  0  0  0  0  0  0  0
   -4.1574   -5.7187   -4.2977 H   0  0  0  0  0  0  0  0  0  0  0  0
  1  3  1  0  0  0  0
  1  7  1  0  0  0  0
  1  2  2  0  0  0  0
 28 29  1  0  0  0  0
 29 37  1  0  0  0  0
 29 30  2  0  0  0  0
 18 19  1  0  0  0  0
 19 27  1  0  0  0  0
 19 20  2  0  0  0  0
  8  9  1  0  0  0  0
  9 17  1  0  0  0  0
  9 10  2  0  0  0  0
 28 31  1  0  0  0  0
 18 21  1  0  0  0  0
  8 11  1  0  0  0  0
 37 38  1  0  0  0  0
 27 28  1  0  0  0  0
 17 18  1  0  0  0  0
  7  8  1  0  0  0  0
  3  4  1  0  0  0  0
  3  5  1  0  0  0  0
  3  6  1  0  0  0  0
 31 34  1  0  0  0  0
 31 35  1  0  0  0  0
 31 36  1  0  0  0  0
 21 24  1  0  0  0  0
 21 25  1  0  0  0  0
 21 26  1  0  0  0  0
 11 14  1  0  0  0  0
 11 15  1  0  0  0  0
 11 16  1  0  0  0  0
 38 40  1  0  0  0  0
 38 41  1  0  0  0  0
 38 42  1  0  0  0  0
 28 33  1  0  0  0  0
 18 23  1  0  0  0  0
  8 13  1  0  0  0  0
 37 39  1  0  0  0  0
  7 12  1  0  0  0  0
 27 32  1  0  0  0  0
 17 22  1  0  0  0  0
M  END
$$$$

  -OEChem-05262214473D

 42 41  0     1  0  0  0  0  0999 V2000
   -5.7851   -0.9580    0.6237 C   0  0  0  0  0  0  0  0  0  0  0  0
   -6.2213    0.1296    0.2652 O   0  0  0  0  0  0  0  0  0  0  0  0
   -6.7088   -2.1270    0.7168 C   0  0  0  0  0  0  0  0  0  0  0  0
   -7.1713   -2.2193    1.7126 H   0  0  0  0  0  0  0  0  0  0  0  0
   -7.5511   -2.0547    0.0101 H   0  0  0  0  0  0  0  0  0  0  0  0
   -6.2485   -3.1083    0.5191 H   0  0  0  0  0  0  0  0  0  0  0  0
   -4.4733   -1.2411    0.9668 N   0  0  0  0  0  0  0  0  0  0  0  0
   -3.4203   -0.2603    0.9449 C   0  0  2  0  0  0  0  0  0  0  0  0
   -2.1242   -0.9699    0.5759 C   0  0  0  0  0  0  0  0  0  0  0  0
   -1.8694   -2.1225    0.9189 O   0  0  0  0  0  0  0  0  0  0  0  0
   -3.2916    0.4435    2.2868 C   0  0  0  0  0  0  0  0  0  0  0  0
   -4.2421   -2.1920    1.2489 H   0  0  0  0  0  0  0  0  0  0  0  0
   -3.6772    0.4622    0.1625 H   0  0  0  0  0  0  0  0  0  0  0  0
   -3.0345   -0.2644    3.0832 H   0  0  0  0  0  0  0  0  0  0  0  0
   -2.5093    1.2092    2.2599 H   0  0  0  0  0  0  0  0  0  0  0  0
   -4.2338    0.9283    2.5645 H   0  0  0  0  0  0  0  0  0  0  0  0
   -1.2626   -0.1515   -0.1463 N   0  0  0  0  0  0  0  0  0  0  0  0
    0.0431   -0.5785   -0.5755 C   0  0  2  0  0  0  0  0  0  0  0  0
   -0.0985   -1.2119   -1.9533 C   0  0  0  0  0  0  0  0  0  0  0  0
    0.2204   -0.6368   -2.9919 O   0  0  0  0  0  0  0  0  0  0  0  0
    0.6575   -1.5579    0.4124 C   0  0  0  0  0  0  0  0  0  0  0  0
   -1.5766    0.7776   -0.4197 H   0  0  0  0  0  0  0  0  0  0  0  0
    0.6622    0.3223   -0.6489 H   0  0  0  0  0  0  0  0  0  0  0  0
    0.0511   -2.4668    0.4994 H   0  0  0  0  0  0  0  0  0  0  0  0
    1.6623   -1.8597    0.0991 H   0  0  0  0  0  0  0  0  0  0  0  0
    0.7311   -1.1108    1.4097 H   0  0  0  0  0  0  0  0  0  0  0  0
   -0.6639   -2.4809   -1.8941 N   0  0  0  0  0  0  0  0  0  0  0  0
   -0.9396   -3.2681   -3.0671 C   0  0  2  0  0  0  0  0  0  0  0  0
   -2.1778   -4.1099   -2.7881 C   0  0  0  0  0  0  0  0  0  0  0  0
   -2.4422   -4.5667   -1.6779 O   0  0  0  0  0  0  0  0  0  0  0  0
    0.2450   -4.1485   -3.4336 C   0  0  0  0  0  0  0  0  0  0  0  0
   -0.8591   -2.8931   -0.9839 H   0  0  0  0  0  0  0  0  0  0  0  0
   -1.1517   -2.5632   -3.8783 H   0  0  0  0  0  0  0  0  0  0  0  0
    0.4725   -4.8614   -2.6327 H   0  0  0  0  0  0  0  0  0  0  0  0
    0.0443   -4.7255   -4.3424 H   0  0  0  0  0  0  0  0  0  0  0  0
    1.1419   -3.5436   -3.6048 H   0  0  0  0  0  0  0  0  0  0  0  0
   -2.9300   -4.3273   -3.9340 N   0  0  0  0  0  0  0  0  0  0  0  0
   -4.1294   -5.1320   -3.9382 C   0  0  0  0  0  0  0  0  0  0  0  0
   -2.6583   -3.8772   -4.8030 H   0  0  0  0  0  0  0  0  0  0  0  0
   -3.8740   -6.1704   -4.1959 H   0  0  0  0  0  0  0  0  0  0  0  0
   -4.5923   -5.1052   -2.9407 H   0  0  0  0  0  0  0  0  0  0  0  0
   -4.8358   -4.7331   -4.6810 H   0  0  0  0  0  0  0  0  0  0  0  0
  1  3  1  0  0  0  0
  1  7  1  0  0  0  0
  1  2  2  0  0  0  0
 28 29  1  0  0  0  0
 29 37  1  0  0  0  0
 29 30  2  0  0  0  0
 18 19  1  0  0  0  0
 19 27  1  0  0  0  0
 19 20  2  0  0  0  0
  8  9  1  0  0  0  0
  9 17  1  0  0  0  0
  9 10  2  0  0  0  0
 28 31  1  0  0  0  0
 18 21  1  0  0  0  0
  8 11  1  0  0  0  0
 37 38  1  0  0  0  0
 27 28  1  0  0  0  0
 17 18  1  0  0  0  0
  7  8  1  0  0  0  0
  3  4  1  0  0  0  0
  3  5  1  0  0  0  0
  3  6  1  0  0  0  0
 31 34  1  0  0  0  0
 31 35  1  0  0  0  0
 31 36  1  0  0  0  0
 21 24  1  0  0  0  0
 21 25  1  0  0  0  0
 21 26  1  0  0  0  0
 11 14  1  0  0  0  0
 11 15  1  0  0  0  0
 11 16  1  0  0  0  0
 38 40  1  0  0  0  0
 38 41  1  0  0  0  0
 38 42  1  0  0  0  0
 28 33  1  0  0  0  0
 18 23  1  0  0  0  0
  8 13  1  0  0  0  0
 37 39  1  0  0  0  0
  7 12  1  0  0  0  0
 27 32  1  0  0  0  0
 17 22  1  0  0  0  0
M  END
$$$$

  -OEChem-05262214473D

 42 41  0     1  0  0  0  0  0999 V2000
   -5.7851   -0.9580    0.6237 C   0  0  0  0  0  0  0  0  0  0  0  0
   -6.2213    0.1296    0.2652 O   0  0  0  0  0  0  0  0  0  0  0  0
   -6.7088   -2.1270    0.7168 C   0  0  0  0  0  0  0  0  0  0  0  0
   -7.1713   -2.2193    1.7126 H   0  0  0  0  0  0  0  0  0  0  0  0
   -7.5511   -2.0547    0.0101 H   0  0  0  0  0  0  0  0  0  0  0  0
   -6.2485   -3.1083    0.5191 H   0  0  0  0  0  0  0  0  0  0  0  0
   -4.4733   -1.2411    0.9668 N   0  0  0  0  0  0  0  0  0  0  0  0
   -3.4203   -0.2603    0.9449 C   0  0  2  0  0  0  0  0  0  0  0  0
   -2.1242   -0.9699    0.5759 C   0  0  0  0  0  0  0  0  0  0  0  0
   -1.8694   -2.1225    0.9189 O   0  0  0  0  0  0  0  0  0  0  0  0
   -3.2916    0.4435    2.2868 C   0  0  0  0  0  0  0  0  0  0  0  0
   -4.2421   -2.1920    1.2489 H   0  0  0  0  0  0  0  0  0  0  0  0
   -3.6772    0.4622    0.1625 H   0  0  0  0  0  0  0  0  0  0  0  0
   -3.0345   -0.2644    3.0832 H   0  0  0  0  0  0  0  0  0  0  0  0
   -2.5093    1.2092    2.2599 H   0  0  0  0  0  0  0  0  0  0  0  0
   -4.2338    0.9283    2.5645 H   0  0  0  0  0  0  0  0  0  0  0  0
   -1.2626   -0.1515   -0.1463 N   0  0  0  0  0  0  0  0  0  0  0  0
    0.0431   -0.5785   -0.5755 C   0  0  2  0  0  0  0  0  0  0  0  0
   -0.0985   -1.2119   -1.9533 C   0  0  0  0  0  0  0  0  0  0  0  0
    0.4539   -0.7656   -2.9567 O   0  0  0  0  0  0  0  0  0  0  0  0
    0.6575   -1.5579    0.4124 C   0  0  0  0  0  0  0  0  0  0  0  0
   -1.5766    0.7776   -0.4197 H   0  0  0  0  0  0  0  0  0  0  0  0
    0.6622    0.3223   -0.6489 H   0  0  0  0  0  0  0  0  0  0  0  0
    0.0511   -2.4668    0.4994 H   0  0  0  0  0  0  0  0  0  0  0  0
    1.6623   -1.8597    0.0991 H   0  0  0  0  0  0  0  0  0  0  0  0
    0.7311   -1.1108    1.4097 H   0  0  0  0  0  0  0  0  0  0  0  0
   -0.9498   -2.3114   -1.9427 N   0  0  0  0  0  0  0  0  0  0  0  0
   -1.2787   -3.0554   -3.1300 C   0  0  2  0  0  0  0  0  0  0  0  0
   -2.7024   -3.5750   -2.9801 C   0  0  0  0  0  0  0  0  0  0  0  0
   -3.1818   -3.9163   -1.9009 O   0  0  0  0  0  0  0  0  0  0  0  0
   -0.3030   -4.2003   -3.3535 C   0  0  0  0  0  0  0  0  0  0  0  0
   -1.3308   -2.6329   -1.0550 H   0  0  0  0  0  0  0  0  0  0  0  0
   -1.2326   -2.3509   -3.9676 H   0  0  0  0  0  0  0  0  0  0  0  0
   -0.3349   -4.9165   -2.5243 H   0  0  0  0  0  0  0  0  0  0  0  0
   -0.5375   -4.7478   -4.2723 H   0  0  0  0  0  0  0  0  0  0  0  0
    0.7241   -3.8276   -3.4313 H   0  0  0  0  0  0  0  0  0  0  0  0
   -3.3604   -3.6533   -4.1996 N   0  0  0  0  0  0  0  0  0  0  0  0
   -4.7083   -4.1563   -4.3273 C   0  0  0  0  0  0  0  0  0  0  0  0
   -2.9008   -3.3112   -5.0383 H   0  0  0  0  0  0  0  0  0  0  0  0
   -4.6790   -5.2344   -4.5435 H   0  0  0  0  0  0  0  0  0  0  0  0
   -5.2538   -3.9856   -3.3874 H   0  0  0  0  0  0  0  0  0  0  0  0
   -5.2191   -3.6315   -5.1481 H   0  0  0  0  0  0  0  0  0  0  0  0
  1  3  1  0  0  0  0
  1  7  1  0  0  0  0
  1  2  2  0  0  0  0
 28 29  1  0  0  0  0
 29 37  1  0  0  0  0
 29 30  2  0  0  0  0
 18 19  1  0  0  0  0
 19 27  1  0  0  0  0
 19 20  2  0  0  0  0
  8  9  1  0  0  0  0
  9 17  1  0  0  0  0
  9 10  2  0  0  0  0
 28 31  1  0  0  0  0
 18 21  1  0  0  0  0
  8 11  1  0  0  0  0
 37 38  1  0  0  0  0
 27 28  1  0  0  0  0
 17 18  1  0  0  0  0
  7  8  1  0  0  0  0
  3  4  1  0  0  0  0
  3  5  1  0  0  0  0
  3  6  1  0  0  0  0
 31 34  1  0  0  0  0
 31 35  1  0  0  0  0
 31 36  1  0  0  0  0
 21 24  1  0  0  0  0
 21 25  1  0  0  0  0
 21 26  1  0  0  0  0
 11 14  1  0  0  0  0
 11 15  1  0  0  0  0
 11 16  1  0  0  0  0
 38 40  1  0  0  0  0
 38 41  1  0  0  0  0
 38 42  1  0  0  0  0
 28 33  1  0  0  0  0
 18 23  1  0  0  0  0
  8 13  1  0  0  0  0
 37 39  1  0  0  0  0
  7 12  1  0  0  0  0
 27 32  1  0  0  0  0
 17 22  1  0  0  0  0
M  END
$$$$

  -OEChem-05262214473D

 42 41  0     1  0  0  0  0  0999 V2000
   -5.7851   -0.9580    0.6237 C   0  0  0  0  0  0  0  0  0  0  0  0
   -6.2213    0.1296    0.2652 O   0  0  0  0  0  0  0  0  0  0  0  0
   -6.7088   -2.1270    0.7168 C   0  0  0  0  0  0  0  0  0  0  0  0
   -7.1713   -2.2193    1.7126 H   0  0  0  0  0  0  0  0  0  0  0  0
   -7.5511   -2.0547    0.0101 H   0  0  0  0  0  0  0  0  0  0  0  0
   -6.2485   -3.1083    0.5191 H   0  0  0  0  0  0  0  0  0  0  0  0
   -4.4733   -1.2411    0.9668 N   0  0  0  0  0  0  0  0  0  0  0  0
   -3.4203   -0.2603    0.9449 C   0  0  2  0  0  0  0  0  0  0  0  0
   -2.1242   -0.9699    0.5759 C   0  0  0  0  0  0  0  0  0  0  0  0
   -1.8694   -2.1225    0.9189 O   0  0  0  0  0  0  0  0  0  0  0  0
   -3.2916    0.4435    2.2868 C   0  0  0  0  0  0  0  0  0  0  0  0
   -4.2421   -2.1920    1.2489 H   0  0  0  0  0  0  0  0  0  0  0  0
   -3.6772    0.4622    0.1625 H   0  0  0  0  0  0  0  0  0  0  0  0
   -3.0345   -0.2644    3.0832 H   0  0  0  0  0  0  0  0  0  0  0  0
   -2.5093    1.2092    2.2599 H   0  0  0  0  0  0  0  0  0  0  0  0
   -4.2338    0.9283    2.5645 H   0  0  0  0  0  0  0  0  0  0  0  0
   -1.2626   -0.1515   -0.1463 N   0  0  0  0  0  0  0  0  0  0  0  0
    0.0431   -0.5785   -0.5755 C   0  0  2  0  0  0  0  0  0  0  0  0
   -0.0985   -1.2119   -1.9533 C   0  0  0  0  0  0  0  0  0  0  0  0
    0.6454   -0.9438   -2.8945 O   0  0  0  0  0  0  0  0  0  0  0  0
    0.6575   -1.5579    0.4124 C   0  0  0  0  0  0  0  0  0  0  0  0
   -1.5766    0.7776   -0.4197 H   0  0  0  0  0  0  0  0  0  0  0  0
    0.6622    0.3223   -0.6489 H   0  0  0  0  0  0  0  0  0  0  0  0
    0.0511   -2.4668    0.4994 H   0  0  0  0  0  0  0  0  0  0  0  0
    1.6623   -1.8597    0.0991 H   0  0  0  0  0  0  0  0  0  0  0  0
    0.7311   -1.1108    1.4097 H   0  0  0  0  0  0  0  0  0  0  0  0
   -1.1810   -2.0818   -2.0245 N   0  0  0  0  0  0  0  0  0  0  0  0
   -1.5496   -2.7721   -3.2324 C   0  0  2  0  0  0  0  0  0  0  0  0
   -3.0633   -2.9400   -3.2350 C   0  0  0  0  0  0  0  0  0  0  0  0
   -3.7199   -3.1203   -2.2115 O   0  0  0  0  0  0  0  0  0  0  0  0
   -0.8530   -4.1201   -3.3338 C   0  0  0  0  0  0  0  0  0  0  0  0
   -1.7179   -2.2728   -1.1808 H   0  0  0  0  0  0  0  0  0  0  0  0
   -1.2515   -2.1291   -4.0677 H   0  0  0  0  0  0  0  0  0  0  0  0
   -1.1394   -4.7781   -2.5053 H   0  0  0  0  0  0  0  0  0  0  0  0
   -1.1122   -4.6315   -4.2668 H   0  0  0  0  0  0  0  0  0  0  0  0
    0.2352   -3.9999   -3.3018 H   0  0  0  0  0  0  0  0  0  0  0  0
   -3.5898   -2.9079   -4.5187 N   0  0  0  0  0  0  0  0  0  0  0  0
   -4.9971   -3.0876   -4.7889 C   0  0  0  0  0  0  0  0  0  0  0  0
   -2.9772   -2.7134   -5.3053 H   0  0  0  0  0  0  0  0  0  0  0  0
   -5.2000   -4.1501   -4.9884 H   0  0  0  0  0  0  0  0  0  0  0  0
   -5.5825   -2.7601   -3.9170 H   0  0  0  0  0  0  0  0  0  0  0  0
   -5.2811   -2.4890   -5.6670 H   0  0  0  0  0  0  0  0  0  0  0  0
  1  3  1  0  0  0  0
  1  7  1  0  0  0  0
  1  2  2  0  0  0  0
 28 29  1  0  0  0  0
 29 37  1  0  0  0  0
 29 30  2  0  0  0  0
 18 19  1  0  0  0  0
 19 27  1  0  0  0  0
 19 20  2  0  0  0  0
  8  9  1  0  0  0  0
  9 17  1  0  0  0  0
  9 10  2  0  0  0  0
 28 31  1  0  0  0  0
 18 21  1  0  0  0  0
  8 11  1  0  0  0  0
 37 38  1  0  0  0  0
 27 28  1  0  0  0  0
 17 18  1  0  0  0  0
  7  8  1  0  0  0  0
  3  4  1  0  0  0  0
  3  5  1  0  0  0  0
  3  6  1  0  0  0  0
 31 34  1  0  0  0  0
 31 35  1  0  0  0  0
 31 36  1  0  0  0  0
 21 24  1  0  0  0  0
 21 25  1  0  0  0  0
 21 26  1  0  0  0  0
 11 14  1  0  0  0  0
 11 15  1  0  0  0  0
 11 16  1  0  0  0  0
 38 40  1  0  0  0  0
 38 41  1  0  0  0  0
 38 42  1  0  0  0  0
 28 33  1  0  0  0  0
 18 23  1  0  0  0  0
  8 13  1  0  0  0  0
 37 39  1  0  0  0  0
  7 12  1  0  0  0  0
 27 32  1  0  0  0  0
 17 22  1  0  0  0  0
M  END
$$$$

  -OEChem-05262214473D

 42 41  0     1  0  0  0  0  0999 V2000
   -5.7851   -0.9580    0.6237 C   0  0  0  0  0  0  0  0  0  0  0  0
   -6.2213    0.1296    0.2652 O   0  0  0  0  0  0  0  0  0  0  0  0
   -6.7088   -2.1270    0.7168 C   0  0  0  0  0  0  0  0  0  0  0  0
   -7.1713   -2.2193    1.7126 H   0  0  0  0  0  0  0  0  0  0  0  0
   -7.5511   -2.0547    0.0101 H   0  0  0  0  0  0  0  0  0  0  0  0
   -6.2485   -3.1083    0.5191 H   0  0  0  0  0  0  0  0  0  0  0  0
   -4.4733   -1.2411    0.9668 N   0  0  0  0  0  0  0  0  0  0  0  0
   -3.4203   -0.2603    0.9449 C   0  0  2  0  0  0  0  0  0  0  0  0
   -2.1242   -0.9699    0.5759 C   0  0  0  0  0  0  0  0  0  0  0  0
   -1.8694   -2.1225    0.9189 O   0  0  0  0  0  0  0  0  0  0  0  0
   -3.2916    0.4435    2.2868 C   0  0  0  0  0  0  0  0  0  0  0  0
   -4.2421   -2.1920    1.2489 H   0  0  0  0  0  0  0  0  0  0  0  0
   -3.6772    0.4622    0.1625 H   0  0  0  0  0  0  0  0  0  0  0  0
   -3.0345   -0.2644    3.0832 H   0  0  0  0  0  0  0  0  0  0  0  0
   -2.5093    1.2092    2.2599 H   0  0  0  0  0  0  0  0  0  0  0  0
   -4.2338    0.9283    2.5645 H   0  0  0  0  0  0  0  0  0  0  0  0
   -1.2626   -0.1515   -0.1463 N   0  0  0  0  0  0  0  0  0  0  0  0
    0.0431   -0.5785   -0.5755 C   0  0  2  0  0  0  0  0  0  0  0  0
   -0.0985   -1.2119   -1.9533 C   0  0  0  0  0  0  0  0  0  0  0  0
    0.7820   -1.1593   -2.8094 O   0  0  0  0  0  0  0  0  0  0  0  0
    0.6575   -1.5579    0.4124 C   0  0  0  0  0  0  0  0  0  0  0  0
   -1.5766    0.7776   -0.4197 H   0  0  0  0  0  0  0  0  0  0  0  0
    0.6622    0.3223   -0.6489 H   0  0  0  0  0  0  0  0  0  0  0  0
    0.0511   -2.4668    0.4994 H   0  0  0  0  0  0  0  0  0  0  0  0
    1.6623   -1.8597    0.0991 H   0  0  0  0  0  0  0  0  0  0  0  0
    0.7311   -1.1108    1.4097 H   0  0  0  0  0  0  0  0  0  0  0  0
   -1.3418   -1.8078   -2.1339 N   0  0  0  0  0  0  0  0  0  0  0  0
   -1.7339   -2.4374   -3.3673 C   0  0  2  0  0  0  0  0  0  0  0  0
   -3.2358   -2.2483   -3.5352 C   0  0  0  0  0  0  0  0  0  0  0  0
   -4.0199   -2.2329   -2.5887 O   0  0  0  0  0  0  0  0  0  0  0  0
   -1.3677   -3.9134   -3.3760 C   0  0  0  0  0  0  0  0  0  0  0  0
   -1.9939   -1.8374   -1.3526 H   0  0  0  0  0  0  0  0  0  0  0  0
   -1.2069   -1.9128   -4.1717 H   0  0  0  0  0  0  0  0  0  0  0  0
   -1.8861   -4.4557   -2.5768 H   0  0  0  0  0  0  0  0  0  0  0  0
   -1.6408   -4.3844   -4.3260 H   0  0  0  0  0  0  0  0  0  0  0  0
   -0.2912   -4.0487   -3.2253 H   0  0  0  0  0  0  0  0  0  0  0  0
   -3.6024   -2.1419   -4.8696 N   0  0  0  0  0  0  0  0  0  0  0  0
   -4.9762   -1.9988   -5.2916 C   0  0  0  0  0  0  0  0  0  0  0  0
   -2.8823   -2.1245   -5.5858 H   0  0  0  0  0  0  0  0  0  0  0  0
   -5.4015   -2.9915   -5.5004 H   0  0  0  0  0  0  0  0  0  0  0  0
   -5.5560   -1.5121   -4.4935 H   0  0  0  0  0  0  0  0  0  0  0  0
   -5.0177   -1.3833   -6.2024 H   0  0  0  0  0  0  0  0  0  0  0  0
  1  3  1  0  0  0  0
  1  7  1  0  0  0  0
  1  2  2  0  0  0  0
 28 29  1  0  0  0  0
 29 37  1  0  0  0  0
 29 30  2  0  0  0  0
 18 19  1  0  0  0  0
 19 27  1  0  0  0  0
 19 20  2  0  0  0  0
  8  9  1  0  0  0  0
  9 17  1  0  0  0  0
  9 10  2  0  0  0  0
 28 31  1  0  0  0  0
 18 21  1  0  0  0  0
  8 11  1  0  0  0  0
 37 38  1  0  0  0  0
 27 28  1  0  0  0  0
 17 18  1  0  0  0  0
  7  8  1  0  0  0  0
  3  4  1  0  0  0  0
  3  5  1  0  0  0  0
  3  6  1  0  0  0  0
 31 34  1  0  0  0  0
 31 35  1  0  0  0  0
 31 36  1  0  0  0  0
 21 24  1  0  0  0  0
 21 25  1  0  0  0  0
 21 26  1  0  0  0  0
 11 14  1  0  0  0  0
 11 15  1  0  0  0  0
 11 16  1  0  0  0  0
 38 40  1  0  0  0  0
 38 41  1  0  0  0  0
 38 42  1  0  0  0  0
 28 33  1  0  0  0  0
 18 23  1  0  0  0  0
  8 13  1  0  0  0  0
 37 39  1  0  0  0  0
  7 12  1  0  0  0  0
 27 32  1  0  0  0  0
 17 22  1  0  0  0  0
M  END
$$$$

  -OEChem-05262214473D

 42 41  0     1  0  0  0  0  0999 V2000
   -5.7851   -0.9580    0.6237 C   0  0  0  0  0  0  0  0  0  0  0  0
   -6.2213    0.1296    0.2652 O   0  0  0  0  0  0  0  0  0  0  0  0
   -6.7088   -2.1270    0.7168 C   0  0  0  0  0  0  0  0  0  0  0  0
   -7.1713   -2.2193    1.7126 H   0  0  0  0  0  0  0  0  0  0  0  0
   -7.5511   -2.0547    0.0101 H   0  0  0  0  0  0  0  0  0  0  0  0
   -6.2485   -3.1083    0.5191 H   0  0  0  0  0  0  0  0  0  0  0  0
   -4.4733   -1.2411    0.9668 N   0  0  0  0  0  0  0  0  0  0  0  0
   -3.4203   -0.2603    0.9449 C   0  0  2  0  0  0  0  0  0  0  0  0
   -2.1242   -0.9699    0.5759 C   0  0  0  0  0  0  0  0  0  0  0  0
   -1.8694   -2.1225    0.9189 O   0  0  0  0  0  0  0  0  0  0  0  0
   -3.2916    0.4435    2.2868 C   0  0  0  0  0  0  0  0  0  0  0  0
   -4.2421   -2.1920    1.2489 H   0  0  0  0  0  0  0  0  0  0  0  0
   -3.6772    0.4622    0.1625 H   0  0  0  0  0  0  0  0  0  0  0  0
   -3.0345   -0.2644    3.0832 H   0  0  0  0  0  0  0  0  0  0  0  0
   -2.5093    1.2092    2.2599 H   0  0  0  0  0  0  0  0  0  0  0  0
   -4.2338    0.9283    2.5645 H   0  0  0  0  0  0  0  0  0  0  0  0
   -1.2626   -0.1515   -0.1463 N   0  0  0  0  0  0  0  0  0  0  0  0
    0.0431   -0.5785   -0.5755 C   0  0  2  0  0  0  0  0  0  0  0  0
   -0.0985   -1.2119   -1.9533 C   0  0  0  0  0  0  0  0  0  0  0  0
    0.8544   -1.3973   -2.7074 O   0  0  0  0  0  0  0  0  0  0  0  0
    0.6575   -1.5579    0.4124 C   0  0  0  0  0  0  0  0  0  0  0  0
   -1.5766    0.7776   -0.4197 H   0  0  0  0  0  0  0  0  0  0  0  0
    0.6622    0.3223   -0.6489 H   0  0  0  0  0  0  0  0  0  0  0  0
    0.0511   -2.4668    0.4994 H   0  0  0  0  0  0  0  0  0  0  0  0
    1.6623   -1.8597    0.0991 H   0  0  0  0  0  0  0  0  0  0  0  0
    0.7311   -1.1108    1.4097 H   0  0  0  0  0  0  0  0  0  0  0  0
   -1.4212   -1.5082   -2.2635 N   0  0  0  0  0  0  0  0  0  0  0  0
   -1.8191   -2.0743   -3.5255 C   0  0  2  0  0  0  0  0  0  0  0  0
   -3.2081   -1.5470   -3.8605 C   0  0  0  0  0  0  0  0  0  0  0  0
   -4.0613   -1.3145   -3.0066 O   0  0  0  0  0  0  0  0  0  0  0  0
   -1.8118   -3.5943   -3.4770 C   0  0  0  0  0  0  0  0  0  0  0  0
   -2.1401   -1.3563   -1.5587 H   0  0  0  0  0  0  0  0  0  0  0  0
   -1.1021   -1.7168   -4.2726 H   0  0  0  0  0  0  0  0  0  0  0  0
   -2.5242   -3.9710   -2.7340 H   0  0  0  0  0  0  0  0  0  0  0  0
   -2.0871   -4.0235   -4.4461 H   0  0  0  0  0  0  0  0  0  0  0  0
   -0.8194   -3.9708   -3.2068 H   0  0  0  0  0  0  0  0  0  0  0  0
   -3.3975   -1.4075   -5.2283 N   0  0  0  0  0  0  0  0  0  0  0  0
   -4.6470   -0.9641   -5.8011 C   0  0  0  0  0  0  0  0  0  0  0  0
   -2.6226   -1.5846   -5.8606 H   0  0  0  0  0  0  0  0  0  0  0  0
   -5.2698   -1.8375   -6.0444 H   0  0  0  0  0  0  0  0  0  0  0  0
   -5.1762   -0.3267   -5.0775 H   0  0  0  0  0  0  0  0  0  0  0  0
   -4.4467   -0.3899   -6.7177 H   0  0  0  0  0  0  0  0  0  0  0  0
  1  3  1  0  0  0  0
  1  7  1  0  0  0  0
  1  2  2  0  0  0  0
 28 29  1  0  0  0  0
 29 37  1  0  0  0  0
 29 30  2  0  0  0  0
 18 19  1  0  0  0  0
 19 27  1  0  0  0  0
 19 20  2  0  0  0  0
  8  9  1  0  0  0  0
  9 17  1  0  0  0  0
  9 10  2  0  0  0  0
 28 31  1  0  0  0  0
 18 21  1  0  0  0  0
  8 11  1  0  0  0  0
 37 38  1  0  0  0  0
 27 28  1  0  0  0  0
 17 18  1  0  0  0  0
  7  8  1  0  0  0  0
  3  4  1  0  0  0  0
  3  5  1  0  0  0  0
  3  6  1  0  0  0  0
 31 34  1  0  0  0  0
 31 35  1  0  0  0  0
 31 36  1  0  0  0  0
 21 24  1  0  0  0  0
 21 25  1  0  0  0  0
 21 26  1  0  0  0  0
 11 14  1  0  0  0  0
 11 15  1  0  0  0  0
 11 16  1  0  0  0  0
 38 40  1  0  0  0  0
 38 41  1  0  0  0  0
 38 42  1  0  0  0  0
 28 33  1  0  0  0  0
 18 23  1  0  0  0  0
  8 13  1  0  0  0  0
 37 39  1  0  0  0  0
  7 12  1  0  0  0  0
 27 32  1  0  0  0  0
 17 22  1  0  0  0  0
M  END
$$$$

  -OEChem-05262214473D

 42 41  0     1  0  0  0  0  0999 V2000
   -5.7851   -0.9580    0.6237 C   0  0  0  0  0  0  0  0  0  0  0  0
   -6.2213    0.1296    0.2652 O   0  0  0  0  0  0  0  0  0  0  0  0
   -6.7088   -2.1270    0.7168 C   0  0  0  0  0  0  0  0  0  0  0  0
   -7.1713   -2.2193    1.7126 H   0  0  0  0  0  0  0  0  0  0  0  0
   -7.5511   -2.0547    0.0101 H   0  0  0  0  0  0  0  0  0  0  0  0
   -6.2485   -3.1083    0.5191 H   0  0  0  0  0  0  0  0  0  0  0  0
   -4.4733   -1.2411    0.9668 N   0  0  0  0  0  0  0  0  0  0  0  0
   -3.4203   -0.2603    0.9449 C   0  0  2  0  0  0  0  0  0  0  0  0
   -2.1242   -0.9699    0.5759 C   0  0  0  0  0  0  0  0  0  0  0  0
   -1.8694   -2.1225    0.9189 O   0  0  0  0  0  0  0  0  0  0  0  0
   -3.2916    0.4435    2.2868 C   0  0  0  0  0  0  0  0  0  0  0  0
   -4.2421   -2.1920    1.2489 H   0  0  0  0  0  0  0  0  0  0  0  0
   -3.6772    0.4622    0.1625 H   0  0  0  0  0  0  0  0  0  0  0  0
   -3.0345   -0.2644    3.0832 H   0  0  0  0  0  0  0  0  0  0  0  0
   -2.5093    1.2092    2.2599 H   0  0  0  0  0  0  0  0  0  0  0  0
   -4.2338    0.9283    2.5645 H   0  0  0  0  0  0  0  0  0  0  0  0
   -1.2626   -0.1515   -0.1463 N   0  0  0  0  0  0  0  0  0  0  0  0
    0.0431   -0.5785   -0.5755 C   0  0  2  0  0  0  0  0  0  0  0  0
   -0.0985   -1.2119   -1.9533 C   0  0  0  0  0  0  0  0  0  0  0  0
    0.8575   -1.6418   -2.5954 O   0  0  0  0  0  0  0  0  0  0  0  0
    0.6575   -1.5579    0.4124 C   0  0  0  0  0  0  0  0  0  0  0  0
   -1.5766    0.7776   -0.4197 H   0  0  0  0  0  0  0  0  0  0  0  0
    0.6622    0.3223   -0.6489 H   0  0  0  0  0  0  0  0  0  0  0  0
    0.0511   -2.4668    0.4994 H   0  0  0  0  0  0  0  0  0  0  0  0
    1.6623   -1.8597    0.0991 H   0  0  0  0  0  0  0  0  0  0  0  0
    0.7311   -1.1108    1.4097 H   0  0  0  0  0  0  0  0  0  0  0  0
   -1.4138   -1.2033   -2.4044 N   0  0  0  0  0  0  0  0  0  0  0  0
   -1.7993   -1.7074   -3.6962 C   0  0  2  0  0  0  0  0  0  0  0  0
   -2.9821   -0.8839   -4.1885 C   0  0  0  0  0  0  0  0  0  0  0  0
   -3.8412   -0.4279   -3.4368 O   0  0  0  0  0  0  0  0  0  0  0  0
   -2.1553   -3.1844   -3.6302 C   0  0  0  0  0  0  0  0  0  0  0  0
   -2.1465   -0.8623   -1.7852 H   0  0  0  0  0  0  0  0  0  0  0  0
   -0.9441   -1.5544   -4.3635 H   0  0  0  0  0  0  0  0  0  0  0  0
   -3.0101   -3.3573   -2.9662 H   0  0  0  0  0  0  0  0  0  0  0  0
   -2.4207   -3.5732   -4.6188 H   0  0  0  0  0  0  0  0  0  0  0  0
   -1.3133   -3.7715   -3.2477 H   0  0  0  0  0  0  0  0  0  0  0  0
   -2.9889   -0.7547   -5.5704 N   0  0  0  0  0  0  0  0  0  0  0  0
   -4.0318   -0.0540   -6.2827 C   0  0  0  0  0  0  0  0  0  0  0  0
   -2.2157   -1.1305   -6.1112 H   0  0  0  0  0  0  0  0  0  0  0  0
   -4.8138   -0.7668   -6.5835 H   0  0  0  0  0  0  0  0  0  0  0  0
   -4.4689    0.7154   -5.6292 H   0  0  0  0  0  0  0  0  0  0  0  0
   -3.6071    0.4236   -7.1780 H   0  0  0  0  0  0  0  0  0  0  0  0
  1  3  1  0  0  0  0
  1  7  1  0  0  0  0
  1  2  2  0  0  0  0
 28 29  1  0  0  0  0
 29 37  1  0  0  0  0
 29 30  2  0  0  0  0
 18 19  1  0  0  0  0
 19 27  1  0  0  0  0
 19 20  2  0  0  0  0
  8  9  1  0  0  0  0
  9 17  1  0  0  0  0
  9 10  2  0  0  0  0
 28 31  1  0  0  0  0
 18 21  1  0  0  0  0
  8 11  1  0  0  0  0
 37 38  1  0  0  0  0
 27 28  1  0  0  0  0
 17 18  1  0  0  0  0
  7  8  1  0  0  0  0
  3  4  1  0  0  0  0
  3  5  1  0  0  0  0
  3  6  1  0  0  0  0
 31 34  1  0  0  0  0
 31 35  1  0  0  0  0
 31 36  1  0  0  0  0
 21 24  1  0  0  0  0
 21 25  1  0  0  0  0
 21 26  1  0  0  0  0
 11 14  1  0  0  0  0
 11 15  1  0  0  0  0
 11 16  1  0  0  0  0
 38 40  1  0  0  0  0
 38 41  1  0  0  0  0
 38 42  1  0  0  0  0
 28 33  1  0  0  0  0
 18 23  1  0  0  0  0
  8 13  1  0  0  0  0
 37 39  1  0  0  0  0
  7 12  1  0  0  0  0
 27 32  1  0  0  0  0
 17 22  1  0  0  0  0
M  END
$$$$

  -OEChem-05262214473D

 42 41  0     1  0  0  0  0  0999 V2000
   -5.7851   -0.9580    0.6237 C   0  0  0  0  0  0  0  0  0  0  0  0
   -6.2213    0.1296    0.2652 O   0  0  0  0  0  0  0  0  0  0  0  0
   -6.7088   -2.1270    0.7168 C   0  0  0  0  0  0  0  0  0  0  0  0
   -7.1713   -2.2193    1.7126 H   0  0  0  0  0  0  0  0  0  0  0  0
   -7.5511   -2.0547    0.0101 H   0  0  0  0  0  0  0  0  0  0  0  0
   -6.2485   -3.1083    0.5191 H   0  0  0  0  0  0  0  0  0  0  0  0
   -4.4733   -1.2411    0.9668 N   0  0  0  0  0  0  0  0  0  0  0  0
   -3.4203   -0.2603    0.9449 C   0  0  2  0  0  0  0  0  0  0  0  0
   -2.1242   -0.9699    0.5759 C   0  0  0  0  0  0  0  0  0  0  0  0
   -1.8694   -2.1225    0.9189 O   0  0  0  0  0  0  0  0  0  0  0  0
   -3.2916    0.4435    2.2868 C   0  0  0  0  0  0  0  0  0  0  0  0
   -4.2421   -2.1920    1.2489 H   0  0  0  0  0  0  0  0  0  0  0  0
   -3.6772    0.4622    0.1625 H   0  0  0  0  0  0  0  0  0  0  0  0
   -3.0345   -0.2644    3.0832 H   0  0  0  0  0  0  0  0  0  0  0  0
   -2.5093    1.2092    2.2599 H   0  0  0  0  0  0  0  0  0  0  0  0
   -4.2338    0.9283    2.5645 H   0  0  0  0  0  0  0  0  0  0  0  0
   -1.2626   -0.1515   -0.1463 N   0  0  0  0  0  0  0  0  0  0  0  0
    0.0431   -0.5785   -0.5755 C   0  0  2  0  0  0  0  0  0  0  0  0
   -0.0985   -1.2119   -1.9533 C   0  0  0  0  0  0  0  0  0  0  0  0
    0.7913   -1.8759   -2.4809 O   0  0  0  0  0  0  0  0  0  0  0  0
    0.6575   -1.5579    0.4124 C   0  0  0  0  0  0  0  0  0  0  0  0
   -1.5766    0.7776   -0.4197 H   0  0  0  0  0  0  0  0  0  0  0  0
    0.6622    0.3223   -0.6489 H   0  0  0  0  0  0  0  0  0  0  0  0
    0.0511   -2.4668    0.4994 H   0  0  0  0  0  0  0  0  0  0  0  0
    1.6623   -1.8597    0.0991 H   0  0  0  0  0  0  0  0  0  0  0  0
    0.7311   -1.1108    1.4097 H   0  0  0  0  0  0  0  0  0  0  0  0
   -1.3201   -0.9140   -2.5471 N   0  0  0  0  0  0  0  0  0  0  0  0
   -1.6759   -1.3617   -3.8678 C   0  0  2  0  0  0  0  0  0  0  0  0
   -2.5733   -0.3042   -4.4971 C   0  0  0  0  0  0  0  0  0  0  0  0
   -3.3747    0.3667   -3.8501 O   0  0  0  0  0  0  0  0  0  0  0  0
   -2.3745   -2.7118   -3.8249 C   0  0  0  0  0  0  0  0  0  0  0  0
   -2.0126   -0.3892   -2.0165 H   0  0  0  0  0  0  0  0  0  0  0  0
   -0.7437   -1.4368   -4.4381 H   0  0  0  0  0  0  0  0  0  0  0  0
   -3.3108   -2.6563   -3.2576 H   0  0  0  0  0  0  0  0  0  0  0  0
   -2.6190   -3.0643   -4.8324 H   0  0  0  0  0  0  0  0  0  0  0  0
   -1.7393   -3.4642   -3.3452 H   0  0  0  0  0  0  0  0  0  0  0  0
   -2.4047   -0.2280   -5.8725 N   0  0  0  0  0  0  0  0  0  0  0  0
   -3.1727    0.6695   -6.7036 C   0  0  0  0  0  0  0  0  0  0  0  0
   -1.6893   -0.7932   -6.3204 H   0  0  0  0  0  0  0  0  0  0  0  0
   -4.0645    0.1477   -7.0810 H   0  0  0  0  0  0  0  0  0  0  0  0
   -3.4824    1.5430   -6.1111 H   0  0  0  0  0  0  0  0  0  0  0  0
   -2.5561    1.0017   -7.5518 H   0  0  0  0  0  0  0  0  0  0  0  0
  1  3  1  0  0  0  0
  1  7  1  0  0  0  0
  1  2  2  0  0  0  0
 28 29  1  0  0  0  0
 29 37  1  0  0  0  0
 29 30  2  0  0  0  0
 18 19  1  0  0  0  0
 19 27  1  0  0  0  0
 19 20  2  0  0  0  0
  8  9  1  0  0  0  0
  9 17  1  0  0  0  0
  9 10  2  0  0  0  0
 28 31  1  0  0  0  0
 18 21  1  0  0  0  0
  8 11  1  0  0  0  0
 37 38  1  0  0  0  0
 27 28  1  0  0  0  0
 17 18  1  0  0  0  0
  7  8  1  0  0  0  0
  3  4  1  0  0  0  0
  3  5  1  0  0  0  0
  3  6  1  0  0  0  0
 31 34  1  0  0  0  0
 31 35  1  0  0  0  0
 31 36  1  0  0  0  0
 21 24  1  0  0  0  0
 21 25  1  0  0  0  0
 21 26  1  0  0  0  0
 11 14  1  0  0  0  0
 11 15  1  0  0  0  0
 11 16  1  0  0  0  0
 38 40  1  0  0  0  0
 38 41  1  0  0  0  0
 38 42  1  0  0  0  0
 28 33  1  0  0  0  0
 18 23  1  0  0  0  0
  8 13  1  0  0  0  0
 37 39  1  0  0  0  0
  7 12  1  0  0  0  0
 27 32  1  0  0  0  0
 17 22  1  0  0  0  0
M  END
$$$$

  -OEChem-05262214473D

 42 41  0     1  0  0  0  0  0999 V2000
   -5.7851   -0.9580    0.6237 C   0  0  0  0  0  0  0  0  0  0  0  0
   -6.2213    0.1296    0.2652 O   0  0  0  0  0  0  0  0  0  0  0  0
   -6.7088   -2.1270    0.7168 C   0  0  0  0  0  0  0  0  0  0  0  0
   -7.1713   -2.2193    1.7126 H   0  0  0  0  0  0  0  0  0  0  0  0
   -7.5511   -2.0547    0.0101 H   0  0  0  0  0  0  0  0  0  0  0  0
   -6.2485   -3.1083    0.5191 H   0  0  0  0  0  0  0  0  0  0  0  0
   -4.4733   -1.2411    0.9668 N   0  0  0  0  0  0  0  0  0  0  0  0
   -3.4203   -0.2603    0.9449 C   0  0  2  0  0  0  0  0  0  0  0  0
   -2.1242   -0.9699    0.5759 C   0  0  0  0  0  0  0  0  0  0  0  0
   -1.8694   -2.1225    0.9189 O   0  0  0  0  0  0  0  0  0  0  0  0
   -3.2916    0.4435    2.2868 C   0  0  0  0  0  0  0  0  0  0  0  0
   -4.2421   -2.1920    1.2489 H   0  0  0  0  0  0  0  0  0  0  0  0
   -3.6772    0.4622    0.1625 H   0  0  0  0  0  0  0  0  0  0  0  0
   -3.0345   -0.2644    3.0832 H   0  0  0  0  0  0  0  0  0  0  0  0
   -2.5093    1.2092    2.2599 H   0  0  0  0  0  0  0  0  0  0  0  0
   -4.2338    0.9283    2.5645 H   0  0  0  0  0  0  0  0  0  0  0  0
   -1.2626   -0.1515   -0.1463 N   0  0  0  0  0  0  0  0  0  0  0  0
    0.0431   -0.5785   -0.5755 C   0  0  2  0  0  0  0  0  0  0  0  0
   -0.0985   -1.2119   -1.9533 C   0  0  0  0  0  0  0  0  0  0  0  0
    0.6602   -2.0838   -2.3719 O   0  0  0  0  0  0  0  0  0  0  0  0
    0.6575   -1.5579    0.4124 C   0  0  0  0  0  0  0  0  0  0  0  0
   -1.5766    0.7776   -0.4197 H   0  0  0  0  0  0  0  0  0  0  0  0
    0.6622    0.3223   -0.6489 H   0  0  0  0  0  0  0  0  0  0  0  0
    0.0511   -2.4668    0.4994 H   0  0  0  0  0  0  0  0  0  0  0  0
    1.6623   -1.8597    0.0991 H   0  0  0  0  0  0  0  0  0  0  0  0
    0.7311   -1.1108    1.4097 H   0  0  0  0  0  0  0  0  0  0  0  0
   -1.1465   -0.6598   -2.6818 N   0  0  0  0  0  0  0  0  0  0  0  0
   -1.4573   -1.0608   -4.0286 C   0  0  2  0  0  0  0  0  0  0  0  0
   -2.0094    0.1526   -4.7650 C   0  0  0  0  0  0  0  0  0  0  0  0
   -2.6936    1.0151   -4.2181 O   0  0  0  0  0  0  0  0  0  0  0  0
   -2.4547   -2.2087   -4.0480 C   0  0  0  0  0  0  0  0  0  0  0  0
   -1.7477    0.0310   -2.2368 H   0  0  0  0  0  0  0  0  0  0  0  0
   -0.5145   -1.3719   -4.4915 H   0  0  0  0  0  0  0  0  0  0  0  0
   -3.4057   -1.9158   -3.5883 H   0  0  0  0  0  0  0  0  0  0  0  0
   -2.6684   -2.5314   -5.0723 H   0  0  0  0  0  0  0  0  0  0  0  0
   -2.0684   -3.0701   -3.4925 H   0  0  0  0  0  0  0  0  0  0  0  0
   -1.6845    0.1367   -6.1142 N   0  0  0  0  0  0  0  0  0  0  0  0
   -2.1282    1.1570   -7.0351 C   0  0  0  0  0  0  0  0  0  0  0  0
   -1.0795   -0.5957   -6.4738 H   0  0  0  0  0  0  0  0  0  0  0  0
   -3.0732    0.8437   -7.5028 H   0  0  0  0  0  0  0  0  0  0  0  0
   -2.2838    2.0999   -6.4903 H   0  0  0  0  0  0  0  0  0  0  0  0
   -1.3653    1.3050   -7.8136 H   0  0  0  0  0  0  0  0  0  0  0  0
  1  3  1  0  0  0  0
  1  7  1  0  0  0  0
  1  2  2  0  0  0  0
 28 29  1  0  0  0  0
 29 37  1  0  0  0  0
 29 30  2  0  0  0  0
 18 19  1  0  0  0  0
 19 27  1  0  0  0  0
 19 20  2  0  0  0  0
  8  9  1  0  0  0  0
  9 17  1  0  0  0  0
  9 10  2  0  0  0  0
 28 31  1  0  0  0  0
 18 21  1  0  0  0  0
  8 11  1  0  0  0  0
 37 38  1  0  0  0  0
 27 28  1  0  0  0  0
 17 18  1  0  0  0  0
  7  8  1  0  0  0  0
  3  4  1  0  0  0  0
  3  5  1  0  0  0  0
  3  6  1  0  0  0  0
 31 34  1  0  0  0  0
 31 35  1  0  0  0  0
 31 36  1  0  0  0  0
 21 24  1  0  0  0  0
 21 25  1  0  0  0  0
 21 26  1  0  0  0  0
 11 14  1  0  0  0  0
 11 15  1  0  0  0  0
 11 16  1  0  0  0  0
 38 40  1  0  0  0  0
 38 41  1  0  0  0  0
 38 42  1  0  0  0  0
 28 33  1  0  0  0  0
 18 23  1  0  0  0  0
  8 13  1  0  0  0  0
 37 39  1  0  0  0  0
  7 12  1  0  0  0  0
 27 32  1  0  0  0  0
 17 22  1  0  0  0  0
M  END
$$$$

  -OEChem-05262214473D

 42 41  0     1  0  0  0  0  0999 V2000
   -5.7851   -0.9580    0.6237 C   0  0  0  0  0  0  0  0  0  0  0  0
   -6.2213    0.1296    0.2652 O   0  0  0  0  0  0  0  0  0  0  0  0
   -6.7088   -2.1270    0.7168 C   0  0  0  0  0  0  0  0  0  0  0  0
   -7.1713   -2.2193    1.7126 H   0  0  0  0  0  0  0  0  0  0  0  0
   -7.5511   -2.0547    0.0101 H   0  0  0  0  0  0  0  0  0  0  0  0
   -6.2485   -3.1083    0.5191 H   0  0  0  0  0  0  0  0  0  0  0  0
   -4.4733   -1.2411    0.9668 N   0  0  0  0  0  0  0  0  0  0  0  0
   -3.4203   -0.2603    0.9449 C   0  0  2  0  0  0  0  0  0  0  0  0
   -2.1242   -0.9699    0.5759 C   0  0  0  0  0  0  0  0  0  0  0  0
   -1.8694   -2.1225    0.9189 O   0  0  0  0  0  0  0  0  0  0  0  0
   -3.2916    0.4435    2.2868 C   0  0  0  0  0  0  0  0  0  0  0  0
   -4.2421   -2.1920    1.2489 H   0  0  0  0  0  0  0  0  0  0  0  0
   -3.6772    0.4622    0.1625 H   0  0  0  0  0  0  0  0  0  0  0  0
   -3.0345   -0.2644    3.0832 H   0  0  0  0  0  0  0  0  0  0  0  0
   -2.5093    1.2092    2.2599 H   0  0  0  0  0  0  0  0  0  0  0  0
   -4.2338    0.9283    2.5645 H   0  0  0  0  0  0  0  0  0  0  0  0
   -1.2626   -0.1515   -0.1463 N   0  0  0  0  0  0  0  0  0  0  0  0
    0.0431   -0.5785   -0.5755 C   0  0  2  0  0  0  0  0  0  0  0  0
   -0.0985   -1.2119   -1.9533 C   0  0  0  0  0  0  0  0  0  0  0  0
    0.4731   -2.2513   -2.2756 O   0  0  0  0  0  0  0  0  0  0  0  0
    0.6575   -1.5579    0.4124 C   0  0  0  0  0  0  0  0  0  0  0  0
   -1.5766    0.7776   -0.4197 H   0  0  0  0  0  0  0  0  0  0  0  0
    0.6622    0.3223   -0.6489 H   0  0  0  0  0  0  0  0  0  0  0  0
    0.0511   -2.4668    0.4994 H   0  0  0  0  0  0  0  0  0  0  0  0
    1.6623   -1.8597    0.0991 H   0  0  0  0  0  0  0  0  0  0  0  0
    0.7311   -1.1108    1.4097 H   0  0  0  0  0  0  0  0  0  0  0  0
   -0.9048   -0.4583   -2.7993 N   0  0  0  0  0  0  0  0  0  0  0  0
   -1.1584   -0.8253   -4.1676 C   0  0  2  0  0  0  0  0  0  0  0  0
   -1.3290    0.4553   -4.9741 C   0  0  0  0  0  0  0  0  0  0  0  0
   -1.8443    1.4730   -4.5159 O   0  0  0  0  0  0  0  0  0  0  0  0
   -2.3904   -1.7092   -4.2842 C   0  0  0  0  0  0  0  0  0  0  0  0
   -1.3696    0.3695   -2.4313 H   0  0  0  0  0  0  0  0  0  0  0  0
   -0.2721   -1.3641   -4.5200 H   0  0  0  0  0  0  0  0  0  0  0  0
   -3.2885   -1.1863   -3.9357 H   0  0  0  0  0  0  0  0  0  0  0  0
   -2.5655   -2.0109   -5.3221 H   0  0  0  0  0  0  0  0  0  0  0  0
   -2.2781   -2.6158   -3.6798 H   0  0  0  0  0  0  0  0  0  0  0  0
   -0.8774    0.3145   -6.2789 N   0  0  0  0  0  0  0  0  0  0  0  0
   -0.9694    1.3754   -7.2545 C   0  0  0  0  0  0  0  0  0  0  0  0
   -0.4276   -0.5514   -6.5612 H   0  0  0  0  0  0  0  0  0  0  0  0
   -1.9073    1.2737   -7.8203 H   0  0  0  0  0  0  0  0  0  0  0  0
   -0.9548    2.3480   -6.7409 H   0  0  0  0  0  0  0  0  0  0  0  0
   -0.1158    1.3128   -7.9456 H   0  0  0  0  0  0  0  0  0  0  0  0
  1  3  1  0  0  0  0
  1  7  1  0  0  0  0
  1  2  2  0  0  0  0
 28 29  1  0  0  0  0
 29 37  1  0  0  0  0
 29 30  2  0  0  0  0
 18 19  1  0  0  0  0
 19 27  1  0  0  0  0
 19 20  2  0  0  0  0
  8  9  1  0  0  0  0
  9 17  1  0  0  0  0
  9 10  2  0  0  0  0
 28 31  1  0  0  0  0
 18 21  1  0  0  0  0
  8 11  1  0  0  0  0
 37 38  1  0  0  0  0
 27 28  1  0  0  0  0
 17 18  1  0  0  0  0
  7  8  1  0  0  0  0
  3  4  1  0  0  0  0
  3  5  1  0  0  0  0
  3  6  1  0  0  0  0
 31 34  1  0  0  0  0
 31 35  1  0  0  0  0
 31 36  1  0  0  0  0
 21 24  1  0  0  0  0
 21 25  1  0  0  0  0
 21 26  1  0  0  0  0
 11 14  1  0  0  0  0
 11 15  1  0  0  0  0
 11 16  1  0  0  0  0
 38 40  1  0  0  0  0
 38 41  1  0  0  0  0
 38 42  1  0  0  0  0
 28 33  1  0  0  0  0
 18 23  1  0  0  0  0
  8 13  1  0  0  0  0
 37 39  1  0  0  0  0
  7 12  1  0  0  0  0
 27 32  1  0  0  0  0
 17 22  1  0  0  0  0
M  END
$$$$

  -OEChem-05262214473D

 42 41  0     1  0  0  0  0  0999 V2000
   -5.7851   -0.9580    0.6237 C   0  0  0  0  0  0  0  0  0  0  0  0
   -6.2213    0.1296    0.2652 O   0  0  0  0  0  0  0  0  0  0  0  0
   -6.7088   -2.1270    0.7168 C   0  0  0  0  0  0  0  0  0  0  0  0
   -7.1713   -2.2193    1.7126 H   0  0  0  0  0  0  0  0  0  0  0  0
   -7.5511   -2.0547    0.0101 H   0  0  0  0  0  0  0  0  0  0  0  0
   -6.2485   -3.1083    0.5191 H   0  0  0  0  0  0  0  0  0  0  0  0
   -4.4733   -1.2411    0.9668 N   0  0  0  0  0  0  0  0  0  0  0  0
   -3.4203   -0.2603    0.9449 C   0  0  2  0  0  0  0  0  0  0  0  0
   -2.1242   -0.9699    0.5759 C   0  0  0  0  0  0  0  0  0  0  0  0
   -1.8694   -2.1225    0.9189 O   0  0  0  0  0  0  0  0  0  0  0  0
   -3.2916    0.4435    2.2868 C   0  0  0  0  0  0  0  0  0  0  0  0
   -4.2421   -2.1920    1.2489 H   0  0  0  0  0  0  0  0  0  0  0  0
   -3.6772    0.4622    0.1625 H   0  0  0  0  0  0  0  0  0  0  0  0
   -3.0345   -0.2644    3.0832 H   0  0  0  0  0  0  0  0  0  0  0  0
   -2.5093    1.2092    2.2599 H   0  0  0  0  0  0  0  0  0  0  0  0
   -4.2338    0.9283    2.5645 H   0  0  0  0  0  0  0  0  0  0  0  0
   -1.2626   -0.1515   -0.1463 N   0  0  0  0  0  0  0  0  0  0  0  0
    0.0431   -0.5785   -0.5755 C   0  0  2  0  0  0  0  0  0  0  0  0
   -0.0985   -1.2119   -1.9533 C   0  0  0  0  0  0  0  0  0  0  0  0
    0.2428   -2.3670   -2.1988 O   0  0  0  0  0  0  0  0  0  0  0  0
    0.6575   -1.5579    0.4124 C   0  0  0  0  0  0  0  0  0  0  0  0
   -1.5766    0.7776   -0.4197 H   0  0  0  0  0  0  0  0  0  0  0  0
    0.6622    0.3223   -0.6489 H   0  0  0  0  0  0  0  0  0  0  0  0
    0.0511   -2.4668    0.4994 H   0  0  0  0  0  0  0  0  0  0  0  0
    1.6623   -1.8597    0.0991 H   0  0  0  0  0  0  0  0  0  0  0  0
    0.7311   -1.1108    1.4097 H   0  0  0  0  0  0  0  0  0  0  0  0
   -0.6115   -0.3230   -2.8916 N   0  0  0  0  0  0  0  0  0  0  0  0
   -0.7996   -0.6710   -4.2754 C   0  0  2  0  0  0  0  0  0  0  0  0
   -0.5784    0.5834   -5.1101 C   0  0  0  0  0  0  0  0  0  0  0  0
   -0.8847    1.7093   -4.7232 O   0  0  0  0  0  0  0  0  0  0  0  0
   -2.1858   -1.2476   -4.5174 C   0  0  0  0  0  0  0  0  0  0  0  0
   -0.9042    0.6032   -2.5866 H   0  0  0  0  0  0  0  0  0  0  0  0
   -0.0332   -1.4141   -4.5216 H   0  0  0  0  0  0  0  0  0  0  0  0
   -2.9670   -0.5174   -4.2762 H   0  0  0  0  0  0  0  0  0  0  0  0
   -2.3173   -1.5383   -5.5649 H   0  0  0  0  0  0  0  0  0  0  0  0
   -2.3542   -2.1325   -3.8942 H   0  0  0  0  0  0  0  0  0  0  0  0
   -0.0385    0.2933   -6.3553 N   0  0  0  0  0  0  0  0  0  0  0  0
    0.2247    1.3097   -7.3471 C   0  0  0  0  0  0  0  0  0  0  0  0
    0.2218   -0.6633   -6.5765 H   0  0  0  0  0  0  0  0  0  0  0  0
   -0.6462    1.4084   -8.0118 H   0  0  0  0  0  0  0  0  0  0  0  0
    0.4139    2.2705   -6.8459 H   0  0  0  0  0  0  0  0  0  0  0  0
    1.1070    1.0247   -7.9388 H   0  0  0  0  0  0  0  0  0  0  0  0
  1  3  1  0  0  0  0
  1  7  1  0  0  0  0
  1  2  2  0  0  0  0
 28 29  1  0  0  0  0
 29 37  1  0  0  0  0
 29 30  2  0  0  0  0
 18 19  1  0  0  0  0
 19 27  1  0  0  0  0
 19 20  2  0  0  0  0
  8  9  1  0  0  0  0
  9 17  1  0  0  0  0
  9 10  2  0  0  0  0
 28 31  1  0  0  0  0
 18 21  1  0  0  0  0
  8 11  1  0  0  0  0
 37 38  1  0  0  0  0
 27 28  1  0  0  0  0
 17 18  1  0  0  0  0
  7  8  1  0  0  0  0
  3  4  1  0  0  0  0
  3  5  1  0  0  0  0
  3  6  1  0  0  0  0
 31 34  1  0  0  0  0
 31 35  1  0  0  0  0
 31 36  1  0  0  0  0
 21 24  1  0  0  0  0
 21 25  1  0  0  0  0
 21 26  1  0  0  0  0
 11 14  1  0  0  0  0
 11 15  1  0  0  0  0
 11 16  1  0  0  0  0
 38 40  1  0  0  0  0
 38 41  1  0  0  0  0
 38 42  1  0  0  0  0
 28 33  1  0  0  0  0
 18 23  1  0  0  0  0
  8 13  1  0  0  0  0
 37 39  1  0  0  0  0
  7 12  1  0  0  0  0
 27 32  1  0  0  0  0
 17 22  1  0  0  0  0
M  END
$$$$

  -OEChem-05262214473D

 42 41  0     1  0  0  0  0  0999 V2000
   -5.7851   -0.9580    0.6237 C   0  0  0  0  0  0  0  0  0  0  0  0
   -6.2213    0.1296    0.2652 O   0  0  0  0  0  0  0  0  0  0  0  0
   -6.7088   -2.1270    0.7168 C   0  0  0  0  0  0  0  0  0  0  0  0
   -7.1713   -2.2193    1.7126 H   0  0  0  0  0  0  0  0  0  0  0  0
   -7.5511   -2.0547    0.0101 H   0  0  0  0  0  0  0  0  0  0  0  0
   -6.2485   -3.1083    0.5191 H   0  0  0  0  0  0  0  0  0  0  0  0
   -4.4733   -1.2411    0.9668 N   0  0  0  0  0  0  0  0  0  0  0  0
   -3.4203   -0.2603    0.9449 C   0  0  2  0  0  0  0  0  0  0  0  0
   -2.1242   -0.9699    0.5759 C   0  0  0  0  0  0  0  0  0  0  0  0
   -1.8694   -2.1225    0.9189 O   0  0  0  0  0  0  0  0  0  0  0  0
   -3.2916    0.4435    2.2868 C   0  0  0  0  0  0  0  0  0  0  0  0
   -4.2421   -2.1920    1.2489 H   0  0  0  0  0  0  0  0  0  0  0  0
   -3.6772    0.4622    0.1625 H   0  0  0  0  0  0  0  0  0  0  0  0
   -3.0345   -0.2644    3.0832 H   0  0  0  0  0  0  0  0  0  0  0  0
   -2.5093    1.2092    2.2599 H   0  0  0  0  0  0  0  0  0  0  0  0
   -4.2338    0.9283    2.5645 H   0  0  0  0  0  0  0  0  0  0  0  0
   -1.2626   -0.1515   -0.1463 N   0  0  0  0  0  0  0  0  0  0  0  0
    0.0431   -0.5785   -0.5755 C   0  0  2  0  0  0  0  0  0  0  0  0
   -0.0985   -1.2119   -1.9533 C   0  0  0  0  0  0  0  0  0  0  0  0
   -0.0150   -2.4230   -2.1466 O   0  0  0  0  0  0  0  0  0  0  0  0
    0.6575   -1.5579    0.4124 C   0  0  0  0  0  0  0  0  0  0  0  0
   -1.5766    0.7776   -0.4197 H   0  0  0  0  0  0  0  0  0  0  0  0
    0.6622    0.3223   -0.6489 H   0  0  0  0  0  0  0  0  0  0  0  0
    0.0511   -2.4668    0.4994 H   0  0  0  0  0  0  0  0  0  0  0  0
    1.6623   -1.8597    0.0991 H   0  0  0  0  0  0  0  0  0  0  0  0
    0.7311   -1.1108    1.4097 H   0  0  0  0  0  0  0  0  0  0  0  0
   -0.2865   -0.2632   -2.9525 N   0  0  0  0  0  0  0  0  0  0  0  0
   -0.4053   -0.6087   -4.3446 C   0  0  2  0  0  0  0  0  0  0  0  0
    0.1913    0.5282   -5.1638 C   0  0  0  0  0  0  0  0  0  0  0  0
    0.1199    1.7079   -4.8258 O   0  0  0  0  0  0  0  0  0  0  0  0
   -1.8551   -0.8552   -4.7318 C   0  0  0  0  0  0  0  0  0  0  0  0
   -0.3833    0.7163   -2.6921 H   0  0  0  0  0  0  0  0  0  0  0  0
    0.1861   -1.5183   -4.4962 H   0  0  0  0  0  0  0  0  0  0  0  0
   -2.4632    0.0452   -4.5867 H   0  0  0  0  0  0  0  0  0  0  0  0
   -1.9408   -1.1457   -5.7841 H   0  0  0  0  0  0  0  0  0  0  0  0
   -2.2914   -1.6529   -4.1211 H   0  0  0  0  0  0  0  0  0  0  0  0
    0.7751    0.0745   -6.3384 N   0  0  0  0  0  0  0  0  0  0  0  0
    1.3726    0.9645   -7.3063 C   0  0  0  0  0  0  0  0  0  0  0  0
    0.8245   -0.9239   -6.5186 H   0  0  0  0  0  0  0  0  0  0  0  0
    0.6240    1.2386   -8.0643 H   0  0  0  0  0  0  0  0  0  0  0  0
    1.7292    1.8726   -6.7982 H   0  0  0  0  0  0  0  0  0  0  0  0
    2.2201    0.4603   -7.7937 H   0  0  0  0  0  0  0  0  0  0  0  0
  1  3  1  0  0  0  0
  1  7  1  0  0  0  0
  1  2  2  0  0  0  0
 28 29  1  0  0  0  0
 29 37  1  0  0  0  0
 29 30  2  0  0  0  0
 18 19  1  0  0  0  0
 19 27  1  0  0  0  0
 19 20  2  0  0  0  0
  8  9  1  0  0  0  0
  9 17  1  0  0  0  0
  9 10  2  0  0  0  0
 28 31  1  0  0  0  0
 18 21  1  0  0  0  0
  8 11  1  0  0  0  0
 37 38  1  0  0  0  0
 27 28  1  0  0  0  0
 17 18  1  0  0  0  0
  7  8  1  0  0  0  0
  3  4  1  0  0  0  0
  3  5  1  0  0  0  0
  3  6  1  0  0  0  0
 31 34  1  0  0  0  0
 31 35  1  0  0  0  0
 31 36  1  0  0  0  0
 21 24  1  0  0  0  0
 21 25  1  0  0  0  0
 21 26  1  0  0  0  0
 11 14  1  0  0  0  0
 11 15  1  0  0  0  0
 11 16  1  0  0  0  0
 38 40  1  0  0  0  0
 38 41  1  0  0  0  0
 38 42  1  0  0  0  0
 28 33  1  0  0  0  0
 18 23  1  0  0  0  0
  8 13  1  0  0  0  0
 37 39  1  0  0  0  0
  7 12  1  0  0  0  0
 27 32  1  0  0  0  0
 17 22  1  0  0  0  0
M  END
$$$$

  -OEChem-05262214473D

 42 41  0     1  0  0  0  0  0999 V2000
   -5.7851   -0.9580    0.6237 C   0  0  0  0  0  0  0  0  0  0  0  0
   -6.2213    0.1296    0.2652 O   0  0  0  0  0  0  0  0  0  0  0  0
   -6.7088   -2.1270    0.7168 C   0  0  0  0  0  0  0  0  0  0  0  0
   -7.1713   -2.2193    1.7126 H   0  0  0  0  0  0  0  0  0  0  0  0
   -7.5511   -2.0547    0.0101 H   0  0  0  0  0  0  0  0  0  0  0  0
   -6.2485   -3.1083    0.5191 H   0  0  0  0  0  0  0  0  0  0  0  0
   -4.4733   -1.2411    0.9668 N   0  0  0  0  0  0  0  0  0  0  0  0
   -3.4203   -0.2603    0.9449 C   0  0  2  0  0  0  0  0  0  0  0  0
   -2.1242   -0.9699    0.5759 C   0  0  0  0  0  0  0  0  0  0  0  0
   -1.8694   -2.1225    0.9189 O   0  0  0  0  0  0  0  0  0  0  0  0
   -3.2916    0.4435    2.2868 C   0  0  0  0  0  0  0  0  0  0  0  0
   -4.2421   -2.1920    1.2489 H   0  0  0  0  0  0  0  0  0  0  0  0
   -3.6772    0.4622    0.1625 H   0  0  0  0  0  0  0  0  0  0  0  0
   -3.0345   -0.2644    3.0832 H   0  0  0  0  0  0  0  0  0  0  0  0
   -2.5093    1.2092    2.2599 H   0  0  0  0  0  0  0  0  0  0  0  0
   -4.2338    0.9283    2.5645 H   0  0  0  0  0  0  0  0  0  0  0  0
   -1.2626   -0.1515   -0.1463 N   0  0  0  0  0  0  0  0  0  0  0  0
    0.0431   -0.5785   -0.5755 C   0  0  2  0  0  0  0  0  0  0  0  0
   -0.0985   -1.2119   -1.9533 C   0  0  0  0  0  0  0  0  0  0  0  0
   -0.2827   -2.4154   -2.1225 O   0  0  0  0  0  0  0  0  0  0  0  0
    0.6575   -1.5579    0.4124 C   0  0  0  0  0  0  0  0  0  0  0  0
   -1.5766    0.7776   -0.4197 H   0  0  0  0  0  0  0  0  0  0  0  0
    0.6622    0.3223   -0.6489 H   0  0  0  0  0  0  0  0  0  0  0  0
    0.0511   -2.4668    0.4994 H   0  0  0  0  0  0  0  0  0  0  0  0
    1.6623   -1.8597    0.0991 H   0  0  0  0  0  0  0  0  0  0  0  0
    0.7311   -1.1108    1.4097 H   0  0  0  0  0  0  0  0  0  0  0  0
    0.0479   -0.2830   -2.9778 N   0  0  0  0  0  0  0  0  0  0  0  0
   -0.0023   -0.6425   -4.3705 C   0  0  2  0  0  0  0  0  0  0  0  0
    0.9276    0.2932   -5.1315 C   0  0  0  0  0  0  0  0  0  0  0  0
    1.1010    1.4688   -4.8167 O   0  0  0  0  0  0  0  0  0  0  0  0
   -1.4206   -0.5587   -4.9128 C   0  0  0  0  0  0  0  0  0  0  0  0
    0.1577    0.7010   -2.7407 H   0  0  0  0  0  0  0  0  0  0  0  0
    0.3707   -1.6697   -4.4456 H   0  0  0  0  0  0  0  0  0  0  0  0
   -1.8114    0.4632   -4.8458 H   0  0  0  0  0  0  0  0  0  0  0  0
   -1.4616   -0.8599   -5.9647 H   0  0  0  0  0  0  0  0  0  0  0  0
   -2.0940   -1.2099   -4.3451 H   0  0  0  0  0  0  0  0  0  0  0  0
    1.5079   -0.3268   -6.2292 N   0  0  0  0  0  0  0  0  0  0  0  0
    2.3962    0.3632   -7.1351 C   0  0  0  0  0  0  0  0  0  0  0  0
    1.3395   -1.3153   -6.3916 H   0  0  0  0  0  0  0  0  0  0  0  0
    1.8169    0.7759   -7.9742 H   0  0  0  0  0  0  0  0  0  0  0  0
    2.9014    1.1815   -6.6009 H   0  0  0  0  0  0  0  0  0  0  0  0
    3.1474   -0.3421   -7.5202 H   0  0  0  0  0  0  0  0  0  0  0  0
  1  3  1  0  0  0  0
  1  7  1  0  0  0  0
  1  2  2  0  0  0  0
 28 29  1  0  0  0  0
 29 37  1  0  0  0  0
 29 30  2  0  0  0  0
 18 19  1  0  0  0  0
 19 27  1  0  0  0  0
 19 20  2  0  0  0  0
  8  9  1  0  0  0  0
  9 17  1  0  0  0  0
  9 10  2  0  0  0  0
 28 31  1  0  0  0  0
 18 21  1  0  0  0  0
  8 11  1  0  0  0  0
 37 38  1  0  0  0  0
 27 28  1  0  0  0  0
 17 18  1  0  0  0  0
  7  8  1  0  0  0  0
  3  4  1  0  0  0  0
  3  5  1  0  0  0  0
  3  6  1  0  0  0  0
 31 34  1  0  0  0  0
 31 35  1  0  0  0  0
 31 36  1  0  0  0  0
 21 24  1  0  0  0  0
 21 25  1  0  0  0  0
 21 26  1  0  0  0  0
 11 14  1  0  0  0  0
 11 15  1  0  0  0  0
 11 16  1  0  0  0  0
 38 40  1  0  0  0  0
 38 41  1  0  0  0  0
 38 42  1  0  0  0  0
 28 33  1  0  0  0  0
 18 23  1  0  0  0  0
  8 13  1  0  0  0  0
 37 39  1  0  0  0  0
  7 12  1  0  0  0  0
 27 32  1  0  0  0  0
 17 22  1  0  0  0  0
M  END
$$$$

  -OEChem-05262214473D

 42 41  0     1  0  0  0  0  0999 V2000
   -5.7851   -0.9580    0.6237 C   0  0  0  0  0  0  0  0  0  0  0  0
   -6.2213    0.1296    0.2652 O   0  0  0  0  0  0  0  0  0  0  0  0
   -6.7088   -2.1270    0.7168 C   0  0  0  0  0  0  0  0  0  0  0  0
   -7.1713   -2.2193    1.7126 H   0  0  0  0  0  0  0  0  0  0  0  0
   -7.5511   -2.0547    0.0101 H   0  0  0  0  0  0  0  0  0  0  0  0
   -6.2485   -3.1083    0.5191 H   0  0  0  0  0  0  0  0  0  0  0  0
   -4.4733   -1.2411    0.9668 N   0  0  0  0  0  0  0  0  0  0  0  0
   -3.4203   -0.2603    0.9449 C   0  0  2  0  0  0  0  0  0  0  0  0
   -2.1242   -0.9699    0.5759 C   0  0  0  0  0  0  0  0  0  0  0  0
   -1.8694   -2.1225    0.9189 O   0  0  0  0  0  0  0  0  0  0  0  0
   -3.2916    0.4435    2.2868 C   0  0  0  0  0  0  0  0  0  0  0  0
   -4.2421   -2.1920    1.2489 H   0  0  0  0  0  0  0  0  0  0  0  0
   -3.6772    0.4622    0.1625 H   0  0  0  0  0  0  0  0  0  0  0  0
   -3.0345   -0.2644    3.0832 H   0  0  0  0  0  0  0  0  0  0  0  0
   -2.5093    1.2092    2.2599 H   0  0  0  0  0  0  0  0  0  0  0  0
   -4.2338    0.9283    2.5645 H   0  0  0  0  0  0  0  0  0  0  0  0
   -1.2626   -0.1515   -0.1463 N   0  0  0  0  0  0  0  0  0  0  0  0
    0.0431   -0.5785   -0.5755 C   0  0  2  0  0  0  0  0  0  0  0  0
   -0.0985   -1.2119   -1.9533 C   0  0  0  0  0  0  0  0  0  0  0  0
   -0.5421   -2.3448   -2.1283 O   0  0  0  0  0  0  0  0  0  0  0  0
    0.6575   -1.5579    0.4124 C   0  0  0  0  0  0  0  0  0  0  0  0
   -1.5766    0.7776   -0.4197 H   0  0  0  0  0  0  0  0  0  0  0  0
    0.6622    0.3223   -0.6489 H   0  0  0  0  0  0  0  0  0  0  0  0
    0.0511   -2.4668    0.4994 H   0  0  0  0  0  0  0  0  0  0  0  0
    1.6623   -1.8597    0.0991 H   0  0  0  0  0  0  0  0  0  0  0  0
    0.7311   -1.1108    1.4097 H   0  0  0  0  0  0  0  0  0  0  0  0
    0.3690   -0.3810   -2.9657 N   0  0  0  0  0  0  0  0  0  0  0  0
    0.3818   -0.7700   -4.3513 C   0  0  2  0  0  0  0  0  0  0  0  0
    1.5803   -0.1053   -5.0154 C   0  0  0  0  0  0  0  0  0  0  0  0
    1.9916    1.0084   -4.6966 O   0  0  0  0  0  0  0  0  0  0  0  0
   -0.9121   -0.3784   -5.0479 C   0  0  0  0  0  0  0  0  0  0  0  0
    0.6820    0.5584   -2.7290 H   0  0  0  0  0  0  0  0  0  0  0  0
    0.5082   -1.8580   -4.3732 H   0  0  0  0  0  0  0  0  0  0  0  0
   -1.0561    0.7081   -5.0360 H   0  0  0  0  0  0  0  0  0  0  0  0
   -0.9124   -0.7004   -6.0945 H   0  0  0  0  0  0  0  0  0  0  0  0
   -1.7756   -0.8336   -4.5508 H   0  0  0  0  0  0  0  0  0  0  0  0
    2.1101   -0.8835   -6.0351 N   0  0  0  0  0  0  0  0  0  0  0  0
    3.2257   -0.4531   -6.8451 C   0  0  0  0  0  0  0  0  0  0  0  0
    1.7316   -1.8108   -6.2041 H   0  0  0  0  0  0  0  0  0  0  0  0
    2.8511    0.0519   -7.7476 H   0  0  0  0  0  0  0  0  0  0  0  0
    3.8505    0.2442   -6.2676 H   0  0  0  0  0  0  0  0  0  0  0  0
    3.8258   -1.3276   -7.1368 H   0  0  0  0  0  0  0  0  0  0  0  0
  1  3  1  0  0  0  0
  1  7  1  0  0  0  0
  1  2  2  0  0  0  0
 28 29  1  0  0  0  0
 29 37  1  0  0  0  0
 29 30  2  0  0  0  0
 18 19  1  0  0  0  0
 19 27  1  0  0  0  0
 19 20  2  0  0  0  0
  8  9  1  0  0  0  0
  9 17  1  0  0  0  0
  9 10  2  0  0  0  0
 28 31  1  0  0  0  0
 18 21  1  0  0  0  0
  8 11  1  0  0  0  0
 37 38  1  0  0  0  0
 27 28  1  0  0  0  0
 17 18  1  0  0  0  0
  7  8  1  0  0  0  0
  3  4  1  0  0  0  0
  3  5  1  0  0  0  0
  3  6  1  0  0  0  0
 31 34  1  0  0  0  0
 31 35  1  0  0  0  0
 31 36  1  0  0  0  0
 21 24  1  0  0  0  0
 21 25  1  0  0  0  0
 21 26  1  0  0  0  0
 11 14  1  0  0  0  0
 11 15  1  0  0  0  0
 11 16  1  0  0  0  0
 38 40  1  0  0  0  0
 38 41  1  0  0  0  0
 38 42  1  0  0  0  0
 28 33  1  0  0  0  0
 18 23  1  0  0  0  0
  8 13  1  0  0  0  0
 37 39  1  0  0  0  0
  7 12  1  0  0  0  0
 27 32  1  0  0  0  0
 17 22  1  0  0  0  0
M  END
$$$$

  -OEChem-05262214473D

 42 41  0     1  0  0  0  0  0999 V2000
   -5.7851   -0.9580    0.6237 C   0  0  0  0  0  0  0  0  0  0  0  0
   -6.2213    0.1296    0.2652 O   0  0  0  0  0  0  0  0  0  0  0  0
   -6.7088   -2.1270    0.7168 C   0  0  0  0  0  0  0  0  0  0  0  0
   -7.1713   -2.2193    1.7126 H   0  0  0  0  0  0  0  0  0  0  0  0
   -7.5511   -2.0547    0.0101 H   0  0  0  0  0  0  0  0  0  0  0  0
   -6.2485   -3.1083    0.5191 H   0  0  0  0  0  0  0  0  0  0  0  0
   -4.4733   -1.2411    0.9668 N   0  0  0  0  0  0  0  0  0  0  0  0
   -3.4203   -0.2603    0.9449 C   0  0  2  0  0  0  0  0  0  0  0  0
   -2.1242   -0.9699    0.5759 C   0  0  0  0  0  0  0  0  0  0  0  0
   -1.8694   -2.1225    0.9189 O   0  0  0  0  0  0  0  0  0  0  0  0
   -3.2916    0.4435    2.2868 C   0  0  0  0  0  0  0  0  0  0  0  0
   -4.2421   -2.1920    1.2489 H   0  0  0  0  0  0  0  0  0  0  0  0
   -3.6772    0.4622    0.1625 H   0  0  0  0  0  0  0  0  0  0  0  0
   -3.0345   -0.2644    3.0832 H   0  0  0  0  0  0  0  0  0  0  0  0
   -2.5093    1.2092    2.2599 H   0  0  0  0  0  0  0  0  0  0  0  0
   -4.2338    0.9283    2.5645 H   0  0  0  0  0  0  0  0  0  0  0  0
   -1.2626   -0.1515   -0.1463 N   0  0  0  0  0  0  0  0  0  0  0  0
    0.0431   -0.5785   -0.5755 C   0  0  2  0  0  0  0  0  0  0  0  0
   -0.0985   -1.2119   -1.9533 C   0  0  0  0  0  0  0  0  0  0  0  0
   -0.7756   -2.2161   -2.1635 O   0  0  0  0  0  0  0  0  0  0  0  0
    0.6575   -1.5579    0.4124 C   0  0  0  0  0  0  0  0  0  0  0  0
   -1.5766    0.7776   -0.4197 H   0  0  0  0  0  0  0  0  0  0  0  0
    0.6622    0.3223   -0.6489 H   0  0  0  0  0  0  0  0  0  0  0  0
    0.0511   -2.4668    0.4994 H   0  0  0  0  0  0  0  0  0  0  0  0
    1.6623   -1.8597    0.0991 H   0  0  0  0  0  0  0  0  0  0  0  0
    0.7311   -1.1108    1.4097 H   0  0  0  0  0  0  0  0  0  0  0  0
    0.6549   -0.5506   -2.9171 N   0  0  0  0  0  0  0  0  0  0  0  0
    0.7208   -0.9828   -4.2883 C   0  0  2  0  0  0  0  0  0  0  0  0
    2.1050   -0.6403   -4.8233 C   0  0  0  0  0  0  0  0  0  0  0  0
    2.7312    0.3580   -4.4736 O   0  0  0  0  0  0  0  0  0  0  0  0
   -0.3641   -0.3266   -5.1280 C   0  0  0  0  0  0  0  0  0  0  0  0
    1.1537    0.2982   -2.6579 H   0  0  0  0  0  0  0  0  0  0  0  0
    0.5891   -2.0703   -4.2839 H   0  0  0  0  0  0  0  0  0  0  0  0
   -0.2487    0.7633   -5.1444 H   0  0  0  0  0  0  0  0  0  0  0  0
   -0.3306   -0.6781   -6.1646 H   0  0  0  0  0  0  0  0  0  0  0  0
   -1.3577   -0.5496   -4.7243 H   0  0  0  0  0  0  0  0  0  0  0  0
    2.5404   -1.5575   -5.7695 N   0  0  0  0  0  0  0  0  0  0  0  0
    3.8046   -1.4288   -6.4560 C   0  0  0  0  0  0  0  0  0  0  0  0
    1.9741   -2.3768   -5.9688 H   0  0  0  0  0  0  0  0  0  0  0  0
    3.6561   -0.8841   -7.4000 H   0  0  0  0  0  0  0  0  0  0  0  0
    4.5120   -0.8754   -5.8208 H   0  0  0  0  0  0  0  0  0  0  0  0
    4.2091   -2.4292   -6.6698 H   0  0  0  0  0  0  0  0  0  0  0  0
  1  3  1  0  0  0  0
  1  7  1  0  0  0  0
  1  2  2  0  0  0  0
 28 29  1  0  0  0  0
 29 37  1  0  0  0  0
 29 30  2  0  0  0  0
 18 19  1  0  0  0  0
 19 27  1  0  0  0  0
 19 20  2  0  0  0  0
  8  9  1  0  0  0  0
  9 17  1  0  0  0  0
  9 10  2  0  0  0  0
 28 31  1  0  0  0  0
 18 21  1  0  0  0  0
  8 11  1  0  0  0  0
 37 38  1  0  0  0  0
 27 28  1  0  0  0  0
 17 18  1  0  0  0  0
  7  8  1  0  0  0  0
  3  4  1  0  0  0  0
  3  5  1  0  0  0  0
  3  6  1  0  0  0  0
 31 34  1  0  0  0  0
 31 35  1  0  0  0  0
 31 36  1  0  0  0  0
 21 24  1  0  0  0  0
 21 25  1  0  0  0  0
 21 26  1  0  0  0  0
 11 14  1  0  0  0  0
 11 15  1  0  0  0  0
 11 16  1  0  0  0  0
 38 40  1  0  0  0  0
 38 41  1  0  0  0  0
 38 42  1  0  0  0  0
 28 33  1  0  0  0  0
 18 23  1  0  0  0  0
  8 13  1  0  0  0  0
 37 39  1  0  0  0  0
  7 12  1  0  0  0  0
 27 32  1  0  0  0  0
 17 22  1  0  0  0  0
M  END
$$$$

  -OEChem-05262214473D

 42 41  0     1  0  0  0  0  0999 V2000
   -5.7851   -0.9580    0.6237 C   0  0  0  0  0  0  0  0  0  0  0  0
   -6.2213    0.1296    0.2652 O   0  0  0  0  0  0  0  0  0  0  0  0
   -6.7088   -2.1270    0.7168 C   0  0  0  0  0  0  0  0  0  0  0  0
   -7.1713   -2.2193    1.7126 H   0  0  0  0  0  0  0  0  0  0  0  0
   -7.5511   -2.0547    0.0101 H   0  0  0  0  0  0  0  0  0  0  0  0
   -6.2485   -3.1083    0.5191 H   0  0  0  0  0  0  0  0  0  0  0  0
   -4.4733   -1.2411    0.9668 N   0  0  0  0  0  0  0  0  0  0  0  0
   -3.4203   -0.2603    0.9449 C   0  0  2  0  0  0  0  0  0  0  0  0
   -2.1242   -0.9699    0.5759 C   0  0  0  0  0  0  0  0  0  0  0  0
   -1.8694   -2.1225    0.9189 O   0  0  0  0  0  0  0  0  0  0  0  0
   -3.2916    0.4435    2.2868 C   0  0  0  0  0  0  0  0  0  0  0  0
   -4.2421   -2.1920    1.2489 H   0  0  0  0  0  0  0  0  0  0  0  0
   -3.6772    0.4622    0.1625 H   0  0  0  0  0  0  0  0  0  0  0  0
   -3.0345   -0.2644    3.0832 H   0  0  0  0  0  0  0  0  0  0  0  0
   -2.5093    1.2092    2.2599 H   0  0  0  0  0  0  0  0  0  0  0  0
   -4.2338    0.9283    2.5645 H   0  0  0  0  0  0  0  0  0  0  0  0
   -1.2626   -0.1515   -0.1463 N   0  0  0  0  0  0  0  0  0  0  0  0
    0.0431   -0.5785   -0.5755 C   0  0  2  0  0  0  0  0  0  0  0  0
   -0.0985   -1.2119   -1.9533 C   0  0  0  0  0  0  0  0  0  0  0  0
   -0.9671   -2.0379   -2.2258 O   0  0  0  0  0  0  0  0  0  0  0  0
    0.6575   -1.5579    0.4124 C   0  0  0  0  0  0  0  0  0  0  0  0
   -1.5766    0.7776   -0.4197 H   0  0  0  0  0  0  0  0  0  0  0  0
    0.6622    0.3223   -0.6489 H   0  0  0  0  0  0  0  0  0  0  0  0
    0.0511   -2.4668    0.4994 H   0  0  0  0  0  0  0  0  0  0  0  0
    1.6623   -1.8597    0.0991 H   0  0  0  0  0  0  0  0  0  0  0  0
    0.7311   -1.1108    1.4097 H   0  0  0  0  0  0  0  0  0  0  0  0
    0.8861   -0.7802   -2.8353 N   0  0  0  0  0  0  0  0  0  0  0  0
    0.9917   -1.2661   -4.1859 C   0  0  2  0  0  0  0  0  0  0  0  0
    2.4659   -1.2752   -4.5685 C   0  0  0  0  0  0  0  0  0  0  0  0
    3.2693   -0.4380   -4.1629 O   0  0  0  0  0  0  0  0  0  0  0  0
    0.1859   -0.4068   -5.1477 C   0  0  0  0  0  0  0  0  0  0  0  0
    1.5408   -0.0619   -2.5321 H   0  0  0  0  0  0  0  0  0  0  0  0
    0.6080   -2.2921   -4.1838 H   0  0  0  0  0  0  0  0  0  0  0  0
    0.5558    0.6249   -5.1634 H   0  0  0  0  0  0  0  0  0  0  0  0
    0.2442   -0.7944   -6.1702 H   0  0  0  0  0  0  0  0  0  0  0  0
   -0.8689   -0.3773   -4.8538 H   0  0  0  0  0  0  0  0  0  0  0  0
    2.7698   -2.3029   -5.4504 N   0  0  0  0  0  0  0  0  0  0  0  0
    4.0935   -2.4975   -5.9944 C   0  0  0  0  0  0  0  0  0  0  0  0
    2.0505   -2.9746   -5.7018 H   0  0  0  0  0  0  0  0  0  0  0  0
    4.1771   -1.9684   -6.9551 H   0  0  0  0  0  0  0  0  0  0  0  0
    4.8407   -2.1009   -5.2912 H   0  0  0  0  0  0  0  0  0  0  0  0
    4.2711   -3.5718   -6.1509 H   0  0  0  0  0  0  0  0  0  0  0  0
  1  3  1  0  0  0  0
  1  7  1  0  0  0  0
  1  2  2  0  0  0  0
 28 29  1  0  0  0  0
 29 37  1  0  0  0  0
 29 30  2  0  0  0  0
 18 19  1  0  0  0  0
 19 27  1  0  0  0  0
 19 20  2  0  0  0  0
  8  9  1  0  0  0  0
  9 17  1  0  0  0  0
  9 10  2  0  0  0  0
 28 31  1  0  0  0  0
 18 21  1  0  0  0  0
  8 11  1  0  0  0  0
 37 38  1  0  0  0  0
 27 28  1  0  0  0  0
 17 18  1  0  0  0  0
  7  8  1  0  0  0  0
  3  4  1  0  0  0  0
  3  5  1  0  0  0  0
  3  6  1  0  0  0  0
 31 34  1  0  0  0  0
 31 35  1  0  0  0  0
 31 36  1  0  0  0  0
 21 24  1  0  0  0  0
 21 25  1  0  0  0  0
 21 26  1  0  0  0  0
 11 14  1  0  0  0  0
 11 15  1  0  0  0  0
 11 16  1  0  0  0  0
 38 40  1  0  0  0  0
 38 41  1  0  0  0  0
 38 42  1  0  0  0  0
 28 33  1  0  0  0  0
 18 23  1  0  0  0  0
  8 13  1  0  0  0  0
 37 39  1  0  0  0  0
  7 12  1  0  0  0  0
 27 32  1  0  0  0  0
 17 22  1  0  0  0  0
M  END
$$$$

  -OEChem-05262214473D

 42 41  0     1  0  0  0  0  0999 V2000
   -5.7851   -0.9580    0.6237 C   0  0  0  0  0  0  0  0  0  0  0  0
   -6.2213    0.1296    0.2652 O   0  0  0  0  0  0  0  0  0  0  0  0
   -6.7088   -2.1270    0.7168 C   0  0  0  0  0  0  0  0  0  0  0  0
   -7.1713   -2.2193    1.7126 H   0  0  0  0  0  0  0  0  0  0  0  0
   -7.5511   -2.0547    0.0101 H   0  0  0  0  0  0  0  0  0  0  0  0
   -6.2485   -3.1083    0.5191 H   0  0  0  0  0  0  0  0  0  0  0  0
   -4.4733   -1.2411    0.9668 N   0  0  0  0  0  0  0  0  0  0  0  0
   -3.4203   -0.2603    0.9449 C   0  0  2  0  0  0  0  0  0  0  0  0
   -2.1242   -0.9699    0.5759 C   0  0  0  0  0  0  0  0  0  0  0  0
   -1.8694   -2.1225    0.9189 O   0  0  0  0  0  0  0  0  0  0  0  0
   -3.2916    0.4435    2.2868 C   0  0  0  0  0  0  0  0  0  0  0  0
   -4.2421   -2.1920    1.2489 H   0  0  0  0  0  0  0  0  0  0  0  0
   -3.6772    0.4622    0.1625 H   0  0  0  0  0  0  0  0  0  0  0  0
   -3.0345   -0.2644    3.0832 H   0  0  0  0  0  0  0  0  0  0  0  0
   -2.5093    1.2092    2.2599 H   0  0  0  0  0  0  0  0  0  0  0  0
   -4.2338    0.9283    2.5645 H   0  0  0  0  0  0  0  0  0  0  0  0
   -1.2626   -0.1515   -0.1463 N   0  0  0  0  0  0  0  0  0  0  0  0
    0.0431   -0.5785   -0.5755 C   0  0  2  0  0  0  0  0  0  0  0  0
   -0.0985   -1.2119   -1.9533 C   0  0  0  0  0  0  0  0  0  0  0  0
   -1.1037   -1.8224   -2.3108 O   0  0  0  0  0  0  0  0  0  0  0  0
    0.6575   -1.5579    0.4124 C   0  0  0  0  0  0  0  0  0  0  0  0
   -1.5766    0.7776   -0.4197 H   0  0  0  0  0  0  0  0  0  0  0  0
    0.6622    0.3223   -0.6489 H   0  0  0  0  0  0  0  0  0  0  0  0
    0.0511   -2.4668    0.4994 H   0  0  0  0  0  0  0  0  0  0  0  0
    1.6623   -1.8597    0.0991 H   0  0  0  0  0  0  0  0  0  0  0  0
    0.7311   -1.1108    1.4097 H   0  0  0  0  0  0  0  0  0  0  0  0
    1.0469   -1.0541   -2.7259 N   0  0  0  0  0  0  0  0  0  0  0  0
    1.1761   -1.6007   -4.0510 C   0  0  2  0  0  0  0  0  0  0  0  0
    2.6383   -1.9670   -4.2682 C   0  0  0  0  0  0  0  0  0  0  0  0
    3.5693   -1.3254   -3.7858 O   0  0  0  0  0  0  0  0  0  0  0  0
    0.7005   -0.6135   -5.1056 C   0  0  0  0  0  0  0  0  0  0  0  0
    1.8169   -0.4973   -2.3603 H   0  0  0  0  0  0  0  0  0  0  0  0
    0.5635   -2.5084   -4.0798 H   0  0  0  0  0  0  0  0  0  0  0  0
    1.3025    0.3024   -5.0919 H   0  0  0  0  0  0  0  0  0  0  0  0
    0.7727   -1.0415   -6.1109 H   0  0  0  0  0  0  0  0  0  0  0  0
   -0.3424   -0.3284   -4.9304 H   0  0  0  0  0  0  0  0  0  0  0  0
    2.7824   -3.0689   -5.0995 N   0  0  0  0  0  0  0  0  0  0  0  0
    4.0726   -3.5863   -5.4917 C   0  0  0  0  0  0  0  0  0  0  0  0
    1.9556   -3.5636   -5.4214 H   0  0  0  0  0  0  0  0  0  0  0  0
    4.3786   -3.1270   -6.4432 H   0  0  0  0  0  0  0  0  0  0  0  0
    4.8142   -3.3489   -4.7148 H   0  0  0  0  0  0  0  0  0  0  0  0
    4.0077   -4.6774   -5.6155 H   0  0  0  0  0  0  0  0  0  0  0  0
  1  3  1  0  0  0  0
  1  7  1  0  0  0  0
  1  2  2  0  0  0  0
 28 29  1  0  0  0  0
 29 37  1  0  0  0  0
 29 30  2  0  0  0  0
 18 19  1  0  0  0  0
 19 27  1  0  0  0  0
 19 20  2  0  0  0  0
  8  9  1  0  0  0  0
  9 17  1  0  0  0  0
  9 10  2  0  0  0  0
 28 31  1  0  0  0  0
 18 21  1  0  0  0  0
  8 11  1  0  0  0  0
 37 38  1  0  0  0  0
 27 28  1  0  0  0  0
 17 18  1  0  0  0  0
  7  8  1  0  0  0  0
  3  4  1  0  0  0  0
  3  5  1  0  0  0  0
  3  6  1  0  0  0  0
 31 34  1  0  0  0  0
 31 35  1  0  0  0  0
 31 36  1  0  0  0  0
 21 24  1  0  0  0  0
 21 25  1  0  0  0  0
 21 26  1  0  0  0  0
 11 14  1  0  0  0  0
 11 15  1  0  0  0  0
 11 16  1  0  0  0  0
 38 40  1  0  0  0  0
 38 41  1  0  0  0  0
 38 42  1  0  0  0  0
 28 33  1  0  0  0  0
 18 23  1  0  0  0  0
  8 13  1  0  0  0  0
 37 39  1  0  0  0  0
  7 12  1  0  0  0  0
 27 32  1  0  0  0  0
 17 22  1  0  0  0  0
M  END
$$$$

  -OEChem-05262214473D

 42 41  0     1  0  0  0  0  0999 V2000
   -5.7851   -0.9580    0.6237 C   0  0  0  0  0  0  0  0  0  0  0  0
   -6.2213    0.1296    0.2652 O   0  0  0  0  0  0  0  0  0  0  0  0
   -6.7088   -2.1270    0.7168 C   0  0  0  0  0  0  0  0  0  0  0  0
   -7.1713   -2.2193    1.7126 H   0  0  0  0  0  0  0  0  0  0  0  0
   -7.5511   -2.0547    0.0101 H   0  0  0  0  0  0  0  0  0  0  0  0
   -6.2485   -3.1083    0.5191 H   0  0  0  0  0  0  0  0  0  0  0  0
   -4.4733   -1.2411    0.9668 N   0  0  0  0  0  0  0  0  0  0  0  0
   -3.4203   -0.2603    0.9449 C   0  0  2  0  0  0  0  0  0  0  0  0
   -2.1242   -0.9699    0.5759 C   0  0  0  0  0  0  0  0  0  0  0  0
   -1.8694   -2.1225    0.9189 O   0  0  0  0  0  0  0  0  0  0  0  0
   -3.2916    0.4435    2.2868 C   0  0  0  0  0  0  0  0  0  0  0  0
   -4.2421   -2.1920    1.2489 H   0  0  0  0  0  0  0  0  0  0  0  0
   -3.6772    0.4622    0.1625 H   0  0  0  0  0  0  0  0  0  0  0  0
   -3.0345   -0.2644    3.0832 H   0  0  0  0  0  0  0  0  0  0  0  0
   -2.5093    1.2092    2.2599 H   0  0  0  0  0  0  0  0  0  0  0  0
   -4.2338    0.9283    2.5645 H   0  0  0  0  0  0  0  0  0  0  0  0
   -1.2626   -0.1515   -0.1463 N   0  0  0  0  0  0  0  0  0  0  0  0
    0.0431   -0.5785   -0.5755 C   0  0  2  0  0  0  0  0  0  0  0  0
   -0.0985   -1.2119   -1.9533 C   0  0  0  0  0  0  0  0  0  0  0  0
   -1.1761   -1.5843   -2.4128 O   0  0  0  0  0  0  0  0  0  0  0  0
    0.6575   -1.5579    0.4124 C   0  0  0  0  0  0  0  0  0  0  0  0
   -1.5766    0.7776   -0.4197 H   0  0  0  0  0  0  0  0  0  0  0  0
    0.6622    0.3223   -0.6489 H   0  0  0  0  0  0  0  0  0  0  0  0
    0.0511   -2.4668    0.4994 H   0  0  0  0  0  0  0  0  0  0  0  0
    1.6623   -1.8597    0.0991 H   0  0  0  0  0  0  0  0  0  0  0  0
    0.7311   -1.1108    1.4097 H   0  0  0  0  0  0  0  0  0  0  0  0
    1.1263   -1.3537   -2.5963 N   0  0  0  0  0  0  0  0  0  0  0  0
    1.2612   -1.9639   -3.8928 C   0  0  2  0  0  0  0  0  0  0  0  0
    2.6106   -2.6682   -3.9430 C   0  0  0  0  0  0  0  0  0  0  0  0
    3.6107   -2.2438   -3.3679 O   0  0  0  0  0  0  0  0  0  0  0  0
    1.1447   -0.9327   -5.0045 C   0  0  0  0  0  0  0  0  0  0  0  0
    1.9631   -0.9784   -2.1542 H   0  0  0  0  0  0  0  0  0  0  0  0
    0.4586   -2.7044   -3.9789 H   0  0  0  0  0  0  0  0  0  0  0  0
    1.9406   -0.1822   -4.9347 H   0  0  0  0  0  0  0  0  0  0  0  0
    1.2190   -1.4024   -5.9908 H   0  0  0  0  0  0  0  0  0  0  0  0
    0.1858   -0.4063   -4.9488 H   0  0  0  0  0  0  0  0  0  0  0  0
    2.5775   -3.8034   -4.7408 N   0  0  0  0  0  0  0  0  0  0  0  0
    3.7433   -4.6210   -4.9821 C   0  0  0  0  0  0  0  0  0  0  0  0
    1.6959   -4.1034   -5.1465 H   0  0  0  0  0  0  0  0  0  0  0  0
    4.2469   -4.2810   -5.8991 H   0  0  0  0  0  0  0  0  0  0  0  0
    4.4344   -4.5344   -4.1308 H   0  0  0  0  0  0  0  0  0  0  0  0
    3.4367   -5.6708   -5.1001 H   0  0  0  0  0  0  0  0  0  0  0  0
  1  3  1  0  0  0  0
  1  7  1  0  0  0  0
  1  2  2  0  0  0  0
 28 29  1  0  0  0  0
 29 37  1  0  0  0  0
 29 30  2  0  0  0  0
 18 19  1  0  0  0  0
 19 27  1  0  0  0  0
 19 20  2  0  0  0  0
  8  9  1  0  0  0  0
  9 17  1  0  0  0  0
  9 10  2  0  0  0  0
 28 31  1  0  0  0  0
 18 21  1  0  0  0  0
  8 11  1  0  0  0  0
 37 38  1  0  0  0  0
 27 28  1  0  0  0  0
 17 18  1  0  0  0  0
  7  8  1  0  0  0  0
  3  4  1  0  0  0  0
  3  5  1  0  0  0  0
  3  6  1  0  0  0  0
 31 34  1  0  0  0  0
 31 35  1  0  0  0  0
 31 36  1  0  0  0  0
 21 24  1  0  0  0  0
 21 25  1  0  0  0  0
 21 26  1  0  0  0  0
 11 14  1  0  0  0  0
 11 15  1  0  0  0  0
 11 16  1  0  0  0  0
 38 40  1  0  0  0  0
 38 41  1  0  0  0  0
 38 42  1  0  0  0  0
 28 33  1  0  0  0  0
 18 23  1  0  0  0  0
  8 13  1  0  0  0  0
 37 39  1  0  0  0  0
  7 12  1  0  0  0  0
 27 32  1  0  0  0  0
 17 22  1  0  0  0  0
M  END
$$$$

  -OEChem-05262214473D

 42 41  0     1  0  0  0  0  0999 V2000
   -5.7851   -0.9580    0.6237 C   0  0  0  0  0  0  0  0  0  0  0  0
   -6.2213    0.1296    0.2652 O   0  0  0  0  0  0  0  0  0  0  0  0
   -6.7088   -2.1270    0.7168 C   0  0  0  0  0  0  0  0  0  0  0  0
   -7.1713   -2.2193    1.7126 H   0  0  0  0  0  0  0  0  0  0  0  0
   -7.5511   -2.0547    0.0101 H   0  0  0  0  0  0  0  0  0  0  0  0
   -6.2485   -3.1083    0.5191 H   0  0  0  0  0  0  0  0  0  0  0  0
   -4.4733   -1.2411    0.9668 N   0  0  0  0  0  0  0  0  0  0  0  0
   -3.4203   -0.2603    0.9449 C   0  0  2  0  0  0  0  0  0  0  0  0
   -2.1242   -0.9699    0.5759 C   0  0  0  0  0  0  0  0  0  0  0  0
   -1.8694   -2.1225    0.9189 O   0  0  0  0  0  0  0  0  0  0  0  0
   -3.2916    0.4435    2.2868 C   0  0  0  0  0  0  0  0  0  0  0  0
   -4.2421   -2.1920    1.2489 H   0  0  0  0  0  0  0  0  0  0  0  0
   -3.6772    0.4622    0.1625 H   0  0  0  0  0  0  0  0  0  0  0  0
   -3.0345   -0.2644    3.0832 H   0  0  0  0  0  0  0  0  0  0  0  0
   -2.5093    1.2092    2.2599 H   0  0  0  0  0  0  0  0  0  0  0  0
   -4.2338    0.9283    2.5645 H   0  0  0  0  0  0  0  0  0  0  0  0
   -1.2626   -0.1515   -0.1463 N   0  0  0  0  0  0  0  0  0  0  0  0
    0.0431   -0.5785   -0.5755 C   0  0  2  0  0  0  0  0  0  0  0  0
   -0.0222   -0.8606   -2.0707 C   0  0  0  0  0  0  0  0  0  0  0  0
   -1.0560   -0.7589   -2.7280 O   0  0  0  0  0  0  0  0  0  0  0  0
    0.5022   -1.8095    0.1904 C   0  0  0  0  0  0  0  0  0  0  0  0
   -1.5766    0.7776   -0.4197 H   0  0  0  0  0  0  0  0  0  0  0  0
    0.7260    0.2579   -0.3906 H   0  0  0  0  0  0  0  0  0  0  0  0
   -0.1698   -2.6580    0.0174 H   0  0  0  0  0  0  0  0  0  0  0  0
    1.5074   -2.1161   -0.1172 H   0  0  0  0  0  0  0  0  0  0  0  0
    0.5200   -1.6139    1.2680 H   0  0  0  0  0  0  0  0  0  0  0  0
    1.2006   -1.2822   -2.5812 N   0  0  0  0  0  0  0  0  0  0  0  0
    1.3857   -1.6505   -3.9602 C   0  0  2  0  0  0  0  0  0  0  0  0
    2.4447   -2.7435   -4.0171 C   0  0  0  0  0  0  0  0  0  0  0  0
    3.4000   -2.7927   -3.2450 O   0  0  0  0  0  0  0  0  0  0  0  0
    1.7952   -0.4525   -4.8027 C   0  0  0  0  0  0  0  0  0  0  0  0
    2.0133   -1.2975   -1.9682 H   0  0  0  0  0  0  0  0  0  0  0  0
    0.4283   -2.0501   -4.3120 H   0  0  0  0  0  0  0  0  0  0  0  0
    2.7523   -0.0384   -4.4650 H   0  0  0  0  0  0  0  0  0  0  0  0
    1.9078   -0.7283   -5.8564 H   0  0  0  0  0  0  0  0  0  0  0  0
    1.0466    0.3445   -4.7369 H   0  0  0  0  0  0  0  0  0  0  0  0
    2.2212   -3.6330   -5.0586 N   0  0  0  0  0  0  0  0  0  0  0  0
    3.1103   -4.7338   -5.3481 C   0  0  0  0  0  0  0  0  0  0  0  0
    1.3824   -3.5400   -5.6239 H   0  0  0  0  0  0  0  0  0  0  0  0
    3.8551   -4.4180   -6.0934 H   0  0  0  0  0  0  0  0  0  0  0  0
    3.6233   -5.0430   -4.4255 H   0  0  0  0  0  0  0  0  0  0  0  0
    2.5296   -5.5792   -5.7457 H   0  0  0  0  0  0  0  0  0  0  0  0
  1  3  1  0  0  0  0
  1  7  1  0  0  0  0
  1  2  2  0  0  0  0
 28 29  1  0  0  0  0
 29 37  1  0  0  0  0
 29 30  2  0  0  0  0
 18 19  1  0  0  0  0
 19 27  1  0  0  0  0
 19 20  2  0  0  0  0
  8  9  1  0  0  0  0
  9 17  1  0  0  0  0
  9 10  2  0  0  0  0
 28 31  1  0  0  0  0
 18 21  1  0  0  0  0
  8 11  1  0  0  0  0
 37 38  1  0  0  0  0
 27 28  1  0  0  0  0
 17 18  1  0  0  0  0
  7  8  1  0  0  0  0
  3  4  1  0  0  0  0
  3  5  1  0  0  0  0
  3  6  1  0  0  0  0
 31 34  1  0  0  0  0
 31 35  1  0  0  0  0
 31 36  1  0  0  0  0
 21 24  1  0  0  0  0
 21 25  1  0  0  0  0
 21 26  1  0  0  0  0
 11 14  1  0  0  0  0
 11 15  1  0  0  0  0
 11 16  1  0  0  0  0
 38 40  1  0  0  0  0
 38 41  1  0  0  0  0
 38 42  1  0  0  0  0
 28 33  1  0  0  0  0
 18 23  1  0  0  0  0
  8 13  1  0  0  0  0
 37 39  1  0  0  0  0
  7 12  1  0  0  0  0
 27 32  1  0  0  0  0
 17 22  1  0  0  0  0
M  END
$$$$

  -OEChem-05262214473D

 42 41  0     1  0  0  0  0  0999 V2000
   -5.7851   -0.9580    0.6237 C   0  0  0  0  0  0  0  0  0  0  0  0
   -6.2213    0.1296    0.2652 O   0  0  0  0  0  0  0  0  0  0  0  0
   -6.7088   -2.1270    0.7168 C   0  0  0  0  0  0  0  0  0  0  0  0
   -7.1713   -2.2193    1.7126 H   0  0  0  0  0  0  0  0  0  0  0  0
   -7.5511   -2.0547    0.0101 H   0  0  0  0  0  0  0  0  0  0  0  0
   -6.2485   -3.1083    0.5191 H   0  0  0  0  0  0  0  0  0  0  0  0
   -4.4733   -1.2411    0.9668 N   0  0  0  0  0  0  0  0  0  0  0  0
   -3.4203   -0.2603    0.9449 C   0  0  2  0  0  0  0  0  0  0  0  0
   -2.1242   -0.9699    0.5759 C   0  0  0  0  0  0  0  0  0  0  0  0
   -1.8694   -2.1225    0.9189 O   0  0  0  0  0  0  0  0  0  0  0  0
   -3.2916    0.4435    2.2868 C   0  0  0  0  0  0  0  0  0  0  0  0
   -4.2421   -2.1920    1.2489 H   0  0  0  0  0  0  0  0  0  0  0  0
   -3.6772    0.4622    0.1625 H   0  0  0  0  0  0  0  0  0  0  0  0
   -3.0345   -0.2644    3.0832 H   0  0  0  0  0  0  0  0  0  0  0  0
   -2.5093    1.2092    2.2599 H   0  0  0  0  0  0  0  0  0  0  0  0
   -4.2338    0.9283    2.5645 H   0  0  0  0  0  0  0  0  0  0  0  0
   -1.2626   -0.1515   -0.1463 N   0  0  0  0  0  0  0  0  0  0  0  0
    0.0431   -0.5785   -0.5755 C   0  0  2  0  0  0  0  0  0  0  0  0
   -0.0222   -0.8606   -2.0707 C   0  0  0  0  0  0  0  0  0  0  0  0
   -0.9644   -0.5112   -2.7787 O   0  0  0  0  0  0  0  0  0  0  0  0
    0.5022   -1.8095    0.1904 C   0  0  0  0  0  0  0  0  0  0  0  0
   -1.5766    0.7776   -0.4197 H   0  0  0  0  0  0  0  0  0  0  0  0
    0.7260    0.2579   -0.3906 H   0  0  0  0  0  0  0  0  0  0  0  0
   -0.1698   -2.6580    0.0174 H   0  0  0  0  0  0  0  0  0  0  0  0
    1.5074   -2.1161   -0.1172 H   0  0  0  0  0  0  0  0  0  0  0  0
    0.5200   -1.6139    1.2680 H   0  0  0  0  0  0  0  0  0  0  0  0
    1.0756   -1.5875   -2.5182 N   0  0  0  0  0  0  0  0  0  0  0  0
    1.2248   -2.0145   -3.8845 C   0  0  2  0  0  0  0  0  0  0  0  0
    1.9724   -3.3413   -3.8836 C   0  0  0  0  0  0  0  0  0  0  0  0
    2.8468   -3.6180   -3.0651 O   0  0  0  0  0  0  0  0  0  0  0  0
    1.9643   -0.9744   -4.7116 C   0  0  0  0  0  0  0  0  0  0  0  0
    1.8282   -1.7980   -1.8656 H   0  0  0  0  0  0  0  0  0  0  0  0
    0.2147   -2.1641   -4.2812 H   0  0  0  0  0  0  0  0  0  0  0  0
    2.9784   -0.8111   -4.3291 H   0  0  0  0  0  0  0  0  0  0  0  0
    2.0519   -1.2880   -5.7571 H   0  0  0  0  0  0  0  0  0  0  0  0
    1.4408   -0.0126   -4.6867 H   0  0  0  0  0  0  0  0  0  0  0  0
    1.5787   -4.1629   -4.9306 N   0  0  0  0  0  0  0  0  0  0  0  0
    2.1710   -5.4582   -5.1704 C   0  0  0  0  0  0  0  0  0  0  0  0
    0.8184   -3.8698   -5.5370 H   0  0  0  0  0  0  0  0  0  0  0  0
    3.0054   -5.3547   -5.8796 H   0  0  0  0  0  0  0  0  0  0  0  0
    2.5450   -5.8714   -4.2221 H   0  0  0  0  0  0  0  0  0  0  0  0
    1.4134   -6.1352   -5.5920 H   0  0  0  0  0  0  0  0  0  0  0  0
  1  3  1  0  0  0  0
  1  7  1  0  0  0  0
  1  2  2  0  0  0  0
 28 29  1  0  0  0  0
 29 37  1  0  0  0  0
 29 30  2  0  0  0  0
 18 19  1  0  0  0  0
 19 27  1  0  0  0  0
 19 20  2  0  0  0  0
  8  9  1  0  0  0  0
  9 17  1  0  0  0  0
  9 10  2  0  0  0  0
 28 31  1  0  0  0  0
 18 21  1  0  0  0  0
  8 11  1  0  0  0  0
 37 38  1  0  0  0  0
 27 28  1  0  0  0  0
 17 18  1  0  0  0  0
  7  8  1  0  0  0  0
  3  4  1  0  0  0  0
  3  5  1  0  0  0  0
  3  6  1  0  0  0  0
 31 34  1  0  0  0  0
 31 35  1  0  0  0  0
 31 36  1  0  0  0  0
 21 24  1  0  0  0  0
 21 25  1  0  0  0  0
 21 26  1  0  0  0  0
 11 14  1  0  0  0  0
 11 15  1  0  0  0  0
 11 16  1  0  0  0  0
 38 40  1  0  0  0  0
 38 41  1  0  0  0  0
 38 42  1  0  0  0  0
 28 33  1  0  0  0  0
 18 23  1  0  0  0  0
  8 13  1  0  0  0  0
 37 39  1  0  0  0  0
  7 12  1  0  0  0  0
 27 32  1  0  0  0  0
 17 22  1  0  0  0  0
M  END
$$$$

  -OEChem-05262214473D

 42 41  0     1  0  0  0  0  0999 V2000
   -5.7851   -0.9580    0.6237 C   0  0  0  0  0  0  0  0  0  0  0  0
   -6.2213    0.1296    0.2652 O   0  0  0  0  0  0  0  0  0  0  0  0
   -6.7088   -2.1270    0.7168 C   0  0  0  0  0  0  0  0  0  0  0  0
   -7.1713   -2.2193    1.7126 H   0  0  0  0  0  0  0  0  0  0  0  0
   -7.5511   -2.0547    0.0101 H   0  0  0  0  0  0  0  0  0  0  0  0
   -6.2485   -3.1083    0.5191 H   0  0  0  0  0  0  0  0  0  0  0  0
   -4.4733   -1.2411    0.9668 N   0  0  0  0  0  0  0  0  0  0  0  0
   -3.4203   -0.2603    0.9449 C   0  0  2  0  0  0  0  0  0  0  0  0
   -2.1242   -0.9699    0.5759 C   0  0  0  0  0  0  0  0  0  0  0  0
   -1.8694   -2.1225    0.9189 O   0  0  0  0  0  0  0  0  0  0  0  0
   -3.2916    0.4435    2.2868 C   0  0  0  0  0  0  0  0  0  0  0  0
   -4.2421   -2.1920    1.2489 H   0  0  0  0  0  0  0  0  0  0  0  0
   -3.6772    0.4622    0.1625 H   0  0  0  0  0  0  0  0  0  0  0  0
   -3.0345   -0.2644    3.0832 H   0  0  0  0  0  0  0  0  0  0  0  0
   -2.5093    1.2092    2.2599 H   0  0  0  0  0  0  0  0  0  0  0  0
   -4.2338    0.9283    2.5645 H   0  0  0  0  0  0  0  0  0  0  0  0
   -1.2626   -0.1515   -0.1463 N   0  0  0  0  0  0  0  0  0  0  0  0
    0.0431   -0.5785   -0.5755 C   0  0  2  0  0  0  0  0  0  0  0  0
   -0.0222   -0.8606   -2.0707 C   0  0  0  0  0  0  0  0  0  0  0  0
   -0.8105   -0.2958   -2.8261 O   0  0  0  0  0  0  0  0  0  0  0  0
    0.5022   -1.8095    0.1904 C   0  0  0  0  0  0  0  0  0  0  0  0
   -1.5766    0.7776   -0.4197 H   0  0  0  0  0  0  0  0  0  0  0  0
    0.7260    0.2579   -0.3906 H   0  0  0  0  0  0  0  0  0  0  0  0
   -0.1698   -2.6580    0.0174 H   0  0  0  0  0  0  0  0  0  0  0  0
    1.5074   -2.1161   -0.1172 H   0  0  0  0  0  0  0  0  0  0  0  0
    0.5200   -1.6139    1.2680 H   0  0  0  0  0  0  0  0  0  0  0  0
    0.8741   -1.8500   -2.4598 N   0  0  0  0  0  0  0  0  0  0  0  0
    0.9732   -2.3244   -3.8150 C   0  0  2  0  0  0  0  0  0  0  0  0
    1.3579   -3.7974   -3.7707 C   0  0  0  0  0  0  0  0  0  0  0  0
    2.0941   -4.2727   -2.9087 O   0  0  0  0  0  0  0  0  0  0  0  0
    1.9906   -1.5206   -4.6097 C   0  0  0  0  0  0  0  0  0  0  0  0
    1.5173   -2.2333   -1.7699 H   0  0  0  0  0  0  0  0  0  0  0  0
   -0.0221   -2.2195   -4.2604 H   0  0  0  0  0  0  0  0  0  0  0  0
    2.9940   -1.6134   -4.1784 H   0  0  0  0  0  0  0  0  0  0  0  0
    2.0441   -1.8642   -5.6480 H   0  0  0  0  0  0  0  0  0  0  0  0
    1.7284   -0.4571   -4.6154 H   0  0  0  0  0  0  0  0  0  0  0  0
    0.8172   -4.5101   -4.8318 N   0  0  0  0  0  0  0  0  0  0  0  0
    1.0711   -5.9172   -5.0357 C   0  0  0  0  0  0  0  0  0  0  0  0
    0.1855   -4.0441   -5.4765 H   0  0  0  0  0  0  0  0  0  0  0  0
    1.9365   -6.0412   -5.7033 H   0  0  0  0  0  0  0  0  0  0  0  0
    1.2831   -6.3954   -4.0681 H   0  0  0  0  0  0  0  0  0  0  0  0
    0.1867   -6.3870   -5.4909 H   0  0  0  0  0  0  0  0  0  0  0  0
  1  3  1  0  0  0  0
  1  7  1  0  0  0  0
  1  2  2  0  0  0  0
 28 29  1  0  0  0  0
 29 37  1  0  0  0  0
 29 30  2  0  0  0  0
 18 19  1  0  0  0  0
 19 27  1  0  0  0  0
 19 20  2  0  0  0  0
  8  9  1  0  0  0  0
  9 17  1  0  0  0  0
  9 10  2  0  0  0  0
 28 31  1  0  0  0  0
 18 21  1  0  0  0  0
  8 11  1  0  0  0  0
 37 38  1  0  0  0  0
 27 28  1  0  0  0  0
 17 18  1  0  0  0  0
  7  8  1  0  0  0  0
  3  4  1  0  0  0  0
  3  5  1  0  0  0  0
  3  6  1  0  0  0  0
 31 34  1  0  0  0  0
 31 35  1  0  0  0  0
 31 36  1  0  0  0  0
 21 24  1  0  0  0  0
 21 25  1  0  0  0  0
 21 26  1  0  0  0  0
 11 14  1  0  0  0  0
 11 15  1  0  0  0  0
 11 16  1  0  0  0  0
 38 40  1  0  0  0  0
 38 41  1  0  0  0  0
 38 42  1  0  0  0  0
 28 33  1  0  0  0  0
 18 23  1  0  0  0  0
  8 13  1  0  0  0  0
 37 39  1  0  0  0  0
  7 12  1  0  0  0  0
 27 32  1  0  0  0  0
 17 22  1  0  0  0  0
M  END
$$$$

  -OEChem-05262214473D

 42 41  0     1  0  0  0  0  0999 V2000
   -5.7851   -0.9580    0.6237 C   0  0  0  0  0  0  0  0  0  0  0  0
   -6.2213    0.1296    0.2652 O   0  0  0  0  0  0  0  0  0  0  0  0
   -6.7088   -2.1270    0.7168 C   0  0  0  0  0  0  0  0  0  0  0  0
   -7.1713   -2.2193    1.7126 H   0  0  0  0  0  0  0  0  0  0  0  0
   -7.5511   -2.0547    0.0101 H   0  0  0  0  0  0  0  0  0  0  0  0
   -6.2485   -3.1083    0.5191 H   0  0  0  0  0  0  0  0  0  0  0  0
   -4.4733   -1.2411    0.9668 N   0  0  0  0  0  0  0  0  0  0  0  0
   -3.4203   -0.2603    0.9449 C   0  0  2  0  0  0  0  0  0  0  0  0
   -2.1242   -0.9699    0.5759 C   0  0  0  0  0  0  0  0  0  0  0  0
   -1.8694   -2.1225    0.9189 O   0  0  0  0  0  0  0  0  0  0  0  0
   -3.2916    0.4435    2.2868 C   0  0  0  0  0  0  0  0  0  0  0  0
   -4.2421   -2.1920    1.2489 H   0  0  0  0  0  0  0  0  0  0  0  0
   -3.6772    0.4622    0.1625 H   0  0  0  0  0  0  0  0  0  0  0  0
   -3.0345   -0.2644    3.0832 H   0  0  0  0  0  0  0  0  0  0  0  0
   -2.5093    1.2092    2.2599 H   0  0  0  0  0  0  0  0  0  0  0  0
   -4.2338    0.9283    2.5645 H   0  0  0  0  0  0  0  0  0  0  0  0
   -1.2626   -0.1515   -0.1463 N   0  0  0  0  0  0  0  0  0  0  0  0
    0.0431   -0.5785   -0.5755 C   0  0  2  0  0  0  0  0  0  0  0  0
   -0.0222   -0.8606   -2.0707 C   0  0  0  0  0  0  0  0  0  0  0  0
   -0.6049   -0.1273   -2.8669 O   0  0  0  0  0  0  0  0  0  0  0  0
    0.5022   -1.8095    0.1904 C   0  0  0  0  0  0  0  0  0  0  0  0
   -1.5766    0.7776   -0.4197 H   0  0  0  0  0  0  0  0  0  0  0  0
    0.7260    0.2579   -0.3906 H   0  0  0  0  0  0  0  0  0  0  0  0
   -0.1698   -2.6580    0.0174 H   0  0  0  0  0  0  0  0  0  0  0  0
    1.5074   -2.1161   -0.1172 H   0  0  0  0  0  0  0  0  0  0  0  0
    0.5200   -1.6139    1.2680 H   0  0  0  0  0  0  0  0  0  0  0  0
    0.6101   -2.0517   -2.4102 N   0  0  0  0  0  0  0  0  0  0  0  0
    0.6481   -2.5591   -3.7565 C   0  0  2  0  0  0  0  0  0  0  0  0
    0.6430   -4.0804   -3.6861 C   0  0  0  0  0  0  0  0  0  0  0  0
    1.1931   -4.7121   -2.7864 O   0  0  0  0  0  0  0  0  0  0  0  0
    1.8723   -2.0537   -4.5039 C   0  0  0  0  0  0  0  0  0  0  0  0
    1.1018   -2.5737   -1.6875 H   0  0  0  0  0  0  0  0  0  0  0  0
   -0.2660   -2.2127   -4.2510 H   0  0  0  0  0  0  0  0  0  0  0  0
    2.7979   -2.3907   -4.0232 H   0  0  0  0  0  0  0  0  0  0  0  0
    1.8849   -2.4175   -5.5367 H   0  0  0  0  0  0  0  0  0  0  0  0
    1.8898   -0.9587   -4.5278 H   0  0  0  0  0  0  0  0  0  0  0  0
   -0.0112   -4.6508   -4.7690 N   0  0  0  0  0  0  0  0  0  0  0  0
   -0.1145   -6.0796   -4.9533 C   0  0  0  0  0  0  0  0  0  0  0  0
   -0.4729   -4.0510   -5.4464 H   0  0  0  0  0  0  0  0  0  0  0  0
    0.7210   -6.4308   -5.5767 H   0  0  0  0  0  0  0  0  0  0  0  0
   -0.0763   -6.5792   -3.9740 H   0  0  0  0  0  0  0  0  0  0  0  0
   -1.0671   -6.3173   -5.4492 H   0  0  0  0  0  0  0  0  0  0  0  0
  1  3  1  0  0  0  0
  1  7  1  0  0  0  0
  1  2  2  0  0  0  0
 28 29  1  0  0  0  0
 29 37  1  0  0  0  0
 29 30  2  0  0  0  0
 18 19  1  0  0  0  0
 19 27  1  0  0  0  0
 19 20  2  0  0  0  0
  8  9  1  0  0  0  0
  9 17  1  0  0  0  0
  9 10  2  0  0  0  0
 28 31  1  0  0  0  0
 18 21  1  0  0  0  0
  8 11  1  0  0  0  0
 37 38  1  0  0  0  0
 27 28  1  0  0  0  0
 17 18  1  0  0  0  0
  7  8  1  0  0  0  0
  3  4  1  0  0  0  0
  3  5  1  0  0  0  0
  3  6  1  0  0  0  0
 31 34  1  0  0  0  0
 31 35  1  0  0  0  0
 31 36  1  0  0  0  0
 21 24  1  0  0  0  0
 21 25  1  0  0  0  0
 21 26  1  0  0  0  0
 11 14  1  0  0  0  0
 11 15  1  0  0  0  0
 11 16  1  0  0  0  0
 38 40  1  0  0  0  0
 38 41  1  0  0  0  0
 38 42  1  0  0  0  0
 28 33  1  0  0  0  0
 18 23  1  0  0  0  0
  8 13  1  0  0  0  0
 37 39  1  0  0  0  0
  7 12  1  0  0  0  0
 27 32  1  0  0  0  0
 17 22  1  0  0  0  0
M  END
$$$$

  -OEChem-05262214473D

 42 41  0     1  0  0  0  0  0999 V2000
   -5.7851   -0.9580    0.6237 C   0  0  0  0  0  0  0  0  0  0  0  0
   -6.2213    0.1296    0.2652 O   0  0  0  0  0  0  0  0  0  0  0  0
   -6.7088   -2.1270    0.7168 C   0  0  0  0  0  0  0  0  0  0  0  0
   -7.1713   -2.2193    1.7126 H   0  0  0  0  0  0  0  0  0  0  0  0
   -7.5511   -2.0547    0.0101 H   0  0  0  0  0  0  0  0  0  0  0  0
   -6.2485   -3.1083    0.5191 H   0  0  0  0  0  0  0  0  0  0  0  0
   -4.4733   -1.2411    0.9668 N   0  0  0  0  0  0  0  0  0  0  0  0
   -3.4203   -0.2603    0.9449 C   0  0  2  0  0  0  0  0  0  0  0  0
   -2.1242   -0.9699    0.5759 C   0  0  0  0  0  0  0  0  0  0  0  0
   -1.8694   -2.1225    0.9189 O   0  0  0  0  0  0  0  0  0  0  0  0
   -3.2916    0.4435    2.2868 C   0  0  0  0  0  0  0  0  0  0  0  0
   -4.2421   -2.1920    1.2489 H   0  0  0  0  0  0  0  0  0  0  0  0
   -3.6772    0.4622    0.1625 H   0  0  0  0  0  0  0  0  0  0  0  0
   -3.0345   -0.2644    3.0832 H   0  0  0  0  0  0  0  0  0  0  0  0
   -2.5093    1.2092    2.2599 H   0  0  0  0  0  0  0  0  0  0  0  0
   -4.2338    0.9283    2.5645 H   0  0  0  0  0  0  0  0  0  0  0  0
   -1.2626   -0.1515   -0.1463 N   0  0  0  0  0  0  0  0  0  0  0  0
    0.0431   -0.5785   -0.5755 C   0  0  2  0  0  0  0  0  0  0  0  0
   -0.0222   -0.8606   -2.0707 C   0  0  0  0  0  0  0  0  0  0  0  0
   -0.3615   -0.0173   -2.8983 O   0  0  0  0  0  0  0  0  0  0  0  0
    0.5022   -1.8095    0.1904 C   0  0  0  0  0  0  0  0  0  0  0  0
   -1.5766    0.7776   -0.4197 H   0  0  0  0  0  0  0  0  0  0  0  0
    0.7260    0.2579   -0.3906 H   0  0  0  0  0  0  0  0  0  0  0  0
   -0.1698   -2.6580    0.0174 H   0  0  0  0  0  0  0  0  0  0  0  0
    1.5074   -2.1161   -0.1172 H   0  0  0  0  0  0  0  0  0  0  0  0
    0.5200   -1.6139    1.2680 H   0  0  0  0  0  0  0  0  0  0  0  0
    0.3014   -2.1789   -2.3728 N   0  0  0  0  0  0  0  0  0  0  0  0
    0.2717   -2.7025   -3.7130 C   0  0  2  0  0  0  0  0  0  0  0  0
   -0.1235   -4.1713   -3.6354 C   0  0  0  0  0  0  0  0  0  0  0  0
    0.2054   -4.9063   -2.7066 O   0  0  0  0  0  0  0  0  0  0  0  0
    1.6176   -2.5374   -4.4015 C   0  0  0  0  0  0  0  0  0  0  0  0
    0.6100   -2.7960   -1.6241 H   0  0  0  0  0  0  0  0  0  0  0  0
   -0.5002   -2.1441   -4.2537 H   0  0  0  0  0  0  0  0  0  0  0  0
    2.4036   -3.0900   -3.8740 H   0  0  0  0  0  0  0  0  0  0  0  0
    1.5852   -2.9103   -5.4306 H   0  0  0  0  0  0  0  0  0  0  0  0
    1.9141   -1.4833   -4.4299 H   0  0  0  0  0  0  0  0  0  0  0  0
   -0.8502   -4.5756   -4.7466 N   0  0  0  0  0  0  0  0  0  0  0  0
   -1.3048   -5.9343   -4.9287 C   0  0  0  0  0  0  0  0  0  0  0  0
   -1.1121   -3.8900   -5.4489 H   0  0  0  0  0  0  0  0  0  0  0  0
   -0.5581   -6.4968   -5.5084 H   0  0  0  0  0  0  0  0  0  0  0  0
   -1.4405   -6.4102   -3.9463 H   0  0  0  0  0  0  0  0  0  0  0  0
   -2.2624   -5.9310   -5.4699 H   0  0  0  0  0  0  0  0  0  0  0  0
  1  3  1  0  0  0  0
  1  7  1  0  0  0  0
  1  2  2  0  0  0  0
 28 29  1  0  0  0  0
 29 37  1  0  0  0  0
 29 30  2  0  0  0  0
 18 19  1  0  0  0  0
 19 27  1  0  0  0  0
 19 20  2  0  0  0  0
  8  9  1  0  0  0  0
  9 17  1  0  0  0  0
  9 10  2  0  0  0  0
 28 31  1  0  0  0  0
 18 21  1  0  0  0  0
  8 11  1  0  0  0  0
 37 38  1  0  0  0  0
 27 28  1  0  0  0  0
 17 18  1  0  0  0  0
  7  8  1  0  0  0  0
  3  4  1  0  0  0  0
  3  5  1  0  0  0  0
  3  6  1  0  0  0  0
 31 34  1  0  0  0  0
 31 35  1  0  0  0  0
 31 36  1  0  0  0  0
 21 24  1  0  0  0  0
 21 25  1  0  0  0  0
 21 26  1  0  0  0  0
 11 14  1  0  0  0  0
 11 15  1  0  0  0  0
 11 16  1  0  0  0  0
 38 40  1  0  0  0  0
 38 41  1  0  0  0  0
 38 42  1  0  0  0  0
 28 33  1  0  0  0  0
 18 23  1  0  0  0  0
  8 13  1  0  0  0  0
 37 39  1  0  0  0  0
  7 12  1  0  0  0  0
 27 32  1  0  0  0  0
 17 22  1  0  0  0  0
M  END
$$$$

  -OEChem-05262214473D

 42 41  0     1  0  0  0  0  0999 V2000
   -5.7851   -0.9580    0.6237 C   0  0  0  0  0  0  0  0  0  0  0  0
   -6.2213    0.1296    0.2652 O   0  0  0  0  0  0  0  0  0  0  0  0
   -6.7088   -2.1270    0.7168 C   0  0  0  0  0  0  0  0  0  0  0  0
   -7.1713   -2.2193    1.7126 H   0  0  0  0  0  0  0  0  0  0  0  0
   -7.5511   -2.0547    0.0101 H   0  0  0  0  0  0  0  0  0  0  0  0
   -6.2485   -3.1083    0.5191 H   0  0  0  0  0  0  0  0  0  0  0  0
   -4.4733   -1.2411    0.9668 N   0  0  0  0  0  0  0  0  0  0  0  0
   -3.4203   -0.2603    0.9449 C   0  0  2  0  0  0  0  0  0  0  0  0
   -2.1242   -0.9699    0.5759 C   0  0  0  0  0  0  0  0  0  0  0  0
   -1.8694   -2.1225    0.9189 O   0  0  0  0  0  0  0  0  0  0  0  0
   -3.2916    0.4435    2.2868 C   0  0  0  0  0  0  0  0  0  0  0  0
   -4.2421   -2.1920    1.2489 H   0  0  0  0  0  0  0  0  0  0  0  0
   -3.6772    0.4622    0.1625 H   0  0  0  0  0  0  0  0  0  0  0  0
   -3.0345   -0.2644    3.0832 H   0  0  0  0  0  0  0  0  0  0  0  0
   -2.5093    1.2092    2.2599 H   0  0  0  0  0  0  0  0  0  0  0  0
   -4.2338    0.9283    2.5645 H   0  0  0  0  0  0  0  0  0  0  0  0
   -1.2626   -0.1515   -0.1463 N   0  0  0  0  0  0  0  0  0  0  0  0
    0.0431   -0.5785   -0.5755 C   0  0  2  0  0  0  0  0  0  0  0  0
   -0.0222   -0.8606   -2.0707 C   0  0  0  0  0  0  0  0  0  0  0  0
   -0.0970    0.0268   -2.9181 O   0  0  0  0  0  0  0  0  0  0  0  0
    0.5022   -1.8095    0.1904 C   0  0  0  0  0  0  0  0  0  0  0  0
   -1.5766    0.7776   -0.4197 H   0  0  0  0  0  0  0  0  0  0  0  0
    0.7260    0.2579   -0.3906 H   0  0  0  0  0  0  0  0  0  0  0  0
   -0.1698   -2.6580    0.0174 H   0  0  0  0  0  0  0  0  0  0  0  0
    1.5074   -2.1161   -0.1172 H   0  0  0  0  0  0  0  0  0  0  0  0
    0.5200   -1.6139    1.2680 H   0  0  0  0  0  0  0  0  0  0  0  0
   -0.0309   -2.2228   -2.3499 N   0  0  0  0  0  0  0  0  0  0  0  0
   -0.1305   -2.7449   -3.6875 C   0  0  2  0  0  0  0  0  0  0  0  0
   -0.8894   -4.0637   -3.6223 C   0  0  0  0  0  0  0  0  0  0  0  0
   -0.8019   -4.8419   -2.6748 O   0  0  0  0  0  0  0  0  0  0  0  0
    1.2437   -2.9388   -4.3095 C   0  0  0  0  0  0  0  0  0  0  0  0
    0.0754   -2.8850   -1.5839 H   0  0  0  0  0  0  0  0  0  0  0  0
   -0.7089   -2.0183   -4.2683 H   0  0  0  0  0  0  0  0  0  0  0  0
    1.8379   -3.6635   -3.7411 H   0  0  0  0  0  0  0  0  0  0  0  0
    1.1654   -3.3090   -5.3370 H   0  0  0  0  0  0  0  0  0  0  0  0
    1.7996   -1.9952   -4.3283 H   0  0  0  0  0  0  0  0  0  0  0  0
   -1.6426   -4.2895   -4.7660 N   0  0  0  0  0  0  0  0  0  0  0  0
   -2.4188   -5.4913   -4.9636 C   0  0  0  0  0  0  0  0  0  0  0  0
   -1.6885   -3.5721   -5.4837 H   0  0  0  0  0  0  0  0  0  0  0  0
   -1.8136   -6.2348   -5.5030 H   0  0  0  0  0  0  0  0  0  0  0  0
   -2.7167   -5.9000   -3.9868 H   0  0  0  0  0  0  0  0  0  0  0  0
   -3.3179   -5.2543   -5.5515 H   0  0  0  0  0  0  0  0  0  0  0  0
  1  3  1  0  0  0  0
  1  7  1  0  0  0  0
  1  2  2  0  0  0  0
 28 29  1  0  0  0  0
 29 37  1  0  0  0  0
 29 30  2  0  0  0  0
 18 19  1  0  0  0  0
 19 27  1  0  0  0  0
 19 20  2  0  0  0  0
  8  9  1  0  0  0  0
  9 17  1  0  0  0  0
  9 10  2  0  0  0  0
 28 31  1  0  0  0  0
 18 21  1  0  0  0  0
  8 11  1  0  0  0  0
 37 38  1  0  0  0  0
 27 28  1  0  0  0  0
 17 18  1  0  0  0  0
  7  8  1  0  0  0  0
  3  4  1  0  0  0  0
  3  5  1  0  0  0  0
  3  6  1  0  0  0  0
 31 34  1  0  0  0  0
 31 35  1  0  0  0  0
 31 36  1  0  0  0  0
 21 24  1  0  0  0  0
 21 25  1  0  0  0  0
 21 26  1  0  0  0  0
 11 14  1  0  0  0  0
 11 15  1  0  0  0  0
 11 16  1  0  0  0  0
 38 40  1  0  0  0  0
 38 41  1  0  0  0  0
 38 42  1  0  0  0  0
 28 33  1  0  0  0  0
 18 23  1  0  0  0  0
  8 13  1  0  0  0  0
 37 39  1  0  0  0  0
  7 12  1  0  0  0  0
 27 32  1  0  0  0  0
 17 22  1  0  0  0  0
M  END
$$$$

  -OEChem-05262214473D

 42 41  0     1  0  0  0  0  0999 V2000
   -5.7851   -0.9580    0.6237 C   0  0  0  0  0  0  0  0  0  0  0  0
   -6.2213    0.1296    0.2652 O   0  0  0  0  0  0  0  0  0  0  0  0
   -6.7088   -2.1270    0.7168 C   0  0  0  0  0  0  0  0  0  0  0  0
   -7.1713   -2.2193    1.7126 H   0  0  0  0  0  0  0  0  0  0  0  0
   -7.5511   -2.0547    0.0101 H   0  0  0  0  0  0  0  0  0  0  0  0
   -6.2485   -3.1083    0.5191 H   0  0  0  0  0  0  0  0  0  0  0  0
   -4.4733   -1.2411    0.9668 N   0  0  0  0  0  0  0  0  0  0  0  0
   -3.4203   -0.2603    0.9449 C   0  0  2  0  0  0  0  0  0  0  0  0
   -2.1242   -0.9699    0.5759 C   0  0  0  0  0  0  0  0  0  0  0  0
   -1.8694   -2.1225    0.9189 O   0  0  0  0  0  0  0  0  0  0  0  0
   -3.2916    0.4435    2.2868 C   0  0  0  0  0  0  0  0  0  0  0  0
   -4.2421   -2.1920    1.2489 H   0  0  0  0  0  0  0  0  0  0  0  0
   -3.6772    0.4622    0.1625 H   0  0  0  0  0  0  0  0  0  0  0  0
   -3.0345   -0.2644    3.0832 H   0  0  0  0  0  0  0  0  0  0  0  0
   -2.5093    1.2092    2.2599 H   0  0  0  0  0  0  0  0  0  0  0  0
   -4.2338    0.9283    2.5645 H   0  0  0  0  0  0  0  0  0  0  0  0
   -1.2626   -0.1515   -0.1463 N   0  0  0  0  0  0  0  0  0  0  0  0
    0.0431   -0.5785   -0.5755 C   0  0  2  0  0  0  0  0  0  0  0  0
   -0.0222   -0.8606   -2.0707 C   0  0  0  0  0  0  0  0  0  0  0  0
    0.1707    0.0019   -2.9251 O   0  0  0  0  0  0  0  0  0  0  0  0
    0.5022   -1.8095    0.1904 C   0  0  0  0  0  0  0  0  0  0  0  0
   -1.5766    0.7776   -0.4197 H   0  0  0  0  0  0  0  0  0  0  0  0
    0.7260    0.2579   -0.3906 H   0  0  0  0  0  0  0  0  0  0  0  0
   -0.1698   -2.6580    0.0174 H   0  0  0  0  0  0  0  0  0  0  0  0
    1.5074   -2.1161   -0.1172 H   0  0  0  0  0  0  0  0  0  0  0  0
    0.5200   -1.6139    1.2680 H   0  0  0  0  0  0  0  0  0  0  0  0
   -0.3641   -2.1806   -2.3434 N   0  0  0  0  0  0  0  0  0  0  0  0
   -0.5309   -2.6834   -3.6816 C   0  0  2  0  0  0  0  0  0  0  0  0
   -1.6025   -3.7650   -3.6475 C   0  0  0  0  0  0  0  0  0  0  0  0
   -1.7600   -4.5234   -2.6930 O   0  0  0  0  0  0  0  0  0  0  0  0
    0.7761   -3.2304   -4.2340 C   0  0  0  0  0  0  0  0  0  0  0  0
   -0.4655   -2.8348   -1.5698 H   0  0  0  0  0  0  0  0  0  0  0  0
   -0.8778   -1.8439   -4.2939 H   0  0  0  0  0  0  0  0  0  0  0  0
    1.1393   -4.0723   -3.6334 H   0  0  0  0  0  0  0  0  0  0  0  0
    0.6542   -3.5864   -5.2623 H   0  0  0  0  0  0  0  0  0  0  0  0
    1.5540   -2.4593   -4.2300 H   0  0  0  0  0  0  0  0  0  0  0  0
   -2.3343   -3.8120   -4.8258 N   0  0  0  0  0  0  0  0  0  0  0  0
   -3.3807   -4.7806   -5.0557 C   0  0  0  0  0  0  0  0  0  0  0  0
   -2.1628   -3.1190   -5.5485 H   0  0  0  0  0  0  0  0  0  0  0  0
   -2.9601   -5.6626   -5.5609 H   0  0  0  0  0  0  0  0  0  0  0  0
   -3.8178   -5.0834   -4.0928 H   0  0  0  0  0  0  0  0  0  0  0  0
   -4.1615   -4.3335   -5.6884 H   0  0  0  0  0  0  0  0  0  0  0  0
  1  3  1  0  0  0  0
  1  7  1  0  0  0  0
  1  2  2  0  0  0  0
 28 29  1  0  0  0  0
 29 37  1  0  0  0  0
 29 30  2  0  0  0  0
 18 19  1  0  0  0  0
 19 27  1  0  0  0  0
 19 20  2  0  0  0  0
  8  9  1  0  0  0  0
  9 17  1  0  0  0  0
  9 10  2  0  0  0  0
 28 31  1  0  0  0  0
 18 21  1  0  0  0  0
  8 11  1  0  0  0  0
 37 38  1  0  0  0  0
 27 28  1  0  0  0  0
 17 18  1  0  0  0  0
  7  8  1  0  0  0  0
  3  4  1  0  0  0  0
  3  5  1  0  0  0  0
  3  6  1  0  0  0  0
 31 34  1  0  0  0  0
 31 35  1  0  0  0  0
 31 36  1  0  0  0  0
 21 24  1  0  0  0  0
 21 25  1  0  0  0  0
 21 26  1  0  0  0  0
 11 14  1  0  0  0  0
 11 15  1  0  0  0  0
 11 16  1  0  0  0  0
 38 40  1  0  0  0  0
 38 41  1  0  0  0  0
 38 42  1  0  0  0  0
 28 33  1  0  0  0  0
 18 23  1  0  0  0  0
  8 13  1  0  0  0  0
 37 39  1  0  0  0  0
  7 12  1  0  0  0  0
 27 32  1  0  0  0  0
 17 22  1  0  0  0  0
M  END
$$$$

  -OEChem-05262214473D

 42 41  0     1  0  0  0  0  0999 V2000
   -5.7851   -0.9580    0.6237 C   0  0  0  0  0  0  0  0  0  0  0  0
   -6.2213    0.1296    0.2652 O   0  0  0  0  0  0  0  0  0  0  0  0
   -6.7088   -2.1270    0.7168 C   0  0  0  0  0  0  0  0  0  0  0  0
   -7.1713   -2.2193    1.7126 H   0  0  0  0  0  0  0  0  0  0  0  0
   -7.5511   -2.0547    0.0101 H   0  0  0  0  0  0  0  0  0  0  0  0
   -6.2485   -3.1083    0.5191 H   0  0  0  0  0  0  0  0  0  0  0  0
   -4.4733   -1.2411    0.9668 N   0  0  0  0  0  0  0  0  0  0  0  0
   -3.4203   -0.2603    0.9449 C   0  0  2  0  0  0  0  0  0  0  0  0
   -2.1242   -0.9699    0.5759 C   0  0  0  0  0  0  0  0  0  0  0  0
   -1.8694   -2.1225    0.9189 O   0  0  0  0  0  0  0  0  0  0  0  0
   -3.2916    0.4435    2.2868 C   0  0  0  0  0  0  0  0  0  0  0  0
   -4.2421   -2.1920    1.2489 H   0  0  0  0  0  0  0  0  0  0  0  0
   -3.6772    0.4622    0.1625 H   0  0  0  0  0  0  0  0  0  0  0  0
   -3.0345   -0.2644    3.0832 H   0  0  0  0  0  0  0  0  0  0  0  0
   -2.5093    1.2092    2.2599 H   0  0  0  0  0  0  0  0  0  0  0  0
   -4.2338    0.9283    2.5645 H   0  0  0  0  0  0  0  0  0  0  0  0
   -1.2626   -0.1515   -0.1463 N   0  0  0  0  0  0  0  0  0  0  0  0
    0.0431   -0.5785   -0.5755 C   0  0  2  0  0  0  0  0  0  0  0  0
   -0.0222   -0.8606   -2.0707 C   0  0  0  0  0  0  0  0  0  0  0  0
    0.4232   -0.0902   -2.9188 O   0  0  0  0  0  0  0  0  0  0  0  0
    0.5022   -1.8095    0.1904 C   0  0  0  0  0  0  0  0  0  0  0  0
   -1.5766    0.7776   -0.4197 H   0  0  0  0  0  0  0  0  0  0  0  0
    0.7260    0.2579   -0.3906 H   0  0  0  0  0  0  0  0  0  0  0  0
   -0.1698   -2.6580    0.0174 H   0  0  0  0  0  0  0  0  0  0  0  0
    1.5074   -2.1161   -0.1172 H   0  0  0  0  0  0  0  0  0  0  0  0
    0.5200   -1.6139    1.2680 H   0  0  0  0  0  0  0  0  0  0  0  0
   -0.6756   -2.0551   -2.3534 N   0  0  0  0  0  0  0  0  0  0  0  0
   -0.9023   -2.5222   -3.6958 C   0  0  2  0  0  0  0  0  0  0  0  0
   -2.2142   -3.2956   -3.7093 C   0  0  0  0  0  0  0  0  0  0  0  0
   -2.6037   -3.9726   -2.7601 O   0  0  0  0  0  0  0  0  0  0  0  0
    0.2468   -3.3925   -4.1803 C   0  0  0  0  0  0  0  0  0  0  0  0
   -0.9759   -2.6486   -1.5826 H   0  0  0  0  0  0  0  0  0  0  0  0
   -0.9954   -1.6328   -4.3286 H   0  0  0  0  0  0  0  0  0  0  0  0
    0.3556   -4.2885   -3.5584 H   0  0  0  0  0  0  0  0  0  0  0  0
    0.0863   -3.7236   -5.2116 H   0  0  0  0  0  0  0  0  0  0  0  0
    1.1942   -2.8441   -4.1417 H   0  0  0  0  0  0  0  0  0  0  0  0
   -2.8782   -3.1756   -4.9221 N   0  0  0  0  0  0  0  0  0  0  0  0
   -4.1247   -3.8508   -5.1986 C   0  0  0  0  0  0  0  0  0  0  0  0
   -2.5027   -2.5615   -5.6388 H   0  0  0  0  0  0  0  0  0  0  0  0
   -3.9193   -4.8192   -5.6781 H   0  0  0  0  0  0  0  0  0  0  0  0
   -4.6688   -4.0160   -4.2570 H   0  0  0  0  0  0  0  0  0  0  0  0
   -4.7359   -3.2311   -5.8713 H   0  0  0  0  0  0  0  0  0  0  0  0
  1  3  1  0  0  0  0
  1  7  1  0  0  0  0
  1  2  2  0  0  0  0
 28 29  1  0  0  0  0
 29 37  1  0  0  0  0
 29 30  2  0  0  0  0
 18 19  1  0  0  0  0
 19 27  1  0  0  0  0
 19 20  2  0  0  0  0
  8  9  1  0  0  0  0
  9 17  1  0  0  0  0
  9 10  2  0  0  0  0
 28 31  1  0  0  0  0
 18 21  1  0  0  0  0
  8 11  1  0  0  0  0
 37 38  1  0  0  0  0
 27 28  1  0  0  0  0
 17 18  1  0  0  0  0
  7  8  1  0  0  0  0
  3  4  1  0  0  0  0
  3  5  1  0  0  0  0
  3  6  1  0  0  0  0
 31 34  1  0  0  0  0
 31 35  1  0  0  0  0
 31 36  1  0  0  0  0
 21 24  1  0  0  0  0
 21 25  1  0  0  0  0
 21 26  1  0  0  0  0
 11 14  1  0  0  0  0
 11 15  1  0  0  0  0
 11 16  1  0  0  0  0
 38 40  1  0  0  0  0
 38 41  1  0  0  0  0
 38 42  1  0  0  0  0
 28 33  1  0  0  0  0
 18 23  1  0  0  0  0
  8 13  1  0  0  0  0
 37 39  1  0  0  0  0
  7 12  1  0  0  0  0
 27 32  1  0  0  0  0
 17 22  1  0  0  0  0
M  END
$$$$

  -OEChem-05262214473D

 42 41  0     1  0  0  0  0  0999 V2000
   -5.7851   -0.9580    0.6237 C   0  0  0  0  0  0  0  0  0  0  0  0
   -6.2213    0.1296    0.2652 O   0  0  0  0  0  0  0  0  0  0  0  0
   -6.7088   -2.1270    0.7168 C   0  0  0  0  0  0  0  0  0  0  0  0
   -7.1713   -2.2193    1.7126 H   0  0  0  0  0  0  0  0  0  0  0  0
   -7.5511   -2.0547    0.0101 H   0  0  0  0  0  0  0  0  0  0  0  0
   -6.2485   -3.1083    0.5191 H   0  0  0  0  0  0  0  0  0  0  0  0
   -4.4733   -1.2411    0.9668 N   0  0  0  0  0  0  0  0  0  0  0  0
   -3.4203   -0.2603    0.9449 C   0  0  2  0  0  0  0  0  0  0  0  0
   -2.1242   -0.9699    0.5759 C   0  0  0  0  0  0  0  0  0  0  0  0
   -1.8694   -2.1225    0.9189 O   0  0  0  0  0  0  0  0  0  0  0  0
   -3.2916    0.4435    2.2868 C   0  0  0  0  0  0  0  0  0  0  0  0
   -4.2421   -2.1920    1.2489 H   0  0  0  0  0  0  0  0  0  0  0  0
   -3.6772    0.4622    0.1625 H   0  0  0  0  0  0  0  0  0  0  0  0
   -3.0345   -0.2644    3.0832 H   0  0  0  0  0  0  0  0  0  0  0  0
   -2.5093    1.2092    2.2599 H   0  0  0  0  0  0  0  0  0  0  0  0
   -4.2338    0.9283    2.5645 H   0  0  0  0  0  0  0  0  0  0  0  0
   -1.2626   -0.1515   -0.1463 N   0  0  0  0  0  0  0  0  0  0  0  0
    0.0431   -0.5785   -0.5755 C   0  0  2  0  0  0  0  0  0  0  0  0
   -0.0222   -0.8606   -2.0707 C   0  0  0  0  0  0  0  0  0  0  0  0
    0.6435   -0.2433   -2.8995 O   0  0  0  0  0  0  0  0  0  0  0  0
    0.5022   -1.8095    0.1904 C   0  0  0  0  0  0  0  0  0  0  0  0
   -1.5766    0.7776   -0.4197 H   0  0  0  0  0  0  0  0  0  0  0  0
    0.7260    0.2579   -0.3906 H   0  0  0  0  0  0  0  0  0  0  0  0
   -0.1698   -2.6580    0.0174 H   0  0  0  0  0  0  0  0  0  0  0  0
    1.5074   -2.1161   -0.1172 H   0  0  0  0  0  0  0  0  0  0  0  0
    0.5200   -1.6139    1.2680 H   0  0  0  0  0  0  0  0  0  0  0  0
   -0.9441   -1.8549   -2.3795 N   0  0  0  0  0  0  0  0  0  0  0  0
   -1.2195   -2.2722   -3.7291 C   0  0  2  0  0  0  0  0  0  0  0  0
   -2.6829   -2.6874   -3.8036 C   0  0  0  0  0  0  0  0  0  0  0  0
   -3.2754   -3.2269   -2.8714 O   0  0  0  0  0  0  0  0  0  0  0  0
   -0.3083   -3.4140   -4.1520 C   0  0  0  0  0  0  0  0  0  0  0  0
   -1.4210   -2.3393   -1.6215 H   0  0  0  0  0  0  0  0  0  0  0  0
   -1.0537   -1.3994   -4.3700 H   0  0  0  0  0  0  0  0  0  0  0  0
   -0.4601   -4.2974   -3.5211 H   0  0  0  0  0  0  0  0  0  0  0  0
   -0.4996   -3.7112   -5.1884 H   0  0  0  0  0  0  0  0  0  0  0  0
    0.7446   -3.1234   -4.0693 H   0  0  0  0  0  0  0  0  0  0  0  0
   -3.2374   -2.4239   -5.0483 N   0  0  0  0  0  0  0  0  0  0  0  0
   -4.6003   -2.7652   -5.3827 C   0  0  0  0  0  0  0  0  0  0  0  0
   -2.6851   -1.9376   -5.7485 H   0  0  0  0  0  0  0  0  0  0  0  0
   -4.6259   -3.7622   -5.8467 H   0  0  0  0  0  0  0  0  0  0  0  0
   -5.2117   -2.7706   -4.4683 H   0  0  0  0  0  0  0  0  0  0  0  0
   -5.0018   -2.0224   -6.0878 H   0  0  0  0  0  0  0  0  0  0  0  0
  1  3  1  0  0  0  0
  1  7  1  0  0  0  0
  1  2  2  0  0  0  0
 28 29  1  0  0  0  0
 29 37  1  0  0  0  0
 29 30  2  0  0  0  0
 18 19  1  0  0  0  0
 19 27  1  0  0  0  0
 19 20  2  0  0  0  0
  8  9  1  0  0  0  0
  9 17  1  0  0  0  0
  9 10  2  0  0  0  0
 28 31  1  0  0  0  0
 18 21  1  0  0  0  0
  8 11  1  0  0  0  0
 37 38  1  0  0  0  0
 27 28  1  0  0  0  0
 17 18  1  0  0  0  0
  7  8  1  0  0  0  0
  3  4  1  0  0  0  0
  3  5  1  0  0  0  0
  3  6  1  0  0  0  0
 31 34  1  0  0  0  0
 31 35  1  0  0  0  0
 31 36  1  0  0  0  0
 21 24  1  0  0  0  0
 21 25  1  0  0  0  0
 21 26  1  0  0  0  0
 11 14  1  0  0  0  0
 11 15  1  0  0  0  0
 11 16  1  0  0  0  0
 38 40  1  0  0  0  0
 38 41  1  0  0  0  0
 38 42  1  0  0  0  0
 28 33  1  0  0  0  0
 18 23  1  0  0  0  0
  8 13  1  0  0  0  0
 37 39  1  0  0  0  0
  7 12  1  0  0  0  0
 27 32  1  0  0  0  0
 17 22  1  0  0  0  0
M  END
$$$$

  -OEChem-05262214473D

 42 41  0     1  0  0  0  0  0999 V2000
   -5.7851   -0.9580    0.6237 C   0  0  0  0  0  0  0  0  0  0  0  0
   -6.2213    0.1296    0.2652 O   0  0  0  0  0  0  0  0  0  0  0  0
   -6.7088   -2.1270    0.7168 C   0  0  0  0  0  0  0  0  0  0  0  0
   -7.1713   -2.2193    1.7126 H   0  0  0  0  0  0  0  0  0  0  0  0
   -7.5511   -2.0547    0.0101 H   0  0  0  0  0  0  0  0  0  0  0  0
   -6.2485   -3.1083    0.5191 H   0  0  0  0  0  0  0  0  0  0  0  0
   -4.4733   -1.2411    0.9668 N   0  0  0  0  0  0  0  0  0  0  0  0
   -3.4203   -0.2603    0.9449 C   0  0  2  0  0  0  0  0  0  0  0  0
   -2.1242   -0.9699    0.5759 C   0  0  0  0  0  0  0  0  0  0  0  0
   -1.8694   -2.1225    0.9189 O   0  0  0  0  0  0  0  0  0  0  0  0
   -3.2916    0.4435    2.2868 C   0  0  0  0  0  0  0  0  0  0  0  0
   -4.2421   -2.1920    1.2489 H   0  0  0  0  0  0  0  0  0  0  0  0
   -3.6772    0.4622    0.1625 H   0  0  0  0  0  0  0  0  0  0  0  0
   -3.0345   -0.2644    3.0832 H   0  0  0  0  0  0  0  0  0  0  0  0
   -2.5093    1.2092    2.2599 H   0  0  0  0  0  0  0  0  0  0  0  0
   -4.2338    0.9283    2.5645 H   0  0  0  0  0  0  0  0  0  0  0  0
   -1.2626   -0.1515   -0.1463 N   0  0  0  0  0  0  0  0  0  0  0  0
    0.0431   -0.5785   -0.5755 C   0  0  2  0  0  0  0  0  0  0  0  0
   -0.0222   -0.8606   -2.0707 C   0  0  0  0  0  0  0  0  0  0  0  0
    0.8164   -0.4469   -2.8687 O   0  0  0  0  0  0  0  0  0  0  0  0
    0.5022   -1.8095    0.1904 C   0  0  0  0  0  0  0  0  0  0  0  0
   -1.5766    0.7776   -0.4197 H   0  0  0  0  0  0  0  0  0  0  0  0
    0.7260    0.2579   -0.3906 H   0  0  0  0  0  0  0  0  0  0  0  0
   -0.1698   -2.6580    0.0174 H   0  0  0  0  0  0  0  0  0  0  0  0
    1.5074   -2.1161   -0.1172 H   0  0  0  0  0  0  0  0  0  0  0  0
    0.5200   -1.6139    1.2680 H   0  0  0  0  0  0  0  0  0  0  0  0
   -1.1513   -1.5935   -2.4198 N   0  0  0  0  0  0  0  0  0  0  0  0
   -1.4607   -1.9505   -3.7792 C   0  0  2  0  0  0  0  0  0  0  0  0
   -2.9764   -1.9819   -3.9239 C   0  0  0  0  0  0  0  0  0  0  0  0
   -3.7294   -2.3371   -3.0195 O   0  0  0  0  0  0  0  0  0  0  0  0
   -0.8513   -3.2933   -4.1510 C   0  0  0  0  0  0  0  0  0  0  0  0
   -1.7704   -1.9278   -1.6839 H   0  0  0  0  0  0  0  0  0  0  0  0
   -1.0488   -1.1596   -4.4155 H   0  0  0  0  0  0  0  0  0  0  0  0
   -1.2519   -4.0982   -3.5241 H   0  0  0  0  0  0  0  0  0  0  0  0
   -1.0635   -3.5502   -5.1941 H   0  0  0  0  0  0  0  0  0  0  0  0
    0.2359   -3.2782   -4.0179 H   0  0  0  0  0  0  0  0  0  0  0  0
   -3.3872   -1.6078   -5.1957 N   0  0  0  0  0  0  0  0  0  0  0  0
   -4.7750   -1.5977   -5.5953 C   0  0  0  0  0  0  0  0  0  0  0  0
   -2.6974   -1.2899   -5.8702 H   0  0  0  0  0  0  0  0  0  0  0  0
   -5.0318   -2.5635   -6.0551 H   0  0  0  0  0  0  0  0  0  0  0  0
   -5.4096   -1.4320   -4.7122 H   0  0  0  0  0  0  0  0  0  0  0  0
   -4.9411   -0.7897   -6.3230 H   0  0  0  0  0  0  0  0  0  0  0  0
  1  3  1  0  0  0  0
  1  7  1  0  0  0  0
  1  2  2  0  0  0  0
 28 29  1  0  0  0  0
 29 37  1  0  0  0  0
 29 30  2  0  0  0  0
 18 19  1  0  0  0  0
 19 27  1  0  0  0  0
 19 20  2  0  0  0  0
  8  9  1  0  0  0  0
  9 17  1  0  0  0  0
  9 10  2  0  0  0  0
 28 31  1  0  0  0  0
 18 21  1  0  0  0  0
  8 11  1  0  0  0  0
 37 38  1  0  0  0  0
 27 28  1  0  0  0  0
 17 18  1  0  0  0  0
  7  8  1  0  0  0  0
  3  4  1  0  0  0  0
  3  5  1  0  0  0  0
  3  6  1  0  0  0  0
 31 34  1  0  0  0  0
 31 35  1  0  0  0  0
 31 36  1  0  0  0  0
 21 24  1  0  0  0  0
 21 25  1  0  0  0  0
 21 26  1  0  0  0  0
 11 14  1  0  0  0  0
 11 15  1  0  0  0  0
 11 16  1  0  0  0  0
 38 40  1  0  0  0  0
 38 41  1  0  0  0  0
 38 42  1  0  0  0  0
 28 33  1  0  0  0  0
 18 23  1  0  0  0  0
  8 13  1  0  0  0  0
 37 39  1  0  0  0  0
  7 12  1  0  0  0  0
 27 32  1  0  0  0  0
 17 22  1  0  0  0  0
M  END
$$$$

  -OEChem-05262214473D

 42 41  0     1  0  0  0  0  0999 V2000
   -5.7851   -0.9580    0.6237 C   0  0  0  0  0  0  0  0  0  0  0  0
   -6.2213    0.1296    0.2652 O   0  0  0  0  0  0  0  0  0  0  0  0
   -6.7088   -2.1270    0.7168 C   0  0  0  0  0  0  0  0  0  0  0  0
   -7.1713   -2.2193    1.7126 H   0  0  0  0  0  0  0  0  0  0  0  0
   -7.5511   -2.0547    0.0101 H   0  0  0  0  0  0  0  0  0  0  0  0
   -6.2485   -3.1083    0.5191 H   0  0  0  0  0  0  0  0  0  0  0  0
   -4.4733   -1.2411    0.9668 N   0  0  0  0  0  0  0  0  0  0  0  0
   -3.4203   -0.2603    0.9449 C   0  0  2  0  0  0  0  0  0  0  0  0
   -2.1242   -0.9699    0.5759 C   0  0  0  0  0  0  0  0  0  0  0  0
   -1.8694   -2.1225    0.9189 O   0  0  0  0  0  0  0  0  0  0  0  0
   -3.2916    0.4435    2.2868 C   0  0  0  0  0  0  0  0  0  0  0  0
   -4.2421   -2.1920    1.2489 H   0  0  0  0  0  0  0  0  0  0  0  0
   -3.6772    0.4622    0.1625 H   0  0  0  0  0  0  0  0  0  0  0  0
   -3.0345   -0.2644    3.0832 H   0  0  0  0  0  0  0  0  0  0  0  0
   -2.5093    1.2092    2.2599 H   0  0  0  0  0  0  0  0  0  0  0  0
   -4.2338    0.9283    2.5645 H   0  0  0  0  0  0  0  0  0  0  0  0
   -1.2626   -0.1515   -0.1463 N   0  0  0  0  0  0  0  0  0  0  0  0
    0.0431   -0.5785   -0.5755 C   0  0  2  0  0  0  0  0  0  0  0  0
   -0.0222   -0.8606   -2.0707 C   0  0  0  0  0  0  0  0  0  0  0  0
    0.9302   -0.6872   -2.8283 O   0  0  0  0  0  0  0  0  0  0  0  0
    0.5022   -1.8095    0.1904 C   0  0  0  0  0  0  0  0  0  0  0  0
   -1.5766    0.7776   -0.4197 H   0  0  0  0  0  0  0  0  0  0  0  0
    0.7260    0.2579   -0.3906 H   0  0  0  0  0  0  0  0  0  0  0  0
   -0.1698   -2.6580    0.0174 H   0  0  0  0  0  0  0  0  0  0  0  0
    1.5074   -2.1161   -0.1172 H   0  0  0  0  0  0  0  0  0  0  0  0
    0.5200   -1.6139    1.2680 H   0  0  0  0  0  0  0  0  0  0  0  0
   -1.2831   -1.2888   -2.4715 N   0  0  0  0  0  0  0  0  0  0  0  0
   -1.6095   -1.5791   -3.8428 C   0  0  2  0  0  0  0  0  0  0  0  0
   -3.0750   -1.2272   -4.0620 C   0  0  0  0  0  0  0  0  0  0  0  0
   -3.9348   -1.3640   -3.1941 O   0  0  0  0  0  0  0  0  0  0  0  0
   -1.3451   -3.0388   -4.1775 C   0  0  0  0  0  0  0  0  0  0  0  0
   -2.0004   -1.4423   -1.7655 H   0  0  0  0  0  0  0  0  0  0  0  0
   -0.9809   -0.9298   -4.4618 H   0  0  0  0  0  0  0  0  0  0  0  0
   -1.9660   -3.7047   -3.5671 H   0  0  0  0  0  0  0  0  0  0  0  0
   -1.5669   -3.2514   -5.2285 H   0  0  0  0  0  0  0  0  0  0  0  0
   -0.2973   -3.2978   -3.9909 H   0  0  0  0  0  0  0  0  0  0  0  0
   -3.3174   -0.7832   -5.3544 N   0  0  0  0  0  0  0  0  0  0  0  0
   -4.6370   -0.4281   -5.8221 C   0  0  0  0  0  0  0  0  0  0  0  0
   -2.5389   -0.6625   -5.9955 H   0  0  0  0  0  0  0  0  0  0  0  0
   -5.1093   -1.3048   -6.2892 H   0  0  0  0  0  0  0  0  0  0  0  0
   -5.2488   -0.0914   -4.9722 H   0  0  0  0  0  0  0  0  0  0  0  0
   -4.5580    0.3830   -6.5610 H   0  0  0  0  0  0  0  0  0  0  0  0
  1  3  1  0  0  0  0
  1  7  1  0  0  0  0
  1  2  2  0  0  0  0
 28 29  1  0  0  0  0
 29 37  1  0  0  0  0
 29 30  2  0  0  0  0
 18 19  1  0  0  0  0
 19 27  1  0  0  0  0
 19 20  2  0  0  0  0
  8  9  1  0  0  0  0
  9 17  1  0  0  0  0
  9 10  2  0  0  0  0
 28 31  1  0  0  0  0
 18 21  1  0  0  0  0
  8 11  1  0  0  0  0
 37 38  1  0  0  0  0
 27 28  1  0  0  0  0
 17 18  1  0  0  0  0
  7  8  1  0  0  0  0
  3  4  1  0  0  0  0
  3  5  1  0  0  0  0
  3  6  1  0  0  0  0
 31 34  1  0  0  0  0
 31 35  1  0  0  0  0
 31 36  1  0  0  0  0
 21 24  1  0  0  0  0
 21 25  1  0  0  0  0
 21 26  1  0  0  0  0
 11 14  1  0  0  0  0
 11 15  1  0  0  0  0
 11 16  1  0  0  0  0
 38 40  1  0  0  0  0
 38 41  1  0  0  0  0
 38 42  1  0  0  0  0
 28 33  1  0  0  0  0
 18 23  1  0  0  0  0
  8 13  1  0  0  0  0
 37 39  1  0  0  0  0
  7 12  1  0  0  0  0
 27 32  1  0  0  0  0
 17 22  1  0  0  0  0
M  END
$$$$

  -OEChem-05262214473D

 42 41  0     1  0  0  0  0  0999 V2000
   -5.7851   -0.9580    0.6237 C   0  0  0  0  0  0  0  0  0  0  0  0
   -6.2213    0.1296    0.2652 O   0  0  0  0  0  0  0  0  0  0  0  0
   -6.7088   -2.1270    0.7168 C   0  0  0  0  0  0  0  0  0  0  0  0
   -7.1713   -2.2193    1.7126 H   0  0  0  0  0  0  0  0  0  0  0  0
   -7.5511   -2.0547    0.0101 H   0  0  0  0  0  0  0  0  0  0  0  0
   -6.2485   -3.1083    0.5191 H   0  0  0  0  0  0  0  0  0  0  0  0
   -4.4733   -1.2411    0.9668 N   0  0  0  0  0  0  0  0  0  0  0  0
   -3.4203   -0.2603    0.9449 C   0  0  2  0  0  0  0  0  0  0  0  0
   -2.1242   -0.9699    0.5759 C   0  0  0  0  0  0  0  0  0  0  0  0
   -1.8694   -2.1225    0.9189 O   0  0  0  0  0  0  0  0  0  0  0  0
   -3.2916    0.4435    2.2868 C   0  0  0  0  0  0  0  0  0  0  0  0
   -4.2421   -2.1920    1.2489 H   0  0  0  0  0  0  0  0  0  0  0  0
   -3.6772    0.4622    0.1625 H   0  0  0  0  0  0  0  0  0  0  0  0
   -3.0345   -0.2644    3.0832 H   0  0  0  0  0  0  0  0  0  0  0  0
   -2.5093    1.2092    2.2599 H   0  0  0  0  0  0  0  0  0  0  0  0
   -4.2338    0.9283    2.5645 H   0  0  0  0  0  0  0  0  0  0  0  0
   -1.2626   -0.1515   -0.1463 N   0  0  0  0  0  0  0  0  0  0  0  0
    0.0431   -0.5785   -0.5755 C   0  0  2  0  0  0  0  0  0  0  0  0
   -0.0222   -0.8606   -2.0707 C   0  0  0  0  0  0  0  0  0  0  0  0
    0.9772   -0.9478   -2.7812 O   0  0  0  0  0  0  0  0  0  0  0  0
    0.5022   -1.8095    0.1904 C   0  0  0  0  0  0  0  0  0  0  0  0
   -1.5766    0.7776   -0.4197 H   0  0  0  0  0  0  0  0  0  0  0  0
    0.7260    0.2579   -0.3906 H   0  0  0  0  0  0  0  0  0  0  0  0
   -0.1698   -2.6580    0.0174 H   0  0  0  0  0  0  0  0  0  0  0  0
    1.5074   -2.1161   -0.1172 H   0  0  0  0  0  0  0  0  0  0  0  0
    0.5200   -1.6139    1.2680 H   0  0  0  0  0  0  0  0  0  0  0  0
   -1.3305   -0.9616   -2.5312 N   0  0  0  0  0  0  0  0  0  0  0  0
   -1.6559   -1.1832   -3.9155 C   0  0  2  0  0  0  0  0  0  0  0  0
   -2.9718   -0.4747   -4.2085 C   0  0  0  0  0  0  0  0  0  0  0  0
   -3.8775   -0.3737   -3.3835 O   0  0  0  0  0  0  0  0  0  0  0  0
   -1.7562   -2.6678   -4.2295 C   0  0  0  0  0  0  0  0  0  0  0  0
   -2.0953   -0.9157   -1.8607 H   0  0  0  0  0  0  0  0  0  0  0  0
   -0.8547   -0.7255   -4.5059 H   0  0  0  0  0  0  0  0  0  0  0  0
   -2.5538   -3.1436   -3.6473 H   0  0  0  0  0  0  0  0  0  0  0  0
   -1.9756   -2.8353   -5.2892 H   0  0  0  0  0  0  0  0  0  0  0  0
   -0.8186   -3.1810   -3.9902 H   0  0  0  0  0  0  0  0  0  0  0  0
   -3.0330   -0.0061   -5.5134 N   0  0  0  0  0  0  0  0  0  0  0  0
   -4.1955    0.6642   -6.0475 C   0  0  0  0  0  0  0  0  0  0  0  0
   -2.2204   -0.0981   -6.1160 H   0  0  0  0  0  0  0  0  0  0  0  0
   -4.8530   -0.0720   -6.5330 H   0  0  0  0  0  0  0  0  0  0  0  0
   -4.7404    1.1597   -5.2305 H   0  0  0  0  0  0  0  0  0  0  0  0
   -3.8785    1.4157   -6.7856 H   0  0  0  0  0  0  0  0  0  0  0  0
  1  3  1  0  0  0  0
  1  7  1  0  0  0  0
  1  2  2  0  0  0  0
 28 29  1  0  0  0  0
 29 37  1  0  0  0  0
 29 30  2  0  0  0  0
 18 19  1  0  0  0  0
 19 27  1  0  0  0  0
 19 20  2  0  0  0  0
  8  9  1  0  0  0  0
  9 17  1  0  0  0  0
  9 10  2  0  0  0  0
 28 31  1  0  0  0  0
 18 21  1  0  0  0  0
  8 11  1  0  0  0  0
 37 38  1  0  0  0  0
 27 28  1  0  0  0  0
 17 18  1  0  0  0  0
  7  8  1  0  0  0  0
  3  4  1  0  0  0  0
  3  5  1  0  0  0  0
  3  6  1  0  0  0  0
 31 34  1  0  0  0  0
 31 35  1  0  0  0  0
 31 36  1  0  0  0  0
 21 24  1  0  0  0  0
 21 25  1  0  0  0  0
 21 26  1  0  0  0  0
 11 14  1  0  0  0  0
 11 15  1  0  0  0  0
 11 16  1  0  0  0  0
 38 40  1  0  0  0  0
 38 41  1  0  0  0  0
 38 42  1  0  0  0  0
 28 33  1  0  0  0  0
 18 23  1  0  0  0  0
  8 13  1  0  0  0  0
 37 39  1  0  0  0  0
  7 12  1  0  0  0  0
 27 32  1  0  0  0  0
 17 22  1  0  0  0  0
M  END
$$$$

  -OEChem-05262214473D

 42 41  0     1  0  0  0  0  0999 V2000
   -5.7851   -0.9580    0.6237 C   0  0  0  0  0  0  0  0  0  0  0  0
   -6.2213    0.1296    0.2652 O   0  0  0  0  0  0  0  0  0  0  0  0
   -6.7088   -2.1270    0.7168 C   0  0  0  0  0  0  0  0  0  0  0  0
   -7.1713   -2.2193    1.7126 H   0  0  0  0  0  0  0  0  0  0  0  0
   -7.5511   -2.0547    0.0101 H   0  0  0  0  0  0  0  0  0  0  0  0
   -6.2485   -3.1083    0.5191 H   0  0  0  0  0  0  0  0  0  0  0  0
   -4.4733   -1.2411    0.9668 N   0  0  0  0  0  0  0  0  0  0  0  0
   -3.4203   -0.2603    0.9449 C   0  0  2  0  0  0  0  0  0  0  0  0
   -2.1242   -0.9699    0.5759 C   0  0  0  0  0  0  0  0  0  0  0  0
   -1.8694   -2.1225    0.9189 O   0  0  0  0  0  0  0  0  0  0  0  0
   -3.2916    0.4435    2.2868 C   0  0  0  0  0  0  0  0  0  0  0  0
   -4.2421   -2.1920    1.2489 H   0  0  0  0  0  0  0  0  0  0  0  0
   -3.6772    0.4622    0.1625 H   0  0  0  0  0  0  0  0  0  0  0  0
   -3.0345   -0.2644    3.0832 H   0  0  0  0  0  0  0  0  0  0  0  0
   -2.5093    1.2092    2.2599 H   0  0  0  0  0  0  0  0  0  0  0  0
   -4.2338    0.9283    2.5645 H   0  0  0  0  0  0  0  0  0  0  0  0
   -1.2626   -0.1515   -0.1463 N   0  0  0  0  0  0  0  0  0  0  0  0
    0.0431   -0.5785   -0.5755 C   0  0  2  0  0  0  0  0  0  0  0  0
   -0.0222   -0.8606   -2.0707 C   0  0  0  0  0  0  0  0  0  0  0  0
    0.9540   -1.2108   -2.7305 O   0  0  0  0  0  0  0  0  0  0  0  0
    0.5022   -1.8095    0.1904 C   0  0  0  0  0  0  0  0  0  0  0  0
   -1.5766    0.7776   -0.4197 H   0  0  0  0  0  0  0  0  0  0  0  0
    0.7260    0.2579   -0.3906 H   0  0  0  0  0  0  0  0  0  0  0  0
   -0.1698   -2.6580    0.0174 H   0  0  0  0  0  0  0  0  0  0  0  0
    1.5074   -2.1161   -0.1172 H   0  0  0  0  0  0  0  0  0  0  0  0
    0.5200   -1.6139    1.2680 H   0  0  0  0  0  0  0  0  0  0  0  0
   -1.2903   -0.6342   -2.5947 N   0  0  0  0  0  0  0  0  0  0  0  0
   -1.5966   -0.7898   -3.9923 C   0  0  2  0  0  0  0  0  0  0  0  0
   -2.6739    0.2243   -4.3534 C   0  0  0  0  0  0  0  0  0  0  0  0
   -3.5615    0.5661   -3.5746 O   0  0  0  0  0  0  0  0  0  0  0  0
   -2.0565   -2.2056   -4.3036 C   0  0  0  0  0  0  0  0  0  0  0  0
   -2.0486   -0.3841   -1.9631 H   0  0  0  0  0  0  0  0  0  0  0  0
   -0.6787   -0.5608   -4.5447 H   0  0  0  0  0  0  0  0  0  0  0  0
   -2.9751   -2.4532   -3.7592 H   0  0  0  0  0  0  0  0  0  0  0  0
   -2.2618   -2.3301   -5.3720 H   0  0  0  0  0  0  0  0  0  0  0  0
   -1.2925   -2.9357   -4.0158 H   0  0  0  0  0  0  0  0  0  0  0  0
   -2.5531    0.6704   -5.6621 N   0  0  0  0  0  0  0  0  0  0  0  0
   -3.4808    1.6045   -6.2561 C   0  0  0  0  0  0  0  0  0  0  0  0
   -1.7635    0.3648   -6.2233 H   0  0  0  0  0  0  0  0  0  0  0  0
   -4.2806    1.0511   -6.7700 H   0  0  0  0  0  0  0  0  0  0  0  0
   -3.9191    2.2362   -5.4695 H   0  0  0  0  0  0  0  0  0  0  0  0
   -2.9491    2.2380   -6.9813 H   0  0  0  0  0  0  0  0  0  0  0  0
  1  3  1  0  0  0  0
  1  7  1  0  0  0  0
  1  2  2  0  0  0  0
 28 29  1  0  0  0  0
 29 37  1  0  0  0  0
 29 30  2  0  0  0  0
 18 19  1  0  0  0  0
 19 27  1  0  0  0  0
 19 20  2  0  0  0  0
  8  9  1  0  0  0  0
  9 17  1  0  0  0  0
  9 10  2  0  0  0  0
 28 31  1  0  0  0  0
 18 21  1  0  0  0  0
  8 11  1  0  0  0  0
 37 38  1  0  0  0  0
 27 28  1  0  0  0  0
 17 18  1  0  0  0  0
  7  8  1  0  0  0  0
  3  4  1  0  0  0  0
  3  5  1  0  0  0  0
  3  6  1  0  0  0  0
 31 34  1  0  0  0  0
 31 35  1  0  0  0  0
 31 36  1  0  0  0  0
 21 24  1  0  0  0  0
 21 25  1  0  0  0  0
 21 26  1  0  0  0  0
 11 14  1  0  0  0  0
 11 15  1  0  0  0  0
 11 16  1  0  0  0  0
 38 40  1  0  0  0  0
 38 41  1  0  0  0  0
 38 42  1  0  0  0  0
 28 33  1  0  0  0  0
 18 23  1  0  0  0  0
  8 13  1  0  0  0  0
 37 39  1  0  0  0  0
  7 12  1  0  0  0  0
 27 32  1  0  0  0  0
 17 22  1  0  0  0  0
M  END
$$$$

  -OEChem-05262214473D

 42 41  0     1  0  0  0  0  0999 V2000
   -5.7851   -0.9580    0.6237 C   0  0  0  0  0  0  0  0  0  0  0  0
   -6.2213    0.1296    0.2652 O   0  0  0  0  0  0  0  0  0  0  0  0
   -6.7088   -2.1270    0.7168 C   0  0  0  0  0  0  0  0  0  0  0  0
   -7.1713   -2.2193    1.7126 H   0  0  0  0  0  0  0  0  0  0  0  0
   -7.5511   -2.0547    0.0101 H   0  0  0  0  0  0  0  0  0  0  0  0
   -6.2485   -3.1083    0.5191 H   0  0  0  0  0  0  0  0  0  0  0  0
   -4.4733   -1.2411    0.9668 N   0  0  0  0  0  0  0  0  0  0  0  0
   -3.4203   -0.2603    0.9449 C   0  0  2  0  0  0  0  0  0  0  0  0
   -2.1242   -0.9699    0.5759 C   0  0  0  0  0  0  0  0  0  0  0  0
   -1.8694   -2.1225    0.9189 O   0  0  0  0  0  0  0  0  0  0  0  0
   -3.2916    0.4435    2.2868 C   0  0  0  0  0  0  0  0  0  0  0  0
   -4.2421   -2.1920    1.2489 H   0  0  0  0  0  0  0  0  0  0  0  0
   -3.6772    0.4622    0.1625 H   0  0  0  0  0  0  0  0  0  0  0  0
   -3.0345   -0.2644    3.0832 H   0  0  0  0  0  0  0  0  0  0  0  0
   -2.5093    1.2092    2.2599 H   0  0  0  0  0  0  0  0  0  0  0  0
   -4.2338    0.9283    2.5645 H   0  0  0  0  0  0  0  0  0  0  0  0
   -1.2626   -0.1515   -0.1463 N   0  0  0  0  0  0  0  0  0  0  0  0
    0.0431   -0.5785   -0.5755 C   0  0  2  0  0  0  0  0  0  0  0  0
   -0.0222   -0.8606   -2.0707 C   0  0  0  0  0  0  0  0  0  0  0  0
    0.8624   -1.4585   -2.6798 O   0  0  0  0  0  0  0  0  0  0  0  0
    0.5022   -1.8095    0.1904 C   0  0  0  0  0  0  0  0  0  0  0  0
   -1.5766    0.7776   -0.4197 H   0  0  0  0  0  0  0  0  0  0  0  0
    0.7260    0.2579   -0.3906 H   0  0  0  0  0  0  0  0  0  0  0  0
   -0.1698   -2.6580    0.0174 H   0  0  0  0  0  0  0  0  0  0  0  0
    1.5074   -2.1161   -0.1172 H   0  0  0  0  0  0  0  0  0  0  0  0
    0.5200   -1.6139    1.2680 H   0  0  0  0  0  0  0  0  0  0  0  0
   -1.1652   -0.3288   -2.6578 N   0  0  0  0  0  0  0  0  0  0  0  0
   -1.4357   -0.4258   -4.0680 C   0  0  2  0  0  0  0  0  0  0  0  0
   -2.2016    0.8222   -4.4869 C   0  0  0  0  0  0  0  0  0  0  0  0
   -3.0082    1.3915   -3.7546 O   0  0  0  0  0  0  0  0  0  0  0  0
   -2.2256   -1.6836   -4.3947 C   0  0  0  0  0  0  0  0  0  0  0  0
   -1.8635    0.1165   -2.0656 H   0  0  0  0  0  0  0  0  0  0  0  0
   -0.4651   -0.4468   -4.5755 H   0  0  0  0  0  0  0  0  0  0  0  0
   -3.2012   -1.6805   -3.8951 H   0  0  0  0  0  0  0  0  0  0  0  0
   -2.4059   -1.7704   -5.4713 H   0  0  0  0  0  0  0  0  0  0  0  0
   -1.6867   -2.5787   -4.0659 H   0  0  0  0  0  0  0  0  0  0  0  0
   -1.9105    1.2003   -5.7901 N   0  0  0  0  0  0  0  0  0  0  0  0
   -2.5414    2.3288   -6.4338 C   0  0  0  0  0  0  0  0  0  0  0  0
   -1.1994    0.6947   -6.3101 H   0  0  0  0  0  0  0  0  0  0  0  0
   -3.4309    1.9878   -6.9838 H   0  0  0  0  0  0  0  0  0  0  0  0
   -2.8408    3.0646   -5.6729 H   0  0  0  0  0  0  0  0  0  0  0  0
   -1.8330    2.7941   -7.1350 H   0  0  0  0  0  0  0  0  0  0  0  0
  1  3  1  0  0  0  0
  1  7  1  0  0  0  0
  1  2  2  0  0  0  0
 28 29  1  0  0  0  0
 29 37  1  0  0  0  0
 29 30  2  0  0  0  0
 18 19  1  0  0  0  0
 19 27  1  0  0  0  0
 19 20  2  0  0  0  0
  8  9  1  0  0  0  0
  9 17  1  0  0  0  0
  9 10  2  0  0  0  0
 28 31  1  0  0  0  0
 18 21  1  0  0  0  0
  8 11  1  0  0  0  0
 37 38  1  0  0  0  0
 27 28  1  0  0  0  0
 17 18  1  0  0  0  0
  7  8  1  0  0  0  0
  3  4  1  0  0  0  0
  3  5  1  0  0  0  0
  3  6  1  0  0  0  0
 31 34  1  0  0  0  0
 31 35  1  0  0  0  0
 31 36  1  0  0  0  0
 21 24  1  0  0  0  0
 21 25  1  0  0  0  0
 21 26  1  0  0  0  0
 11 14  1  0  0  0  0
 11 15  1  0  0  0  0
 11 16  1  0  0  0  0
 38 40  1  0  0  0  0
 38 41  1  0  0  0  0
 38 42  1  0  0  0  0
 28 33  1  0  0  0  0
 18 23  1  0  0  0  0
  8 13  1  0  0  0  0
 37 39  1  0  0  0  0
  7 12  1  0  0  0  0
 27 32  1  0  0  0  0
 17 22  1  0  0  0  0
M  END
$$$$

  -OEChem-05262214473D

 42 41  0     1  0  0  0  0  0999 V2000
   -5.7851   -0.9580    0.6237 C   0  0  0  0  0  0  0  0  0  0  0  0
   -6.2213    0.1296    0.2652 O   0  0  0  0  0  0  0  0  0  0  0  0
   -6.7088   -2.1270    0.7168 C   0  0  0  0  0  0  0  0  0  0  0  0
   -7.1713   -2.2193    1.7126 H   0  0  0  0  0  0  0  0  0  0  0  0
   -7.5511   -2.0547    0.0101 H   0  0  0  0  0  0  0  0  0  0  0  0
   -6.2485   -3.1083    0.5191 H   0  0  0  0  0  0  0  0  0  0  0  0
   -4.4733   -1.2411    0.9668 N   0  0  0  0  0  0  0  0  0  0  0  0
   -3.4203   -0.2603    0.9449 C   0  0  2  0  0  0  0  0  0  0  0  0
   -2.1242   -0.9699    0.5759 C   0  0  0  0  0  0  0  0  0  0  0  0
   -1.8694   -2.1225    0.9189 O   0  0  0  0  0  0  0  0  0  0  0  0
   -3.2916    0.4435    2.2868 C   0  0  0  0  0  0  0  0  0  0  0  0
   -4.2421   -2.1920    1.2489 H   0  0  0  0  0  0  0  0  0  0  0  0
   -3.6772    0.4622    0.1625 H   0  0  0  0  0  0  0  0  0  0  0  0
   -3.0345   -0.2644    3.0832 H   0  0  0  0  0  0  0  0  0  0  0  0
   -2.5093    1.2092    2.2599 H   0  0  0  0  0  0  0  0  0  0  0  0
   -4.2338    0.9283    2.5645 H   0  0  0  0  0  0  0  0  0  0  0  0
   -1.2626   -0.1515   -0.1463 N   0  0  0  0  0  0  0  0  0  0  0  0
    0.0431   -0.5785   -0.5755 C   0  0  2  0  0  0  0  0  0  0  0  0
   -0.0222   -0.8606   -2.0707 C   0  0  0  0  0  0  0  0  0  0  0  0
    0.7086   -1.6739   -2.6324 O   0  0  0  0  0  0  0  0  0  0  0  0
    0.5022   -1.8095    0.1904 C   0  0  0  0  0  0  0  0  0  0  0  0
   -1.5766    0.7776   -0.4197 H   0  0  0  0  0  0  0  0  0  0  0  0
    0.7260    0.2579   -0.3906 H   0  0  0  0  0  0  0  0  0  0  0  0
   -0.1698   -2.6580    0.0174 H   0  0  0  0  0  0  0  0  0  0  0  0
    1.5074   -2.1161   -0.1172 H   0  0  0  0  0  0  0  0  0  0  0  0
    0.5200   -1.6139    1.2680 H   0  0  0  0  0  0  0  0  0  0  0  0
   -0.9637   -0.0664   -2.7161 N   0  0  0  0  0  0  0  0  0  0  0  0
   -1.1841   -0.1159   -4.1375 C   0  0  2  0  0  0  0  0  0  0  0  0
   -1.5870    1.2782   -4.5998 C   0  0  0  0  0  0  0  0  0  0  0  0
   -2.2555    2.0462   -3.9110 O   0  0  0  0  0  0  0  0  0  0  0  0
   -2.2519   -1.1374   -4.4966 C   0  0  0  0  0  0  0  0  0  0  0  0
   -1.5525    0.5518   -2.1613 H   0  0  0  0  0  0  0  0  0  0  0  0
   -0.2283   -0.3914   -4.5963 H   0  0  0  0  0  0  0  0  0  0  0  0
   -3.2168   -0.8781   -4.0458 H   0  0  0  0  0  0  0  0  0  0  0  0
   -2.3981   -1.1943   -5.5804 H   0  0  0  0  0  0  0  0  0  0  0  0
   -1.9743   -2.1342   -4.1372 H   0  0  0  0  0  0  0  0  0  0  0  0
   -1.1491    1.5475   -5.8889 N   0  0  0  0  0  0  0  0  0  0  0  0
   -1.4415    2.7879   -6.5685 C   0  0  0  0  0  0  0  0  0  0  0  0
   -0.5666    0.8690   -6.3707 H   0  0  0  0  0  0  0  0  0  0  0  0
   -2.3619    2.6743   -7.1601 H   0  0  0  0  0  0  0  0  0  0  0  0
   -1.5789    3.5886   -5.8269 H   0  0  0  0  0  0  0  0  0  0  0  0
   -0.6062    3.0458   -7.2361 H   0  0  0  0  0  0  0  0  0  0  0  0
  1  3  1  0  0  0  0
  1  7  1  0  0  0  0
  1  2  2  0  0  0  0
 28 29  1  0  0  0  0
 29 37  1  0  0  0  0
 29 30  2  0  0  0  0
 18 19  1  0  0  0  0
 19 27  1  0  0  0  0
 19 20  2  0  0  0  0
  8  9  1  0  0  0  0
  9 17  1  0  0  0  0
  9 10  2  0  0  0  0
 28 31  1  0  0  0  0
 18 21  1  0  0  0  0
  8 11  1  0  0  0  0
 37 38  1  0  0  0  0
 27 28  1  0  0  0  0
 17 18  1  0  0  0  0
  7  8  1  0  0  0  0
  3  4  1  0  0  0  0
  3  5  1  0  0  0  0
  3  6  1  0  0  0  0
 31 34  1  0  0  0  0
 31 35  1  0  0  0  0
 31 36  1  0  0  0  0
 21 24  1  0  0  0  0
 21 25  1  0  0  0  0
 21 26  1  0  0  0  0
 11 14  1  0  0  0  0
 11 15  1  0  0  0  0
 11 16  1  0  0  0  0
 38 40  1  0  0  0  0
 38 41  1  0  0  0  0
 38 42  1  0  0  0  0
 28 33  1  0  0  0  0
 18 23  1  0  0  0  0
  8 13  1  0  0  0  0
 37 39  1  0  0  0  0
  7 12  1  0  0  0  0
 27 32  1  0  0  0  0
 17 22  1  0  0  0  0
M  END
$$$$

  -OEChem-05262214473D

 42 41  0     1  0  0  0  0  0999 V2000
   -5.7851   -0.9580    0.6237 C   0  0  0  0  0  0  0  0  0  0  0  0
   -6.2213    0.1296    0.2652 O   0  0  0  0  0  0  0  0  0  0  0  0
   -6.7088   -2.1270    0.7168 C   0  0  0  0  0  0  0  0  0  0  0  0
   -7.1713   -2.2193    1.7126 H   0  0  0  0  0  0  0  0  0  0  0  0
   -7.5511   -2.0547    0.0101 H   0  0  0  0  0  0  0  0  0  0  0  0
   -6.2485   -3.1083    0.5191 H   0  0  0  0  0  0  0  0  0  0  0  0
   -4.4733   -1.2411    0.9668 N   0  0  0  0  0  0  0  0  0  0  0  0
   -3.4203   -0.2603    0.9449 C   0  0  2  0  0  0  0  0  0  0  0  0
   -2.1242   -0.9699    0.5759 C   0  0  0  0  0  0  0  0  0  0  0  0
   -1.8694   -2.1225    0.9189 O   0  0  0  0  0  0  0  0  0  0  0  0
   -3.2916    0.4435    2.2868 C   0  0  0  0  0  0  0  0  0  0  0  0
   -4.2421   -2.1920    1.2489 H   0  0  0  0  0  0  0  0  0  0  0  0
   -3.6772    0.4622    0.1625 H   0  0  0  0  0  0  0  0  0  0  0  0
   -3.0345   -0.2644    3.0832 H   0  0  0  0  0  0  0  0  0  0  0  0
   -2.5093    1.2092    2.2599 H   0  0  0  0  0  0  0  0  0  0  0  0
   -4.2338    0.9283    2.5645 H   0  0  0  0  0  0  0  0  0  0  0  0
   -1.2626   -0.1515   -0.1463 N   0  0  0  0  0  0  0  0  0  0  0  0
    0.0431   -0.5785   -0.5755 C   0  0  2  0  0  0  0  0  0  0  0  0
   -0.0222   -0.8606   -2.0707 C   0  0  0  0  0  0  0  0  0  0  0  0
    0.5029   -1.8424   -2.5917 O   0  0  0  0  0  0  0  0  0  0  0  0
    0.5022   -1.8095    0.1904 C   0  0  0  0  0  0  0  0  0  0  0  0
   -1.5766    0.7776   -0.4197 H   0  0  0  0  0  0  0  0  0  0  0  0
    0.7260    0.2579   -0.3906 H   0  0  0  0  0  0  0  0  0  0  0  0
   -0.1698   -2.6580    0.0174 H   0  0  0  0  0  0  0  0  0  0  0  0
    1.5074   -2.1161   -0.1172 H   0  0  0  0  0  0  0  0  0  0  0  0
    0.5200   -1.6139    1.2680 H   0  0  0  0  0  0  0  0  0  0  0  0
   -0.6997    0.1353   -2.7657 N   0  0  0  0  0  0  0  0  0  0  0  0
   -0.8590    0.1188   -4.1960 C   0  0  2  0  0  0  0  0  0  0  0  0
   -0.8722    1.5613   -4.6844 C   0  0  0  0  0  0  0  0  0  0  0  0
   -1.3545    2.4856   -4.0332 O   0  0  0  0  0  0  0  0  0  0  0  0
   -2.1336   -0.6043   -4.6024 C   0  0  0  0  0  0  0  0  0  0  0  0
   -1.1370    0.8922   -2.2437 H   0  0  0  0  0  0  0  0  0  0  0  0
    0.0156   -0.3982   -4.6057 H   0  0  0  0  0  0  0  0  0  0  0  0
   -3.0207   -0.1009   -4.2010 H   0  0  0  0  0  0  0  0  0  0  0  0
   -2.2389   -0.6409   -5.6917 H   0  0  0  0  0  0  0  0  0  0  0  0
   -2.1357   -1.6325   -4.2248 H   0  0  0  0  0  0  0  0  0  0  0  0
   -0.3206    1.6882   -5.9516 N   0  0  0  0  0  0  0  0  0  0  0  0
   -0.2560    2.9503   -6.6509 C   0  0  0  0  0  0  0  0  0  0  0  0
    0.0918    0.8758   -6.4007 H   0  0  0  0  0  0  0  0  0  0  0  0
   -1.1465    3.0638   -7.2867 H   0  0  0  0  0  0  0  0  0  0  0  0
   -0.2195    3.7723   -5.9210 H   0  0  0  0  0  0  0  0  0  0  0  0
    0.6476    2.9761   -7.2777 H   0  0  0  0  0  0  0  0  0  0  0  0
  1  3  1  0  0  0  0
  1  7  1  0  0  0  0
  1  2  2  0  0  0  0
 28 29  1  0  0  0  0
 29 37  1  0  0  0  0
 29 30  2  0  0  0  0
 18 19  1  0  0  0  0
 19 27  1  0  0  0  0
 19 20  2  0  0  0  0
  8  9  1  0  0  0  0
  9 17  1  0  0  0  0
  9 10  2  0  0  0  0
 28 31  1  0  0  0  0
 18 21  1  0  0  0  0
  8 11  1  0  0  0  0
 37 38  1  0  0  0  0
 27 28  1  0  0  0  0
 17 18  1  0  0  0  0
  7  8  1  0  0  0  0
  3  4  1  0  0  0  0
  3  5  1  0  0  0  0
  3  6  1  0  0  0  0
 31 34  1  0  0  0  0
 31 35  1  0  0  0  0
 31 36  1  0  0  0  0
 21 24  1  0  0  0  0
 21 25  1  0  0  0  0
 21 26  1  0  0  0  0
 11 14  1  0  0  0  0
 11 15  1  0  0  0  0
 11 16  1  0  0  0  0
 38 40  1  0  0  0  0
 38 41  1  0  0  0  0
 38 42  1  0  0  0  0
 28 33  1  0  0  0  0
 18 23  1  0  0  0  0
  8 13  1  0  0  0  0
 37 39  1  0  0  0  0
  7 12  1  0  0  0  0
 27 32  1  0  0  0  0
 17 22  1  0  0  0  0
M  END
$$$$

  -OEChem-05262214473D

 42 41  0     1  0  0  0  0  0999 V2000
   -5.7851   -0.9580    0.6237 C   0  0  0  0  0  0  0  0  0  0  0  0
   -6.2213    0.1296    0.2652 O   0  0  0  0  0  0  0  0  0  0  0  0
   -6.7088   -2.1270    0.7168 C   0  0  0  0  0  0  0  0  0  0  0  0
   -7.1713   -2.2193    1.7126 H   0  0  0  0  0  0  0  0  0  0  0  0
   -7.5511   -2.0547    0.0101 H   0  0  0  0  0  0  0  0  0  0  0  0
   -6.2485   -3.1083    0.5191 H   0  0  0  0  0  0  0  0  0  0  0  0
   -4.4733   -1.2411    0.9668 N   0  0  0  0  0  0  0  0  0  0  0  0
   -3.4203   -0.2603    0.9449 C   0  0  2  0  0  0  0  0  0  0  0  0
   -2.1242   -0.9699    0.5759 C   0  0  0  0  0  0  0  0  0  0  0  0
   -1.8694   -2.1225    0.9189 O   0  0  0  0  0  0  0  0  0  0  0  0
   -3.2916    0.4435    2.2868 C   0  0  0  0  0  0  0  0  0  0  0  0
   -4.2421   -2.1920    1.2489 H   0  0  0  0  0  0  0  0  0  0  0  0
   -3.6772    0.4622    0.1625 H   0  0  0  0  0  0  0  0  0  0  0  0
   -3.0345   -0.2644    3.0832 H   0  0  0  0  0  0  0  0  0  0  0  0
   -2.5093    1.2092    2.2599 H   0  0  0  0  0  0  0  0  0  0  0  0
   -4.2338    0.9283    2.5645 H   0  0  0  0  0  0  0  0  0  0  0  0
   -1.2626   -0.1515   -0.1463 N   0  0  0  0  0  0  0  0  0  0  0  0
    0.0431   -0.5785   -0.5755 C   0  0  2  0  0  0  0  0  0  0  0  0
   -0.0222   -0.8606   -2.0707 C   0  0  0  0  0  0  0  0  0  0  0  0
    0.2596   -1.9524   -2.5603 O   0  0  0  0  0  0  0  0  0  0  0  0
    0.5022   -1.8095    0.1904 C   0  0  0  0  0  0  0  0  0  0  0  0
   -1.5766    0.7776   -0.4197 H   0  0  0  0  0  0  0  0  0  0  0  0
    0.7260    0.2579   -0.3906 H   0  0  0  0  0  0  0  0  0  0  0  0
   -0.1698   -2.6580    0.0174 H   0  0  0  0  0  0  0  0  0  0  0  0
    1.5074   -2.1161   -0.1172 H   0  0  0  0  0  0  0  0  0  0  0  0
    0.5200   -1.6139    1.2680 H   0  0  0  0  0  0  0  0  0  0  0  0
   -0.3910    0.2625   -2.8032 N   0  0  0  0  0  0  0  0  0  0  0  0
   -0.4826    0.2622   -4.2395 C   0  0  2  0  0  0  0  0  0  0  0  0
   -0.1056    1.6521   -4.7350 C   0  0  0  0  0  0  0  0  0  0  0  0
   -0.3668    2.6797   -4.1130 O   0  0  0  0  0  0  0  0  0  0  0  0
   -1.8789   -0.1206   -4.7048 C   0  0  0  0  0  0  0  0  0  0  0  0
   -0.6452    1.1145   -2.3071 H   0  0  0  0  0  0  0  0  0  0  0  0
    0.2498   -0.4668   -4.6030 H   0  0  0  0  0  0  0  0  0  0  0  0
   -2.6264    0.5984   -4.3502 H   0  0  0  0  0  0  0  0  0  0  0  0
   -1.9392   -0.1481   -5.7978 H   0  0  0  0  0  0  0  0  0  0  0  0
   -2.1600   -1.1079   -4.3227 H   0  0  0  0  0  0  0  0  0  0  0  0
    0.5183    1.6130   -5.9741 N   0  0  0  0  0  0  0  0  0  0  0  0
    0.9343    2.8050   -6.6755 C   0  0  0  0  0  0  0  0  0  0  0  0
    0.7310    0.7149   -6.3983 H   0  0  0  0  0  0  0  0  0  0  0  0
    0.1326    3.1298   -7.3550 H   0  0  0  0  0  0  0  0  0  0  0  0
    1.1447    3.6034   -5.9487 H   0  0  0  0  0  0  0  0  0  0  0  0
    1.8429    2.5898   -7.2571 H   0  0  0  0  0  0  0  0  0  0  0  0
  1  3  1  0  0  0  0
  1  7  1  0  0  0  0
  1  2  2  0  0  0  0
 28 29  1  0  0  0  0
 29 37  1  0  0  0  0
 29 30  2  0  0  0  0
 18 19  1  0  0  0  0
 19 27  1  0  0  0  0
 19 20  2  0  0  0  0
  8  9  1  0  0  0  0
  9 17  1  0  0  0  0
  9 10  2  0  0  0  0
 28 31  1  0  0  0  0
 18 21  1  0  0  0  0
  8 11  1  0  0  0  0
 37 38  1  0  0  0  0
 27 28  1  0  0  0  0
 17 18  1  0  0  0  0
  7  8  1  0  0  0  0
  3  4  1  0  0  0  0
  3  5  1  0  0  0  0
  3  6  1  0  0  0  0
 31 34  1  0  0  0  0
 31 35  1  0  0  0  0
 31 36  1  0  0  0  0
 21 24  1  0  0  0  0
 21 25  1  0  0  0  0
 21 26  1  0  0  0  0
 11 14  1  0  0  0  0
 11 15  1  0  0  0  0
 11 16  1  0  0  0  0
 38 40  1  0  0  0  0
 38 41  1  0  0  0  0
 38 42  1  0  0  0  0
 28 33  1  0  0  0  0
 18 23  1  0  0  0  0
  8 13  1  0  0  0  0
 37 39  1  0  0  0  0
  7 12  1  0  0  0  0
 27 32  1  0  0  0  0
 17 22  1  0  0  0  0
M  END
$$$$

  -OEChem-05262214473D

 42 41  0     1  0  0  0  0  0999 V2000
   -5.7851   -0.9580    0.6237 C   0  0  0  0  0  0  0  0  0  0  0  0
   -6.2213    0.1296    0.2652 O   0  0  0  0  0  0  0  0  0  0  0  0
   -6.7088   -2.1270    0.7168 C   0  0  0  0  0  0  0  0  0  0  0  0
   -7.1713   -2.2193    1.7126 H   0  0  0  0  0  0  0  0  0  0  0  0
   -7.5511   -2.0547    0.0101 H   0  0  0  0  0  0  0  0  0  0  0  0
   -6.2485   -3.1083    0.5191 H   0  0  0  0  0  0  0  0  0  0  0  0
   -4.4733   -1.2411    0.9668 N   0  0  0  0  0  0  0  0  0  0  0  0
   -3.4203   -0.2603    0.9449 C   0  0  2  0  0  0  0  0  0  0  0  0
   -2.1242   -0.9699    0.5759 C   0  0  0  0  0  0  0  0  0  0  0  0
   -1.8694   -2.1225    0.9189 O   0  0  0  0  0  0  0  0  0  0  0  0
   -3.2916    0.4435    2.2868 C   0  0  0  0  0  0  0  0  0  0  0  0
   -4.2421   -2.1920    1.2489 H   0  0  0  0  0  0  0  0  0  0  0  0
   -3.6772    0.4622    0.1625 H   0  0  0  0  0  0  0  0  0  0  0  0
   -3.0345   -0.2644    3.0832 H   0  0  0  0  0  0  0  0  0  0  0  0
   -2.5093    1.2092    2.2599 H   0  0  0  0  0  0  0  0  0  0  0  0
   -4.2338    0.9283    2.5645 H   0  0  0  0  0  0  0  0  0  0  0  0
   -1.2626   -0.1515   -0.1463 N   0  0  0  0  0  0  0  0  0  0  0  0
    0.0431   -0.5785   -0.5755 C   0  0  2  0  0  0  0  0  0  0  0  0
   -0.0222   -0.8606   -2.0707 C   0  0  0  0  0  0  0  0  0  0  0  0
   -0.0050   -1.9965   -2.5404 O   0  0  0  0  0  0  0  0  0  0  0  0
    0.5022   -1.8095    0.1904 C   0  0  0  0  0  0  0  0  0  0  0  0
   -1.5766    0.7776   -0.4197 H   0  0  0  0  0  0  0  0  0  0  0  0
    0.7260    0.2579   -0.3906 H   0  0  0  0  0  0  0  0  0  0  0  0
   -0.1698   -2.6580    0.0174 H   0  0  0  0  0  0  0  0  0  0  0  0
    1.5074   -2.1161   -0.1172 H   0  0  0  0  0  0  0  0  0  0  0  0
    0.5200   -1.6139    1.2680 H   0  0  0  0  0  0  0  0  0  0  0  0
   -0.0587    0.3065   -2.8260 N   0  0  0  0  0  0  0  0  0  0  0  0
   -0.0805    0.3046   -4.2651 C   0  0  2  0  0  0  0  0  0  0  0  0
    0.6603    1.5445   -4.7482 C   0  0  0  0  0  0  0  0  0  0  0  0
    0.6405    2.6154   -4.1449 O   0  0  0  0  0  0  0  0  0  0  0  0
   -1.5050    0.2808   -4.7969 C   0  0  0  0  0  0  0  0  0  0  0  0
   -0.1106    1.2035   -2.3473 H   0  0  0  0  0  0  0  0  0  0  0  0
    0.4585   -0.5926   -4.5884 H   0  0  0  0  0  0  0  0  0  0  0  0
   -2.0607    1.1720   -4.4831 H   0  0  0  0  0  0  0  0  0  0  0  0
   -1.5195    0.2505   -5.8914 H   0  0  0  0  0  0  0  0  0  0  0  0
   -2.0455   -0.5961   -4.4243 H   0  0  0  0  0  0  0  0  0  0  0  0
    1.3107    1.3268   -5.9547 N   0  0  0  0  0  0  0  0  0  0  0  0
    2.0484    2.3619   -6.6406 C   0  0  0  0  0  0  0  0  0  0  0  0
    1.3074    0.3970   -6.3635 H   0  0  0  0  0  0  0  0  0  0  0  0
    1.3881    2.8678   -7.3604 H   0  0  0  0  0  0  0  0  0  0  0  0
    2.4209    3.0932   -5.9082 H   0  0  0  0  0  0  0  0  0  0  0  0
    2.8984    1.9132   -7.1755 H   0  0  0  0  0  0  0  0  0  0  0  0
  1  3  1  0  0  0  0
  1  7  1  0  0  0  0
  1  2  2  0  0  0  0
 28 29  1  0  0  0  0
 29 37  1  0  0  0  0
 29 30  2  0  0  0  0
 18 19  1  0  0  0  0
 19 27  1  0  0  0  0
 19 20  2  0  0  0  0
  8  9  1  0  0  0  0
  9 17  1  0  0  0  0
  9 10  2  0  0  0  0
 28 31  1  0  0  0  0
 18 21  1  0  0  0  0
  8 11  1  0  0  0  0
 37 38  1  0  0  0  0
 27 28  1  0  0  0  0
 17 18  1  0  0  0  0
  7  8  1  0  0  0  0
  3  4  1  0  0  0  0
  3  5  1  0  0  0  0
  3  6  1  0  0  0  0
 31 34  1  0  0  0  0
 31 35  1  0  0  0  0
 31 36  1  0  0  0  0
 21 24  1  0  0  0  0
 21 25  1  0  0  0  0
 21 26  1  0  0  0  0
 11 14  1  0  0  0  0
 11 15  1  0  0  0  0
 11 16  1  0  0  0  0
 38 40  1  0  0  0  0
 38 41  1  0  0  0  0
 38 42  1  0  0  0  0
 28 33  1  0  0  0  0
 18 23  1  0  0  0  0
  8 13  1  0  0  0  0
 37 39  1  0  0  0  0
  7 12  1  0  0  0  0
 27 32  1  0  0  0  0
 17 22  1  0  0  0  0
M  END
$$$$

  -OEChem-05262214473D

 42 41  0     1  0  0  0  0  0999 V2000
   -5.7851   -0.9580    0.6237 C   0  0  0  0  0  0  0  0  0  0  0  0
   -6.2213    0.1296    0.2652 O   0  0  0  0  0  0  0  0  0  0  0  0
   -6.7088   -2.1270    0.7168 C   0  0  0  0  0  0  0  0  0  0  0  0
   -7.1713   -2.2193    1.7126 H   0  0  0  0  0  0  0  0  0  0  0  0
   -7.5511   -2.0547    0.0101 H   0  0  0  0  0  0  0  0  0  0  0  0
   -6.2485   -3.1083    0.5191 H   0  0  0  0  0  0  0  0  0  0  0  0
   -4.4733   -1.2411    0.9668 N   0  0  0  0  0  0  0  0  0  0  0  0
   -3.4203   -0.2603    0.9449 C   0  0  2  0  0  0  0  0  0  0  0  0
   -2.1242   -0.9699    0.5759 C   0  0  0  0  0  0  0  0  0  0  0  0
   -1.8694   -2.1225    0.9189 O   0  0  0  0  0  0  0  0  0  0  0  0
   -3.2916    0.4435    2.2868 C   0  0  0  0  0  0  0  0  0  0  0  0
   -4.2421   -2.1920    1.2489 H   0  0  0  0  0  0  0  0  0  0  0  0
   -3.6772    0.4622    0.1625 H   0  0  0  0  0  0  0  0  0  0  0  0
   -3.0345   -0.2644    3.0832 H   0  0  0  0  0  0  0  0  0  0  0  0
   -2.5093    1.2092    2.2599 H   0  0  0  0  0  0  0  0  0  0  0  0
   -4.2338    0.9283    2.5645 H   0  0  0  0  0  0  0  0  0  0  0  0
   -1.2626   -0.1515   -0.1463 N   0  0  0  0  0  0  0  0  0  0  0  0
    0.0431   -0.5785   -0.5755 C   0  0  2  0  0  0  0  0  0  0  0  0
   -0.0222   -0.8606   -2.0707 C   0  0  0  0  0  0  0  0  0  0  0  0
   -0.2726   -1.9716   -2.5334 O   0  0  0  0  0  0  0  0  0  0  0  0
    0.5022   -1.8095    0.1904 C   0  0  0  0  0  0  0  0  0  0  0  0
   -1.5766    0.7776   -0.4197 H   0  0  0  0  0  0  0  0  0  0  0  0
    0.7260    0.2579   -0.3906 H   0  0  0  0  0  0  0  0  0  0  0  0
   -0.1698   -2.6580    0.0174 H   0  0  0  0  0  0  0  0  0  0  0  0
    1.5074   -2.1161   -0.1172 H   0  0  0  0  0  0  0  0  0  0  0  0
    0.5200   -1.6139    1.2680 H   0  0  0  0  0  0  0  0  0  0  0  0
    0.2745    0.2643   -2.8326 N   0  0  0  0  0  0  0  0  0  0  0  0
    0.3200    0.2431   -4.2709 C   0  0  2  0  0  0  0  0  0  0  0  0
    1.3734    1.2458   -4.7230 C   0  0  0  0  0  0  0  0  0  0  0  0
    1.5986    2.2969   -4.1267 O   0  0  0  0  0  0  0  0  0  0  0  0
   -1.0375    0.5724   -4.8723 C   0  0  0  0  0  0  0  0  0  0  0  0
    0.4303    1.1533   -2.3614 H   0  0  0  0  0  0  0  0  0  0  0  0
    0.6274   -0.7670   -4.5628 H   0  0  0  0  0  0  0  0  0  0  0  0
   -1.3621    1.5808   -4.5908 H   0  0  0  0  0  0  0  0  0  0  0  0
   -1.0082    0.5279   -5.9660 H   0  0  0  0  0  0  0  0  0  0  0  0
   -1.7999   -0.1320   -4.5226 H   0  0  0  0  0  0  0  0  0  0  0  0
    2.0024    0.8493   -5.8949 N   0  0  0  0  0  0  0  0  0  0  0  0
    3.0102    1.6513   -6.5485 C   0  0  0  0  0  0  0  0  0  0  0  0
    1.7818   -0.0562   -6.2987 H   0  0  0  0  0  0  0  0  0  0  0  0
    2.5346    2.2957   -7.3026 H   0  0  0  0  0  0  0  0  0  0  0  0
    3.5220    2.2766   -5.8022 H   0  0  0  0  0  0  0  0  0  0  0  0
    3.7420    0.9923   -7.0386 H   0  0  0  0  0  0  0  0  0  0  0  0
  1  3  1  0  0  0  0
  1  7  1  0  0  0  0
  1  2  2  0  0  0  0
 28 29  1  0  0  0  0
 29 37  1  0  0  0  0
 29 30  2  0  0  0  0
 18 19  1  0  0  0  0
 19 27  1  0  0  0  0
 19 20  2  0  0  0  0
  8  9  1  0  0  0  0
  9 17  1  0  0  0  0
  9 10  2  0  0  0  0
 28 31  1  0  0  0  0
 18 21  1  0  0  0  0
  8 11  1  0  0  0  0
 37 38  1  0  0  0  0
 27 28  1  0  0  0  0
 17 18  1  0  0  0  0
  7  8  1  0  0  0  0
  3  4  1  0  0  0  0
  3  5  1  0  0  0  0
  3  6  1  0  0  0  0
 31 34  1  0  0  0  0
 31 35  1  0  0  0  0
 31 36  1  0  0  0  0
 21 24  1  0  0  0  0
 21 25  1  0  0  0  0
 21 26  1  0  0  0  0
 11 14  1  0  0  0  0
 11 15  1  0  0  0  0
 11 16  1  0  0  0  0
 38 40  1  0  0  0  0
 38 41  1  0  0  0  0
 38 42  1  0  0  0  0
 28 33  1  0  0  0  0
 18 23  1  0  0  0  0
  8 13  1  0  0  0  0
 37 39  1  0  0  0  0
  7 12  1  0  0  0  0
 27 32  1  0  0  0  0
 17 22  1  0  0  0  0
M  END
$$$$

  -OEChem-05262214473D

 42 41  0     1  0  0  0  0  0999 V2000
   -5.7851   -0.9580    0.6237 C   0  0  0  0  0  0  0  0  0  0  0  0
   -6.2213    0.1296    0.2652 O   0  0  0  0  0  0  0  0  0  0  0  0
   -6.7088   -2.1270    0.7168 C   0  0  0  0  0  0  0  0  0  0  0  0
   -7.1713   -2.2193    1.7126 H   0  0  0  0  0  0  0  0  0  0  0  0
   -7.5511   -2.0547    0.0101 H   0  0  0  0  0  0  0  0  0  0  0  0
   -6.2485   -3.1083    0.5191 H   0  0  0  0  0  0  0  0  0  0  0  0
   -4.4733   -1.2411    0.9668 N   0  0  0  0  0  0  0  0  0  0  0  0
   -3.4203   -0.2603    0.9449 C   0  0  2  0  0  0  0  0  0  0  0  0
   -2.1242   -0.9699    0.5759 C   0  0  0  0  0  0  0  0  0  0  0  0
   -1.8694   -2.1225    0.9189 O   0  0  0  0  0  0  0  0  0  0  0  0
   -3.2916    0.4435    2.2868 C   0  0  0  0  0  0  0  0  0  0  0  0
   -4.2421   -2.1920    1.2489 H   0  0  0  0  0  0  0  0  0  0  0  0
   -3.6772    0.4622    0.1625 H   0  0  0  0  0  0  0  0  0  0  0  0
   -3.0345   -0.2644    3.0832 H   0  0  0  0  0  0  0  0  0  0  0  0
   -2.5093    1.2092    2.2599 H   0  0  0  0  0  0  0  0  0  0  0  0
   -4.2338    0.9283    2.5645 H   0  0  0  0  0  0  0  0  0  0  0  0
   -1.2626   -0.1515   -0.1463 N   0  0  0  0  0  0  0  0  0  0  0  0
    0.0431   -0.5785   -0.5755 C   0  0  2  0  0  0  0  0  0  0  0  0
   -0.0222   -0.8606   -2.0707 C   0  0  0  0  0  0  0  0  0  0  0  0
   -0.5252   -1.8795   -2.5397 O   0  0  0  0  0  0  0  0  0  0  0  0
    0.5022   -1.8095    0.1904 C   0  0  0  0  0  0  0  0  0  0  0  0
   -1.5766    0.7776   -0.4197 H   0  0  0  0  0  0  0  0  0  0  0  0
    0.7260    0.2579   -0.3906 H   0  0  0  0  0  0  0  0  0  0  0  0
   -0.1698   -2.6580    0.0174 H   0  0  0  0  0  0  0  0  0  0  0  0
    1.5074   -2.1161   -0.1172 H   0  0  0  0  0  0  0  0  0  0  0  0
    0.5200   -1.6139    1.2680 H   0  0  0  0  0  0  0  0  0  0  0  0
    0.5860    0.1387   -2.8225 N   0  0  0  0  0  0  0  0  0  0  0  0
    0.6914    0.0819   -4.2567 C   0  0  2  0  0  0  0  0  0  0  0  0
    1.9851    0.7764   -4.6611 C   0  0  0  0  0  0  0  0  0  0  0  0
    2.4422    1.7460   -4.0596 O   0  0  0  0  0  0  0  0  0  0  0  0
   -0.5081    0.7345   -4.9260 C   0  0  0  0  0  0  0  0  0  0  0  0
    0.9407    0.9671   -2.3486 H   0  0  0  0  0  0  0  0  0  0  0  0
    0.7450   -0.9781   -4.5281 H   0  0  0  0  0  0  0  0  0  0  0  0
   -0.5784    1.7970   -4.6658 H   0  0  0  0  0  0  0  0  0  0  0  0
   -0.4403    0.6651   -6.0167 H   0  0  0  0  0  0  0  0  0  0  0  0
   -1.4401    0.2529   -4.6110 H   0  0  0  0  0  0  0  0  0  0  0  0
    2.5464    0.2130   -5.7985 N   0  0  0  0  0  0  0  0  0  0  0  0
    3.7543    0.7214   -6.4056 C   0  0  0  0  0  0  0  0  0  0  0  0
    2.1217   -0.6137   -6.2084 H   0  0  0  0  0  0  0  0  0  0  0  0
    3.4938    1.4523   -7.1853 H   0  0  0  0  0  0  0  0  0  0  0  0
    4.3730    1.2092   -5.6380 H   0  0  0  0  0  0  0  0  0  0  0  0
    4.3164   -0.1101   -6.8557 H   0  0  0  0  0  0  0  0  0  0  0  0
  1  3  1  0  0  0  0
  1  7  1  0  0  0  0
  1  2  2  0  0  0  0
 28 29  1  0  0  0  0
 29 37  1  0  0  0  0
 29 30  2  0  0  0  0
 18 19  1  0  0  0  0
 19 27  1  0  0  0  0
 19 20  2  0  0  0  0
  8  9  1  0  0  0  0
  9 17  1  0  0  0  0
  9 10  2  0  0  0  0
 28 31  1  0  0  0  0
 18 21  1  0  0  0  0
  8 11  1  0  0  0  0
 37 38  1  0  0  0  0
 27 28  1  0  0  0  0
 17 18  1  0  0  0  0
  7  8  1  0  0  0  0
  3  4  1  0  0  0  0
  3  5  1  0  0  0  0
  3  6  1  0  0  0  0
 31 34  1  0  0  0  0
 31 35  1  0  0  0  0
 31 36  1  0  0  0  0
 21 24  1  0  0  0  0
 21 25  1  0  0  0  0
 21 26  1  0  0  0  0
 11 14  1  0  0  0  0
 11 15  1  0  0  0  0
 11 16  1  0  0  0  0
 38 40  1  0  0  0  0
 38 41  1  0  0  0  0
 38 42  1  0  0  0  0
 28 33  1  0  0  0  0
 18 23  1  0  0  0  0
  8 13  1  0  0  0  0
 37 39  1  0  0  0  0
  7 12  1  0  0  0  0
 27 32  1  0  0  0  0
 17 22  1  0  0  0  0
M  END
$$$$

  -OEChem-05262214473D

 42 41  0     1  0  0  0  0  0999 V2000
   -5.7851   -0.9580    0.6237 C   0  0  0  0  0  0  0  0  0  0  0  0
   -6.2213    0.1296    0.2652 O   0  0  0  0  0  0  0  0  0  0  0  0
   -6.7088   -2.1270    0.7168 C   0  0  0  0  0  0  0  0  0  0  0  0
   -7.1713   -2.2193    1.7126 H   0  0  0  0  0  0  0  0  0  0  0  0
   -7.5511   -2.0547    0.0101 H   0  0  0  0  0  0  0  0  0  0  0  0
   -6.2485   -3.1083    0.5191 H   0  0  0  0  0  0  0  0  0  0  0  0
   -4.4733   -1.2411    0.9668 N   0  0  0  0  0  0  0  0  0  0  0  0
   -3.4203   -0.2603    0.9449 C   0  0  2  0  0  0  0  0  0  0  0  0
   -2.1242   -0.9699    0.5759 C   0  0  0  0  0  0  0  0  0  0  0  0
   -1.8694   -2.1225    0.9189 O   0  0  0  0  0  0  0  0  0  0  0  0
   -3.2916    0.4435    2.2868 C   0  0  0  0  0  0  0  0  0  0  0  0
   -4.2421   -2.1920    1.2489 H   0  0  0  0  0  0  0  0  0  0  0  0
   -3.6772    0.4622    0.1625 H   0  0  0  0  0  0  0  0  0  0  0  0
   -3.0345   -0.2644    3.0832 H   0  0  0  0  0  0  0  0  0  0  0  0
   -2.5093    1.2092    2.2599 H   0  0  0  0  0  0  0  0  0  0  0  0
   -4.2338    0.9283    2.5645 H   0  0  0  0  0  0  0  0  0  0  0  0
   -1.2626   -0.1515   -0.1463 N   0  0  0  0  0  0  0  0  0  0  0  0
    0.0431   -0.5785   -0.5755 C   0  0  2  0  0  0  0  0  0  0  0  0
   -0.0222   -0.8606   -2.0707 C   0  0  0  0  0  0  0  0  0  0  0  0
   -0.7454   -1.7264   -2.5590 O   0  0  0  0  0  0  0  0  0  0  0  0
    0.5022   -1.8095    0.1904 C   0  0  0  0  0  0  0  0  0  0  0  0
   -1.5766    0.7776   -0.4197 H   0  0  0  0  0  0  0  0  0  0  0  0
    0.7260    0.2579   -0.3906 H   0  0  0  0  0  0  0  0  0  0  0  0
   -0.1698   -2.6580    0.0174 H   0  0  0  0  0  0  0  0  0  0  0  0
    1.5074   -2.1161   -0.1172 H   0  0  0  0  0  0  0  0  0  0  0  0
    0.5200   -1.6139    1.2680 H   0  0  0  0  0  0  0  0  0  0  0  0
    0.8545   -0.0615   -2.7964 N   0  0  0  0  0  0  0  0  0  0  0  0
    1.0085   -0.1681   -4.2234 C   0  0  2  0  0  0  0  0  0  0  0  0
    2.4537    0.1682   -4.5669 C   0  0  0  0  0  0  0  0  0  0  0  0
    3.1140    1.0003   -3.9482 O   0  0  0  0  0  0  0  0  0  0  0  0
    0.0470    0.7560   -4.9543 C   0  0  0  0  0  0  0  0  0  0  0  0
    1.3858    0.6578   -2.3097 H   0  0  0  0  0  0  0  0  0  0  0  0
    0.8033   -1.2115   -4.4867 H   0  0  0  0  0  0  0  0  0  0  0  0
    0.2373    1.8058   -4.7031 H   0  0  0  0  0  0  0  0  0  0  0  0
    0.1455    0.6528   -6.0400 H   0  0  0  0  0  0  0  0  0  0  0  0
   -0.9905    0.5322   -4.6833 H   0  0  0  0  0  0  0  0  0  0  0  0
    2.9055   -0.5388   -5.6724 N   0  0  0  0  0  0  0  0  0  0  0  0
    4.2299   -0.3642   -6.2215 C   0  0  0  0  0  0  0  0  0  0  0  0
    2.3040   -1.2375   -6.0986 H   0  0  0  0  0  0  0  0  0  0  0  0
    4.2005    0.3953   -7.0167 H   0  0  0  0  0  0  0  0  0  0  0  0
    4.9159   -0.0362   -5.4267 H   0  0  0  0  0  0  0  0  0  0  0  0
    4.5822   -1.3188   -6.6392 H   0  0  0  0  0  0  0  0  0  0  0  0
  1  3  1  0  0  0  0
  1  7  1  0  0  0  0
  1  2  2  0  0  0  0
 28 29  1  0  0  0  0
 29 37  1  0  0  0  0
 29 30  2  0  0  0  0
 18 19  1  0  0  0  0
 19 27  1  0  0  0  0
 19 20  2  0  0  0  0
  8  9  1  0  0  0  0
  9 17  1  0  0  0  0
  9 10  2  0  0  0  0
 28 31  1  0  0  0  0
 18 21  1  0  0  0  0
  8 11  1  0  0  0  0
 37 38  1  0  0  0  0
 27 28  1  0  0  0  0
 17 18  1  0  0  0  0
  7  8  1  0  0  0  0
  3  4  1  0  0  0  0
  3  5  1  0  0  0  0
  3  6  1  0  0  0  0
 31 34  1  0  0  0  0
 31 35  1  0  0  0  0
 31 36  1  0  0  0  0
 21 24  1  0  0  0  0
 21 25  1  0  0  0  0
 21 26  1  0  0  0  0
 11 14  1  0  0  0  0
 11 15  1  0  0  0  0
 11 16  1  0  0  0  0
 38 40  1  0  0  0  0
 38 41  1  0  0  0  0
 38 42  1  0  0  0  0
 28 33  1  0  0  0  0
 18 23  1  0  0  0  0
  8 13  1  0  0  0  0
 37 39  1  0  0  0  0
  7 12  1  0  0  0  0
 27 32  1  0  0  0  0
 17 22  1  0  0  0  0
M  END
$$$$

  -OEChem-05262214473D

 42 41  0     1  0  0  0  0  0999 V2000
   -5.7851   -0.9580    0.6237 C   0  0  0  0  0  0  0  0  0  0  0  0
   -6.2213    0.1296    0.2652 O   0  0  0  0  0  0  0  0  0  0  0  0
   -6.7088   -2.1270    0.7168 C   0  0  0  0  0  0  0  0  0  0  0  0
   -7.1713   -2.2193    1.7126 H   0  0  0  0  0  0  0  0  0  0  0  0
   -7.5511   -2.0547    0.0101 H   0  0  0  0  0  0  0  0  0  0  0  0
   -6.2485   -3.1083    0.5191 H   0  0  0  0  0  0  0  0  0  0  0  0
   -4.4733   -1.2411    0.9668 N   0  0  0  0  0  0  0  0  0  0  0  0
   -3.4203   -0.2603    0.9449 C   0  0  2  0  0  0  0  0  0  0  0  0
   -2.1242   -0.9699    0.5759 C   0  0  0  0  0  0  0  0  0  0  0  0
   -1.8694   -2.1225    0.9189 O   0  0  0  0  0  0  0  0  0  0  0  0
   -3.2916    0.4435    2.2868 C   0  0  0  0  0  0  0  0  0  0  0  0
   -4.2421   -2.1920    1.2489 H   0  0  0  0  0  0  0  0  0  0  0  0
   -3.6772    0.4622    0.1625 H   0  0  0  0  0  0  0  0  0  0  0  0
   -3.0345   -0.2644    3.0832 H   0  0  0  0  0  0  0  0  0  0  0  0
   -2.5093    1.2092    2.2599 H   0  0  0  0  0  0  0  0  0  0  0  0
   -4.2338    0.9283    2.5645 H   0  0  0  0  0  0  0  0  0  0  0  0
   -1.2626   -0.1515   -0.1463 N   0  0  0  0  0  0  0  0  0  0  0  0
    0.0431   -0.5785   -0.5755 C   0  0  2  0  0  0  0  0  0  0  0  0
   -0.0222   -0.8606   -2.0707 C   0  0  0  0  0  0  0  0  0  0  0  0
   -0.9184   -1.5228   -2.5899 O   0  0  0  0  0  0  0  0  0  0  0  0
    0.5022   -1.8095    0.1904 C   0  0  0  0  0  0  0  0  0  0  0  0
   -1.5766    0.7776   -0.4197 H   0  0  0  0  0  0  0  0  0  0  0  0
    0.7260    0.2579   -0.3906 H   0  0  0  0  0  0  0  0  0  0  0  0
   -0.1698   -2.6580    0.0174 H   0  0  0  0  0  0  0  0  0  0  0  0
    1.5074   -2.1161   -0.1172 H   0  0  0  0  0  0  0  0  0  0  0  0
    0.5200   -1.6139    1.2680 H   0  0  0  0  0  0  0  0  0  0  0  0
    1.0617   -0.3229   -2.7562 N   0  0  0  0  0  0  0  0  0  0  0  0
    1.2498   -0.4898   -4.1733 C   0  0  2  0  0  0  0  0  0  0  0  0
    2.7473   -0.5372   -4.4466 C   0  0  0  0  0  0  0  0  0  0  0  0
    3.5680    0.1106   -3.8002 O   0  0  0  0  0  0  0  0  0  0  0  0
    0.5899    0.6353   -4.9553 C   0  0  0  0  0  0  0  0  0  0  0  0
    1.7352    0.2463   -2.2473 H   0  0  0  0  0  0  0  0  0  0  0  0
    0.7984   -1.4513   -4.4412 H   0  0  0  0  0  0  0  0  0  0  0  0
    1.0291    1.6067   -4.7002 H   0  0  0  0  0  0  0  0  0  0  0  0
    0.7094    0.4918   -6.0343 H   0  0  0  0  0  0  0  0  0  0  0  0
   -0.4818    0.6869   -4.7347 H   0  0  0  0  0  0  0  0  0  0  0  0
    3.0553   -1.3548   -5.5250 N   0  0  0  0  0  0  0  0  0  0  0  0
    4.4046   -1.5316   -6.0089 C   0  0  0  0  0  0  0  0  0  0  0  0
    2.3163   -1.8853   -5.9769 H   0  0  0  0  0  0  0  0  0  0  0  0
    4.6063   -0.8034   -6.8083 H   0  0  0  0  0  0  0  0  0  0  0  0
    5.1138   -1.3748   -5.1828 H   0  0  0  0  0  0  0  0  0  0  0  0
    4.5216   -2.5515   -6.4040 H   0  0  0  0  0  0  0  0  0  0  0  0
  1  3  1  0  0  0  0
  1  7  1  0  0  0  0
  1  2  2  0  0  0  0
 28 29  1  0  0  0  0
 29 37  1  0  0  0  0
 29 30  2  0  0  0  0
 18 19  1  0  0  0  0
 19 27  1  0  0  0  0
 19 20  2  0  0  0  0
  8  9  1  0  0  0  0
  9 17  1  0  0  0  0
  9 10  2  0  0  0  0
 28 31  1  0  0  0  0
 18 21  1  0  0  0  0
  8 11  1  0  0  0  0
 37 38  1  0  0  0  0
 27 28  1  0  0  0  0
 17 18  1  0  0  0  0
  7  8  1  0  0  0  0
  3  4  1  0  0  0  0
  3  5  1  0  0  0  0
  3  6  1  0  0  0  0
 31 34  1  0  0  0  0
 31 35  1  0  0  0  0
 31 36  1  0  0  0  0
 21 24  1  0  0  0  0
 21 25  1  0  0  0  0
 21 26  1  0  0  0  0
 11 14  1  0  0  0  0
 11 15  1  0  0  0  0
 11 16  1  0  0  0  0
 38 40  1  0  0  0  0
 38 41  1  0  0  0  0
 38 42  1  0  0  0  0
 28 33  1  0  0  0  0
 18 23  1  0  0  0  0
  8 13  1  0  0  0  0
 37 39  1  0  0  0  0
  7 12  1  0  0  0  0
 27 32  1  0  0  0  0
 17 22  1  0  0  0  0
M  END
$$$$

  -OEChem-05262214473D

 42 41  0     1  0  0  0  0  0999 V2000
   -5.7851   -0.9580    0.6237 C   0  0  0  0  0  0  0  0  0  0  0  0
   -6.2213    0.1296    0.2652 O   0  0  0  0  0  0  0  0  0  0  0  0
   -6.7088   -2.1270    0.7168 C   0  0  0  0  0  0  0  0  0  0  0  0
   -7.1713   -2.2193    1.7126 H   0  0  0  0  0  0  0  0  0  0  0  0
   -7.5511   -2.0547    0.0101 H   0  0  0  0  0  0  0  0  0  0  0  0
   -6.2485   -3.1083    0.5191 H   0  0  0  0  0  0  0  0  0  0  0  0
   -4.4733   -1.2411    0.9668 N   0  0  0  0  0  0  0  0  0  0  0  0
   -3.4203   -0.2603    0.9449 C   0  0  2  0  0  0  0  0  0  0  0  0
   -2.1242   -0.9699    0.5759 C   0  0  0  0  0  0  0  0  0  0  0  0
   -1.8694   -2.1225    0.9189 O   0  0  0  0  0  0  0  0  0  0  0  0
   -3.2916    0.4435    2.2868 C   0  0  0  0  0  0  0  0  0  0  0  0
   -4.2421   -2.1920    1.2489 H   0  0  0  0  0  0  0  0  0  0  0  0
   -3.6772    0.4622    0.1625 H   0  0  0  0  0  0  0  0  0  0  0  0
   -3.0345   -0.2644    3.0832 H   0  0  0  0  0  0  0  0  0  0  0  0
   -2.5093    1.2092    2.2599 H   0  0  0  0  0  0  0  0  0  0  0  0
   -4.2338    0.9283    2.5645 H   0  0  0  0  0  0  0  0  0  0  0  0
   -1.2626   -0.1515   -0.1463 N   0  0  0  0  0  0  0  0  0  0  0  0
    0.0431   -0.5785   -0.5755 C   0  0  2  0  0  0  0  0  0  0  0  0
   -0.0222   -0.8606   -2.0707 C   0  0  0  0  0  0  0  0  0  0  0  0
   -1.0322   -1.2825   -2.6302 O   0  0  0  0  0  0  0  0  0  0  0  0
    0.5022   -1.8095    0.1904 C   0  0  0  0  0  0  0  0  0  0  0  0
   -1.5766    0.7776   -0.4197 H   0  0  0  0  0  0  0  0  0  0  0  0
    0.7260    0.2579   -0.3906 H   0  0  0  0  0  0  0  0  0  0  0  0
   -0.1698   -2.6580    0.0174 H   0  0  0  0  0  0  0  0  0  0  0  0
    1.5074   -2.1161   -0.1172 H   0  0  0  0  0  0  0  0  0  0  0  0
    0.5200   -1.6139    1.2680 H   0  0  0  0  0  0  0  0  0  0  0  0
    1.1935   -0.6276   -2.7045 N   0  0  0  0  0  0  0  0  0  0  0  0
    1.3986   -0.8612   -4.1097 C   0  0  2  0  0  0  0  0  0  0  0  0
    2.8458   -1.2919   -4.3085 C   0  0  0  0  0  0  0  0  0  0  0  0
    3.7733   -0.8626   -3.6255 O   0  0  0  0  0  0  0  0  0  0  0  0
    1.0838    0.3808   -4.9288 C   0  0  0  0  0  0  0  0  0  0  0  0
    1.9652   -0.2393   -2.1657 H   0  0  0  0  0  0  0  0  0  0  0  0
    0.7305   -1.6811   -4.3949 H   0  0  0  0  0  0  0  0  0  0  0  0
    1.7432    1.2131   -4.6571 H   0  0  0  0  0  0  0  0  0  0  0  0
    1.2129    0.1930   -5.9999 H   0  0  0  0  0  0  0  0  0  0  0  0
    0.0514    0.7066   -4.7617 H   0  0  0  0  0  0  0  0  0  0  0  0
    2.9856   -2.1794   -5.3663 N   0  0  0  0  0  0  0  0  0  0  0  0
    4.2665   -2.7013   -5.7821 C   0  0  0  0  0  0  0  0  0  0  0  0
    2.1578   -2.5127   -5.8516 H   0  0  0  0  0  0  0  0  0  0  0  0
    4.6838   -2.0621   -6.5742 H   0  0  0  0  0  0  0  0  0  0  0  0
    4.9530   -2.7154   -4.9228 H   0  0  0  0  0  0  0  0  0  0  0  0
    4.1385   -3.7241   -6.1660 H   0  0  0  0  0  0  0  0  0  0  0  0
  1  3  1  0  0  0  0
  1  7  1  0  0  0  0
  1  2  2  0  0  0  0
 28 29  1  0  0  0  0
 29 37  1  0  0  0  0
 29 30  2  0  0  0  0
 18 19  1  0  0  0  0
 19 27  1  0  0  0  0
 19 20  2  0  0  0  0
  8  9  1  0  0  0  0
  9 17  1  0  0  0  0
  9 10  2  0  0  0  0
 28 31  1  0  0  0  0
 18 21  1  0  0  0  0
  8 11  1  0  0  0  0
 37 38  1  0  0  0  0
 27 28  1  0  0  0  0
 17 18  1  0  0  0  0
  7  8  1  0  0  0  0
  3  4  1  0  0  0  0
  3  5  1  0  0  0  0
  3  6  1  0  0  0  0
 31 34  1  0  0  0  0
 31 35  1  0  0  0  0
 31 36  1  0  0  0  0
 21 24  1  0  0  0  0
 21 25  1  0  0  0  0
 21 26  1  0  0  0  0
 11 14  1  0  0  0  0
 11 15  1  0  0  0  0
 11 16  1  0  0  0  0
 38 40  1  0  0  0  0
 38 41  1  0  0  0  0
 38 42  1  0  0  0  0
 28 33  1  0  0  0  0
 18 23  1  0  0  0  0
  8 13  1  0  0  0  0
 37 39  1  0  0  0  0
  7 12  1  0  0  0  0
 27 32  1  0  0  0  0
 17 22  1  0  0  0  0
M  END
$$$$

  -OEChem-05262214473D

 42 41  0     1  0  0  0  0  0999 V2000
   -5.7851   -0.9580    0.6237 C   0  0  0  0  0  0  0  0  0  0  0  0
   -6.2213    0.1296    0.2652 O   0  0  0  0  0  0  0  0  0  0  0  0
   -6.7088   -2.1270    0.7168 C   0  0  0  0  0  0  0  0  0  0  0  0
   -7.1713   -2.2193    1.7126 H   0  0  0  0  0  0  0  0  0  0  0  0
   -7.5511   -2.0547    0.0101 H   0  0  0  0  0  0  0  0  0  0  0  0
   -6.2485   -3.1083    0.5191 H   0  0  0  0  0  0  0  0  0  0  0  0
   -4.4733   -1.2411    0.9668 N   0  0  0  0  0  0  0  0  0  0  0  0
   -3.4203   -0.2603    0.9449 C   0  0  2  0  0  0  0  0  0  0  0  0
   -2.1242   -0.9699    0.5759 C   0  0  0  0  0  0  0  0  0  0  0  0
   -1.8694   -2.1225    0.9189 O   0  0  0  0  0  0  0  0  0  0  0  0
   -3.2916    0.4435    2.2868 C   0  0  0  0  0  0  0  0  0  0  0  0
   -4.2421   -2.1920    1.2489 H   0  0  0  0  0  0  0  0  0  0  0  0
   -3.6772    0.4622    0.1625 H   0  0  0  0  0  0  0  0  0  0  0  0
   -3.0345   -0.2644    3.0832 H   0  0  0  0  0  0  0  0  0  0  0  0
   -2.5093    1.2092    2.2599 H   0  0  0  0  0  0  0  0  0  0  0  0
   -4.2338    0.9283    2.5645 H   0  0  0  0  0  0  0  0  0  0  0  0
   -1.2626   -0.1515   -0.1463 N   0  0  0  0  0  0  0  0  0  0  0  0
    0.0431   -0.5785   -0.5755 C   0  0  2  0  0  0  0  0  0  0  0  0
   -0.0222   -0.8606   -2.0707 C   0  0  0  0  0  0  0  0  0  0  0  0
   -1.0791   -1.0219   -2.6773 O   0  0  0  0  0  0  0  0  0  0  0  0
    0.5022   -1.8095    0.1904 C   0  0  0  0  0  0  0  0  0  0  0  0
   -1.5766    0.7776   -0.4197 H   0  0  0  0  0  0  0  0  0  0  0  0
    0.7260    0.2579   -0.3906 H   0  0  0  0  0  0  0  0  0  0  0  0
   -0.1698   -2.6580    0.0174 H   0  0  0  0  0  0  0  0  0  0  0  0
    1.5074   -2.1161   -0.1172 H   0  0  0  0  0  0  0  0  0  0  0  0
    0.5200   -1.6139    1.2680 H   0  0  0  0  0  0  0  0  0  0  0  0
    1.2409   -0.9548   -2.6448 N   0  0  0  0  0  0  0  0  0  0  0  0
    1.4450   -1.2571   -4.0370 C   0  0  2  0  0  0  0  0  0  0  0  0
    2.7426   -2.0444   -4.1620 C   0  0  0  0  0  0  0  0  0  0  0  0
    3.7161   -1.8528   -3.4362 O   0  0  0  0  0  0  0  0  0  0  0  0
    1.4949    0.0098   -4.8768 C   0  0  0  0  0  0  0  0  0  0  0  0
    2.0601   -0.7658   -2.0705 H   0  0  0  0  0  0  0  0  0  0  0  0
    0.6042   -1.8854   -4.3508 H   0  0  0  0  0  0  0  0  0  0  0  0
    2.3310    0.6520   -4.5769 H   0  0  0  0  0  0  0  0  0  0  0  0
    1.6216   -0.2231   -5.9392 H   0  0  0  0  0  0  0  0  0  0  0  0
    0.5727    0.5898   -4.7625 H   0  0  0  0  0  0  0  0  0  0  0  0
    2.7011   -2.9565   -5.2073 N   0  0  0  0  0  0  0  0  0  0  0  0
    3.8250   -3.7935   -5.5568 C   0  0  0  0  0  0  0  0  0  0  0  0
    1.8393   -3.0771   -5.7312 H   0  0  0  0  0  0  0  0  0  0  0  0
    4.4276   -3.2950   -6.3304 H   0  0  0  0  0  0  0  0  0  0  0  0
    4.4447   -3.9665   -4.6645 H   0  0  0  0  0  0  0  0  0  0  0  0
    3.4590   -4.7569   -5.9414 H   0  0  0  0  0  0  0  0  0  0  0  0
  1  3  1  0  0  0  0
  1  7  1  0  0  0  0
  1  2  2  0  0  0  0
 28 29  1  0  0  0  0
 29 37  1  0  0  0  0
 29 30  2  0  0  0  0
 18 19  1  0  0  0  0
 19 27  1  0  0  0  0
 19 20  2  0  0  0  0
  8  9  1  0  0  0  0
  9 17  1  0  0  0  0
  9 10  2  0  0  0  0
 28 31  1  0  0  0  0
 18 21  1  0  0  0  0
  8 11  1  0  0  0  0
 37 38  1  0  0  0  0
 27 28  1  0  0  0  0
 17 18  1  0  0  0  0
  7  8  1  0  0  0  0
  3  4  1  0  0  0  0
  3  5  1  0  0  0  0
  3  6  1  0  0  0  0
 31 34  1  0  0  0  0
 31 35  1  0  0  0  0
 31 36  1  0  0  0  0
 21 24  1  0  0  0  0
 21 25  1  0  0  0  0
 21 26  1  0  0  0  0
 11 14  1  0  0  0  0
 11 15  1  0  0  0  0
 11 16  1  0  0  0  0
 38 40  1  0  0  0  0
 38 41  1  0  0  0  0
 38 42  1  0  0  0  0
 28 33  1  0  0  0  0
 18 23  1  0  0  0  0
  8 13  1  0  0  0  0
 37 39  1  0  0  0  0
  7 12  1  0  0  0  0
 27 32  1  0  0  0  0
 17 22  1  0  0  0  0
M  END
$$$$

  -OEChem-05262214473D

 42 41  0     1  0  0  0  0  0999 V2000
   -5.7851   -0.9580    0.6237 C   0  0  0  0  0  0  0  0  0  0  0  0
   -6.2213    0.1296    0.2652 O   0  0  0  0  0  0  0  0  0  0  0  0
   -6.7088   -2.1270    0.7168 C   0  0  0  0  0  0  0  0  0  0  0  0
   -7.1713   -2.2193    1.7126 H   0  0  0  0  0  0  0  0  0  0  0  0
   -7.5511   -2.0547    0.0101 H   0  0  0  0  0  0  0  0  0  0  0  0
   -6.2485   -3.1083    0.5191 H   0  0  0  0  0  0  0  0  0  0  0  0
   -4.4733   -1.2411    0.9668 N   0  0  0  0  0  0  0  0  0  0  0  0
   -3.4203   -0.2603    0.9449 C   0  0  2  0  0  0  0  0  0  0  0  0
   -2.1242   -0.9699    0.5759 C   0  0  0  0  0  0  0  0  0  0  0  0
   -1.8694   -2.1225    0.9189 O   0  0  0  0  0  0  0  0  0  0  0  0
   -3.2916    0.4435    2.2868 C   0  0  0  0  0  0  0  0  0  0  0  0
   -4.2421   -2.1920    1.2489 H   0  0  0  0  0  0  0  0  0  0  0  0
   -3.6772    0.4622    0.1625 H   0  0  0  0  0  0  0  0  0  0  0  0
   -3.0345   -0.2644    3.0832 H   0  0  0  0  0  0  0  0  0  0  0  0
   -2.5093    1.2092    2.2599 H   0  0  0  0  0  0  0  0  0  0  0  0
   -4.2338    0.9283    2.5645 H   0  0  0  0  0  0  0  0  0  0  0  0
   -1.2626   -0.1515   -0.1463 N   0  0  0  0  0  0  0  0  0  0  0  0
    0.0431   -0.5785   -0.5755 C   0  0  2  0  0  0  0  0  0  0  0  0
    0.0876   -0.4996   -2.0958 C   0  0  0  0  0  0  0  0  0  0  0  0
   -0.8765   -0.1594   -2.7783 O   0  0  0  0  0  0  0  0  0  0  0  0
    0.3499   -1.9884   -0.0952 C   0  0  0  0  0  0  0  0  0  0  0  0
   -1.5766    0.7776   -0.4197 H   0  0  0  0  0  0  0  0  0  0  0  0
    0.7629    0.1301   -0.1513 H   0  0  0  0  0  0  0  0  0  0  0  0
   -0.3610   -2.7124   -0.5099 H   0  0  0  0  0  0  0  0  0  0  0  0
    1.3546   -2.3010   -0.3981 H   0  0  0  0  0  0  0  0  0  0  0  0
    0.2882   -2.0502    0.9967 H   0  0  0  0  0  0  0  0  0  0  0  0
    1.3183   -0.8954   -2.6081 N   0  0  0  0  0  0  0  0  0  0  0  0
    1.5958   -0.9485   -4.0194 C   0  0  2  0  0  0  0  0  0  0  0  0
    2.5790   -2.0858   -4.2628 C   0  0  0  0  0  0  0  0  0  0  0  0
    3.4588   -2.3949   -3.4619 O   0  0  0  0  0  0  0  0  0  0  0  0
    2.1567    0.3722   -4.5231 C   0  0  0  0  0  0  0  0  0  0  0  0
    2.0723   -1.1224   -1.9628 H   0  0  0  0  0  0  0  0  0  0  0  0
    0.6473   -1.1715   -4.5200 H   0  0  0  0  0  0  0  0  0  0  0  0
    3.1072    0.6125   -4.0328 H   0  0  0  0  0  0  0  0  0  0  0  0
    2.3405    0.3394   -5.6021 H   0  0  0  0  0  0  0  0  0  0  0  0
    1.4612    1.1937   -4.3204 H   0  0  0  0  0  0  0  0  0  0  0  0
    2.3859   -2.6870   -5.4987 N   0  0  0  0  0  0  0  0  0  0  0  0
    3.2197   -3.7633   -5.9809 C   0  0  0  0  0  0  0  0  0  0  0  0
    1.6071   -2.3934   -6.0810 H   0  0  0  0  0  0  0  0  0  0  0  0
    4.0456   -3.3489   -6.5777 H   0  0  0  0  0  0  0  0  0  0  0  0
    3.6292   -4.3210   -5.1258 H   0  0  0  0  0  0  0  0  0  0  0  0
    2.6191   -4.4401   -6.6065 H   0  0  0  0  0  0  0  0  0  0  0  0
  1  3  1  0  0  0  0
  1  7  1  0  0  0  0
  1  2  2  0  0  0  0
 28 29  1  0  0  0  0
 29 37  1  0  0  0  0
 29 30  2  0  0  0  0
 18 19  1  0  0  0  0
 19 27  1  0  0  0  0
 19 20  2  0  0  0  0
  8  9  1  0  0  0  0
  9 17  1  0  0  0  0
  9 10  2  0  0  0  0
 28 31  1  0  0  0  0
 18 21  1  0  0  0  0
  8 11  1  0  0  0  0
 37 38  1  0  0  0  0
 27 28  1  0  0  0  0
 17 18  1  0  0  0  0
  7  8  1  0  0  0  0
  3  4  1  0  0  0  0
  3  5  1  0  0  0  0
  3  6  1  0  0  0  0
 31 34  1  0  0  0  0
 31 35  1  0  0  0  0
 31 36  1  0  0  0  0
 21 24  1  0  0  0  0
 21 25  1  0  0  0  0
 21 26  1  0  0  0  0
 11 14  1  0  0  0  0
 11 15  1  0  0  0  0
 11 16  1  0  0  0  0
 38 40  1  0  0  0  0
 38 41  1  0  0  0  0
 38 42  1  0  0  0  0
 28 33  1  0  0  0  0
 18 23  1  0  0  0  0
  8 13  1  0  0  0  0
 37 39  1  0  0  0  0
  7 12  1  0  0  0  0
 27 32  1  0  0  0  0
 17 22  1  0  0  0  0
M  END
$$$$

  -OEChem-05262214473D

 42 41  0     1  0  0  0  0  0999 V2000
   -5.7851   -0.9580    0.6237 C   0  0  0  0  0  0  0  0  0  0  0  0
   -6.2213    0.1296    0.2652 O   0  0  0  0  0  0  0  0  0  0  0  0
   -6.7088   -2.1270    0.7168 C   0  0  0  0  0  0  0  0  0  0  0  0
   -7.1713   -2.2193    1.7126 H   0  0  0  0  0  0  0  0  0  0  0  0
   -7.5511   -2.0547    0.0101 H   0  0  0  0  0  0  0  0  0  0  0  0
   -6.2485   -3.1083    0.5191 H   0  0  0  0  0  0  0  0  0  0  0  0
   -4.4733   -1.2411    0.9668 N   0  0  0  0  0  0  0  0  0  0  0  0
   -3.4203   -0.2603    0.9449 C   0  0  2  0  0  0  0  0  0  0  0  0
   -2.1242   -0.9699    0.5759 C   0  0  0  0  0  0  0  0  0  0  0  0
   -1.8694   -2.1225    0.9189 O   0  0  0  0  0  0  0  0  0  0  0  0
   -3.2916    0.4435    2.2868 C   0  0  0  0  0  0  0  0  0  0  0  0
   -4.2421   -2.1920    1.2489 H   0  0  0  0  0  0  0  0  0  0  0  0
   -3.6772    0.4622    0.1625 H   0  0  0  0  0  0  0  0  0  0  0  0
   -3.0345   -0.2644    3.0832 H   0  0  0  0  0  0  0  0  0  0  0  0
   -2.5093    1.2092    2.2599 H   0  0  0  0  0  0  0  0  0  0  0  0
   -4.2338    0.9283    2.5645 H   0  0  0  0  0  0  0  0  0  0  0  0
   -1.2626   -0.1515   -0.1463 N   0  0  0  0  0  0  0  0  0  0  0  0
    0.0431   -0.5785   -0.5755 C   0  0  2  0  0  0  0  0  0  0  0  0
    0.0876   -0.4996   -2.0958 C   0  0  0  0  0  0  0  0  0  0  0  0
   -0.7643    0.0844   -2.7624 O   0  0  0  0  0  0  0  0  0  0  0  0
    0.3499   -1.9884   -0.0952 C   0  0  0  0  0  0  0  0  0  0  0  0
   -1.5766    0.7776   -0.4197 H   0  0  0  0  0  0  0  0  0  0  0  0
    0.7629    0.1301   -0.1513 H   0  0  0  0  0  0  0  0  0  0  0  0
   -0.3610   -2.7124   -0.5099 H   0  0  0  0  0  0  0  0  0  0  0  0
    1.3546   -2.3010   -0.3981 H   0  0  0  0  0  0  0  0  0  0  0  0
    0.2882   -2.0502    0.9967 H   0  0  0  0  0  0  0  0  0  0  0  0
    1.1678   -1.1950   -2.6281 N   0  0  0  0  0  0  0  0  0  0  0  0
    1.4045   -1.3049   -4.0434 C   0  0  2  0  0  0  0  0  0  0  0  0
    2.0574   -2.6553   -4.3076 C   0  0  0  0  0  0  0  0  0  0  0  0
    2.8373   -3.1886   -3.5213 O   0  0  0  0  0  0  0  0  0  0  0  0
    2.2815   -0.1693   -4.5476 C   0  0  0  0  0  0  0  0  0  0  0  0
    1.8455   -1.6152   -1.9950 H   0  0  0  0  0  0  0  0  0  0  0  0
    0.4245   -1.2707   -4.5317 H   0  0  0  0  0  0  0  0  0  0  0  0
    3.2677   -0.1873   -4.0696 H   0  0  0  0  0  0  0  0  0  0  0  0
    2.4371   -0.2383   -5.6292 H   0  0  0  0  0  0  0  0  0  0  0  0
    1.8244    0.8021   -4.3301 H   0  0  0  0  0  0  0  0  0  0  0  0
    1.7002   -3.1747   -5.5441 N   0  0  0  0  0  0  0  0  0  0  0  0
    2.2214   -4.4252   -6.0445 C   0  0  0  0  0  0  0  0  0  0  0  0
    1.0166   -2.6844   -6.1134 H   0  0  0  0  0  0  0  0  0  0  0  0
    3.1189   -4.2326   -6.6507 H   0  0  0  0  0  0  0  0  0  0  0  0
    2.4835   -5.0778   -5.1986 H   0  0  0  0  0  0  0  0  0  0  0  0
    1.4587   -4.9181   -6.6652 H   0  0  0  0  0  0  0  0  0  0  0  0
  1  3  1  0  0  0  0
  1  7  1  0  0  0  0
  1  2  2  0  0  0  0
 28 29  1  0  0  0  0
 29 37  1  0  0  0  0
 29 30  2  0  0  0  0
 18 19  1  0  0  0  0
 19 27  1  0  0  0  0
 19 20  2  0  0  0  0
  8  9  1  0  0  0  0
  9 17  1  0  0  0  0
  9 10  2  0  0  0  0
 28 31  1  0  0  0  0
 18 21  1  0  0  0  0
  8 11  1  0  0  0  0
 37 38  1  0  0  0  0
 27 28  1  0  0  0  0
 17 18  1  0  0  0  0
  7  8  1  0  0  0  0
  3  4  1  0  0  0  0
  3  5  1  0  0  0  0
  3  6  1  0  0  0  0
 31 34  1  0  0  0  0
 31 35  1  0  0  0  0
 31 36  1  0  0  0  0
 21 24  1  0  0  0  0
 21 25  1  0  0  0  0
 21 26  1  0  0  0  0
 11 14  1  0  0  0  0
 11 15  1  0  0  0  0
 11 16  1  0  0  0  0
 38 40  1  0  0  0  0
 38 41  1  0  0  0  0
 38 42  1  0  0  0  0
 28 33  1  0  0  0  0
 18 23  1  0  0  0  0
  8 13  1  0  0  0  0
 37 39  1  0  0  0  0
  7 12  1  0  0  0  0
 27 32  1  0  0  0  0
 17 22  1  0  0  0  0
M  END
$$$$

  -OEChem-05262214473D

 42 41  0     1  0  0  0  0  0999 V2000
   -5.7851   -0.9580    0.6237 C   0  0  0  0  0  0  0  0  0  0  0  0
   -6.2213    0.1296    0.2652 O   0  0  0  0  0  0  0  0  0  0  0  0
   -6.7088   -2.1270    0.7168 C   0  0  0  0  0  0  0  0  0  0  0  0
   -7.1713   -2.2193    1.7126 H   0  0  0  0  0  0  0  0  0  0  0  0
   -7.5511   -2.0547    0.0101 H   0  0  0  0  0  0  0  0  0  0  0  0
   -6.2485   -3.1083    0.5191 H   0  0  0  0  0  0  0  0  0  0  0  0
   -4.4733   -1.2411    0.9668 N   0  0  0  0  0  0  0  0  0  0  0  0
   -3.4203   -0.2603    0.9449 C   0  0  2  0  0  0  0  0  0  0  0  0
   -2.1242   -0.9699    0.5759 C   0  0  0  0  0  0  0  0  0  0  0  0
   -1.8694   -2.1225    0.9189 O   0  0  0  0  0  0  0  0  0  0  0  0
   -3.2916    0.4435    2.2868 C   0  0  0  0  0  0  0  0  0  0  0  0
   -4.2421   -2.1920    1.2489 H   0  0  0  0  0  0  0  0  0  0  0  0
   -3.6772    0.4622    0.1625 H   0  0  0  0  0  0  0  0  0  0  0  0
   -3.0345   -0.2644    3.0832 H   0  0  0  0  0  0  0  0  0  0  0  0
   -2.5093    1.2092    2.2599 H   0  0  0  0  0  0  0  0  0  0  0  0
   -4.2338    0.9283    2.5645 H   0  0  0  0  0  0  0  0  0  0  0  0
   -1.2626   -0.1515   -0.1463 N   0  0  0  0  0  0  0  0  0  0  0  0
    0.0431   -0.5785   -0.5755 C   0  0  2  0  0  0  0  0  0  0  0  0
    0.0876   -0.4996   -2.0958 C   0  0  0  0  0  0  0  0  0  0  0  0
   -0.5926    0.2908   -2.7467 O   0  0  0  0  0  0  0  0  0  0  0  0
    0.3499   -1.9884   -0.0952 C   0  0  0  0  0  0  0  0  0  0  0  0
   -1.5766    0.7776   -0.4197 H   0  0  0  0  0  0  0  0  0  0  0  0
    0.7629    0.1301   -0.1513 H   0  0  0  0  0  0  0  0  0  0  0  0
   -0.3610   -2.7124   -0.5099 H   0  0  0  0  0  0  0  0  0  0  0  0
    1.3546   -2.3010   -0.3981 H   0  0  0  0  0  0  0  0  0  0  0  0
    0.2882   -2.0502    0.9967 H   0  0  0  0  0  0  0  0  0  0  0  0
    0.9447   -1.4455   -2.6476 N   0  0  0  0  0  0  0  0  0  0  0  0
    1.1274   -1.5996   -4.0668 C   0  0  2  0  0  0  0  0  0  0  0  0
    1.4058   -3.0702   -4.3482 C   0  0  0  0  0  0  0  0  0  0  0  0
    2.0311   -3.7942   -3.5763 O   0  0  0  0  0  0  0  0  0  0  0  0
    2.2617   -0.7244   -4.5769 C   0  0  0  0  0  0  0  0  0  0  0  0
    1.4986   -2.0323   -2.0268 H   0  0  0  0  0  0  0  0  0  0  0  0
    0.1835   -1.3088   -4.5407 H   0  0  0  0  0  0  0  0  0  0  0  0
    3.2157   -1.0009   -4.1133 H   0  0  0  0  0  0  0  0  0  0  0  0
    2.3808   -0.8212   -5.6611 H   0  0  0  0  0  0  0  0  0  0  0  0
    2.0739    0.3300   -4.3473 H   0  0  0  0  0  0  0  0  0  0  0  0
    0.9112   -3.4682   -5.5824 N   0  0  0  0  0  0  0  0  0  0  0  0
    1.0854   -4.8062   -6.0975 C   0  0  0  0  0  0  0  0  0  0  0  0
    0.3705   -2.8127   -6.1389 H   0  0  0  0  0  0  0  0  0  0  0  0
    1.9945   -4.8464   -6.7154 H   0  0  0  0  0  0  0  0  0  0  0  0
    1.1804   -5.5122   -5.2593 H   0  0  0  0  0  0  0  0  0  0  0  0
    0.2135   -5.0795   -6.7100 H   0  0  0  0  0  0  0  0  0  0  0  0
  1  3  1  0  0  0  0
  1  7  1  0  0  0  0
  1  2  2  0  0  0  0
 28 29  1  0  0  0  0
 29 37  1  0  0  0  0
 29 30  2  0  0  0  0
 18 19  1  0  0  0  0
 19 27  1  0  0  0  0
 19 20  2  0  0  0  0
  8  9  1  0  0  0  0
  9 17  1  0  0  0  0
  9 10  2  0  0  0  0
 28 31  1  0  0  0  0
 18 21  1  0  0  0  0
  8 11  1  0  0  0  0
 37 38  1  0  0  0  0
 27 28  1  0  0  0  0
 17 18  1  0  0  0  0
  7  8  1  0  0  0  0
  3  4  1  0  0  0  0
  3  5  1  0  0  0  0
  3  6  1  0  0  0  0
 31 34  1  0  0  0  0
 31 35  1  0  0  0  0
 31 36  1  0  0  0  0
 21 24  1  0  0  0  0
 21 25  1  0  0  0  0
 21 26  1  0  0  0  0
 11 14  1  0  0  0  0
 11 15  1  0  0  0  0
 11 16  1  0  0  0  0
 38 40  1  0  0  0  0
 38 41  1  0  0  0  0
 38 42  1  0  0  0  0
 28 33  1  0  0  0  0
 18 23  1  0  0  0  0
  8 13  1  0  0  0  0
 37 39  1  0  0  0  0
  7 12  1  0  0  0  0
 27 32  1  0  0  0  0
 17 22  1  0  0  0  0
M  END
$$$$

  -OEChem-05262214473D

 42 41  0     1  0  0  0  0  0999 V2000
   -5.7851   -0.9580    0.6237 C   0  0  0  0  0  0  0  0  0  0  0  0
   -6.2213    0.1296    0.2652 O   0  0  0  0  0  0  0  0  0  0  0  0
   -6.7088   -2.1270    0.7168 C   0  0  0  0  0  0  0  0  0  0  0  0
   -7.1713   -2.2193    1.7126 H   0  0  0  0  0  0  0  0  0  0  0  0
   -7.5511   -2.0547    0.0101 H   0  0  0  0  0  0  0  0  0  0  0  0
   -6.2485   -3.1083    0.5191 H   0  0  0  0  0  0  0  0  0  0  0  0
   -4.4733   -1.2411    0.9668 N   0  0  0  0  0  0  0  0  0  0  0  0
   -3.4203   -0.2603    0.9449 C   0  0  2  0  0  0  0  0  0  0  0  0
   -2.1242   -0.9699    0.5759 C   0  0  0  0  0  0  0  0  0  0  0  0
   -1.8694   -2.1225    0.9189 O   0  0  0  0  0  0  0  0  0  0  0  0
   -3.2916    0.4435    2.2868 C   0  0  0  0  0  0  0  0  0  0  0  0
   -4.2421   -2.1920    1.2489 H   0  0  0  0  0  0  0  0  0  0  0  0
   -3.6772    0.4622    0.1625 H   0  0  0  0  0  0  0  0  0  0  0  0
   -3.0345   -0.2644    3.0832 H   0  0  0  0  0  0  0  0  0  0  0  0
   -2.5093    1.2092    2.2599 H   0  0  0  0  0  0  0  0  0  0  0  0
   -4.2338    0.9283    2.5645 H   0  0  0  0  0  0  0  0  0  0  0  0
   -1.2626   -0.1515   -0.1463 N   0  0  0  0  0  0  0  0  0  0  0  0
    0.0431   -0.5785   -0.5755 C   0  0  2  0  0  0  0  0  0  0  0  0
    0.0876   -0.4996   -2.0958 C   0  0  0  0  0  0  0  0  0  0  0  0
   -0.3733    0.4457   -2.7322 O   0  0  0  0  0  0  0  0  0  0  0  0
    0.3499   -1.9884   -0.0952 C   0  0  0  0  0  0  0  0  0  0  0  0
   -1.5766    0.7776   -0.4197 H   0  0  0  0  0  0  0  0  0  0  0  0
    0.7629    0.1301   -0.1513 H   0  0  0  0  0  0  0  0  0  0  0  0
   -0.3610   -2.7124   -0.5099 H   0  0  0  0  0  0  0  0  0  0  0  0
    1.3546   -2.3010   -0.3981 H   0  0  0  0  0  0  0  0  0  0  0  0
    0.2882   -2.0502    0.9967 H   0  0  0  0  0  0  0  0  0  0  0  0
    0.6642   -1.6296   -2.6654 N   0  0  0  0  0  0  0  0  0  0  0  0
    0.7833   -1.8124   -4.0879 C   0  0  2  0  0  0  0  0  0  0  0  0
    0.6687   -3.3024   -4.3818 C   0  0  0  0  0  0  0  0  0  0  0  0
    1.0952   -4.1705   -3.6232 O   0  0  0  0  0  0  0  0  0  0  0  0
    2.0988   -1.2552   -4.6092 C   0  0  0  0  0  0  0  0  0  0  0  0
    1.0553   -2.3453   -2.0560 H   0  0  0  0  0  0  0  0  0  0  0  0
   -0.0592   -1.2833   -4.5465 H   0  0  0  0  0  0  0  0  0  0  0  0
    2.9546   -1.7731   -4.1610 H   0  0  0  0  0  0  0  0  0  0  0  0
    2.1754   -1.3694   -5.6956 H   0  0  0  0  0  0  0  0  0  0  0  0
    2.1927   -0.1903   -4.3708 H   0  0  0  0  0  0  0  0  0  0  0  0
    0.0728   -3.5476   -5.6110 N   0  0  0  0  0  0  0  0  0  0  0  0
   -0.1111   -4.8803   -6.1363 C   0  0  0  0  0  0  0  0  0  0  0  0
   -0.2871   -2.7695   -6.1559 H   0  0  0  0  0  0  0  0  0  0  0  0
    0.7490   -5.1482   -6.7675 H   0  0  0  0  0  0  0  0  0  0  0  0
   -0.1914   -5.5946   -5.3037 H   0  0  0  0  0  0  0  0  0  0  0  0
   -1.0315   -4.9134   -6.7378 H   0  0  0  0  0  0  0  0  0  0  0  0
  1  3  1  0  0  0  0
  1  7  1  0  0  0  0
  1  2  2  0  0  0  0
 28 29  1  0  0  0  0
 29 37  1  0  0  0  0
 29 30  2  0  0  0  0
 18 19  1  0  0  0  0
 19 27  1  0  0  0  0
 19 20  2  0  0  0  0
  8  9  1  0  0  0  0
  9 17  1  0  0  0  0
  9 10  2  0  0  0  0
 28 31  1  0  0  0  0
 18 21  1  0  0  0  0
  8 11  1  0  0  0  0
 37 38  1  0  0  0  0
 27 28  1  0  0  0  0
 17 18  1  0  0  0  0
  7  8  1  0  0  0  0
  3  4  1  0  0  0  0
  3  5  1  0  0  0  0
  3  6  1  0  0  0  0
 31 34  1  0  0  0  0
 31 35  1  0  0  0  0
 31 36  1  0  0  0  0
 21 24  1  0  0  0  0
 21 25  1  0  0  0  0
 21 26  1  0  0  0  0
 11 14  1  0  0  0  0
 11 15  1  0  0  0  0
 11 16  1  0  0  0  0
 38 40  1  0  0  0  0
 38 41  1  0  0  0  0
 38 42  1  0  0  0  0
 28 33  1  0  0  0  0
 18 23  1  0  0  0  0
  8 13  1  0  0  0  0
 37 39  1  0  0  0  0
  7 12  1  0  0  0  0
 27 32  1  0  0  0  0
 17 22  1  0  0  0  0
M  END
$$$$

  -OEChem-05262214473D

 42 41  0     1  0  0  0  0  0999 V2000
   -5.7851   -0.9580    0.6237 C   0  0  0  0  0  0  0  0  0  0  0  0
   -6.2213    0.1296    0.2652 O   0  0  0  0  0  0  0  0  0  0  0  0
   -6.7088   -2.1270    0.7168 C   0  0  0  0  0  0  0  0  0  0  0  0
   -7.1713   -2.2193    1.7126 H   0  0  0  0  0  0  0  0  0  0  0  0
   -7.5511   -2.0547    0.0101 H   0  0  0  0  0  0  0  0  0  0  0  0
   -6.2485   -3.1083    0.5191 H   0  0  0  0  0  0  0  0  0  0  0  0
   -4.4733   -1.2411    0.9668 N   0  0  0  0  0  0  0  0  0  0  0  0
   -3.4203   -0.2603    0.9449 C   0  0  2  0  0  0  0  0  0  0  0  0
   -2.1242   -0.9699    0.5759 C   0  0  0  0  0  0  0  0  0  0  0  0
   -1.8694   -2.1225    0.9189 O   0  0  0  0  0  0  0  0  0  0  0  0
   -3.2916    0.4435    2.2868 C   0  0  0  0  0  0  0  0  0  0  0  0
   -4.2421   -2.1920    1.2489 H   0  0  0  0  0  0  0  0  0  0  0  0
   -3.6772    0.4622    0.1625 H   0  0  0  0  0  0  0  0  0  0  0  0
   -3.0345   -0.2644    3.0832 H   0  0  0  0  0  0  0  0  0  0  0  0
   -2.5093    1.2092    2.2599 H   0  0  0  0  0  0  0  0  0  0  0  0
   -4.2338    0.9283    2.5645 H   0  0  0  0  0  0  0  0  0  0  0  0
   -1.2626   -0.1515   -0.1463 N   0  0  0  0  0  0  0  0  0  0  0  0
    0.0431   -0.5785   -0.5755 C   0  0  2  0  0  0  0  0  0  0  0  0
    0.0876   -0.4996   -2.0958 C   0  0  0  0  0  0  0  0  0  0  0  0
   -0.1212    0.5386   -2.7200 O   0  0  0  0  0  0  0  0  0  0  0  0
    0.3499   -1.9884   -0.0952 C   0  0  0  0  0  0  0  0  0  0  0  0
   -1.5766    0.7776   -0.4197 H   0  0  0  0  0  0  0  0  0  0  0  0
    0.7629    0.1301   -0.1513 H   0  0  0  0  0  0  0  0  0  0  0  0
   -0.3610   -2.7124   -0.5099 H   0  0  0  0  0  0  0  0  0  0  0  0
    1.3546   -2.3010   -0.3981 H   0  0  0  0  0  0  0  0  0  0  0  0
    0.2882   -2.0502    0.9967 H   0  0  0  0  0  0  0  0  0  0  0  0
    0.3455   -1.7348   -2.6801 N   0  0  0  0  0  0  0  0  0  0  0  0
    0.3957   -1.9290   -4.1053 C   0  0  2  0  0  0  0  0  0  0  0  0
   -0.1037   -3.3360   -4.4062 C   0  0  0  0  0  0  0  0  0  0  0  0
    0.0933   -4.2918   -3.6588 O   0  0  0  0  0  0  0  0  0  0  0  0
    1.8039   -1.7256   -4.6423 C   0  0  0  0  0  0  0  0  0  0  0  0
    0.5459   -2.5330   -2.0806 H   0  0  0  0  0  0  0  0  0  0  0  0
   -0.2871   -1.1959   -4.5486 H   0  0  0  0  0  0  0  0  0  0  0  0
    2.5023   -2.4512   -4.2094 H   0  0  0  0  0  0  0  0  0  0  0  0
    1.8349   -1.8456   -5.7302 H   0  0  0  0  0  0  0  0  0  0  0  0
    2.1728   -0.7234   -4.3990 H   0  0  0  0  0  0  0  0  0  0  0  0
   -0.7579   -3.4074   -5.6281 N   0  0  0  0  0  0  0  0  0  0  0  0
   -1.2865   -4.6425   -6.1584 C   0  0  0  0  0  0  0  0  0  0  0  0
   -0.9112   -2.5578   -6.1632 H   0  0  0  0  0  0  0  0  0  0  0  0
   -0.5327   -5.1175   -6.8034 H   0  0  0  0  0  0  0  0  0  0  0  0
   -1.5383   -5.3195   -5.3288 H   0  0  0  0  0  0  0  0  0  0  0  0
   -2.1916   -4.4311   -6.7467 H   0  0  0  0  0  0  0  0  0  0  0  0
  1  3  1  0  0  0  0
  1  7  1  0  0  0  0
  1  2  2  0  0  0  0
 28 29  1  0  0  0  0
 29 37  1  0  0  0  0
 29 30  2  0  0  0  0
 18 19  1  0  0  0  0
 19 27  1  0  0  0  0
 19 20  2  0  0  0  0
  8  9  1  0  0  0  0
  9 17  1  0  0  0  0
  9 10  2  0  0  0  0
 28 31  1  0  0  0  0
 18 21  1  0  0  0  0
  8 11  1  0  0  0  0
 37 38  1  0  0  0  0
 27 28  1  0  0  0  0
 17 18  1  0  0  0  0
  7  8  1  0  0  0  0
  3  4  1  0  0  0  0
  3  5  1  0  0  0  0
  3  6  1  0  0  0  0
 31 34  1  0  0  0  0
 31 35  1  0  0  0  0
 31 36  1  0  0  0  0
 21 24  1  0  0  0  0
 21 25  1  0  0  0  0
 21 26  1  0  0  0  0
 11 14  1  0  0  0  0
 11 15  1  0  0  0  0
 11 16  1  0  0  0  0
 38 40  1  0  0  0  0
 38 41  1  0  0  0  0
 38 42  1  0  0  0  0
 28 33  1  0  0  0  0
 18 23  1  0  0  0  0
  8 13  1  0  0  0  0
 37 39  1  0  0  0  0
  7 12  1  0  0  0  0
 27 32  1  0  0  0  0
 17 22  1  0  0  0  0
M  END
$$$$

  -OEChem-05262214473D

 42 41  0     1  0  0  0  0  0999 V2000
   -5.7851   -0.9580    0.6237 C   0  0  0  0  0  0  0  0  0  0  0  0
   -6.2213    0.1296    0.2652 O   0  0  0  0  0  0  0  0  0  0  0  0
   -6.7088   -2.1270    0.7168 C   0  0  0  0  0  0  0  0  0  0  0  0
   -7.1713   -2.2193    1.7126 H   0  0  0  0  0  0  0  0  0  0  0  0
   -7.5511   -2.0547    0.0101 H   0  0  0  0  0  0  0  0  0  0  0  0
   -6.2485   -3.1083    0.5191 H   0  0  0  0  0  0  0  0  0  0  0  0
   -4.4733   -1.2411    0.9668 N   0  0  0  0  0  0  0  0  0  0  0  0
   -3.4203   -0.2603    0.9449 C   0  0  2  0  0  0  0  0  0  0  0  0
   -2.1242   -0.9699    0.5759 C   0  0  0  0  0  0  0  0  0  0  0  0
   -1.8694   -2.1225    0.9189 O   0  0  0  0  0  0  0  0  0  0  0  0
   -3.2916    0.4435    2.2868 C   0  0  0  0  0  0  0  0  0  0  0  0
   -4.2421   -2.1920    1.2489 H   0  0  0  0  0  0  0  0  0  0  0  0
   -3.6772    0.4622    0.1625 H   0  0  0  0  0  0  0  0  0  0  0  0
   -3.0345   -0.2644    3.0832 H   0  0  0  0  0  0  0  0  0  0  0  0
   -2.5093    1.2092    2.2599 H   0  0  0  0  0  0  0  0  0  0  0  0
   -4.2338    0.9283    2.5645 H   0  0  0  0  0  0  0  0  0  0  0  0
   -1.2626   -0.1515   -0.1463 N   0  0  0  0  0  0  0  0  0  0  0  0
    0.0431   -0.5785   -0.5755 C   0  0  2  0  0  0  0  0  0  0  0  0
    0.0876   -0.4996   -2.0958 C   0  0  0  0  0  0  0  0  0  0  0  0
    0.1465    0.5630   -2.7109 O   0  0  0  0  0  0  0  0  0  0  0  0
    0.3499   -1.9884   -0.0952 C   0  0  0  0  0  0  0  0  0  0  0  0
   -1.5766    0.7776   -0.4197 H   0  0  0  0  0  0  0  0  0  0  0  0
    0.7629    0.1301   -0.1513 H   0  0  0  0  0  0  0  0  0  0  0  0
   -0.3610   -2.7124   -0.5099 H   0  0  0  0  0  0  0  0  0  0  0  0
    1.3546   -2.3010   -0.3981 H   0  0  0  0  0  0  0  0  0  0  0  0
    0.2882   -2.0502    0.9967 H   0  0  0  0  0  0  0  0  0  0  0  0
    0.0103   -1.7540   -2.6909 N   0  0  0  0  0  0  0  0  0  0  0  0
   -0.0091   -1.9413   -4.1178 C   0  0  2  0  0  0  0  0  0  0  0  0
   -0.8588   -3.1686   -4.4196 C   0  0  0  0  0  0  0  0  0  0  0  0
   -0.9062   -4.1499   -3.6806 O   0  0  0  0  0  0  0  0  0  0  0  0
    1.3970   -2.1036   -4.6738 C   0  0  0  0  0  0  0  0  0  0  0  0
    0.0051   -2.5824   -2.0990 H   0  0  0  0  0  0  0  0  0  0  0  0
   -0.4847   -1.0526   -4.5469 H   0  0  0  0  0  0  0  0  0  0  0  0
    1.8895   -2.9889   -4.2552 H   0  0  0  0  0  0  0  0  0  0  0  0
    1.3825   -2.2173   -5.7627 H   0  0  0  0  0  0  0  0  0  0  0  0
    2.0154   -1.2329   -4.4301 H   0  0  0  0  0  0  0  0  0  0  0  0
   -1.5244   -3.0573   -5.6323 N   0  0  0  0  0  0  0  0  0  0  0  0
   -2.3607   -4.1089   -6.1621 C   0  0  0  0  0  0  0  0  0  0  0  0
   -1.4596   -2.1919   -6.1603 H   0  0  0  0  0  0  0  0  0  0  0  0
   -1.7633   -4.7565   -6.8207 H   0  0  0  0  0  0  0  0  0  0  0  0
   -2.7686   -4.7056   -5.3329 H   0  0  0  0  0  0  0  0  0  0  0  0
   -3.1877   -3.6654   -6.7361 H   0  0  0  0  0  0  0  0  0  0  0  0
  1  3  1  0  0  0  0
  1  7  1  0  0  0  0
  1  2  2  0  0  0  0
 28 29  1  0  0  0  0
 29 37  1  0  0  0  0
 29 30  2  0  0  0  0
 18 19  1  0  0  0  0
 19 27  1  0  0  0  0
 19 20  2  0  0  0  0
  8  9  1  0  0  0  0
  9 17  1  0  0  0  0
  9 10  2  0  0  0  0
 28 31  1  0  0  0  0
 18 21  1  0  0  0  0
  8 11  1  0  0  0  0
 37 38  1  0  0  0  0
 27 28  1  0  0  0  0
 17 18  1  0  0  0  0
  7  8  1  0  0  0  0
  3  4  1  0  0  0  0
  3  5  1  0  0  0  0
  3  6  1  0  0  0  0
 31 34  1  0  0  0  0
 31 35  1  0  0  0  0
 31 36  1  0  0  0  0
 21 24  1  0  0  0  0
 21 25  1  0  0  0  0
 21 26  1  0  0  0  0
 11 14  1  0  0  0  0
 11 15  1  0  0  0  0
 11 16  1  0  0  0  0
 38 40  1  0  0  0  0
 38 41  1  0  0  0  0
 38 42  1  0  0  0  0
 28 33  1  0  0  0  0
 18 23  1  0  0  0  0
  8 13  1  0  0  0  0
 37 39  1  0  0  0  0
  7 12  1  0  0  0  0
 27 32  1  0  0  0  0
 17 22  1  0  0  0  0
M  END
$$$$

  -OEChem-05262214473D

 42 41  0     1  0  0  0  0  0999 V2000
   -5.7851   -0.9580    0.6237 C   0  0  0  0  0  0  0  0  0  0  0  0
   -6.2213    0.1296    0.2652 O   0  0  0  0  0  0  0  0  0  0  0  0
   -6.7088   -2.1270    0.7168 C   0  0  0  0  0  0  0  0  0  0  0  0
   -7.1713   -2.2193    1.7126 H   0  0  0  0  0  0  0  0  0  0  0  0
   -7.5511   -2.0547    0.0101 H   0  0  0  0  0  0  0  0  0  0  0  0
   -6.2485   -3.1083    0.5191 H   0  0  0  0  0  0  0  0  0  0  0  0
   -4.4733   -1.2411    0.9668 N   0  0  0  0  0  0  0  0  0  0  0  0
   -3.4203   -0.2603    0.9449 C   0  0  2  0  0  0  0  0  0  0  0  0
   -2.1242   -0.9699    0.5759 C   0  0  0  0  0  0  0  0  0  0  0  0
   -1.8694   -2.1225    0.9189 O   0  0  0  0  0  0  0  0  0  0  0  0
   -3.2916    0.4435    2.2868 C   0  0  0  0  0  0  0  0  0  0  0  0
   -4.2421   -2.1920    1.2489 H   0  0  0  0  0  0  0  0  0  0  0  0
   -3.6772    0.4622    0.1625 H   0  0  0  0  0  0  0  0  0  0  0  0
   -3.0345   -0.2644    3.0832 H   0  0  0  0  0  0  0  0  0  0  0  0
   -2.5093    1.2092    2.2599 H   0  0  0  0  0  0  0  0  0  0  0  0
   -4.2338    0.9283    2.5645 H   0  0  0  0  0  0  0  0  0  0  0  0
   -1.2626   -0.1515   -0.1463 N   0  0  0  0  0  0  0  0  0  0  0  0
    0.0431   -0.5785   -0.5755 C   0  0  2  0  0  0  0  0  0  0  0  0
    0.0876   -0.4996   -2.0958 C   0  0  0  0  0  0  0  0  0  0  0  0
    0.4114    0.5175   -2.7056 O   0  0  0  0  0  0  0  0  0  0  0  0
    0.3499   -1.9884   -0.0952 C   0  0  0  0  0  0  0  0  0  0  0  0
   -1.5766    0.7776   -0.4197 H   0  0  0  0  0  0  0  0  0  0  0  0
    0.7629    0.1301   -0.1513 H   0  0  0  0  0  0  0  0  0  0  0  0
   -0.3610   -2.7124   -0.5099 H   0  0  0  0  0  0  0  0  0  0  0  0
    1.3546   -2.3010   -0.3981 H   0  0  0  0  0  0  0  0  0  0  0  0
    0.2882   -2.0502    0.9967 H   0  0  0  0  0  0  0  0  0  0  0  0
   -0.3186   -1.6859   -2.6970 N   0  0  0  0  0  0  0  0  0  0  0  0
   -0.4035   -1.8484   -4.1245 C   0  0  2  0  0  0  0  0  0  0  0  0
   -1.5451   -2.8118   -4.4211 C   0  0  0  0  0  0  0  0  0  0  0  0
   -1.8353   -3.7543   -3.6873 O   0  0  0  0  0  0  0  0  0  0  0  0
    0.9060   -2.3633   -4.7016 C   0  0  0  0  0  0  0  0  0  0  0  0
   -0.5304   -2.4903   -2.1099 H   0  0  0  0  0  0  0  0  0  0  0  0
   -0.6385   -0.8632   -4.5416 H   0  0  0  0  0  0  0  0  0  0  0  0
    1.1581   -3.3496   -4.2953 H   0  0  0  0  0  0  0  0  0  0  0  0
    0.8490   -2.4593   -5.7909 H   0  0  0  0  0  0  0  0  0  0  0  0
    1.7313   -1.6842   -4.4618 H   0  0  0  0  0  0  0  0  0  0  0  0
   -2.1743   -2.5210   -5.6235 N   0  0  0  0  0  0  0  0  0  0  0  0
   -3.2605   -3.3159   -6.1473 C   0  0  0  0  0  0  0  0  0  0  0  0
   -1.8946   -1.6969   -6.1473 H   0  0  0  0  0  0  0  0  0  0  0  0
   -2.8590   -4.0897   -6.8181 H   0  0  0  0  0  0  0  0  0  0  0  0
   -3.7984   -3.7948   -5.3158 H   0  0  0  0  0  0  0  0  0  0  0  0
   -3.9518   -2.6686   -6.7068 H   0  0  0  0  0  0  0  0  0  0  0  0
  1  3  1  0  0  0  0
  1  7  1  0  0  0  0
  1  2  2  0  0  0  0
 28 29  1  0  0  0  0
 29 37  1  0  0  0  0
 29 30  2  0  0  0  0
 18 19  1  0  0  0  0
 19 27  1  0  0  0  0
 19 20  2  0  0  0  0
  8  9  1  0  0  0  0
  9 17  1  0  0  0  0
  9 10  2  0  0  0  0
 28 31  1  0  0  0  0
 18 21  1  0  0  0  0
  8 11  1  0  0  0  0
 37 38  1  0  0  0  0
 27 28  1  0  0  0  0
 17 18  1  0  0  0  0
  7  8  1  0  0  0  0
  3  4  1  0  0  0  0
  3  5  1  0  0  0  0
  3  6  1  0  0  0  0
 31 34  1  0  0  0  0
 31 35  1  0  0  0  0
 31 36  1  0  0  0  0
 21 24  1  0  0  0  0
 21 25  1  0  0  0  0
 21 26  1  0  0  0  0
 11 14  1  0  0  0  0
 11 15  1  0  0  0  0
 11 16  1  0  0  0  0
 38 40  1  0  0  0  0
 38 41  1  0  0  0  0
 38 42  1  0  0  0  0
 28 33  1  0  0  0  0
 18 23  1  0  0  0  0
  8 13  1  0  0  0  0
 37 39  1  0  0  0  0
  7 12  1  0  0  0  0
 27 32  1  0  0  0  0
 17 22  1  0  0  0  0
M  END
$$$$

  -OEChem-05262214473D

 42 41  0     1  0  0  0  0  0999 V2000
   -5.7851   -0.9580    0.6237 C   0  0  0  0  0  0  0  0  0  0  0  0
   -6.2213    0.1296    0.2652 O   0  0  0  0  0  0  0  0  0  0  0  0
   -6.7088   -2.1270    0.7168 C   0  0  0  0  0  0  0  0  0  0  0  0
   -7.1713   -2.2193    1.7126 H   0  0  0  0  0  0  0  0  0  0  0  0
   -7.5511   -2.0547    0.0101 H   0  0  0  0  0  0  0  0  0  0  0  0
   -6.2485   -3.1083    0.5191 H   0  0  0  0  0  0  0  0  0  0  0  0
   -4.4733   -1.2411    0.9668 N   0  0  0  0  0  0  0  0  0  0  0  0
   -3.4203   -0.2603    0.9449 C   0  0  2  0  0  0  0  0  0  0  0  0
   -2.1242   -0.9699    0.5759 C   0  0  0  0  0  0  0  0  0  0  0  0
   -1.8694   -2.1225    0.9189 O   0  0  0  0  0  0  0  0  0  0  0  0
   -3.2916    0.4435    2.2868 C   0  0  0  0  0  0  0  0  0  0  0  0
   -4.2421   -2.1920    1.2489 H   0  0  0  0  0  0  0  0  0  0  0  0
   -3.6772    0.4622    0.1625 H   0  0  0  0  0  0  0  0  0  0  0  0
   -3.0345   -0.2644    3.0832 H   0  0  0  0  0  0  0  0  0  0  0  0
   -2.5093    1.2092    2.2599 H   0  0  0  0  0  0  0  0  0  0  0  0
   -4.2338    0.9283    2.5645 H   0  0  0  0  0  0  0  0  0  0  0  0
   -1.2626   -0.1515   -0.1463 N   0  0  0  0  0  0  0  0  0  0  0  0
    0.0431   -0.5785   -0.5755 C   0  0  2  0  0  0  0  0  0  0  0  0
    0.0876   -0.4996   -2.0958 C   0  0  0  0  0  0  0  0  0  0  0  0
    0.6557    0.4049   -2.7042 O   0  0  0  0  0  0  0  0  0  0  0  0
    0.3499   -1.9884   -0.0952 C   0  0  0  0  0  0  0  0  0  0  0  0
   -1.5766    0.7776   -0.4197 H   0  0  0  0  0  0  0  0  0  0  0  0
    0.7629    0.1301   -0.1513 H   0  0  0  0  0  0  0  0  0  0  0  0
   -0.3610   -2.7124   -0.5099 H   0  0  0  0  0  0  0  0  0  0  0  0
    1.3546   -2.3010   -0.3981 H   0  0  0  0  0  0  0  0  0  0  0  0
    0.2882   -2.0502    0.9967 H   0  0  0  0  0  0  0  0  0  0  0  0
   -0.6188   -1.5351   -2.6980 N   0  0  0  0  0  0  0  0  0  0  0  0
   -0.7605   -1.6569   -4.1250 C   0  0  2  0  0  0  0  0  0  0  0  0
   -2.1159   -2.2898   -4.4108 C   0  0  0  0  0  0  0  0  0  0  0  0
   -2.6306   -3.1322   -3.6783 O   0  0  0  0  0  0  0  0  0  0  0  0
    0.3642   -2.4871   -4.7239 C   0  0  0  0  0  0  0  0  0  0  0  0
   -1.0239   -2.2629   -2.1125 H   0  0  0  0  0  0  0  0  0  0  0  0
   -0.7381   -0.6404   -4.5330 H   0  0  0  0  0  0  0  0  0  0  0  0
    0.3579   -3.5088   -4.3270 H   0  0  0  0  0  0  0  0  0  0  0  0
    0.2708   -2.5549   -5.8128 H   0  0  0  0  0  0  0  0  0  0  0  0
    1.3399   -2.0465   -4.4920 H   0  0  0  0  0  0  0  0  0  0  0  0
   -2.6634   -1.8352   -5.6023 N   0  0  0  0  0  0  0  0  0  0  0  0
   -3.9246   -2.3176   -6.1149 C   0  0  0  0  0  0  0  0  0  0  0  0
   -2.1868   -1.1064   -6.1252 H   0  0  0  0  0  0  0  0  0  0  0  0
   -3.7450   -3.1626   -6.7959 H   0  0  0  0  0  0  0  0  0  0  0  0
   -4.5576   -2.6490   -5.2786 H   0  0  0  0  0  0  0  0  0  0  0  0
   -4.4320   -1.5085   -6.6607 H   0  0  0  0  0  0  0  0  0  0  0  0
  1  3  1  0  0  0  0
  1  7  1  0  0  0  0
  1  2  2  0  0  0  0
 28 29  1  0  0  0  0
 29 37  1  0  0  0  0
 29 30  2  0  0  0  0
 18 19  1  0  0  0  0
 19 27  1  0  0  0  0
 19 20  2  0  0  0  0
  8  9  1  0  0  0  0
  9 17  1  0  0  0  0
  9 10  2  0  0  0  0
 28 31  1  0  0  0  0
 18 21  1  0  0  0  0
  8 11  1  0  0  0  0
 37 38  1  0  0  0  0
 27 28  1  0  0  0  0
 17 18  1  0  0  0  0
  7  8  1  0  0  0  0
  3  4  1  0  0  0  0
  3  5  1  0  0  0  0
  3  6  1  0  0  0  0
 31 34  1  0  0  0  0
 31 35  1  0  0  0  0
 31 36  1  0  0  0  0
 21 24  1  0  0  0  0
 21 25  1  0  0  0  0
 21 26  1  0  0  0  0
 11 14  1  0  0  0  0
 11 15  1  0  0  0  0
 11 16  1  0  0  0  0
 38 40  1  0  0  0  0
 38 41  1  0  0  0  0
 38 42  1  0  0  0  0
 28 33  1  0  0  0  0
 18 23  1  0  0  0  0
  8 13  1  0  0  0  0
 37 39  1  0  0  0  0
  7 12  1  0  0  0  0
 27 32  1  0  0  0  0
 17 22  1  0  0  0  0
M  END
$$$$

  -OEChem-05262214473D

 42 41  0     1  0  0  0  0  0999 V2000
   -5.7851   -0.9580    0.6237 C   0  0  0  0  0  0  0  0  0  0  0  0
   -6.2213    0.1296    0.2652 O   0  0  0  0  0  0  0  0  0  0  0  0
   -6.7088   -2.1270    0.7168 C   0  0  0  0  0  0  0  0  0  0  0  0
   -7.1713   -2.2193    1.7126 H   0  0  0  0  0  0  0  0  0  0  0  0
   -7.5511   -2.0547    0.0101 H   0  0  0  0  0  0  0  0  0  0  0  0
   -6.2485   -3.1083    0.5191 H   0  0  0  0  0  0  0  0  0  0  0  0
   -4.4733   -1.2411    0.9668 N   0  0  0  0  0  0  0  0  0  0  0  0
   -3.4203   -0.2603    0.9449 C   0  0  2  0  0  0  0  0  0  0  0  0
   -2.1242   -0.9699    0.5759 C   0  0  0  0  0  0  0  0  0  0  0  0
   -1.8694   -2.1225    0.9189 O   0  0  0  0  0  0  0  0  0  0  0  0
   -3.2916    0.4435    2.2868 C   0  0  0  0  0  0  0  0  0  0  0  0
   -4.2421   -2.1920    1.2489 H   0  0  0  0  0  0  0  0  0  0  0  0
   -3.6772    0.4622    0.1625 H   0  0  0  0  0  0  0  0  0  0  0  0
   -3.0345   -0.2644    3.0832 H   0  0  0  0  0  0  0  0  0  0  0  0
   -2.5093    1.2092    2.2599 H   0  0  0  0  0  0  0  0  0  0  0  0
   -4.2338    0.9283    2.5645 H   0  0  0  0  0  0  0  0  0  0  0  0
   -1.2626   -0.1515   -0.1463 N   0  0  0  0  0  0  0  0  0  0  0  0
    0.0431   -0.5785   -0.5755 C   0  0  2  0  0  0  0  0  0  0  0  0
    0.0876   -0.4996   -2.0958 C   0  0  0  0  0  0  0  0  0  0  0  0
    0.8625    0.2331   -2.7071 O   0  0  0  0  0  0  0  0  0  0  0  0
    0.3499   -1.9884   -0.0952 C   0  0  0  0  0  0  0  0  0  0  0  0
   -1.5766    0.7776   -0.4197 H   0  0  0  0  0  0  0  0  0  0  0  0
    0.7629    0.1301   -0.1513 H   0  0  0  0  0  0  0  0  0  0  0  0
   -0.3610   -2.7124   -0.5099 H   0  0  0  0  0  0  0  0  0  0  0  0
    1.3546   -2.3010   -0.3981 H   0  0  0  0  0  0  0  0  0  0  0  0
    0.2882   -2.0502    0.9967 H   0  0  0  0  0  0  0  0  0  0  0  0
   -0.8698   -1.3118   -2.6937 N   0  0  0  0  0  0  0  0  0  0  0  0
   -1.0558   -1.3796   -4.1193 C   0  0  2  0  0  0  0  0  0  0  0  0
   -2.5322   -1.6382   -4.3891 C   0  0  0  0  0  0  0  0  0  0  0  0
   -3.2380   -2.3258   -3.6542 O   0  0  0  0  0  0  0  0  0  0  0  0
   -0.1914   -2.4665   -4.7391 C   0  0  0  0  0  0  0  0  0  0  0  0
   -1.4420   -1.9157   -2.1068 H   0  0  0  0  0  0  0  0  0  0  0  0
   -0.7766   -0.3997   -4.5216 H   0  0  0  0  0  0  0  0  0  0  0  0
   -0.4566   -3.4556   -4.3481 H   0  0  0  0  0  0  0  0  0  0  0  0
   -0.3127   -2.4978   -5.8269 H   0  0  0  0  0  0  0  0  0  0  0  0
    0.8678   -2.2951   -4.5187 H   0  0  0  0  0  0  0  0  0  0  0  0
   -2.9584   -1.0465   -5.5700 N   0  0  0  0  0  0  0  0  0  0  0  0
   -4.3076   -1.1820   -6.0672 C   0  0  0  0  0  0  0  0  0  0  0  0
   -2.3162   -0.4607   -6.0955 H   0  0  0  0  0  0  0  0  0  0  0  0
   -4.3610   -2.0383   -6.7556 H   0  0  0  0  0  0  0  0  0  0  0  0
   -4.9943   -1.3464   -5.2238 H   0  0  0  0  0  0  0  0  0  0  0  0
   -4.5955   -0.2642   -6.6009 H   0  0  0  0  0  0  0  0  0  0  0  0
  1  3  1  0  0  0  0
  1  7  1  0  0  0  0
  1  2  2  0  0  0  0
 28 29  1  0  0  0  0
 29 37  1  0  0  0  0
 29 30  2  0  0  0  0
 18 19  1  0  0  0  0
 19 27  1  0  0  0  0
 19 20  2  0  0  0  0
  8  9  1  0  0  0  0
  9 17  1  0  0  0  0
  9 10  2  0  0  0  0
 28 31  1  0  0  0  0
 18 21  1  0  0  0  0
  8 11  1  0  0  0  0
 37 38  1  0  0  0  0
 27 28  1  0  0  0  0
 17 18  1  0  0  0  0
  7  8  1  0  0  0  0
  3  4  1  0  0  0  0
  3  5  1  0  0  0  0
  3  6  1  0  0  0  0
 31 34  1  0  0  0  0
 31 35  1  0  0  0  0
 31 36  1  0  0  0  0
 21 24  1  0  0  0  0
 21 25  1  0  0  0  0
 21 26  1  0  0  0  0
 11 14  1  0  0  0  0
 11 15  1  0  0  0  0
 11 16  1  0  0  0  0
 38 40  1  0  0  0  0
 38 41  1  0  0  0  0
 38 42  1  0  0  0  0
 28 33  1  0  0  0  0
 18 23  1  0  0  0  0
  8 13  1  0  0  0  0
 37 39  1  0  0  0  0
  7 12  1  0  0  0  0
 27 32  1  0  0  0  0
 17 22  1  0  0  0  0
M  END
$$$$

  -OEChem-05262214473D

 42 41  0     1  0  0  0  0  0999 V2000
   -5.7851   -0.9580    0.6237 C   0  0  0  0  0  0  0  0  0  0  0  0
   -6.2213    0.1296    0.2652 O   0  0  0  0  0  0  0  0  0  0  0  0
   -6.7088   -2.1270    0.7168 C   0  0  0  0  0  0  0  0  0  0  0  0
   -7.1713   -2.2193    1.7126 H   0  0  0  0  0  0  0  0  0  0  0  0
   -7.5511   -2.0547    0.0101 H   0  0  0  0  0  0  0  0  0  0  0  0
   -6.2485   -3.1083    0.5191 H   0  0  0  0  0  0  0  0  0  0  0  0
   -4.4733   -1.2411    0.9668 N   0  0  0  0  0  0  0  0  0  0  0  0
   -3.4203   -0.2603    0.9449 C   0  0  2  0  0  0  0  0  0  0  0  0
   -2.1242   -0.9699    0.5759 C   0  0  0  0  0  0  0  0  0  0  0  0
   -1.8694   -2.1225    0.9189 O   0  0  0  0  0  0  0  0  0  0  0  0
   -3.2916    0.4435    2.2868 C   0  0  0  0  0  0  0  0  0  0  0  0
   -4.2421   -2.1920    1.2489 H   0  0  0  0  0  0  0  0  0  0  0  0
   -3.6772    0.4622    0.1625 H   0  0  0  0  0  0  0  0  0  0  0  0
   -3.0345   -0.2644    3.0832 H   0  0  0  0  0  0  0  0  0  0  0  0
   -2.5093    1.2092    2.2599 H   0  0  0  0  0  0  0  0  0  0  0  0
   -4.2338    0.9283    2.5645 H   0  0  0  0  0  0  0  0  0  0  0  0
   -1.2626   -0.1515   -0.1463 N   0  0  0  0  0  0  0  0  0  0  0  0
    0.0431   -0.5785   -0.5755 C   0  0  2  0  0  0  0  0  0  0  0  0
    0.0876   -0.4996   -2.0958 C   0  0  0  0  0  0  0  0  0  0  0  0
    1.0179    0.0137   -2.7139 O   0  0  0  0  0  0  0  0  0  0  0  0
    0.3499   -1.9884   -0.0952 C   0  0  0  0  0  0  0  0  0  0  0  0
   -1.5766    0.7776   -0.4197 H   0  0  0  0  0  0  0  0  0  0  0  0
    0.7629    0.1301   -0.1513 H   0  0  0  0  0  0  0  0  0  0  0  0
   -0.3610   -2.7124   -0.5099 H   0  0  0  0  0  0  0  0  0  0  0  0
    1.3546   -2.3010   -0.3981 H   0  0  0  0  0  0  0  0  0  0  0  0
    0.2882   -2.0502    0.9967 H   0  0  0  0  0  0  0  0  0  0  0  0
   -1.0545   -1.0313   -2.6846 N   0  0  0  0  0  0  0  0  0  0  0  0
   -1.2694   -1.0355   -4.1077 C   0  0  2  0  0  0  0  0  0  0  0  0
   -2.7657   -0.9014   -4.3578 C   0  0  0  0  0  0  0  0  0  0  0  0
   -3.6161   -1.3902   -3.6168 O   0  0  0  0  0  0  0  0  0  0  0  0
   -0.7230   -2.3030   -4.7461 C   0  0  0  0  0  0  0  0  0  0  0  0
   -1.7560   -1.4724   -2.0930 H   0  0  0  0  0  0  0  0  0  0  0  0
   -0.7515   -0.1572   -4.5083 H   0  0  0  0  0  0  0  0  0  0  0  0
   -1.2299   -3.1936   -4.3571 H   0  0  0  0  0  0  0  0  0  0  0  0
   -0.8617   -2.2917   -5.8323 H   0  0  0  0  0  0  0  0  0  0  0  0
    0.3472   -2.4130   -4.5401 H   0  0  0  0  0  0  0  0  0  0  0  0
   -3.0391   -0.2087   -5.5289 N   0  0  0  0  0  0  0  0  0  0  0  0
   -4.3836    0.0135   -6.0074 C   0  0  0  0  0  0  0  0  0  0  0  0
   -2.2739    0.1961   -6.0602 H   0  0  0  0  0  0  0  0  0  0  0  0
   -4.6650   -0.7935   -6.7000 H   0  0  0  0  0  0  0  0  0  0  0  0
   -5.0790    0.0242   -5.1552 H   0  0  0  0  0  0  0  0  0  0  0  0
   -4.4311    0.9795   -6.5316 H   0  0  0  0  0  0  0  0  0  0  0  0
  1  3  1  0  0  0  0
  1  7  1  0  0  0  0
  1  2  2  0  0  0  0
 28 29  1  0  0  0  0
 29 37  1  0  0  0  0
 29 30  2  0  0  0  0
 18 19  1  0  0  0  0
 19 27  1  0  0  0  0
 19 20  2  0  0  0  0
  8  9  1  0  0  0  0
  9 17  1  0  0  0  0
  9 10  2  0  0  0  0
 28 31  1  0  0  0  0
 18 21  1  0  0  0  0
  8 11  1  0  0  0  0
 37 38  1  0  0  0  0
 27 28  1  0  0  0  0
 17 18  1  0  0  0  0
  7  8  1  0  0  0  0
  3  4  1  0  0  0  0
  3  5  1  0  0  0  0
  3  6  1  0  0  0  0
 31 34  1  0  0  0  0
 31 35  1  0  0  0  0
 31 36  1  0  0  0  0
 21 24  1  0  0  0  0
 21 25  1  0  0  0  0
 21 26  1  0  0  0  0
 11 14  1  0  0  0  0
 11 15  1  0  0  0  0
 11 16  1  0  0  0  0
 38 40  1  0  0  0  0
 38 41  1  0  0  0  0
 38 42  1  0  0  0  0
 28 33  1  0  0  0  0
 18 23  1  0  0  0  0
  8 13  1  0  0  0  0
 37 39  1  0  0  0  0
  7 12  1  0  0  0  0
 27 32  1  0  0  0  0
 17 22  1  0  0  0  0
M  END
$$$$

  -OEChem-05262214473D

 42 41  0     1  0  0  0  0  0999 V2000
   -5.7851   -0.9580    0.6237 C   0  0  0  0  0  0  0  0  0  0  0  0
   -6.2213    0.1296    0.2652 O   0  0  0  0  0  0  0  0  0  0  0  0
   -6.7088   -2.1270    0.7168 C   0  0  0  0  0  0  0  0  0  0  0  0
   -7.1713   -2.2193    1.7126 H   0  0  0  0  0  0  0  0  0  0  0  0
   -7.5511   -2.0547    0.0101 H   0  0  0  0  0  0  0  0  0  0  0  0
   -6.2485   -3.1083    0.5191 H   0  0  0  0  0  0  0  0  0  0  0  0
   -4.4733   -1.2411    0.9668 N   0  0  0  0  0  0  0  0  0  0  0  0
   -3.4203   -0.2603    0.9449 C   0  0  2  0  0  0  0  0  0  0  0  0
   -2.1242   -0.9699    0.5759 C   0  0  0  0  0  0  0  0  0  0  0  0
   -1.8694   -2.1225    0.9189 O   0  0  0  0  0  0  0  0  0  0  0  0
   -3.2916    0.4435    2.2868 C   0  0  0  0  0  0  0  0  0  0  0  0
   -4.2421   -2.1920    1.2489 H   0  0  0  0  0  0  0  0  0  0  0  0
   -3.6772    0.4622    0.1625 H   0  0  0  0  0  0  0  0  0  0  0  0
   -3.0345   -0.2644    3.0832 H   0  0  0  0  0  0  0  0  0  0  0  0
   -2.5093    1.2092    2.2599 H   0  0  0  0  0  0  0  0  0  0  0  0
   -4.2338    0.9283    2.5645 H   0  0  0  0  0  0  0  0  0  0  0  0
   -1.2626   -0.1515   -0.1463 N   0  0  0  0  0  0  0  0  0  0  0  0
    0.0431   -0.5785   -0.5755 C   0  0  2  0  0  0  0  0  0  0  0  0
    0.0876   -0.4996   -2.0958 C   0  0  0  0  0  0  0  0  0  0  0  0
    1.1112   -0.2382   -2.7243 O   0  0  0  0  0  0  0  0  0  0  0  0
    0.3499   -1.9884   -0.0952 C   0  0  0  0  0  0  0  0  0  0  0  0
   -1.5766    0.7776   -0.4197 H   0  0  0  0  0  0  0  0  0  0  0  0
    0.7629    0.1301   -0.1513 H   0  0  0  0  0  0  0  0  0  0  0  0
   -0.3610   -2.7124   -0.5099 H   0  0  0  0  0  0  0  0  0  0  0  0
    1.3546   -2.3010   -0.3981 H   0  0  0  0  0  0  0  0  0  0  0  0
    0.2882   -2.0502    0.9967 H   0  0  0  0  0  0  0  0  0  0  0  0
   -1.1603   -0.7128   -2.6712 N   0  0  0  0  0  0  0  0  0  0  0  0
   -1.3866   -0.6480   -4.0910 C   0  0  2  0  0  0  0  0  0  0  0  0
   -2.8005   -0.1297   -4.3187 C   0  0  0  0  0  0  0  0  0  0  0  0
   -3.7390   -0.3891   -3.5684 O   0  0  0  0  0  0  0  0  0  0  0  0
   -1.1943   -2.0076   -4.7446 C   0  0  0  0  0  0  0  0  0  0  0  0
   -1.9445   -0.9631   -2.0721 H   0  0  0  0  0  0  0  0  0  0  0  0
   -0.6644    0.0704   -4.4939 H   0  0  0  0  0  0  0  0  0  0  0  0
   -1.9093   -2.7406   -4.3535 H   0  0  0  0  0  0  0  0  0  0  0  0
   -1.3388   -1.9508   -5.8285 H   0  0  0  0  0  0  0  0  0  0  0  0
   -0.1865   -2.3923   -4.5546 H   0  0  0  0  0  0  0  0  0  0  0  0
   -2.9001    0.6211   -5.4818 N   0  0  0  0  0  0  0  0  0  0  0  0
   -4.1473    1.1875   -5.9396 C   0  0  0  0  0  0  0  0  0  0  0  0
   -2.0629    0.8194   -6.0217 H   0  0  0  0  0  0  0  0  0  0  0  0
   -4.6362    0.4871   -6.6327 H   0  0  0  0  0  0  0  0  0  0  0  0
   -4.8057    1.3695   -5.0774 H   0  0  0  0  0  0  0  0  0  0  0  0
   -3.9501    2.1378   -6.4574 H   0  0  0  0  0  0  0  0  0  0  0  0
  1  3  1  0  0  0  0
  1  7  1  0  0  0  0
  1  2  2  0  0  0  0
 28 29  1  0  0  0  0
 29 37  1  0  0  0  0
 29 30  2  0  0  0  0
 18 19  1  0  0  0  0
 19 27  1  0  0  0  0
 19 20  2  0  0  0  0
  8  9  1  0  0  0  0
  9 17  1  0  0  0  0
  9 10  2  0  0  0  0
 28 31  1  0  0  0  0
 18 21  1  0  0  0  0
  8 11  1  0  0  0  0
 37 38  1  0  0  0  0
 27 28  1  0  0  0  0
 17 18  1  0  0  0  0
  7  8  1  0  0  0  0
  3  4  1  0  0  0  0
  3  5  1  0  0  0  0
  3  6  1  0  0  0  0
 31 34  1  0  0  0  0
 31 35  1  0  0  0  0
 31 36  1  0  0  0  0
 21 24  1  0  0  0  0
 21 25  1  0  0  0  0
 21 26  1  0  0  0  0
 11 14  1  0  0  0  0
 11 15  1  0  0  0  0
 11 16  1  0  0  0  0
 38 40  1  0  0  0  0
 38 41  1  0  0  0  0
 38 42  1  0  0  0  0
 28 33  1  0  0  0  0
 18 23  1  0  0  0  0
  8 13  1  0  0  0  0
 37 39  1  0  0  0  0
  7 12  1  0  0  0  0
 27 32  1  0  0  0  0
 17 22  1  0  0  0  0
M  END
$$$$

  -OEChem-05262214473D

 42 41  0     1  0  0  0  0  0999 V2000
   -5.7851   -0.9580    0.6237 C   0  0  0  0  0  0  0  0  0  0  0  0
   -6.2213    0.1296    0.2652 O   0  0  0  0  0  0  0  0  0  0  0  0
   -6.7088   -2.1270    0.7168 C   0  0  0  0  0  0  0  0  0  0  0  0
   -7.1713   -2.2193    1.7126 H   0  0  0  0  0  0  0  0  0  0  0  0
   -7.5511   -2.0547    0.0101 H   0  0  0  0  0  0  0  0  0  0  0  0
   -6.2485   -3.1083    0.5191 H   0  0  0  0  0  0  0  0  0  0  0  0
   -4.4733   -1.2411    0.9668 N   0  0  0  0  0  0  0  0  0  0  0  0
   -3.4203   -0.2603    0.9449 C   0  0  2  0  0  0  0  0  0  0  0  0
   -2.1242   -0.9699    0.5759 C   0  0  0  0  0  0  0  0  0  0  0  0
   -1.8694   -2.1225    0.9189 O   0  0  0  0  0  0  0  0  0  0  0  0
   -3.2916    0.4435    2.2868 C   0  0  0  0  0  0  0  0  0  0  0  0
   -4.2421   -2.1920    1.2489 H   0  0  0  0  0  0  0  0  0  0  0  0
   -3.6772    0.4622    0.1625 H   0  0  0  0  0  0  0  0  0  0  0  0
   -3.0345   -0.2644    3.0832 H   0  0  0  0  0  0  0  0  0  0  0  0
   -2.5093    1.2092    2.2599 H   0  0  0  0  0  0  0  0  0  0  0  0
   -4.2338    0.9283    2.5645 H   0  0  0  0  0  0  0  0  0  0  0  0
   -1.2626   -0.1515   -0.1463 N   0  0  0  0  0  0  0  0  0  0  0  0
    0.0431   -0.5785   -0.5755 C   0  0  2  0  0  0  0  0  0  0  0  0
    0.0876   -0.4996   -2.0958 C   0  0  0  0  0  0  0  0  0  0  0  0
    1.1361   -0.5057   -2.7374 O   0  0  0  0  0  0  0  0  0  0  0  0
    0.3499   -1.9884   -0.0952 C   0  0  0  0  0  0  0  0  0  0  0  0
   -1.5766    0.7776   -0.4197 H   0  0  0  0  0  0  0  0  0  0  0  0
    0.7629    0.1301   -0.1513 H   0  0  0  0  0  0  0  0  0  0  0  0
   -0.3610   -2.7124   -0.5099 H   0  0  0  0  0  0  0  0  0  0  0  0
    1.3546   -2.3010   -0.3981 H   0  0  0  0  0  0  0  0  0  0  0  0
    0.2882   -2.0502    0.9967 H   0  0  0  0  0  0  0  0  0  0  0  0
   -1.1801   -0.3778   -2.6544 N   0  0  0  0  0  0  0  0  0  0  0  0
   -1.3995   -0.2435   -4.0704 C   0  0  2  0  0  0  0  0  0  0  0  0
   -2.6341    0.6245   -4.2748 C   0  0  0  0  0  0  0  0  0  0  0  0
   -3.5984    0.6093   -3.5125 O   0  0  0  0  0  0  0  0  0  0  0  0
   -1.5732   -1.6005   -4.7346 C   0  0  0  0  0  0  0  0  0  0  0  0
   -1.9948   -0.4227   -2.0455 H   0  0  0  0  0  0  0  0  0  0  0  0
   -0.5212    0.2676   -4.4795 H   0  0  0  0  0  0  0  0  0  0  0  0
   -2.4484   -2.1276   -4.3374 H   0  0  0  0  0  0  0  0  0  0  0  0
   -1.7116   -1.4982   -5.8160 H   0  0  0  0  0  0  0  0  0  0  0  0
   -0.6967   -2.2342   -4.5613 H   0  0  0  0  0  0  0  0  0  0  0  0
   -2.5508    1.3863   -5.4319 N   0  0  0  0  0  0  0  0  0  0  0  0
   -3.6149    2.2599   -5.8684 C   0  0  0  0  0  0  0  0  0  0  0  0
   -1.6976    1.3667   -5.9826 H   0  0  0  0  0  0  0  0  0  0  0  0
   -4.2767    1.7160   -6.5584 H   0  0  0  0  0  0  0  0  0  0  0  0
   -4.1931    2.5978   -4.9958 H   0  0  0  0  0  0  0  0  0  0  0  0
   -3.1852    3.1318   -6.3835 H   0  0  0  0  0  0  0  0  0  0  0  0
  1  3  1  0  0  0  0
  1  7  1  0  0  0  0
  1  2  2  0  0  0  0
 28 29  1  0  0  0  0
 29 37  1  0  0  0  0
 29 30  2  0  0  0  0
 18 19  1  0  0  0  0
 19 27  1  0  0  0  0
 19 20  2  0  0  0  0
  8  9  1  0  0  0  0
  9 17  1  0  0  0  0
  9 10  2  0  0  0  0
 28 31  1  0  0  0  0
 18 21  1  0  0  0  0
  8 11  1  0  0  0  0
 37 38  1  0  0  0  0
 27 28  1  0  0  0  0
 17 18  1  0  0  0  0
  7  8  1  0  0  0  0
  3  4  1  0  0  0  0
  3  5  1  0  0  0  0
  3  6  1  0  0  0  0
 31 34  1  0  0  0  0
 31 35  1  0  0  0  0
 31 36  1  0  0  0  0
 21 24  1  0  0  0  0
 21 25  1  0  0  0  0
 21 26  1  0  0  0  0
 11 14  1  0  0  0  0
 11 15  1  0  0  0  0
 11 16  1  0  0  0  0
 38 40  1  0  0  0  0
 38 41  1  0  0  0  0
 38 42  1  0  0  0  0
 28 33  1  0  0  0  0
 18 23  1  0  0  0  0
  8 13  1  0  0  0  0
 37 39  1  0  0  0  0
  7 12  1  0  0  0  0
 27 32  1  0  0  0  0
 17 22  1  0  0  0  0
M  END
$$$$

  -OEChem-05262214473D

 42 41  0     1  0  0  0  0  0999 V2000
   -5.7851   -0.9580    0.6237 C   0  0  0  0  0  0  0  0  0  0  0  0
   -6.2213    0.1296    0.2652 O   0  0  0  0  0  0  0  0  0  0  0  0
   -6.7088   -2.1270    0.7168 C   0  0  0  0  0  0  0  0  0  0  0  0
   -7.1713   -2.2193    1.7126 H   0  0  0  0  0  0  0  0  0  0  0  0
   -7.5511   -2.0547    0.0101 H   0  0  0  0  0  0  0  0  0  0  0  0
   -6.2485   -3.1083    0.5191 H   0  0  0  0  0  0  0  0  0  0  0  0
   -4.4733   -1.2411    0.9668 N   0  0  0  0  0  0  0  0  0  0  0  0
   -3.4203   -0.2603    0.9449 C   0  0  2  0  0  0  0  0  0  0  0  0
   -2.1242   -0.9699    0.5759 C   0  0  0  0  0  0  0  0  0  0  0  0
   -1.8694   -2.1225    0.9189 O   0  0  0  0  0  0  0  0  0  0  0  0
   -3.2916    0.4435    2.2868 C   0  0  0  0  0  0  0  0  0  0  0  0
   -4.2421   -2.1920    1.2489 H   0  0  0  0  0  0  0  0  0  0  0  0
   -3.6772    0.4622    0.1625 H   0  0  0  0  0  0  0  0  0  0  0  0
   -3.0345   -0.2644    3.0832 H   0  0  0  0  0  0  0  0  0  0  0  0
   -2.5093    1.2092    2.2599 H   0  0  0  0  0  0  0  0  0  0  0  0
   -4.2338    0.9283    2.5645 H   0  0  0  0  0  0  0  0  0  0  0  0
   -1.2626   -0.1515   -0.1463 N   0  0  0  0  0  0  0  0  0  0  0  0
    0.0431   -0.5785   -0.5755 C   0  0  2  0  0  0  0  0  0  0  0  0
    0.0876   -0.4996   -2.0958 C   0  0  0  0  0  0  0  0  0  0  0  0
    1.0909   -0.7703   -2.7525 O   0  0  0  0  0  0  0  0  0  0  0  0
    0.3499   -1.9884   -0.0952 C   0  0  0  0  0  0  0  0  0  0  0  0
   -1.5766    0.7776   -0.4197 H   0  0  0  0  0  0  0  0  0  0  0  0
    0.7629    0.1301   -0.1513 H   0  0  0  0  0  0  0  0  0  0  0  0
   -0.3610   -2.7124   -0.5099 H   0  0  0  0  0  0  0  0  0  0  0  0
    1.3546   -2.3010   -0.3981 H   0  0  0  0  0  0  0  0  0  0  0  0
    0.2882   -2.0502    0.9967 H   0  0  0  0  0  0  0  0  0  0  0  0
   -1.1124   -0.0493   -2.6353 N   0  0  0  0  0  0  0  0  0  0  0  0
   -1.3072    0.1503   -4.0473 C   0  0  2  0  0  0  0  0  0  0  0  0
   -2.2780    1.3097   -4.2288 C   0  0  0  0  0  0  0  0  0  0  0  0
   -3.2040    1.5370   -3.4529 O   0  0  0  0  0  0  0  0  0  0  0  0
   -1.8339   -1.1095   -4.7167 C   0  0  0  0  0  0  0  0  0  0  0  0
   -1.9034    0.1121   -2.0151 H   0  0  0  0  0  0  0  0  0  0  0  0
   -0.3318    0.4210   -4.4660 H   0  0  0  0  0  0  0  0  0  0  0  0
   -2.8106   -1.3963   -4.3101 H   0  0  0  0  0  0  0  0  0  0  0  0
   -1.9545   -0.9649   -5.7954 H   0  0  0  0  0  0  0  0  0  0  0  0
   -1.1489   -1.9497   -4.5598 H   0  0  0  0  0  0  0  0  0  0  0  0
   -2.0151    2.0348   -5.3826 N   0  0  0  0  0  0  0  0  0  0  0  0
   -2.8225    3.1577   -5.7987 C   0  0  0  0  0  0  0  0  0  0  0  0
   -1.2028    1.8006   -5.9457 H   0  0  0  0  0  0  0  0  0  0  0  0
   -3.6110    2.8097   -6.4822 H   0  0  0  0  0  0  0  0  0  0  0  0
   -3.2829    3.6253   -4.9159 H   0  0  0  0  0  0  0  0  0  0  0  0
   -2.1886    3.8937   -6.3148 H   0  0  0  0  0  0  0  0  0  0  0  0
  1  3  1  0  0  0  0
  1  7  1  0  0  0  0
  1  2  2  0  0  0  0
 28 29  1  0  0  0  0
 29 37  1  0  0  0  0
 29 30  2  0  0  0  0
 18 19  1  0  0  0  0
 19 27  1  0  0  0  0
 19 20  2  0  0  0  0
  8  9  1  0  0  0  0
  9 17  1  0  0  0  0
  9 10  2  0  0  0  0
 28 31  1  0  0  0  0
 18 21  1  0  0  0  0
  8 11  1  0  0  0  0
 37 38  1  0  0  0  0
 27 28  1  0  0  0  0
 17 18  1  0  0  0  0
  7  8  1  0  0  0  0
  3  4  1  0  0  0  0
  3  5  1  0  0  0  0
  3  6  1  0  0  0  0
 31 34  1  0  0  0  0
 31 35  1  0  0  0  0
 31 36  1  0  0  0  0
 21 24  1  0  0  0  0
 21 25  1  0  0  0  0
 21 26  1  0  0  0  0
 11 14  1  0  0  0  0
 11 15  1  0  0  0  0
 11 16  1  0  0  0  0
 38 40  1  0  0  0  0
 38 41  1  0  0  0  0
 38 42  1  0  0  0  0
 28 33  1  0  0  0  0
 18 23  1  0  0  0  0
  8 13  1  0  0  0  0
 37 39  1  0  0  0  0
  7 12  1  0  0  0  0
 27 32  1  0  0  0  0
 17 22  1  0  0  0  0
M  END
$$$$

  -OEChem-05262214473D

 42 41  0     1  0  0  0  0  0999 V2000
   -5.7851   -0.9580    0.6237 C   0  0  0  0  0  0  0  0  0  0  0  0
   -6.2213    0.1296    0.2652 O   0  0  0  0  0  0  0  0  0  0  0  0
   -6.7088   -2.1270    0.7168 C   0  0  0  0  0  0  0  0  0  0  0  0
   -7.1713   -2.2193    1.7126 H   0  0  0  0  0  0  0  0  0  0  0  0
   -7.5511   -2.0547    0.0101 H   0  0  0  0  0  0  0  0  0  0  0  0
   -6.2485   -3.1083    0.5191 H   0  0  0  0  0  0  0  0  0  0  0  0
   -4.4733   -1.2411    0.9668 N   0  0  0  0  0  0  0  0  0  0  0  0
   -3.4203   -0.2603    0.9449 C   0  0  2  0  0  0  0  0  0  0  0  0
   -2.1242   -0.9699    0.5759 C   0  0  0  0  0  0  0  0  0  0  0  0
   -1.8694   -2.1225    0.9189 O   0  0  0  0  0  0  0  0  0  0  0  0
   -3.2916    0.4435    2.2868 C   0  0  0  0  0  0  0  0  0  0  0  0
   -4.2421   -2.1920    1.2489 H   0  0  0  0  0  0  0  0  0  0  0  0
   -3.6772    0.4622    0.1625 H   0  0  0  0  0  0  0  0  0  0  0  0
   -3.0345   -0.2644    3.0832 H   0  0  0  0  0  0  0  0  0  0  0  0
   -2.5093    1.2092    2.2599 H   0  0  0  0  0  0  0  0  0  0  0  0
   -4.2338    0.9283    2.5645 H   0  0  0  0  0  0  0  0  0  0  0  0
   -1.2626   -0.1515   -0.1463 N   0  0  0  0  0  0  0  0  0  0  0  0
    0.0431   -0.5785   -0.5755 C   0  0  2  0  0  0  0  0  0  0  0  0
    0.0876   -0.4996   -2.0958 C   0  0  0  0  0  0  0  0  0  0  0  0
    0.9786   -1.0142   -2.7684 O   0  0  0  0  0  0  0  0  0  0  0  0
    0.3499   -1.9884   -0.0952 C   0  0  0  0  0  0  0  0  0  0  0  0
   -1.5766    0.7776   -0.4197 H   0  0  0  0  0  0  0  0  0  0  0  0
    0.7629    0.1301   -0.1513 H   0  0  0  0  0  0  0  0  0  0  0  0
   -0.3610   -2.7124   -0.5099 H   0  0  0  0  0  0  0  0  0  0  0  0
    1.3546   -2.3010   -0.3981 H   0  0  0  0  0  0  0  0  0  0  0  0
    0.2882   -2.0502    0.9967 H   0  0  0  0  0  0  0  0  0  0  0  0
   -0.9618    0.2504   -2.6154 N   0  0  0  0  0  0  0  0  0  0  0  0
   -1.1160    0.5067   -4.0232 C   0  0  2  0  0  0  0  0  0  0  0  0
   -1.7564    1.8791   -4.1840 C   0  0  0  0  0  0  0  0  0  0  0  0
   -2.5825    2.3307   -3.3935 O   0  0  0  0  0  0  0  0  0  0  0  0
   -1.9586   -0.5680   -4.6923 C   0  0  0  0  0  0  0  0  0  0  0  0
   -1.6766    0.6049   -1.9829 H   0  0  0  0  0  0  0  0  0  0  0  0
   -0.1091    0.5201   -4.4544 H   0  0  0  0  0  0  0  0  0  0  0  0
   -2.9711   -0.5966   -4.2733 H   0  0  0  0  0  0  0  0  0  0  0  0
   -2.0512   -0.3871   -5.7683 H   0  0  0  0  0  0  0  0  0  0  0  0
   -1.5121   -1.5581   -4.5501 H   0  0  0  0  0  0  0  0  0  0  0  0
   -1.3293    2.5225   -5.3372 N   0  0  0  0  0  0  0  0  0  0  0  0
   -1.8243    3.8196   -5.7352 C   0  0  0  0  0  0  0  0  0  0  0  0
   -0.6122    2.0916   -5.9133 H   0  0  0  0  0  0  0  0  0  0  0  0
   -2.6843    3.6934   -6.4093 H   0  0  0  0  0  0  0  0  0  0  0  0
   -2.1372    4.3820   -4.8431 H   0  0  0  0  0  0  0  0  0  0  0  0
   -1.0282    4.3717   -6.2561 H   0  0  0  0  0  0  0  0  0  0  0  0
  1  3  1  0  0  0  0
  1  7  1  0  0  0  0
  1  2  2  0  0  0  0
 28 29  1  0  0  0  0
 29 37  1  0  0  0  0
 29 30  2  0  0  0  0
 18 19  1  0  0  0  0
 19 27  1  0  0  0  0
 19 20  2  0  0  0  0
  8  9  1  0  0  0  0
  9 17  1  0  0  0  0
  9 10  2  0  0  0  0
 28 31  1  0  0  0  0
 18 21  1  0  0  0  0
  8 11  1  0  0  0  0
 37 38  1  0  0  0  0
 27 28  1  0  0  0  0
 17 18  1  0  0  0  0
  7  8  1  0  0  0  0
  3  4  1  0  0  0  0
  3  5  1  0  0  0  0
  3  6  1  0  0  0  0
 31 34  1  0  0  0  0
 31 35  1  0  0  0  0
 31 36  1  0  0  0  0
 21 24  1  0  0  0  0
 21 25  1  0  0  0  0
 21 26  1  0  0  0  0
 11 14  1  0  0  0  0
 11 15  1  0  0  0  0
 11 16  1  0  0  0  0
 38 40  1  0  0  0  0
 38 41  1  0  0  0  0
 38 42  1  0  0  0  0
 28 33  1  0  0  0  0
 18 23  1  0  0  0  0
  8 13  1  0  0  0  0
 37 39  1  0  0  0  0
  7 12  1  0  0  0  0
 27 32  1  0  0  0  0
 17 22  1  0  0  0  0
M  END
$$$$

  -OEChem-05262214473D

 42 41  0     1  0  0  0  0  0999 V2000
   -5.7851   -0.9580    0.6237 C   0  0  0  0  0  0  0  0  0  0  0  0
   -6.2213    0.1296    0.2652 O   0  0  0  0  0  0  0  0  0  0  0  0
   -6.7088   -2.1270    0.7168 C   0  0  0  0  0  0  0  0  0  0  0  0
   -7.1713   -2.2193    1.7126 H   0  0  0  0  0  0  0  0  0  0  0  0
   -7.5511   -2.0547    0.0101 H   0  0  0  0  0  0  0  0  0  0  0  0
   -6.2485   -3.1083    0.5191 H   0  0  0  0  0  0  0  0  0  0  0  0
   -4.4733   -1.2411    0.9668 N   0  0  0  0  0  0  0  0  0  0  0  0
   -3.4203   -0.2603    0.9449 C   0  0  2  0  0  0  0  0  0  0  0  0
   -2.1242   -0.9699    0.5759 C   0  0  0  0  0  0  0  0  0  0  0  0
   -1.8694   -2.1225    0.9189 O   0  0  0  0  0  0  0  0  0  0  0  0
   -3.2916    0.4435    2.2868 C   0  0  0  0  0  0  0  0  0  0  0  0
   -4.2421   -2.1920    1.2489 H   0  0  0  0  0  0  0  0  0  0  0  0
   -3.6772    0.4622    0.1625 H   0  0  0  0  0  0  0  0  0  0  0  0
   -3.0345   -0.2644    3.0832 H   0  0  0  0  0  0  0  0  0  0  0  0
   -2.5093    1.2092    2.2599 H   0  0  0  0  0  0  0  0  0  0  0  0
   -4.2338    0.9283    2.5645 H   0  0  0  0  0  0  0  0  0  0  0  0
   -1.2626   -0.1515   -0.1463 N   0  0  0  0  0  0  0  0  0  0  0  0
    0.0431   -0.5785   -0.5755 C   0  0  2  0  0  0  0  0  0  0  0  0
    0.0876   -0.4996   -2.0958 C   0  0  0  0  0  0  0  0  0  0  0  0
    0.8070   -1.2206   -2.7841 O   0  0  0  0  0  0  0  0  0  0  0  0
    0.3499   -1.9884   -0.0952 C   0  0  0  0  0  0  0  0  0  0  0  0
   -1.5766    0.7776   -0.4197 H   0  0  0  0  0  0  0  0  0  0  0  0
    0.7629    0.1301   -0.1513 H   0  0  0  0  0  0  0  0  0  0  0  0
   -0.3610   -2.7124   -0.5099 H   0  0  0  0  0  0  0  0  0  0  0  0
    1.3546   -2.3010   -0.3981 H   0  0  0  0  0  0  0  0  0  0  0  0
    0.2882   -2.0502    0.9967 H   0  0  0  0  0  0  0  0  0  0  0  0
   -0.7387    0.5008   -2.5959 N   0  0  0  0  0  0  0  0  0  0  0  0
   -0.8389    0.8014   -3.9998 C   0  0  2  0  0  0  0  0  0  0  0  0
   -1.1049    2.2941   -4.1434 C   0  0  0  0  0  0  0  0  0  0  0  0
   -1.7763    2.9363   -3.3385 O   0  0  0  0  0  0  0  0  0  0  0  0
   -1.9389   -0.0130   -4.6629 C   0  0  0  0  0  0  0  0  0  0  0  0
   -1.3297    1.0220   -1.9511 H   0  0  0  0  0  0  0  0  0  0  0  0
    0.1319    0.5583   -4.4453 H   0  0  0  0  0  0  0  0  0  0  0  0
   -2.9191    0.2171   -4.2296 H   0  0  0  0  0  0  0  0  0  0  0  0
   -1.9948    0.1958   -5.7364 H   0  0  0  0  0  0  0  0  0  0  0  0
   -1.7616   -1.0860   -4.5329 H   0  0  0  0  0  0  0  0  0  0  0  0
   -0.5404    2.8160   -5.2989 N   0  0  0  0  0  0  0  0  0  0  0  0
   -0.6882    4.2006   -5.6822 C   0  0  0  0  0  0  0  0  0  0  0  0
    0.0339    2.2199   -5.8877 H   0  0  0  0  0  0  0  0  0  0  0  0
   -1.5599    4.3072   -6.3446 H   0  0  0  0  0  0  0  0  0  0  0  0
   -0.8341    4.8164   -4.7824 H   0  0  0  0  0  0  0  0  0  0  0  0
    0.2170    4.5331   -6.2113 H   0  0  0  0  0  0  0  0  0  0  0  0
  1  3  1  0  0  0  0
  1  7  1  0  0  0  0
  1  2  2  0  0  0  0
 28 29  1  0  0  0  0
 29 37  1  0  0  0  0
 29 30  2  0  0  0  0
 18 19  1  0  0  0  0
 19 27  1  0  0  0  0
 19 20  2  0  0  0  0
  8  9  1  0  0  0  0
  9 17  1  0  0  0  0
  9 10  2  0  0  0  0
 28 31  1  0  0  0  0
 18 21  1  0  0  0  0
  8 11  1  0  0  0  0
 37 38  1  0  0  0  0
 27 28  1  0  0  0  0
 17 18  1  0  0  0  0
  7  8  1  0  0  0  0
  3  4  1  0  0  0  0
  3  5  1  0  0  0  0
  3  6  1  0  0  0  0
 31 34  1  0  0  0  0
 31 35  1  0  0  0  0
 31 36  1  0  0  0  0
 21 24  1  0  0  0  0
 21 25  1  0  0  0  0
 21 26  1  0  0  0  0
 11 14  1  0  0  0  0
 11 15  1  0  0  0  0
 11 16  1  0  0  0  0
 38 40  1  0  0  0  0
 38 41  1  0  0  0  0
 38 42  1  0  0  0  0
 28 33  1  0  0  0  0
 18 23  1  0  0  0  0
  8 13  1  0  0  0  0
 37 39  1  0  0  0  0
  7 12  1  0  0  0  0
 27 32  1  0  0  0  0
 17 22  1  0  0  0  0
M  END
$$$$

  -OEChem-05262214473D

 42 41  0     1  0  0  0  0  0999 V2000
   -5.7851   -0.9580    0.6237 C   0  0  0  0  0  0  0  0  0  0  0  0
   -6.2213    0.1296    0.2652 O   0  0  0  0  0  0  0  0  0  0  0  0
   -6.7088   -2.1270    0.7168 C   0  0  0  0  0  0  0  0  0  0  0  0
   -7.1713   -2.2193    1.7126 H   0  0  0  0  0  0  0  0  0  0  0  0
   -7.5511   -2.0547    0.0101 H   0  0  0  0  0  0  0  0  0  0  0  0
   -6.2485   -3.1083    0.5191 H   0  0  0  0  0  0  0  0  0  0  0  0
   -4.4733   -1.2411    0.9668 N   0  0  0  0  0  0  0  0  0  0  0  0
   -3.4203   -0.2603    0.9449 C   0  0  2  0  0  0  0  0  0  0  0  0
   -2.1242   -0.9699    0.5759 C   0  0  0  0  0  0  0  0  0  0  0  0
   -1.8694   -2.1225    0.9189 O   0  0  0  0  0  0  0  0  0  0  0  0
   -3.2916    0.4435    2.2868 C   0  0  0  0  0  0  0  0  0  0  0  0
   -4.2421   -2.1920    1.2489 H   0  0  0  0  0  0  0  0  0  0  0  0
   -3.6772    0.4622    0.1625 H   0  0  0  0  0  0  0  0  0  0  0  0
   -3.0345   -0.2644    3.0832 H   0  0  0  0  0  0  0  0  0  0  0  0
   -2.5093    1.2092    2.2599 H   0  0  0  0  0  0  0  0  0  0  0  0
   -4.2338    0.9283    2.5645 H   0  0  0  0  0  0  0  0  0  0  0  0
   -1.2626   -0.1515   -0.1463 N   0  0  0  0  0  0  0  0  0  0  0  0
    0.0431   -0.5785   -0.5755 C   0  0  2  0  0  0  0  0  0  0  0  0
    0.0876   -0.4996   -2.0958 C   0  0  0  0  0  0  0  0  0  0  0  0
    0.5876   -1.3755   -2.7986 O   0  0  0  0  0  0  0  0  0  0  0  0
    0.3499   -1.9884   -0.0952 C   0  0  0  0  0  0  0  0  0  0  0  0
   -1.5766    0.7776   -0.4197 H   0  0  0  0  0  0  0  0  0  0  0  0
    0.7629    0.1301   -0.1513 H   0  0  0  0  0  0  0  0  0  0  0  0
   -0.3610   -2.7124   -0.5099 H   0  0  0  0  0  0  0  0  0  0  0  0
    1.3546   -2.3010   -0.3981 H   0  0  0  0  0  0  0  0  0  0  0  0
    0.2882   -2.0502    0.9967 H   0  0  0  0  0  0  0  0  0  0  0  0
   -0.4583    0.6849   -2.5781 N   0  0  0  0  0  0  0  0  0  0  0  0
   -0.4948    1.0142   -3.9787 C   0  0  2  0  0  0  0  0  0  0  0  0
   -0.3678    2.5262   -4.1098 C   0  0  0  0  0  0  0  0  0  0  0  0
   -0.8404    3.3125   -3.2916 O   0  0  0  0  0  0  0  0  0  0  0  0
   -1.7760    0.5179   -4.6306 C   0  0  0  0  0  0  0  0  0  0  0  0
   -0.8864    1.3350   -1.9219 H   0  0  0  0  0  0  0  0  0  0  0  0
    0.3746    0.5328   -4.4396 H   0  0  0  0  0  0  0  0  0  0  0  0
   -2.6580    0.9892   -4.1819 H   0  0  0  0  0  0  0  0  0  0  0  0
   -1.7894    0.7440   -5.7019 H   0  0  0  0  0  0  0  0  0  0  0  0
   -1.8804   -0.5657   -4.5094 H   0  0  0  0  0  0  0  0  0  0  0  0
    0.2981    2.8953   -5.2703 N   0  0  0  0  0  0  0  0  0  0  0  0
    0.5083    4.2747   -5.6433 C   0  0  0  0  0  0  0  0  0  0  0  0
    0.6914    2.1767   -5.8707 H   0  0  0  0  0  0  0  0  0  0  0  0
   -0.3144    4.6090   -6.2925 H   0  0  0  0  0  0  0  0  0  0  0  0
    0.5376    4.8989   -4.7380 H   0  0  0  0  0  0  0  0  0  0  0  0
    1.4621    4.3670   -6.1835 H   0  0  0  0  0  0  0  0  0  0  0  0
  1  3  1  0  0  0  0
  1  7  1  0  0  0  0
  1  2  2  0  0  0  0
 28 29  1  0  0  0  0
 29 37  1  0  0  0  0
 29 30  2  0  0  0  0
 18 19  1  0  0  0  0
 19 27  1  0  0  0  0
 19 20  2  0  0  0  0
  8  9  1  0  0  0  0
  9 17  1  0  0  0  0
  9 10  2  0  0  0  0
 28 31  1  0  0  0  0
 18 21  1  0  0  0  0
  8 11  1  0  0  0  0
 37 38  1  0  0  0  0
 27 28  1  0  0  0  0
 17 18  1  0  0  0  0
  7  8  1  0  0  0  0
  3  4  1  0  0  0  0
  3  5  1  0  0  0  0
  3  6  1  0  0  0  0
 31 34  1  0  0  0  0
 31 35  1  0  0  0  0
 31 36  1  0  0  0  0
 21 24  1  0  0  0  0
 21 25  1  0  0  0  0
 21 26  1  0  0  0  0
 11 14  1  0  0  0  0
 11 15  1  0  0  0  0
 11 16  1  0  0  0  0
 38 40  1  0  0  0  0
 38 41  1  0  0  0  0
 38 42  1  0  0  0  0
 28 33  1  0  0  0  0
 18 23  1  0  0  0  0
  8 13  1  0  0  0  0
 37 39  1  0  0  0  0
  7 12  1  0  0  0  0
 27 32  1  0  0  0  0
 17 22  1  0  0  0  0
M  END
$$$$

  -OEChem-05262214473D

 42 41  0     1  0  0  0  0  0999 V2000
   -5.7851   -0.9580    0.6237 C   0  0  0  0  0  0  0  0  0  0  0  0
   -6.2213    0.1296    0.2652 O   0  0  0  0  0  0  0  0  0  0  0  0
   -6.7088   -2.1270    0.7168 C   0  0  0  0  0  0  0  0  0  0  0  0
   -7.1713   -2.2193    1.7126 H   0  0  0  0  0  0  0  0  0  0  0  0
   -7.5511   -2.0547    0.0101 H   0  0  0  0  0  0  0  0  0  0  0  0
   -6.2485   -3.1083    0.5191 H   0  0  0  0  0  0  0  0  0  0  0  0
   -4.4733   -1.2411    0.9668 N   0  0  0  0  0  0  0  0  0  0  0  0
   -3.4203   -0.2603    0.9449 C   0  0  2  0  0  0  0  0  0  0  0  0
   -2.1242   -0.9699    0.5759 C   0  0  0  0  0  0  0  0  0  0  0  0
   -1.8694   -2.1225    0.9189 O   0  0  0  0  0  0  0  0  0  0  0  0
   -3.2916    0.4435    2.2868 C   0  0  0  0  0  0  0  0  0  0  0  0
   -4.2421   -2.1920    1.2489 H   0  0  0  0  0  0  0  0  0  0  0  0
   -3.6772    0.4622    0.1625 H   0  0  0  0  0  0  0  0  0  0  0  0
   -3.0345   -0.2644    3.0832 H   0  0  0  0  0  0  0  0  0  0  0  0
   -2.5093    1.2092    2.2599 H   0  0  0  0  0  0  0  0  0  0  0  0
   -4.2338    0.9283    2.5645 H   0  0  0  0  0  0  0  0  0  0  0  0
   -1.2626   -0.1515   -0.1463 N   0  0  0  0  0  0  0  0  0  0  0  0
    0.0431   -0.5785   -0.5755 C   0  0  2  0  0  0  0  0  0  0  0  0
    0.0876   -0.4996   -2.0958 C   0  0  0  0  0  0  0  0  0  0  0  0
    0.3355   -1.4683   -2.8108 O   0  0  0  0  0  0  0  0  0  0  0  0
    0.3499   -1.9884   -0.0952 C   0  0  0  0  0  0  0  0  0  0  0  0
   -1.5766    0.7776   -0.4197 H   0  0  0  0  0  0  0  0  0  0  0  0
    0.7629    0.1301   -0.1513 H   0  0  0  0  0  0  0  0  0  0  0  0
   -0.3610   -2.7124   -0.5099 H   0  0  0  0  0  0  0  0  0  0  0  0
    1.3546   -2.3010   -0.3981 H   0  0  0  0  0  0  0  0  0  0  0  0
    0.2882   -2.0502    0.9967 H   0  0  0  0  0  0  0  0  0  0  0  0
   -0.1396    0.7902   -2.5633 N   0  0  0  0  0  0  0  0  0  0  0  0
   -0.1072    1.1308   -3.9613 C   0  0  2  0  0  0  0  0  0  0  0  0
    0.4047    2.5598   -4.0855 C   0  0  0  0  0  0  0  0  0  0  0  0
    0.1615    3.4338   -3.2560 O   0  0  0  0  0  0  0  0  0  0  0  0
   -1.4810    0.9883   -4.5976 C   0  0  0  0  0  0  0  0  0  0  0  0
   -0.3770    1.5227   -1.8973 H   0  0  0  0  0  0  0  0  0  0  0  0
    0.6025    0.4454   -4.4374 H   0  0  0  0  0  0  0  0  0  0  0  0
   -2.2057    1.6673   -4.1335 H   0  0  0  0  0  0  0  0  0  0  0  0
   -1.4489    1.2202   -5.6673 H   0  0  0  0  0  0  0  0  0  0  0  0
   -1.8605   -0.0326   -4.4812 H   0  0  0  0  0  0  0  0  0  0  0  0
    1.1288    2.7552   -5.2532 N   0  0  0  0  0  0  0  0  0  0  0  0
    1.6837    4.0368   -5.6213 C   0  0  0  0  0  0  0  0  0  0  0  0
    1.3156    1.9650   -5.8635 H   0  0  0  0  0  0  0  0  0  0  0  0
    0.9673    4.5783   -6.2566 H   0  0  0  0  0  0  0  0  0  0  0  0
    1.8846    4.6238   -4.7129 H   0  0  0  0  0  0  0  0  0  0  0  0
    2.6222    3.8847   -6.1746 H   0  0  0  0  0  0  0  0  0  0  0  0
  1  3  1  0  0  0  0
  1  7  1  0  0  0  0
  1  2  2  0  0  0  0
 28 29  1  0  0  0  0
 29 37  1  0  0  0  0
 29 30  2  0  0  0  0
 18 19  1  0  0  0  0
 19 27  1  0  0  0  0
 19 20  2  0  0  0  0
  8  9  1  0  0  0  0
  9 17  1  0  0  0  0
  9 10  2  0  0  0  0
 28 31  1  0  0  0  0
 18 21  1  0  0  0  0
  8 11  1  0  0  0  0
 37 38  1  0  0  0  0
 27 28  1  0  0  0  0
 17 18  1  0  0  0  0
  7  8  1  0  0  0  0
  3  4  1  0  0  0  0
  3  5  1  0  0  0  0
  3  6  1  0  0  0  0
 31 34  1  0  0  0  0
 31 35  1  0  0  0  0
 31 36  1  0  0  0  0
 21 24  1  0  0  0  0
 21 25  1  0  0  0  0
 21 26  1  0  0  0  0
 11 14  1  0  0  0  0
 11 15  1  0  0  0  0
 11 16  1  0  0  0  0
 38 40  1  0  0  0  0
 38 41  1  0  0  0  0
 38 42  1  0  0  0  0
 28 33  1  0  0  0  0
 18 23  1  0  0  0  0
  8 13  1  0  0  0  0
 37 39  1  0  0  0  0
  7 12  1  0  0  0  0
 27 32  1  0  0  0  0
 17 22  1  0  0  0  0
M  END
$$$$

  -OEChem-05262214473D

 42 41  0     1  0  0  0  0  0999 V2000
   -5.7851   -0.9580    0.6237 C   0  0  0  0  0  0  0  0  0  0  0  0
   -6.2213    0.1296    0.2652 O   0  0  0  0  0  0  0  0  0  0  0  0
   -6.7088   -2.1270    0.7168 C   0  0  0  0  0  0  0  0  0  0  0  0
   -7.1713   -2.2193    1.7126 H   0  0  0  0  0  0  0  0  0  0  0  0
   -7.5511   -2.0547    0.0101 H   0  0  0  0  0  0  0  0  0  0  0  0
   -6.2485   -3.1083    0.5191 H   0  0  0  0  0  0  0  0  0  0  0  0
   -4.4733   -1.2411    0.9668 N   0  0  0  0  0  0  0  0  0  0  0  0
   -3.4203   -0.2603    0.9449 C   0  0  2  0  0  0  0  0  0  0  0  0
   -2.1242   -0.9699    0.5759 C   0  0  0  0  0  0  0  0  0  0  0  0
   -1.8694   -2.1225    0.9189 O   0  0  0  0  0  0  0  0  0  0  0  0
   -3.2916    0.4435    2.2868 C   0  0  0  0  0  0  0  0  0  0  0  0
   -4.2421   -2.1920    1.2489 H   0  0  0  0  0  0  0  0  0  0  0  0
   -3.6772    0.4622    0.1625 H   0  0  0  0  0  0  0  0  0  0  0  0
   -3.0345   -0.2644    3.0832 H   0  0  0  0  0  0  0  0  0  0  0  0
   -2.5093    1.2092    2.2599 H   0  0  0  0  0  0  0  0  0  0  0  0
   -4.2338    0.9283    2.5645 H   0  0  0  0  0  0  0  0  0  0  0  0
   -1.2626   -0.1515   -0.1463 N   0  0  0  0  0  0  0  0  0  0  0  0
    0.0431   -0.5785   -0.5755 C   0  0  2  0  0  0  0  0  0  0  0  0
    0.0876   -0.4996   -2.0958 C   0  0  0  0  0  0  0  0  0  0  0  0
    0.0679   -1.4928   -2.8199 O   0  0  0  0  0  0  0  0  0  0  0  0
    0.3499   -1.9884   -0.0952 C   0  0  0  0  0  0  0  0  0  0  0  0
   -1.5766    0.7776   -0.4197 H   0  0  0  0  0  0  0  0  0  0  0  0
    0.7629    0.1301   -0.1513 H   0  0  0  0  0  0  0  0  0  0  0  0
   -0.3610   -2.7124   -0.5099 H   0  0  0  0  0  0  0  0  0  0  0  0
    1.3546   -2.3010   -0.3981 H   0  0  0  0  0  0  0  0  0  0  0  0
    0.2882   -2.0502    0.9967 H   0  0  0  0  0  0  0  0  0  0  0  0
    0.1956    0.8094   -2.5525 N   0  0  0  0  0  0  0  0  0  0  0  0
    0.2976    1.1430   -3.9489 C   0  0  2  0  0  0  0  0  0  0  0  0
    1.1598    2.3925   -4.0721 C   0  0  0  0  0  0  0  0  0  0  0  0
    1.1610    3.2919   -3.2342 O   0  0  0  0  0  0  0  0  0  0  0  0
   -1.0742    1.3662   -4.5661 C   0  0  0  0  0  0  0  0  0  0  0  0
    0.1639    1.5721   -1.8789 H   0  0  0  0  0  0  0  0  0  0  0  0
    0.8001    0.3021   -4.4391 H   0  0  0  0  0  0  0  0  0  0  0  0
   -1.5929    2.2050   -4.0877 H   0  0  0  0  0  0  0  0  0  0  0  0
   -0.9965    1.5919   -5.6348 H   0  0  0  0  0  0  0  0  0  0  0  0
   -1.7031    0.4769   -4.4502 H   0  0  0  0  0  0  0  0  0  0  0  0
    1.8953    2.4050   -5.2490 N   0  0  0  0  0  0  0  0  0  0  0  0
    2.7579    3.5032   -5.6175 C   0  0  0  0  0  0  0  0  0  0  0  0
    1.8639    1.5991   -5.8664 H   0  0  0  0  0  0  0  0  0  0  0  0
    2.1979    4.2173   -6.2393 H   0  0  0  0  0  0  0  0  0  0  0  0
    3.1149    4.0099   -4.7088 H   0  0  0  0  0  0  0  0  0  0  0  0
    3.6182    3.1190   -6.1851 H   0  0  0  0  0  0  0  0  0  0  0  0
  1  3  1  0  0  0  0
  1  7  1  0  0  0  0
  1  2  2  0  0  0  0
 28 29  1  0  0  0  0
 29 37  1  0  0  0  0
 29 30  2  0  0  0  0
 18 19  1  0  0  0  0
 19 27  1  0  0  0  0
 19 20  2  0  0  0  0
  8  9  1  0  0  0  0
  9 17  1  0  0  0  0
  9 10  2  0  0  0  0
 28 31  1  0  0  0  0
 18 21  1  0  0  0  0
  8 11  1  0  0  0  0
 37 38  1  0  0  0  0
 27 28  1  0  0  0  0
 17 18  1  0  0  0  0
  7  8  1  0  0  0  0
  3  4  1  0  0  0  0
  3  5  1  0  0  0  0
  3  6  1  0  0  0  0
 31 34  1  0  0  0  0
 31 35  1  0  0  0  0
 31 36  1  0  0  0  0
 21 24  1  0  0  0  0
 21 25  1  0  0  0  0
 21 26  1  0  0  0  0
 11 14  1  0  0  0  0
 11 15  1  0  0  0  0
 11 16  1  0  0  0  0
 38 40  1  0  0  0  0
 38 41  1  0  0  0  0
 38 42  1  0  0  0  0
 28 33  1  0  0  0  0
 18 23  1  0  0  0  0
  8 13  1  0  0  0  0
 37 39  1  0  0  0  0
  7 12  1  0  0  0  0
 27 32  1  0  0  0  0
 17 22  1  0  0  0  0
M  END
$$$$

  -OEChem-05262214473D

 42 41  0     1  0  0  0  0  0999 V2000
   -5.7851   -0.9580    0.6237 C   0  0  0  0  0  0  0  0  0  0  0  0
   -6.2213    0.1296    0.2652 O   0  0  0  0  0  0  0  0  0  0  0  0
   -6.7088   -2.1270    0.7168 C   0  0  0  0  0  0  0  0  0  0  0  0
   -7.1713   -2.2193    1.7126 H   0  0  0  0  0  0  0  0  0  0  0  0
   -7.5511   -2.0547    0.0101 H   0  0  0  0  0  0  0  0  0  0  0  0
   -6.2485   -3.1083    0.5191 H   0  0  0  0  0  0  0  0  0  0  0  0
   -4.4733   -1.2411    0.9668 N   0  0  0  0  0  0  0  0  0  0  0  0
   -3.4203   -0.2603    0.9449 C   0  0  2  0  0  0  0  0  0  0  0  0
   -2.1242   -0.9699    0.5759 C   0  0  0  0  0  0  0  0  0  0  0  0
   -1.8694   -2.1225    0.9189 O   0  0  0  0  0  0  0  0  0  0  0  0
   -3.2916    0.4435    2.2868 C   0  0  0  0  0  0  0  0  0  0  0  0
   -4.2421   -2.1920    1.2489 H   0  0  0  0  0  0  0  0  0  0  0  0
   -3.6772    0.4622    0.1625 H   0  0  0  0  0  0  0  0  0  0  0  0
   -3.0345   -0.2644    3.0832 H   0  0  0  0  0  0  0  0  0  0  0  0
   -2.5093    1.2092    2.2599 H   0  0  0  0  0  0  0  0  0  0  0  0
   -4.2338    0.9283    2.5645 H   0  0  0  0  0  0  0  0  0  0  0  0
   -1.2626   -0.1515   -0.1463 N   0  0  0  0  0  0  0  0  0  0  0  0
    0.0431   -0.5785   -0.5755 C   0  0  2  0  0  0  0  0  0  0  0  0
    0.0876   -0.4996   -2.0958 C   0  0  0  0  0  0  0  0  0  0  0  0
   -0.1971   -1.4472   -2.8253 O   0  0  0  0  0  0  0  0  0  0  0  0
    0.3499   -1.9884   -0.0952 C   0  0  0  0  0  0  0  0  0  0  0  0
   -1.5766    0.7776   -0.4197 H   0  0  0  0  0  0  0  0  0  0  0  0
    0.7629    0.1301   -0.1513 H   0  0  0  0  0  0  0  0  0  0  0  0
   -0.3610   -2.7124   -0.5099 H   0  0  0  0  0  0  0  0  0  0  0  0
    1.3546   -2.3010   -0.3981 H   0  0  0  0  0  0  0  0  0  0  0  0
    0.2882   -2.0502    0.9967 H   0  0  0  0  0  0  0  0  0  0  0  0
    0.5246    0.7413   -2.5465 N   0  0  0  0  0  0  0  0  0  0  0  0
    0.6920    1.0502   -3.9421 C   0  0  2  0  0  0  0  0  0  0  0  0
    1.8461    2.0356   -4.0705 C   0  0  0  0  0  0  0  0  0  0  0  0
    2.0901    2.8964   -3.2275 O   0  0  0  0  0  0  0  0  0  0  0  0
   -0.5831    1.6259   -4.5382 C   0  0  0  0  0  0  0  0  0  0  0  0
    0.6993    1.4800   -1.8680 H   0  0  0  0  0  0  0  0  0  0  0  0
    0.9540    0.1126   -4.4444 H   0  0  0  0  0  0  0  0  0  0  0  0
   -0.8615    2.5658   -4.0476 H   0  0  0  0  0  0  0  0  0  0  0  0
   -0.4630    1.8338   -5.6066 H   0  0  0  0  0  0  0  0  0  0  0  0
   -1.4190    0.9282   -4.4184 H   0  0  0  0  0  0  0  0  0  0  0  0
    2.5452    1.8688   -5.2578 N   0  0  0  0  0  0  0  0  0  0  0  0
    3.6576    2.7103   -5.6323 C   0  0  0  0  0  0  0  0  0  0  0  0
    2.2990    1.1041   -5.8794 H   0  0  0  0  0  0  0  0  0  0  0  0
    3.2936    3.5505   -6.2418 H   0  0  0  0  0  0  0  0  0  0  0  0
    4.1447    3.0990   -4.7259 H   0  0  0  0  0  0  0  0  0  0  0  0
    4.3824    2.1222   -6.2145 H   0  0  0  0  0  0  0  0  0  0  0  0
  1  3  1  0  0  0  0
  1  7  1  0  0  0  0
  1  2  2  0  0  0  0
 28 29  1  0  0  0  0
 29 37  1  0  0  0  0
 29 30  2  0  0  0  0
 18 19  1  0  0  0  0
 19 27  1  0  0  0  0
 19 20  2  0  0  0  0
  8  9  1  0  0  0  0
  9 17  1  0  0  0  0
  9 10  2  0  0  0  0
 28 31  1  0  0  0  0
 18 21  1  0  0  0  0
  8 11  1  0  0  0  0
 37 38  1  0  0  0  0
 27 28  1  0  0  0  0
 17 18  1  0  0  0  0
  7  8  1  0  0  0  0
  3  4  1  0  0  0  0
  3  5  1  0  0  0  0
  3  6  1  0  0  0  0
 31 34  1  0  0  0  0
 31 35  1  0  0  0  0
 31 36  1  0  0  0  0
 21 24  1  0  0  0  0
 21 25  1  0  0  0  0
 21 26  1  0  0  0  0
 11 14  1  0  0  0  0
 11 15  1  0  0  0  0
 11 16  1  0  0  0  0
 38 40  1  0  0  0  0
 38 41  1  0  0  0  0
 38 42  1  0  0  0  0
 28 33  1  0  0  0  0
 18 23  1  0  0  0  0
  8 13  1  0  0  0  0
 37 39  1  0  0  0  0
  7 12  1  0  0  0  0
 27 32  1  0  0  0  0
 17 22  1  0  0  0  0
M  END
$$$$

  -OEChem-05262214473D

 42 41  0     1  0  0  0  0  0999 V2000
   -5.7851   -0.9580    0.6237 C   0  0  0  0  0  0  0  0  0  0  0  0
   -6.2213    0.1296    0.2652 O   0  0  0  0  0  0  0  0  0  0  0  0
   -6.7088   -2.1270    0.7168 C   0  0  0  0  0  0  0  0  0  0  0  0
   -7.1713   -2.2193    1.7126 H   0  0  0  0  0  0  0  0  0  0  0  0
   -7.5511   -2.0547    0.0101 H   0  0  0  0  0  0  0  0  0  0  0  0
   -6.2485   -3.1083    0.5191 H   0  0  0  0  0  0  0  0  0  0  0  0
   -4.4733   -1.2411    0.9668 N   0  0  0  0  0  0  0  0  0  0  0  0
   -3.4203   -0.2603    0.9449 C   0  0  2  0  0  0  0  0  0  0  0  0
   -2.1242   -0.9699    0.5759 C   0  0  0  0  0  0  0  0  0  0  0  0
   -1.8694   -2.1225    0.9189 O   0  0  0  0  0  0  0  0  0  0  0  0
   -3.2916    0.4435    2.2868 C   0  0  0  0  0  0  0  0  0  0  0  0
   -4.2421   -2.1920    1.2489 H   0  0  0  0  0  0  0  0  0  0  0  0
   -3.6772    0.4622    0.1625 H   0  0  0  0  0  0  0  0  0  0  0  0
   -3.0345   -0.2644    3.0832 H   0  0  0  0  0  0  0  0  0  0  0  0
   -2.5093    1.2092    2.2599 H   0  0  0  0  0  0  0  0  0  0  0  0
   -4.2338    0.9283    2.5645 H   0  0  0  0  0  0  0  0  0  0  0  0
   -1.2626   -0.1515   -0.1463 N   0  0  0  0  0  0  0  0  0  0  0  0
    0.0431   -0.5785   -0.5755 C   0  0  2  0  0  0  0  0  0  0  0  0
    0.0876   -0.4996   -2.0958 C   0  0  0  0  0  0  0  0  0  0  0  0
   -0.4413   -1.3347   -2.8266 O   0  0  0  0  0  0  0  0  0  0  0  0
    0.3499   -1.9884   -0.0952 C   0  0  0  0  0  0  0  0  0  0  0  0
   -1.5766    0.7776   -0.4197 H   0  0  0  0  0  0  0  0  0  0  0  0
    0.7629    0.1301   -0.1513 H   0  0  0  0  0  0  0  0  0  0  0  0
   -0.3610   -2.7124   -0.5099 H   0  0  0  0  0  0  0  0  0  0  0  0
    1.3546   -2.3010   -0.3981 H   0  0  0  0  0  0  0  0  0  0  0  0
    0.2882   -2.0502    0.9967 H   0  0  0  0  0  0  0  0  0  0  0  0
    0.8247    0.5904   -2.5455 N   0  0  0  0  0  0  0  0  0  0  0  0
    1.0490    0.8587   -3.9416 C   0  0  2  0  0  0  0  0  0  0  0  0
    2.4169    1.5136   -4.0809 C   0  0  0  0  0  0  0  0  0  0  0  0
    2.8855    2.2742   -3.2365 O   0  0  0  0  0  0  0  0  0  0  0  0
   -0.0413    1.7497   -4.5160 C   0  0  0  0  0  0  0  0  0  0  0  0
    1.1929    1.2526   -1.8653 H   0  0  0  0  0  0  0  0  0  0  0  0
    1.0535   -0.1101   -4.4531 H   0  0  0  0  0  0  0  0  0  0  0  0
   -0.0613    2.7249   -4.0159 H   0  0  0  0  0  0  0  0  0  0  0  0
    0.1151    1.9295   -5.5847 H   0  0  0  0  0  0  0  0  0  0  0  0
   -1.0275    1.2905   -4.3882 H   0  0  0  0  0  0  0  0  0  0  0  0
    3.0343    1.1829   -5.2790 N   0  0  0  0  0  0  0  0  0  0  0  0
    4.3217    1.7120   -5.6647 C   0  0  0  0  0  0  0  0  0  0  0  0
    2.5912    0.5136   -5.9014 H   0  0  0  0  0  0  0  0  0  0  0  0
    4.1796    2.6234   -6.2640 H   0  0  0  0  0  0  0  0  0  0  0  0
    4.9039    1.9532   -4.7631 H   0  0  0  0  0  0  0  0  0  0  0  0
    4.8625    0.9621   -6.2606 H   0  0  0  0  0  0  0  0  0  0  0  0
  1  3  1  0  0  0  0
  1  7  1  0  0  0  0
  1  2  2  0  0  0  0
 28 29  1  0  0  0  0
 29 37  1  0  0  0  0
 29 30  2  0  0  0  0
 18 19  1  0  0  0  0
 19 27  1  0  0  0  0
 19 20  2  0  0  0  0
  8  9  1  0  0  0  0
  9 17  1  0  0  0  0
  9 10  2  0  0  0  0
 28 31  1  0  0  0  0
 18 21  1  0  0  0  0
  8 11  1  0  0  0  0
 37 38  1  0  0  0  0
 27 28  1  0  0  0  0
 17 18  1  0  0  0  0
  7  8  1  0  0  0  0
  3  4  1  0  0  0  0
  3  5  1  0  0  0  0
  3  6  1  0  0  0  0
 31 34  1  0  0  0  0
 31 35  1  0  0  0  0
 31 36  1  0  0  0  0
 21 24  1  0  0  0  0
 21 25  1  0  0  0  0
 21 26  1  0  0  0  0
 11 14  1  0  0  0  0
 11 15  1  0  0  0  0
 11 16  1  0  0  0  0
 38 40  1  0  0  0  0
 38 41  1  0  0  0  0
 38 42  1  0  0  0  0
 28 33  1  0  0  0  0
 18 23  1  0  0  0  0
  8 13  1  0  0  0  0
 37 39  1  0  0  0  0
  7 12  1  0  0  0  0
 27 32  1  0  0  0  0
 17 22  1  0  0  0  0
M  END
$$$$

  -OEChem-05262214473D

 42 41  0     1  0  0  0  0  0999 V2000
   -5.7851   -0.9580    0.6237 C   0  0  0  0  0  0  0  0  0  0  0  0
   -6.2213    0.1296    0.2652 O   0  0  0  0  0  0  0  0  0  0  0  0
   -6.7088   -2.1270    0.7168 C   0  0  0  0  0  0  0  0  0  0  0  0
   -7.1713   -2.2193    1.7126 H   0  0  0  0  0  0  0  0  0  0  0  0
   -7.5511   -2.0547    0.0101 H   0  0  0  0  0  0  0  0  0  0  0  0
   -6.2485   -3.1083    0.5191 H   0  0  0  0  0  0  0  0  0  0  0  0
   -4.4733   -1.2411    0.9668 N   0  0  0  0  0  0  0  0  0  0  0  0
   -3.4203   -0.2603    0.9449 C   0  0  2  0  0  0  0  0  0  0  0  0
   -2.1242   -0.9699    0.5759 C   0  0  0  0  0  0  0  0  0  0  0  0
   -1.8694   -2.1225    0.9189 O   0  0  0  0  0  0  0  0  0  0  0  0
   -3.2916    0.4435    2.2868 C   0  0  0  0  0  0  0  0  0  0  0  0
   -4.2421   -2.1920    1.2489 H   0  0  0  0  0  0  0  0  0  0  0  0
   -3.6772    0.4622    0.1625 H   0  0  0  0  0  0  0  0  0  0  0  0
   -3.0345   -0.2644    3.0832 H   0  0  0  0  0  0  0  0  0  0  0  0
   -2.5093    1.2092    2.2599 H   0  0  0  0  0  0  0  0  0  0  0  0
   -4.2338    0.9283    2.5645 H   0  0  0  0  0  0  0  0  0  0  0  0
   -1.2626   -0.1515   -0.1463 N   0  0  0  0  0  0  0  0  0  0  0  0
    0.0431   -0.5785   -0.5755 C   0  0  2  0  0  0  0  0  0  0  0  0
    0.0876   -0.4996   -2.0958 C   0  0  0  0  0  0  0  0  0  0  0  0
   -0.6482   -1.1629   -2.8237 O   0  0  0  0  0  0  0  0  0  0  0  0
    0.3499   -1.9884   -0.0952 C   0  0  0  0  0  0  0  0  0  0  0  0
   -1.5766    0.7776   -0.4197 H   0  0  0  0  0  0  0  0  0  0  0  0
    0.7629    0.1301   -0.1513 H   0  0  0  0  0  0  0  0  0  0  0  0
   -0.3610   -2.7124   -0.5099 H   0  0  0  0  0  0  0  0  0  0  0  0
    1.3546   -2.3010   -0.3981 H   0  0  0  0  0  0  0  0  0  0  0  0
    0.2882   -2.0502    0.9967 H   0  0  0  0  0  0  0  0  0  0  0  0
    1.0757    0.3671   -2.5497 N   0  0  0  0  0  0  0  0  0  0  0  0
    1.3443    0.5814   -3.9474 C   0  0  2  0  0  0  0  0  0  0  0  0
    2.8332    0.8620   -4.1025 C   0  0  0  0  0  0  0  0  0  0  0  0
    3.4929    1.4679   -3.2606 O   0  0  0  0  0  0  0  0  0  0  0  0
    0.5143    1.7291   -4.5008 C   0  0  0  0  0  0  0  0  0  0  0  0
    1.6109    0.9054   -1.8711 H   0  0  0  0  0  0  0  0  0  0  0  0
    1.0920   -0.3509   -4.4644 H   0  0  0  0  0  0  0  0  0  0  0  0
    0.7532    2.6717   -3.9949 H   0  0  0  0  0  0  0  0  0  0  0  0
    0.6986    1.8723   -5.5706 H   0  0  0  0  0  0  0  0  0  0  0  0
   -0.5554    1.5391   -4.3615 H   0  0  0  0  0  0  0  0  0  0  0  0
    3.3293    0.3943   -5.3113 N   0  0  0  0  0  0  0  0  0  0  0  0
    4.7048    0.5764   -5.7124 C   0  0  0  0  0  0  0  0  0  0  0  0
    2.7205   -0.1321   -5.9311 H   0  0  0  0  0  0  0  0  0  0  0  0
    4.7956    1.4991   -6.3043 H   0  0  0  0  0  0  0  0  0  0  0  0
    5.3406    0.6506   -4.8179 H   0  0  0  0  0  0  0  0  0  0  0  0
    5.0260   -0.2822   -6.3204 H   0  0  0  0  0  0  0  0  0  0  0  0
  1  3  1  0  0  0  0
  1  7  1  0  0  0  0
  1  2  2  0  0  0  0
 28 29  1  0  0  0  0
 29 37  1  0  0  0  0
 29 30  2  0  0  0  0
 18 19  1  0  0  0  0
 19 27  1  0  0  0  0
 19 20  2  0  0  0  0
  8  9  1  0  0  0  0
  9 17  1  0  0  0  0
  9 10  2  0  0  0  0
 28 31  1  0  0  0  0
 18 21  1  0  0  0  0
  8 11  1  0  0  0  0
 37 38  1  0  0  0  0
 27 28  1  0  0  0  0
 17 18  1  0  0  0  0
  7  8  1  0  0  0  0
  3  4  1  0  0  0  0
  3  5  1  0  0  0  0
  3  6  1  0  0  0  0
 31 34  1  0  0  0  0
 31 35  1  0  0  0  0
 31 36  1  0  0  0  0
 21 24  1  0  0  0  0
 21 25  1  0  0  0  0
 21 26  1  0  0  0  0
 11 14  1  0  0  0  0
 11 15  1  0  0  0  0
 11 16  1  0  0  0  0
 38 40  1  0  0  0  0
 38 41  1  0  0  0  0
 38 42  1  0  0  0  0
 28 33  1  0  0  0  0
 18 23  1  0  0  0  0
  8 13  1  0  0  0  0
 37 39  1  0  0  0  0
  7 12  1  0  0  0  0
 27 32  1  0  0  0  0
 17 22  1  0  0  0  0
M  END
$$$$

  -OEChem-05262214473D

 42 41  0     1  0  0  0  0  0999 V2000
   -5.7851   -0.9580    0.6237 C   0  0  0  0  0  0  0  0  0  0  0  0
   -6.2213    0.1296    0.2652 O   0  0  0  0  0  0  0  0  0  0  0  0
   -6.7088   -2.1270    0.7168 C   0  0  0  0  0  0  0  0  0  0  0  0
   -7.1713   -2.2193    1.7126 H   0  0  0  0  0  0  0  0  0  0  0  0
   -7.5511   -2.0547    0.0101 H   0  0  0  0  0  0  0  0  0  0  0  0
   -6.2485   -3.1083    0.5191 H   0  0  0  0  0  0  0  0  0  0  0  0
   -4.4733   -1.2411    0.9668 N   0  0  0  0  0  0  0  0  0  0  0  0
   -3.4203   -0.2603    0.9449 C   0  0  2  0  0  0  0  0  0  0  0  0
   -2.1242   -0.9699    0.5759 C   0  0  0  0  0  0  0  0  0  0  0  0
   -1.8694   -2.1225    0.9189 O   0  0  0  0  0  0  0  0  0  0  0  0
   -3.2916    0.4435    2.2868 C   0  0  0  0  0  0  0  0  0  0  0  0
   -4.2421   -2.1920    1.2489 H   0  0  0  0  0  0  0  0  0  0  0  0
   -3.6772    0.4622    0.1625 H   0  0  0  0  0  0  0  0  0  0  0  0
   -3.0345   -0.2644    3.0832 H   0  0  0  0  0  0  0  0  0  0  0  0
   -2.5093    1.2092    2.2599 H   0  0  0  0  0  0  0  0  0  0  0  0
   -4.2338    0.9283    2.5645 H   0  0  0  0  0  0  0  0  0  0  0  0
   -1.2626   -0.1515   -0.1463 N   0  0  0  0  0  0  0  0  0  0  0  0
    0.0431   -0.5785   -0.5755 C   0  0  2  0  0  0  0  0  0  0  0  0
    0.0876   -0.4996   -2.0958 C   0  0  0  0  0  0  0  0  0  0  0  0
   -0.8035   -0.9435   -2.8169 O   0  0  0  0  0  0  0  0  0  0  0  0
    0.3499   -1.9884   -0.0952 C   0  0  0  0  0  0  0  0  0  0  0  0
   -1.5766    0.7776   -0.4197 H   0  0  0  0  0  0  0  0  0  0  0  0
    0.7629    0.1301   -0.1513 H   0  0  0  0  0  0  0  0  0  0  0  0
   -0.3610   -2.7124   -0.5099 H   0  0  0  0  0  0  0  0  0  0  0  0
    1.3546   -2.3010   -0.3981 H   0  0  0  0  0  0  0  0  0  0  0  0
    0.2882   -2.0502    0.9967 H   0  0  0  0  0  0  0  0  0  0  0  0
    1.2604    0.0867   -2.5589 N   0  0  0  0  0  0  0  0  0  0  0  0
    1.5579    0.2372   -3.9590 C   0  0  2  0  0  0  0  0  0  0  0  0
    3.0667    0.1253   -4.1339 C   0  0  0  0  0  0  0  0  0  0  0  0
    3.8709    0.5323   -3.2980 O   0  0  0  0  0  0  0  0  0  0  0  0
    1.0458    1.5656   -4.4937 C   0  0  0  0  0  0  0  0  0  0  0  0
    1.9249    0.4621   -1.8849 H   0  0  0  0  0  0  0  0  0  0  0  0
    1.0669   -0.5933   -4.4777 H   0  0  0  0  0  0  0  0  0  0  0  0
    1.5265    2.4097   -3.9858 H   0  0  0  0  0  0  0  0  0  0  0  0
    1.2476    1.6663   -5.5652 H   0  0  0  0  0  0  0  0  0  0  0  0
   -0.0348    1.6570   -4.3401 H   0  0  0  0  0  0  0  0  0  0  0  0
    3.4100   -0.4435   -5.3524 N   0  0  0  0  0  0  0  0  0  0  0  0
    4.7807   -0.6192   -5.7722 C   0  0  0  0  0  0  0  0  0  0  0  0
    2.6783   -0.7889   -5.9665 H   0  0  0  0  0  0  0  0  0  0  0  0
    5.0995    0.2543   -6.3600 H   0  0  0  0  0  0  0  0  0  0  0  0
    5.4253   -0.7200   -4.8865 H   0  0  0  0  0  0  0  0  0  0  0  0
    4.8616   -1.5259   -6.3897 H   0  0  0  0  0  0  0  0  0  0  0  0
  1  3  1  0  0  0  0
  1  7  1  0  0  0  0
  1  2  2  0  0  0  0
 28 29  1  0  0  0  0
 29 37  1  0  0  0  0
 29 30  2  0  0  0  0
 18 19  1  0  0  0  0
 19 27  1  0  0  0  0
 19 20  2  0  0  0  0
  8  9  1  0  0  0  0
  9 17  1  0  0  0  0
  9 10  2  0  0  0  0
 28 31  1  0  0  0  0
 18 21  1  0  0  0  0
  8 11  1  0  0  0  0
 37 38  1  0  0  0  0
 27 28  1  0  0  0  0
 17 18  1  0  0  0  0
  7  8  1  0  0  0  0
  3  4  1  0  0  0  0
  3  5  1  0  0  0  0
  3  6  1  0  0  0  0
 31 34  1  0  0  0  0
 31 35  1  0  0  0  0
 31 36  1  0  0  0  0
 21 24  1  0  0  0  0
 21 25  1  0  0  0  0
 21 26  1  0  0  0  0
 11 14  1  0  0  0  0
 11 15  1  0  0  0  0
 11 16  1  0  0  0  0
 38 40  1  0  0  0  0
 38 41  1  0  0  0  0
 38 42  1  0  0  0  0
 28 33  1  0  0  0  0
 18 23  1  0  0  0  0
  8 13  1  0  0  0  0
 37 39  1  0  0  0  0
  7 12  1  0  0  0  0
 27 32  1  0  0  0  0
 17 22  1  0  0  0  0
M  END
$$$$

  -OEChem-05262214473D

 42 41  0     1  0  0  0  0  0999 V2000
   -5.7851   -0.9580    0.6237 C   0  0  0  0  0  0  0  0  0  0  0  0
   -6.2213    0.1296    0.2652 O   0  0  0  0  0  0  0  0  0  0  0  0
   -6.7088   -2.1270    0.7168 C   0  0  0  0  0  0  0  0  0  0  0  0
   -7.1713   -2.2193    1.7126 H   0  0  0  0  0  0  0  0  0  0  0  0
   -7.5511   -2.0547    0.0101 H   0  0  0  0  0  0  0  0  0  0  0  0
   -6.2485   -3.1083    0.5191 H   0  0  0  0  0  0  0  0  0  0  0  0
   -4.4733   -1.2411    0.9668 N   0  0  0  0  0  0  0  0  0  0  0  0
   -3.4203   -0.2603    0.9449 C   0  0  2  0  0  0  0  0  0  0  0  0
   -2.1242   -0.9699    0.5759 C   0  0  0  0  0  0  0  0  0  0  0  0
   -1.8694   -2.1225    0.9189 O   0  0  0  0  0  0  0  0  0  0  0  0
   -3.2916    0.4435    2.2868 C   0  0  0  0  0  0  0  0  0  0  0  0
   -4.2421   -2.1920    1.2489 H   0  0  0  0  0  0  0  0  0  0  0  0
   -3.6772    0.4622    0.1625 H   0  0  0  0  0  0  0  0  0  0  0  0
   -3.0345   -0.2644    3.0832 H   0  0  0  0  0  0  0  0  0  0  0  0
   -2.5093    1.2092    2.2599 H   0  0  0  0  0  0  0  0  0  0  0  0
   -4.2338    0.9283    2.5645 H   0  0  0  0  0  0  0  0  0  0  0  0
   -1.2626   -0.1515   -0.1463 N   0  0  0  0  0  0  0  0  0  0  0  0
    0.0431   -0.5785   -0.5755 C   0  0  2  0  0  0  0  0  0  0  0  0
    0.0876   -0.4996   -2.0958 C   0  0  0  0  0  0  0  0  0  0  0  0
   -0.8969   -0.6915   -2.8065 O   0  0  0  0  0  0  0  0  0  0  0  0
    0.3499   -1.9884   -0.0952 C   0  0  0  0  0  0  0  0  0  0  0  0
   -1.5766    0.7776   -0.4197 H   0  0  0  0  0  0  0  0  0  0  0  0
    0.7629    0.1301   -0.1513 H   0  0  0  0  0  0  0  0  0  0  0  0
   -0.3610   -2.7124   -0.5099 H   0  0  0  0  0  0  0  0  0  0  0  0
    1.3546   -2.3010   -0.3981 H   0  0  0  0  0  0  0  0  0  0  0  0
    0.2882   -2.0502    0.9967 H   0  0  0  0  0  0  0  0  0  0  0  0
    1.3663   -0.2319   -2.5723 N   0  0  0  0  0  0  0  0  0  0  0  0
    1.6752   -0.1502   -3.9756 C   0  0  2  0  0  0  0  0  0  0  0  0
    3.1014   -0.6465   -4.1729 C   0  0  0  0  0  0  0  0  0  0  0  0
    3.9938   -0.4689   -3.3464 O   0  0  0  0  0  0  0  0  0  0  0  0
    1.5171    1.2702   -4.4952 C   0  0  0  0  0  0  0  0  0  0  0  0
    2.1134   -0.0472   -1.9058 H   0  0  0  0  0  0  0  0  0  0  0  0
    0.9798   -0.8209   -4.4921 H   0  0  0  0  0  0  0  0  0  0  0  0
    2.2059    1.9567   -3.9894 H   0  0  0  0  0  0  0  0  0  0  0  0
    1.7248    1.3253   -5.5690 H   0  0  0  0  0  0  0  0  0  0  0  0
    0.4988    1.6362   -4.3256 H   0  0  0  0  0  0  0  0  0  0  0  0
    3.2710   -1.2733   -5.3995 N   0  0  0  0  0  0  0  0  0  0  0  0
    4.5444   -1.7931   -5.8400 C   0  0  0  0  0  0  0  0  0  0  0  0
    2.4673   -1.4122   -6.0050 H   0  0  0  0  0  0  0  0  0  0  0  0
    5.0708   -1.0263   -6.4273 H   0  0  0  0  0  0  0  0  0  0  0  0
    5.1520   -2.0653   -4.9643 H   0  0  0  0  0  0  0  0  0  0  0  0
    4.3806   -2.6842   -6.4638 H   0  0  0  0  0  0  0  0  0  0  0  0
  1  3  1  0  0  0  0
  1  7  1  0  0  0  0
  1  2  2  0  0  0  0
 28 29  1  0  0  0  0
 29 37  1  0  0  0  0
 29 30  2  0  0  0  0
 18 19  1  0  0  0  0
 19 27  1  0  0  0  0
 19 20  2  0  0  0  0
  8  9  1  0  0  0  0
  9 17  1  0  0  0  0
  9 10  2  0  0  0  0
 28 31  1  0  0  0  0
 18 21  1  0  0  0  0
  8 11  1  0  0  0  0
 37 38  1  0  0  0  0
 27 28  1  0  0  0  0
 17 18  1  0  0  0  0
  7  8  1  0  0  0  0
  3  4  1  0  0  0  0
  3  5  1  0  0  0  0
  3  6  1  0  0  0  0
 31 34  1  0  0  0  0
 31 35  1  0  0  0  0
 31 36  1  0  0  0  0
 21 24  1  0  0  0  0
 21 25  1  0  0  0  0
 21 26  1  0  0  0  0
 11 14  1  0  0  0  0
 11 15  1  0  0  0  0
 11 16  1  0  0  0  0
 38 40  1  0  0  0  0
 38 41  1  0  0  0  0
 38 42  1  0  0  0  0
 28 33  1  0  0  0  0
 18 23  1  0  0  0  0
  8 13  1  0  0  0  0
 37 39  1  0  0  0  0
  7 12  1  0  0  0  0
 27 32  1  0  0  0  0
 17 22  1  0  0  0  0
M  END
$$$$

  -OEChem-05262214473D

 42 41  0     1  0  0  0  0  0999 V2000
   -5.7851   -0.9580    0.6237 C   0  0  0  0  0  0  0  0  0  0  0  0
   -6.2213    0.1296    0.2652 O   0  0  0  0  0  0  0  0  0  0  0  0
   -6.7088   -2.1270    0.7168 C   0  0  0  0  0  0  0  0  0  0  0  0
   -7.1713   -2.2193    1.7126 H   0  0  0  0  0  0  0  0  0  0  0  0
   -7.5511   -2.0547    0.0101 H   0  0  0  0  0  0  0  0  0  0  0  0
   -6.2485   -3.1083    0.5191 H   0  0  0  0  0  0  0  0  0  0  0  0
   -4.4733   -1.2411    0.9668 N   0  0  0  0  0  0  0  0  0  0  0  0
   -3.4203   -0.2603    0.9449 C   0  0  2  0  0  0  0  0  0  0  0  0
   -2.1242   -0.9699    0.5759 C   0  0  0  0  0  0  0  0  0  0  0  0
   -1.8694   -2.1225    0.9189 O   0  0  0  0  0  0  0  0  0  0  0  0
   -3.2916    0.4435    2.2868 C   0  0  0  0  0  0  0  0  0  0  0  0
   -4.2421   -2.1920    1.2489 H   0  0  0  0  0  0  0  0  0  0  0  0
   -3.6772    0.4622    0.1625 H   0  0  0  0  0  0  0  0  0  0  0  0
   -3.0345   -0.2644    3.0832 H   0  0  0  0  0  0  0  0  0  0  0  0
   -2.5093    1.2092    2.2599 H   0  0  0  0  0  0  0  0  0  0  0  0
   -4.2338    0.9283    2.5645 H   0  0  0  0  0  0  0  0  0  0  0  0
   -1.2626   -0.1515   -0.1463 N   0  0  0  0  0  0  0  0  0  0  0  0
    0.0431   -0.5785   -0.5755 C   0  0  2  0  0  0  0  0  0  0  0  0
    0.0876   -0.4996   -2.0958 C   0  0  0  0  0  0  0  0  0  0  0  0
   -0.9218   -0.4241   -2.7934 O   0  0  0  0  0  0  0  0  0  0  0  0
    0.3499   -1.9884   -0.0952 C   0  0  0  0  0  0  0  0  0  0  0  0
   -1.5766    0.7776   -0.4197 H   0  0  0  0  0  0  0  0  0  0  0  0
    0.7629    0.1301   -0.1513 H   0  0  0  0  0  0  0  0  0  0  0  0
   -0.3610   -2.7124   -0.5099 H   0  0  0  0  0  0  0  0  0  0  0  0
    1.3546   -2.3010   -0.3981 H   0  0  0  0  0  0  0  0  0  0  0  0
    0.2882   -2.0502    0.9967 H   0  0  0  0  0  0  0  0  0  0  0  0
    1.3860   -0.5669   -2.5891 N   0  0  0  0  0  0  0  0  0  0  0  0
    1.6881   -0.5547   -3.9962 C   0  0  2  0  0  0  0  0  0  0  0  0
    2.9351   -1.4007   -4.2169 C   0  0  0  0  0  0  0  0  0  0  0  0
    3.8533   -1.4673   -3.4023 O   0  0  0  0  0  0  0  0  0  0  0  0
    1.8960    0.8632   -4.5053 C   0  0  0  0  0  0  0  0  0  0  0  0
    2.1637   -0.5876   -1.9324 H   0  0  0  0  0  0  0  0  0  0  0  0
    0.8367   -1.0181   -4.5065 H   0  0  0  0  0  0  0  0  0  0  0  0
    2.7450    1.3437   -4.0055 H   0  0  0  0  0  0  0  0  0  0  0  0
    2.0975    0.8728   -5.5815 H   0  0  0  0  0  0  0  0  0  0  0  0
    1.0090    1.4782   -4.3189 H   0  0  0  0  0  0  0  0  0  0  0  0
    2.9217   -2.0385   -5.4494 N   0  0  0  0  0  0  0  0  0  0  0  0
    4.0120   -2.8655   -5.9112 C   0  0  0  0  0  0  0  0  0  0  0  0
    2.1019   -1.9595   -6.0440 H   0  0  0  0  0  0  0  0  0  0  0  0
    4.7113   -2.2552   -6.5015 H   0  0  0  0  0  0  0  0  0  0  0  0
    4.5394   -3.2935   -5.0459 H   0  0  0  0  0  0  0  0  0  0  0  0
    3.6157   -3.6782   -6.5378 H   0  0  0  0  0  0  0  0  0  0  0  0
  1  3  1  0  0  0  0
  1  7  1  0  0  0  0
  1  2  2  0  0  0  0
 28 29  1  0  0  0  0
 29 37  1  0  0  0  0
 29 30  2  0  0  0  0
 18 19  1  0  0  0  0
 19 27  1  0  0  0  0
 19 20  2  0  0  0  0
  8  9  1  0  0  0  0
  9 17  1  0  0  0  0
  9 10  2  0  0  0  0
 28 31  1  0  0  0  0
 18 21  1  0  0  0  0
  8 11  1  0  0  0  0
 37 38  1  0  0  0  0
 27 28  1  0  0  0  0
 17 18  1  0  0  0  0
  7  8  1  0  0  0  0
  3  4  1  0  0  0  0
  3  5  1  0  0  0  0
  3  6  1  0  0  0  0
 31 34  1  0  0  0  0
 31 35  1  0  0  0  0
 31 36  1  0  0  0  0
 21 24  1  0  0  0  0
 21 25  1  0  0  0  0
 21 26  1  0  0  0  0
 11 14  1  0  0  0  0
 11 15  1  0  0  0  0
 11 16  1  0  0  0  0
 38 40  1  0  0  0  0
 38 41  1  0  0  0  0
 38 42  1  0  0  0  0
 28 33  1  0  0  0  0
 18 23  1  0  0  0  0
  8 13  1  0  0  0  0
 37 39  1  0  0  0  0
  7 12  1  0  0  0  0
 27 32  1  0  0  0  0
 17 22  1  0  0  0  0
M  END
$$$$

  -OEChem-05262214473D

 42 41  0     1  0  0  0  0  0999 V2000
   -5.7851   -0.9580    0.6237 C   0  0  0  0  0  0  0  0  0  0  0  0
   -6.2213    0.1296    0.2652 O   0  0  0  0  0  0  0  0  0  0  0  0
   -6.7088   -2.1270    0.7168 C   0  0  0  0  0  0  0  0  0  0  0  0
   -7.1713   -2.2193    1.7126 H   0  0  0  0  0  0  0  0  0  0  0  0
   -7.5511   -2.0547    0.0101 H   0  0  0  0  0  0  0  0  0  0  0  0
   -6.2485   -3.1083    0.5191 H   0  0  0  0  0  0  0  0  0  0  0  0
   -4.4733   -1.2411    0.9668 N   0  0  0  0  0  0  0  0  0  0  0  0
   -3.4203   -0.2603    0.9449 C   0  0  2  0  0  0  0  0  0  0  0  0
   -2.1242   -0.9699    0.5759 C   0  0  0  0  0  0  0  0  0  0  0  0
   -1.8694   -2.1225    0.9189 O   0  0  0  0  0  0  0  0  0  0  0  0
   -3.2916    0.4435    2.2868 C   0  0  0  0  0  0  0  0  0  0  0  0
   -4.2421   -2.1920    1.2489 H   0  0  0  0  0  0  0  0  0  0  0  0
   -3.6772    0.4622    0.1625 H   0  0  0  0  0  0  0  0  0  0  0  0
   -3.0345   -0.2644    3.0832 H   0  0  0  0  0  0  0  0  0  0  0  0
   -2.5093    1.2092    2.2599 H   0  0  0  0  0  0  0  0  0  0  0  0
   -4.2338    0.9283    2.5645 H   0  0  0  0  0  0  0  0  0  0  0  0
   -1.2626   -0.1515   -0.1463 N   0  0  0  0  0  0  0  0  0  0  0  0
    0.0431   -0.5785   -0.5755 C   0  0  2  0  0  0  0  0  0  0  0  0
    0.2234   -0.1535   -2.0269 C   0  0  0  0  0  0  0  0  0  0  0  0
   -0.6530    0.4176   -2.6724 O   0  0  0  0  0  0  0  0  0  0  0  0
    0.2108   -2.0824   -0.4247 C   0  0  0  0  0  0  0  0  0  0  0  0
   -1.5766    0.7776   -0.4197 H   0  0  0  0  0  0  0  0  0  0  0  0
    0.7702   -0.0524    0.0527 H   0  0  0  0  0  0  0  0  0  0  0  0
   -0.5093   -2.6264   -1.0467 H   0  0  0  0  0  0  0  0  0  0  0  0
    1.2143   -2.4018   -0.7247 H   0  0  0  0  0  0  0  0  0  0  0  0
    0.0514   -2.3900    0.6145 H   0  0  0  0  0  0  0  0  0  0  0  0
    1.4639   -0.5245   -2.5342 N   0  0  0  0  0  0  0  0  0  0  0  0
    1.8574   -0.2728   -3.8956 C   0  0  2  0  0  0  0  0  0  0  0  0
    2.7783   -1.4033   -4.3355 C   0  0  0  0  0  0  0  0  0  0  0  0
    3.5629   -1.9644   -3.5735 O   0  0  0  0  0  0  0  0  0  0  0  0
    2.5481    1.0752   -4.0317 C   0  0  0  0  0  0  0  0  0  0  0  0
    2.1424   -0.9592   -1.9120 H   0  0  0  0  0  0  0  0  0  0  0  0
    0.9425   -0.2909   -4.4978 H   0  0  0  0  0  0  0  0  0  0  0  0
    3.4670    1.1123   -3.4352 H   0  0  0  0  0  0  0  0  0  0  0  0
    2.8214    1.2777   -5.0725 H   0  0  0  0  0  0  0  0  0  0  0  0
    1.8952    1.8842   -3.6869 H   0  0  0  0  0  0  0  0  0  0  0  0
    2.6518   -1.6826   -5.6891 N   0  0  0  0  0  0  0  0  0  0  0  0
    3.4488   -2.6857   -6.3559 C   0  0  0  0  0  0  0  0  0  0  0  0
    1.9477   -1.1959   -6.2361 H   0  0  0  0  0  0  0  0  0  0  0  0
    4.3492   -2.2171   -6.7798 H   0  0  0  0  0  0  0  0  0  0  0  0
    3.7444   -3.4596   -5.6324 H   0  0  0  0  0  0  0  0  0  0  0  0
    2.8596   -3.1446   -7.1636 H   0  0  0  0  0  0  0  0  0  0  0  0
  1  3  1  0  0  0  0
  1  7  1  0  0  0  0
  1  2  2  0  0  0  0
 28 29  1  0  0  0  0
 29 37  1  0  0  0  0
 29 30  2  0  0  0  0
 18 19  1  0  0  0  0
 19 27  1  0  0  0  0
 19 20  2  0  0  0  0
  8  9  1  0  0  0  0
  9 17  1  0  0  0  0
  9 10  2  0  0  0  0
 28 31  1  0  0  0  0
 18 21  1  0  0  0  0
  8 11  1  0  0  0  0
 37 38  1  0  0  0  0
 27 28  1  0  0  0  0
 17 18  1  0  0  0  0
  7  8  1  0  0  0  0
  3  4  1  0  0  0  0
  3  5  1  0  0  0  0
  3  6  1  0  0  0  0
 31 34  1  0  0  0  0
 31 35  1  0  0  0  0
 31 36  1  0  0  0  0
 21 24  1  0  0  0  0
 21 25  1  0  0  0  0
 21 26  1  0  0  0  0
 11 14  1  0  0  0  0
 11 15  1  0  0  0  0
 11 16  1  0  0  0  0
 38 40  1  0  0  0  0
 38 41  1  0  0  0  0
 38 42  1  0  0  0  0
 28 33  1  0  0  0  0
 18 23  1  0  0  0  0
  8 13  1  0  0  0  0
 37 39  1  0  0  0  0
  7 12  1  0  0  0  0
 27 32  1  0  0  0  0
 17 22  1  0  0  0  0
M  END
$$$$

  -OEChem-05262214473D

 42 41  0     1  0  0  0  0  0999 V2000
   -5.7851   -0.9580    0.6237 C   0  0  0  0  0  0  0  0  0  0  0  0
   -6.2213    0.1296    0.2652 O   0  0  0  0  0  0  0  0  0  0  0  0
   -6.7088   -2.1270    0.7168 C   0  0  0  0  0  0  0  0  0  0  0  0
   -7.1713   -2.2193    1.7126 H   0  0  0  0  0  0  0  0  0  0  0  0
   -7.5511   -2.0547    0.0101 H   0  0  0  0  0  0  0  0  0  0  0  0
   -6.2485   -3.1083    0.5191 H   0  0  0  0  0  0  0  0  0  0  0  0
   -4.4733   -1.2411    0.9668 N   0  0  0  0  0  0  0  0  0  0  0  0
   -3.4203   -0.2603    0.9449 C   0  0  2  0  0  0  0  0  0  0  0  0
   -2.1242   -0.9699    0.5759 C   0  0  0  0  0  0  0  0  0  0  0  0
   -1.8694   -2.1225    0.9189 O   0  0  0  0  0  0  0  0  0  0  0  0
   -3.2916    0.4435    2.2868 C   0  0  0  0  0  0  0  0  0  0  0  0
   -4.2421   -2.1920    1.2489 H   0  0  0  0  0  0  0  0  0  0  0  0
   -3.6772    0.4622    0.1625 H   0  0  0  0  0  0  0  0  0  0  0  0
   -3.0345   -0.2644    3.0832 H   0  0  0  0  0  0  0  0  0  0  0  0
   -2.5093    1.2092    2.2599 H   0  0  0  0  0  0  0  0  0  0  0  0
   -4.2338    0.9283    2.5645 H   0  0  0  0  0  0  0  0  0  0  0  0
   -1.2626   -0.1515   -0.1463 N   0  0  0  0  0  0  0  0  0  0  0  0
    0.0431   -0.5785   -0.5755 C   0  0  2  0  0  0  0  0  0  0  0  0
    0.2234   -0.1535   -2.0269 C   0  0  0  0  0  0  0  0  0  0  0  0
   -0.5262    0.6405   -2.5914 O   0  0  0  0  0  0  0  0  0  0  0  0
    0.2108   -2.0824   -0.4247 C   0  0  0  0  0  0  0  0  0  0  0  0
   -1.5766    0.7776   -0.4197 H   0  0  0  0  0  0  0  0  0  0  0  0
    0.7702   -0.0524    0.0527 H   0  0  0  0  0  0  0  0  0  0  0  0
   -0.5093   -2.6264   -1.0467 H   0  0  0  0  0  0  0  0  0  0  0  0
    1.2143   -2.4018   -0.7247 H   0  0  0  0  0  0  0  0  0  0  0  0
    0.0514   -2.3900    0.6145 H   0  0  0  0  0  0  0  0  0  0  0  0
    1.2956   -0.7972   -2.6350 N   0  0  0  0  0  0  0  0  0  0  0  0
    1.6452   -0.5961   -4.0166 C   0  0  2  0  0  0  0  0  0  0  0  0
    2.2250   -1.8996   -4.5496 C   0  0  0  0  0  0  0  0  0  0  0  0
    2.8963   -2.6660   -3.8618 O   0  0  0  0  0  0  0  0  0  0  0  0
    2.6374    0.5454   -4.1757 C   0  0  0  0  0  0  0  0  0  0  0  0
    1.8862   -1.4096   -2.0757 H   0  0  0  0  0  0  0  0  0  0  0  0
    0.7153   -0.3651   -4.5477 H   0  0  0  0  0  0  0  0  0  0  0  0
    3.5754    0.3320   -3.6502 H   0  0  0  0  0  0  0  0  0  0  0  0
    2.8804    0.7158   -5.2297 H   0  0  0  0  0  0  0  0  0  0  0  0
    2.2304    1.4757   -3.7649 H   0  0  0  0  0  0  0  0  0  0  0  0
    1.9409   -2.0854   -5.8953 N   0  0  0  0  0  0  0  0  0  0  0  0
    2.4170   -3.2261   -6.6424 C   0  0  0  0  0  0  0  0  0  0  0  0
    1.3437   -1.4194   -6.3765 H   0  0  0  0  0  0  0  0  0  0  0  0
    3.3743   -2.9765   -7.1233 H   0  0  0  0  0  0  0  0  0  0  0  0
    2.5604   -4.0771   -5.9602 H   0  0  0  0  0  0  0  0  0  0  0  0
    1.6787   -3.4939   -7.4126 H   0  0  0  0  0  0  0  0  0  0  0  0
  1  3  1  0  0  0  0
  1  7  1  0  0  0  0
  1  2  2  0  0  0  0
 28 29  1  0  0  0  0
 29 37  1  0  0  0  0
 29 30  2  0  0  0  0
 18 19  1  0  0  0  0
 19 27  1  0  0  0  0
 19 20  2  0  0  0  0
  8  9  1  0  0  0  0
  9 17  1  0  0  0  0
  9 10  2  0  0  0  0
 28 31  1  0  0  0  0
 18 21  1  0  0  0  0
  8 11  1  0  0  0  0
 37 38  1  0  0  0  0
 27 28  1  0  0  0  0
 17 18  1  0  0  0  0
  7  8  1  0  0  0  0
  3  4  1  0  0  0  0
  3  5  1  0  0  0  0
  3  6  1  0  0  0  0
 31 34  1  0  0  0  0
 31 35  1  0  0  0  0
 31 36  1  0  0  0  0
 21 24  1  0  0  0  0
 21 25  1  0  0  0  0
 21 26  1  0  0  0  0
 11 14  1  0  0  0  0
 11 15  1  0  0  0  0
 11 16  1  0  0  0  0
 38 40  1  0  0  0  0
 38 41  1  0  0  0  0
 38 42  1  0  0  0  0
 28 33  1  0  0  0  0
 18 23  1  0  0  0  0
  8 13  1  0  0  0  0
 37 39  1  0  0  0  0
  7 12  1  0  0  0  0
 27 32  1  0  0  0  0
 17 22  1  0  0  0  0
M  END
$$$$

  -OEChem-05262214473D

 42 41  0     1  0  0  0  0  0999 V2000
   -5.7851   -0.9580    0.6237 C   0  0  0  0  0  0  0  0  0  0  0  0
   -6.2213    0.1296    0.2652 O   0  0  0  0  0  0  0  0  0  0  0  0
   -6.7088   -2.1270    0.7168 C   0  0  0  0  0  0  0  0  0  0  0  0
   -7.1713   -2.2193    1.7126 H   0  0  0  0  0  0  0  0  0  0  0  0
   -7.5511   -2.0547    0.0101 H   0  0  0  0  0  0  0  0  0  0  0  0
   -6.2485   -3.1083    0.5191 H   0  0  0  0  0  0  0  0  0  0  0  0
   -4.4733   -1.2411    0.9668 N   0  0  0  0  0  0  0  0  0  0  0  0
   -3.4203   -0.2603    0.9449 C   0  0  2  0  0  0  0  0  0  0  0  0
   -2.1242   -0.9699    0.5759 C   0  0  0  0  0  0  0  0  0  0  0  0
   -1.8694   -2.1225    0.9189 O   0  0  0  0  0  0  0  0  0  0  0  0
   -3.2916    0.4435    2.2868 C   0  0  0  0  0  0  0  0  0  0  0  0
   -4.2421   -2.1920    1.2489 H   0  0  0  0  0  0  0  0  0  0  0  0
   -3.6772    0.4622    0.1625 H   0  0  0  0  0  0  0  0  0  0  0  0
   -3.0345   -0.2644    3.0832 H   0  0  0  0  0  0  0  0  0  0  0  0
   -2.5093    1.2092    2.2599 H   0  0  0  0  0  0  0  0  0  0  0  0
   -4.2338    0.9283    2.5645 H   0  0  0  0  0  0  0  0  0  0  0  0
   -1.2626   -0.1515   -0.1463 N   0  0  0  0  0  0  0  0  0  0  0  0
    0.0431   -0.5785   -0.5755 C   0  0  2  0  0  0  0  0  0  0  0  0
    0.2234   -0.1535   -2.0269 C   0  0  0  0  0  0  0  0  0  0  0  0
   -0.3429    0.8220   -2.5155 O   0  0  0  0  0  0  0  0  0  0  0  0
    0.2108   -2.0824   -0.4247 C   0  0  0  0  0  0  0  0  0  0  0  0
   -1.5766    0.7776   -0.4197 H   0  0  0  0  0  0  0  0  0  0  0  0
    0.7702   -0.0524    0.0527 H   0  0  0  0  0  0  0  0  0  0  0  0
   -0.5093   -2.6264   -1.0467 H   0  0  0  0  0  0  0  0  0  0  0  0
    1.2143   -2.4018   -0.7247 H   0  0  0  0  0  0  0  0  0  0  0  0
    0.0514   -2.3900    0.6145 H   0  0  0  0  0  0  0  0  0  0  0  0
    1.0585   -1.0161   -2.7286 N   0  0  0  0  0  0  0  0  0  0  0  0
    1.3517   -0.8522   -4.1280 C   0  0  2  0  0  0  0  0  0  0  0  0
    1.5526   -2.2360   -4.7316 C   0  0  0  0  0  0  0  0  0  0  0  0
    2.0585   -3.1704   -4.1136 O   0  0  0  0  0  0  0  0  0  0  0  0
    2.5825    0.0161   -4.3375 C   0  0  0  0  0  0  0  0  0  0  0  0
    1.5158   -1.7764   -2.2292 H   0  0  0  0  0  0  0  0  0  0  0  0
    0.4740   -0.3791   -4.5818 H   0  0  0  0  0  0  0  0  0  0  0  0
    3.4721   -0.4417   -3.8896 H   0  0  0  0  0  0  0  0  0  0  0  0
    2.7876    0.1633   -5.4030 H   0  0  0  0  0  0  0  0  0  0  0  0
    2.4478    1.0007   -3.8769 H   0  0  0  0  0  0  0  0  0  0  0  0
    1.1401   -2.2928   -6.0555 N   0  0  0  0  0  0  0  0  0  0  0  0
    1.2665   -3.4849   -6.8611 C   0  0  0  0  0  0  0  0  0  0  0  0
    0.6950   -1.4820   -6.4755 H   0  0  0  0  0  0  0  0  0  0  0  0
    2.2205   -3.4591   -7.4079 H   0  0  0  0  0  0  0  0  0  0  0  0
    1.2408   -4.3714   -6.2104 H   0  0  0  0  0  0  0  0  0  0  0  0
    0.4340   -3.5324   -7.5785 H   0  0  0  0  0  0  0  0  0  0  0  0
  1  3  1  0  0  0  0
  1  7  1  0  0  0  0
  1  2  2  0  0  0  0
 28 29  1  0  0  0  0
 29 37  1  0  0  0  0
 29 30  2  0  0  0  0
 18 19  1  0  0  0  0
 19 27  1  0  0  0  0
 19 20  2  0  0  0  0
  8  9  1  0  0  0  0
  9 17  1  0  0  0  0
  9 10  2  0  0  0  0
 28 31  1  0  0  0  0
 18 21  1  0  0  0  0
  8 11  1  0  0  0  0
 37 38  1  0  0  0  0
 27 28  1  0  0  0  0
 17 18  1  0  0  0  0
  7  8  1  0  0  0  0
  3  4  1  0  0  0  0
  3  5  1  0  0  0  0
  3  6  1  0  0  0  0
 31 34  1  0  0  0  0
 31 35  1  0  0  0  0
 31 36  1  0  0  0  0
 21 24  1  0  0  0  0
 21 25  1  0  0  0  0
 21 26  1  0  0  0  0
 11 14  1  0  0  0  0
 11 15  1  0  0  0  0
 11 16  1  0  0  0  0
 38 40  1  0  0  0  0
 38 41  1  0  0  0  0
 38 42  1  0  0  0  0
 28 33  1  0  0  0  0
 18 23  1  0  0  0  0
  8 13  1  0  0  0  0
 37 39  1  0  0  0  0
  7 12  1  0  0  0  0
 27 32  1  0  0  0  0
 17 22  1  0  0  0  0
M  END
$$$$

  -OEChem-05262214473D

 42 41  0     1  0  0  0  0  0999 V2000
   -5.7851   -0.9580    0.6237 C   0  0  0  0  0  0  0  0  0  0  0  0
   -6.2213    0.1296    0.2652 O   0  0  0  0  0  0  0  0  0  0  0  0
   -6.7088   -2.1270    0.7168 C   0  0  0  0  0  0  0  0  0  0  0  0
   -7.1713   -2.2193    1.7126 H   0  0  0  0  0  0  0  0  0  0  0  0
   -7.5511   -2.0547    0.0101 H   0  0  0  0  0  0  0  0  0  0  0  0
   -6.2485   -3.1083    0.5191 H   0  0  0  0  0  0  0  0  0  0  0  0
   -4.4733   -1.2411    0.9668 N   0  0  0  0  0  0  0  0  0  0  0  0
   -3.4203   -0.2603    0.9449 C   0  0  2  0  0  0  0  0  0  0  0  0
   -2.1242   -0.9699    0.5759 C   0  0  0  0  0  0  0  0  0  0  0  0
   -1.8694   -2.1225    0.9189 O   0  0  0  0  0  0  0  0  0  0  0  0
   -3.2916    0.4435    2.2868 C   0  0  0  0  0  0  0  0  0  0  0  0
   -4.2421   -2.1920    1.2489 H   0  0  0  0  0  0  0  0  0  0  0  0
   -3.6772    0.4622    0.1625 H   0  0  0  0  0  0  0  0  0  0  0  0
   -3.0345   -0.2644    3.0832 H   0  0  0  0  0  0  0  0  0  0  0  0
   -2.5093    1.2092    2.2599 H   0  0  0  0  0  0  0  0  0  0  0  0
   -4.2338    0.9283    2.5645 H   0  0  0  0  0  0  0  0  0  0  0  0
   -1.2626   -0.1515   -0.1463 N   0  0  0  0  0  0  0  0  0  0  0  0
    0.0431   -0.5785   -0.5755 C   0  0  2  0  0  0  0  0  0  0  0  0
    0.2234   -0.1535   -2.0269 C   0  0  0  0  0  0  0  0  0  0  0  0
   -0.1156    0.9498   -2.4498 O   0  0  0  0  0  0  0  0  0  0  0  0
    0.2108   -2.0824   -0.4247 C   0  0  0  0  0  0  0  0  0  0  0  0
   -1.5766    0.7776   -0.4197 H   0  0  0  0  0  0  0  0  0  0  0  0
    0.7702   -0.0524    0.0527 H   0  0  0  0  0  0  0  0  0  0  0  0
   -0.5093   -2.6264   -1.0467 H   0  0  0  0  0  0  0  0  0  0  0  0
    1.2143   -2.4018   -0.7247 H   0  0  0  0  0  0  0  0  0  0  0  0
    0.0514   -2.3900    0.6145 H   0  0  0  0  0  0  0  0  0  0  0  0
    0.7687   -1.1661   -2.8085 N   0  0  0  0  0  0  0  0  0  0  0  0
    0.9970   -1.0238   -4.2224 C   0  0  2  0  0  0  0  0  0  0  0  0
    0.8070   -2.3895   -4.8692 C   0  0  0  0  0  0  0  0  0  0  0  0
    1.1067   -3.4433   -4.3117 O   0  0  0  0  0  0  0  0  0  0  0  0
    2.3873   -0.4767   -4.5061 C   0  0  0  0  0  0  0  0  0  0  0  0
    1.0564   -2.0347   -2.3618 H   0  0  0  0  0  0  0  0  0  0  0  0
    0.2350   -0.3321   -4.5977 H   0  0  0  0  0  0  0  0  0  0  0  0
    3.1641   -1.1563   -4.1371 H   0  0  0  0  0  0  0  0  0  0  0  0
    2.5491   -0.3421   -5.5807 H   0  0  0  0  0  0  0  0  0  0  0  0
    2.5326    0.4918   -4.0154 H   0  0  0  0  0  0  0  0  0  0  0  0
    0.3038   -2.2906   -6.1588 N   0  0  0  0  0  0  0  0  0  0  0  0
    0.0755   -3.4443   -6.9972 C   0  0  0  0  0  0  0  0  0  0  0  0
    0.0459   -1.3794   -6.5261 H   0  0  0  0  0  0  0  0  0  0  0  0
    0.9665   -3.6319   -7.6143 H   0  0  0  0  0  0  0  0  0  0  0  0
   -0.1245   -4.3225   -6.3657 H   0  0  0  0  0  0  0  0  0  0  0  0
   -0.7899   -3.2575   -7.6501 H   0  0  0  0  0  0  0  0  0  0  0  0
  1  3  1  0  0  0  0
  1  7  1  0  0  0  0
  1  2  2  0  0  0  0
 28 29  1  0  0  0  0
 29 37  1  0  0  0  0
 29 30  2  0  0  0  0
 18 19  1  0  0  0  0
 19 27  1  0  0  0  0
 19 20  2  0  0  0  0
  8  9  1  0  0  0  0
  9 17  1  0  0  0  0
  9 10  2  0  0  0  0
 28 31  1  0  0  0  0
 18 21  1  0  0  0  0
  8 11  1  0  0  0  0
 37 38  1  0  0  0  0
 27 28  1  0  0  0  0
 17 18  1  0  0  0  0
  7  8  1  0  0  0  0
  3  4  1  0  0  0  0
  3  5  1  0  0  0  0
  3  6  1  0  0  0  0
 31 34  1  0  0  0  0
 31 35  1  0  0  0  0
 31 36  1  0  0  0  0
 21 24  1  0  0  0  0
 21 25  1  0  0  0  0
 21 26  1  0  0  0  0
 11 14  1  0  0  0  0
 11 15  1  0  0  0  0
 11 16  1  0  0  0  0
 38 40  1  0  0  0  0
 38 41  1  0  0  0  0
 38 42  1  0  0  0  0
 28 33  1  0  0  0  0
 18 23  1  0  0  0  0
  8 13  1  0  0  0  0
 37 39  1  0  0  0  0
  7 12  1  0  0  0  0
 27 32  1  0  0  0  0
 17 22  1  0  0  0  0
M  END
$$$$

  -OEChem-05262214473D

 42 41  0     1  0  0  0  0  0999 V2000
   -5.7851   -0.9580    0.6237 C   0  0  0  0  0  0  0  0  0  0  0  0
   -6.2213    0.1296    0.2652 O   0  0  0  0  0  0  0  0  0  0  0  0
   -6.7088   -2.1270    0.7168 C   0  0  0  0  0  0  0  0  0  0  0  0
   -7.1713   -2.2193    1.7126 H   0  0  0  0  0  0  0  0  0  0  0  0
   -7.5511   -2.0547    0.0101 H   0  0  0  0  0  0  0  0  0  0  0  0
   -6.2485   -3.1083    0.5191 H   0  0  0  0  0  0  0  0  0  0  0  0
   -4.4733   -1.2411    0.9668 N   0  0  0  0  0  0  0  0  0  0  0  0
   -3.4203   -0.2603    0.9449 C   0  0  2  0  0  0  0  0  0  0  0  0
   -2.1242   -0.9699    0.5759 C   0  0  0  0  0  0  0  0  0  0  0  0
   -1.8694   -2.1225    0.9189 O   0  0  0  0  0  0  0  0  0  0  0  0
   -3.2916    0.4435    2.2868 C   0  0  0  0  0  0  0  0  0  0  0  0
   -4.2421   -2.1920    1.2489 H   0  0  0  0  0  0  0  0  0  0  0  0
   -3.6772    0.4622    0.1625 H   0  0  0  0  0  0  0  0  0  0  0  0
   -3.0345   -0.2644    3.0832 H   0  0  0  0  0  0  0  0  0  0  0  0
   -2.5093    1.2092    2.2599 H   0  0  0  0  0  0  0  0  0  0  0  0
   -4.2338    0.9283    2.5645 H   0  0  0  0  0  0  0  0  0  0  0  0
   -1.2626   -0.1515   -0.1463 N   0  0  0  0  0  0  0  0  0  0  0  0
    0.0431   -0.5785   -0.5755 C   0  0  2  0  0  0  0  0  0  0  0  0
    0.2234   -0.1535   -2.0269 C   0  0  0  0  0  0  0  0  0  0  0  0
    0.1402    1.0151   -2.3989 O   0  0  0  0  0  0  0  0  0  0  0  0
    0.2108   -2.0824   -0.4247 C   0  0  0  0  0  0  0  0  0  0  0  0
   -1.5766    0.7776   -0.4197 H   0  0  0  0  0  0  0  0  0  0  0  0
    0.7702   -0.0524    0.0527 H   0  0  0  0  0  0  0  0  0  0  0  0
   -0.5093   -2.6264   -1.0467 H   0  0  0  0  0  0  0  0  0  0  0  0
    1.2143   -2.4018   -0.7247 H   0  0  0  0  0  0  0  0  0  0  0  0
    0.0514   -2.3900    0.6145 H   0  0  0  0  0  0  0  0  0  0  0  0
    0.4461   -1.2372   -2.8694 N   0  0  0  0  0  0  0  0  0  0  0  0
    0.6053   -1.0993   -4.2931 C   0  0  2  0  0  0  0  0  0  0  0  0
    0.0391   -2.3497   -4.9530 C   0  0  0  0  0  0  0  0  0  0  0  0
    0.1057   -3.4661   -4.4428 O   0  0  0  0  0  0  0  0  0  0  0  0
    2.0650   -0.8994   -4.6699 C   0  0  0  0  0  0  0  0  0  0  0  0
    0.5394   -2.1668   -2.4648 H   0  0  0  0  0  0  0  0  0  0  0  0
    0.0146   -0.2273   -4.5944 H   0  0  0  0  0  0  0  0  0  0  0  0
    2.6726   -1.7630   -4.3758 H   0  0  0  0  0  0  0  0  0  0  0  0
    2.1812   -0.7661   -5.7505 H   0  0  0  0  0  0  0  0  0  0  0  0
    2.4789   -0.0165   -4.1709 H   0  0  0  0  0  0  0  0  0  0  0  0
   -0.5110   -2.0792   -6.1981 N   0  0  0  0  0  0  0  0  0  0  0  0
   -1.0748   -3.1073   -7.0414 C   0  0  0  0  0  0  0  0  0  0  0  0
   -0.5596   -1.1187   -6.5249 H   0  0  0  0  0  0  0  0  0  0  0  0
   -0.3023   -3.4832   -7.7284 H   0  0  0  0  0  0  0  0  0  0  0  0
   -1.4424   -3.9339   -6.4156 H   0  0  0  0  0  0  0  0  0  0  0  0
   -1.9094   -2.6880   -7.6224 H   0  0  0  0  0  0  0  0  0  0  0  0
  1  3  1  0  0  0  0
  1  7  1  0  0  0  0
  1  2  2  0  0  0  0
 28 29  1  0  0  0  0
 29 37  1  0  0  0  0
 29 30  2  0  0  0  0
 18 19  1  0  0  0  0
 19 27  1  0  0  0  0
 19 20  2  0  0  0  0
  8  9  1  0  0  0  0
  9 17  1  0  0  0  0
  9 10  2  0  0  0  0
 28 31  1  0  0  0  0
 18 21  1  0  0  0  0
  8 11  1  0  0  0  0
 37 38  1  0  0  0  0
 27 28  1  0  0  0  0
 17 18  1  0  0  0  0
  7  8  1  0  0  0  0
  3  4  1  0  0  0  0
  3  5  1  0  0  0  0
  3  6  1  0  0  0  0
 31 34  1  0  0  0  0
 31 35  1  0  0  0  0
 31 36  1  0  0  0  0
 21 24  1  0  0  0  0
 21 25  1  0  0  0  0
 21 26  1  0  0  0  0
 11 14  1  0  0  0  0
 11 15  1  0  0  0  0
 11 16  1  0  0  0  0
 38 40  1  0  0  0  0
 38 41  1  0  0  0  0
 38 42  1  0  0  0  0
 28 33  1  0  0  0  0
 18 23  1  0  0  0  0
  8 13  1  0  0  0  0
 37 39  1  0  0  0  0
  7 12  1  0  0  0  0
 27 32  1  0  0  0  0
 17 22  1  0  0  0  0
M  END
$$$$

  -OEChem-05262214473D

 42 41  0     1  0  0  0  0  0999 V2000
   -5.7851   -0.9580    0.6237 C   0  0  0  0  0  0  0  0  0  0  0  0
   -6.2213    0.1296    0.2652 O   0  0  0  0  0  0  0  0  0  0  0  0
   -6.7088   -2.1270    0.7168 C   0  0  0  0  0  0  0  0  0  0  0  0
   -7.1713   -2.2193    1.7126 H   0  0  0  0  0  0  0  0  0  0  0  0
   -7.5511   -2.0547    0.0101 H   0  0  0  0  0  0  0  0  0  0  0  0
   -6.2485   -3.1083    0.5191 H   0  0  0  0  0  0  0  0  0  0  0  0
   -4.4733   -1.2411    0.9668 N   0  0  0  0  0  0  0  0  0  0  0  0
   -3.4203   -0.2603    0.9449 C   0  0  2  0  0  0  0  0  0  0  0  0
   -2.1242   -0.9699    0.5759 C   0  0  0  0  0  0  0  0  0  0  0  0
   -1.8694   -2.1225    0.9189 O   0  0  0  0  0  0  0  0  0  0  0  0
   -3.2916    0.4435    2.2868 C   0  0  0  0  0  0  0  0  0  0  0  0
   -4.2421   -2.1920    1.2489 H   0  0  0  0  0  0  0  0  0  0  0  0
   -3.6772    0.4622    0.1625 H   0  0  0  0  0  0  0  0  0  0  0  0
   -3.0345   -0.2644    3.0832 H   0  0  0  0  0  0  0  0  0  0  0  0
   -2.5093    1.2092    2.2599 H   0  0  0  0  0  0  0  0  0  0  0  0
   -4.2338    0.9283    2.5645 H   0  0  0  0  0  0  0  0  0  0  0  0
   -1.2626   -0.1515   -0.1463 N   0  0  0  0  0  0  0  0  0  0  0  0
    0.0431   -0.5785   -0.5755 C   0  0  2  0  0  0  0  0  0  0  0  0
    0.2234   -0.1535   -2.0269 C   0  0  0  0  0  0  0  0  0  0  0  0
    0.4071    1.0136   -2.3662 O   0  0  0  0  0  0  0  0  0  0  0  0
    0.2108   -2.0824   -0.4247 C   0  0  0  0  0  0  0  0  0  0  0  0
   -1.5766    0.7776   -0.4197 H   0  0  0  0  0  0  0  0  0  0  0  0
    0.7702   -0.0524    0.0527 H   0  0  0  0  0  0  0  0  0  0  0  0
   -0.5093   -2.6264   -1.0467 H   0  0  0  0  0  0  0  0  0  0  0  0
    1.2143   -2.4018   -0.7247 H   0  0  0  0  0  0  0  0  0  0  0  0
    0.0514   -2.3900    0.6145 H   0  0  0  0  0  0  0  0  0  0  0  0
    0.1125   -1.2243   -2.9071 N   0  0  0  0  0  0  0  0  0  0  0  0
    0.2032   -1.0733   -4.3355 C   0  0  2  0  0  0  0  0  0  0  0  0
   -0.6989   -2.1192   -4.9772 C   0  0  0  0  0  0  0  0  0  0  0  0
   -0.8763   -3.2371   -4.4977 O   0  0  0  0  0  0  0  0  0  0  0  0
    1.6376   -1.2232   -4.8178 C   0  0  0  0  0  0  0  0  0  0  0  0
    0.0000   -2.1637   -2.5309 H   0  0  0  0  0  0  0  0  0  0  0  0
   -0.1722   -0.0717   -4.5721 H   0  0  0  0  0  0  0  0  0  0  0  0
    2.0309   -2.2205   -4.5895 H   0  0  0  0  0  0  0  0  0  0  0  0
    1.7090   -1.0797   -5.9010 H   0  0  0  0  0  0  0  0  0  0  0  0
    2.2905   -0.4894   -4.3328 H   0  0  0  0  0  0  0  0  0  0  0  0
   -1.2486   -1.6727   -6.1708 N   0  0  0  0  0  0  0  0  0  0  0  0
   -2.1059   -2.4966   -6.9907 C   0  0  0  0  0  0  0  0  0  0  0  0
   -1.0799   -0.7175   -6.4721 H   0  0  0  0  0  0  0  0  0  0  0  0
   -1.4995   -3.0231   -7.7425 H   0  0  0  0  0  0  0  0  0  0  0  0
   -2.6232   -3.2319   -6.3568 H   0  0  0  0  0  0  0  0  0  0  0  0
   -2.8483   -1.8625   -7.4973 H   0  0  0  0  0  0  0  0  0  0  0  0
  1  3  1  0  0  0  0
  1  7  1  0  0  0  0
  1  2  2  0  0  0  0
 28 29  1  0  0  0  0
 29 37  1  0  0  0  0
 29 30  2  0  0  0  0
 18 19  1  0  0  0  0
 19 27  1  0  0  0  0
 19 20  2  0  0  0  0
  8  9  1  0  0  0  0
  9 17  1  0  0  0  0
  9 10  2  0  0  0  0
 28 31  1  0  0  0  0
 18 21  1  0  0  0  0
  8 11  1  0  0  0  0
 37 38  1  0  0  0  0
 27 28  1  0  0  0  0
 17 18  1  0  0  0  0
  7  8  1  0  0  0  0
  3  4  1  0  0  0  0
  3  5  1  0  0  0  0
  3  6  1  0  0  0  0
 31 34  1  0  0  0  0
 31 35  1  0  0  0  0
 31 36  1  0  0  0  0
 21 24  1  0  0  0  0
 21 25  1  0  0  0  0
 21 26  1  0  0  0  0
 11 14  1  0  0  0  0
 11 15  1  0  0  0  0
 11 16  1  0  0  0  0
 38 40  1  0  0  0  0
 38 41  1  0  0  0  0
 38 42  1  0  0  0  0
 28 33  1  0  0  0  0
 18 23  1  0  0  0  0
  8 13  1  0  0  0  0
 37 39  1  0  0  0  0
  7 12  1  0  0  0  0
 27 32  1  0  0  0  0
 17 22  1  0  0  0  0
M  END
$$$$

  -OEChem-05262214473D

 42 41  0     1  0  0  0  0  0999 V2000
   -5.7851   -0.9580    0.6237 C   0  0  0  0  0  0  0  0  0  0  0  0
   -6.2213    0.1296    0.2652 O   0  0  0  0  0  0  0  0  0  0  0  0
   -6.7088   -2.1270    0.7168 C   0  0  0  0  0  0  0  0  0  0  0  0
   -7.1713   -2.2193    1.7126 H   0  0  0  0  0  0  0  0  0  0  0  0
   -7.5511   -2.0547    0.0101 H   0  0  0  0  0  0  0  0  0  0  0  0
   -6.2485   -3.1083    0.5191 H   0  0  0  0  0  0  0  0  0  0  0  0
   -4.4733   -1.2411    0.9668 N   0  0  0  0  0  0  0  0  0  0  0  0
   -3.4203   -0.2603    0.9449 C   0  0  2  0  0  0  0  0  0  0  0  0
   -2.1242   -0.9699    0.5759 C   0  0  0  0  0  0  0  0  0  0  0  0
   -1.8694   -2.1225    0.9189 O   0  0  0  0  0  0  0  0  0  0  0  0
   -3.2916    0.4435    2.2868 C   0  0  0  0  0  0  0  0  0  0  0  0
   -4.2421   -2.1920    1.2489 H   0  0  0  0  0  0  0  0  0  0  0  0
   -3.6772    0.4622    0.1625 H   0  0  0  0  0  0  0  0  0  0  0  0
   -3.0345   -0.2644    3.0832 H   0  0  0  0  0  0  0  0  0  0  0  0
   -2.5093    1.2092    2.2599 H   0  0  0  0  0  0  0  0  0  0  0  0
   -4.2338    0.9283    2.5645 H   0  0  0  0  0  0  0  0  0  0  0  0
   -1.2626   -0.1515   -0.1463 N   0  0  0  0  0  0  0  0  0  0  0  0
    0.0431   -0.5785   -0.5755 C   0  0  2  0  0  0  0  0  0  0  0  0
    0.2234   -0.1535   -2.0269 C   0  0  0  0  0  0  0  0  0  0  0  0
    0.6669    0.9453   -2.3539 O   0  0  0  0  0  0  0  0  0  0  0  0
    0.2108   -2.0824   -0.4247 C   0  0  0  0  0  0  0  0  0  0  0  0
   -1.5766    0.7776   -0.4197 H   0  0  0  0  0  0  0  0  0  0  0  0
    0.7702   -0.0524    0.0527 H   0  0  0  0  0  0  0  0  0  0  0  0
   -0.5093   -2.6264   -1.0467 H   0  0  0  0  0  0  0  0  0  0  0  0
    1.2143   -2.4018   -0.7247 H   0  0  0  0  0  0  0  0  0  0  0  0
    0.0514   -2.3900    0.6145 H   0  0  0  0  0  0  0  0  0  0  0  0
   -0.2093   -1.1285   -2.9190 N   0  0  0  0  0  0  0  0  0  0  0  0
   -0.1819   -0.9478   -4.3466 C   0  0  2  0  0  0  0  0  0  0  0  0
   -1.3567   -1.7139   -4.9402 C   0  0  0  0  0  0  0  0  0  0  0  0
   -1.7723   -2.7721   -4.4729 O   0  0  0  0  0  0  0  0  0  0  0  0
    1.1342   -1.4259   -4.9397 C   0  0  0  0  0  0  0  0  0  0  0  0
   -0.5250   -2.0257   -2.5557 H   0  0  0  0  0  0  0  0  0  0  0  0
   -0.3127    0.1239   -4.5322 H   0  0  0  0  0  0  0  0  0  0  0  0
    1.2828   -2.4976   -4.7636 H   0  0  0  0  0  0  0  0  0  0  0  0
    1.1648   -1.2615   -6.0218 H   0  0  0  0  0  0  0  0  0  0  0  0
    1.9801   -0.8948   -4.4901 H   0  0  0  0  0  0  0  0  0  0  0  0
   -1.8589   -1.0991   -6.0786 N   0  0  0  0  0  0  0  0  0  0  0  0
   -2.9476   -1.6541   -6.8486 C   0  0  0  0  0  0  0  0  0  0  0  0
   -1.4798   -0.2033   -6.3713 H   0  0  0  0  0  0  0  0  0  0  0  0
   -2.5434   -2.2830   -7.6555 H   0  0  0  0  0  0  0  0  0  0  0  0
   -3.5863   -2.2643   -6.1931 H   0  0  0  0  0  0  0  0  0  0  0  0
   -3.5426   -0.8375   -7.2834 H   0  0  0  0  0  0  0  0  0  0  0  0
  1  3  1  0  0  0  0
  1  7  1  0  0  0  0
  1  2  2  0  0  0  0
 28 29  1  0  0  0  0
 29 37  1  0  0  0  0
 29 30  2  0  0  0  0
 18 19  1  0  0  0  0
 19 27  1  0  0  0  0
 19 20  2  0  0  0  0
  8  9  1  0  0  0  0
  9 17  1  0  0  0  0
  9 10  2  0  0  0  0
 28 31  1  0  0  0  0
 18 21  1  0  0  0  0
  8 11  1  0  0  0  0
 37 38  1  0  0  0  0
 27 28  1  0  0  0  0
 17 18  1  0  0  0  0
  7  8  1  0  0  0  0
  3  4  1  0  0  0  0
  3  5  1  0  0  0  0
  3  6  1  0  0  0  0
 31 34  1  0  0  0  0
 31 35  1  0  0  0  0
 31 36  1  0  0  0  0
 21 24  1  0  0  0  0
 21 25  1  0  0  0  0
 21 26  1  0  0  0  0
 11 14  1  0  0  0  0
 11 15  1  0  0  0  0
 11 16  1  0  0  0  0
 38 40  1  0  0  0  0
 38 41  1  0  0  0  0
 38 42  1  0  0  0  0
 28 33  1  0  0  0  0
 18 23  1  0  0  0  0
  8 13  1  0  0  0  0
 37 39  1  0  0  0  0
  7 12  1  0  0  0  0
 27 32  1  0  0  0  0
 17 22  1  0  0  0  0
M  END
$$$$

  -OEChem-05262214473D

 42 41  0     1  0  0  0  0  0999 V2000
   -5.7851   -0.9580    0.6237 C   0  0  0  0  0  0  0  0  0  0  0  0
   -6.2213    0.1296    0.2652 O   0  0  0  0  0  0  0  0  0  0  0  0
   -6.7088   -2.1270    0.7168 C   0  0  0  0  0  0  0  0  0  0  0  0
   -7.1713   -2.2193    1.7126 H   0  0  0  0  0  0  0  0  0  0  0  0
   -7.5511   -2.0547    0.0101 H   0  0  0  0  0  0  0  0  0  0  0  0
   -6.2485   -3.1083    0.5191 H   0  0  0  0  0  0  0  0  0  0  0  0
   -4.4733   -1.2411    0.9668 N   0  0  0  0  0  0  0  0  0  0  0  0
   -3.4203   -0.2603    0.9449 C   0  0  2  0  0  0  0  0  0  0  0  0
   -2.1242   -0.9699    0.5759 C   0  0  0  0  0  0  0  0  0  0  0  0
   -1.8694   -2.1225    0.9189 O   0  0  0  0  0  0  0  0  0  0  0  0
   -3.2916    0.4435    2.2868 C   0  0  0  0  0  0  0  0  0  0  0  0
   -4.2421   -2.1920    1.2489 H   0  0  0  0  0  0  0  0  0  0  0  0
   -3.6772    0.4622    0.1625 H   0  0  0  0  0  0  0  0  0  0  0  0
   -3.0345   -0.2644    3.0832 H   0  0  0  0  0  0  0  0  0  0  0  0
   -2.5093    1.2092    2.2599 H   0  0  0  0  0  0  0  0  0  0  0  0
   -4.2338    0.9283    2.5645 H   0  0  0  0  0  0  0  0  0  0  0  0
   -1.2626   -0.1515   -0.1463 N   0  0  0  0  0  0  0  0  0  0  0  0
    0.0431   -0.5785   -0.5755 C   0  0  2  0  0  0  0  0  0  0  0  0
    0.2234   -0.1535   -2.0269 C   0  0  0  0  0  0  0  0  0  0  0  0
    0.9019    0.8149   -2.3629 O   0  0  0  0  0  0  0  0  0  0  0  0
    0.2108   -2.0824   -0.4247 C   0  0  0  0  0  0  0  0  0  0  0  0
   -1.5766    0.7776   -0.4197 H   0  0  0  0  0  0  0  0  0  0  0  0
    0.7702   -0.0524    0.0527 H   0  0  0  0  0  0  0  0  0  0  0  0
   -0.5093   -2.6264   -1.0467 H   0  0  0  0  0  0  0  0  0  0  0  0
    1.2143   -2.4018   -0.7247 H   0  0  0  0  0  0  0  0  0  0  0  0
    0.0514   -2.3900    0.6145 H   0  0  0  0  0  0  0  0  0  0  0  0
   -0.4973   -0.9562   -2.9043 N   0  0  0  0  0  0  0  0  0  0  0  0
   -0.5237   -0.7312   -4.3256 C   0  0  2  0  0  0  0  0  0  0  0  0
   -1.8894   -1.1612   -4.8446 C   0  0  0  0  0  0  0  0  0  0  0  0
   -2.5214   -2.1028   -4.3700 O   0  0  0  0  0  0  0  0  0  0  0  0
    0.5892   -1.4939   -5.0273 C   0  0  0  0  0  0  0  0  0  0  0  0
   -0.9999   -1.7621   -2.5375 H   0  0  0  0  0  0  0  0  0  0  0  0
   -0.3973    0.3463   -4.4776 H   0  0  0  0  0  0  0  0  0  0  0  0
    0.4793   -2.5754   -4.8862 H   0  0  0  0  0  0  0  0  0  0  0  0
    0.5854   -1.2992   -6.1048 H   0  0  0  0  0  0  0  0  0  0  0  0
    1.5690   -1.2050   -4.6320 H   0  0  0  0  0  0  0  0  0  0  0  0
   -2.3003   -0.3972   -5.9279 N   0  0  0  0  0  0  0  0  0  0  0  0
   -3.5425   -0.6369   -6.6246 C   0  0  0  0  0  0  0  0  0  0  0  0
   -1.7320    0.3889   -6.2292 H   0  0  0  0  0  0  0  0  0  0  0  0
   -3.3629   -1.3133   -7.4733 H   0  0  0  0  0  0  0  0  0  0  0  0
   -4.2662   -1.0972   -5.9359 H   0  0  0  0  0  0  0  0  0  0  0  0
   -3.9450    0.3174   -6.9953 H   0  0  0  0  0  0  0  0  0  0  0  0
  1  3  1  0  0  0  0
  1  7  1  0  0  0  0
  1  2  2  0  0  0  0
 28 29  1  0  0  0  0
 29 37  1  0  0  0  0
 29 30  2  0  0  0  0
 18 19  1  0  0  0  0
 19 27  1  0  0  0  0
 19 20  2  0  0  0  0
  8  9  1  0  0  0  0
  9 17  1  0  0  0  0
  9 10  2  0  0  0  0
 28 31  1  0  0  0  0
 18 21  1  0  0  0  0
  8 11  1  0  0  0  0
 37 38  1  0  0  0  0
 27 28  1  0  0  0  0
 17 18  1  0  0  0  0
  7  8  1  0  0  0  0
  3  4  1  0  0  0  0
  3  5  1  0  0  0  0
  3  6  1  0  0  0  0
 31 34  1  0  0  0  0
 31 35  1  0  0  0  0
 31 36  1  0  0  0  0
 21 24  1  0  0  0  0
 21 25  1  0  0  0  0
 21 26  1  0  0  0  0
 11 14  1  0  0  0  0
 11 15  1  0  0  0  0
 11 16  1  0  0  0  0
 38 40  1  0  0  0  0
 38 41  1  0  0  0  0
 38 42  1  0  0  0  0
 28 33  1  0  0  0  0
 18 23  1  0  0  0  0
  8 13  1  0  0  0  0
 37 39  1  0  0  0  0
  7 12  1  0  0  0  0
 27 32  1  0  0  0  0
 17 22  1  0  0  0  0
M  END
$$$$

  -OEChem-05262214473D

 42 41  0     1  0  0  0  0  0999 V2000
   -5.7851   -0.9580    0.6237 C   0  0  0  0  0  0  0  0  0  0  0  0
   -6.2213    0.1296    0.2652 O   0  0  0  0  0  0  0  0  0  0  0  0
   -6.7088   -2.1270    0.7168 C   0  0  0  0  0  0  0  0  0  0  0  0
   -7.1713   -2.2193    1.7126 H   0  0  0  0  0  0  0  0  0  0  0  0
   -7.5511   -2.0547    0.0101 H   0  0  0  0  0  0  0  0  0  0  0  0
   -6.2485   -3.1083    0.5191 H   0  0  0  0  0  0  0  0  0  0  0  0
   -4.4733   -1.2411    0.9668 N   0  0  0  0  0  0  0  0  0  0  0  0
   -3.4203   -0.2603    0.9449 C   0  0  2  0  0  0  0  0  0  0  0  0
   -2.1242   -0.9699    0.5759 C   0  0  0  0  0  0  0  0  0  0  0  0
   -1.8694   -2.1225    0.9189 O   0  0  0  0  0  0  0  0  0  0  0  0
   -3.2916    0.4435    2.2868 C   0  0  0  0  0  0  0  0  0  0  0  0
   -4.2421   -2.1920    1.2489 H   0  0  0  0  0  0  0  0  0  0  0  0
   -3.6772    0.4622    0.1625 H   0  0  0  0  0  0  0  0  0  0  0  0
   -3.0345   -0.2644    3.0832 H   0  0  0  0  0  0  0  0  0  0  0  0
   -2.5093    1.2092    2.2599 H   0  0  0  0  0  0  0  0  0  0  0  0
   -4.2338    0.9283    2.5645 H   0  0  0  0  0  0  0  0  0  0  0  0
   -1.2626   -0.1515   -0.1463 N   0  0  0  0  0  0  0  0  0  0  0  0
    0.0431   -0.5785   -0.5755 C   0  0  2  0  0  0  0  0  0  0  0  0
    0.2234   -0.1535   -2.0269 C   0  0  0  0  0  0  0  0  0  0  0  0
    1.0961    0.6312   -2.3926 O   0  0  0  0  0  0  0  0  0  0  0  0
    0.2108   -2.0824   -0.4247 C   0  0  0  0  0  0  0  0  0  0  0  0
   -1.5766    0.7776   -0.4197 H   0  0  0  0  0  0  0  0  0  0  0  0
    0.7702   -0.0524    0.0527 H   0  0  0  0  0  0  0  0  0  0  0  0
   -0.5093   -2.6264   -1.0467 H   0  0  0  0  0  0  0  0  0  0  0  0
    1.2143   -2.4018   -0.7247 H   0  0  0  0  0  0  0  0  0  0  0  0
    0.0514   -2.3900    0.6145 H   0  0  0  0  0  0  0  0  0  0  0  0
   -0.7320   -0.7192   -2.8641 N   0  0  0  0  0  0  0  0  0  0  0  0
   -0.7989   -0.4384   -4.2740 C   0  0  2  0  0  0  0  0  0  0  0  0
   -2.2608   -0.4989   -4.6968 C   0  0  0  0  0  0  0  0  0  0  0  0
   -3.0723   -1.2746   -4.1959 O   0  0  0  0  0  0  0  0  0  0  0  0
    0.0396   -1.4225   -5.0747 C   0  0  0  0  0  0  0  0  0  0  0  0
   -1.3923   -1.3910   -2.4776 H   0  0  0  0  0  0  0  0  0  0  0  0
   -0.4202    0.5803   -4.4120 H   0  0  0  0  0  0  0  0  0  0  0  0
   -0.3248   -2.4486   -4.9490 H   0  0  0  0  0  0  0  0  0  0  0  0
    0.0106   -1.1902   -6.1443 H   0  0  0  0  0  0  0  0  0  0  0  0
    1.0852   -1.3989   -4.7489 H   0  0  0  0  0  0  0  0  0  0  0  0
   -2.5426    0.3849   -5.7290 N   0  0  0  0  0  0  0  0  0  0  0  0
   -3.8501    0.4854   -6.3342 C   0  0  0  0  0  0  0  0  0  0  0  0
   -1.8192    1.0188   -6.0556 H   0  0  0  0  0  0  0  0  0  0  0  0
   -3.9022   -0.1801   -7.2085 H   0  0  0  0  0  0  0  0  0  0  0  0
   -4.6164    0.1899   -5.6025 H   0  0  0  0  0  0  0  0  0  0  0  0
   -4.0280    1.5232   -6.6525 H   0  0  0  0  0  0  0  0  0  0  0  0
  1  3  1  0  0  0  0
  1  7  1  0  0  0  0
  1  2  2  0  0  0  0
 28 29  1  0  0  0  0
 29 37  1  0  0  0  0
 29 30  2  0  0  0  0
 18 19  1  0  0  0  0
 19 27  1  0  0  0  0
 19 20  2  0  0  0  0
  8  9  1  0  0  0  0
  9 17  1  0  0  0  0
  9 10  2  0  0  0  0
 28 31  1  0  0  0  0
 18 21  1  0  0  0  0
  8 11  1  0  0  0  0
 37 38  1  0  0  0  0
 27 28  1  0  0  0  0
 17 18  1  0  0  0  0
  7  8  1  0  0  0  0
  3  4  1  0  0  0  0
  3  5  1  0  0  0  0
  3  6  1  0  0  0  0
 31 34  1  0  0  0  0
 31 35  1  0  0  0  0
 31 36  1  0  0  0  0
 21 24  1  0  0  0  0
 21 25  1  0  0  0  0
 21 26  1  0  0  0  0
 11 14  1  0  0  0  0
 11 15  1  0  0  0  0
 11 16  1  0  0  0  0
 38 40  1  0  0  0  0
 38 41  1  0  0  0  0
 38 42  1  0  0  0  0
 28 33  1  0  0  0  0
 18 23  1  0  0  0  0
  8 13  1  0  0  0  0
 37 39  1  0  0  0  0
  7 12  1  0  0  0  0
 27 32  1  0  0  0  0
 17 22  1  0  0  0  0
M  END
$$$$

  -OEChem-05262214473D

 42 41  0     1  0  0  0  0  0999 V2000
   -5.7851   -0.9580    0.6237 C   0  0  0  0  0  0  0  0  0  0  0  0
   -6.2213    0.1296    0.2652 O   0  0  0  0  0  0  0  0  0  0  0  0
   -6.7088   -2.1270    0.7168 C   0  0  0  0  0  0  0  0  0  0  0  0
   -7.1713   -2.2193    1.7126 H   0  0  0  0  0  0  0  0  0  0  0  0
   -7.5511   -2.0547    0.0101 H   0  0  0  0  0  0  0  0  0  0  0  0
   -6.2485   -3.1083    0.5191 H   0  0  0  0  0  0  0  0  0  0  0  0
   -4.4733   -1.2411    0.9668 N   0  0  0  0  0  0  0  0  0  0  0  0
   -3.4203   -0.2603    0.9449 C   0  0  2  0  0  0  0  0  0  0  0  0
   -2.1242   -0.9699    0.5759 C   0  0  0  0  0  0  0  0  0  0  0  0
   -1.8694   -2.1225    0.9189 O   0  0  0  0  0  0  0  0  0  0  0  0
   -3.2916    0.4435    2.2868 C   0  0  0  0  0  0  0  0  0  0  0  0
   -4.2421   -2.1920    1.2489 H   0  0  0  0  0  0  0  0  0  0  0  0
   -3.6772    0.4622    0.1625 H   0  0  0  0  0  0  0  0  0  0  0  0
   -3.0345   -0.2644    3.0832 H   0  0  0  0  0  0  0  0  0  0  0  0
   -2.5093    1.2092    2.2599 H   0  0  0  0  0  0  0  0  0  0  0  0
   -4.2338    0.9283    2.5645 H   0  0  0  0  0  0  0  0  0  0  0  0
   -1.2626   -0.1515   -0.1463 N   0  0  0  0  0  0  0  0  0  0  0  0
    0.0431   -0.5785   -0.5755 C   0  0  2  0  0  0  0  0  0  0  0  0
    0.2234   -0.1535   -2.0269 C   0  0  0  0  0  0  0  0  0  0  0  0
    1.2362    0.4068   -2.4409 O   0  0  0  0  0  0  0  0  0  0  0  0
    0.2108   -2.0824   -0.4247 C   0  0  0  0  0  0  0  0  0  0  0  0
   -1.5766    0.7776   -0.4197 H   0  0  0  0  0  0  0  0  0  0  0  0
    0.7702   -0.0524    0.0527 H   0  0  0  0  0  0  0  0  0  0  0  0
   -0.5093   -2.6264   -1.0467 H   0  0  0  0  0  0  0  0  0  0  0  0
    1.2143   -2.4018   -0.7247 H   0  0  0  0  0  0  0  0  0  0  0  0
    0.0514   -2.3900    0.6145 H   0  0  0  0  0  0  0  0  0  0  0  0
   -0.8973   -0.4336   -2.8010 N   0  0  0  0  0  0  0  0  0  0  0  0
   -0.9888   -0.0892   -4.1954 C   0  0  2  0  0  0  0  0  0  0  0  0
   -2.4455    0.2279   -4.5069 C   0  0  0  0  0  0  0  0  0  0  0  0
   -3.3877   -0.3441   -3.9626 O   0  0  0  0  0  0  0  0  0  0  0  0
   -0.4770   -1.2165   -5.0785 C   0  0  0  0  0  0  0  0  0  0  0  0
   -1.6754   -0.9375   -2.3800 H   0  0  0  0  0  0  0  0  0  0  0  0
   -0.3798    0.8099   -4.3397 H   0  0  0  0  0  0  0  0  0  0  0  0
   -1.0748   -2.1258   -4.9476 H   0  0  0  0  0  0  0  0  0  0  0  0
   -0.5207   -0.9419   -6.1376 H   0  0  0  0  0  0  0  0  0  0  0  0
    0.5615   -1.4633   -4.8328 H   0  0  0  0  0  0  0  0  0  0  0  0
   -2.5694    1.1941   -5.4954 N   0  0  0  0  0  0  0  0  0  0  0  0
   -3.8495    1.6365   -5.9971 C   0  0  0  0  0  0  0  0  0  0  0  0
   -1.7356    1.6435   -5.8623 H   0  0  0  0  0  0  0  0  0  0  0  0
   -4.1245    1.0394   -6.8791 H   0  0  0  0  0  0  0  0  0  0  0  0
   -4.6132    1.5093   -5.2158 H   0  0  0  0  0  0  0  0  0  0  0  0
   -3.7860    2.6980   -6.2785 H   0  0  0  0  0  0  0  0  0  0  0  0
  1  3  1  0  0  0  0
  1  7  1  0  0  0  0
  1  2  2  0  0  0  0
 28 29  1  0  0  0  0
 29 37  1  0  0  0  0
 29 30  2  0  0  0  0
 18 19  1  0  0  0  0
 19 27  1  0  0  0  0
 19 20  2  0  0  0  0
  8  9  1  0  0  0  0
  9 17  1  0  0  0  0
  9 10  2  0  0  0  0
 28 31  1  0  0  0  0
 18 21  1  0  0  0  0
  8 11  1  0  0  0  0
 37 38  1  0  0  0  0
 27 28  1  0  0  0  0
 17 18  1  0  0  0  0
  7  8  1  0  0  0  0
  3  4  1  0  0  0  0
  3  5  1  0  0  0  0
  3  6  1  0  0  0  0
 31 34  1  0  0  0  0
 31 35  1  0  0  0  0
 31 36  1  0  0  0  0
 21 24  1  0  0  0  0
 21 25  1  0  0  0  0
 21 26  1  0  0  0  0
 11 14  1  0  0  0  0
 11 15  1  0  0  0  0
 11 16  1  0  0  0  0
 38 40  1  0  0  0  0
 38 41  1  0  0  0  0
 38 42  1  0  0  0  0
 28 33  1  0  0  0  0
 18 23  1  0  0  0  0
  8 13  1  0  0  0  0
 37 39  1  0  0  0  0
  7 12  1  0  0  0  0
 27 32  1  0  0  0  0
 17 22  1  0  0  0  0
M  END
$$$$

  -OEChem-05262214473D

 42 41  0     1  0  0  0  0  0999 V2000
   -5.7851   -0.9580    0.6237 C   0  0  0  0  0  0  0  0  0  0  0  0
   -6.2213    0.1296    0.2652 O   0  0  0  0  0  0  0  0  0  0  0  0
   -6.7088   -2.1270    0.7168 C   0  0  0  0  0  0  0  0  0  0  0  0
   -7.1713   -2.2193    1.7126 H   0  0  0  0  0  0  0  0  0  0  0  0
   -7.5511   -2.0547    0.0101 H   0  0  0  0  0  0  0  0  0  0  0  0
   -6.2485   -3.1083    0.5191 H   0  0  0  0  0  0  0  0  0  0  0  0
   -4.4733   -1.2411    0.9668 N   0  0  0  0  0  0  0  0  0  0  0  0
   -3.4203   -0.2603    0.9449 C   0  0  2  0  0  0  0  0  0  0  0  0
   -2.1242   -0.9699    0.5759 C   0  0  0  0  0  0  0  0  0  0  0  0
   -1.8694   -2.1225    0.9189 O   0  0  0  0  0  0  0  0  0  0  0  0
   -3.2916    0.4435    2.2868 C   0  0  0  0  0  0  0  0  0  0  0  0
   -4.2421   -2.1920    1.2489 H   0  0  0  0  0  0  0  0  0  0  0  0
   -3.6772    0.4622    0.1625 H   0  0  0  0  0  0  0  0  0  0  0  0
   -3.0345   -0.2644    3.0832 H   0  0  0  0  0  0  0  0  0  0  0  0
   -2.5093    1.2092    2.2599 H   0  0  0  0  0  0  0  0  0  0  0  0
   -4.2338    0.9283    2.5645 H   0  0  0  0  0  0  0  0  0  0  0  0
   -1.2626   -0.1515   -0.1463 N   0  0  0  0  0  0  0  0  0  0  0  0
    0.0431   -0.5785   -0.5755 C   0  0  2  0  0  0  0  0  0  0  0  0
    0.2234   -0.1535   -2.0269 C   0  0  0  0  0  0  0  0  0  0  0  0
    1.3127    0.1570   -2.5045 O   0  0  0  0  0  0  0  0  0  0  0  0
    0.2108   -2.0824   -0.4247 C   0  0  0  0  0  0  0  0  0  0  0  0
   -1.5766    0.7776   -0.4197 H   0  0  0  0  0  0  0  0  0  0  0  0
    0.7702   -0.0524    0.0527 H   0  0  0  0  0  0  0  0  0  0  0  0
   -0.5093   -2.6264   -1.0467 H   0  0  0  0  0  0  0  0  0  0  0  0
    1.2143   -2.4018   -0.7247 H   0  0  0  0  0  0  0  0  0  0  0  0
    0.0514   -2.3900    0.6145 H   0  0  0  0  0  0  0  0  0  0  0  0
   -0.9820   -0.1189   -2.7194 N   0  0  0  0  0  0  0  0  0  0  0  0
   -1.0804    0.2925   -4.0950 C   0  0  2  0  0  0  0  0  0  0  0  0
   -2.4309    0.9696   -4.2879 C   0  0  0  0  0  0  0  0  0  0  0  0
   -3.4459    0.6254   -3.6860 O   0  0  0  0  0  0  0  0  0  0  0  0
   -0.9255   -0.8900   -5.0386 C   0  0  0  0  0  0  0  0  0  0  0  0
   -1.8300   -0.4326   -2.2514 H   0  0  0  0  0  0  0  0  0  0  0  0
   -0.2790    1.0196   -4.2658 H   0  0  0  0  0  0  0  0  0  0  0  0
   -1.7196   -1.6291   -4.8823 H   0  0  0  0  0  0  0  0  0  0  0  0
   -0.9721   -0.5712   -6.0852 H   0  0  0  0  0  0  0  0  0  0  0  0
    0.0338   -1.3937   -4.8780 H   0  0  0  0  0  0  0  0  0  0  0  0
   -2.3789    1.9752   -5.2430 N   0  0  0  0  0  0  0  0  0  0  0  0
   -3.5406    2.7378   -5.6363 C   0  0  0  0  0  0  0  0  0  0  0  0
   -1.4868    2.2202   -5.6625 H   0  0  0  0  0  0  0  0  0  0  0  0
   -4.0146    2.2620   -6.5074 H   0  0  0  0  0  0  0  0  0  0  0  0
   -4.2568    2.7712   -4.8020 H   0  0  0  0  0  0  0  0  0  0  0  0
   -3.2354    3.7616   -5.8986 H   0  0  0  0  0  0  0  0  0  0  0  0
  1  3  1  0  0  0  0
  1  7  1  0  0  0  0
  1  2  2  0  0  0  0
 28 29  1  0  0  0  0
 29 37  1  0  0  0  0
 29 30  2  0  0  0  0
 18 19  1  0  0  0  0
 19 27  1  0  0  0  0
 19 20  2  0  0  0  0
  8  9  1  0  0  0  0
  9 17  1  0  0  0  0
  9 10  2  0  0  0  0
 28 31  1  0  0  0  0
 18 21  1  0  0  0  0
  8 11  1  0  0  0  0
 37 38  1  0  0  0  0
 27 28  1  0  0  0  0
 17 18  1  0  0  0  0
  7  8  1  0  0  0  0
  3  4  1  0  0  0  0
  3  5  1  0  0  0  0
  3  6  1  0  0  0  0
 31 34  1  0  0  0  0
 31 35  1  0  0  0  0
 31 36  1  0  0  0  0
 21 24  1  0  0  0  0
 21 25  1  0  0  0  0
 21 26  1  0  0  0  0
 11 14  1  0  0  0  0
 11 15  1  0  0  0  0
 11 16  1  0  0  0  0
 38 40  1  0  0  0  0
 38 41  1  0  0  0  0
 38 42  1  0  0  0  0
 28 33  1  0  0  0  0
 18 23  1  0  0  0  0
  8 13  1  0  0  0  0
 37 39  1  0  0  0  0
  7 12  1  0  0  0  0
 27 32  1  0  0  0  0
 17 22  1  0  0  0  0
M  END
$$$$

  -OEChem-05262214473D

 42 41  0     1  0  0  0  0  0999 V2000
   -5.7851   -0.9580    0.6237 C   0  0  0  0  0  0  0  0  0  0  0  0
   -6.2213    0.1296    0.2652 O   0  0  0  0  0  0  0  0  0  0  0  0
   -6.7088   -2.1270    0.7168 C   0  0  0  0  0  0  0  0  0  0  0  0
   -7.1713   -2.2193    1.7126 H   0  0  0  0  0  0  0  0  0  0  0  0
   -7.5511   -2.0547    0.0101 H   0  0  0  0  0  0  0  0  0  0  0  0
   -6.2485   -3.1083    0.5191 H   0  0  0  0  0  0  0  0  0  0  0  0
   -4.4733   -1.2411    0.9668 N   0  0  0  0  0  0  0  0  0  0  0  0
   -3.4203   -0.2603    0.9449 C   0  0  2  0  0  0  0  0  0  0  0  0
   -2.1242   -0.9699    0.5759 C   0  0  0  0  0  0  0  0  0  0  0  0
   -1.8694   -2.1225    0.9189 O   0  0  0  0  0  0  0  0  0  0  0  0
   -3.2916    0.4435    2.2868 C   0  0  0  0  0  0  0  0  0  0  0  0
   -4.2421   -2.1920    1.2489 H   0  0  0  0  0  0  0  0  0  0  0  0
   -3.6772    0.4622    0.1625 H   0  0  0  0  0  0  0  0  0  0  0  0
   -3.0345   -0.2644    3.0832 H   0  0  0  0  0  0  0  0  0  0  0  0
   -2.5093    1.2092    2.2599 H   0  0  0  0  0  0  0  0  0  0  0  0
   -4.2338    0.9283    2.5645 H   0  0  0  0  0  0  0  0  0  0  0  0
   -1.2626   -0.1515   -0.1463 N   0  0  0  0  0  0  0  0  0  0  0  0
    0.0431   -0.5785   -0.5755 C   0  0  2  0  0  0  0  0  0  0  0  0
    0.2234   -0.1535   -2.0269 C   0  0  0  0  0  0  0  0  0  0  0  0
    1.3204   -0.1012   -2.5792 O   0  0  0  0  0  0  0  0  0  0  0  0
    0.2108   -2.0824   -0.4247 C   0  0  0  0  0  0  0  0  0  0  0  0
   -1.5766    0.7776   -0.4197 H   0  0  0  0  0  0  0  0  0  0  0  0
    0.7702   -0.0524    0.0527 H   0  0  0  0  0  0  0  0  0  0  0  0
   -0.5093   -2.6264   -1.0467 H   0  0  0  0  0  0  0  0  0  0  0  0
    1.2143   -2.4018   -0.7247 H   0  0  0  0  0  0  0  0  0  0  0  0
    0.0514   -2.3900    0.6145 H   0  0  0  0  0  0  0  0  0  0  0  0
   -0.9803    0.2035   -2.6248 N   0  0  0  0  0  0  0  0  0  0  0  0
   -1.0675    0.6807   -3.9797 C   0  0  2  0  0  0  0  0  0  0  0  0
   -2.2181    1.6758   -4.0547 C   0  0  0  0  0  0  0  0  0  0  0  0
   -3.2431    1.5676   -3.3849 O   0  0  0  0  0  0  0  0  0  0  0  0
   -1.2753   -0.4652   -4.9577 C   0  0  0  0  0  0  0  0  0  0  0  0
   -1.8455    0.0892   -2.1005 H   0  0  0  0  0  0  0  0  0  0  0  0
   -0.1245    1.1950   -4.1952 H   0  0  0  0  0  0  0  0  0  0  0  0
   -2.2152   -0.9924   -4.7574 H   0  0  0  0  0  0  0  0  0  0  0  0
   -1.3129   -0.1034   -5.9906 H   0  0  0  0  0  0  0  0  0  0  0  0
   -0.4621   -1.1950   -4.8814 H   0  0  0  0  0  0  0  0  0  0  0  0
   -1.9839    2.6749   -4.9891 N   0  0  0  0  0  0  0  0  0  0  0  0
   -2.9446    3.7144   -5.2762 C   0  0  0  0  0  0  0  0  0  0  0  0
   -1.0898    2.7099   -5.4698 H   0  0  0  0  0  0  0  0  0  0  0  0
   -3.5801    3.4045   -6.1189 H   0  0  0  0  0  0  0  0  0  0  0  0
   -3.5714    3.8894   -4.3894 H   0  0  0  0  0  0  0  0  0  0  0  0
   -2.4139    4.6415   -5.5389 H   0  0  0  0  0  0  0  0  0  0  0  0
  1  3  1  0  0  0  0
  1  7  1  0  0  0  0
  1  2  2  0  0  0  0
 28 29  1  0  0  0  0
 29 37  1  0  0  0  0
 29 30  2  0  0  0  0
 18 19  1  0  0  0  0
 19 27  1  0  0  0  0
 19 20  2  0  0  0  0
  8  9  1  0  0  0  0
  9 17  1  0  0  0  0
  9 10  2  0  0  0  0
 28 31  1  0  0  0  0
 18 21  1  0  0  0  0
  8 11  1  0  0  0  0
 37 38  1  0  0  0  0
 27 28  1  0  0  0  0
 17 18  1  0  0  0  0
  7  8  1  0  0  0  0
  3  4  1  0  0  0  0
  3  5  1  0  0  0  0
  3  6  1  0  0  0  0
 31 34  1  0  0  0  0
 31 35  1  0  0  0  0
 31 36  1  0  0  0  0
 21 24  1  0  0  0  0
 21 25  1  0  0  0  0
 21 26  1  0  0  0  0
 11 14  1  0  0  0  0
 11 15  1  0  0  0  0
 11 16  1  0  0  0  0
 38 40  1  0  0  0  0
 38 41  1  0  0  0  0
 38 42  1  0  0  0  0
 28 33  1  0  0  0  0
 18 23  1  0  0  0  0
  8 13  1  0  0  0  0
 37 39  1  0  0  0  0
  7 12  1  0  0  0  0
 27 32  1  0  0  0  0
 17 22  1  0  0  0  0
M  END
$$$$

  -OEChem-05262214473D

 42 41  0     1  0  0  0  0  0999 V2000
   -5.7851   -0.9580    0.6237 C   0  0  0  0  0  0  0  0  0  0  0  0
   -6.2213    0.1296    0.2652 O   0  0  0  0  0  0  0  0  0  0  0  0
   -6.7088   -2.1270    0.7168 C   0  0  0  0  0  0  0  0  0  0  0  0
   -7.1713   -2.2193    1.7126 H   0  0  0  0  0  0  0  0  0  0  0  0
   -7.5511   -2.0547    0.0101 H   0  0  0  0  0  0  0  0  0  0  0  0
   -6.2485   -3.1083    0.5191 H   0  0  0  0  0  0  0  0  0  0  0  0
   -4.4733   -1.2411    0.9668 N   0  0  0  0  0  0  0  0  0  0  0  0
   -3.4203   -0.2603    0.9449 C   0  0  2  0  0  0  0  0  0  0  0  0
   -2.1242   -0.9699    0.5759 C   0  0  0  0  0  0  0  0  0  0  0  0
   -1.8694   -2.1225    0.9189 O   0  0  0  0  0  0  0  0  0  0  0  0
   -3.2916    0.4435    2.2868 C   0  0  0  0  0  0  0  0  0  0  0  0
   -4.2421   -2.1920    1.2489 H   0  0  0  0  0  0  0  0  0  0  0  0
   -3.6772    0.4622    0.1625 H   0  0  0  0  0  0  0  0  0  0  0  0
   -3.0345   -0.2644    3.0832 H   0  0  0  0  0  0  0  0  0  0  0  0
   -2.5093    1.2092    2.2599 H   0  0  0  0  0  0  0  0  0  0  0  0
   -4.2338    0.9283    2.5645 H   0  0  0  0  0  0  0  0  0  0  0  0
   -1.2626   -0.1515   -0.1463 N   0  0  0  0  0  0  0  0  0  0  0  0
    0.0431   -0.5785   -0.5755 C   0  0  2  0  0  0  0  0  0  0  0  0
    0.2234   -0.1535   -2.0269 C   0  0  0  0  0  0  0  0  0  0  0  0
    1.2587   -0.3502   -2.6597 O   0  0  0  0  0  0  0  0  0  0  0  0
    0.2108   -2.0824   -0.4247 C   0  0  0  0  0  0  0  0  0  0  0  0
   -1.5766    0.7776   -0.4197 H   0  0  0  0  0  0  0  0  0  0  0  0
    0.7702   -0.0524    0.0527 H   0  0  0  0  0  0  0  0  0  0  0  0
   -0.5093   -2.6264   -1.0467 H   0  0  0  0  0  0  0  0  0  0  0  0
    1.2143   -2.4018   -0.7247 H   0  0  0  0  0  0  0  0  0  0  0  0
    0.0514   -2.3900    0.6145 H   0  0  0  0  0  0  0  0  0  0  0  0
   -0.8923    0.5115   -2.5236 N   0  0  0  0  0  0  0  0  0  0  0  0
   -0.9510    1.0490   -3.8574 C   0  0  2  0  0  0  0  0  0  0  0  0
   -1.8214    2.2982   -3.8232 C   0  0  0  0  0  0  0  0  0  0  0  0
   -2.7931    2.4186   -3.0798 O   0  0  0  0  0  0  0  0  0  0  0  0
   -1.5026    0.0290   -4.8413 C   0  0  0  0  0  0  0  0  0  0  0  0
   -1.7209    0.5924   -1.9377 H   0  0  0  0  0  0  0  0  0  0  0  0
    0.0730    1.3241   -4.1329 H   0  0  0  0  0  0  0  0  0  0  0  0
   -2.5278   -0.2589   -4.5815 H   0  0  0  0  0  0  0  0  0  0  0  0
   -1.5199    0.4296   -5.8602 H   0  0  0  0  0  0  0  0  0  0  0  0
   -0.8923   -0.8806   -4.8428 H   0  0  0  0  0  0  0  0  0  0  0  0
   -1.4115    3.2456   -4.7509 N   0  0  0  0  0  0  0  0  0  0  0  0
   -2.1020    4.4997   -4.9416 C   0  0  0  0  0  0  0  0  0  0  0  0
   -0.5716    3.0790   -5.2973 H   0  0  0  0  0  0  0  0  0  0  0  0
   -2.8505    4.3890   -5.7400 H   0  0  0  0  0  0  0  0  0  0  0  0
   -2.6037    4.7879   -4.0061 H   0  0  0  0  0  0  0  0  0  0  0  0
   -1.3774    5.2778   -5.2238 H   0  0  0  0  0  0  0  0  0  0  0  0
  1  3  1  0  0  0  0
  1  7  1  0  0  0  0
  1  2  2  0  0  0  0
 28 29  1  0  0  0  0
 29 37  1  0  0  0  0
 29 30  2  0  0  0  0
 18 19  1  0  0  0  0
 19 27  1  0  0  0  0
 19 20  2  0  0  0  0
  8  9  1  0  0  0  0
  9 17  1  0  0  0  0
  9 10  2  0  0  0  0
 28 31  1  0  0  0  0
 18 21  1  0  0  0  0
  8 11  1  0  0  0  0
 37 38  1  0  0  0  0
 27 28  1  0  0  0  0
 17 18  1  0  0  0  0
  7  8  1  0  0  0  0
  3  4  1  0  0  0  0
  3  5  1  0  0  0  0
  3  6  1  0  0  0  0
 31 34  1  0  0  0  0
 31 35  1  0  0  0  0
 31 36  1  0  0  0  0
 21 24  1  0  0  0  0
 21 25  1  0  0  0  0
 21 26  1  0  0  0  0
 11 14  1  0  0  0  0
 11 15  1  0  0  0  0
 11 16  1  0  0  0  0
 38 40  1  0  0  0  0
 38 41  1  0  0  0  0
 38 42  1  0  0  0  0
 28 33  1  0  0  0  0
 18 23  1  0  0  0  0
  8 13  1  0  0  0  0
 37 39  1  0  0  0  0
  7 12  1  0  0  0  0
 27 32  1  0  0  0  0
 17 22  1  0  0  0  0
M  END
$$$$

  -OEChem-05262214473D

 42 41  0     1  0  0  0  0  0999 V2000
   -5.7851   -0.9580    0.6237 C   0  0  0  0  0  0  0  0  0  0  0  0
   -6.2213    0.1296    0.2652 O   0  0  0  0  0  0  0  0  0  0  0  0
   -6.7088   -2.1270    0.7168 C   0  0  0  0  0  0  0  0  0  0  0  0
   -7.1713   -2.2193    1.7126 H   0  0  0  0  0  0  0  0  0  0  0  0
   -7.5511   -2.0547    0.0101 H   0  0  0  0  0  0  0  0  0  0  0  0
   -6.2485   -3.1083    0.5191 H   0  0  0  0  0  0  0  0  0  0  0  0
   -4.4733   -1.2411    0.9668 N   0  0  0  0  0  0  0  0  0  0  0  0
   -3.4203   -0.2603    0.9449 C   0  0  2  0  0  0  0  0  0  0  0  0
   -2.1242   -0.9699    0.5759 C   0  0  0  0  0  0  0  0  0  0  0  0
   -1.8694   -2.1225    0.9189 O   0  0  0  0  0  0  0  0  0  0  0  0
   -3.2916    0.4435    2.2868 C   0  0  0  0  0  0  0  0  0  0  0  0
   -4.2421   -2.1920    1.2489 H   0  0  0  0  0  0  0  0  0  0  0  0
   -3.6772    0.4622    0.1625 H   0  0  0  0  0  0  0  0  0  0  0  0
   -3.0345   -0.2644    3.0832 H   0  0  0  0  0  0  0  0  0  0  0  0
   -2.5093    1.2092    2.2599 H   0  0  0  0  0  0  0  0  0  0  0  0
   -4.2338    0.9283    2.5645 H   0  0  0  0  0  0  0  0  0  0  0  0
   -1.2626   -0.1515   -0.1463 N   0  0  0  0  0  0  0  0  0  0  0  0
    0.0431   -0.5785   -0.5755 C   0  0  2  0  0  0  0  0  0  0  0  0
    0.2234   -0.1535   -2.0269 C   0  0  0  0  0  0  0  0  0  0  0  0
    1.1319   -0.5731   -2.7407 O   0  0  0  0  0  0  0  0  0  0  0  0
    0.2108   -2.0824   -0.4247 C   0  0  0  0  0  0  0  0  0  0  0  0
   -1.5766    0.7776   -0.4197 H   0  0  0  0  0  0  0  0  0  0  0  0
    0.7702   -0.0524    0.0527 H   0  0  0  0  0  0  0  0  0  0  0  0
   -0.5093   -2.6264   -1.0467 H   0  0  0  0  0  0  0  0  0  0  0  0
    1.2143   -2.4018   -0.7247 H   0  0  0  0  0  0  0  0  0  0  0  0
    0.0514   -2.3900    0.6145 H   0  0  0  0  0  0  0  0  0  0  0  0
   -0.7240    0.7843   -2.4229 N   0  0  0  0  0  0  0  0  0  0  0  0
   -0.7387    1.3722   -3.7364 C   0  0  2  0  0  0  0  0  0  0  0  0
   -1.2681    2.7946   -3.6091 C   0  0  0  0  0  0  0  0  0  0  0  0
   -2.1264    3.1202   -2.7916 O   0  0  0  0  0  0  0  0  0  0  0  0
   -1.5918    0.5587   -4.6972 C   0  0  0  0  0  0  0  0  0  0  0  0
   -1.4647    1.0428   -1.7739 H   0  0  0  0  0  0  0  0  0  0  0  0
    0.3001    1.3982   -4.0830 H   0  0  0  0  0  0  0  0  0  0  0  0
   -2.6362    0.5214   -4.3665 H   0  0  0  0  0  0  0  0  0  0  0  0
   -1.5789    0.9914   -5.7030 H   0  0  0  0  0  0  0  0  0  0  0  0
   -1.2275   -0.4721   -4.7648 H   0  0  0  0  0  0  0  0  0  0  0  0
   -0.7007    3.6483   -4.5446 N   0  0  0  0  0  0  0  0  0  0  0  0
   -1.0702    5.0402   -4.6552 C   0  0  0  0  0  0  0  0  0  0  0  0
    0.0324    3.3025   -5.1568 H   0  0  0  0  0  0  0  0  0  0  0  0
   -1.8756    5.1484   -5.3965 H   0  0  0  0  0  0  0  0  0  0  0  0
   -1.4197    5.4053   -3.6782 H   0  0  0  0  0  0  0  0  0  0  0  0
   -0.1965    5.6271   -4.9748 H   0  0  0  0  0  0  0  0  0  0  0  0
  1  3  1  0  0  0  0
  1  7  1  0  0  0  0
  1  2  2  0  0  0  0
 28 29  1  0  0  0  0
 29 37  1  0  0  0  0
 29 30  2  0  0  0  0
 18 19  1  0  0  0  0
 19 27  1  0  0  0  0
 19 20  2  0  0  0  0
  8  9  1  0  0  0  0
  9 17  1  0  0  0  0
  9 10  2  0  0  0  0
 28 31  1  0  0  0  0
 18 21  1  0  0  0  0
  8 11  1  0  0  0  0
 37 38  1  0  0  0  0
 27 28  1  0  0  0  0
 17 18  1  0  0  0  0
  7  8  1  0  0  0  0
  3  4  1  0  0  0  0
  3  5  1  0  0  0  0
  3  6  1  0  0  0  0
 31 34  1  0  0  0  0
 31 35  1  0  0  0  0
 31 36  1  0  0  0  0
 21 24  1  0  0  0  0
 21 25  1  0  0  0  0
 21 26  1  0  0  0  0
 11 14  1  0  0  0  0
 11 15  1  0  0  0  0
 11 16  1  0  0  0  0
 38 40  1  0  0  0  0
 38 41  1  0  0  0  0
 38 42  1  0  0  0  0
 28 33  1  0  0  0  0
 18 23  1  0  0  0  0
  8 13  1  0  0  0  0
 37 39  1  0  0  0  0
  7 12  1  0  0  0  0
 27 32  1  0  0  0  0
 17 22  1  0  0  0  0
M  END
$$$$

  -OEChem-05262214473D

 42 41  0     1  0  0  0  0  0999 V2000
   -5.7851   -0.9580    0.6237 C   0  0  0  0  0  0  0  0  0  0  0  0
   -6.2213    0.1296    0.2652 O   0  0  0  0  0  0  0  0  0  0  0  0
   -6.7088   -2.1270    0.7168 C   0  0  0  0  0  0  0  0  0  0  0  0
   -7.1713   -2.2193    1.7126 H   0  0  0  0  0  0  0  0  0  0  0  0
   -7.5511   -2.0547    0.0101 H   0  0  0  0  0  0  0  0  0  0  0  0
   -6.2485   -3.1083    0.5191 H   0  0  0  0  0  0  0  0  0  0  0  0
   -4.4733   -1.2411    0.9668 N   0  0  0  0  0  0  0  0  0  0  0  0
   -3.4203   -0.2603    0.9449 C   0  0  2  0  0  0  0  0  0  0  0  0
   -2.1242   -0.9699    0.5759 C   0  0  0  0  0  0  0  0  0  0  0  0
   -1.8694   -2.1225    0.9189 O   0  0  0  0  0  0  0  0  0  0  0  0
   -3.2916    0.4435    2.2868 C   0  0  0  0  0  0  0  0  0  0  0  0
   -4.2421   -2.1920    1.2489 H   0  0  0  0  0  0  0  0  0  0  0  0
   -3.6772    0.4622    0.1625 H   0  0  0  0  0  0  0  0  0  0  0  0
   -3.0345   -0.2644    3.0832 H   0  0  0  0  0  0  0  0  0  0  0  0
   -2.5093    1.2092    2.2599 H   0  0  0  0  0  0  0  0  0  0  0  0
   -4.2338    0.9283    2.5645 H   0  0  0  0  0  0  0  0  0  0  0  0
   -1.2626   -0.1515   -0.1463 N   0  0  0  0  0  0  0  0  0  0  0  0
    0.0431   -0.5785   -0.5755 C   0  0  2  0  0  0  0  0  0  0  0  0
    0.2234   -0.1535   -2.0269 C   0  0  0  0  0  0  0  0  0  0  0  0
    0.9486   -0.7546   -2.8167 O   0  0  0  0  0  0  0  0  0  0  0  0
    0.2108   -2.0824   -0.4247 C   0  0  0  0  0  0  0  0  0  0  0  0
   -1.5766    0.7776   -0.4197 H   0  0  0  0  0  0  0  0  0  0  0  0
    0.7702   -0.0524    0.0527 H   0  0  0  0  0  0  0  0  0  0  0  0
   -0.5093   -2.6264   -1.0467 H   0  0  0  0  0  0  0  0  0  0  0  0
    1.2143   -2.4018   -0.7247 H   0  0  0  0  0  0  0  0  0  0  0  0
    0.0514   -2.3900    0.6145 H   0  0  0  0  0  0  0  0  0  0  0  0
   -0.4869    1.0031   -2.3293 N   0  0  0  0  0  0  0  0  0  0  0  0
   -0.4453    1.6284   -3.6250 C   0  0  2  0  0  0  0  0  0  0  0  0
   -0.5957    3.1309   -3.4271 C   0  0  0  0  0  0  0  0  0  0  0  0
   -1.2887    3.6246   -2.5398 O   0  0  0  0  0  0  0  0  0  0  0  0
   -1.5369    1.0880   -4.5354 C   0  0  0  0  0  0  0  0  0  0  0  0
   -1.0943    1.4097   -1.6205 H   0  0  0  0  0  0  0  0  0  0  0  0
    0.5415    1.4123   -4.0489 H   0  0  0  0  0  0  0  0  0  0  0  0
   -2.5328    1.2951   -4.1271 H   0  0  0  0  0  0  0  0  0  0  0  0
   -1.4861    1.5439   -5.5297 H   0  0  0  0  0  0  0  0  0  0  0  0
   -1.4449    0.0029   -4.6527 H   0  0  0  0  0  0  0  0  0  0  0  0
    0.1002    3.8557   -4.3844 N   0  0  0  0  0  0  0  0  0  0  0  0
    0.0804    5.2989   -4.4365 C   0  0  0  0  0  0  0  0  0  0  0  0
    0.6811    3.3651   -5.0579 H   0  0  0  0  0  0  0  0  0  0  0  0
   -0.7219    5.6310   -5.1119 H   0  0  0  0  0  0  0  0  0  0  0  0
   -0.1001    5.6996   -3.4281 H   0  0  0  0  0  0  0  0  0  0  0  0
    1.0483    5.6656   -4.8089 H   0  0  0  0  0  0  0  0  0  0  0  0
  1  3  1  0  0  0  0
  1  7  1  0  0  0  0
  1  2  2  0  0  0  0
 28 29  1  0  0  0  0
 29 37  1  0  0  0  0
 29 30  2  0  0  0  0
 18 19  1  0  0  0  0
 19 27  1  0  0  0  0
 19 20  2  0  0  0  0
  8  9  1  0  0  0  0
  9 17  1  0  0  0  0
  9 10  2  0  0  0  0
 28 31  1  0  0  0  0
 18 21  1  0  0  0  0
  8 11  1  0  0  0  0
 37 38  1  0  0  0  0
 27 28  1  0  0  0  0
 17 18  1  0  0  0  0
  7  8  1  0  0  0  0
  3  4  1  0  0  0  0
  3  5  1  0  0  0  0
  3  6  1  0  0  0  0
 31 34  1  0  0  0  0
 31 35  1  0  0  0  0
 31 36  1  0  0  0  0
 21 24  1  0  0  0  0
 21 25  1  0  0  0  0
 21 26  1  0  0  0  0
 11 14  1  0  0  0  0
 11 15  1  0  0  0  0
 11 16  1  0  0  0  0
 38 40  1  0  0  0  0
 38 41  1  0  0  0  0
 38 42  1  0  0  0  0
 28 33  1  0  0  0  0
 18 23  1  0  0  0  0
  8 13  1  0  0  0  0
 37 39  1  0  0  0  0
  7 12  1  0  0  0  0
 27 32  1  0  0  0  0
 17 22  1  0  0  0  0
M  END
$$$$

  -OEChem-05262214473D

 42 41  0     1  0  0  0  0  0999 V2000
   -5.7851   -0.9580    0.6237 C   0  0  0  0  0  0  0  0  0  0  0  0
   -6.2213    0.1296    0.2652 O   0  0  0  0  0  0  0  0  0  0  0  0
   -6.7088   -2.1270    0.7168 C   0  0  0  0  0  0  0  0  0  0  0  0
   -7.1713   -2.2193    1.7126 H   0  0  0  0  0  0  0  0  0  0  0  0
   -7.5511   -2.0547    0.0101 H   0  0  0  0  0  0  0  0  0  0  0  0
   -6.2485   -3.1083    0.5191 H   0  0  0  0  0  0  0  0  0  0  0  0
   -4.4733   -1.2411    0.9668 N   0  0  0  0  0  0  0  0  0  0  0  0
   -3.4203   -0.2603    0.9449 C   0  0  2  0  0  0  0  0  0  0  0  0
   -2.1242   -0.9699    0.5759 C   0  0  0  0  0  0  0  0  0  0  0  0
   -1.8694   -2.1225    0.9189 O   0  0  0  0  0  0  0  0  0  0  0  0
   -3.2916    0.4435    2.2868 C   0  0  0  0  0  0  0  0  0  0  0  0
   -4.2421   -2.1920    1.2489 H   0  0  0  0  0  0  0  0  0  0  0  0
   -3.6772    0.4622    0.1625 H   0  0  0  0  0  0  0  0  0  0  0  0
   -3.0345   -0.2644    3.0832 H   0  0  0  0  0  0  0  0  0  0  0  0
   -2.5093    1.2092    2.2599 H   0  0  0  0  0  0  0  0  0  0  0  0
   -4.2338    0.9283    2.5645 H   0  0  0  0  0  0  0  0  0  0  0  0
   -1.2626   -0.1515   -0.1463 N   0  0  0  0  0  0  0  0  0  0  0  0
    0.0431   -0.5785   -0.5755 C   0  0  2  0  0  0  0  0  0  0  0  0
    0.2234   -0.1535   -2.0269 C   0  0  0  0  0  0  0  0  0  0  0  0
    0.7213   -0.8824   -2.8823 O   0  0  0  0  0  0  0  0  0  0  0  0
    0.2108   -2.0824   -0.4247 C   0  0  0  0  0  0  0  0  0  0  0  0
   -1.5766    0.7776   -0.4197 H   0  0  0  0  0  0  0  0  0  0  0  0
    0.7702   -0.0524    0.0527 H   0  0  0  0  0  0  0  0  0  0  0  0
   -0.5093   -2.6264   -1.0467 H   0  0  0  0  0  0  0  0  0  0  0  0
    1.2143   -2.4018   -0.7247 H   0  0  0  0  0  0  0  0  0  0  0  0
    0.0514   -2.3900    0.6145 H   0  0  0  0  0  0  0  0  0  0  0  0
   -0.1971    1.1532   -2.2494 N   0  0  0  0  0  0  0  0  0  0  0  0
   -0.0906    1.8000   -3.5306 C   0  0  2  0  0  0  0  0  0  0  0  0
    0.1498    3.2845   -3.2895 C   0  0  0  0  0  0  0  0  0  0  0  0
   -0.3368    3.8975   -2.3416 O   0  0  0  0  0  0  0  0  0  0  0  0
   -1.3417    1.5808   -4.3669 C   0  0  0  0  0  0  0  0  0  0  0  0
   -0.6349    1.6679   -1.4878 H   0  0  0  0  0  0  0  0  0  0  0  0
    0.7805    1.3653   -4.0329 H   0  0  0  0  0  0  0  0  0  0  0  0
   -2.2249    2.0097   -3.8796 H   0  0  0  0  0  0  0  0  0  0  0  0
   -1.2476    2.0494   -5.3521 H   0  0  0  0  0  0  0  0  0  0  0  0
   -1.5296    0.5118   -4.5142 H   0  0  0  0  0  0  0  0  0  0  0  0
    0.9365    3.8536   -4.2811 N   0  0  0  0  0  0  0  0  0  0  0  0
    1.2714    5.2584   -4.3004 C   0  0  0  0  0  0  0  0  0  0  0  0
    1.3303    3.2625   -5.0073 H   0  0  0  0  0  0  0  0  0  0  0  0
    0.5322    5.8038   -4.9055 H   0  0  0  0  0  0  0  0  0  0  0  0
    1.2651    5.6508   -3.2728 H   0  0  0  0  0  0  0  0  0  0  0  0
    2.2721    5.3907   -4.7374 H   0  0  0  0  0  0  0  0  0  0  0  0
  1  3  1  0  0  0  0
  1  7  1  0  0  0  0
  1  2  2  0  0  0  0
 28 29  1  0  0  0  0
 29 37  1  0  0  0  0
 29 30  2  0  0  0  0
 18 19  1  0  0  0  0
 19 27  1  0  0  0  0
 19 20  2  0  0  0  0
  8  9  1  0  0  0  0
  9 17  1  0  0  0  0
  9 10  2  0  0  0  0
 28 31  1  0  0  0  0
 18 21  1  0  0  0  0
  8 11  1  0  0  0  0
 37 38  1  0  0  0  0
 27 28  1  0  0  0  0
 17 18  1  0  0  0  0
  7  8  1  0  0  0  0
  3  4  1  0  0  0  0
  3  5  1  0  0  0  0
  3  6  1  0  0  0  0
 31 34  1  0  0  0  0
 31 35  1  0  0  0  0
 31 36  1  0  0  0  0
 21 24  1  0  0  0  0
 21 25  1  0  0  0  0
 21 26  1  0  0  0  0
 11 14  1  0  0  0  0
 11 15  1  0  0  0  0
 11 16  1  0  0  0  0
 38 40  1  0  0  0  0
 38 41  1  0  0  0  0
 38 42  1  0  0  0  0
 28 33  1  0  0  0  0
 18 23  1  0  0  0  0
  8 13  1  0  0  0  0
 37 39  1  0  0  0  0
  7 12  1  0  0  0  0
 27 32  1  0  0  0  0
 17 22  1  0  0  0  0
M  END
$$$$

  -OEChem-05262214473D

 42 41  0     1  0  0  0  0  0999 V2000
   -5.7851   -0.9580    0.6237 C   0  0  0  0  0  0  0  0  0  0  0  0
   -6.2213    0.1296    0.2652 O   0  0  0  0  0  0  0  0  0  0  0  0
   -6.7088   -2.1270    0.7168 C   0  0  0  0  0  0  0  0  0  0  0  0
   -7.1713   -2.2193    1.7126 H   0  0  0  0  0  0  0  0  0  0  0  0
   -7.5511   -2.0547    0.0101 H   0  0  0  0  0  0  0  0  0  0  0  0
   -6.2485   -3.1083    0.5191 H   0  0  0  0  0  0  0  0  0  0  0  0
   -4.4733   -1.2411    0.9668 N   0  0  0  0  0  0  0  0  0  0  0  0
   -3.4203   -0.2603    0.9449 C   0  0  2  0  0  0  0  0  0  0  0  0
   -2.1242   -0.9699    0.5759 C   0  0  0  0  0  0  0  0  0  0  0  0
   -1.8694   -2.1225    0.9189 O   0  0  0  0  0  0  0  0  0  0  0  0
   -3.2916    0.4435    2.2868 C   0  0  0  0  0  0  0  0  0  0  0  0
   -4.2421   -2.1920    1.2489 H   0  0  0  0  0  0  0  0  0  0  0  0
   -3.6772    0.4622    0.1625 H   0  0  0  0  0  0  0  0  0  0  0  0
   -3.0345   -0.2644    3.0832 H   0  0  0  0  0  0  0  0  0  0  0  0
   -2.5093    1.2092    2.2599 H   0  0  0  0  0  0  0  0  0  0  0  0
   -4.2338    0.9283    2.5645 H   0  0  0  0  0  0  0  0  0  0  0  0
   -1.2626   -0.1515   -0.1463 N   0  0  0  0  0  0  0  0  0  0  0  0
    0.0431   -0.5785   -0.5755 C   0  0  2  0  0  0  0  0  0  0  0  0
    0.2234   -0.1535   -2.0269 C   0  0  0  0  0  0  0  0  0  0  0  0
    0.4655   -0.9478   -2.9333 O   0  0  0  0  0  0  0  0  0  0  0  0
    0.2108   -2.0824   -0.4247 C   0  0  0  0  0  0  0  0  0  0  0  0
   -1.5766    0.7776   -0.4197 H   0  0  0  0  0  0  0  0  0  0  0  0
    0.7702   -0.0524    0.0527 H   0  0  0  0  0  0  0  0  0  0  0  0
   -0.5093   -2.6264   -1.0467 H   0  0  0  0  0  0  0  0  0  0  0  0
    1.2143   -2.4018   -0.7247 H   0  0  0  0  0  0  0  0  0  0  0  0
    0.0514   -2.3900    0.6145 H   0  0  0  0  0  0  0  0  0  0  0  0
    0.1255    1.2242   -2.1885 N   0  0  0  0  0  0  0  0  0  0  0  0
    0.3012    1.8754   -3.4599 C   0  0  2  0  0  0  0  0  0  0  0  0
    0.9178    3.2446   -3.2057 C   0  0  0  0  0  0  0  0  0  0  0  0
    0.6642    3.9203   -2.2106 O   0  0  0  0  0  0  0  0  0  0  0  0
   -1.0194    2.0035   -4.2031 C   0  0  0  0  0  0  0  0  0  0  0  0
   -0.1179    1.8000   -1.3849 H   0  0  0  0  0  0  0  0  0  0  0  0
    1.0009    1.2604   -4.0363 H   0  0  0  0  0  0  0  0  0  0  0  0
   -1.7334    2.6164   -3.6409 H   0  0  0  0  0  0  0  0  0  0  0  0
   -0.8797    2.4733   -5.1823 H   0  0  0  0  0  0  0  0  0  0  0  0
   -1.4760    1.0201   -4.3587 H   0  0  0  0  0  0  0  0  0  0  0  0
    1.7513    3.6421   -4.2418 N   0  0  0  0  0  0  0  0  0  0  0  0
    2.4216    4.9213   -4.2562 C   0  0  0  0  0  0  0  0  0  0  0  0
    1.9357    3.0018   -5.0084 H   0  0  0  0  0  0  0  0  0  0  0  0
    1.8010    5.6551   -4.7914 H   0  0  0  0  0  0  0  0  0  0  0  0
    2.5831    5.2621   -3.2228 H   0  0  0  0  0  0  0  0  0  0  0  0
    3.3917    4.8211   -4.7650 H   0  0  0  0  0  0  0  0  0  0  0  0
  1  3  1  0  0  0  0
  1  7  1  0  0  0  0
  1  2  2  0  0  0  0
 28 29  1  0  0  0  0
 29 37  1  0  0  0  0
 29 30  2  0  0  0  0
 18 19  1  0  0  0  0
 19 27  1  0  0  0  0
 19 20  2  0  0  0  0
  8  9  1  0  0  0  0
  9 17  1  0  0  0  0
  9 10  2  0  0  0  0
 28 31  1  0  0  0  0
 18 21  1  0  0  0  0
  8 11  1  0  0  0  0
 37 38  1  0  0  0  0
 27 28  1  0  0  0  0
 17 18  1  0  0  0  0
  7  8  1  0  0  0  0
  3  4  1  0  0  0  0
  3  5  1  0  0  0  0
  3  6  1  0  0  0  0
 31 34  1  0  0  0  0
 31 35  1  0  0  0  0
 31 36  1  0  0  0  0
 21 24  1  0  0  0  0
 21 25  1  0  0  0  0
 21 26  1  0  0  0  0
 11 14  1  0  0  0  0
 11 15  1  0  0  0  0
 11 16  1  0  0  0  0
 38 40  1  0  0  0  0
 38 41  1  0  0  0  0
 38 42  1  0  0  0  0
 28 33  1  0  0  0  0
 18 23  1  0  0  0  0
  8 13  1  0  0  0  0
 37 39  1  0  0  0  0
  7 12  1  0  0  0  0
 27 32  1  0  0  0  0
 17 22  1  0  0  0  0
M  END
$$$$

  -OEChem-05262214473D

 42 41  0     1  0  0  0  0  0999 V2000
   -5.7851   -0.9580    0.6237 C   0  0  0  0  0  0  0  0  0  0  0  0
   -6.2213    0.1296    0.2652 O   0  0  0  0  0  0  0  0  0  0  0  0
   -6.7088   -2.1270    0.7168 C   0  0  0  0  0  0  0  0  0  0  0  0
   -7.1713   -2.2193    1.7126 H   0  0  0  0  0  0  0  0  0  0  0  0
   -7.5511   -2.0547    0.0101 H   0  0  0  0  0  0  0  0  0  0  0  0
   -6.2485   -3.1083    0.5191 H   0  0  0  0  0  0  0  0  0  0  0  0
   -4.4733   -1.2411    0.9668 N   0  0  0  0  0  0  0  0  0  0  0  0
   -3.4203   -0.2603    0.9449 C   0  0  2  0  0  0  0  0  0  0  0  0
   -2.1242   -0.9699    0.5759 C   0  0  0  0  0  0  0  0  0  0  0  0
   -1.8694   -2.1225    0.9189 O   0  0  0  0  0  0  0  0  0  0  0  0
   -3.2916    0.4435    2.2868 C   0  0  0  0  0  0  0  0  0  0  0  0
   -4.2421   -2.1920    1.2489 H   0  0  0  0  0  0  0  0  0  0  0  0
   -3.6772    0.4622    0.1625 H   0  0  0  0  0  0  0  0  0  0  0  0
   -3.0345   -0.2644    3.0832 H   0  0  0  0  0  0  0  0  0  0  0  0
   -2.5093    1.2092    2.2599 H   0  0  0  0  0  0  0  0  0  0  0  0
   -4.2338    0.9283    2.5645 H   0  0  0  0  0  0  0  0  0  0  0  0
   -1.2626   -0.1515   -0.1463 N   0  0  0  0  0  0  0  0  0  0  0  0
    0.0431   -0.5785   -0.5755 C   0  0  2  0  0  0  0  0  0  0  0  0
    0.2234   -0.1535   -2.0269 C   0  0  0  0  0  0  0  0  0  0  0  0
    0.1986   -0.9463   -2.9660 O   0  0  0  0  0  0  0  0  0  0  0  0
    0.2108   -2.0824   -0.4247 C   0  0  0  0  0  0  0  0  0  0  0  0
   -1.5766    0.7776   -0.4197 H   0  0  0  0  0  0  0  0  0  0  0  0
    0.7702   -0.0524    0.0527 H   0  0  0  0  0  0  0  0  0  0  0  0
   -0.5093   -2.6264   -1.0467 H   0  0  0  0  0  0  0  0  0  0  0  0
    1.2143   -2.4018   -0.7247 H   0  0  0  0  0  0  0  0  0  0  0  0
    0.0514   -2.3900    0.6145 H   0  0  0  0  0  0  0  0  0  0  0  0
    0.4591    1.2114   -2.1508 N   0  0  0  0  0  0  0  0  0  0  0  0
    0.7033    1.8495   -3.4175 C   0  0  2  0  0  0  0  0  0  0  0  0
    1.6558    3.0142   -3.1815 C   0  0  0  0  0  0  0  0  0  0  0  0
    1.6461    3.6914   -2.1556 O   0  0  0  0  0  0  0  0  0  0  0  0
   -0.5920    2.3273   -4.0552 C   0  0  0  0  0  0  0  0  0  0  0  0
    0.4215    1.7970   -1.3188 H   0  0  0  0  0  0  0  0  0  0  0  0
    1.1877    1.1049   -4.0586 H   0  0  0  0  0  0  0  0  0  0  0  0
   -1.0917    3.0739   -3.4272 H   0  0  0  0  0  0  0  0  0  0  0  0
   -0.4075    2.7869   -5.0318 H   0  0  0  0  0  0  0  0  0  0  0  0
   -1.2875    1.4930   -4.1969 H   0  0  0  0  0  0  0  0  0  0  0  0
    2.4889    3.2357   -4.2692 N   0  0  0  0  0  0  0  0  0  0  0  0
    3.4527    4.3107   -4.3069 C   0  0  0  0  0  0  0  0  0  0  0  0
    2.4561    2.6006   -5.0613 H   0  0  0  0  0  0  0  0  0  0  0  0
    2.9982    5.1950   -4.7773 H   0  0  0  0  0  0  0  0  0  0  0  0
    3.7639    4.5601   -3.2817 H   0  0  0  0  0  0  0  0  0  0  0  0
    4.3306    3.9957   -4.8901 H   0  0  0  0  0  0  0  0  0  0  0  0
  1  3  1  0  0  0  0
  1  7  1  0  0  0  0
  1  2  2  0  0  0  0
 28 29  1  0  0  0  0
 29 37  1  0  0  0  0
 29 30  2  0  0  0  0
 18 19  1  0  0  0  0
 19 27  1  0  0  0  0
 19 20  2  0  0  0  0
  8  9  1  0  0  0  0
  9 17  1  0  0  0  0
  9 10  2  0  0  0  0
 28 31  1  0  0  0  0
 18 21  1  0  0  0  0
  8 11  1  0  0  0  0
 37 38  1  0  0  0  0
 27 28  1  0  0  0  0
 17 18  1  0  0  0  0
  7  8  1  0  0  0  0
  3  4  1  0  0  0  0
  3  5  1  0  0  0  0
  3  6  1  0  0  0  0
 31 34  1  0  0  0  0
 31 35  1  0  0  0  0
 31 36  1  0  0  0  0
 21 24  1  0  0  0  0
 21 25  1  0  0  0  0
 21 26  1  0  0  0  0
 11 14  1  0  0  0  0
 11 15  1  0  0  0  0
 11 16  1  0  0  0  0
 38 40  1  0  0  0  0
 38 41  1  0  0  0  0
 38 42  1  0  0  0  0
 28 33  1  0  0  0  0
 18 23  1  0  0  0  0
  8 13  1  0  0  0  0
 37 39  1  0  0  0  0
  7 12  1  0  0  0  0
 27 32  1  0  0  0  0
 17 22  1  0  0  0  0
M  END
$$$$

  -OEChem-05262214473D

 42 41  0     1  0  0  0  0  0999 V2000
   -5.7851   -0.9580    0.6237 C   0  0  0  0  0  0  0  0  0  0  0  0
   -6.2213    0.1296    0.2652 O   0  0  0  0  0  0  0  0  0  0  0  0
   -6.7088   -2.1270    0.7168 C   0  0  0  0  0  0  0  0  0  0  0  0
   -7.1713   -2.2193    1.7126 H   0  0  0  0  0  0  0  0  0  0  0  0
   -7.5511   -2.0547    0.0101 H   0  0  0  0  0  0  0  0  0  0  0  0
   -6.2485   -3.1083    0.5191 H   0  0  0  0  0  0  0  0  0  0  0  0
   -4.4733   -1.2411    0.9668 N   0  0  0  0  0  0  0  0  0  0  0  0
   -3.4203   -0.2603    0.9449 C   0  0  2  0  0  0  0  0  0  0  0  0
   -2.1242   -0.9699    0.5759 C   0  0  0  0  0  0  0  0  0  0  0  0
   -1.8694   -2.1225    0.9189 O   0  0  0  0  0  0  0  0  0  0  0  0
   -3.2916    0.4435    2.2868 C   0  0  0  0  0  0  0  0  0  0  0  0
   -4.2421   -2.1920    1.2489 H   0  0  0  0  0  0  0  0  0  0  0  0
   -3.6772    0.4622    0.1625 H   0  0  0  0  0  0  0  0  0  0  0  0
   -3.0345   -0.2644    3.0832 H   0  0  0  0  0  0  0  0  0  0  0  0
   -2.5093    1.2092    2.2599 H   0  0  0  0  0  0  0  0  0  0  0  0
   -4.2338    0.9283    2.5645 H   0  0  0  0  0  0  0  0  0  0  0  0
   -1.2626   -0.1515   -0.1463 N   0  0  0  0  0  0  0  0  0  0  0  0
    0.0431   -0.5785   -0.5755 C   0  0  2  0  0  0  0  0  0  0  0  0
    0.2234   -0.1535   -2.0269 C   0  0  0  0  0  0  0  0  0  0  0  0
   -0.0612   -0.8780   -2.9783 O   0  0  0  0  0  0  0  0  0  0  0  0
    0.2108   -2.0824   -0.4247 C   0  0  0  0  0  0  0  0  0  0  0  0
   -1.5766    0.7776   -0.4197 H   0  0  0  0  0  0  0  0  0  0  0  0
    0.7702   -0.0524    0.0527 H   0  0  0  0  0  0  0  0  0  0  0  0
   -0.5093   -2.6264   -1.0467 H   0  0  0  0  0  0  0  0  0  0  0  0
    1.2143   -2.4018   -0.7247 H   0  0  0  0  0  0  0  0  0  0  0  0
    0.0514   -2.3900    0.6145 H   0  0  0  0  0  0  0  0  0  0  0  0
    0.7809    1.1155   -2.1389 N   0  0  0  0  0  0  0  0  0  0  0  0
    1.0884    1.7240   -3.4064 C   0  0  2  0  0  0  0  0  0  0  0  0
    2.3136    2.6088   -3.2185 C   0  0  0  0  0  0  0  0  0  0  0  0
    2.5422    3.2264   -2.1805 O   0  0  0  0  0  0  0  0  0  0  0  0
   -0.0886    2.5301   -3.9333 C   0  0  0  0  0  0  0  0  0  0  0  0
    0.9465    1.6589   -1.2940 H   0  0  0  0  0  0  0  0  0  0  0  0
    1.3282    0.9093   -4.0984 H   0  0  0  0  0  0  0  0  0  0  0  0
   -0.3436    3.3510   -3.2531 H   0  0  0  0  0  0  0  0  0  0  0  0
    0.1367    2.9687   -4.9109 H   0  0  0  0  0  0  0  0  0  0  0  0
   -0.9772    1.8984   -4.0396 H   0  0  0  0  0  0  0  0  0  0  0  0
    3.0992    2.6620   -4.3613 N   0  0  0  0  0  0  0  0  0  0  0  0
    4.2944    3.4681   -4.4490 C   0  0  0  0  0  0  0  0  0  0  0  0
    2.8560    2.0864   -5.1621 H   0  0  0  0  0  0  0  0  0  0  0  0
    4.0421    4.4549   -4.8644 H   0  0  0  0  0  0  0  0  0  0  0  0
    4.7270    3.5926   -3.4453 H   0  0  0  0  0  0  0  0  0  0  0  0
    5.0248    2.9706   -5.1040 H   0  0  0  0  0  0  0  0  0  0  0  0
  1  3  1  0  0  0  0
  1  7  1  0  0  0  0
  1  2  2  0  0  0  0
 28 29  1  0  0  0  0
 29 37  1  0  0  0  0
 29 30  2  0  0  0  0
 18 19  1  0  0  0  0
 19 27  1  0  0  0  0
 19 20  2  0  0  0  0
  8  9  1  0  0  0  0
  9 17  1  0  0  0  0
  9 10  2  0  0  0  0
 28 31  1  0  0  0  0
 18 21  1  0  0  0  0
  8 11  1  0  0  0  0
 37 38  1  0  0  0  0
 27 28  1  0  0  0  0
 17 18  1  0  0  0  0
  7  8  1  0  0  0  0
  3  4  1  0  0  0  0
  3  5  1  0  0  0  0
  3  6  1  0  0  0  0
 31 34  1  0  0  0  0
 31 35  1  0  0  0  0
 31 36  1  0  0  0  0
 21 24  1  0  0  0  0
 21 25  1  0  0  0  0
 21 26  1  0  0  0  0
 11 14  1  0  0  0  0
 11 15  1  0  0  0  0
 11 16  1  0  0  0  0
 38 40  1  0  0  0  0
 38 41  1  0  0  0  0
 38 42  1  0  0  0  0
 28 33  1  0  0  0  0
 18 23  1  0  0  0  0
  8 13  1  0  0  0  0
 37 39  1  0  0  0  0
  7 12  1  0  0  0  0
 27 32  1  0  0  0  0
 17 22  1  0  0  0  0
M  END
$$$$

  -OEChem-05262214473D

 42 41  0     1  0  0  0  0  0999 V2000
   -5.7851   -0.9580    0.6237 C   0  0  0  0  0  0  0  0  0  0  0  0
   -6.2213    0.1296    0.2652 O   0  0  0  0  0  0  0  0  0  0  0  0
   -6.7088   -2.1270    0.7168 C   0  0  0  0  0  0  0  0  0  0  0  0
   -7.1713   -2.2193    1.7126 H   0  0  0  0  0  0  0  0  0  0  0  0
   -7.5511   -2.0547    0.0101 H   0  0  0  0  0  0  0  0  0  0  0  0
   -6.2485   -3.1083    0.5191 H   0  0  0  0  0  0  0  0  0  0  0  0
   -4.4733   -1.2411    0.9668 N   0  0  0  0  0  0  0  0  0  0  0  0
   -3.4203   -0.2603    0.9449 C   0  0  2  0  0  0  0  0  0  0  0  0
   -2.1242   -0.9699    0.5759 C   0  0  0  0  0  0  0  0  0  0  0  0
   -1.8694   -2.1225    0.9189 O   0  0  0  0  0  0  0  0  0  0  0  0
   -3.2916    0.4435    2.2868 C   0  0  0  0  0  0  0  0  0  0  0  0
   -4.2421   -2.1920    1.2489 H   0  0  0  0  0  0  0  0  0  0  0  0
   -3.6772    0.4622    0.1625 H   0  0  0  0  0  0  0  0  0  0  0  0
   -3.0345   -0.2644    3.0832 H   0  0  0  0  0  0  0  0  0  0  0  0
   -2.5093    1.2092    2.2599 H   0  0  0  0  0  0  0  0  0  0  0  0
   -4.2338    0.9283    2.5645 H   0  0  0  0  0  0  0  0  0  0  0  0
   -1.2626   -0.1515   -0.1463 N   0  0  0  0  0  0  0  0  0  0  0  0
    0.0431   -0.5785   -0.5755 C   0  0  2  0  0  0  0  0  0  0  0  0
    0.2234   -0.1535   -2.0269 C   0  0  0  0  0  0  0  0  0  0  0  0
   -0.2962   -0.7476   -2.9693 O   0  0  0  0  0  0  0  0  0  0  0  0
    0.2108   -2.0824   -0.4247 C   0  0  0  0  0  0  0  0  0  0  0  0
   -1.5766    0.7776   -0.4197 H   0  0  0  0  0  0  0  0  0  0  0  0
    0.7702   -0.0524    0.0527 H   0  0  0  0  0  0  0  0  0  0  0  0
   -0.5093   -2.6264   -1.0467 H   0  0  0  0  0  0  0  0  0  0  0  0
    1.2143   -2.4018   -0.7247 H   0  0  0  0  0  0  0  0  0  0  0  0
    0.0514   -2.3900    0.6145 H   0  0  0  0  0  0  0  0  0  0  0  0
    1.0689    0.9432   -2.1535 N   0  0  0  0  0  0  0  0  0  0  0  0
    1.4302    1.5074   -3.4274 C   0  0  2  0  0  0  0  0  0  0  0  0
    2.8463    2.0562   -3.3141 C   0  0  0  0  0  0  0  0  0  0  0  0
    3.2912    2.5570   -2.2834 O   0  0  0  0  0  0  0  0  0  0  0  0
    0.4564    2.5980   -3.8456 C   0  0  0  0  0  0  0  0  0  0  0  0
    1.4214    1.3954   -1.3122 H   0  0  0  0  0  0  0  0  0  0  0  0
    1.4128    0.6869   -4.1530 H   0  0  0  0  0  0  0  0  0  0  0  0
    0.4599    3.4288   -3.1305 H   0  0  0  0  0  0  0  0  0  0  0  0
    0.7161    3.0064   -4.8279 H   0  0  0  0  0  0  0  0  0  0  0  0
   -0.5661    2.2086   -3.8977 H   0  0  0  0  0  0  0  0  0  0  0  0
    3.5406    1.9602   -4.5120 N   0  0  0  0  0  0  0  0  0  0  0  0
    4.8893    2.4510   -4.6729 C   0  0  0  0  0  0  0  0  0  0  0  0
    3.1081    1.4942   -5.3042 H   0  0  0  0  0  0  0  0  0  0  0  0
    4.8616    3.4852   -5.0465 H   0  0  0  0  0  0  0  0  0  0  0  0
    5.4069    2.4255   -3.7026 H   0  0  0  0  0  0  0  0  0  0  0  0
    5.4272    1.8158   -5.3921 H   0  0  0  0  0  0  0  0  0  0  0  0
  1  3  1  0  0  0  0
  1  7  1  0  0  0  0
  1  2  2  0  0  0  0
 28 29  1  0  0  0  0
 29 37  1  0  0  0  0
 29 30  2  0  0  0  0
 18 19  1  0  0  0  0
 19 27  1  0  0  0  0
 19 20  2  0  0  0  0
  8  9  1  0  0  0  0
  9 17  1  0  0  0  0
  9 10  2  0  0  0  0
 28 31  1  0  0  0  0
 18 21  1  0  0  0  0
  8 11  1  0  0  0  0
 37 38  1  0  0  0  0
 27 28  1  0  0  0  0
 17 18  1  0  0  0  0
  7  8  1  0  0  0  0
  3  4  1  0  0  0  0
  3  5  1  0  0  0  0
  3  6  1  0  0  0  0
 31 34  1  0  0  0  0
 31 35  1  0  0  0  0
 31 36  1  0  0  0  0
 21 24  1  0  0  0  0
 21 25  1  0  0  0  0
 21 26  1  0  0  0  0
 11 14  1  0  0  0  0
 11 15  1  0  0  0  0
 11 16  1  0  0  0  0
 38 40  1  0  0  0  0
 38 41  1  0  0  0  0
 38 42  1  0  0  0  0
 28 33  1  0  0  0  0
 18 23  1  0  0  0  0
  8 13  1  0  0  0  0
 37 39  1  0  0  0  0
  7 12  1  0  0  0  0
 27 32  1  0  0  0  0
 17 22  1  0  0  0  0
M  END
$$$$

  -OEChem-05262214473D

 42 41  0     1  0  0  0  0  0999 V2000
   -5.7851   -0.9580    0.6237 C   0  0  0  0  0  0  0  0  0  0  0  0
   -6.2213    0.1296    0.2652 O   0  0  0  0  0  0  0  0  0  0  0  0
   -6.7088   -2.1270    0.7168 C   0  0  0  0  0  0  0  0  0  0  0  0
   -7.1713   -2.2193    1.7126 H   0  0  0  0  0  0  0  0  0  0  0  0
   -7.5511   -2.0547    0.0101 H   0  0  0  0  0  0  0  0  0  0  0  0
   -6.2485   -3.1083    0.5191 H   0  0  0  0  0  0  0  0  0  0  0  0
   -4.4733   -1.2411    0.9668 N   0  0  0  0  0  0  0  0  0  0  0  0
   -3.4203   -0.2603    0.9449 C   0  0  2  0  0  0  0  0  0  0  0  0
   -2.1242   -0.9699    0.5759 C   0  0  0  0  0  0  0  0  0  0  0  0
   -1.8694   -2.1225    0.9189 O   0  0  0  0  0  0  0  0  0  0  0  0
   -3.2916    0.4435    2.2868 C   0  0  0  0  0  0  0  0  0  0  0  0
   -4.2421   -2.1920    1.2489 H   0  0  0  0  0  0  0  0  0  0  0  0
   -3.6772    0.4622    0.1625 H   0  0  0  0  0  0  0  0  0  0  0  0
   -3.0345   -0.2644    3.0832 H   0  0  0  0  0  0  0  0  0  0  0  0
   -2.5093    1.2092    2.2599 H   0  0  0  0  0  0  0  0  0  0  0  0
   -4.2338    0.9283    2.5645 H   0  0  0  0  0  0  0  0  0  0  0  0
   -1.2626   -0.1515   -0.1463 N   0  0  0  0  0  0  0  0  0  0  0  0
    0.0431   -0.5785   -0.5755 C   0  0  2  0  0  0  0  0  0  0  0  0
    0.2234   -0.1535   -2.0269 C   0  0  0  0  0  0  0  0  0  0  0  0
   -0.4904   -0.5639   -2.9396 O   0  0  0  0  0  0  0  0  0  0  0  0
    0.2108   -2.0824   -0.4247 C   0  0  0  0  0  0  0  0  0  0  0  0
   -1.5766    0.7776   -0.4197 H   0  0  0  0  0  0  0  0  0  0  0  0
    0.7702   -0.0524    0.0527 H   0  0  0  0  0  0  0  0  0  0  0  0
   -0.5093   -2.6264   -1.0467 H   0  0  0  0  0  0  0  0  0  0  0  0
    1.2143   -2.4018   -0.7247 H   0  0  0  0  0  0  0  0  0  0  0  0
    0.0514   -2.3900    0.6145 H   0  0  0  0  0  0  0  0  0  0  0  0
    1.3036    0.7062   -2.1938 N   0  0  0  0  0  0  0  0  0  0  0  0
    1.7054    1.2145   -3.4789 C   0  0  2  0  0  0  0  0  0  0  0  0
    3.2177    1.3939   -3.4619 C   0  0  0  0  0  0  0  0  0  0  0  0
    3.8422    1.7288   -2.4575 O   0  0  0  0  0  0  0  0  0  0  0  0
    1.0059    2.5266   -3.7983 C   0  0  0  0  0  0  0  0  0  0  0  0
    1.8138    1.0242   -1.3721 H   0  0  0  0  0  0  0  0  0  0  0  0
    1.4357    0.4529   -4.2187 H   0  0  0  0  0  0  0  0  0  0  0  0
    1.2640    3.3020   -3.0678 H   0  0  0  0  0  0  0  0  0  0  0  0
    1.2909    2.8974   -4.7884 H   0  0  0  0  0  0  0  0  0  0  0  0
   -0.0822    2.4025   -3.7808 H   0  0  0  0  0  0  0  0  0  0  0  0
    3.7829    1.1780   -4.7109 N   0  0  0  0  0  0  0  0  0  0  0  0
    5.1970    1.3286   -4.9633 C   0  0  0  0  0  0  0  0  0  0  0  0
    3.1954    0.8643   -5.4778 H   0  0  0  0  0  0  0  0  0  0  0  0
    5.4009    2.3520   -5.3113 H   0  0  0  0  0  0  0  0  0  0  0  0
    5.7571    1.1384   -4.0360 H   0  0  0  0  0  0  0  0  0  0  0  0
    5.5102    0.6099   -5.7349 H   0  0  0  0  0  0  0  0  0  0  0  0
  1  3  1  0  0  0  0
  1  7  1  0  0  0  0
  1  2  2  0  0  0  0
 28 29  1  0  0  0  0
 29 37  1  0  0  0  0
 29 30  2  0  0  0  0
 18 19  1  0  0  0  0
 19 27  1  0  0  0  0
 19 20  2  0  0  0  0
  8  9  1  0  0  0  0
  9 17  1  0  0  0  0
  9 10  2  0  0  0  0
 28 31  1  0  0  0  0
 18 21  1  0  0  0  0
  8 11  1  0  0  0  0
 37 38  1  0  0  0  0
 27 28  1  0  0  0  0
 17 18  1  0  0  0  0
  7  8  1  0  0  0  0
  3  4  1  0  0  0  0
  3  5  1  0  0  0  0
  3  6  1  0  0  0  0
 31 34  1  0  0  0  0
 31 35  1  0  0  0  0
 31 36  1  0  0  0  0
 21 24  1  0  0  0  0
 21 25  1  0  0  0  0
 21 26  1  0  0  0  0
 11 14  1  0  0  0  0
 11 15  1  0  0  0  0
 11 16  1  0  0  0  0
 38 40  1  0  0  0  0
 38 41  1  0  0  0  0
 38 42  1  0  0  0  0
 28 33  1  0  0  0  0
 18 23  1  0  0  0  0
  8 13  1  0  0  0  0
 37 39  1  0  0  0  0
  7 12  1  0  0  0  0
 27 32  1  0  0  0  0
 17 22  1  0  0  0  0
M  END
$$$$

  -OEChem-05262214473D

 42 41  0     1  0  0  0  0  0999 V2000
   -5.7851   -0.9580    0.6237 C   0  0  0  0  0  0  0  0  0  0  0  0
   -6.2213    0.1296    0.2652 O   0  0  0  0  0  0  0  0  0  0  0  0
   -6.7088   -2.1270    0.7168 C   0  0  0  0  0  0  0  0  0  0  0  0
   -7.1713   -2.2193    1.7126 H   0  0  0  0  0  0  0  0  0  0  0  0
   -7.5511   -2.0547    0.0101 H   0  0  0  0  0  0  0  0  0  0  0  0
   -6.2485   -3.1083    0.5191 H   0  0  0  0  0  0  0  0  0  0  0  0
   -4.4733   -1.2411    0.9668 N   0  0  0  0  0  0  0  0  0  0  0  0
   -3.4203   -0.2603    0.9449 C   0  0  2  0  0  0  0  0  0  0  0  0
   -2.1242   -0.9699    0.5759 C   0  0  0  0  0  0  0  0  0  0  0  0
   -1.8694   -2.1225    0.9189 O   0  0  0  0  0  0  0  0  0  0  0  0
   -3.2916    0.4435    2.2868 C   0  0  0  0  0  0  0  0  0  0  0  0
   -4.2421   -2.1920    1.2489 H   0  0  0  0  0  0  0  0  0  0  0  0
   -3.6772    0.4622    0.1625 H   0  0  0  0  0  0  0  0  0  0  0  0
   -3.0345   -0.2644    3.0832 H   0  0  0  0  0  0  0  0  0  0  0  0
   -2.5093    1.2092    2.2599 H   0  0  0  0  0  0  0  0  0  0  0  0
   -4.2338    0.9283    2.5645 H   0  0  0  0  0  0  0  0  0  0  0  0
   -1.2626   -0.1515   -0.1463 N   0  0  0  0  0  0  0  0  0  0  0  0
    0.0431   -0.5785   -0.5755 C   0  0  2  0  0  0  0  0  0  0  0  0
    0.2234   -0.1535   -2.0269 C   0  0  0  0  0  0  0  0  0  0  0  0
   -0.6305   -0.3395   -2.8913 O   0  0  0  0  0  0  0  0  0  0  0  0
    0.2108   -2.0824   -0.4247 C   0  0  0  0  0  0  0  0  0  0  0  0
   -1.5766    0.7776   -0.4197 H   0  0  0  0  0  0  0  0  0  0  0  0
    0.7702   -0.0524    0.0527 H   0  0  0  0  0  0  0  0  0  0  0  0
   -0.5093   -2.6264   -1.0467 H   0  0  0  0  0  0  0  0  0  0  0  0
    1.2143   -2.4018   -0.7247 H   0  0  0  0  0  0  0  0  0  0  0  0
    0.0514   -2.3900    0.6145 H   0  0  0  0  0  0  0  0  0  0  0  0
    1.4689    0.4206   -2.2569 N   0  0  0  0  0  0  0  0  0  0  0  0
    1.8952    0.8654   -3.5576 C   0  0  2  0  0  0  0  0  0  0  0  0
    3.4023    0.6671   -3.6518 C   0  0  0  0  0  0  0  0  0  0  0  0
    4.1575    0.7983   -2.6907 O   0  0  0  0  0  0  0  0  0  0  0  0
    1.5226    2.3206   -3.7944 C   0  0  0  0  0  0  0  0  0  0  0  0
    2.0969    0.5708   -1.4697 H   0  0  0  0  0  0  0  0  0  0  0  0
    1.3953    0.2233   -4.2909 H   0  0  0  0  0  0  0  0  0  0  0  0
    2.0141    2.9792   -3.0691 H   0  0  0  0  0  0  0  0  0  0  0  0
    1.8222    2.6491   -4.7951 H   0  0  0  0  0  0  0  0  0  0  0  0
    0.4414    2.4669   -3.6969 H   0  0  0  0  0  0  0  0  0  0  0  0
    3.8097    0.3688   -4.9445 N   0  0  0  0  0  0  0  0  0  0  0  0
    5.1963    0.1776   -5.3005 C   0  0  0  0  0  0  0  0  0  0  0  0
    3.1117    0.2397   -5.6711 H   0  0  0  0  0  0  0  0  0  0  0  0
    5.6232    1.1326   -5.6407 H   0  0  0  0  0  0  0  0  0  0  0  0
    5.7539   -0.1811   -4.4227 H   0  0  0  0  0  0  0  0  0  0  0  0
    5.2682   -0.5648   -6.1090 H   0  0  0  0  0  0  0  0  0  0  0  0
  1  3  1  0  0  0  0
  1  7  1  0  0  0  0
  1  2  2  0  0  0  0
 28 29  1  0  0  0  0
 29 37  1  0  0  0  0
 29 30  2  0  0  0  0
 18 19  1  0  0  0  0
 19 27  1  0  0  0  0
 19 20  2  0  0  0  0
  8  9  1  0  0  0  0
  9 17  1  0  0  0  0
  9 10  2  0  0  0  0
 28 31  1  0  0  0  0
 18 21  1  0  0  0  0
  8 11  1  0  0  0  0
 37 38  1  0  0  0  0
 27 28  1  0  0  0  0
 17 18  1  0  0  0  0
  7  8  1  0  0  0  0
  3  4  1  0  0  0  0
  3  5  1  0  0  0  0
  3  6  1  0  0  0  0
 31 34  1  0  0  0  0
 31 35  1  0  0  0  0
 31 36  1  0  0  0  0
 21 24  1  0  0  0  0
 21 25  1  0  0  0  0
 21 26  1  0  0  0  0
 11 14  1  0  0  0  0
 11 15  1  0  0  0  0
 11 16  1  0  0  0  0
 38 40  1  0  0  0  0
 38 41  1  0  0  0  0
 38 42  1  0  0  0  0
 28 33  1  0  0  0  0
 18 23  1  0  0  0  0
  8 13  1  0  0  0  0
 37 39  1  0  0  0  0
  7 12  1  0  0  0  0
 27 32  1  0  0  0  0
 17 22  1  0  0  0  0
M  END
$$$$

  -OEChem-05262214473D

 42 41  0     1  0  0  0  0  0999 V2000
   -5.7851   -0.9580    0.6237 C   0  0  0  0  0  0  0  0  0  0  0  0
   -6.2213    0.1296    0.2652 O   0  0  0  0  0  0  0  0  0  0  0  0
   -6.7088   -2.1270    0.7168 C   0  0  0  0  0  0  0  0  0  0  0  0
   -7.1713   -2.2193    1.7126 H   0  0  0  0  0  0  0  0  0  0  0  0
   -7.5511   -2.0547    0.0101 H   0  0  0  0  0  0  0  0  0  0  0  0
   -6.2485   -3.1083    0.5191 H   0  0  0  0  0  0  0  0  0  0  0  0
   -4.4733   -1.2411    0.9668 N   0  0  0  0  0  0  0  0  0  0  0  0
   -3.4203   -0.2603    0.9449 C   0  0  2  0  0  0  0  0  0  0  0  0
   -2.1242   -0.9699    0.5759 C   0  0  0  0  0  0  0  0  0  0  0  0
   -1.8694   -2.1225    0.9189 O   0  0  0  0  0  0  0  0  0  0  0  0
   -3.2916    0.4435    2.2868 C   0  0  0  0  0  0  0  0  0  0  0  0
   -4.2421   -2.1920    1.2489 H   0  0  0  0  0  0  0  0  0  0  0  0
   -3.6772    0.4622    0.1625 H   0  0  0  0  0  0  0  0  0  0  0  0
   -3.0345   -0.2644    3.0832 H   0  0  0  0  0  0  0  0  0  0  0  0
   -2.5093    1.2092    2.2599 H   0  0  0  0  0  0  0  0  0  0  0  0
   -4.2338    0.9283    2.5645 H   0  0  0  0  0  0  0  0  0  0  0  0
   -1.2626   -0.1515   -0.1463 N   0  0  0  0  0  0  0  0  0  0  0  0
    0.0431   -0.5785   -0.5755 C   0  0  2  0  0  0  0  0  0  0  0  0
    0.2234   -0.1535   -2.0269 C   0  0  0  0  0  0  0  0  0  0  0  0
   -0.7070   -0.0897   -2.8277 O   0  0  0  0  0  0  0  0  0  0  0  0
    0.2108   -2.0824   -0.4247 C   0  0  0  0  0  0  0  0  0  0  0  0
   -1.5766    0.7776   -0.4197 H   0  0  0  0  0  0  0  0  0  0  0  0
    0.7702   -0.0524    0.0527 H   0  0  0  0  0  0  0  0  0  0  0  0
   -0.5093   -2.6264   -1.0467 H   0  0  0  0  0  0  0  0  0  0  0  0
    1.2143   -2.4018   -0.7247 H   0  0  0  0  0  0  0  0  0  0  0  0
    0.0514   -2.3900    0.6145 H   0  0  0  0  0  0  0  0  0  0  0  0
    1.5536    0.1059   -2.3385 N   0  0  0  0  0  0  0  0  0  0  0  0
    1.9869    0.4837   -3.6580 C   0  0  2  0  0  0  0  0  0  0  0  0
    3.3878   -0.0746   -3.8708 C   0  0  0  0  0  0  0  0  0  0  0  0
    4.2158   -0.1712   -2.9674 O   0  0  0  0  0  0  0  0  0  0  0  0
    1.9711    1.9941   -3.8343 C   0  0  0  0  0  0  0  0  0  0  0  0
    2.2515    0.0659   -1.5983 H   0  0  0  0  0  0  0  0  0  0  0  0
    1.2945    0.0136   -4.3649 H   0  0  0  0  0  0  0  0  0  0  0  0
    2.6588    2.4825   -3.1344 H   0  0  0  0  0  0  0  0  0  0  0  0
    2.2736    2.2784   -4.8476 H   0  0  0  0  0  0  0  0  0  0  0  0
    0.9692    2.3973   -3.6517 H   0  0  0  0  0  0  0  0  0  0  0  0
    3.6191   -0.4122   -5.1969 N   0  0  0  0  0  0  0  0  0  0  0  0
    4.8874   -0.9238   -5.6613 C   0  0  0  0  0  0  0  0  0  0  0  0
    2.8629   -0.3371   -5.8709 H   0  0  0  0  0  0  0  0  0  0  0  0
    5.5133   -0.0901   -6.0124 H   0  0  0  0  0  0  0  0  0  0  0  0
    5.3975   -1.4429   -4.8365 H   0  0  0  0  0  0  0  0  0  0  0  0
    4.7177   -1.6284   -6.4888 H   0  0  0  0  0  0  0  0  0  0  0  0
  1  3  1  0  0  0  0
  1  7  1  0  0  0  0
  1  2  2  0  0  0  0
 28 29  1  0  0  0  0
 29 37  1  0  0  0  0
 29 30  2  0  0  0  0
 18 19  1  0  0  0  0
 19 27  1  0  0  0  0
 19 20  2  0  0  0  0
  8  9  1  0  0  0  0
  9 17  1  0  0  0  0
  9 10  2  0  0  0  0
 28 31  1  0  0  0  0
 18 21  1  0  0  0  0
  8 11  1  0  0  0  0
 37 38  1  0  0  0  0
 27 28  1  0  0  0  0
 17 18  1  0  0  0  0
  7  8  1  0  0  0  0
  3  4  1  0  0  0  0
  3  5  1  0  0  0  0
  3  6  1  0  0  0  0
 31 34  1  0  0  0  0
 31 35  1  0  0  0  0
 31 36  1  0  0  0  0
 21 24  1  0  0  0  0
 21 25  1  0  0  0  0
 21 26  1  0  0  0  0
 11 14  1  0  0  0  0
 11 15  1  0  0  0  0
 11 16  1  0  0  0  0
 38 40  1  0  0  0  0
 38 41  1  0  0  0  0
 38 42  1  0  0  0  0
 28 33  1  0  0  0  0
 18 23  1  0  0  0  0
  8 13  1  0  0  0  0
 37 39  1  0  0  0  0
  7 12  1  0  0  0  0
 27 32  1  0  0  0  0
 17 22  1  0  0  0  0
M  END
$$$$

  -OEChem-05262214473D

 42 41  0     1  0  0  0  0  0999 V2000
   -5.7851   -0.9580    0.6237 C   0  0  0  0  0  0  0  0  0  0  0  0
   -6.2213    0.1296    0.2652 O   0  0  0  0  0  0  0  0  0  0  0  0
   -6.7088   -2.1270    0.7168 C   0  0  0  0  0  0  0  0  0  0  0  0
   -7.1713   -2.2193    1.7126 H   0  0  0  0  0  0  0  0  0  0  0  0
   -7.5511   -2.0547    0.0101 H   0  0  0  0  0  0  0  0  0  0  0  0
   -6.2485   -3.1083    0.5191 H   0  0  0  0  0  0  0  0  0  0  0  0
   -4.4733   -1.2411    0.9668 N   0  0  0  0  0  0  0  0  0  0  0  0
   -3.4203   -0.2603    0.9449 C   0  0  2  0  0  0  0  0  0  0  0  0
   -2.1242   -0.9699    0.5759 C   0  0  0  0  0  0  0  0  0  0  0  0
   -1.8694   -2.1225    0.9189 O   0  0  0  0  0  0  0  0  0  0  0  0
   -3.2916    0.4435    2.2868 C   0  0  0  0  0  0  0  0  0  0  0  0
   -4.2421   -2.1920    1.2489 H   0  0  0  0  0  0  0  0  0  0  0  0
   -3.6772    0.4622    0.1625 H   0  0  0  0  0  0  0  0  0  0  0  0
   -3.0345   -0.2644    3.0832 H   0  0  0  0  0  0  0  0  0  0  0  0
   -2.5093    1.2092    2.2599 H   0  0  0  0  0  0  0  0  0  0  0  0
   -4.2338    0.9283    2.5645 H   0  0  0  0  0  0  0  0  0  0  0  0
   -1.2626   -0.1515   -0.1463 N   0  0  0  0  0  0  0  0  0  0  0  0
    0.0431   -0.5785   -0.5755 C   0  0  2  0  0  0  0  0  0  0  0  0
    0.2234   -0.1535   -2.0269 C   0  0  0  0  0  0  0  0  0  0  0  0
   -0.7147    0.1685   -2.7530 O   0  0  0  0  0  0  0  0  0  0  0  0
    0.2108   -2.0824   -0.4247 C   0  0  0  0  0  0  0  0  0  0  0  0
   -1.5766    0.7776   -0.4197 H   0  0  0  0  0  0  0  0  0  0  0  0
    0.7702   -0.0524    0.0527 H   0  0  0  0  0  0  0  0  0  0  0  0
   -0.5093   -2.6264   -1.0467 H   0  0  0  0  0  0  0  0  0  0  0  0
    1.2143   -2.4018   -0.7247 H   0  0  0  0  0  0  0  0  0  0  0  0
    0.0514   -2.3900    0.6145 H   0  0  0  0  0  0  0  0  0  0  0  0
    1.5519   -0.2164   -2.4331 N   0  0  0  0  0  0  0  0  0  0  0  0
    1.9739    0.0954   -3.7732 C   0  0  2  0  0  0  0  0  0  0  0  0
    3.1749   -0.7808   -4.1040 C   0  0  0  0  0  0  0  0  0  0  0  0
    4.0130   -1.1134   -3.2685 O   0  0  0  0  0  0  0  0  0  0  0  0
    2.3209    1.5693   -3.9152 C   0  0  0  0  0  0  0  0  0  0  0  0
    2.2670   -0.4559   -1.7492 H   0  0  0  0  0  0  0  0  0  0  0  0
    1.1400   -0.1618   -4.4354 H   0  0  0  0  0  0  0  0  0  0  0  0
    3.1544    1.8458   -3.2593 H   0  0  0  0  0  0  0  0  0  0  0  0
    2.6144    1.8107   -4.9422 H   0  0  0  0  0  0  0  0  0  0  0  0
    1.4650    2.1986   -3.6483 H   0  0  0  0  0  0  0  0  0  0  0  0
    3.2242   -1.1120   -5.4509 N   0  0  0  0  0  0  0  0  0  0  0  0
    4.2914   -1.9004   -6.0213 C   0  0  0  0  0  0  0  0  0  0  0  0
    2.4659   -0.8268   -6.0636 H   0  0  0  0  0  0  0  0  0  0  0  0
    5.0788   -1.2326   -6.4009 H   0  0  0  0  0  0  0  0  0  0  0  0
    4.7121   -2.5612   -5.2491 H   0  0  0  0  0  0  0  0  0  0  0  0
    3.8962   -2.5083   -6.8485 H   0  0  0  0  0  0  0  0  0  0  0  0
  1  3  1  0  0  0  0
  1  7  1  0  0  0  0
  1  2  2  0  0  0  0
 28 29  1  0  0  0  0
 29 37  1  0  0  0  0
 29 30  2  0  0  0  0
 18 19  1  0  0  0  0
 19 27  1  0  0  0  0
 19 20  2  0  0  0  0
  8  9  1  0  0  0  0
  9 17  1  0  0  0  0
  9 10  2  0  0  0  0
 28 31  1  0  0  0  0
 18 21  1  0  0  0  0
  8 11  1  0  0  0  0
 37 38  1  0  0  0  0
 27 28  1  0  0  0  0
 17 18  1  0  0  0  0
  7  8  1  0  0  0  0
  3  4  1  0  0  0  0
  3  5  1  0  0  0  0
  3  6  1  0  0  0  0
 31 34  1  0  0  0  0
 31 35  1  0  0  0  0
 31 36  1  0  0  0  0
 21 24  1  0  0  0  0
 21 25  1  0  0  0  0
 21 26  1  0  0  0  0
 11 14  1  0  0  0  0
 11 15  1  0  0  0  0
 11 16  1  0  0  0  0
 38 40  1  0  0  0  0
 38 41  1  0  0  0  0
 38 42  1  0  0  0  0
 28 33  1  0  0  0  0
 18 23  1  0  0  0  0
  8 13  1  0  0  0  0
 37 39  1  0  0  0  0
  7 12  1  0  0  0  0
 27 32  1  0  0  0  0
 17 22  1  0  0  0  0
M  END
$$$$

  -OEChem-05262214473D

 42 41  0     1  0  0  0  0  0999 V2000
   -5.7851   -0.9580    0.6237 C   0  0  0  0  0  0  0  0  0  0  0  0
   -6.2213    0.1296    0.2652 O   0  0  0  0  0  0  0  0  0  0  0  0
   -6.7088   -2.1270    0.7168 C   0  0  0  0  0  0  0  0  0  0  0  0
   -7.1713   -2.2193    1.7126 H   0  0  0  0  0  0  0  0  0  0  0  0
   -7.5511   -2.0547    0.0101 H   0  0  0  0  0  0  0  0  0  0  0  0
   -6.2485   -3.1083    0.5191 H   0  0  0  0  0  0  0  0  0  0  0  0
   -4.4733   -1.2411    0.9668 N   0  0  0  0  0  0  0  0  0  0  0  0
   -3.4203   -0.2603    0.9449 C   0  0  2  0  0  0  0  0  0  0  0  0
   -2.1242   -0.9699    0.5759 C   0  0  0  0  0  0  0  0  0  0  0  0
   -1.8694   -2.1225    0.9189 O   0  0  0  0  0  0  0  0  0  0  0  0
   -3.2916    0.4435    2.2868 C   0  0  0  0  0  0  0  0  0  0  0  0
   -4.2421   -2.1920    1.2489 H   0  0  0  0  0  0  0  0  0  0  0  0
   -3.6772    0.4622    0.1625 H   0  0  0  0  0  0  0  0  0  0  0  0
   -3.0345   -0.2644    3.0832 H   0  0  0  0  0  0  0  0  0  0  0  0
   -2.5093    1.2092    2.2599 H   0  0  0  0  0  0  0  0  0  0  0  0
   -4.2338    0.9283    2.5645 H   0  0  0  0  0  0  0  0  0  0  0  0
   -1.2626   -0.1515   -0.1463 N   0  0  0  0  0  0  0  0  0  0  0  0
    0.0431   -0.5785   -0.5755 C   0  0  2  0  0  0  0  0  0  0  0  0
    0.3761    0.1541   -1.8685 C   0  0  0  0  0  0  0  0  0  0  0  0
   -0.4008    0.9328   -2.4175 O   0  0  0  0  0  0  0  0  0  0  0  0
    0.0945   -2.0851   -0.7757 C   0  0  0  0  0  0  0  0  0  0  0  0
   -1.5766    0.7776   -0.4197 H   0  0  0  0  0  0  0  0  0  0  0  0
    0.7476   -0.2772    0.2074 H   0  0  0  0  0  0  0  0  0  0  0  0
   -0.6047   -2.4058   -1.5565 H   0  0  0  0  0  0  0  0  0  0  0  0
    1.0961   -2.4117   -1.0745 H   0  0  0  0  0  0  0  0  0  0  0  0
   -0.1742   -2.6103    0.1472 H   0  0  0  0  0  0  0  0  0  0  0  0
    1.6274   -0.1948   -2.3646 N   0  0  0  0  0  0  0  0  0  0  0  0
    2.1528    0.3306   -3.5972 C   0  0  2  0  0  0  0  0  0  0  0  0
    3.0291   -0.7423   -4.2302 C   0  0  0  0  0  0  0  0  0  0  0  0
    3.7053   -1.5303   -3.5723 O   0  0  0  0  0  0  0  0  0  0  0  0
    2.9427    1.6086   -3.3619 C   0  0  0  0  0  0  0  0  0  0  0  0
    2.2188   -0.8188   -1.8192 H   0  0  0  0  0  0  0  0  0  0  0  0
    1.2940    0.5316   -4.2469 H   0  0  0  0  0  0  0  0  0  0  0  0
    3.8073    1.4269   -2.7130 H   0  0  0  0  0  0  0  0  0  0  0  0
    3.3176    2.0225   -4.3038 H   0  0  0  0  0  0  0  0  0  0  0  0
    2.3191    2.3690   -2.8795 H   0  0  0  0  0  0  0  0  0  0  0  0
    3.0007   -0.6883   -5.6167 N   0  0  0  0  0  0  0  0  0  0  0  0
    3.7821   -1.5744   -6.4475 C   0  0  0  0  0  0  0  0  0  0  0  0
    2.3811   -0.0291   -6.0785 H   0  0  0  0  0  0  0  0  0  0  0  0
    4.7454   -1.0999   -6.6860 H   0  0  0  0  0  0  0  0  0  0  0  0
    3.9610   -2.5176   -5.9105 H   0  0  0  0  0  0  0  0  0  0  0  0
    3.2347   -1.7810   -7.3790 H   0  0  0  0  0  0  0  0  0  0  0  0
  1  3  1  0  0  0  0
  1  7  1  0  0  0  0
  1  2  2  0  0  0  0
 28 29  1  0  0  0  0
 29 37  1  0  0  0  0
 29 30  2  0  0  0  0
 18 19  1  0  0  0  0
 19 27  1  0  0  0  0
 19 20  2  0  0  0  0
  8  9  1  0  0  0  0
  9 17  1  0  0  0  0
  9 10  2  0  0  0  0
 28 31  1  0  0  0  0
 18 21  1  0  0  0  0
  8 11  1  0  0  0  0
 37 38  1  0  0  0  0
 27 28  1  0  0  0  0
 17 18  1  0  0  0  0
  7  8  1  0  0  0  0
  3  4  1  0  0  0  0
  3  5  1  0  0  0  0
  3  6  1  0  0  0  0
 31 34  1  0  0  0  0
 31 35  1  0  0  0  0
 31 36  1  0  0  0  0
 21 24  1  0  0  0  0
 21 25  1  0  0  0  0
 21 26  1  0  0  0  0
 11 14  1  0  0  0  0
 11 15  1  0  0  0  0
 11 16  1  0  0  0  0
 38 40  1  0  0  0  0
 38 41  1  0  0  0  0
 38 42  1  0  0  0  0
 28 33  1  0  0  0  0
 18 23  1  0  0  0  0
  8 13  1  0  0  0  0
 37 39  1  0  0  0  0
  7 12  1  0  0  0  0
 27 32  1  0  0  0  0
 17 22  1  0  0  0  0
M  END
$$$$

  -OEChem-05262214473D

 42 41  0     1  0  0  0  0  0999 V2000
   -5.7851   -0.9580    0.6237 C   0  0  0  0  0  0  0  0  0  0  0  0
   -6.2213    0.1296    0.2652 O   0  0  0  0  0  0  0  0  0  0  0  0
   -6.7088   -2.1270    0.7168 C   0  0  0  0  0  0  0  0  0  0  0  0
   -7.1713   -2.2193    1.7126 H   0  0  0  0  0  0  0  0  0  0  0  0
   -7.5511   -2.0547    0.0101 H   0  0  0  0  0  0  0  0  0  0  0  0
   -6.2485   -3.1083    0.5191 H   0  0  0  0  0  0  0  0  0  0  0  0
   -4.4733   -1.2411    0.9668 N   0  0  0  0  0  0  0  0  0  0  0  0
   -3.4203   -0.2603    0.9449 C   0  0  2  0  0  0  0  0  0  0  0  0
   -2.1242   -0.9699    0.5759 C   0  0  0  0  0  0  0  0  0  0  0  0
   -1.8694   -2.1225    0.9189 O   0  0  0  0  0  0  0  0  0  0  0  0
   -3.2916    0.4435    2.2868 C   0  0  0  0  0  0  0  0  0  0  0  0
   -4.2421   -2.1920    1.2489 H   0  0  0  0  0  0  0  0  0  0  0  0
   -3.6772    0.4622    0.1625 H   0  0  0  0  0  0  0  0  0  0  0  0
   -3.0345   -0.2644    3.0832 H   0  0  0  0  0  0  0  0  0  0  0  0
   -2.5093    1.2092    2.2599 H   0  0  0  0  0  0  0  0  0  0  0  0
   -4.2338    0.9283    2.5645 H   0  0  0  0  0  0  0  0  0  0  0  0
   -1.2626   -0.1515   -0.1463 N   0  0  0  0  0  0  0  0  0  0  0  0
    0.0431   -0.5785   -0.5755 C   0  0  2  0  0  0  0  0  0  0  0  0
    0.3761    0.1541   -1.8685 C   0  0  0  0  0  0  0  0  0  0  0  0
   -0.2665    1.1190   -2.2774 O   0  0  0  0  0  0  0  0  0  0  0  0
    0.0945   -2.0851   -0.7757 C   0  0  0  0  0  0  0  0  0  0  0  0
   -1.5766    0.7776   -0.4197 H   0  0  0  0  0  0  0  0  0  0  0  0
    0.7476   -0.2772    0.2074 H   0  0  0  0  0  0  0  0  0  0  0  0
   -0.6047   -2.4058   -1.5565 H   0  0  0  0  0  0  0  0  0  0  0  0
    1.0961   -2.4117   -1.0745 H   0  0  0  0  0  0  0  0  0  0  0  0
   -0.1742   -2.6103    0.1472 H   0  0  0  0  0  0  0  0  0  0  0  0
    1.4503   -0.4212   -2.5385 N   0  0  0  0  0  0  0  0  0  0  0  0
    1.9303    0.0638   -3.8057 C   0  0  2  0  0  0  0  0  0  0  0  0
    2.4637   -1.1258   -4.5930 C   0  0  0  0  0  0  0  0  0  0  0  0
    3.0197   -2.0857   -4.0635 O   0  0  0  0  0  0  0  0  0  0  0  0
    3.0078    1.1210   -3.6214 C   0  0  0  0  0  0  0  0  0  0  0  0
    1.9476   -1.1952   -2.1023 H   0  0  0  0  0  0  0  0  0  0  0  0
    1.0674    0.4910   -4.3282 H   0  0  0  0  0  0  0  0  0  0  0  0
    3.8804    0.7114   -3.0996 H   0  0  0  0  0  0  0  0  0  0  0  0
    3.3516    1.5094   -4.5857 H   0  0  0  0  0  0  0  0  0  0  0  0
    2.6312    1.9622   -3.0295 H   0  0  0  0  0  0  0  0  0  0  0  0
    2.2845   -0.9693   -5.9603 N   0  0  0  0  0  0  0  0  0  0  0  0
    2.7444   -1.9425   -6.9233 C   0  0  0  0  0  0  0  0  0  0  0  0
    1.7776   -0.1609   -6.3086 H   0  0  0  0  0  0  0  0  0  0  0  0
    3.7543   -1.6719   -7.2653 H   0  0  0  0  0  0  0  0  0  0  0  0
    2.7704   -2.9376   -6.4550 H   0  0  0  0  0  0  0  0  0  0  0  0
    2.0586   -1.9598   -7.7832 H   0  0  0  0  0  0  0  0  0  0  0  0
  1  3  1  0  0  0  0
  1  7  1  0  0  0  0
  1  2  2  0  0  0  0
 28 29  1  0  0  0  0
 29 37  1  0  0  0  0
 29 30  2  0  0  0  0
 18 19  1  0  0  0  0
 19 27  1  0  0  0  0
 19 20  2  0  0  0  0
  8  9  1  0  0  0  0
  9 17  1  0  0  0  0
  9 10  2  0  0  0  0
 28 31  1  0  0  0  0
 18 21  1  0  0  0  0
  8 11  1  0  0  0  0
 37 38  1  0  0  0  0
 27 28  1  0  0  0  0
 17 18  1  0  0  0  0
  7  8  1  0  0  0  0
  3  4  1  0  0  0  0
  3  5  1  0  0  0  0
  3  6  1  0  0  0  0
 31 34  1  0  0  0  0
 31 35  1  0  0  0  0
 31 36  1  0  0  0  0
 21 24  1  0  0  0  0
 21 25  1  0  0  0  0
 21 26  1  0  0  0  0
 11 14  1  0  0  0  0
 11 15  1  0  0  0  0
 11 16  1  0  0  0  0
 38 40  1  0  0  0  0
 38 41  1  0  0  0  0
 38 42  1  0  0  0  0
 28 33  1  0  0  0  0
 18 23  1  0  0  0  0
  8 13  1  0  0  0  0
 37 39  1  0  0  0  0
  7 12  1  0  0  0  0
 27 32  1  0  0  0  0
 17 22  1  0  0  0  0
M  END
$$$$

  -OEChem-05262214473D

 42 41  0     1  0  0  0  0  0999 V2000
   -5.7851   -0.9580    0.6237 C   0  0  0  0  0  0  0  0  0  0  0  0
   -6.2213    0.1296    0.2652 O   0  0  0  0  0  0  0  0  0  0  0  0
   -6.7088   -2.1270    0.7168 C   0  0  0  0  0  0  0  0  0  0  0  0
   -7.1713   -2.2193    1.7126 H   0  0  0  0  0  0  0  0  0  0  0  0
   -7.5511   -2.0547    0.0101 H   0  0  0  0  0  0  0  0  0  0  0  0
   -6.2485   -3.1083    0.5191 H   0  0  0  0  0  0  0  0  0  0  0  0
   -4.4733   -1.2411    0.9668 N   0  0  0  0  0  0  0  0  0  0  0  0
   -3.4203   -0.2603    0.9449 C   0  0  2  0  0  0  0  0  0  0  0  0
   -2.1242   -0.9699    0.5759 C   0  0  0  0  0  0  0  0  0  0  0  0
   -1.8694   -2.1225    0.9189 O   0  0  0  0  0  0  0  0  0  0  0  0
   -3.2916    0.4435    2.2868 C   0  0  0  0  0  0  0  0  0  0  0  0
   -4.2421   -2.1920    1.2489 H   0  0  0  0  0  0  0  0  0  0  0  0
   -3.6772    0.4622    0.1625 H   0  0  0  0  0  0  0  0  0  0  0  0
   -3.0345   -0.2644    3.0832 H   0  0  0  0  0  0  0  0  0  0  0  0
   -2.5093    1.2092    2.2599 H   0  0  0  0  0  0  0  0  0  0  0  0
   -4.2338    0.9283    2.5645 H   0  0  0  0  0  0  0  0  0  0  0  0
   -1.2626   -0.1515   -0.1463 N   0  0  0  0  0  0  0  0  0  0  0  0
    0.0431   -0.5785   -0.5755 C   0  0  2  0  0  0  0  0  0  0  0  0
    0.3761    0.1541   -1.8685 C   0  0  0  0  0  0  0  0  0  0  0  0
   -0.0785    1.2615   -2.1483 O   0  0  0  0  0  0  0  0  0  0  0  0
    0.0945   -2.0851   -0.7757 C   0  0  0  0  0  0  0  0  0  0  0  0
   -1.5766    0.7776   -0.4197 H   0  0  0  0  0  0  0  0  0  0  0  0
    0.7476   -0.2772    0.2074 H   0  0  0  0  0  0  0  0  0  0  0  0
   -0.6047   -2.4058   -1.5565 H   0  0  0  0  0  0  0  0  0  0  0  0
    1.0961   -2.4117   -1.0745 H   0  0  0  0  0  0  0  0  0  0  0  0
   -0.1742   -2.6103    0.1472 H   0  0  0  0  0  0  0  0  0  0  0  0
    1.2078   -0.5911   -2.6972 N   0  0  0  0  0  0  0  0  0  0  0  0
    1.6307   -0.1332   -3.9944 C   0  0  2  0  0  0  0  0  0  0  0  0
    1.7882   -1.3514   -4.8948 C   0  0  0  0  0  0  0  0  0  0  0  0
    2.1744   -2.4438   -4.4840 O   0  0  0  0  0  0  0  0  0  0  0  0
    2.9312    0.6503   -3.9078 C   0  0  0  0  0  0  0  0  0  0  0  0
    1.5676   -1.4830   -2.3632 H   0  0  0  0  0  0  0  0  0  0  0  0
    0.8295    0.5061   -4.3809 H   0  0  0  0  0  0  0  0  0  0  0  0
    3.7457    0.0261   -3.5225 H   0  0  0  0  0  0  0  0  0  0  0  0
    3.2366    1.0223   -4.8913 H   0  0  0  0  0  0  0  0  0  0  0  0
    2.8247    1.5092   -3.2364 H   0  0  0  0  0  0  0  0  0  0  0  0
    1.4881   -1.0640   -6.2190 N   0  0  0  0  0  0  0  0  0  0  0  0
    1.6020   -2.0432   -7.2745 C   0  0  0  0  0  0  0  0  0  0  0  0
    1.1371   -0.1426   -6.4631 H   0  0  0  0  0  0  0  0  0  0  0  0
    2.5991   -1.9738   -7.7338 H   0  0  0  0  0  0  0  0  0  0  0  0
    1.4603   -3.0508   -6.8566 H   0  0  0  0  0  0  0  0  0  0  0  0
    0.8330   -1.8511   -8.0372 H   0  0  0  0  0  0  0  0  0  0  0  0
  1  3  1  0  0  0  0
  1  7  1  0  0  0  0
  1  2  2  0  0  0  0
 28 29  1  0  0  0  0
 29 37  1  0  0  0  0
 29 30  2  0  0  0  0
 18 19  1  0  0  0  0
 19 27  1  0  0  0  0
 19 20  2  0  0  0  0
  8  9  1  0  0  0  0
  9 17  1  0  0  0  0
  9 10  2  0  0  0  0
 28 31  1  0  0  0  0
 18 21  1  0  0  0  0
  8 11  1  0  0  0  0
 37 38  1  0  0  0  0
 27 28  1  0  0  0  0
 17 18  1  0  0  0  0
  7  8  1  0  0  0  0
  3  4  1  0  0  0  0
  3  5  1  0  0  0  0
  3  6  1  0  0  0  0
 31 34  1  0  0  0  0
 31 35  1  0  0  0  0
 31 36  1  0  0  0  0
 21 24  1  0  0  0  0
 21 25  1  0  0  0  0
 21 26  1  0  0  0  0
 11 14  1  0  0  0  0
 11 15  1  0  0  0  0
 11 16  1  0  0  0  0
 38 40  1  0  0  0  0
 38 41  1  0  0  0  0
 38 42  1  0  0  0  0
 28 33  1  0  0  0  0
 18 23  1  0  0  0  0
  8 13  1  0  0  0  0
 37 39  1  0  0  0  0
  7 12  1  0  0  0  0
 27 32  1  0  0  0  0
 17 22  1  0  0  0  0
M  END
$$$$

  -OEChem-05262214473D

 42 41  0     1  0  0  0  0  0999 V2000
   -5.7851   -0.9580    0.6237 C   0  0  0  0  0  0  0  0  0  0  0  0
   -6.2213    0.1296    0.2652 O   0  0  0  0  0  0  0  0  0  0  0  0
   -6.7088   -2.1270    0.7168 C   0  0  0  0  0  0  0  0  0  0  0  0
   -7.1713   -2.2193    1.7126 H   0  0  0  0  0  0  0  0  0  0  0  0
   -7.5511   -2.0547    0.0101 H   0  0  0  0  0  0  0  0  0  0  0  0
   -6.2485   -3.1083    0.5191 H   0  0  0  0  0  0  0  0  0  0  0  0
   -4.4733   -1.2411    0.9668 N   0  0  0  0  0  0  0  0  0  0  0  0
   -3.4203   -0.2603    0.9449 C   0  0  2  0  0  0  0  0  0  0  0  0
   -2.1242   -0.9699    0.5759 C   0  0  0  0  0  0  0  0  0  0  0  0
   -1.8694   -2.1225    0.9189 O   0  0  0  0  0  0  0  0  0  0  0  0
   -3.2916    0.4435    2.2868 C   0  0  0  0  0  0  0  0  0  0  0  0
   -4.2421   -2.1920    1.2489 H   0  0  0  0  0  0  0  0  0  0  0  0
   -3.6772    0.4622    0.1625 H   0  0  0  0  0  0  0  0  0  0  0  0
   -3.0345   -0.2644    3.0832 H   0  0  0  0  0  0  0  0  0  0  0  0
   -2.5093    1.2092    2.2599 H   0  0  0  0  0  0  0  0  0  0  0  0
   -4.2338    0.9283    2.5645 H   0  0  0  0  0  0  0  0  0  0  0  0
   -1.2626   -0.1515   -0.1463 N   0  0  0  0  0  0  0  0  0  0  0  0
    0.0431   -0.5785   -0.5755 C   0  0  2  0  0  0  0  0  0  0  0  0
    0.3761    0.1541   -1.8685 C   0  0  0  0  0  0  0  0  0  0  0  0
    0.1505    1.3504   -2.0389 O   0  0  0  0  0  0  0  0  0  0  0  0
    0.0945   -2.0851   -0.7757 C   0  0  0  0  0  0  0  0  0  0  0  0
   -1.5766    0.7776   -0.4197 H   0  0  0  0  0  0  0  0  0  0  0  0
    0.7476   -0.2772    0.2074 H   0  0  0  0  0  0  0  0  0  0  0  0
   -0.6047   -2.4058   -1.5565 H   0  0  0  0  0  0  0  0  0  0  0  0
    1.0961   -2.4117   -1.0745 H   0  0  0  0  0  0  0  0  0  0  0  0
   -0.1742   -2.6103    0.1472 H   0  0  0  0  0  0  0  0  0  0  0  0
    0.9164   -0.6930   -2.8299 N   0  0  0  0  0  0  0  0  0  0  0  0
    1.2746   -0.2471   -4.1506 C   0  0  2  0  0  0  0  0  0  0  0  0
    1.0485   -1.4039   -5.1150 C   0  0  0  0  0  0  0  0  0  0  0  0
    1.2268   -2.5801   -4.8052 O   0  0  0  0  0  0  0  0  0  0  0  0
    2.7181    0.2288   -4.2015 C   0  0  0  0  0  0  0  0  0  0  0  0
    1.1049   -1.6629   -2.5843 H   0  0  0  0  0  0  0  0  0  0  0  0
    0.5965    0.5760   -4.4013 H   0  0  0  0  0  0  0  0  0  0  0  0
    3.4123   -0.5823   -3.9531 H   0  0  0  0  0  0  0  0  0  0  0  0
    2.9805    0.5943   -5.1998 H   0  0  0  0  0  0  0  0  0  0  0  0
    2.8862    1.0409   -3.4859 H   0  0  0  0  0  0  0  0  0  0  0  0
    0.6659   -0.9658   -6.3751 N   0  0  0  0  0  0  0  0  0  0  0  0
    0.4326   -1.8696   -7.4772 C   0  0  0  0  0  0  0  0  0  0  0  0
    0.5031    0.0246   -6.5316 H   0  0  0  0  0  0  0  0  0  0  0  0
    1.3586   -1.9852   -8.0596 H   0  0  0  0  0  0  0  0  0  0  0  0
    0.1199   -2.8496   -7.0877 H   0  0  0  0  0  0  0  0  0  0  0  0
   -0.3587   -1.4625   -8.1239 H   0  0  0  0  0  0  0  0  0  0  0  0
  1  3  1  0  0  0  0
  1  7  1  0  0  0  0
  1  2  2  0  0  0  0
 28 29  1  0  0  0  0
 29 37  1  0  0  0  0
 29 30  2  0  0  0  0
 18 19  1  0  0  0  0
 19 27  1  0  0  0  0
 19 20  2  0  0  0  0
  8  9  1  0  0  0  0
  9 17  1  0  0  0  0
  9 10  2  0  0  0  0
 28 31  1  0  0  0  0
 18 21  1  0  0  0  0
  8 11  1  0  0  0  0
 37 38  1  0  0  0  0
 27 28  1  0  0  0  0
 17 18  1  0  0  0  0
  7  8  1  0  0  0  0
  3  4  1  0  0  0  0
  3  5  1  0  0  0  0
  3  6  1  0  0  0  0
 31 34  1  0  0  0  0
 31 35  1  0  0  0  0
 31 36  1  0  0  0  0
 21 24  1  0  0  0  0
 21 25  1  0  0  0  0
 21 26  1  0  0  0  0
 11 14  1  0  0  0  0
 11 15  1  0  0  0  0
 11 16  1  0  0  0  0
 38 40  1  0  0  0  0
 38 41  1  0  0  0  0
 38 42  1  0  0  0  0
 28 33  1  0  0  0  0
 18 23  1  0  0  0  0
  8 13  1  0  0  0  0
 37 39  1  0  0  0  0
  7 12  1  0  0  0  0
 27 32  1  0  0  0  0
 17 22  1  0  0  0  0
M  END
$$$$

  -OEChem-05262214473D

 42 41  0     1  0  0  0  0  0999 V2000
   -5.7851   -0.9580    0.6237 C   0  0  0  0  0  0  0  0  0  0  0  0
   -6.2213    0.1296    0.2652 O   0  0  0  0  0  0  0  0  0  0  0  0
   -6.7088   -2.1270    0.7168 C   0  0  0  0  0  0  0  0  0  0  0  0
   -7.1713   -2.2193    1.7126 H   0  0  0  0  0  0  0  0  0  0  0  0
   -7.5511   -2.0547    0.0101 H   0  0  0  0  0  0  0  0  0  0  0  0
   -6.2485   -3.1083    0.5191 H   0  0  0  0  0  0  0  0  0  0  0  0
   -4.4733   -1.2411    0.9668 N   0  0  0  0  0  0  0  0  0  0  0  0
   -3.4203   -0.2603    0.9449 C   0  0  2  0  0  0  0  0  0  0  0  0
   -2.1242   -0.9699    0.5759 C   0  0  0  0  0  0  0  0  0  0  0  0
   -1.8694   -2.1225    0.9189 O   0  0  0  0  0  0  0  0  0  0  0  0
   -3.2916    0.4435    2.2868 C   0  0  0  0  0  0  0  0  0  0  0  0
   -4.2421   -2.1920    1.2489 H   0  0  0  0  0  0  0  0  0  0  0  0
   -3.6772    0.4622    0.1625 H   0  0  0  0  0  0  0  0  0  0  0  0
   -3.0345   -0.2644    3.0832 H   0  0  0  0  0  0  0  0  0  0  0  0
   -2.5093    1.2092    2.2599 H   0  0  0  0  0  0  0  0  0  0  0  0
   -4.2338    0.9283    2.5645 H   0  0  0  0  0  0  0  0  0  0  0  0
   -1.2626   -0.1515   -0.1463 N   0  0  0  0  0  0  0  0  0  0  0  0
    0.0431   -0.5785   -0.5755 C   0  0  2  0  0  0  0  0  0  0  0  0
    0.3761    0.1541   -1.8685 C   0  0  0  0  0  0  0  0  0  0  0  0
    0.4048    1.3799   -1.9567 O   0  0  0  0  0  0  0  0  0  0  0  0
    0.0945   -2.0851   -0.7757 C   0  0  0  0  0  0  0  0  0  0  0  0
   -1.5766    0.7776   -0.4197 H   0  0  0  0  0  0  0  0  0  0  0  0
    0.7476   -0.2772    0.2074 H   0  0  0  0  0  0  0  0  0  0  0  0
   -0.6047   -2.4058   -1.5565 H   0  0  0  0  0  0  0  0  0  0  0  0
    1.0961   -2.4117   -1.0745 H   0  0  0  0  0  0  0  0  0  0  0  0
   -0.1742   -2.6103    0.1472 H   0  0  0  0  0  0  0  0  0  0  0  0
    0.5961   -0.7198   -2.9276 N   0  0  0  0  0  0  0  0  0  0  0  0
    0.8862   -0.2699   -4.2636 C   0  0  2  0  0  0  0  0  0  0  0  0
    0.2951   -1.2796   -5.2386 C   0  0  0  0  0  0  0  0  0  0  0  0
    0.2415   -2.4853   -5.0052 O   0  0  0  0  0  0  0  0  0  0  0  0
    2.3831   -0.1150   -4.4825 C   0  0  0  0  0  0  0  0  0  0  0  0
    0.5909   -1.7224   -2.7503 H   0  0  0  0  0  0  0  0  0  0  0  0
    0.3843    0.6958   -4.3880 H   0  0  0  0  0  0  0  0  0  0  0  0
    2.9030   -1.0724   -4.3619 H   0  0  0  0  0  0  0  0  0  0  0  0
    2.6006    0.2546   -5.4900 H   0  0  0  0  0  0  0  0  0  0  0  0
    2.8117    0.5891   -3.7611 H   0  0  0  0  0  0  0  0  0  0  0  0
   -0.1261   -0.6814   -6.4179 N   0  0  0  0  0  0  0  0  0  0  0  0
   -0.6839   -1.4334   -7.5176 C   0  0  0  0  0  0  0  0  0  0  0  0
   -0.0810    0.3292   -6.5094 H   0  0  0  0  0  0  0  0  0  0  0  0
    0.1174   -1.7051   -8.2205 H   0  0  0  0  0  0  0  0  0  0  0  0
   -1.1594   -2.3476   -7.1327 H   0  0  0  0  0  0  0  0  0  0  0  0
   -1.4351   -0.8204   -8.0372 H   0  0  0  0  0  0  0  0  0  0  0  0
  1  3  1  0  0  0  0
  1  7  1  0  0  0  0
  1  2  2  0  0  0  0
 28 29  1  0  0  0  0
 29 37  1  0  0  0  0
 29 30  2  0  0  0  0
 18 19  1  0  0  0  0
 19 27  1  0  0  0  0
 19 20  2  0  0  0  0
  8  9  1  0  0  0  0
  9 17  1  0  0  0  0
  9 10  2  0  0  0  0
 28 31  1  0  0  0  0
 18 21  1  0  0  0  0
  8 11  1  0  0  0  0
 37 38  1  0  0  0  0
 27 28  1  0  0  0  0
 17 18  1  0  0  0  0
  7  8  1  0  0  0  0
  3  4  1  0  0  0  0
  3  5  1  0  0  0  0
  3  6  1  0  0  0  0
 31 34  1  0  0  0  0
 31 35  1  0  0  0  0
 31 36  1  0  0  0  0
 21 24  1  0  0  0  0
 21 25  1  0  0  0  0
 21 26  1  0  0  0  0
 11 14  1  0  0  0  0
 11 15  1  0  0  0  0
 11 16  1  0  0  0  0
 38 40  1  0  0  0  0
 38 41  1  0  0  0  0
 38 42  1  0  0  0  0
 28 33  1  0  0  0  0
 18 23  1  0  0  0  0
  8 13  1  0  0  0  0
 37 39  1  0  0  0  0
  7 12  1  0  0  0  0
 27 32  1  0  0  0  0
 17 22  1  0  0  0  0
M  END
$$$$

  -OEChem-05262214473D

 42 41  0     1  0  0  0  0  0999 V2000
   -5.7851   -0.9580    0.6237 C   0  0  0  0  0  0  0  0  0  0  0  0
   -6.2213    0.1296    0.2652 O   0  0  0  0  0  0  0  0  0  0  0  0
   -6.7088   -2.1270    0.7168 C   0  0  0  0  0  0  0  0  0  0  0  0
   -7.1713   -2.2193    1.7126 H   0  0  0  0  0  0  0  0  0  0  0  0
   -7.5511   -2.0547    0.0101 H   0  0  0  0  0  0  0  0  0  0  0  0
   -6.2485   -3.1083    0.5191 H   0  0  0  0  0  0  0  0  0  0  0  0
   -4.4733   -1.2411    0.9668 N   0  0  0  0  0  0  0  0  0  0  0  0
   -3.4203   -0.2603    0.9449 C   0  0  2  0  0  0  0  0  0  0  0  0
   -2.1242   -0.9699    0.5759 C   0  0  0  0  0  0  0  0  0  0  0  0
   -1.8694   -2.1225    0.9189 O   0  0  0  0  0  0  0  0  0  0  0  0
   -3.2916    0.4435    2.2868 C   0  0  0  0  0  0  0  0  0  0  0  0
   -4.2421   -2.1920    1.2489 H   0  0  0  0  0  0  0  0  0  0  0  0
   -3.6772    0.4622    0.1625 H   0  0  0  0  0  0  0  0  0  0  0  0
   -3.0345   -0.2644    3.0832 H   0  0  0  0  0  0  0  0  0  0  0  0
   -2.5093    1.2092    2.2599 H   0  0  0  0  0  0  0  0  0  0  0  0
   -4.2338    0.9283    2.5645 H   0  0  0  0  0  0  0  0  0  0  0  0
   -1.2626   -0.1515   -0.1463 N   0  0  0  0  0  0  0  0  0  0  0  0
    0.0431   -0.5785   -0.5755 C   0  0  2  0  0  0  0  0  0  0  0  0
    0.3761    0.1541   -1.8685 C   0  0  0  0  0  0  0  0  0  0  0  0
    0.6672    1.3478   -1.9074 O   0  0  0  0  0  0  0  0  0  0  0  0
    0.0945   -2.0851   -0.7757 C   0  0  0  0  0  0  0  0  0  0  0  0
   -1.5766    0.7776   -0.4197 H   0  0  0  0  0  0  0  0  0  0  0  0
    0.7476   -0.2772    0.2074 H   0  0  0  0  0  0  0  0  0  0  0  0
   -0.6047   -2.4058   -1.5565 H   0  0  0  0  0  0  0  0  0  0  0  0
    1.0961   -2.4117   -1.0745 H   0  0  0  0  0  0  0  0  0  0  0  0
   -0.1742   -2.6103    0.1472 H   0  0  0  0  0  0  0  0  0  0  0  0
    0.2686   -0.6698   -2.9836 N   0  0  0  0  0  0  0  0  0  0  0  0
    0.4919   -0.2002   -4.3256 C   0  0  2  0  0  0  0  0  0  0  0  0
   -0.4207   -0.9870   -5.2571 C   0  0  0  0  0  0  0  0  0  0  0  0
   -0.7143   -2.1660   -5.0704 O   0  0  0  0  0  0  0  0  0  0  0  0
    1.9490   -0.3575   -4.7317 C   0  0  0  0  0  0  0  0  0  0  0  0
    0.0606   -1.6575   -2.8501 H   0  0  0  0  0  0  0  0  0  0  0  0
    0.2072    0.8575   -4.3420 H   0  0  0  0  0  0  0  0  0  0  0  0
    2.2525   -1.4107   -4.7211 H   0  0  0  0  0  0  0  0  0  0  0  0
    2.1229    0.0265   -5.7423 H   0  0  0  0  0  0  0  0  0  0  0  0
    2.6061    0.1847   -4.0431 H   0  0  0  0  0  0  0  0  0  0  0  0
   -0.8341   -0.2302   -6.3446 N   0  0  0  0  0  0  0  0  0  0  0  0
   -1.6717   -0.7645   -7.3929 C   0  0  0  0  0  0  0  0  0  0  0  0
   -0.5755    0.7506   -6.3980 H   0  0  0  0  0  0  0  0  0  0  0  0
   -1.0401   -1.1527   -8.2056 H   0  0  0  0  0  0  0  0  0  0  0  0
   -2.2903   -1.5791   -6.9885 H   0  0  0  0  0  0  0  0  0  0  0  0
   -2.3229    0.0315   -7.7832 H   0  0  0  0  0  0  0  0  0  0  0  0
  1  3  1  0  0  0  0
  1  7  1  0  0  0  0
  1  2  2  0  0  0  0
 28 29  1  0  0  0  0
 29 37  1  0  0  0  0
 29 30  2  0  0  0  0
 18 19  1  0  0  0  0
 19 27  1  0  0  0  0
 19 20  2  0  0  0  0
  8  9  1  0  0  0  0
  9 17  1  0  0  0  0
  9 10  2  0  0  0  0
 28 31  1  0  0  0  0
 18 21  1  0  0  0  0
  8 11  1  0  0  0  0
 37 38  1  0  0  0  0
 27 28  1  0  0  0  0
 17 18  1  0  0  0  0
  7  8  1  0  0  0  0
  3  4  1  0  0  0  0
  3  5  1  0  0  0  0
  3  6  1  0  0  0  0
 31 34  1  0  0  0  0
 31 35  1  0  0  0  0
 31 36  1  0  0  0  0
 21 24  1  0  0  0  0
 21 25  1  0  0  0  0
 21 26  1  0  0  0  0
 11 14  1  0  0  0  0
 11 15  1  0  0  0  0
 11 16  1  0  0  0  0
 38 40  1  0  0  0  0
 38 41  1  0  0  0  0
 38 42  1  0  0  0  0
 28 33  1  0  0  0  0
 18 23  1  0  0  0  0
  8 13  1  0  0  0  0
 37 39  1  0  0  0  0
  7 12  1  0  0  0  0
 27 32  1  0  0  0  0
 17 22  1  0  0  0  0
M  END
$$$$

  -OEChem-05262214473D

 42 41  0     1  0  0  0  0  0999 V2000
   -5.7851   -0.9580    0.6237 C   0  0  0  0  0  0  0  0  0  0  0  0
   -6.2213    0.1296    0.2652 O   0  0  0  0  0  0  0  0  0  0  0  0
   -6.7088   -2.1270    0.7168 C   0  0  0  0  0  0  0  0  0  0  0  0
   -7.1713   -2.2193    1.7126 H   0  0  0  0  0  0  0  0  0  0  0  0
   -7.5511   -2.0547    0.0101 H   0  0  0  0  0  0  0  0  0  0  0  0
   -6.2485   -3.1083    0.5191 H   0  0  0  0  0  0  0  0  0  0  0  0
   -4.4733   -1.2411    0.9668 N   0  0  0  0  0  0  0  0  0  0  0  0
   -3.4203   -0.2603    0.9449 C   0  0  2  0  0  0  0  0  0  0  0  0
   -2.1242   -0.9699    0.5759 C   0  0  0  0  0  0  0  0  0  0  0  0
   -1.8694   -2.1225    0.9189 O   0  0  0  0  0  0  0  0  0  0  0  0
   -3.2916    0.4435    2.2868 C   0  0  0  0  0  0  0  0  0  0  0  0
   -4.2421   -2.1920    1.2489 H   0  0  0  0  0  0  0  0  0  0  0  0
   -3.6772    0.4622    0.1625 H   0  0  0  0  0  0  0  0  0  0  0  0
   -3.0345   -0.2644    3.0832 H   0  0  0  0  0  0  0  0  0  0  0  0
   -2.5093    1.2092    2.2599 H   0  0  0  0  0  0  0  0  0  0  0  0
   -4.2338    0.9283    2.5645 H   0  0  0  0  0  0  0  0  0  0  0  0
   -1.2626   -0.1515   -0.1463 N   0  0  0  0  0  0  0  0  0  0  0  0
    0.0431   -0.5785   -0.5755 C   0  0  2  0  0  0  0  0  0  0  0  0
    0.3761    0.1541   -1.8685 C   0  0  0  0  0  0  0  0  0  0  0  0
    0.9197    1.2563   -1.8942 O   0  0  0  0  0  0  0  0  0  0  0  0
    0.0945   -2.0851   -0.7757 C   0  0  0  0  0  0  0  0  0  0  0  0
   -1.5766    0.7776   -0.4197 H   0  0  0  0  0  0  0  0  0  0  0  0
    0.7476   -0.2772    0.2074 H   0  0  0  0  0  0  0  0  0  0  0  0
   -0.6047   -2.4058   -1.5565 H   0  0  0  0  0  0  0  0  0  0  0  0
    1.0961   -2.4117   -1.0745 H   0  0  0  0  0  0  0  0  0  0  0  0
   -0.1742   -2.6103    0.1472 H   0  0  0  0  0  0  0  0  0  0  0  0
   -0.0436   -0.5464   -2.9941 N   0  0  0  0  0  0  0  0  0  0  0  0
    0.1186   -0.0428   -4.3325 C   0  0  2  0  0  0  0  0  0  0  0  0
   -1.0501   -0.5460   -5.1693 C   0  0  0  0  0  0  0  0  0  0  0  0
   -1.5754   -1.6438   -4.9963 O   0  0  0  0  0  0  0  0  0  0  0  0
    1.4454   -0.4822   -4.9320 C   0  0  0  0  0  0  0  0  0  0  0  0
   -0.4497   -1.4727   -2.8768 H   0  0  0  0  0  0  0  0  0  0  0  0
    0.0775    1.0499   -4.2664 H   0  0  0  0  0  0  0  0  0  0  0  0
    1.5050   -1.5742   -5.0062 H   0  0  0  0  0  0  0  0  0  0  0  0
    1.5799   -0.0747   -5.9394 H   0  0  0  0  0  0  0  0  0  0  0  0
    2.2836   -0.1449   -4.3129 H   0  0  0  0  0  0  0  0  0  0  0  0
   -1.4096    0.3569   -6.1601 N   0  0  0  0  0  0  0  0  0  0  0  0
   -2.4632    0.0917   -7.1117 C   0  0  0  0  0  0  0  0  0  0  0  0
   -0.9467    1.2600   -6.2050 H   0  0  0  0  0  0  0  0  0  0  0  0
   -2.0349   -0.3656   -8.0158 H   0  0  0  0  0  0  0  0  0  0  0  0
   -3.1960   -0.5964   -6.6649 H   0  0  0  0  0  0  0  0  0  0  0  0
   -2.9617    1.0351   -7.3790 H   0  0  0  0  0  0  0  0  0  0  0  0
  1  3  1  0  0  0  0
  1  7  1  0  0  0  0
  1  2  2  0  0  0  0
 28 29  1  0  0  0  0
 29 37  1  0  0  0  0
 29 30  2  0  0  0  0
 18 19  1  0  0  0  0
 19 27  1  0  0  0  0
 19 20  2  0  0  0  0
  8  9  1  0  0  0  0
  9 17  1  0  0  0  0
  9 10  2  0  0  0  0
 28 31  1  0  0  0  0
 18 21  1  0  0  0  0
  8 11  1  0  0  0  0
 37 38  1  0  0  0  0
 27 28  1  0  0  0  0
 17 18  1  0  0  0  0
  7  8  1  0  0  0  0
  3  4  1  0  0  0  0
  3  5  1  0  0  0  0
  3  6  1  0  0  0  0
 31 34  1  0  0  0  0
 31 35  1  0  0  0  0
 31 36  1  0  0  0  0
 21 24  1  0  0  0  0
 21 25  1  0  0  0  0
 21 26  1  0  0  0  0
 11 14  1  0  0  0  0
 11 15  1  0  0  0  0
 11 16  1  0  0  0  0
 38 40  1  0  0  0  0
 38 41  1  0  0  0  0
 38 42  1  0  0  0  0
 28 33  1  0  0  0  0
 18 23  1  0  0  0  0
  8 13  1  0  0  0  0
 37 39  1  0  0  0  0
  7 12  1  0  0  0  0
 27 32  1  0  0  0  0
 17 22  1  0  0  0  0
M  END
$$$$

  -OEChem-05262214473D

 42 41  0     1  0  0  0  0  0999 V2000
   -5.7851   -0.9580    0.6237 C   0  0  0  0  0  0  0  0  0  0  0  0
   -6.2213    0.1296    0.2652 O   0  0  0  0  0  0  0  0  0  0  0  0
   -6.7088   -2.1270    0.7168 C   0  0  0  0  0  0  0  0  0  0  0  0
   -7.1713   -2.2193    1.7126 H   0  0  0  0  0  0  0  0  0  0  0  0
   -7.5511   -2.0547    0.0101 H   0  0  0  0  0  0  0  0  0  0  0  0
   -6.2485   -3.1083    0.5191 H   0  0  0  0  0  0  0  0  0  0  0  0
   -4.4733   -1.2411    0.9668 N   0  0  0  0  0  0  0  0  0  0  0  0
   -3.4203   -0.2603    0.9449 C   0  0  2  0  0  0  0  0  0  0  0  0
   -2.1242   -0.9699    0.5759 C   0  0  0  0  0  0  0  0  0  0  0  0
   -1.8694   -2.1225    0.9189 O   0  0  0  0  0  0  0  0  0  0  0  0
   -3.2916    0.4435    2.2868 C   0  0  0  0  0  0  0  0  0  0  0  0
   -4.2421   -2.1920    1.2489 H   0  0  0  0  0  0  0  0  0  0  0  0
   -3.6772    0.4622    0.1625 H   0  0  0  0  0  0  0  0  0  0  0  0
   -3.0345   -0.2644    3.0832 H   0  0  0  0  0  0  0  0  0  0  0  0
   -2.5093    1.2092    2.2599 H   0  0  0  0  0  0  0  0  0  0  0  0
   -4.2338    0.9283    2.5645 H   0  0  0  0  0  0  0  0  0  0  0  0
   -1.2626   -0.1515   -0.1463 N   0  0  0  0  0  0  0  0  0  0  0  0
    0.0431   -0.5785   -0.5755 C   0  0  2  0  0  0  0  0  0  0  0  0
    0.3761    0.1541   -1.8685 C   0  0  0  0  0  0  0  0  0  0  0  0
    1.1452    1.1118   -1.9180 O   0  0  0  0  0  0  0  0  0  0  0  0
    0.0945   -2.0851   -0.7757 C   0  0  0  0  0  0  0  0  0  0  0  0
   -1.5766    0.7776   -0.4197 H   0  0  0  0  0  0  0  0  0  0  0  0
    0.7476   -0.2772    0.2074 H   0  0  0  0  0  0  0  0  0  0  0  0
   -0.6047   -2.4058   -1.5565 H   0  0  0  0  0  0  0  0  0  0  0  0
    1.0961   -2.4117   -1.0745 H   0  0  0  0  0  0  0  0  0  0  0  0
   -0.1742   -2.6103    0.1472 H   0  0  0  0  0  0  0  0  0  0  0  0
   -0.3195   -0.3580   -2.9584 N   0  0  0  0  0  0  0  0  0  0  0  0
   -0.2082    0.1917   -4.2838 C   0  0  2  0  0  0  0  0  0  0  0  0
   -1.5503    0.0133   -4.9812 C   0  0  0  0  0  0  0  0  0  0  0  0
   -2.2832   -0.9544   -4.7879 O   0  0  0  0  0  0  0  0  0  0  0  0
    0.9065   -0.4807   -5.0699 C   0  0  0  0  0  0  0  0  0  0  0  0
   -0.9054   -1.1805   -2.8286 H   0  0  0  0  0  0  0  0  0  0  0  0
    0.0039    1.2600   -4.1663 H   0  0  0  0  0  0  0  0  0  0  0  0
    0.7116   -1.5518   -5.1978 H   0  0  0  0  0  0  0  0  0  0  0  0
    1.0087   -0.0420   -6.0680 H   0  0  0  0  0  0  0  0  0  0  0  0
    1.8661   -0.3771   -4.5519 H   0  0  0  0  0  0  0  0  0  0  0  0
   -1.8135    1.0402   -5.8770 N   0  0  0  0  0  0  0  0  0  0  0  0
   -3.0046    1.0767   -6.6930 C   0  0  0  0  0  0  0  0  0  0  0  0
   -1.1693    1.8226   -5.9435 H   0  0  0  0  0  0  0  0  0  0  0  0
   -2.7991    0.6025   -7.6641 H   0  0  0  0  0  0  0  0  0  0  0  0
   -3.8145    0.5335   -6.1840 H   0  0  0  0  0  0  0  0  0  0  0  0
   -3.3079    2.1220   -6.8524 H   0  0  0  0  0  0  0  0  0  0  0  0
  1  3  1  0  0  0  0
  1  7  1  0  0  0  0
  1  2  2  0  0  0  0
 28 29  1  0  0  0  0
 29 37  1  0  0  0  0
 29 30  2  0  0  0  0
 18 19  1  0  0  0  0
 19 27  1  0  0  0  0
 19 20  2  0  0  0  0
  8  9  1  0  0  0  0
  9 17  1  0  0  0  0
  9 10  2  0  0  0  0
 28 31  1  0  0  0  0
 18 21  1  0  0  0  0
  8 11  1  0  0  0  0
 37 38  1  0  0  0  0
 27 28  1  0  0  0  0
 17 18  1  0  0  0  0
  7  8  1  0  0  0  0
  3  4  1  0  0  0  0
  3  5  1  0  0  0  0
  3  6  1  0  0  0  0
 31 34  1  0  0  0  0
 31 35  1  0  0  0  0
 31 36  1  0  0  0  0
 21 24  1  0  0  0  0
 21 25  1  0  0  0  0
 21 26  1  0  0  0  0
 11 14  1  0  0  0  0
 11 15  1  0  0  0  0
 11 16  1  0  0  0  0
 38 40  1  0  0  0  0
 38 41  1  0  0  0  0
 38 42  1  0  0  0  0
 28 33  1  0  0  0  0
 18 23  1  0  0  0  0
  8 13  1  0  0  0  0
 37 39  1  0  0  0  0
  7 12  1  0  0  0  0
 27 32  1  0  0  0  0
 17 22  1  0  0  0  0
M  END
$$$$

  -OEChem-05262214473D

 42 41  0     1  0  0  0  0  0999 V2000
   -5.7851   -0.9580    0.6237 C   0  0  0  0  0  0  0  0  0  0  0  0
   -6.2213    0.1296    0.2652 O   0  0  0  0  0  0  0  0  0  0  0  0
   -6.7088   -2.1270    0.7168 C   0  0  0  0  0  0  0  0  0  0  0  0
   -7.1713   -2.2193    1.7126 H   0  0  0  0  0  0  0  0  0  0  0  0
   -7.5511   -2.0547    0.0101 H   0  0  0  0  0  0  0  0  0  0  0  0
   -6.2485   -3.1083    0.5191 H   0  0  0  0  0  0  0  0  0  0  0  0
   -4.4733   -1.2411    0.9668 N   0  0  0  0  0  0  0  0  0  0  0  0
   -3.4203   -0.2603    0.9449 C   0  0  2  0  0  0  0  0  0  0  0  0
   -2.1242   -0.9699    0.5759 C   0  0  0  0  0  0  0  0  0  0  0  0
   -1.8694   -2.1225    0.9189 O   0  0  0  0  0  0  0  0  0  0  0  0
   -3.2916    0.4435    2.2868 C   0  0  0  0  0  0  0  0  0  0  0  0
   -4.2421   -2.1920    1.2489 H   0  0  0  0  0  0  0  0  0  0  0  0
   -3.6772    0.4622    0.1625 H   0  0  0  0  0  0  0  0  0  0  0  0
   -3.0345   -0.2644    3.0832 H   0  0  0  0  0  0  0  0  0  0  0  0
   -2.5093    1.2092    2.2599 H   0  0  0  0  0  0  0  0  0  0  0  0
   -4.2338    0.9283    2.5645 H   0  0  0  0  0  0  0  0  0  0  0  0
   -1.2626   -0.1515   -0.1463 N   0  0  0  0  0  0  0  0  0  0  0  0
    0.0431   -0.5785   -0.5755 C   0  0  2  0  0  0  0  0  0  0  0  0
    0.3761    0.1541   -1.8685 C   0  0  0  0  0  0  0  0  0  0  0  0
    1.3283    0.9239   -1.9773 O   0  0  0  0  0  0  0  0  0  0  0  0
    0.0945   -2.0851   -0.7757 C   0  0  0  0  0  0  0  0  0  0  0  0
   -1.5766    0.7776   -0.4197 H   0  0  0  0  0  0  0  0  0  0  0  0
    0.7476   -0.2772    0.2074 H   0  0  0  0  0  0  0  0  0  0  0  0
   -0.6047   -2.4058   -1.5565 H   0  0  0  0  0  0  0  0  0  0  0  0
    1.0961   -2.4117   -1.0745 H   0  0  0  0  0  0  0  0  0  0  0  0
   -0.1742   -2.6103    0.1472 H   0  0  0  0  0  0  0  0  0  0  0  0
   -0.5401   -0.1174   -2.8789 N   0  0  0  0  0  0  0  0  0  0  0  0
   -0.4662    0.4873   -4.1828 C   0  0  2  0  0  0  0  0  0  0  0  0
   -1.8871    0.6528   -4.7056 C   0  0  0  0  0  0  0  0  0  0  0  0
   -2.7895   -0.1447   -4.4596 O   0  0  0  0  0  0  0  0  0  0  0  0
    0.3692   -0.3531   -5.1360 C   0  0  0  0  0  0  0  0  0  0  0  0
   -1.2753   -0.8009   -2.7087 H   0  0  0  0  0  0  0  0  0  0  0  0
   -0.0086    1.4735   -4.0486 H   0  0  0  0  0  0  0  0  0  0  0  0
   -0.0737   -1.3449   -5.2828 H   0  0  0  0  0  0  0  0  0  0  0  0
    0.4481    0.1225   -6.1191 H   0  0  0  0  0  0  0  0  0  0  0  0
    1.3820   -0.4961   -4.7440 H   0  0  0  0  0  0  0  0  0  0  0  0
   -2.0183    1.7728   -5.5146 N   0  0  0  0  0  0  0  0  0  0  0  0
   -3.2591    2.1234   -6.1655 C   0  0  0  0  0  0  0  0  0  0  0  0
   -1.2281    2.4003   -5.6314 H   0  0  0  0  0  0  0  0  0  0  0  0
   -3.2809    1.6857   -7.1744 H   0  0  0  0  0  0  0  0  0  0  0  0
   -4.1038    1.7336   -5.5785 H   0  0  0  0  0  0  0  0  0  0  0  0
   -3.3379    3.2181   -6.2391 H   0  0  0  0  0  0  0  0  0  0  0  0
  1  3  1  0  0  0  0
  1  7  1  0  0  0  0
  1  2  2  0  0  0  0
 28 29  1  0  0  0  0
 29 37  1  0  0  0  0
 29 30  2  0  0  0  0
 18 19  1  0  0  0  0
 19 27  1  0  0  0  0
 19 20  2  0  0  0  0
  8  9  1  0  0  0  0
  9 17  1  0  0  0  0
  9 10  2  0  0  0  0
 28 31  1  0  0  0  0
 18 21  1  0  0  0  0
  8 11  1  0  0  0  0
 37 38  1  0  0  0  0
 27 28  1  0  0  0  0
 17 18  1  0  0  0  0
  7  8  1  0  0  0  0
  3  4  1  0  0  0  0
  3  5  1  0  0  0  0
  3  6  1  0  0  0  0
 31 34  1  0  0  0  0
 31 35  1  0  0  0  0
 31 36  1  0  0  0  0
 21 24  1  0  0  0  0
 21 25  1  0  0  0  0
 21 26  1  0  0  0  0
 11 14  1  0  0  0  0
 11 15  1  0  0  0  0
 11 16  1  0  0  0  0
 38 40  1  0  0  0  0
 38 41  1  0  0  0  0
 38 42  1  0  0  0  0
 28 33  1  0  0  0  0
 18 23  1  0  0  0  0
  8 13  1  0  0  0  0
 37 39  1  0  0  0  0
  7 12  1  0  0  0  0
 27 32  1  0  0  0  0
 17 22  1  0  0  0  0
M  END
$$$$

  -OEChem-05262214473D

 42 41  0     1  0  0  0  0  0999 V2000
   -5.7851   -0.9580    0.6237 C   0  0  0  0  0  0  0  0  0  0  0  0
   -6.2213    0.1296    0.2652 O   0  0  0  0  0  0  0  0  0  0  0  0
   -6.7088   -2.1270    0.7168 C   0  0  0  0  0  0  0  0  0  0  0  0
   -7.1713   -2.2193    1.7126 H   0  0  0  0  0  0  0  0  0  0  0  0
   -7.5511   -2.0547    0.0101 H   0  0  0  0  0  0  0  0  0  0  0  0
   -6.2485   -3.1083    0.5191 H   0  0  0  0  0  0  0  0  0  0  0  0
   -4.4733   -1.2411    0.9668 N   0  0  0  0  0  0  0  0  0  0  0  0
   -3.4203   -0.2603    0.9449 C   0  0  2  0  0  0  0  0  0  0  0  0
   -2.1242   -0.9699    0.5759 C   0  0  0  0  0  0  0  0  0  0  0  0
   -1.8694   -2.1225    0.9189 O   0  0  0  0  0  0  0  0  0  0  0  0
   -3.2916    0.4435    2.2868 C   0  0  0  0  0  0  0  0  0  0  0  0
   -4.2421   -2.1920    1.2489 H   0  0  0  0  0  0  0  0  0  0  0  0
   -3.6772    0.4622    0.1625 H   0  0  0  0  0  0  0  0  0  0  0  0
   -3.0345   -0.2644    3.0832 H   0  0  0  0  0  0  0  0  0  0  0  0
   -2.5093    1.2092    2.2599 H   0  0  0  0  0  0  0  0  0  0  0  0
   -4.2338    0.9283    2.5645 H   0  0  0  0  0  0  0  0  0  0  0  0
   -1.2626   -0.1515   -0.1463 N   0  0  0  0  0  0  0  0  0  0  0  0
    0.0431   -0.5785   -0.5755 C   0  0  2  0  0  0  0  0  0  0  0  0
    0.3761    0.1541   -1.8685 C   0  0  0  0  0  0  0  0  0  0  0  0
    1.4564    0.7056   -2.0680 O   0  0  0  0  0  0  0  0  0  0  0  0
    0.0945   -2.0851   -0.7757 C   0  0  0  0  0  0  0  0  0  0  0  0
   -1.5766    0.7776   -0.4197 H   0  0  0  0  0  0  0  0  0  0  0  0
    0.7476   -0.2772    0.2074 H   0  0  0  0  0  0  0  0  0  0  0  0
   -0.6047   -2.4058   -1.5565 H   0  0  0  0  0  0  0  0  0  0  0  0
    1.0961   -2.4117   -1.0745 H   0  0  0  0  0  0  0  0  0  0  0  0
   -0.1742   -2.6103    0.1472 H   0  0  0  0  0  0  0  0  0  0  0  0
   -0.6904    0.1590   -2.7610 N   0  0  0  0  0  0  0  0  0  0  0  0
   -0.6380    0.8238   -4.0364 C   0  0  2  0  0  0  0  0  0  0  0  0
   -2.0375    1.3290   -4.3613 C   0  0  0  0  0  0  0  0  0  0  0  0
   -3.0598    0.7300   -4.0335 O   0  0  0  0  0  0  0  0  0  0  0  0
   -0.1300   -0.1080   -5.1256 C   0  0  0  0  0  0  0  0  0  0  0  0
   -1.5343   -0.3597   -2.5255 H   0  0  0  0  0  0  0  0  0  0  0  0
    0.0409    1.6758   -3.9212 H   0  0  0  0  0  0  0  0  0  0  0  0
   -0.7973   -0.9678   -5.2554 H   0  0  0  0  0  0  0  0  0  0  0  0
   -0.0636    0.4074   -6.0895 H   0  0  0  0  0  0  0  0  0  0  0  0
    0.8643   -0.4938   -4.8760 H   0  0  0  0  0  0  0  0  0  0  0  0
   -2.0100    2.5050   -5.0976 N   0  0  0  0  0  0  0  0  0  0  0  0
   -3.2091    3.1605   -5.5650 C   0  0  0  0  0  0  0  0  0  0  0  0
   -1.1191    2.9534   -5.2899 H   0  0  0  0  0  0  0  0  0  0  0  0
   -3.4472    2.8101   -6.5802 H   0  0  0  0  0  0  0  0  0  0  0  0
   -4.0441    2.9221   -4.8898 H   0  0  0  0  0  0  0  0  0  0  0  0
   -3.0496    4.2487   -5.5809 H   0  0  0  0  0  0  0  0  0  0  0  0
  1  3  1  0  0  0  0
  1  7  1  0  0  0  0
  1  2  2  0  0  0  0
 28 29  1  0  0  0  0
 29 37  1  0  0  0  0
 29 30  2  0  0  0  0
 18 19  1  0  0  0  0
 19 27  1  0  0  0  0
 19 20  2  0  0  0  0
  8  9  1  0  0  0  0
  9 17  1  0  0  0  0
  9 10  2  0  0  0  0
 28 31  1  0  0  0  0
 18 21  1  0  0  0  0
  8 11  1  0  0  0  0
 37 38  1  0  0  0  0
 27 28  1  0  0  0  0
 17 18  1  0  0  0  0
  7  8  1  0  0  0  0
  3  4  1  0  0  0  0
  3  5  1  0  0  0  0
  3  6  1  0  0  0  0
 31 34  1  0  0  0  0
 31 35  1  0  0  0  0
 31 36  1  0  0  0  0
 21 24  1  0  0  0  0
 21 25  1  0  0  0  0
 21 26  1  0  0  0  0
 11 14  1  0  0  0  0
 11 15  1  0  0  0  0
 11 16  1  0  0  0  0
 38 40  1  0  0  0  0
 38 41  1  0  0  0  0
 38 42  1  0  0  0  0
 28 33  1  0  0  0  0
 18 23  1  0  0  0  0
  8 13  1  0  0  0  0
 37 39  1  0  0  0  0
  7 12  1  0  0  0  0
 27 32  1  0  0  0  0
 17 22  1  0  0  0  0
M  END
$$$$

  -OEChem-05262214473D

 42 41  0     1  0  0  0  0  0999 V2000
   -5.7851   -0.9580    0.6237 C   0  0  0  0  0  0  0  0  0  0  0  0
   -6.2213    0.1296    0.2652 O   0  0  0  0  0  0  0  0  0  0  0  0
   -6.7088   -2.1270    0.7168 C   0  0  0  0  0  0  0  0  0  0  0  0
   -7.1713   -2.2193    1.7126 H   0  0  0  0  0  0  0  0  0  0  0  0
   -7.5511   -2.0547    0.0101 H   0  0  0  0  0  0  0  0  0  0  0  0
   -6.2485   -3.1083    0.5191 H   0  0  0  0  0  0  0  0  0  0  0  0
   -4.4733   -1.2411    0.9668 N   0  0  0  0  0  0  0  0  0  0  0  0
   -3.4203   -0.2603    0.9449 C   0  0  2  0  0  0  0  0  0  0  0  0
   -2.1242   -0.9699    0.5759 C   0  0  0  0  0  0  0  0  0  0  0  0
   -1.8694   -2.1225    0.9189 O   0  0  0  0  0  0  0  0  0  0  0  0
   -3.2916    0.4435    2.2868 C   0  0  0  0  0  0  0  0  0  0  0  0
   -4.2421   -2.1920    1.2489 H   0  0  0  0  0  0  0  0  0  0  0  0
   -3.6772    0.4622    0.1625 H   0  0  0  0  0  0  0  0  0  0  0  0
   -3.0345   -0.2644    3.0832 H   0  0  0  0  0  0  0  0  0  0  0  0
   -2.5093    1.2092    2.2599 H   0  0  0  0  0  0  0  0  0  0  0  0
   -4.2338    0.9283    2.5645 H   0  0  0  0  0  0  0  0  0  0  0  0
   -1.2626   -0.1515   -0.1463 N   0  0  0  0  0  0  0  0  0  0  0  0
    0.0431   -0.5785   -0.5755 C   0  0  2  0  0  0  0  0  0  0  0  0
    0.3761    0.1541   -1.8685 C   0  0  0  0  0  0  0  0  0  0  0  0
    1.5210    0.4717   -2.1839 O   0  0  0  0  0  0  0  0  0  0  0  0
    0.0945   -2.0851   -0.7757 C   0  0  0  0  0  0  0  0  0  0  0  0
   -1.5766    0.7776   -0.4197 H   0  0  0  0  0  0  0  0  0  0  0  0
    0.7476   -0.2772    0.2074 H   0  0  0  0  0  0  0  0  0  0  0  0
   -0.6047   -2.4058   -1.5565 H   0  0  0  0  0  0  0  0  0  0  0  0
    1.0961   -2.4117   -1.0745 H   0  0  0  0  0  0  0  0  0  0  0  0
   -0.1742   -2.6103    0.1472 H   0  0  0  0  0  0  0  0  0  0  0  0
   -0.7602    0.4523   -2.6128 N   0  0  0  0  0  0  0  0  0  0  0  0
   -0.7117    1.1783   -3.8545 C   0  0  2  0  0  0  0  0  0  0  0  0
   -1.9914    1.9956   -3.9717 C   0  0  0  0  0  0  0  0  0  0  0  0
   -3.0755    1.6102   -3.5389 O   0  0  0  0  0  0  0  0  0  0  0  0
   -0.5570    0.2379   -5.0396 C   0  0  0  0  0  0  0  0  0  0  0  0
   -1.6647    0.1130   -2.2912 H   0  0  0  0  0  0  0  0  0  0  0  0
    0.1490    1.8531   -3.7929 H   0  0  0  0  0  0  0  0  0  0  0  0
   -1.4101   -0.4460   -5.1176 H   0  0  0  0  0  0  0  0  0  0  0  0
   -0.4916    0.7934   -5.9810 H   0  0  0  0  0  0  0  0  0  0  0  0
    0.3484   -0.3703   -4.9389 H   0  0  0  0  0  0  0  0  0  0  0  0
   -1.7892    3.1869   -4.6545 N   0  0  0  0  0  0  0  0  0  0  0  0
   -2.8583    4.1173   -4.9326 C   0  0  0  0  0  0  0  0  0  0  0  0
   -0.8498    3.4445   -4.9423 H   0  0  0  0  0  0  0  0  0  0  0  0
   -3.2868    3.8991   -5.9219 H   0  0  0  0  0  0  0  0  0  0  0  0
   -3.6396    4.0181   -4.1647 H   0  0  0  0  0  0  0  0  0  0  0  0
   -2.4627    5.1437   -4.9227 H   0  0  0  0  0  0  0  0  0  0  0  0
  1  3  1  0  0  0  0
  1  7  1  0  0  0  0
  1  2  2  0  0  0  0
 28 29  1  0  0  0  0
 29 37  1  0  0  0  0
 29 30  2  0  0  0  0
 18 19  1  0  0  0  0
 19 27  1  0  0  0  0
 19 20  2  0  0  0  0
  8  9  1  0  0  0  0
  9 17  1  0  0  0  0
  9 10  2  0  0  0  0
 28 31  1  0  0  0  0
 18 21  1  0  0  0  0
  8 11  1  0  0  0  0
 37 38  1  0  0  0  0
 27 28  1  0  0  0  0
 17 18  1  0  0  0  0
  7  8  1  0  0  0  0
  3  4  1  0  0  0  0
  3  5  1  0  0  0  0
  3  6  1  0  0  0  0
 31 34  1  0  0  0  0
 31 35  1  0  0  0  0
 31 36  1  0  0  0  0
 21 24  1  0  0  0  0
 21 25  1  0  0  0  0
 21 26  1  0  0  0  0
 11 14  1  0  0  0  0
 11 15  1  0  0  0  0
 11 16  1  0  0  0  0
 38 40  1  0  0  0  0
 38 41  1  0  0  0  0
 38 42  1  0  0  0  0
 28 33  1  0  0  0  0
 18 23  1  0  0  0  0
  8 13  1  0  0  0  0
 37 39  1  0  0  0  0
  7 12  1  0  0  0  0
 27 32  1  0  0  0  0
 17 22  1  0  0  0  0
M  END
$$$$

  -OEChem-05262214473D

 42 41  0     1  0  0  0  0  0999 V2000
   -5.7851   -0.9580    0.6237 C   0  0  0  0  0  0  0  0  0  0  0  0
   -6.2213    0.1296    0.2652 O   0  0  0  0  0  0  0  0  0  0  0  0
   -6.7088   -2.1270    0.7168 C   0  0  0  0  0  0  0  0  0  0  0  0
   -7.1713   -2.2193    1.7126 H   0  0  0  0  0  0  0  0  0  0  0  0
   -7.5511   -2.0547    0.0101 H   0  0  0  0  0  0  0  0  0  0  0  0
   -6.2485   -3.1083    0.5191 H   0  0  0  0  0  0  0  0  0  0  0  0
   -4.4733   -1.2411    0.9668 N   0  0  0  0  0  0  0  0  0  0  0  0
   -3.4203   -0.2603    0.9449 C   0  0  2  0  0  0  0  0  0  0  0  0
   -2.1242   -0.9699    0.5759 C   0  0  0  0  0  0  0  0  0  0  0  0
   -1.8694   -2.1225    0.9189 O   0  0  0  0  0  0  0  0  0  0  0  0
   -3.2916    0.4435    2.2868 C   0  0  0  0  0  0  0  0  0  0  0  0
   -4.2421   -2.1920    1.2489 H   0  0  0  0  0  0  0  0  0  0  0  0
   -3.6772    0.4622    0.1625 H   0  0  0  0  0  0  0  0  0  0  0  0
   -3.0345   -0.2644    3.0832 H   0  0  0  0  0  0  0  0  0  0  0  0
   -2.5093    1.2092    2.2599 H   0  0  0  0  0  0  0  0  0  0  0  0
   -4.2338    0.9283    2.5645 H   0  0  0  0  0  0  0  0  0  0  0  0
   -1.2626   -0.1515   -0.1463 N   0  0  0  0  0  0  0  0  0  0  0  0
    0.0431   -0.5785   -0.5755 C   0  0  2  0  0  0  0  0  0  0  0  0
    0.3761    0.1541   -1.8685 C   0  0  0  0  0  0  0  0  0  0  0  0
    1.5175    0.2381   -2.3172 O   0  0  0  0  0  0  0  0  0  0  0  0
    0.0945   -2.0851   -0.7757 C   0  0  0  0  0  0  0  0  0  0  0  0
   -1.5766    0.7776   -0.4197 H   0  0  0  0  0  0  0  0  0  0  0  0
    0.7476   -0.2772    0.2074 H   0  0  0  0  0  0  0  0  0  0  0  0
   -0.6047   -2.4058   -1.5565 H   0  0  0  0  0  0  0  0  0  0  0  0
    1.0961   -2.4117   -1.0745 H   0  0  0  0  0  0  0  0  0  0  0  0
   -0.1742   -2.6103    0.1472 H   0  0  0  0  0  0  0  0  0  0  0  0
   -0.7447    0.7425   -2.4443 N   0  0  0  0  0  0  0  0  0  0  0  0
   -0.6824    1.5266   -3.6496 C   0  0  2  0  0  0  0  0  0  0  0  0
   -1.7519    2.6074   -3.5634 C   0  0  0  0  0  0  0  0  0  0  0  0
   -2.8357    2.4359   -3.0093 O   0  0  0  0  0  0  0  0  0  0  0  0
   -0.8828    0.6609   -4.8838 C   0  0  0  0  0  0  0  0  0  0  0  0
   -1.6576    0.5850   -2.0220 H   0  0  0  0  0  0  0  0  0  0  0  0
    0.3084    1.9934   -3.6724 H   0  0  0  0  0  0  0  0  0  0  0  0
   -1.8701    0.1849   -4.8786 H   0  0  0  0  0  0  0  0  0  0  0  0
   -0.8067    1.2541   -5.8011 H   0  0  0  0  0  0  0  0  0  0  0  0
   -0.1307   -0.1342   -4.9285 H   0  0  0  0  0  0  0  0  0  0  0  0
   -1.3709    3.7719   -4.2153 N   0  0  0  0  0  0  0  0  0  0  0  0
   -2.2303    4.9286   -4.3112 C   0  0  0  0  0  0  0  0  0  0  0  0
   -0.4384    3.8400   -4.6123 H   0  0  0  0  0  0  0  0  0  0  0  0
   -2.8106    4.8786   -5.2444 H   0  0  0  0  0  0  0  0  0  0  0  0
   -2.9177    4.9467   -3.4526 H   0  0  0  0  0  0  0  0  0  0  0  0
   -1.6173    5.8419   -4.3094 H   0  0  0  0  0  0  0  0  0  0  0  0
  1  3  1  0  0  0  0
  1  7  1  0  0  0  0
  1  2  2  0  0  0  0
 28 29  1  0  0  0  0
 29 37  1  0  0  0  0
 29 30  2  0  0  0  0
 18 19  1  0  0  0  0
 19 27  1  0  0  0  0
 19 20  2  0  0  0  0
  8  9  1  0  0  0  0
  9 17  1  0  0  0  0
  9 10  2  0  0  0  0
 28 31  1  0  0  0  0
 18 21  1  0  0  0  0
  8 11  1  0  0  0  0
 37 38  1  0  0  0  0
 27 28  1  0  0  0  0
 17 18  1  0  0  0  0
  7  8  1  0  0  0  0
  3  4  1  0  0  0  0
  3  5  1  0  0  0  0
  3  6  1  0  0  0  0
 31 34  1  0  0  0  0
 31 35  1  0  0  0  0
 31 36  1  0  0  0  0
 21 24  1  0  0  0  0
 21 25  1  0  0  0  0
 21 26  1  0  0  0  0
 11 14  1  0  0  0  0
 11 15  1  0  0  0  0
 11 16  1  0  0  0  0
 38 40  1  0  0  0  0
 38 41  1  0  0  0  0
 38 42  1  0  0  0  0
 28 33  1  0  0  0  0
 18 23  1  0  0  0  0
  8 13  1  0  0  0  0
 37 39  1  0  0  0  0
  7 12  1  0  0  0  0
 27 32  1  0  0  0  0
 17 22  1  0  0  0  0
M  END
$$$$

  -OEChem-05262214473D

 42 41  0     1  0  0  0  0  0999 V2000
   -5.7851   -0.9580    0.6237 C   0  0  0  0  0  0  0  0  0  0  0  0
   -6.2213    0.1296    0.2652 O   0  0  0  0  0  0  0  0  0  0  0  0
   -6.7088   -2.1270    0.7168 C   0  0  0  0  0  0  0  0  0  0  0  0
   -7.1713   -2.2193    1.7126 H   0  0  0  0  0  0  0  0  0  0  0  0
   -7.5511   -2.0547    0.0101 H   0  0  0  0  0  0  0  0  0  0  0  0
   -6.2485   -3.1083    0.5191 H   0  0  0  0  0  0  0  0  0  0  0  0
   -4.4733   -1.2411    0.9668 N   0  0  0  0  0  0  0  0  0  0  0  0
   -3.4203   -0.2603    0.9449 C   0  0  2  0  0  0  0  0  0  0  0  0
   -2.1242   -0.9699    0.5759 C   0  0  0  0  0  0  0  0  0  0  0  0
   -1.8694   -2.1225    0.9189 O   0  0  0  0  0  0  0  0  0  0  0  0
   -3.2916    0.4435    2.2868 C   0  0  0  0  0  0  0  0  0  0  0  0
   -4.2421   -2.1920    1.2489 H   0  0  0  0  0  0  0  0  0  0  0  0
   -3.6772    0.4622    0.1625 H   0  0  0  0  0  0  0  0  0  0  0  0
   -3.0345   -0.2644    3.0832 H   0  0  0  0  0  0  0  0  0  0  0  0
   -2.5093    1.2092    2.2599 H   0  0  0  0  0  0  0  0  0  0  0  0
   -4.2338    0.9283    2.5645 H   0  0  0  0  0  0  0  0  0  0  0  0
   -1.2626   -0.1515   -0.1463 N   0  0  0  0  0  0  0  0  0  0  0  0
    0.0431   -0.5785   -0.5755 C   0  0  2  0  0  0  0  0  0  0  0  0
    0.3761    0.1541   -1.8685 C   0  0  0  0  0  0  0  0  0  0  0  0
    1.4462    0.0208   -2.4586 O   0  0  0  0  0  0  0  0  0  0  0  0
    0.0945   -2.0851   -0.7757 C   0  0  0  0  0  0  0  0  0  0  0  0
   -1.5766    0.7776   -0.4197 H   0  0  0  0  0  0  0  0  0  0  0  0
    0.7476   -0.2772    0.2074 H   0  0  0  0  0  0  0  0  0  0  0  0
   -0.6047   -2.4058   -1.5565 H   0  0  0  0  0  0  0  0  0  0  0  0
    1.0961   -2.4117   -1.0745 H   0  0  0  0  0  0  0  0  0  0  0  0
   -0.1742   -2.6103    0.1472 H   0  0  0  0  0  0  0  0  0  0  0  0
   -0.6450    1.0100   -2.2671 N   0  0  0  0  0  0  0  0  0  0  0  0
   -0.5520    1.8450   -3.4357 C   0  0  2  0  0  0  0  0  0  0  0  0
   -1.3353    3.1226   -3.1642 C   0  0  0  0  0  0  0  0  0  0  0  0
   -2.3568    3.1508   -2.4810 O   0  0  0  0  0  0  0  0  0  0  0  0
   -1.0851    1.1323   -4.6688 C   0  0  0  0  0  0  0  0  0  0  0  0
   -1.5135    1.0241   -1.7361 H   0  0  0  0  0  0  0  0  0  0  0  0
    0.5081    2.0870   -3.5680 H   0  0  0  0  0  0  0  0  0  0  0  0
   -2.1461    0.8818   -4.5548 H   0  0  0  0  0  0  0  0  0  0  0  0
   -0.9874    1.7582   -5.5620 H   0  0  0  0  0  0  0  0  0  0  0  0
   -0.5402    0.1986   -4.8454 H   0  0  0  0  0  0  0  0  0  0  0  0
   -0.7836    4.2202   -3.8101 N   0  0  0  0  0  0  0  0  0  0  0  0
   -1.3682    5.5392   -3.7433 C   0  0  0  0  0  0  0  0  0  0  0  0
    0.0869    4.1130   -4.3224 H   0  0  0  0  0  0  0  0  0  0  0  0
   -2.0511    5.6816   -4.5938 H   0  0  0  0  0  0  0  0  0  0  0  0
   -1.9278    5.6449   -2.8022 H   0  0  0  0  0  0  0  0  0  0  0  0
   -0.5708    6.2959   -3.7828 H   0  0  0  0  0  0  0  0  0  0  0  0
  1  3  1  0  0  0  0
  1  7  1  0  0  0  0
  1  2  2  0  0  0  0
 28 29  1  0  0  0  0
 29 37  1  0  0  0  0
 29 30  2  0  0  0  0
 18 19  1  0  0  0  0
 19 27  1  0  0  0  0
 19 20  2  0  0  0  0
  8  9  1  0  0  0  0
  9 17  1  0  0  0  0
  9 10  2  0  0  0  0
 28 31  1  0  0  0  0
 18 21  1  0  0  0  0
  8 11  1  0  0  0  0
 37 38  1  0  0  0  0
 27 28  1  0  0  0  0
 17 18  1  0  0  0  0
  7  8  1  0  0  0  0
  3  4  1  0  0  0  0
  3  5  1  0  0  0  0
  3  6  1  0  0  0  0
 31 34  1  0  0  0  0
 31 35  1  0  0  0  0
 31 36  1  0  0  0  0
 21 24  1  0  0  0  0
 21 25  1  0  0  0  0
 21 26  1  0  0  0  0
 11 14  1  0  0  0  0
 11 15  1  0  0  0  0
 11 16  1  0  0  0  0
 38 40  1  0  0  0  0
 38 41  1  0  0  0  0
 38 42  1  0  0  0  0
 28 33  1  0  0  0  0
 18 23  1  0  0  0  0
  8 13  1  0  0  0  0
 37 39  1  0  0  0  0
  7 12  1  0  0  0  0
 27 32  1  0  0  0  0
 17 22  1  0  0  0  0
M  END
$$$$

  -OEChem-05262214473D

 42 41  0     1  0  0  0  0  0999 V2000
   -5.7851   -0.9580    0.6237 C   0  0  0  0  0  0  0  0  0  0  0  0
   -6.2213    0.1296    0.2652 O   0  0  0  0  0  0  0  0  0  0  0  0
   -6.7088   -2.1270    0.7168 C   0  0  0  0  0  0  0  0  0  0  0  0
   -7.1713   -2.2193    1.7126 H   0  0  0  0  0  0  0  0  0  0  0  0
   -7.5511   -2.0547    0.0101 H   0  0  0  0  0  0  0  0  0  0  0  0
   -6.2485   -3.1083    0.5191 H   0  0  0  0  0  0  0  0  0  0  0  0
   -4.4733   -1.2411    0.9668 N   0  0  0  0  0  0  0  0  0  0  0  0
   -3.4203   -0.2603    0.9449 C   0  0  2  0  0  0  0  0  0  0  0  0
   -2.1242   -0.9699    0.5759 C   0  0  0  0  0  0  0  0  0  0  0  0
   -1.8694   -2.1225    0.9189 O   0  0  0  0  0  0  0  0  0  0  0  0
   -3.2916    0.4435    2.2868 C   0  0  0  0  0  0  0  0  0  0  0  0
   -4.2421   -2.1920    1.2489 H   0  0  0  0  0  0  0  0  0  0  0  0
   -3.6772    0.4622    0.1625 H   0  0  0  0  0  0  0  0  0  0  0  0
   -3.0345   -0.2644    3.0832 H   0  0  0  0  0  0  0  0  0  0  0  0
   -2.5093    1.2092    2.2599 H   0  0  0  0  0  0  0  0  0  0  0  0
   -4.2338    0.9283    2.5645 H   0  0  0  0  0  0  0  0  0  0  0  0
   -1.2626   -0.1515   -0.1463 N   0  0  0  0  0  0  0  0  0  0  0  0
    0.0431   -0.5785   -0.5755 C   0  0  2  0  0  0  0  0  0  0  0  0
    0.3761    0.1541   -1.8685 C   0  0  0  0  0  0  0  0  0  0  0  0
    1.3119   -0.1654   -2.5987 O   0  0  0  0  0  0  0  0  0  0  0  0
    0.0945   -2.0851   -0.7757 C   0  0  0  0  0  0  0  0  0  0  0  0
   -1.5766    0.7776   -0.4197 H   0  0  0  0  0  0  0  0  0  0  0  0
    0.7476   -0.2772    0.2074 H   0  0  0  0  0  0  0  0  0  0  0  0
   -0.6047   -2.4058   -1.5565 H   0  0  0  0  0  0  0  0  0  0  0  0
    1.0961   -2.4117   -1.0745 H   0  0  0  0  0  0  0  0  0  0  0  0
   -0.1742   -2.6103    0.1472 H   0  0  0  0  0  0  0  0  0  0  0  0
   -0.4678    1.2363   -2.0932 N   0  0  0  0  0  0  0  0  0  0  0  0
   -0.3295    2.1118   -3.2272 C   0  0  2  0  0  0  0  0  0  0  0  0
   -0.7699    3.5061   -2.8013 C   0  0  0  0  0  0  0  0  0  0  0  0
   -1.6712    3.7062   -1.9898 O   0  0  0  0  0  0  0  0  0  0  0  0
   -1.1501    1.6199   -4.4093 C   0  0  0  0  0  0  0  0  0  0  0  0
   -1.2423    1.4004   -1.4530 H   0  0  0  0  0  0  0  0  0  0  0  0
    0.7347    2.1276   -3.4866 H   0  0  0  0  0  0  0  0  0  0  0  0
   -2.2192    1.5973   -4.1683 H   0  0  0  0  0  0  0  0  0  0  0  0
   -1.0214    2.2713   -5.2801 H   0  0  0  0  0  0  0  0  0  0  0  0
   -0.8523    0.6054   -4.6953 H   0  0  0  0  0  0  0  0  0  0  0  0
   -0.0674    4.5012   -3.4664 N   0  0  0  0  0  0  0  0  0  0  0  0
   -0.3305    5.9073   -3.2675 C   0  0  0  0  0  0  0  0  0  0  0  0
    0.6904    4.2448   -4.0924 H   0  0  0  0  0  0  0  0  0  0  0  0
   -1.0600    6.2536   -4.0145 H   0  0  0  0  0  0  0  0  0  0  0  0
   -0.7371    6.0649   -2.2577 H   0  0  0  0  0  0  0  0  0  0  0  0
    0.6053    6.4747   -3.3786 H   0  0  0  0  0  0  0  0  0  0  0  0
  1  3  1  0  0  0  0
  1  7  1  0  0  0  0
  1  2  2  0  0  0  0
 28 29  1  0  0  0  0
 29 37  1  0  0  0  0
 29 30  2  0  0  0  0
 18 19  1  0  0  0  0
 19 27  1  0  0  0  0
 19 20  2  0  0  0  0
  8  9  1  0  0  0  0
  9 17  1  0  0  0  0
  9 10  2  0  0  0  0
 28 31  1  0  0  0  0
 18 21  1  0  0  0  0
  8 11  1  0  0  0  0
 37 38  1  0  0  0  0
 27 28  1  0  0  0  0
 17 18  1  0  0  0  0
  7  8  1  0  0  0  0
  3  4  1  0  0  0  0
  3  5  1  0  0  0  0
  3  6  1  0  0  0  0
 31 34  1  0  0  0  0
 31 35  1  0  0  0  0
 31 36  1  0  0  0  0
 21 24  1  0  0  0  0
 21 25  1  0  0  0  0
 21 26  1  0  0  0  0
 11 14  1  0  0  0  0
 11 15  1  0  0  0  0
 11 16  1  0  0  0  0
 38 40  1  0  0  0  0
 38 41  1  0  0  0  0
 38 42  1  0  0  0  0
 28 33  1  0  0  0  0
 18 23  1  0  0  0  0
  8 13  1  0  0  0  0
 37 39  1  0  0  0  0
  7 12  1  0  0  0  0
 27 32  1  0  0  0  0
 17 22  1  0  0  0  0
M  END
$$$$

  -OEChem-05262214473D

 42 41  0     1  0  0  0  0  0999 V2000
   -5.7851   -0.9580    0.6237 C   0  0  0  0  0  0  0  0  0  0  0  0
   -6.2213    0.1296    0.2652 O   0  0  0  0  0  0  0  0  0  0  0  0
   -6.7088   -2.1270    0.7168 C   0  0  0  0  0  0  0  0  0  0  0  0
   -7.1713   -2.2193    1.7126 H   0  0  0  0  0  0  0  0  0  0  0  0
   -7.5511   -2.0547    0.0101 H   0  0  0  0  0  0  0  0  0  0  0  0
   -6.2485   -3.1083    0.5191 H   0  0  0  0  0  0  0  0  0  0  0  0
   -4.4733   -1.2411    0.9668 N   0  0  0  0  0  0  0  0  0  0  0  0
   -3.4203   -0.2603    0.9449 C   0  0  2  0  0  0  0  0  0  0  0  0
   -2.1242   -0.9699    0.5759 C   0  0  0  0  0  0  0  0  0  0  0  0
   -1.8694   -2.1225    0.9189 O   0  0  0  0  0  0  0  0  0  0  0  0
   -3.2916    0.4435    2.2868 C   0  0  0  0  0  0  0  0  0  0  0  0
   -4.2421   -2.1920    1.2489 H   0  0  0  0  0  0  0  0  0  0  0  0
   -3.6772    0.4622    0.1625 H   0  0  0  0  0  0  0  0  0  0  0  0
   -3.0345   -0.2644    3.0832 H   0  0  0  0  0  0  0  0  0  0  0  0
   -2.5093    1.2092    2.2599 H   0  0  0  0  0  0  0  0  0  0  0  0
   -4.2338    0.9283    2.5645 H   0  0  0  0  0  0  0  0  0  0  0  0
   -1.2626   -0.1515   -0.1463 N   0  0  0  0  0  0  0  0  0  0  0  0
    0.0431   -0.5785   -0.5755 C   0  0  2  0  0  0  0  0  0  0  0  0
    0.3761    0.1541   -1.8685 C   0  0  0  0  0  0  0  0  0  0  0  0
    1.1239   -0.3079   -2.7278 O   0  0  0  0  0  0  0  0  0  0  0  0
    0.0945   -2.0851   -0.7757 C   0  0  0  0  0  0  0  0  0  0  0  0
   -1.5766    0.7776   -0.4197 H   0  0  0  0  0  0  0  0  0  0  0  0
    0.7476   -0.2772    0.2074 H   0  0  0  0  0  0  0  0  0  0  0  0
   -0.6047   -2.4058   -1.5565 H   0  0  0  0  0  0  0  0  0  0  0  0
    1.0961   -2.4117   -1.0745 H   0  0  0  0  0  0  0  0  0  0  0  0
   -0.1742   -2.6103    0.1472 H   0  0  0  0  0  0  0  0  0  0  0  0
   -0.2253    1.4062   -1.9345 N   0  0  0  0  0  0  0  0  0  0  0  0
   -0.0300    2.3088   -3.0384 C   0  0  2  0  0  0  0  0  0  0  0  0
   -0.0944    3.7318   -2.4995 C   0  0  0  0  0  0  0  0  0  0  0  0
   -0.8259    4.0643   -1.5692 O   0  0  0  0  0  0  0  0  0  0  0  0
   -1.0735    2.0906   -4.1229 C   0  0  0  0  0  0  0  0  0  0  0  0
   -0.8623    1.6883   -1.1921 H   0  0  0  0  0  0  0  0  0  0  0  0
    0.9725    2.1125   -3.4339 H   0  0  0  0  0  0  0  0  0  0  0  0
   -2.0845    2.2826   -3.7453 H   0  0  0  0  0  0  0  0  0  0  0  0
   -0.9064    2.7584   -4.9745 H   0  0  0  0  0  0  0  0  0  0  0  0
   -1.0457    1.0584   -4.4884 H   0  0  0  0  0  0  0  0  0  0  0  0
    0.7290    4.5959   -3.2078 N   0  0  0  0  0  0  0  0  0  0  0  0
    0.8119    6.0080   -2.9163 C   0  0  0  0  0  0  0  0  0  0  0  0
    1.3309    4.2265   -3.9378 H   0  0  0  0  0  0  0  0  0  0  0  0
    0.0952    6.5556   -3.5460 H   0  0  0  0  0  0  0  0  0  0  0  0
    0.5730    6.1781   -1.8561 H   0  0  0  0  0  0  0  0  0  0  0  0
    1.8309    6.3661   -3.1246 H   0  0  0  0  0  0  0  0  0  0  0  0
  1  3  1  0  0  0  0
  1  7  1  0  0  0  0
  1  2  2  0  0  0  0
 28 29  1  0  0  0  0
 29 37  1  0  0  0  0
 29 30  2  0  0  0  0
 18 19  1  0  0  0  0
 19 27  1  0  0  0  0
 19 20  2  0  0  0  0
  8  9  1  0  0  0  0
  9 17  1  0  0  0  0
  9 10  2  0  0  0  0
 28 31  1  0  0  0  0
 18 21  1  0  0  0  0
  8 11  1  0  0  0  0
 37 38  1  0  0  0  0
 27 28  1  0  0  0  0
 17 18  1  0  0  0  0
  7  8  1  0  0  0  0
  3  4  1  0  0  0  0
  3  5  1  0  0  0  0
  3  6  1  0  0  0  0
 31 34  1  0  0  0  0
 31 35  1  0  0  0  0
 31 36  1  0  0  0  0
 21 24  1  0  0  0  0
 21 25  1  0  0  0  0
 21 26  1  0  0  0  0
 11 14  1  0  0  0  0
 11 15  1  0  0  0  0
 11 16  1  0  0  0  0
 38 40  1  0  0  0  0
 38 41  1  0  0  0  0
 38 42  1  0  0  0  0
 28 33  1  0  0  0  0
 18 23  1  0  0  0  0
  8 13  1  0  0  0  0
 37 39  1  0  0  0  0
  7 12  1  0  0  0  0
 27 32  1  0  0  0  0
 17 22  1  0  0  0  0
M  END
$$$$

  -OEChem-05262214473D

 42 41  0     1  0  0  0  0  0999 V2000
   -5.7851   -0.9580    0.6237 C   0  0  0  0  0  0  0  0  0  0  0  0
   -6.2213    0.1296    0.2652 O   0  0  0  0  0  0  0  0  0  0  0  0
   -6.7088   -2.1270    0.7168 C   0  0  0  0  0  0  0  0  0  0  0  0
   -7.1713   -2.2193    1.7126 H   0  0  0  0  0  0  0  0  0  0  0  0
   -7.5511   -2.0547    0.0101 H   0  0  0  0  0  0  0  0  0  0  0  0
   -6.2485   -3.1083    0.5191 H   0  0  0  0  0  0  0  0  0  0  0  0
   -4.4733   -1.2411    0.9668 N   0  0  0  0  0  0  0  0  0  0  0  0
   -3.4203   -0.2603    0.9449 C   0  0  2  0  0  0  0  0  0  0  0  0
   -2.1242   -0.9699    0.5759 C   0  0  0  0  0  0  0  0  0  0  0  0
   -1.8694   -2.1225    0.9189 O   0  0  0  0  0  0  0  0  0  0  0  0
   -3.2916    0.4435    2.2868 C   0  0  0  0  0  0  0  0  0  0  0  0
   -4.2421   -2.1920    1.2489 H   0  0  0  0  0  0  0  0  0  0  0  0
   -3.6772    0.4622    0.1625 H   0  0  0  0  0  0  0  0  0  0  0  0
   -3.0345   -0.2644    3.0832 H   0  0  0  0  0  0  0  0  0  0  0  0
   -2.5093    1.2092    2.2599 H   0  0  0  0  0  0  0  0  0  0  0  0
   -4.2338    0.9283    2.5645 H   0  0  0  0  0  0  0  0  0  0  0  0
   -1.2626   -0.1515   -0.1463 N   0  0  0  0  0  0  0  0  0  0  0  0
    0.0431   -0.5785   -0.5755 C   0  0  2  0  0  0  0  0  0  0  0  0
    0.3761    0.1541   -1.8685 C   0  0  0  0  0  0  0  0  0  0  0  0
    0.8949   -0.3968   -2.8372 O   0  0  0  0  0  0  0  0  0  0  0  0
    0.0945   -2.0851   -0.7757 C   0  0  0  0  0  0  0  0  0  0  0  0
   -1.5766    0.7776   -0.4197 H   0  0  0  0  0  0  0  0  0  0  0  0
    0.7476   -0.2772    0.2074 H   0  0  0  0  0  0  0  0  0  0  0  0
   -0.6047   -2.4058   -1.5565 H   0  0  0  0  0  0  0  0  0  0  0  0
    1.0961   -2.4117   -1.0745 H   0  0  0  0  0  0  0  0  0  0  0  0
   -0.1742   -2.6103    0.1472 H   0  0  0  0  0  0  0  0  0  0  0  0
    0.0660    1.5081   -1.8018 N   0  0  0  0  0  0  0  0  0  0  0  0
    0.3261    2.4226   -2.8823 C   0  0  2  0  0  0  0  0  0  0  0  0
    0.6453    3.7843   -2.2793 C   0  0  0  0  0  0  0  0  0  0  0  0
    0.1217    4.2006   -1.2480 O   0  0  0  0  0  0  0  0  0  0  0  0
   -0.8604    2.5121   -3.8292 C   0  0  0  0  0  0  0  0  0  0  0  0
   -0.3996    1.8681   -0.9711 H   0  0  0  0  0  0  0  0  0  0  0  0
    1.2056    2.0426   -3.4135 H   0  0  0  0  0  0  0  0  0  0  0  0
   -1.7511    2.8910   -3.3148 H   0  0  0  0  0  0  0  0  0  0  0  0
   -0.6503    3.1864   -4.6660 H   0  0  0  0  0  0  0  0  0  0  0  0
   -1.1073    1.5267   -4.2389 H   0  0  0  0  0  0  0  0  0  0  0  0
    1.5512    4.4977   -3.0517 N   0  0  0  0  0  0  0  0  0  0  0  0
    1.9812    5.8344   -2.7136 C   0  0  0  0  0  0  0  0  0  0  0  0
    1.9649    4.0593   -3.8693 H   0  0  0  0  0  0  0  0  0  0  0  0
    1.3356    6.5669   -3.2202 H   0  0  0  0  0  0  0  0  0  0  0  0
    1.9134    5.9769   -1.6250 H   0  0  0  0  0  0  0  0  0  0  0  0
    3.0226    5.9774   -3.0379 H   0  0  0  0  0  0  0  0  0  0  0  0
  1  3  1  0  0  0  0
  1  7  1  0  0  0  0
  1  2  2  0  0  0  0
 28 29  1  0  0  0  0
 29 37  1  0  0  0  0
 29 30  2  0  0  0  0
 18 19  1  0  0  0  0
 19 27  1  0  0  0  0
 19 20  2  0  0  0  0
  8  9  1  0  0  0  0
  9 17  1  0  0  0  0
  9 10  2  0  0  0  0
 28 31  1  0  0  0  0
 18 21  1  0  0  0  0
  8 11  1  0  0  0  0
 37 38  1  0  0  0  0
 27 28  1  0  0  0  0
 17 18  1  0  0  0  0
  7  8  1  0  0  0  0
  3  4  1  0  0  0  0
  3  5  1  0  0  0  0
  3  6  1  0  0  0  0
 31 34  1  0  0  0  0
 31 35  1  0  0  0  0
 31 36  1  0  0  0  0
 21 24  1  0  0  0  0
 21 25  1  0  0  0  0
 21 26  1  0  0  0  0
 11 14  1  0  0  0  0
 11 15  1  0  0  0  0
 11 16  1  0  0  0  0
 38 40  1  0  0  0  0
 38 41  1  0  0  0  0
 38 42  1  0  0  0  0
 28 33  1  0  0  0  0
 18 23  1  0  0  0  0
  8 13  1  0  0  0  0
 37 39  1  0  0  0  0
  7 12  1  0  0  0  0
 27 32  1  0  0  0  0
 17 22  1  0  0  0  0
M  END
$$$$

  -OEChem-05262214473D

 42 41  0     1  0  0  0  0  0999 V2000
   -5.7851   -0.9580    0.6237 C   0  0  0  0  0  0  0  0  0  0  0  0
   -6.2213    0.1296    0.2652 O   0  0  0  0  0  0  0  0  0  0  0  0
   -6.7088   -2.1270    0.7168 C   0  0  0  0  0  0  0  0  0  0  0  0
   -7.1713   -2.2193    1.7126 H   0  0  0  0  0  0  0  0  0  0  0  0
   -7.5511   -2.0547    0.0101 H   0  0  0  0  0  0  0  0  0  0  0  0
   -6.2485   -3.1083    0.5191 H   0  0  0  0  0  0  0  0  0  0  0  0
   -4.4733   -1.2411    0.9668 N   0  0  0  0  0  0  0  0  0  0  0  0
   -3.4203   -0.2603    0.9449 C   0  0  2  0  0  0  0  0  0  0  0  0
   -2.1242   -0.9699    0.5759 C   0  0  0  0  0  0  0  0  0  0  0  0
   -1.8694   -2.1225    0.9189 O   0  0  0  0  0  0  0  0  0  0  0  0
   -3.2916    0.4435    2.2868 C   0  0  0  0  0  0  0  0  0  0  0  0
   -4.2421   -2.1920    1.2489 H   0  0  0  0  0  0  0  0  0  0  0  0
   -3.6772    0.4622    0.1625 H   0  0  0  0  0  0  0  0  0  0  0  0
   -3.0345   -0.2644    3.0832 H   0  0  0  0  0  0  0  0  0  0  0  0
   -2.5093    1.2092    2.2599 H   0  0  0  0  0  0  0  0  0  0  0  0
   -4.2338    0.9283    2.5645 H   0  0  0  0  0  0  0  0  0  0  0  0
   -1.2626   -0.1515   -0.1463 N   0  0  0  0  0  0  0  0  0  0  0  0
    0.0431   -0.5785   -0.5755 C   0  0  2  0  0  0  0  0  0  0  0  0
    0.3761    0.1541   -1.8685 C   0  0  0  0  0  0  0  0  0  0  0  0
    0.6406   -0.4263   -2.9194 O   0  0  0  0  0  0  0  0  0  0  0  0
    0.0945   -2.0851   -0.7757 C   0  0  0  0  0  0  0  0  0  0  0  0
   -1.5766    0.7776   -0.4197 H   0  0  0  0  0  0  0  0  0  0  0  0
    0.7476   -0.2772    0.2074 H   0  0  0  0  0  0  0  0  0  0  0  0
   -0.6047   -2.4058   -1.5565 H   0  0  0  0  0  0  0  0  0  0  0  0
    1.0961   -2.4117   -1.0745 H   0  0  0  0  0  0  0  0  0  0  0  0
   -0.1742   -2.6103    0.1472 H   0  0  0  0  0  0  0  0  0  0  0  0
    0.3864    1.5349   -1.7041 N   0  0  0  0  0  0  0  0  0  0  0  0
    0.7146    2.4455   -2.7693 C   0  0  2  0  0  0  0  0  0  0  0  0
    1.3987    3.6600   -2.1558 C   0  0  0  0  0  0  0  0  0  0  0  0
    1.1070    4.1058   -1.0480 O   0  0  0  0  0  0  0  0  0  0  0  0
   -0.5254    2.8559   -3.5482 C   0  0  0  0  0  0  0  0  0  0  0  0
    0.1144    1.9276   -0.8050 H   0  0  0  0  0  0  0  0  0  0  0  0
    1.4178    1.9228   -3.4268 H   0  0  0  0  0  0  0  0  0  0  0  0
   -1.2418    3.3811   -2.9059 H   0  0  0  0  0  0  0  0  0  0  0  0
   -0.2704    3.5260   -4.3758 H   0  0  0  0  0  0  0  0  0  0  0  0
   -1.0327    1.9785   -3.9638 H   0  0  0  0  0  0  0  0  0  0  0  0
    2.3433    4.2133   -3.0089 N   0  0  0  0  0  0  0  0  0  0  0  0
    3.0978    5.3982   -2.6732 C   0  0  0  0  0  0  0  0  0  0  0  0
    2.5490    3.7546   -3.8915 H   0  0  0  0  0  0  0  0  0  0  0  0
    2.5769    6.2868   -3.0592 H   0  0  0  0  0  0  0  0  0  0  0  0
    3.1926    5.4749   -1.5800 H   0  0  0  0  0  0  0  0  0  0  0  0
    4.0990    5.3353   -3.1246 H   0  0  0  0  0  0  0  0  0  0  0  0
  1  3  1  0  0  0  0
  1  7  1  0  0  0  0
  1  2  2  0  0  0  0
 28 29  1  0  0  0  0
 29 37  1  0  0  0  0
 29 30  2  0  0  0  0
 18 19  1  0  0  0  0
 19 27  1  0  0  0  0
 19 20  2  0  0  0  0
  8  9  1  0  0  0  0
  9 17  1  0  0  0  0
  9 10  2  0  0  0  0
 28 31  1  0  0  0  0
 18 21  1  0  0  0  0
  8 11  1  0  0  0  0
 37 38  1  0  0  0  0
 27 28  1  0  0  0  0
 17 18  1  0  0  0  0
  7  8  1  0  0  0  0
  3  4  1  0  0  0  0
  3  5  1  0  0  0  0
  3  6  1  0  0  0  0
 31 34  1  0  0  0  0
 31 35  1  0  0  0  0
 31 36  1  0  0  0  0
 21 24  1  0  0  0  0
 21 25  1  0  0  0  0
 21 26  1  0  0  0  0
 11 14  1  0  0  0  0
 11 15  1  0  0  0  0
 11 16  1  0  0  0  0
 38 40  1  0  0  0  0
 38 41  1  0  0  0  0
 38 42  1  0  0  0  0
 28 33  1  0  0  0  0
 18 23  1  0  0  0  0
  8 13  1  0  0  0  0
 37 39  1  0  0  0  0
  7 12  1  0  0  0  0
 27 32  1  0  0  0  0
 17 22  1  0  0  0  0
M  END
$$$$

  -OEChem-05262214473D

 42 41  0     1  0  0  0  0  0999 V2000
   -5.7851   -0.9580    0.6237 C   0  0  0  0  0  0  0  0  0  0  0  0
   -6.2213    0.1296    0.2652 O   0  0  0  0  0  0  0  0  0  0  0  0
   -6.7088   -2.1270    0.7168 C   0  0  0  0  0  0  0  0  0  0  0  0
   -7.1713   -2.2193    1.7126 H   0  0  0  0  0  0  0  0  0  0  0  0
   -7.5511   -2.0547    0.0101 H   0  0  0  0  0  0  0  0  0  0  0  0
   -6.2485   -3.1083    0.5191 H   0  0  0  0  0  0  0  0  0  0  0  0
   -4.4733   -1.2411    0.9668 N   0  0  0  0  0  0  0  0  0  0  0  0
   -3.4203   -0.2603    0.9449 C   0  0  2  0  0  0  0  0  0  0  0  0
   -2.1242   -0.9699    0.5759 C   0  0  0  0  0  0  0  0  0  0  0  0
   -1.8694   -2.1225    0.9189 O   0  0  0  0  0  0  0  0  0  0  0  0
   -3.2916    0.4435    2.2868 C   0  0  0  0  0  0  0  0  0  0  0  0
   -4.2421   -2.1920    1.2489 H   0  0  0  0  0  0  0  0  0  0  0  0
   -3.6772    0.4622    0.1625 H   0  0  0  0  0  0  0  0  0  0  0  0
   -3.0345   -0.2644    3.0832 H   0  0  0  0  0  0  0  0  0  0  0  0
   -2.5093    1.2092    2.2599 H   0  0  0  0  0  0  0  0  0  0  0  0
   -4.2338    0.9283    2.5645 H   0  0  0  0  0  0  0  0  0  0  0  0
   -1.2626   -0.1515   -0.1463 N   0  0  0  0  0  0  0  0  0  0  0  0
    0.0431   -0.5785   -0.5755 C   0  0  2  0  0  0  0  0  0  0  0  0
    0.3761    0.1541   -1.8685 C   0  0  0  0  0  0  0  0  0  0  0  0
    0.3782   -0.3942   -2.9687 O   0  0  0  0  0  0  0  0  0  0  0  0
    0.0945   -2.0851   -0.7757 C   0  0  0  0  0  0  0  0  0  0  0  0
   -1.5766    0.7776   -0.4197 H   0  0  0  0  0  0  0  0  0  0  0  0
    0.7476   -0.2772    0.2074 H   0  0  0  0  0  0  0  0  0  0  0  0
   -0.6047   -2.4058   -1.5565 H   0  0  0  0  0  0  0  0  0  0  0  0
    1.0961   -2.4117   -1.0745 H   0  0  0  0  0  0  0  0  0  0  0  0
   -0.1742   -2.6103    0.1472 H   0  0  0  0  0  0  0  0  0  0  0  0
    0.7138    1.4850   -1.6481 N   0  0  0  0  0  0  0  0  0  0  0  0
    1.1088    2.3758   -2.7073 C   0  0  2  0  0  0  0  0  0  0  0  0
    2.1145    3.3674   -2.1372 C   0  0  0  0  0  0  0  0  0  0  0  0
    2.0628    3.7865   -0.9828 O   0  0  0  0  0  0  0  0  0  0  0  0
   -0.0913    3.0984   -3.2990 C   0  0  0  0  0  0  0  0  0  0  0  0
    0.6447    1.8628   -0.7052 H   0  0  0  0  0  0  0  0  0  0  0  0
    1.5948    1.7611   -3.4728 H   0  0  0  0  0  0  0  0  0  0  0  0
   -0.5912    3.7194   -2.5468 H   0  0  0  0  0  0  0  0  0  0  0  0
    0.2073    3.7542   -4.1235 H   0  0  0  0  0  0  0  0  0  0  0  0
   -0.8272    2.3830   -3.6817 H   0  0  0  0  0  0  0  0  0  0  0  0
    3.0512    3.7621   -3.0822 N   0  0  0  0  0  0  0  0  0  0  0  0
    4.0855    4.7293   -2.7979 C   0  0  0  0  0  0  0  0  0  0  0  0
    3.0435    3.3332   -4.0029 H   0  0  0  0  0  0  0  0  0  0  0  0
    3.7344    5.7344   -3.0742 H   0  0  0  0  0  0  0  0  0  0  0  0
    4.3236    4.7064   -1.7242 H   0  0  0  0  0  0  0  0  0  0  0  0
    4.9868    4.4834   -3.3786 H   0  0  0  0  0  0  0  0  0  0  0  0
  1  3  1  0  0  0  0
  1  7  1  0  0  0  0
  1  2  2  0  0  0  0
 28 29  1  0  0  0  0
 29 37  1  0  0  0  0
 29 30  2  0  0  0  0
 18 19  1  0  0  0  0
 19 27  1  0  0  0  0
 19 20  2  0  0  0  0
  8  9  1  0  0  0  0
  9 17  1  0  0  0  0
  9 10  2  0  0  0  0
 28 31  1  0  0  0  0
 18 21  1  0  0  0  0
  8 11  1  0  0  0  0
 37 38  1  0  0  0  0
 27 28  1  0  0  0  0
 17 18  1  0  0  0  0
  7  8  1  0  0  0  0
  3  4  1  0  0  0  0
  3  5  1  0  0  0  0
  3  6  1  0  0  0  0
 31 34  1  0  0  0  0
 31 35  1  0  0  0  0
 31 36  1  0  0  0  0
 21 24  1  0  0  0  0
 21 25  1  0  0  0  0
 21 26  1  0  0  0  0
 11 14  1  0  0  0  0
 11 15  1  0  0  0  0
 11 16  1  0  0  0  0
 38 40  1  0  0  0  0
 38 41  1  0  0  0  0
 38 42  1  0  0  0  0
 28 33  1  0  0  0  0
 18 23  1  0  0  0  0
  8 13  1  0  0  0  0
 37 39  1  0  0  0  0
  7 12  1  0  0  0  0
 27 32  1  0  0  0  0
 17 22  1  0  0  0  0
M  END
$$$$

  -OEChem-05262214473D

 42 41  0     1  0  0  0  0  0999 V2000
   -5.7851   -0.9580    0.6237 C   0  0  0  0  0  0  0  0  0  0  0  0
   -6.2213    0.1296    0.2652 O   0  0  0  0  0  0  0  0  0  0  0  0
   -6.7088   -2.1270    0.7168 C   0  0  0  0  0  0  0  0  0  0  0  0
   -7.1713   -2.2193    1.7126 H   0  0  0  0  0  0  0  0  0  0  0  0
   -7.5511   -2.0547    0.0101 H   0  0  0  0  0  0  0  0  0  0  0  0
   -6.2485   -3.1083    0.5191 H   0  0  0  0  0  0  0  0  0  0  0  0
   -4.4733   -1.2411    0.9668 N   0  0  0  0  0  0  0  0  0  0  0  0
   -3.4203   -0.2603    0.9449 C   0  0  2  0  0  0  0  0  0  0  0  0
   -2.1242   -0.9699    0.5759 C   0  0  0  0  0  0  0  0  0  0  0  0
   -1.8694   -2.1225    0.9189 O   0  0  0  0  0  0  0  0  0  0  0  0
   -3.2916    0.4435    2.2868 C   0  0  0  0  0  0  0  0  0  0  0  0
   -4.2421   -2.1920    1.2489 H   0  0  0  0  0  0  0  0  0  0  0  0
   -3.6772    0.4622    0.1625 H   0  0  0  0  0  0  0  0  0  0  0  0
   -3.0345   -0.2644    3.0832 H   0  0  0  0  0  0  0  0  0  0  0  0
   -2.5093    1.2092    2.2599 H   0  0  0  0  0  0  0  0  0  0  0  0
   -4.2338    0.9283    2.5645 H   0  0  0  0  0  0  0  0  0  0  0  0
   -1.2626   -0.1515   -0.1463 N   0  0  0  0  0  0  0  0  0  0  0  0
    0.0431   -0.5785   -0.5755 C   0  0  2  0  0  0  0  0  0  0  0  0
    0.3761    0.1541   -1.8685 C   0  0  0  0  0  0  0  0  0  0  0  0
    0.1257   -0.3027   -2.9819 O   0  0  0  0  0  0  0  0  0  0  0  0
    0.0945   -2.0851   -0.7757 C   0  0  0  0  0  0  0  0  0  0  0  0
   -1.5766    0.7776   -0.4197 H   0  0  0  0  0  0  0  0  0  0  0  0
    0.7476   -0.2772    0.2074 H   0  0  0  0  0  0  0  0  0  0  0  0
   -0.6047   -2.4058   -1.5565 H   0  0  0  0  0  0  0  0  0  0  0  0
    1.0961   -2.4117   -1.0745 H   0  0  0  0  0  0  0  0  0  0  0  0
   -0.1742   -2.6103    0.1472 H   0  0  0  0  0  0  0  0  0  0  0  0
    1.0261    1.3616   -1.6376 N   0  0  0  0  0  0  0  0  0  0  0  0
    1.4821    2.2183   -2.7004 C   0  0  2  0  0  0  0  0  0  0  0  0
    2.7440    2.9264   -2.2250 C   0  0  0  0  0  0  0  0  0  0  0  0
    2.9239    3.2643   -1.0569 O   0  0  0  0  0  0  0  0  0  0  0  0
    0.4123    3.2231   -3.0987 C   0  0  0  0  0  0  0  0  0  0  0  0
    1.1550    1.6779   -0.6785 H   0  0  0  0  0  0  0  0  0  0  0  0
    1.7246    1.5687   -3.5484 H   0  0  0  0  0  0  0  0  0  0  0  0
    0.1562    3.8829   -2.2616 H   0  0  0  0  0  0  0  0  0  0  0  0
    0.7503    3.8553   -3.9264 H   0  0  0  0  0  0  0  0  0  0  0  0
   -0.5047    2.7125   -3.4119 H   0  0  0  0  0  0  0  0  0  0  0  0
    3.6267    3.1749   -3.2667 N   0  0  0  0  0  0  0  0  0  0  0  0
    4.8771    3.8731   -3.0792 C   0  0  0  0  0  0  0  0  0  0  0  0
    3.4147    2.8239   -4.1959 H   0  0  0  0  0  0  0  0  0  0  0  0
    4.7291    4.9473   -3.2640 H   0  0  0  0  0  0  0  0  0  0  0  0
    5.2292    3.7237   -2.0478 H   0  0  0  0  0  0  0  0  0  0  0  0
    5.6256    3.4798   -3.7828 H   0  0  0  0  0  0  0  0  0  0  0  0
  1  3  1  0  0  0  0
  1  7  1  0  0  0  0
  1  2  2  0  0  0  0
 28 29  1  0  0  0  0
 29 37  1  0  0  0  0
 29 30  2  0  0  0  0
 18 19  1  0  0  0  0
 19 27  1  0  0  0  0
 19 20  2  0  0  0  0
  8  9  1  0  0  0  0
  9 17  1  0  0  0  0
  9 10  2  0  0  0  0
 28 31  1  0  0  0  0
 18 21  1  0  0  0  0
  8 11  1  0  0  0  0
 37 38  1  0  0  0  0
 27 28  1  0  0  0  0
 17 18  1  0  0  0  0
  7  8  1  0  0  0  0
  3  4  1  0  0  0  0
  3  5  1  0  0  0  0
  3  6  1  0  0  0  0
 31 34  1  0  0  0  0
 31 35  1  0  0  0  0
 31 36  1  0  0  0  0
 21 24  1  0  0  0  0
 21 25  1  0  0  0  0
 21 26  1  0  0  0  0
 11 14  1  0  0  0  0
 11 15  1  0  0  0  0
 11 16  1  0  0  0  0
 38 40  1  0  0  0  0
 38 41  1  0  0  0  0
 38 42  1  0  0  0  0
 28 33  1  0  0  0  0
 18 23  1  0  0  0  0
  8 13  1  0  0  0  0
 37 39  1  0  0  0  0
  7 12  1  0  0  0  0
 27 32  1  0  0  0  0
 17 22  1  0  0  0  0
M  END
$$$$

  -OEChem-05262214473D

 42 41  0     1  0  0  0  0  0999 V2000
   -5.7851   -0.9580    0.6237 C   0  0  0  0  0  0  0  0  0  0  0  0
   -6.2213    0.1296    0.2652 O   0  0  0  0  0  0  0  0  0  0  0  0
   -6.7088   -2.1270    0.7168 C   0  0  0  0  0  0  0  0  0  0  0  0
   -7.1713   -2.2193    1.7126 H   0  0  0  0  0  0  0  0  0  0  0  0
   -7.5511   -2.0547    0.0101 H   0  0  0  0  0  0  0  0  0  0  0  0
   -6.2485   -3.1083    0.5191 H   0  0  0  0  0  0  0  0  0  0  0  0
   -4.4733   -1.2411    0.9668 N   0  0  0  0  0  0  0  0  0  0  0  0
   -3.4203   -0.2603    0.9449 C   0  0  2  0  0  0  0  0  0  0  0  0
   -2.1242   -0.9699    0.5759 C   0  0  0  0  0  0  0  0  0  0  0  0
   -1.8694   -2.1225    0.9189 O   0  0  0  0  0  0  0  0  0  0  0  0
   -3.2916    0.4435    2.2868 C   0  0  0  0  0  0  0  0  0  0  0  0
   -4.2421   -2.1920    1.2489 H   0  0  0  0  0  0  0  0  0  0  0  0
   -3.6772    0.4622    0.1625 H   0  0  0  0  0  0  0  0  0  0  0  0
   -3.0345   -0.2644    3.0832 H   0  0  0  0  0  0  0  0  0  0  0  0
   -2.5093    1.2092    2.2599 H   0  0  0  0  0  0  0  0  0  0  0  0
   -4.2338    0.9283    2.5645 H   0  0  0  0  0  0  0  0  0  0  0  0
   -1.2626   -0.1515   -0.1463 N   0  0  0  0  0  0  0  0  0  0  0  0
    0.0431   -0.5785   -0.5755 C   0  0  2  0  0  0  0  0  0  0  0  0
    0.3761    0.1541   -1.8685 C   0  0  0  0  0  0  0  0  0  0  0  0
   -0.0998   -0.1581   -2.9581 O   0  0  0  0  0  0  0  0  0  0  0  0
    0.0945   -2.0851   -0.7757 C   0  0  0  0  0  0  0  0  0  0  0  0
   -1.5766    0.7776   -0.4197 H   0  0  0  0  0  0  0  0  0  0  0  0
    0.7476   -0.2772    0.2074 H   0  0  0  0  0  0  0  0  0  0  0  0
   -0.6047   -2.4058   -1.5565 H   0  0  0  0  0  0  0  0  0  0  0  0
    1.0961   -2.4117   -1.0745 H   0  0  0  0  0  0  0  0  0  0  0  0
   -0.1742   -2.6103    0.1472 H   0  0  0  0  0  0  0  0  0  0  0  0
    1.3020    1.1731   -1.6734 N   0  0  0  0  0  0  0  0  0  0  0  0
    1.8089    1.9838   -2.7491 C   0  0  2  0  0  0  0  0  0  0  0  0
    3.2441    2.3671   -2.4131 C   0  0  0  0  0  0  0  0  0  0  0  0
    3.6317    2.5749   -1.2653 O   0  0  0  0  0  0  0  0  0  0  0  0
    0.9512    3.2216   -2.9608 C   0  0  0  0  0  0  0  0  0  0  0  0
    1.6107    1.3858   -0.7267 H   0  0  0  0  0  0  0  0  0  0  0  0
    1.7982    1.3586   -3.6485 H   0  0  0  0  0  0  0  0  0  0  0  0
    0.9496    3.8605   -2.0701 H   0  0  0  0  0  0  0  0  0  0  0  0
    1.3215    3.8226   -3.7979 H   0  0  0  0  0  0  0  0  0  0  0  0
   -0.0872    2.9447   -3.1729 H   0  0  0  0  0  0  0  0  0  0  0  0
    4.0307    2.4917   -3.5498 N   0  0  0  0  0  0  0  0  0  0  0  0
    5.4185    2.8881   -3.4978 C   0  0  0  0  0  0  0  0  0  0  0  0
    3.6373    2.2612   -4.4574 H   0  0  0  0  0  0  0  0  0  0  0  0
    5.4934    3.9792   -3.6157 H   0  0  0  0  0  0  0  0  0  0  0  0
    5.8478    2.5938   -2.5287 H   0  0  0  0  0  0  0  0  0  0  0  0
    5.9718    2.3930   -4.3094 H   0  0  0  0  0  0  0  0  0  0  0  0
  1  3  1  0  0  0  0
  1  7  1  0  0  0  0
  1  2  2  0  0  0  0
 28 29  1  0  0  0  0
 29 37  1  0  0  0  0
 29 30  2  0  0  0  0
 18 19  1  0  0  0  0
 19 27  1  0  0  0  0
 19 20  2  0  0  0  0
  8  9  1  0  0  0  0
  9 17  1  0  0  0  0
  9 10  2  0  0  0  0
 28 31  1  0  0  0  0
 18 21  1  0  0  0  0
  8 11  1  0  0  0  0
 37 38  1  0  0  0  0
 27 28  1  0  0  0  0
 17 18  1  0  0  0  0
  7  8  1  0  0  0  0
  3  4  1  0  0  0  0
  3  5  1  0  0  0  0
  3  6  1  0  0  0  0
 31 34  1  0  0  0  0
 31 35  1  0  0  0  0
 31 36  1  0  0  0  0
 21 24  1  0  0  0  0
 21 25  1  0  0  0  0
 21 26  1  0  0  0  0
 11 14  1  0  0  0  0
 11 15  1  0  0  0  0
 11 16  1  0  0  0  0
 38 40  1  0  0  0  0
 38 41  1  0  0  0  0
 38 42  1  0  0  0  0
 28 33  1  0  0  0  0
 18 23  1  0  0  0  0
  8 13  1  0  0  0  0
 37 39  1  0  0  0  0
  7 12  1  0  0  0  0
 27 32  1  0  0  0  0
 17 22  1  0  0  0  0
M  END
$$$$

  -OEChem-05262214473D

 42 41  0     1  0  0  0  0  0999 V2000
   -5.7851   -0.9580    0.6237 C   0  0  0  0  0  0  0  0  0  0  0  0
   -6.2213    0.1296    0.2652 O   0  0  0  0  0  0  0  0  0  0  0  0
   -6.7088   -2.1270    0.7168 C   0  0  0  0  0  0  0  0  0  0  0  0
   -7.1713   -2.2193    1.7126 H   0  0  0  0  0  0  0  0  0  0  0  0
   -7.5511   -2.0547    0.0101 H   0  0  0  0  0  0  0  0  0  0  0  0
   -6.2485   -3.1083    0.5191 H   0  0  0  0  0  0  0  0  0  0  0  0
   -4.4733   -1.2411    0.9668 N   0  0  0  0  0  0  0  0  0  0  0  0
   -3.4203   -0.2603    0.9449 C   0  0  2  0  0  0  0  0  0  0  0  0
   -2.1242   -0.9699    0.5759 C   0  0  0  0  0  0  0  0  0  0  0  0
   -1.8694   -2.1225    0.9189 O   0  0  0  0  0  0  0  0  0  0  0  0
   -3.2916    0.4435    2.2868 C   0  0  0  0  0  0  0  0  0  0  0  0
   -4.2421   -2.1920    1.2489 H   0  0  0  0  0  0  0  0  0  0  0  0
   -3.6772    0.4622    0.1625 H   0  0  0  0  0  0  0  0  0  0  0  0
   -3.0345   -0.2644    3.0832 H   0  0  0  0  0  0  0  0  0  0  0  0
   -2.5093    1.2092    2.2599 H   0  0  0  0  0  0  0  0  0  0  0  0
   -4.2338    0.9283    2.5645 H   0  0  0  0  0  0  0  0  0  0  0  0
   -1.2626   -0.1515   -0.1463 N   0  0  0  0  0  0  0  0  0  0  0  0
    0.0431   -0.5785   -0.5755 C   0  0  2  0  0  0  0  0  0  0  0  0
    0.3761    0.1541   -1.8685 C   0  0  0  0  0  0  0  0  0  0  0  0
   -0.2829    0.0297   -2.8988 O   0  0  0  0  0  0  0  0  0  0  0  0
    0.0945   -2.0851   -0.7757 C   0  0  0  0  0  0  0  0  0  0  0  0
   -1.5766    0.7776   -0.4197 H   0  0  0  0  0  0  0  0  0  0  0  0
    0.7476   -0.2772    0.2074 H   0  0  0  0  0  0  0  0  0  0  0  0
   -0.6047   -2.4058   -1.5565 H   0  0  0  0  0  0  0  0  0  0  0  0
    1.0961   -2.4117   -1.0745 H   0  0  0  0  0  0  0  0  0  0  0  0
   -0.1742   -2.6103    0.1472 H   0  0  0  0  0  0  0  0  0  0  0  0
    1.5226    0.9326   -1.7529 N   0  0  0  0  0  0  0  0  0  0  0  0
    2.0670    1.6883   -2.8501 C   0  0  2  0  0  0  0  0  0  0  0  0
    3.5809    1.7275   -2.6887 C   0  0  0  0  0  0  0  0  0  0  0  0
    4.1380    1.7653   -1.5936 O   0  0  0  0  0  0  0  0  0  0  0  0
    1.4885    3.0940   -2.8947 C   0  0  0  0  0  0  0  0  0  0  0  0
    1.9806    1.0062   -0.8466 H   0  0  0  0  0  0  0  0  0  0  0  0
    1.8107    1.1451   -3.7662 H   0  0  0  0  0  0  0  0  0  0  0  0
    1.7349    3.6536   -1.9850 H   0  0  0  0  0  0  0  0  0  0  0  0
    1.8821    3.6582   -3.7467 H   0  0  0  0  0  0  0  0  0  0  0  0
    0.3969    3.0637   -2.9808 H   0  0  0  0  0  0  0  0  0  0  0  0
    4.2355    1.7591   -3.9121 N   0  0  0  0  0  0  0  0  0  0  0  0
    5.6729    1.8414   -4.0253 C   0  0  0  0  0  0  0  0  0  0  0  0
    3.6961    1.6836   -4.7695 H   0  0  0  0  0  0  0  0  0  0  0  0
    5.9752    2.8961   -4.1053 H   0  0  0  0  0  0  0  0  0  0  0  0
    6.1371    1.3937   -3.1342 H   0  0  0  0  0  0  0  0  0  0  0  0
    6.0018    1.2968   -4.9227 H   0  0  0  0  0  0  0  0  0  0  0  0
  1  3  1  0  0  0  0
  1  7  1  0  0  0  0
  1  2  2  0  0  0  0
 28 29  1  0  0  0  0
 29 37  1  0  0  0  0
 29 30  2  0  0  0  0
 18 19  1  0  0  0  0
 19 27  1  0  0  0  0
 19 20  2  0  0  0  0
  8  9  1  0  0  0  0
  9 17  1  0  0  0  0
  9 10  2  0  0  0  0
 28 31  1  0  0  0  0
 18 21  1  0  0  0  0
  8 11  1  0  0  0  0
 37 38  1  0  0  0  0
 27 28  1  0  0  0  0
 17 18  1  0  0  0  0
  7  8  1  0  0  0  0
  3  4  1  0  0  0  0
  3  5  1  0  0  0  0
  3  6  1  0  0  0  0
 31 34  1  0  0  0  0
 31 35  1  0  0  0  0
 31 36  1  0  0  0  0
 21 24  1  0  0  0  0
 21 25  1  0  0  0  0
 21 26  1  0  0  0  0
 11 14  1  0  0  0  0
 11 15  1  0  0  0  0
 11 16  1  0  0  0  0
 38 40  1  0  0  0  0
 38 41  1  0  0  0  0
 38 42  1  0  0  0  0
 28 33  1  0  0  0  0
 18 23  1  0  0  0  0
  8 13  1  0  0  0  0
 37 39  1  0  0  0  0
  7 12  1  0  0  0  0
 27 32  1  0  0  0  0
 17 22  1  0  0  0  0
M  END
$$$$

  -OEChem-05262214473D

 42 41  0     1  0  0  0  0  0999 V2000
   -5.7851   -0.9580    0.6237 C   0  0  0  0  0  0  0  0  0  0  0  0
   -6.2213    0.1296    0.2652 O   0  0  0  0  0  0  0  0  0  0  0  0
   -6.7088   -2.1270    0.7168 C   0  0  0  0  0  0  0  0  0  0  0  0
   -7.1713   -2.2193    1.7126 H   0  0  0  0  0  0  0  0  0  0  0  0
   -7.5511   -2.0547    0.0101 H   0  0  0  0  0  0  0  0  0  0  0  0
   -6.2485   -3.1083    0.5191 H   0  0  0  0  0  0  0  0  0  0  0  0
   -4.4733   -1.2411    0.9668 N   0  0  0  0  0  0  0  0  0  0  0  0
   -3.4203   -0.2603    0.9449 C   0  0  2  0  0  0  0  0  0  0  0  0
   -2.1242   -0.9699    0.5759 C   0  0  0  0  0  0  0  0  0  0  0  0
   -1.8694   -2.1225    0.9189 O   0  0  0  0  0  0  0  0  0  0  0  0
   -3.2916    0.4435    2.2868 C   0  0  0  0  0  0  0  0  0  0  0  0
   -4.2421   -2.1920    1.2489 H   0  0  0  0  0  0  0  0  0  0  0  0
   -3.6772    0.4622    0.1625 H   0  0  0  0  0  0  0  0  0  0  0  0
   -3.0345   -0.2644    3.0832 H   0  0  0  0  0  0  0  0  0  0  0  0
   -2.5093    1.2092    2.2599 H   0  0  0  0  0  0  0  0  0  0  0  0
   -4.2338    0.9283    2.5645 H   0  0  0  0  0  0  0  0  0  0  0  0
   -1.2626   -0.1515   -0.1463 N   0  0  0  0  0  0  0  0  0  0  0  0
    0.0431   -0.5785   -0.5755 C   0  0  2  0  0  0  0  0  0  0  0  0
    0.3761    0.1541   -1.8685 C   0  0  0  0  0  0  0  0  0  0  0  0
   -0.4110    0.2480   -2.8081 O   0  0  0  0  0  0  0  0  0  0  0  0
    0.0945   -2.0851   -0.7757 C   0  0  0  0  0  0  0  0  0  0  0  0
   -1.5766    0.7776   -0.4197 H   0  0  0  0  0  0  0  0  0  0  0  0
    0.7476   -0.2772    0.2074 H   0  0  0  0  0  0  0  0  0  0  0  0
   -0.6047   -2.4058   -1.5565 H   0  0  0  0  0  0  0  0  0  0  0  0
    1.0961   -2.4117   -1.0745 H   0  0  0  0  0  0  0  0  0  0  0  0
   -0.1742   -2.6103    0.1472 H   0  0  0  0  0  0  0  0  0  0  0  0
    1.6729    0.6562   -1.8707 N   0  0  0  0  0  0  0  0  0  0  0  0
    2.2387    1.3518   -2.9965 C   0  0  2  0  0  0  0  0  0  0  0  0
    3.7314    1.0514   -3.0331 C   0  0  0  0  0  0  0  0  0  0  0  0
    4.4082    0.8905   -2.0197 O   0  0  0  0  0  0  0  0  0  0  0  0
    1.9876    2.8489   -2.9051 C   0  0  0  0  0  0  0  0  0  0  0  0
    2.2396    0.5650   -1.0299 H   0  0  0  0  0  0  0  0  0  0  0  0
    1.7612    0.9428   -3.8936 H   0  0  0  0  0  0  0  0  0  0  0  0
    2.4586    3.2765   -2.0124 H   0  0  0  0  0  0  0  0  0  0  0  0
    2.3938    3.3733   -3.7763 H   0  0  0  0  0  0  0  0  0  0  0  0
    0.9146    3.0614   -2.8488 H   0  0  0  0  0  0  0  0  0  0  0  0
    4.2272    1.0269   -4.3291 N   0  0  0  0  0  0  0  0  0  0  0  0
    5.6230    0.8043   -4.6258 C   0  0  0  0  0  0  0  0  0  0  0  0
    3.5871    1.1304   -5.1110 H   0  0  0  0  0  0  0  0  0  0  0  0
    6.1415    1.7717   -4.6996 H   0  0  0  0  0  0  0  0  0  0  0  0
    6.0774    0.2052   -3.8229 H   0  0  0  0  0  0  0  0  0  0  0  0
    5.7135    0.2662   -5.5809 H   0  0  0  0  0  0  0  0  0  0  0  0
  1  3  1  0  0  0  0
  1  7  1  0  0  0  0
  1  2  2  0  0  0  0
 28 29  1  0  0  0  0
 29 37  1  0  0  0  0
 29 30  2  0  0  0  0
 18 19  1  0  0  0  0
 19 27  1  0  0  0  0
 19 20  2  0  0  0  0
  8  9  1  0  0  0  0
  9 17  1  0  0  0  0
  9 10  2  0  0  0  0
 28 31  1  0  0  0  0
 18 21  1  0  0  0  0
  8 11  1  0  0  0  0
 37 38  1  0  0  0  0
 27 28  1  0  0  0  0
 17 18  1  0  0  0  0
  7  8  1  0  0  0  0
  3  4  1  0  0  0  0
  3  5  1  0  0  0  0
  3  6  1  0  0  0  0
 31 34  1  0  0  0  0
 31 35  1  0  0  0  0
 31 36  1  0  0  0  0
 21 24  1  0  0  0  0
 21 25  1  0  0  0  0
 21 26  1  0  0  0  0
 11 14  1  0  0  0  0
 11 15  1  0  0  0  0
 11 16  1  0  0  0  0
 38 40  1  0  0  0  0
 38 41  1  0  0  0  0
 38 42  1  0  0  0  0
 28 33  1  0  0  0  0
 18 23  1  0  0  0  0
  8 13  1  0  0  0  0
 37 39  1  0  0  0  0
  7 12  1  0  0  0  0
 27 32  1  0  0  0  0
 17 22  1  0  0  0  0
M  END
$$$$

  -OEChem-05262214473D

 42 41  0     1  0  0  0  0  0999 V2000
   -5.7851   -0.9580    0.6237 C   0  0  0  0  0  0  0  0  0  0  0  0
   -6.2213    0.1296    0.2652 O   0  0  0  0  0  0  0  0  0  0  0  0
   -6.7088   -2.1270    0.7168 C   0  0  0  0  0  0  0  0  0  0  0  0
   -7.1713   -2.2193    1.7126 H   0  0  0  0  0  0  0  0  0  0  0  0
   -7.5511   -2.0547    0.0101 H   0  0  0  0  0  0  0  0  0  0  0  0
   -6.2485   -3.1083    0.5191 H   0  0  0  0  0  0  0  0  0  0  0  0
   -4.4733   -1.2411    0.9668 N   0  0  0  0  0  0  0  0  0  0  0  0
   -3.4203   -0.2603    0.9449 C   0  0  2  0  0  0  0  0  0  0  0  0
   -2.1242   -0.9699    0.5759 C   0  0  0  0  0  0  0  0  0  0  0  0
   -1.8694   -2.1225    0.9189 O   0  0  0  0  0  0  0  0  0  0  0  0
   -3.2916    0.4435    2.2868 C   0  0  0  0  0  0  0  0  0  0  0  0
   -4.2421   -2.1920    1.2489 H   0  0  0  0  0  0  0  0  0  0  0  0
   -3.6772    0.4622    0.1625 H   0  0  0  0  0  0  0  0  0  0  0  0
   -3.0345   -0.2644    3.0832 H   0  0  0  0  0  0  0  0  0  0  0  0
   -2.5093    1.2092    2.2599 H   0  0  0  0  0  0  0  0  0  0  0  0
   -4.2338    0.9283    2.5645 H   0  0  0  0  0  0  0  0  0  0  0  0
   -1.2626   -0.1515   -0.1463 N   0  0  0  0  0  0  0  0  0  0  0  0
    0.0431   -0.5785   -0.5755 C   0  0  2  0  0  0  0  0  0  0  0  0
    0.3761    0.1541   -1.8685 C   0  0  0  0  0  0  0  0  0  0  0  0
   -0.4756    0.4819   -2.6922 O   0  0  0  0  0  0  0  0  0  0  0  0
    0.0945   -2.0851   -0.7757 C   0  0  0  0  0  0  0  0  0  0  0  0
   -1.5766    0.7776   -0.4197 H   0  0  0  0  0  0  0  0  0  0  0  0
    0.7476   -0.2772    0.2074 H   0  0  0  0  0  0  0  0  0  0  0  0
   -0.6047   -2.4058   -1.5565 H   0  0  0  0  0  0  0  0  0  0  0  0
    1.0961   -2.4117   -1.0745 H   0  0  0  0  0  0  0  0  0  0  0  0
   -0.1742   -2.6103    0.1472 H   0  0  0  0  0  0  0  0  0  0  0  0
    1.7426    0.3629   -2.0190 N   0  0  0  0  0  0  0  0  0  0  0  0
    2.3125    0.9973   -3.1784 C   0  0  2  0  0  0  0  0  0  0  0  0
    3.6853    0.3847   -3.4227 C   0  0  0  0  0  0  0  0  0  0  0  0
    4.4240    0.0103   -2.5143 O   0  0  0  0  0  0  0  0  0  0  0  0
    2.4147    2.5030   -2.9911 C   0  0  0  0  0  0  0  0  0  0  0  0
    2.3700    0.0923   -1.2641 H   0  0  0  0  0  0  0  0  0  0  0  0
    1.6531    0.7655   -4.0219 H   0  0  0  0  0  0  0  0  0  0  0  0
    3.0713    2.7547   -2.1503 H   0  0  0  0  0  0  0  0  0  0  0  0
    2.8218    2.9873   -3.8848 H   0  0  0  0  0  0  0  0  0  0  0  0
    1.4305    2.9379   -2.7859 H   0  0  0  0  0  0  0  0  0  0  0  0
    4.0063    0.3450   -4.7723 N   0  0  0  0  0  0  0  0  0  0  0  0
    5.2721   -0.1525   -5.2582 C   0  0  0  0  0  0  0  0  0  0  0  0
    3.3177    0.6393   -5.4586 H   0  0  0  0  0  0  0  0  0  0  0  0
    5.9811    0.6826   -5.3579 H   0  0  0  0  0  0  0  0  0  0  0  0
    5.6729   -0.8907   -4.5480 H   0  0  0  0  0  0  0  0  0  0  0  0
    5.1266   -0.6288   -6.2391 H   0  0  0  0  0  0  0  0  0  0  0  0
  1  3  1  0  0  0  0
  1  7  1  0  0  0  0
  1  2  2  0  0  0  0
 28 29  1  0  0  0  0
 29 37  1  0  0  0  0
 29 30  2  0  0  0  0
 18 19  1  0  0  0  0
 19 27  1  0  0  0  0
 19 20  2  0  0  0  0
  8  9  1  0  0  0  0
  9 17  1  0  0  0  0
  9 10  2  0  0  0  0
 28 31  1  0  0  0  0
 18 21  1  0  0  0  0
  8 11  1  0  0  0  0
 37 38  1  0  0  0  0
 27 28  1  0  0  0  0
 17 18  1  0  0  0  0
  7  8  1  0  0  0  0
  3  4  1  0  0  0  0
  3  5  1  0  0  0  0
  3  6  1  0  0  0  0
 31 34  1  0  0  0  0
 31 35  1  0  0  0  0
 31 36  1  0  0  0  0
 21 24  1  0  0  0  0
 21 25  1  0  0  0  0
 21 26  1  0  0  0  0
 11 14  1  0  0  0  0
 11 15  1  0  0  0  0
 11 16  1  0  0  0  0
 38 40  1  0  0  0  0
 38 41  1  0  0  0  0
 38 42  1  0  0  0  0
 28 33  1  0  0  0  0
 18 23  1  0  0  0  0
  8 13  1  0  0  0  0
 37 39  1  0  0  0  0
  7 12  1  0  0  0  0
 27 32  1  0  0  0  0
 17 22  1  0  0  0  0
M  END
$$$$

  -OEChem-05262214473D

 42 41  0     1  0  0  0  0  0999 V2000
   -5.7851   -0.9580    0.6237 C   0  0  0  0  0  0  0  0  0  0  0  0
   -6.2213    0.1296    0.2652 O   0  0  0  0  0  0  0  0  0  0  0  0
   -6.7088   -2.1270    0.7168 C   0  0  0  0  0  0  0  0  0  0  0  0
   -7.1713   -2.2193    1.7126 H   0  0  0  0  0  0  0  0  0  0  0  0
   -7.5511   -2.0547    0.0101 H   0  0  0  0  0  0  0  0  0  0  0  0
   -6.2485   -3.1083    0.5191 H   0  0  0  0  0  0  0  0  0  0  0  0
   -4.4733   -1.2411    0.9668 N   0  0  0  0  0  0  0  0  0  0  0  0
   -3.4203   -0.2603    0.9449 C   0  0  2  0  0  0  0  0  0  0  0  0
   -2.1242   -0.9699    0.5759 C   0  0  0  0  0  0  0  0  0  0  0  0
   -1.8694   -2.1225    0.9189 O   0  0  0  0  0  0  0  0  0  0  0  0
   -3.2916    0.4435    2.2868 C   0  0  0  0  0  0  0  0  0  0  0  0
   -4.2421   -2.1920    1.2489 H   0  0  0  0  0  0  0  0  0  0  0  0
   -3.6772    0.4622    0.1625 H   0  0  0  0  0  0  0  0  0  0  0  0
   -3.0345   -0.2644    3.0832 H   0  0  0  0  0  0  0  0  0  0  0  0
   -2.5093    1.2092    2.2599 H   0  0  0  0  0  0  0  0  0  0  0  0
   -4.2338    0.9283    2.5645 H   0  0  0  0  0  0  0  0  0  0  0  0
   -1.2626   -0.1515   -0.1463 N   0  0  0  0  0  0  0  0  0  0  0  0
    0.0431   -0.5785   -0.5755 C   0  0  2  0  0  0  0  0  0  0  0  0
    0.3761    0.1541   -1.8685 C   0  0  0  0  0  0  0  0  0  0  0  0
   -0.4721    0.7155   -2.5590 O   0  0  0  0  0  0  0  0  0  0  0  0
    0.0945   -2.0851   -0.7757 C   0  0  0  0  0  0  0  0  0  0  0  0
   -1.5766    0.7776   -0.4197 H   0  0  0  0  0  0  0  0  0  0  0  0
    0.7476   -0.2772    0.2074 H   0  0  0  0  0  0  0  0  0  0  0  0
   -0.6047   -2.4058   -1.5565 H   0  0  0  0  0  0  0  0  0  0  0  0
    1.0961   -2.4117   -1.0745 H   0  0  0  0  0  0  0  0  0  0  0  0
   -0.1742   -2.6103    0.1472 H   0  0  0  0  0  0  0  0  0  0  0  0
    1.7272    0.0726   -2.1874 N   0  0  0  0  0  0  0  0  0  0  0  0
    2.2831    0.6490   -3.3833 C   0  0  2  0  0  0  0  0  0  0  0  0
    3.4457   -0.2271   -3.8310 C   0  0  0  0  0  0  0  0  0  0  0  0
    4.1842   -0.8154   -3.0439 O   0  0  0  0  0  0  0  0  0  0  0  0
    2.7404    2.0800   -3.1469 C   0  0  0  0  0  0  0  0  0  0  0  0
    2.3629   -0.3797   -1.5333 H   0  0  0  0  0  0  0  0  0  0  0  0
    1.4937    0.6252   -4.1424 H   0  0  0  0  0  0  0  0  0  0  0  0
    3.5313    2.1238   -2.3892 H   0  0  0  0  0  0  0  0  0  0  0  0
    3.1369    2.5266   -4.0647 H   0  0  0  0  0  0  0  0  0  0  0  0
    1.9096    2.7018   -2.7964 H   0  0  0  0  0  0  0  0  0  0  0  0
    3.5880   -0.2400   -5.2115 N   0  0  0  0  0  0  0  0  0  0  0  0
    4.6442   -0.9638   -5.8796 C   0  0  0  0  0  0  0  0  0  0  0  0
    2.9064    0.2438   -5.7886 H   0  0  0  0  0  0  0  0  0  0  0  0
    5.5049   -0.2968   -6.0354 H   0  0  0  0  0  0  0  0  0  0  0  0
    4.9510   -1.8194   -5.2600 H   0  0  0  0  0  0  0  0  0  0  0  0
    4.2812   -1.3270   -6.8524 H   0  0  0  0  0  0  0  0  0  0  0  0
  1  3  1  0  0  0  0
  1  7  1  0  0  0  0
  1  2  2  0  0  0  0
 28 29  1  0  0  0  0
 29 37  1  0  0  0  0
 29 30  2  0  0  0  0
 18 19  1  0  0  0  0
 19 27  1  0  0  0  0
 19 20  2  0  0  0  0
  8  9  1  0  0  0  0
  9 17  1  0  0  0  0
  9 10  2  0  0  0  0
 28 31  1  0  0  0  0
 18 21  1  0  0  0  0
  8 11  1  0  0  0  0
 37 38  1  0  0  0  0
 27 28  1  0  0  0  0
 17 18  1  0  0  0  0
  7  8  1  0  0  0  0
  3  4  1  0  0  0  0
  3  5  1  0  0  0  0
  3  6  1  0  0  0  0
 31 34  1  0  0  0  0
 31 35  1  0  0  0  0
 31 36  1  0  0  0  0
 21 24  1  0  0  0  0
 21 25  1  0  0  0  0
 21 26  1  0  0  0  0
 11 14  1  0  0  0  0
 11 15  1  0  0  0  0
 11 16  1  0  0  0  0
 38 40  1  0  0  0  0
 38 41  1  0  0  0  0
 38 42  1  0  0  0  0
 28 33  1  0  0  0  0
 18 23  1  0  0  0  0
  8 13  1  0  0  0  0
 37 39  1  0  0  0  0
  7 12  1  0  0  0  0
 27 32  1  0  0  0  0
 17 22  1  0  0  0  0
M  END
$$$$

  -OEChem-05262214473D

 42 41  0     1  0  0  0  0  0999 V2000
   -5.7851   -0.9580    0.6237 C   0  0  0  0  0  0  0  0  0  0  0  0
   -6.2213    0.1296    0.2652 O   0  0  0  0  0  0  0  0  0  0  0  0
   -6.7088   -2.1270    0.7168 C   0  0  0  0  0  0  0  0  0  0  0  0
   -7.1713   -2.2193    1.7126 H   0  0  0  0  0  0  0  0  0  0  0  0
   -7.5511   -2.0547    0.0101 H   0  0  0  0  0  0  0  0  0  0  0  0
   -6.2485   -3.1083    0.5191 H   0  0  0  0  0  0  0  0  0  0  0  0
   -4.4733   -1.2411    0.9668 N   0  0  0  0  0  0  0  0  0  0  0  0
   -3.4203   -0.2603    0.9449 C   0  0  2  0  0  0  0  0  0  0  0  0
   -2.1242   -0.9699    0.5759 C   0  0  0  0  0  0  0  0  0  0  0  0
   -1.8694   -2.1225    0.9189 O   0  0  0  0  0  0  0  0  0  0  0  0
   -3.2916    0.4435    2.2868 C   0  0  0  0  0  0  0  0  0  0  0  0
   -4.2421   -2.1920    1.2489 H   0  0  0  0  0  0  0  0  0  0  0  0
   -3.6772    0.4622    0.1625 H   0  0  0  0  0  0  0  0  0  0  0  0
   -3.0345   -0.2644    3.0832 H   0  0  0  0  0  0  0  0  0  0  0  0
   -2.5093    1.2092    2.2599 H   0  0  0  0  0  0  0  0  0  0  0  0
   -4.2338    0.9283    2.5645 H   0  0  0  0  0  0  0  0  0  0  0  0
   -1.2626   -0.1515   -0.1463 N   0  0  0  0  0  0  0  0  0  0  0  0
    0.0431   -0.5785   -0.5755 C   0  0  2  0  0  0  0  0  0  0  0  0
    0.5351    0.4023   -1.6317 C   0  0  0  0  0  0  0  0  0  0  0  0
   -0.1369    1.3511   -2.0309 O   0  0  0  0  0  0  0  0  0  0  0  0
    0.0090   -1.9963   -1.1243 C   0  0  0  0  0  0  0  0  0  0  0  0
   -1.5766    0.7776   -0.4197 H   0  0  0  0  0  0  0  0  0  0  0  0
    0.6965   -0.5288    0.3024 H   0  0  0  0  0  0  0  0  0  0  0  0
   -0.6407   -2.0657   -2.0044 H   0  0  0  0  0  0  0  0  0  0  0  0
    1.0080   -2.3300   -1.4239 H   0  0  0  0  0  0  0  0  0  0  0  0
   -0.3732   -2.6959   -0.3731 H   0  0  0  0  0  0  0  0  0  0  0  0
    1.7978    0.0712   -2.1108 N   0  0  0  0  0  0  0  0  0  0  0  0
    2.4618    0.8206   -3.1447 C   0  0  2  0  0  0  0  0  0  0  0  0
    3.3142   -0.1479   -3.9539 C   0  0  0  0  0  0  0  0  0  0  0  0
    3.8762   -1.1223   -3.4582 O   0  0  0  0  0  0  0  0  0  0  0  0
    3.3136    1.9361   -2.5593 C   0  0  0  0  0  0  0  0  0  0  0  0
    2.2963   -0.7110   -1.6908 H   0  0  0  0  0  0  0  0  0  0  0  0
    1.6776    1.2401   -3.7844 H   0  0  0  0  0  0  0  0  0  0  0  0
    4.1048    1.5350   -1.9154 H   0  0  0  0  0  0  0  0  0  0  0  0
    3.7954    2.5231   -3.3482 H   0  0  0  0  0  0  0  0  0  0  0  0
    2.7040    2.6149   -1.9532 H   0  0  0  0  0  0  0  0  0  0  0  0
    3.4090    0.2283   -5.2865 N   0  0  0  0  0  0  0  0  0  0  0  0
    4.1968   -0.5052   -6.2495 C   0  0  0  0  0  0  0  0  0  0  0  0
    2.8776    1.0275   -5.6191 H   0  0  0  0  0  0  0  0  0  0  0  0
    5.2071   -0.0733   -6.3026 H   0  0  0  0  0  0  0  0  0  0  0  0
    4.2644   -1.5590   -5.9413 H   0  0  0  0  0  0  0  0  0  0  0  0
    3.7188   -0.4422   -7.2382 H   0  0  0  0  0  0  0  0  0  0  0  0
  1  3  1  0  0  0  0
  1  7  1  0  0  0  0
  1  2  2  0  0  0  0
 28 29  1  0  0  0  0
 29 37  1  0  0  0  0
 29 30  2  0  0  0  0
 18 19  1  0  0  0  0
 19 27  1  0  0  0  0
 19 20  2  0  0  0  0
  8  9  1  0  0  0  0
  9 17  1  0  0  0  0
  9 10  2  0  0  0  0
 28 31  1  0  0  0  0
 18 21  1  0  0  0  0
  8 11  1  0  0  0  0
 37 38  1  0  0  0  0
 27 28  1  0  0  0  0
 17 18  1  0  0  0  0
  7  8  1  0  0  0  0
  3  4  1  0  0  0  0
  3  5  1  0  0  0  0
  3  6  1  0  0  0  0
 31 34  1  0  0  0  0
 31 35  1  0  0  0  0
 31 36  1  0  0  0  0
 21 24  1  0  0  0  0
 21 25  1  0  0  0  0
 21 26  1  0  0  0  0
 11 14  1  0  0  0  0
 11 15  1  0  0  0  0
 11 16  1  0  0  0  0
 38 40  1  0  0  0  0
 38 41  1  0  0  0  0
 38 42  1  0  0  0  0
 28 33  1  0  0  0  0
 18 23  1  0  0  0  0
  8 13  1  0  0  0  0
 37 39  1  0  0  0  0
  7 12  1  0  0  0  0
 27 32  1  0  0  0  0
 17 22  1  0  0  0  0
M  END
$$$$

  -OEChem-05262214473D

 42 41  0     1  0  0  0  0  0999 V2000
   -5.7851   -0.9580    0.6237 C   0  0  0  0  0  0  0  0  0  0  0  0
   -6.2213    0.1296    0.2652 O   0  0  0  0  0  0  0  0  0  0  0  0
   -6.7088   -2.1270    0.7168 C   0  0  0  0  0  0  0  0  0  0  0  0
   -7.1713   -2.2193    1.7126 H   0  0  0  0  0  0  0  0  0  0  0  0
   -7.5511   -2.0547    0.0101 H   0  0  0  0  0  0  0  0  0  0  0  0
   -6.2485   -3.1083    0.5191 H   0  0  0  0  0  0  0  0  0  0  0  0
   -4.4733   -1.2411    0.9668 N   0  0  0  0  0  0  0  0  0  0  0  0
   -3.4203   -0.2603    0.9449 C   0  0  2  0  0  0  0  0  0  0  0  0
   -2.1242   -0.9699    0.5759 C   0  0  0  0  0  0  0  0  0  0  0  0
   -1.8694   -2.1225    0.9189 O   0  0  0  0  0  0  0  0  0  0  0  0
   -3.2916    0.4435    2.2868 C   0  0  0  0  0  0  0  0  0  0  0  0
   -4.2421   -2.1920    1.2489 H   0  0  0  0  0  0  0  0  0  0  0  0
   -3.6772    0.4622    0.1625 H   0  0  0  0  0  0  0  0  0  0  0  0
   -3.0345   -0.2644    3.0832 H   0  0  0  0  0  0  0  0  0  0  0  0
   -2.5093    1.2092    2.2599 H   0  0  0  0  0  0  0  0  0  0  0  0
   -4.2338    0.9283    2.5645 H   0  0  0  0  0  0  0  0  0  0  0  0
   -1.2626   -0.1515   -0.1463 N   0  0  0  0  0  0  0  0  0  0  0  0
    0.0431   -0.5785   -0.5755 C   0  0  2  0  0  0  0  0  0  0  0  0
    0.5351    0.4023   -1.6317 C   0  0  0  0  0  0  0  0  0  0  0  0
   -0.0029    1.4875   -1.8418 O   0  0  0  0  0  0  0  0  0  0  0  0
    0.0090   -1.9963   -1.1243 C   0  0  0  0  0  0  0  0  0  0  0  0
   -1.5766    0.7776   -0.4197 H   0  0  0  0  0  0  0  0  0  0  0  0
    0.6965   -0.5288    0.3024 H   0  0  0  0  0  0  0  0  0  0  0  0
   -0.6407   -2.0657   -2.0044 H   0  0  0  0  0  0  0  0  0  0  0  0
    1.0080   -2.3300   -1.4239 H   0  0  0  0  0  0  0  0  0  0  0  0
   -0.3732   -2.6959   -0.3731 H   0  0  0  0  0  0  0  0  0  0  0  0
    1.6213   -0.0926   -2.3451 N   0  0  0  0  0  0  0  0  0  0  0  0
    2.2404    0.6296   -3.4252 C   0  0  2  0  0  0  0  0  0  0  0  0
    2.7574   -0.3865   -4.4349 C   0  0  0  0  0  0  0  0  0  0  0  0
    3.1992   -1.4874   -4.1125 O   0  0  0  0  0  0  0  0  0  0  0  0
    3.3674    1.5182   -2.9224 C   0  0  0  0  0  0  0  0  0  0  0  0
    2.0254   -0.9865   -2.0729 H   0  0  0  0  0  0  0  0  0  0  0  0
    1.4567    1.2391   -3.8882 H   0  0  0  0  0  0  0  0  0  0  0  0
    4.1621    0.9251   -2.4552 H   0  0  0  0  0  0  0  0  0  0  0  0
    3.8185    2.0884   -3.7412 H   0  0  0  0  0  0  0  0  0  0  0  0
    2.9995    2.2286   -2.1743 H   0  0  0  0  0  0  0  0  0  0  0  0
    2.7075    0.0974   -5.7347 N   0  0  0  0  0  0  0  0  0  0  0  0
    3.1813   -0.6620   -6.8681 C   0  0  0  0  0  0  0  0  0  0  0  0
    2.2886    1.0052   -5.9141 H   0  0  0  0  0  0  0  0  0  0  0  0
    4.2329   -0.4077   -7.0669 H   0  0  0  0  0  0  0  0  0  0  0  0
    3.0992   -1.7369   -6.6493 H   0  0  0  0  0  0  0  0  0  0  0  0
    2.5724   -0.4202   -7.7517 H   0  0  0  0  0  0  0  0  0  0  0  0
  1  3  1  0  0  0  0
  1  7  1  0  0  0  0
  1  2  2  0  0  0  0
 28 29  1  0  0  0  0
 29 37  1  0  0  0  0
 29 30  2  0  0  0  0
 18 19  1  0  0  0  0
 19 27  1  0  0  0  0
 19 20  2  0  0  0  0
  8  9  1  0  0  0  0
  9 17  1  0  0  0  0
  9 10  2  0  0  0  0
 28 31  1  0  0  0  0
 18 21  1  0  0  0  0
  8 11  1  0  0  0  0
 37 38  1  0  0  0  0
 27 28  1  0  0  0  0
 17 18  1  0  0  0  0
  7  8  1  0  0  0  0
  3  4  1  0  0  0  0
  3  5  1  0  0  0  0
  3  6  1  0  0  0  0
 31 34  1  0  0  0  0
 31 35  1  0  0  0  0
 31 36  1  0  0  0  0
 21 24  1  0  0  0  0
 21 25  1  0  0  0  0
 21 26  1  0  0  0  0
 11 14  1  0  0  0  0
 11 15  1  0  0  0  0
 11 16  1  0  0  0  0
 38 40  1  0  0  0  0
 38 41  1  0  0  0  0
 38 42  1  0  0  0  0
 28 33  1  0  0  0  0
 18 23  1  0  0  0  0
  8 13  1  0  0  0  0
 37 39  1  0  0  0  0
  7 12  1  0  0  0  0
 27 32  1  0  0  0  0
 17 22  1  0  0  0  0
M  END
$$$$

  -OEChem-05262214473D

 42 41  0     1  0  0  0  0  0999 V2000
   -5.7851   -0.9580    0.6237 C   0  0  0  0  0  0  0  0  0  0  0  0
   -6.2213    0.1296    0.2652 O   0  0  0  0  0  0  0  0  0  0  0  0
   -6.7088   -2.1270    0.7168 C   0  0  0  0  0  0  0  0  0  0  0  0
   -7.1713   -2.2193    1.7126 H   0  0  0  0  0  0  0  0  0  0  0  0
   -7.5511   -2.0547    0.0101 H   0  0  0  0  0  0  0  0  0  0  0  0
   -6.2485   -3.1083    0.5191 H   0  0  0  0  0  0  0  0  0  0  0  0
   -4.4733   -1.2411    0.9668 N   0  0  0  0  0  0  0  0  0  0  0  0
   -3.4203   -0.2603    0.9449 C   0  0  2  0  0  0  0  0  0  0  0  0
   -2.1242   -0.9699    0.5759 C   0  0  0  0  0  0  0  0  0  0  0  0
   -1.8694   -2.1225    0.9189 O   0  0  0  0  0  0  0  0  0  0  0  0
   -3.2916    0.4435    2.2868 C   0  0  0  0  0  0  0  0  0  0  0  0
   -4.2421   -2.1920    1.2489 H   0  0  0  0  0  0  0  0  0  0  0  0
   -3.6772    0.4622    0.1625 H   0  0  0  0  0  0  0  0  0  0  0  0
   -3.0345   -0.2644    3.0832 H   0  0  0  0  0  0  0  0  0  0  0  0
   -2.5093    1.2092    2.2599 H   0  0  0  0  0  0  0  0  0  0  0  0
   -4.2338    0.9283    2.5645 H   0  0  0  0  0  0  0  0  0  0  0  0
   -1.2626   -0.1515   -0.1463 N   0  0  0  0  0  0  0  0  0  0  0  0
    0.0431   -0.5785   -0.5755 C   0  0  2  0  0  0  0  0  0  0  0  0
    0.5351    0.4023   -1.6317 C   0  0  0  0  0  0  0  0  0  0  0  0
    0.1826    1.5794   -1.6701 O   0  0  0  0  0  0  0  0  0  0  0  0
    0.0090   -1.9963   -1.1243 C   0  0  0  0  0  0  0  0  0  0  0  0
   -1.5766    0.7776   -0.4197 H   0  0  0  0  0  0  0  0  0  0  0  0
    0.6965   -0.5288    0.3024 H   0  0  0  0  0  0  0  0  0  0  0  0
   -0.6407   -2.0657   -2.0044 H   0  0  0  0  0  0  0  0  0  0  0  0
    1.0080   -2.3300   -1.4239 H   0  0  0  0  0  0  0  0  0  0  0  0
   -0.3732   -2.6959   -0.3731 H   0  0  0  0  0  0  0  0  0  0  0  0
    1.3824   -0.1995   -2.5556 N   0  0  0  0  0  0  0  0  0  0  0  0
    1.9455    0.5083   -3.6752 C   0  0  2  0  0  0  0  0  0  0  0  0
    2.0966   -0.4769   -4.8267 C   0  0  0  0  0  0  0  0  0  0  0  0
    2.3708   -1.6639   -4.6623 O   0  0  0  0  0  0  0  0  0  0  0  0
    3.2839    1.1352   -3.3169 C   0  0  0  0  0  0  0  0  0  0  0  0
    1.6507   -1.1722   -2.4198 H   0  0  0  0  0  0  0  0  0  0  0  0
    1.2258    1.2866   -3.9517 H   0  0  0  0  0  0  0  0  0  0  0  0
    4.0179    0.3707   -3.0371 H   0  0  0  0  0  0  0  0  0  0  0  0
    3.6974    1.6971   -4.1609 H   0  0  0  0  0  0  0  0  0  0  0  0
    3.1787    1.8210   -2.4693 H   0  0  0  0  0  0  0  0  0  0  0  0
    1.9318    0.1345   -6.0616 N   0  0  0  0  0  0  0  0  0  0  0  0
    2.0691   -0.5795   -7.3096 C   0  0  0  0  0  0  0  0  0  0  0  0
    1.6664    1.1141   -6.1028 H   0  0  0  0  0  0  0  0  0  0  0  0
    3.1044   -0.4919   -7.6707 H   0  0  0  0  0  0  0  0  0  0  0  0
    1.8238   -1.6404   -7.1538 H   0  0  0  0  0  0  0  0  0  0  0  0
    1.3834   -0.1502   -8.0549 H   0  0  0  0  0  0  0  0  0  0  0  0
  1  3  1  0  0  0  0
  1  7  1  0  0  0  0
  1  2  2  0  0  0  0
 28 29  1  0  0  0  0
 29 37  1  0  0  0  0
 29 30  2  0  0  0  0
 18 19  1  0  0  0  0
 19 27  1  0  0  0  0
 19 20  2  0  0  0  0
  8  9  1  0  0  0  0
  9 17  1  0  0  0  0
  9 10  2  0  0  0  0
 28 31  1  0  0  0  0
 18 21  1  0  0  0  0
  8 11  1  0  0  0  0
 37 38  1  0  0  0  0
 27 28  1  0  0  0  0
 17 18  1  0  0  0  0
  7  8  1  0  0  0  0
  3  4  1  0  0  0  0
  3  5  1  0  0  0  0
  3  6  1  0  0  0  0
 31 34  1  0  0  0  0
 31 35  1  0  0  0  0
 31 36  1  0  0  0  0
 21 24  1  0  0  0  0
 21 25  1  0  0  0  0
 21 26  1  0  0  0  0
 11 14  1  0  0  0  0
 11 15  1  0  0  0  0
 11 16  1  0  0  0  0
 38 40  1  0  0  0  0
 38 41  1  0  0  0  0
 38 42  1  0  0  0  0
 28 33  1  0  0  0  0
 18 23  1  0  0  0  0
  8 13  1  0  0  0  0
 37 39  1  0  0  0  0
  7 12  1  0  0  0  0
 27 32  1  0  0  0  0
 17 22  1  0  0  0  0
M  END
$$$$

  -OEChem-05262214473D

 42 41  0     1  0  0  0  0  0999 V2000
   -5.7851   -0.9580    0.6237 C   0  0  0  0  0  0  0  0  0  0  0  0
   -6.2213    0.1296    0.2652 O   0  0  0  0  0  0  0  0  0  0  0  0
   -6.7088   -2.1270    0.7168 C   0  0  0  0  0  0  0  0  0  0  0  0
   -7.1713   -2.2193    1.7126 H   0  0  0  0  0  0  0  0  0  0  0  0
   -7.5511   -2.0547    0.0101 H   0  0  0  0  0  0  0  0  0  0  0  0
   -6.2485   -3.1083    0.5191 H   0  0  0  0  0  0  0  0  0  0  0  0
   -4.4733   -1.2411    0.9668 N   0  0  0  0  0  0  0  0  0  0  0  0
   -3.4203   -0.2603    0.9449 C   0  0  2  0  0  0  0  0  0  0  0  0
   -2.1242   -0.9699    0.5759 C   0  0  0  0  0  0  0  0  0  0  0  0
   -1.8694   -2.1225    0.9189 O   0  0  0  0  0  0  0  0  0  0  0  0
   -3.2916    0.4435    2.2868 C   0  0  0  0  0  0  0  0  0  0  0  0
   -4.2421   -2.1920    1.2489 H   0  0  0  0  0  0  0  0  0  0  0  0
   -3.6772    0.4622    0.1625 H   0  0  0  0  0  0  0  0  0  0  0  0
   -3.0345   -0.2644    3.0832 H   0  0  0  0  0  0  0  0  0  0  0  0
   -2.5093    1.2092    2.2599 H   0  0  0  0  0  0  0  0  0  0  0  0
   -4.2338    0.9283    2.5645 H   0  0  0  0  0  0  0  0  0  0  0  0
   -1.2626   -0.1515   -0.1463 N   0  0  0  0  0  0  0  0  0  0  0  0
    0.0431   -0.5785   -0.5755 C   0  0  2  0  0  0  0  0  0  0  0  0
    0.5351    0.4023   -1.6317 C   0  0  0  0  0  0  0  0  0  0  0  0
    0.4068    1.6204   -1.5275 O   0  0  0  0  0  0  0  0  0  0  0  0
    0.0090   -1.9963   -1.1243 C   0  0  0  0  0  0  0  0  0  0  0  0
   -1.5766    0.7776   -0.4197 H   0  0  0  0  0  0  0  0  0  0  0  0
    0.6965   -0.5288    0.3024 H   0  0  0  0  0  0  0  0  0  0  0  0
   -0.6407   -2.0657   -2.0044 H   0  0  0  0  0  0  0  0  0  0  0  0
    1.0080   -2.3300   -1.4239 H   0  0  0  0  0  0  0  0  0  0  0  0
   -0.3732   -2.6959   -0.3731 H   0  0  0  0  0  0  0  0  0  0  0  0
    1.0973   -0.2422   -2.7281 N   0  0  0  0  0  0  0  0  0  0  0  0
    1.5972    0.4650   -3.8776 C   0  0  2  0  0  0  0  0  0  0  0  0
    1.3767   -0.4129   -5.1025 C   0  0  0  0  0  0  0  0  0  0  0  0
    1.4473   -1.6397   -5.0700 O   0  0  0  0  0  0  0  0  0  0  0  0
    3.0687    0.8132   -3.7162 C   0  0  0  0  0  0  0  0  0  0  0  0
    1.1975   -1.2552   -2.7080 H   0  0  0  0  0  0  0  0  0  0  0  0
    1.0007    1.3791   -3.9706 H   0  0  0  0  0  0  0  0  0  0  0  0
    3.6822   -0.0902   -3.6215 H   0  0  0  0  0  0  0  0  0  0  0  0
    3.4402    1.3761   -4.5788 H   0  0  0  0  0  0  0  0  0  0  0  0
    3.2295    1.4197   -2.8183 H   0  0  0  0  0  0  0  0  0  0  0  0
    1.1346    0.3368   -6.2451 N   0  0  0  0  0  0  0  0  0  0  0  0
    0.9360   -0.2633   -7.5437 C   0  0  0  0  0  0  0  0  0  0  0  0
    1.0536    1.3467   -6.1723 H   0  0  0  0  0  0  0  0  0  0  0  0
    1.8987   -0.3203   -8.0729 H   0  0  0  0  0  0  0  0  0  0  0  0
    0.5250   -1.2762   -7.4205 H   0  0  0  0  0  0  0  0  0  0  0  0
    0.2328    0.3493   -8.1269 H   0  0  0  0  0  0  0  0  0  0  0  0
  1  3  1  0  0  0  0
  1  7  1  0  0  0  0
  1  2  2  0  0  0  0
 28 29  1  0  0  0  0
 29 37  1  0  0  0  0
 29 30  2  0  0  0  0
 18 19  1  0  0  0  0
 19 27  1  0  0  0  0
 19 20  2  0  0  0  0
  8  9  1  0  0  0  0
  9 17  1  0  0  0  0
  9 10  2  0  0  0  0
 28 31  1  0  0  0  0
 18 21  1  0  0  0  0
  8 11  1  0  0  0  0
 37 38  1  0  0  0  0
 27 28  1  0  0  0  0
 17 18  1  0  0  0  0
  7  8  1  0  0  0  0
  3  4  1  0  0  0  0
  3  5  1  0  0  0  0
  3  6  1  0  0  0  0
 31 34  1  0  0  0  0
 31 35  1  0  0  0  0
 31 36  1  0  0  0  0
 21 24  1  0  0  0  0
 21 25  1  0  0  0  0
 21 26  1  0  0  0  0
 11 14  1  0  0  0  0
 11 15  1  0  0  0  0
 11 16  1  0  0  0  0
 38 40  1  0  0  0  0
 38 41  1  0  0  0  0
 38 42  1  0  0  0  0
 28 33  1  0  0  0  0
 18 23  1  0  0  0  0
  8 13  1  0  0  0  0
 37 39  1  0  0  0  0
  7 12  1  0  0  0  0
 27 32  1  0  0  0  0
 17 22  1  0  0  0  0
M  END
$$$$

  -OEChem-05262214473D

 42 41  0     1  0  0  0  0  0999 V2000
   -5.7851   -0.9580    0.6237 C   0  0  0  0  0  0  0  0  0  0  0  0
   -6.2213    0.1296    0.2652 O   0  0  0  0  0  0  0  0  0  0  0  0
   -6.7088   -2.1270    0.7168 C   0  0  0  0  0  0  0  0  0  0  0  0
   -7.1713   -2.2193    1.7126 H   0  0  0  0  0  0  0  0  0  0  0  0
   -7.5511   -2.0547    0.0101 H   0  0  0  0  0  0  0  0  0  0  0  0
   -6.2485   -3.1083    0.5191 H   0  0  0  0  0  0  0  0  0  0  0  0
   -4.4733   -1.2411    0.9668 N   0  0  0  0  0  0  0  0  0  0  0  0
   -3.4203   -0.2603    0.9449 C   0  0  2  0  0  0  0  0  0  0  0  0
   -2.1242   -0.9699    0.5759 C   0  0  0  0  0  0  0  0  0  0  0  0
   -1.8694   -2.1225    0.9189 O   0  0  0  0  0  0  0  0  0  0  0  0
   -3.2916    0.4435    2.2868 C   0  0  0  0  0  0  0  0  0  0  0  0
   -4.2421   -2.1920    1.2489 H   0  0  0  0  0  0  0  0  0  0  0  0
   -3.6772    0.4622    0.1625 H   0  0  0  0  0  0  0  0  0  0  0  0
   -3.0345   -0.2644    3.0832 H   0  0  0  0  0  0  0  0  0  0  0  0
   -2.5093    1.2092    2.2599 H   0  0  0  0  0  0  0  0  0  0  0  0
   -4.2338    0.9283    2.5645 H   0  0  0  0  0  0  0  0  0  0  0  0
   -1.2626   -0.1515   -0.1463 N   0  0  0  0  0  0  0  0  0  0  0  0
    0.0431   -0.5785   -0.5755 C   0  0  2  0  0  0  0  0  0  0  0  0
    0.5351    0.4023   -1.6317 C   0  0  0  0  0  0  0  0  0  0  0  0
    0.6546    1.6080   -1.4237 O   0  0  0  0  0  0  0  0  0  0  0  0
    0.0090   -1.9963   -1.1243 C   0  0  0  0  0  0  0  0  0  0  0  0
   -1.5766    0.7776   -0.4197 H   0  0  0  0  0  0  0  0  0  0  0  0
    0.6965   -0.5288    0.3024 H   0  0  0  0  0  0  0  0  0  0  0  0
   -0.6407   -2.0657   -2.0044 H   0  0  0  0  0  0  0  0  0  0  0  0
    1.0080   -2.3300   -1.4239 H   0  0  0  0  0  0  0  0  0  0  0  0
   -0.3732   -2.6959   -0.3731 H   0  0  0  0  0  0  0  0  0  0  0  0
    0.7854   -0.2180   -2.8508 N   0  0  0  0  0  0  0  0  0  0  0  0
    1.2193    0.5026   -4.0187 C   0  0  2  0  0  0  0  0  0  0  0  0
    0.6469   -0.1987   -5.2435 C   0  0  0  0  0  0  0  0  0  0  0  0
    0.4916   -1.4164   -5.3078 O   0  0  0  0  0  0  0  0  0  0  0  0
    2.7365    0.5742   -4.0929 C   0  0  0  0  0  0  0  0  0  0  0  0
    0.6968   -1.2300   -2.9178 H   0  0  0  0  0  0  0  0  0  0  0  0
    0.7968    1.5105   -3.9436 H   0  0  0  0  0  0  0  0  0  0  0  0
    3.1778   -0.4263   -4.1686 H   0  0  0  0  0  0  0  0  0  0  0  0
    3.0645    1.1471   -4.9665 H   0  0  0  0  0  0  0  0  0  0  0  0
    3.1483    1.0522   -3.1974 H   0  0  0  0  0  0  0  0  0  0  0  0
    0.3703    0.6907   -6.2725 N   0  0  0  0  0  0  0  0  0  0  0  0
   -0.1407    0.2651   -7.5545 C   0  0  0  0  0  0  0  0  0  0  0  0
    0.4918    1.6872   -6.1177 H   0  0  0  0  0  0  0  0  0  0  0  0
    0.6978    0.0956   -8.2461 H   0  0  0  0  0  0  0  0  0  0  0  0
   -0.7085   -0.6689   -7.4311 H   0  0  0  0  0  0  0  0  0  0  0  0
   -0.8009    1.0443   -7.9630 H   0  0  0  0  0  0  0  0  0  0  0  0
  1  3  1  0  0  0  0
  1  7  1  0  0  0  0
  1  2  2  0  0  0  0
 28 29  1  0  0  0  0
 29 37  1  0  0  0  0
 29 30  2  0  0  0  0
 18 19  1  0  0  0  0
 19 27  1  0  0  0  0
 19 20  2  0  0  0  0
  8  9  1  0  0  0  0
  9 17  1  0  0  0  0
  9 10  2  0  0  0  0
 28 31  1  0  0  0  0
 18 21  1  0  0  0  0
  8 11  1  0  0  0  0
 37 38  1  0  0  0  0
 27 28  1  0  0  0  0
 17 18  1  0  0  0  0
  7  8  1  0  0  0  0
  3  4  1  0  0  0  0
  3  5  1  0  0  0  0
  3  6  1  0  0  0  0
 31 34  1  0  0  0  0
 31 35  1  0  0  0  0
 31 36  1  0  0  0  0
 21 24  1  0  0  0  0
 21 25  1  0  0  0  0
 21 26  1  0  0  0  0
 11 14  1  0  0  0  0
 11 15  1  0  0  0  0
 11 16  1  0  0  0  0
 38 40  1  0  0  0  0
 38 41  1  0  0  0  0
 38 42  1  0  0  0  0
 28 33  1  0  0  0  0
 18 23  1  0  0  0  0
  8 13  1  0  0  0  0
 37 39  1  0  0  0  0
  7 12  1  0  0  0  0
 27 32  1  0  0  0  0
 17 22  1  0  0  0  0
M  END
$$$$

  -OEChem-05262214473D

 42 41  0     1  0  0  0  0  0999 V2000
   -5.7851   -0.9580    0.6237 C   0  0  0  0  0  0  0  0  0  0  0  0
   -6.2213    0.1296    0.2652 O   0  0  0  0  0  0  0  0  0  0  0  0
   -6.7088   -2.1270    0.7168 C   0  0  0  0  0  0  0  0  0  0  0  0
   -7.1713   -2.2193    1.7126 H   0  0  0  0  0  0  0  0  0  0  0  0
   -7.5511   -2.0547    0.0101 H   0  0  0  0  0  0  0  0  0  0  0  0
   -6.2485   -3.1083    0.5191 H   0  0  0  0  0  0  0  0  0  0  0  0
   -4.4733   -1.2411    0.9668 N   0  0  0  0  0  0  0  0  0  0  0  0
   -3.4203   -0.2603    0.9449 C   0  0  2  0  0  0  0  0  0  0  0  0
   -2.1242   -0.9699    0.5759 C   0  0  0  0  0  0  0  0  0  0  0  0
   -1.8694   -2.1225    0.9189 O   0  0  0  0  0  0  0  0  0  0  0  0
   -3.2916    0.4435    2.2868 C   0  0  0  0  0  0  0  0  0  0  0  0
   -4.2421   -2.1920    1.2489 H   0  0  0  0  0  0  0  0  0  0  0  0
   -3.6772    0.4622    0.1625 H   0  0  0  0  0  0  0  0  0  0  0  0
   -3.0345   -0.2644    3.0832 H   0  0  0  0  0  0  0  0  0  0  0  0
   -2.5093    1.2092    2.2599 H   0  0  0  0  0  0  0  0  0  0  0  0
   -4.2338    0.9283    2.5645 H   0  0  0  0  0  0  0  0  0  0  0  0
   -1.2626   -0.1515   -0.1463 N   0  0  0  0  0  0  0  0  0  0  0  0
    0.0431   -0.5785   -0.5755 C   0  0  2  0  0  0  0  0  0  0  0  0
    0.5351    0.4023   -1.6317 C   0  0  0  0  0  0  0  0  0  0  0  0
    0.9090    1.5428   -1.3657 O   0  0  0  0  0  0  0  0  0  0  0  0
    0.0090   -1.9963   -1.1243 C   0  0  0  0  0  0  0  0  0  0  0  0
   -1.5766    0.7776   -0.4197 H   0  0  0  0  0  0  0  0  0  0  0  0
    0.6965   -0.5288    0.3024 H   0  0  0  0  0  0  0  0  0  0  0  0
   -0.6407   -2.0657   -2.0044 H   0  0  0  0  0  0  0  0  0  0  0  0
    1.0080   -2.3300   -1.4239 H   0  0  0  0  0  0  0  0  0  0  0  0
   -0.3732   -2.6959   -0.3731 H   0  0  0  0  0  0  0  0  0  0  0  0
    0.4682   -0.1283   -2.9153 N   0  0  0  0  0  0  0  0  0  0  0  0
    0.8374    0.6185   -4.0889 C   0  0  2  0  0  0  0  0  0  0  0  0
   -0.0431    0.1509   -5.2403 C   0  0  0  0  0  0  0  0  0  0  0  0
   -0.4311   -1.0094   -5.3596 O   0  0  0  0  0  0  0  0  0  0  0  0
    2.3100    0.4345   -4.4213 C   0  0  0  0  0  0  0  0  0  0  0  0
    0.1828   -1.0982   -3.0349 H   0  0  0  0  0  0  0  0  0  0  0  0
    0.6278    1.6717   -3.8725 H   0  0  0  0  0  0  0  0  0  0  0  0
    2.5391   -0.6147   -4.6410 H   0  0  0  0  0  0  0  0  0  0  0  0
    2.5958    1.0257   -5.2975 H   0  0  0  0  0  0  0  0  0  0  0  0
    2.9408    0.7434   -3.5808 H   0  0  0  0  0  0  0  0  0  0  0  0
   -0.3090    1.1719   -6.1419 N   0  0  0  0  0  0  0  0  0  0  0  0
   -1.0877    0.9696   -7.3414 C   0  0  0  0  0  0  0  0  0  0  0  0
    0.0193    2.1123   -5.9430 H   0  0  0  0  0  0  0  0  0  0  0  0
   -0.4164    0.7273   -8.1785 H   0  0  0  0  0  0  0  0  0  0  0  0
   -1.7928    0.1400   -7.1850 H   0  0  0  0  0  0  0  0  0  0  0  0
   -1.6473    1.8875   -7.5742 H   0  0  0  0  0  0  0  0  0  0  0  0
  1  3  1  0  0  0  0
  1  7  1  0  0  0  0
  1  2  2  0  0  0  0
 28 29  1  0  0  0  0
 29 37  1  0  0  0  0
 29 30  2  0  0  0  0
 18 19  1  0  0  0  0
 19 27  1  0  0  0  0
 19 20  2  0  0  0  0
  8  9  1  0  0  0  0
  9 17  1  0  0  0  0
  9 10  2  0  0  0  0
 28 31  1  0  0  0  0
 18 21  1  0  0  0  0
  8 11  1  0  0  0  0
 37 38  1  0  0  0  0
 27 28  1  0  0  0  0
 17 18  1  0  0  0  0
  7  8  1  0  0  0  0
  3  4  1  0  0  0  0
  3  5  1  0  0  0  0
  3  6  1  0  0  0  0
 31 34  1  0  0  0  0
 31 35  1  0  0  0  0
 31 36  1  0  0  0  0
 21 24  1  0  0  0  0
 21 25  1  0  0  0  0
 21 26  1  0  0  0  0
 11 14  1  0  0  0  0
 11 15  1  0  0  0  0
 11 16  1  0  0  0  0
 38 40  1  0  0  0  0
 38 41  1  0  0  0  0
 38 42  1  0  0  0  0
 28 33  1  0  0  0  0
 18 23  1  0  0  0  0
  8 13  1  0  0  0  0
 37 39  1  0  0  0  0
  7 12  1  0  0  0  0
 27 32  1  0  0  0  0
 17 22  1  0  0  0  0
M  END
$$$$

  -OEChem-05262214473D

 42 41  0     1  0  0  0  0  0999 V2000
   -5.7851   -0.9580    0.6237 C   0  0  0  0  0  0  0  0  0  0  0  0
   -6.2213    0.1296    0.2652 O   0  0  0  0  0  0  0  0  0  0  0  0
   -6.7088   -2.1270    0.7168 C   0  0  0  0  0  0  0  0  0  0  0  0
   -7.1713   -2.2193    1.7126 H   0  0  0  0  0  0  0  0  0  0  0  0
   -7.5511   -2.0547    0.0101 H   0  0  0  0  0  0  0  0  0  0  0  0
   -6.2485   -3.1083    0.5191 H   0  0  0  0  0  0  0  0  0  0  0  0
   -4.4733   -1.2411    0.9668 N   0  0  0  0  0  0  0  0  0  0  0  0
   -3.4203   -0.2603    0.9449 C   0  0  2  0  0  0  0  0  0  0  0  0
   -2.1242   -0.9699    0.5759 C   0  0  0  0  0  0  0  0  0  0  0  0
   -1.8694   -2.1225    0.9189 O   0  0  0  0  0  0  0  0  0  0  0  0
   -3.2916    0.4435    2.2868 C   0  0  0  0  0  0  0  0  0  0  0  0
   -4.2421   -2.1920    1.2489 H   0  0  0  0  0  0  0  0  0  0  0  0
   -3.6772    0.4622    0.1625 H   0  0  0  0  0  0  0  0  0  0  0  0
   -3.0345   -0.2644    3.0832 H   0  0  0  0  0  0  0  0  0  0  0  0
   -2.5093    1.2092    2.2599 H   0  0  0  0  0  0  0  0  0  0  0  0
   -4.2338    0.9283    2.5645 H   0  0  0  0  0  0  0  0  0  0  0  0
   -1.2626   -0.1515   -0.1463 N   0  0  0  0  0  0  0  0  0  0  0  0
    0.0431   -0.5785   -0.5755 C   0  0  2  0  0  0  0  0  0  0  0  0
    0.5351    0.4023   -1.6317 C   0  0  0  0  0  0  0  0  0  0  0  0
    1.1526    1.4293   -1.3576 O   0  0  0  0  0  0  0  0  0  0  0  0
    0.0090   -1.9963   -1.1243 C   0  0  0  0  0  0  0  0  0  0  0  0
   -1.5766    0.7776   -0.4197 H   0  0  0  0  0  0  0  0  0  0  0  0
    0.6965   -0.5288    0.3024 H   0  0  0  0  0  0  0  0  0  0  0  0
   -0.6407   -2.0657   -2.0044 H   0  0  0  0  0  0  0  0  0  0  0  0
    1.0080   -2.3300   -1.4239 H   0  0  0  0  0  0  0  0  0  0  0  0
   -0.3732   -2.6959   -0.3731 H   0  0  0  0  0  0  0  0  0  0  0  0
    0.1671    0.0207   -2.9173 N   0  0  0  0  0  0  0  0  0  0  0  0
    0.4777    0.8049   -4.0834 C   0  0  2  0  0  0  0  0  0  0  0  0
   -0.6463    0.6122   -5.0928 C   0  0  0  0  0  0  0  0  0  0  0  0
   -1.2579   -0.4462   -5.2218 O   0  0  0  0  0  0  0  0  0  0  0  0
    1.8181    0.4035   -4.6792 C   0  0  0  0  0  0  0  0  0  0  0  0
   -0.3096   -0.8689   -3.0513 H   0  0  0  0  0  0  0  0  0  0  0  0
    0.5054    1.8519   -3.7622 H   0  0  0  0  0  0  0  0  0  0  0  0
    1.8095   -0.6425   -5.0067 H   0  0  0  0  0  0  0  0  0  0  0  0
    2.0662    1.0203   -5.5493 H   0  0  0  0  0  0  0  0  0  0  0  0
    2.6210    0.5145   -3.9424 H   0  0  0  0  0  0  0  0  0  0  0  0
   -0.8569    1.7478   -5.8624 N   0  0  0  0  0  0  0  0  0  0  0  0
   -1.8404    1.8023   -6.9187 C   0  0  0  0  0  0  0  0  0  0  0  0
   -0.3316    2.5932   -5.6599 H   0  0  0  0  0  0  0  0  0  0  0  0
   -1.3680    1.5318   -7.8746 H   0  0  0  0  0  0  0  0  0  0  0  0
   -2.6540    1.0953   -6.6990 H   0  0  0  0  0  0  0  0  0  0  0  0
   -2.2488    2.8214   -6.9871 H   0  0  0  0  0  0  0  0  0  0  0  0
  1  3  1  0  0  0  0
  1  7  1  0  0  0  0
  1  2  2  0  0  0  0
 28 29  1  0  0  0  0
 29 37  1  0  0  0  0
 29 30  2  0  0  0  0
 18 19  1  0  0  0  0
 19 27  1  0  0  0  0
 19 20  2  0  0  0  0
  8  9  1  0  0  0  0
  9 17  1  0  0  0  0
  9 10  2  0  0  0  0
 28 31  1  0  0  0  0
 18 21  1  0  0  0  0
  8 11  1  0  0  0  0
 37 38  1  0  0  0  0
 27 28  1  0  0  0  0
 17 18  1  0  0  0  0
  7  8  1  0  0  0  0
  3  4  1  0  0  0  0
  3  5  1  0  0  0  0
  3  6  1  0  0  0  0
 31 34  1  0  0  0  0
 31 35  1  0  0  0  0
 31 36  1  0  0  0  0
 21 24  1  0  0  0  0
 21 25  1  0  0  0  0
 21 26  1  0  0  0  0
 11 14  1  0  0  0  0
 11 15  1  0  0  0  0
 11 16  1  0  0  0  0
 38 40  1  0  0  0  0
 38 41  1  0  0  0  0
 38 42  1  0  0  0  0
 28 33  1  0  0  0  0
 18 23  1  0  0  0  0
  8 13  1  0  0  0  0
 37 39  1  0  0  0  0
  7 12  1  0  0  0  0
 27 32  1  0  0  0  0
 17 22  1  0  0  0  0
M  END
$$$$

  -OEChem-05262214473D

 42 41  0     1  0  0  0  0  0999 V2000
   -5.7851   -0.9580    0.6237 C   0  0  0  0  0  0  0  0  0  0  0  0
   -6.2213    0.1296    0.2652 O   0  0  0  0  0  0  0  0  0  0  0  0
   -6.7088   -2.1270    0.7168 C   0  0  0  0  0  0  0  0  0  0  0  0
   -7.1713   -2.2193    1.7126 H   0  0  0  0  0  0  0  0  0  0  0  0
   -7.5511   -2.0547    0.0101 H   0  0  0  0  0  0  0  0  0  0  0  0
   -6.2485   -3.1083    0.5191 H   0  0  0  0  0  0  0  0  0  0  0  0
   -4.4733   -1.2411    0.9668 N   0  0  0  0  0  0  0  0  0  0  0  0
   -3.4203   -0.2603    0.9449 C   0  0  2  0  0  0  0  0  0  0  0  0
   -2.1242   -0.9699    0.5759 C   0  0  0  0  0  0  0  0  0  0  0  0
   -1.8694   -2.1225    0.9189 O   0  0  0  0  0  0  0  0  0  0  0  0
   -3.2916    0.4435    2.2868 C   0  0  0  0  0  0  0  0  0  0  0  0
   -4.2421   -2.1920    1.2489 H   0  0  0  0  0  0  0  0  0  0  0  0
   -3.6772    0.4622    0.1625 H   0  0  0  0  0  0  0  0  0  0  0  0
   -3.0345   -0.2644    3.0832 H   0  0  0  0  0  0  0  0  0  0  0  0
   -2.5093    1.2092    2.2599 H   0  0  0  0  0  0  0  0  0  0  0  0
   -4.2338    0.9283    2.5645 H   0  0  0  0  0  0  0  0  0  0  0  0
   -1.2626   -0.1515   -0.1463 N   0  0  0  0  0  0  0  0  0  0  0  0
    0.0431   -0.5785   -0.5755 C   0  0  2  0  0  0  0  0  0  0  0  0
    0.5351    0.4023   -1.6317 C   0  0  0  0  0  0  0  0  0  0  0  0
    1.3690    1.2752   -1.3999 O   0  0  0  0  0  0  0  0  0  0  0  0
    0.0090   -1.9963   -1.1243 C   0  0  0  0  0  0  0  0  0  0  0  0
   -1.5766    0.7776   -0.4197 H   0  0  0  0  0  0  0  0  0  0  0  0
    0.6965   -0.5288    0.3024 H   0  0  0  0  0  0  0  0  0  0  0  0
   -0.6407   -2.0657   -2.0044 H   0  0  0  0  0  0  0  0  0  0  0  0
    1.0080   -2.3300   -1.4239 H   0  0  0  0  0  0  0  0  0  0  0  0
   -0.3732   -2.6959   -0.3731 H   0  0  0  0  0  0  0  0  0  0  0  0
   -0.0974    0.2188   -2.8565 N   0  0  0  0  0  0  0  0  0  0  0  0
    0.1647    1.0491   -4.0025 C   0  0  2  0  0  0  0  0  0  0  0  0
   -1.1215    1.1537   -4.8114 C   0  0  0  0  0  0  0  0  0  0  0  0
   -1.9325    0.2346   -4.9038 O   0  0  0  0  0  0  0  0  0  0  0  0
    1.2945    0.4835   -4.8488 C   0  0  0  0  0  0  0  0  0  0  0  0
   -0.7468   -0.5576   -2.9659 H   0  0  0  0  0  0  0  0  0  0  0  0
    0.4379    2.0386   -3.6203 H   0  0  0  0  0  0  0  0  0  0  0  0
    1.0389   -0.5078   -5.2406 H   0  0  0  0  0  0  0  0  0  0  0  0
    1.5117    1.1311   -5.7046 H   0  0  0  0  0  0  0  0  0  0  0  0
    2.2108    0.3810   -4.2574 H   0  0  0  0  0  0  0  0  0  0  0  0
   -1.2363    2.3790   -5.4529 N   0  0  0  0  0  0  0  0  0  0  0  0
   -2.3476    2.7064   -6.3154 C   0  0  0  0  0  0  0  0  0  0  0  0
   -0.5370    3.0970   -5.2878 H   0  0  0  0  0  0  0  0  0  0  0  0
   -2.0921    2.4543   -7.3552 H   0  0  0  0  0  0  0  0  0  0  0  0
   -3.2333    2.1320   -6.0061 H   0  0  0  0  0  0  0  0  0  0  0  0
   -2.5642    3.7823   -6.2417 H   0  0  0  0  0  0  0  0  0  0  0  0
  1  3  1  0  0  0  0
  1  7  1  0  0  0  0
  1  2  2  0  0  0  0
 28 29  1  0  0  0  0
 29 37  1  0  0  0  0
 29 30  2  0  0  0  0
 18 19  1  0  0  0  0
 19 27  1  0  0  0  0
 19 20  2  0  0  0  0
  8  9  1  0  0  0  0
  9 17  1  0  0  0  0
  9 10  2  0  0  0  0
 28 31  1  0  0  0  0
 18 21  1  0  0  0  0
  8 11  1  0  0  0  0
 37 38  1  0  0  0  0
 27 28  1  0  0  0  0
 17 18  1  0  0  0  0
  7  8  1  0  0  0  0
  3  4  1  0  0  0  0
  3  5  1  0  0  0  0
  3  6  1  0  0  0  0
 31 34  1  0  0  0  0
 31 35  1  0  0  0  0
 31 36  1  0  0  0  0
 21 24  1  0  0  0  0
 21 25  1  0  0  0  0
 21 26  1  0  0  0  0
 11 14  1  0  0  0  0
 11 15  1  0  0  0  0
 11 16  1  0  0  0  0
 38 40  1  0  0  0  0
 38 41  1  0  0  0  0
 38 42  1  0  0  0  0
 28 33  1  0  0  0  0
 18 23  1  0  0  0  0
  8 13  1  0  0  0  0
 37 39  1  0  0  0  0
  7 12  1  0  0  0  0
 27 32  1  0  0  0  0
 17 22  1  0  0  0  0
M  END
$$$$

  -OEChem-05262214473D

 42 41  0     1  0  0  0  0  0999 V2000
   -5.7851   -0.9580    0.6237 C   0  0  0  0  0  0  0  0  0  0  0  0
   -6.2213    0.1296    0.2652 O   0  0  0  0  0  0  0  0  0  0  0  0
   -6.7088   -2.1270    0.7168 C   0  0  0  0  0  0  0  0  0  0  0  0
   -7.1713   -2.2193    1.7126 H   0  0  0  0  0  0  0  0  0  0  0  0
   -7.5511   -2.0547    0.0101 H   0  0  0  0  0  0  0  0  0  0  0  0
   -6.2485   -3.1083    0.5191 H   0  0  0  0  0  0  0  0  0  0  0  0
   -4.4733   -1.2411    0.9668 N   0  0  0  0  0  0  0  0  0  0  0  0
   -3.4203   -0.2603    0.9449 C   0  0  2  0  0  0  0  0  0  0  0  0
   -2.1242   -0.9699    0.5759 C   0  0  0  0  0  0  0  0  0  0  0  0
   -1.8694   -2.1225    0.9189 O   0  0  0  0  0  0  0  0  0  0  0  0
   -3.2916    0.4435    2.2868 C   0  0  0  0  0  0  0  0  0  0  0  0
   -4.2421   -2.1920    1.2489 H   0  0  0  0  0  0  0  0  0  0  0  0
   -3.6772    0.4622    0.1625 H   0  0  0  0  0  0  0  0  0  0  0  0
   -3.0345   -0.2644    3.0832 H   0  0  0  0  0  0  0  0  0  0  0  0
   -2.5093    1.2092    2.2599 H   0  0  0  0  0  0  0  0  0  0  0  0
   -4.2338    0.9283    2.5645 H   0  0  0  0  0  0  0  0  0  0  0  0
   -1.2626   -0.1515   -0.1463 N   0  0  0  0  0  0  0  0  0  0  0  0
    0.0431   -0.5785   -0.5755 C   0  0  2  0  0  0  0  0  0  0  0  0
    0.5351    0.4023   -1.6317 C   0  0  0  0  0  0  0  0  0  0  0  0
    1.5433    1.0912   -1.4897 O   0  0  0  0  0  0  0  0  0  0  0  0
    0.0090   -1.9963   -1.1243 C   0  0  0  0  0  0  0  0  0  0  0  0
   -1.5766    0.7776   -0.4197 H   0  0  0  0  0  0  0  0  0  0  0  0
    0.6965   -0.5288    0.3024 H   0  0  0  0  0  0  0  0  0  0  0  0
   -0.6407   -2.0657   -2.0044 H   0  0  0  0  0  0  0  0  0  0  0  0
    1.0080   -2.3300   -1.4239 H   0  0  0  0  0  0  0  0  0  0  0  0
   -0.3732   -2.6959   -0.3731 H   0  0  0  0  0  0  0  0  0  0  0  0
   -0.3071    0.4525   -2.7371 N   0  0  0  0  0  0  0  0  0  0  0  0
   -0.0804    1.3343   -3.8518 C   0  0  2  0  0  0  0  0  0  0  0  0
   -1.4365    1.7386   -4.4150 C   0  0  0  0  0  0  0  0  0  0  0  0
   -2.4089    0.9867   -4.4272 O   0  0  0  0  0  0  0  0  0  0  0  0
    0.7748    0.6688   -4.9187 C   0  0  0  0  0  0  0  0  0  0  0  0
   -1.0990   -0.1856   -2.7845 H   0  0  0  0  0  0  0  0  0  0  0  0
    0.4299    2.2193   -3.4563 H   0  0  0  0  0  0  0  0  0  0  0  0
    0.2797   -0.2199   -5.3268 H   0  0  0  0  0  0  0  0  0  0  0  0
    0.9701    1.3507   -5.7530 H   0  0  0  0  0  0  0  0  0  0  0  0
    1.7380    0.3520   -4.5045 H   0  0  0  0  0  0  0  0  0  0  0  0
   -1.4212    3.0226   -4.9414 N   0  0  0  0  0  0  0  0  0  0  0  0
   -2.5747    3.6203   -5.5725 C   0  0  0  0  0  0  0  0  0  0  0  0
   -0.5830    3.5894   -4.8519 H   0  0  0  0  0  0  0  0  0  0  0  0
   -2.5393    3.4319   -6.6557 H   0  0  0  0  0  0  0  0  0  0  0  0
   -3.4913    3.1795   -5.1535 H   0  0  0  0  0  0  0  0  0  0  0  0
   -2.5722    4.7048   -5.3888 H   0  0  0  0  0  0  0  0  0  0  0  0
  1  3  1  0  0  0  0
  1  7  1  0  0  0  0
  1  2  2  0  0  0  0
 28 29  1  0  0  0  0
 29 37  1  0  0  0  0
 29 30  2  0  0  0  0
 18 19  1  0  0  0  0
 19 27  1  0  0  0  0
 19 20  2  0  0  0  0
  8  9  1  0  0  0  0
  9 17  1  0  0  0  0
  9 10  2  0  0  0  0
 28 31  1  0  0  0  0
 18 21  1  0  0  0  0
  8 11  1  0  0  0  0
 37 38  1  0  0  0  0
 27 28  1  0  0  0  0
 17 18  1  0  0  0  0
  7  8  1  0  0  0  0
  3  4  1  0  0  0  0
  3  5  1  0  0  0  0
  3  6  1  0  0  0  0
 31 34  1  0  0  0  0
 31 35  1  0  0  0  0
 31 36  1  0  0  0  0
 21 24  1  0  0  0  0
 21 25  1  0  0  0  0
 21 26  1  0  0  0  0
 11 14  1  0  0  0  0
 11 15  1  0  0  0  0
 11 16  1  0  0  0  0
 38 40  1  0  0  0  0
 38 41  1  0  0  0  0
 38 42  1  0  0  0  0
 28 33  1  0  0  0  0
 18 23  1  0  0  0  0
  8 13  1  0  0  0  0
 37 39  1  0  0  0  0
  7 12  1  0  0  0  0
 27 32  1  0  0  0  0
 17 22  1  0  0  0  0
M  END
$$$$

  -OEChem-05262214473D

 42 41  0     1  0  0  0  0  0999 V2000
   -5.7851   -0.9580    0.6237 C   0  0  0  0  0  0  0  0  0  0  0  0
   -6.2213    0.1296    0.2652 O   0  0  0  0  0  0  0  0  0  0  0  0
   -6.7088   -2.1270    0.7168 C   0  0  0  0  0  0  0  0  0  0  0  0
   -7.1713   -2.2193    1.7126 H   0  0  0  0  0  0  0  0  0  0  0  0
   -7.5511   -2.0547    0.0101 H   0  0  0  0  0  0  0  0  0  0  0  0
   -6.2485   -3.1083    0.5191 H   0  0  0  0  0  0  0  0  0  0  0  0
   -4.4733   -1.2411    0.9668 N   0  0  0  0  0  0  0  0  0  0  0  0
   -3.4203   -0.2603    0.9449 C   0  0  2  0  0  0  0  0  0  0  0  0
   -2.1242   -0.9699    0.5759 C   0  0  0  0  0  0  0  0  0  0  0  0
   -1.8694   -2.1225    0.9189 O   0  0  0  0  0  0  0  0  0  0  0  0
   -3.2916    0.4435    2.2868 C   0  0  0  0  0  0  0  0  0  0  0  0
   -4.2421   -2.1920    1.2489 H   0  0  0  0  0  0  0  0  0  0  0  0
   -3.6772    0.4622    0.1625 H   0  0  0  0  0  0  0  0  0  0  0  0
   -3.0345   -0.2644    3.0832 H   0  0  0  0  0  0  0  0  0  0  0  0
   -2.5093    1.2092    2.2599 H   0  0  0  0  0  0  0  0  0  0  0  0
   -4.2338    0.9283    2.5645 H   0  0  0  0  0  0  0  0  0  0  0  0
   -1.2626   -0.1515   -0.1463 N   0  0  0  0  0  0  0  0  0  0  0  0
    0.0431   -0.5785   -0.5755 C   0  0  2  0  0  0  0  0  0  0  0  0
    0.5351    0.4023   -1.6317 C   0  0  0  0  0  0  0  0  0  0  0  0
    1.6636    0.8896   -1.6208 O   0  0  0  0  0  0  0  0  0  0  0  0
    0.0090   -1.9963   -1.1243 C   0  0  0  0  0  0  0  0  0  0  0  0
   -1.5766    0.7776   -0.4197 H   0  0  0  0  0  0  0  0  0  0  0  0
    0.6965   -0.5288    0.3024 H   0  0  0  0  0  0  0  0  0  0  0  0
   -0.6407   -2.0657   -2.0044 H   0  0  0  0  0  0  0  0  0  0  0  0
    1.0080   -2.3300   -1.4239 H   0  0  0  0  0  0  0  0  0  0  0  0
   -0.3732   -2.6959   -0.3731 H   0  0  0  0  0  0  0  0  0  0  0  0
   -0.4479    0.7060   -2.5673 N   0  0  0  0  0  0  0  0  0  0  0  0
   -0.2409    1.6412   -3.6415 C   0  0  2  0  0  0  0  0  0  0  0  0
   -1.5697    2.3269   -3.9307 C   0  0  0  0  0  0  0  0  0  0  0  0
   -2.6547    1.7588   -3.8247 O   0  0  0  0  0  0  0  0  0  0  0  0
    0.2944    0.9470   -4.8842 C   0  0  0  0  0  0  0  0  0  0  0  0
   -1.3422    0.2217   -2.5195 H   0  0  0  0  0  0  0  0  0  0  0  0
    0.4819    2.3815   -3.2814 H   0  0  0  0  0  0  0  0  0  0  0  0
   -0.4163    0.2017   -5.2595 H   0  0  0  0  0  0  0  0  0  0  0  0
    0.4783    1.6641   -5.6911 H   0  0  0  0  0  0  0  0  0  0  0  0
    1.2350    0.4295   -4.6669 H   0  0  0  0  0  0  0  0  0  0  0  0
   -1.3990    3.6347   -4.3626 N   0  0  0  0  0  0  0  0  0  0  0  0
   -2.5061    4.4817   -4.7407 C   0  0  0  0  0  0  0  0  0  0  0  0
   -0.4665    4.0368   -4.3821 H   0  0  0  0  0  0  0  0  0  0  0  0
   -2.6793    4.3980   -5.8237 H   0  0  0  0  0  0  0  0  0  0  0  0
   -3.4104    4.1663   -4.1995 H   0  0  0  0  0  0  0  0  0  0  0  0
   -2.2722    5.5260   -4.4865 H   0  0  0  0  0  0  0  0  0  0  0  0
  1  3  1  0  0  0  0
  1  7  1  0  0  0  0
  1  2  2  0  0  0  0
 28 29  1  0  0  0  0
 29 37  1  0  0  0  0
 29 30  2  0  0  0  0
 18 19  1  0  0  0  0
 19 27  1  0  0  0  0
 19 20  2  0  0  0  0
  8  9  1  0  0  0  0
  9 17  1  0  0  0  0
  9 10  2  0  0  0  0
 28 31  1  0  0  0  0
 18 21  1  0  0  0  0
  8 11  1  0  0  0  0
 37 38  1  0  0  0  0
 27 28  1  0  0  0  0
 17 18  1  0  0  0  0
  7  8  1  0  0  0  0
  3  4  1  0  0  0  0
  3  5  1  0  0  0  0
  3  6  1  0  0  0  0
 31 34  1  0  0  0  0
 31 35  1  0  0  0  0
 31 36  1  0  0  0  0
 21 24  1  0  0  0  0
 21 25  1  0  0  0  0
 21 26  1  0  0  0  0
 11 14  1  0  0  0  0
 11 15  1  0  0  0  0
 11 16  1  0  0  0  0
 38 40  1  0  0  0  0
 38 41  1  0  0  0  0
 38 42  1  0  0  0  0
 28 33  1  0  0  0  0
 18 23  1  0  0  0  0
  8 13  1  0  0  0  0
 37 39  1  0  0  0  0
  7 12  1  0  0  0  0
 27 32  1  0  0  0  0
 17 22  1  0  0  0  0
M  END
$$$$

  -OEChem-05262214473D

 42 41  0     1  0  0  0  0  0999 V2000
   -5.7851   -0.9580    0.6237 C   0  0  0  0  0  0  0  0  0  0  0  0
   -6.2213    0.1296    0.2652 O   0  0  0  0  0  0  0  0  0  0  0  0
   -6.7088   -2.1270    0.7168 C   0  0  0  0  0  0  0  0  0  0  0  0
   -7.1713   -2.2193    1.7126 H   0  0  0  0  0  0  0  0  0  0  0  0
   -7.5511   -2.0547    0.0101 H   0  0  0  0  0  0  0  0  0  0  0  0
   -6.2485   -3.1083    0.5191 H   0  0  0  0  0  0  0  0  0  0  0  0
   -4.4733   -1.2411    0.9668 N   0  0  0  0  0  0  0  0  0  0  0  0
   -3.4203   -0.2603    0.9449 C   0  0  2  0  0  0  0  0  0  0  0  0
   -2.1242   -0.9699    0.5759 C   0  0  0  0  0  0  0  0  0  0  0  0
   -1.8694   -2.1225    0.9189 O   0  0  0  0  0  0  0  0  0  0  0  0
   -3.2916    0.4435    2.2868 C   0  0  0  0  0  0  0  0  0  0  0  0
   -4.2421   -2.1920    1.2489 H   0  0  0  0  0  0  0  0  0  0  0  0
   -3.6772    0.4622    0.1625 H   0  0  0  0  0  0  0  0  0  0  0  0
   -3.0345   -0.2644    3.0832 H   0  0  0  0  0  0  0  0  0  0  0  0
   -2.5093    1.2092    2.2599 H   0  0  0  0  0  0  0  0  0  0  0  0
   -4.2338    0.9283    2.5645 H   0  0  0  0  0  0  0  0  0  0  0  0
   -1.2626   -0.1515   -0.1463 N   0  0  0  0  0  0  0  0  0  0  0  0
    0.0431   -0.5785   -0.5755 C   0  0  2  0  0  0  0  0  0  0  0  0
    0.5351    0.4023   -1.6317 C   0  0  0  0  0  0  0  0  0  0  0  0
    1.7218    0.6842   -1.7844 O   0  0  0  0  0  0  0  0  0  0  0  0
    0.0090   -1.9963   -1.1243 C   0  0  0  0  0  0  0  0  0  0  0  0
   -1.5766    0.7776   -0.4197 H   0  0  0  0  0  0  0  0  0  0  0  0
    0.6965   -0.5288    0.3024 H   0  0  0  0  0  0  0  0  0  0  0  0
   -0.6407   -2.0657   -2.0044 H   0  0  0  0  0  0  0  0  0  0  0  0
    1.0080   -2.3300   -1.4239 H   0  0  0  0  0  0  0  0  0  0  0  0
   -0.3732   -2.6959   -0.3731 H   0  0  0  0  0  0  0  0  0  0  0  0
   -0.5100    0.9618   -2.3587 N   0  0  0  0  0  0  0  0  0  0  0  0
   -0.3057    1.9489   -3.3859 C   0  0  2  0  0  0  0  0  0  0  0  0
   -1.5120    2.8785   -3.3915 C   0  0  0  0  0  0  0  0  0  0  0  0
   -2.6530    2.4984   -3.1371 O   0  0  0  0  0  0  0  0  0  0  0  0
   -0.1139    1.2991   -4.7474 C   0  0  0  0  0  0  0  0  0  0  0  0
   -1.4598    0.6367   -2.1889 H   0  0  0  0  0  0  0  0  0  0  0  0
    0.5904    2.5142   -3.1076 H   0  0  0  0  0  0  0  0  0  0  0  0
   -1.0017    0.7282   -5.0433 H   0  0  0  0  0  0  0  0  0  0  0  0
    0.0698    2.0499   -5.5231 H   0  0  0  0  0  0  0  0  0  0  0  0
    0.7360    0.6083   -4.7333 H   0  0  0  0  0  0  0  0  0  0  0  0
   -1.1713    4.1736   -3.7562 N   0  0  0  0  0  0  0  0  0  0  0  0
   -2.1467    5.2318   -3.8766 C   0  0  0  0  0  0  0  0  0  0  0  0
   -0.1952    4.4088   -3.9103 H   0  0  0  0  0  0  0  0  0  0  0  0
   -2.5025    5.2868   -4.9160 H   0  0  0  0  0  0  0  0  0  0  0  0
   -2.9961    5.0252   -3.2089 H   0  0  0  0  0  0  0  0  0  0  0  0
   -1.6846    6.1899   -3.5962 H   0  0  0  0  0  0  0  0  0  0  0  0
  1  3  1  0  0  0  0
  1  7  1  0  0  0  0
  1  2  2  0  0  0  0
 28 29  1  0  0  0  0
 29 37  1  0  0  0  0
 29 30  2  0  0  0  0
 18 19  1  0  0  0  0
 19 27  1  0  0  0  0
 19 20  2  0  0  0  0
  8  9  1  0  0  0  0
  9 17  1  0  0  0  0
  9 10  2  0  0  0  0
 28 31  1  0  0  0  0
 18 21  1  0  0  0  0
  8 11  1  0  0  0  0
 37 38  1  0  0  0  0
 27 28  1  0  0  0  0
 17 18  1  0  0  0  0
  7  8  1  0  0  0  0
  3  4  1  0  0  0  0
  3  5  1  0  0  0  0
  3  6  1  0  0  0  0
 31 34  1  0  0  0  0
 31 35  1  0  0  0  0
 31 36  1  0  0  0  0
 21 24  1  0  0  0  0
 21 25  1  0  0  0  0
 21 26  1  0  0  0  0
 11 14  1  0  0  0  0
 11 15  1  0  0  0  0
 11 16  1  0  0  0  0
 38 40  1  0  0  0  0
 38 41  1  0  0  0  0
 38 42  1  0  0  0  0
 28 33  1  0  0  0  0
 18 23  1  0  0  0  0
  8 13  1  0  0  0  0
 37 39  1  0  0  0  0
  7 12  1  0  0  0  0
 27 32  1  0  0  0  0
 17 22  1  0  0  0  0
M  END
$$$$

  -OEChem-05262214473D

 42 41  0     1  0  0  0  0  0999 V2000
   -5.7851   -0.9580    0.6237 C   0  0  0  0  0  0  0  0  0  0  0  0
   -6.2213    0.1296    0.2652 O   0  0  0  0  0  0  0  0  0  0  0  0
   -6.7088   -2.1270    0.7168 C   0  0  0  0  0  0  0  0  0  0  0  0
   -7.1713   -2.2193    1.7126 H   0  0  0  0  0  0  0  0  0  0  0  0
   -7.5511   -2.0547    0.0101 H   0  0  0  0  0  0  0  0  0  0  0  0
   -6.2485   -3.1083    0.5191 H   0  0  0  0  0  0  0  0  0  0  0  0
   -4.4733   -1.2411    0.9668 N   0  0  0  0  0  0  0  0  0  0  0  0
   -3.4203   -0.2603    0.9449 C   0  0  2  0  0  0  0  0  0  0  0  0
   -2.1242   -0.9699    0.5759 C   0  0  0  0  0  0  0  0  0  0  0  0
   -1.8694   -2.1225    0.9189 O   0  0  0  0  0  0  0  0  0  0  0  0
   -3.2916    0.4435    2.2868 C   0  0  0  0  0  0  0  0  0  0  0  0
   -4.2421   -2.1920    1.2489 H   0  0  0  0  0  0  0  0  0  0  0  0
   -3.6772    0.4622    0.1625 H   0  0  0  0  0  0  0  0  0  0  0  0
   -3.0345   -0.2644    3.0832 H   0  0  0  0  0  0  0  0  0  0  0  0
   -2.5093    1.2092    2.2599 H   0  0  0  0  0  0  0  0  0  0  0  0
   -4.2338    0.9283    2.5645 H   0  0  0  0  0  0  0  0  0  0  0  0
   -1.2626   -0.1515   -0.1463 N   0  0  0  0  0  0  0  0  0  0  0  0
    0.0431   -0.5785   -0.5755 C   0  0  2  0  0  0  0  0  0  0  0  0
    0.5351    0.4023   -1.6317 C   0  0  0  0  0  0  0  0  0  0  0  0
    1.7139    0.4891   -1.9693 O   0  0  0  0  0  0  0  0  0  0  0  0
    0.0090   -1.9963   -1.1243 C   0  0  0  0  0  0  0  0  0  0  0  0
   -1.5766    0.7776   -0.4197 H   0  0  0  0  0  0  0  0  0  0  0  0
    0.6965   -0.5288    0.3024 H   0  0  0  0  0  0  0  0  0  0  0  0
   -0.6407   -2.0657   -2.0044 H   0  0  0  0  0  0  0  0  0  0  0  0
    1.0080   -2.3300   -1.4239 H   0  0  0  0  0  0  0  0  0  0  0  0
   -0.3732   -2.6959   -0.3731 H   0  0  0  0  0  0  0  0  0  0  0  0
   -0.4894    1.2027   -2.1254 N   0  0  0  0  0  0  0  0  0  0  0  0
   -0.2705    2.2364   -3.1026 C   0  0  2  0  0  0  0  0  0  0  0  0
   -1.2675    3.3560   -2.8342 C   0  0  0  0  0  0  0  0  0  0  0  0
   -2.4041    3.1550   -2.4114 O   0  0  0  0  0  0  0  0  0  0  0  0
   -0.4224    1.7010   -4.5179 C   0  0  0  0  0  0  0  0  0  0  0  0
   -1.4438    1.0310   -1.8153 H   0  0  0  0  0  0  0  0  0  0  0  0
    0.7480    2.6084   -2.9467 H   0  0  0  0  0  0  0  0  0  0  0  0
   -1.4366    1.3238   -4.6928 H   0  0  0  0  0  0  0  0  0  0  0  0
   -0.2275    2.4818   -5.2605 H   0  0  0  0  0  0  0  0  0  0  0  0
    0.2750    0.8760   -4.6994 H   0  0  0  0  0  0  0  0  0  0  0  0
   -0.7535    4.6025   -3.1632 N   0  0  0  0  0  0  0  0  0  0  0  0
   -1.5208    5.8197   -3.0391 C   0  0  0  0  0  0  0  0  0  0  0  0
    0.2122    4.6800   -3.4687 H   0  0  0  0  0  0  0  0  0  0  0  0
   -2.0208    6.0376   -3.9944 H   0  0  0  0  0  0  0  0  0  0  0  0
   -2.2767    5.6976   -2.2494 H   0  0  0  0  0  0  0  0  0  0  0  0
   -0.8495    6.6513   -2.7788 H   0  0  0  0  0  0  0  0  0  0  0  0
  1  3  1  0  0  0  0
  1  7  1  0  0  0  0
  1  2  2  0  0  0  0
 28 29  1  0  0  0  0
 29 37  1  0  0  0  0
 29 30  2  0  0  0  0
 18 19  1  0  0  0  0
 19 27  1  0  0  0  0
 19 20  2  0  0  0  0
  8  9  1  0  0  0  0
  9 17  1  0  0  0  0
  9 10  2  0  0  0  0
 28 31  1  0  0  0  0
 18 21  1  0  0  0  0
  8 11  1  0  0  0  0
 37 38  1  0  0  0  0
 27 28  1  0  0  0  0
 17 18  1  0  0  0  0
  7  8  1  0  0  0  0
  3  4  1  0  0  0  0
  3  5  1  0  0  0  0
  3  6  1  0  0  0  0
 31 34  1  0  0  0  0
 31 35  1  0  0  0  0
 31 36  1  0  0  0  0
 21 24  1  0  0  0  0
 21 25  1  0  0  0  0
 21 26  1  0  0  0  0
 11 14  1  0  0  0  0
 11 15  1  0  0  0  0
 11 16  1  0  0  0  0
 38 40  1  0  0  0  0
 38 41  1  0  0  0  0
 38 42  1  0  0  0  0
 28 33  1  0  0  0  0
 18 23  1  0  0  0  0
  8 13  1  0  0  0  0
 37 39  1  0  0  0  0
  7 12  1  0  0  0  0
 27 32  1  0  0  0  0
 17 22  1  0  0  0  0
M  END
$$$$

  -OEChem-05262214473D

 42 41  0     1  0  0  0  0  0999 V2000
   -5.7851   -0.9580    0.6237 C   0  0  0  0  0  0  0  0  0  0  0  0
   -6.2213    0.1296    0.2652 O   0  0  0  0  0  0  0  0  0  0  0  0
   -6.7088   -2.1270    0.7168 C   0  0  0  0  0  0  0  0  0  0  0  0
   -7.1713   -2.2193    1.7126 H   0  0  0  0  0  0  0  0  0  0  0  0
   -7.5511   -2.0547    0.0101 H   0  0  0  0  0  0  0  0  0  0  0  0
   -6.2485   -3.1083    0.5191 H   0  0  0  0  0  0  0  0  0  0  0  0
   -4.4733   -1.2411    0.9668 N   0  0  0  0  0  0  0  0  0  0  0  0
   -3.4203   -0.2603    0.9449 C   0  0  2  0  0  0  0  0  0  0  0  0
   -2.1242   -0.9699    0.5759 C   0  0  0  0  0  0  0  0  0  0  0  0
   -1.8694   -2.1225    0.9189 O   0  0  0  0  0  0  0  0  0  0  0  0
   -3.2916    0.4435    2.2868 C   0  0  0  0  0  0  0  0  0  0  0  0
   -4.2421   -2.1920    1.2489 H   0  0  0  0  0  0  0  0  0  0  0  0
   -3.6772    0.4622    0.1625 H   0  0  0  0  0  0  0  0  0  0  0  0
   -3.0345   -0.2644    3.0832 H   0  0  0  0  0  0  0  0  0  0  0  0
   -2.5093    1.2092    2.2599 H   0  0  0  0  0  0  0  0  0  0  0  0
   -4.2338    0.9283    2.5645 H   0  0  0  0  0  0  0  0  0  0  0  0
   -1.2626   -0.1515   -0.1463 N   0  0  0  0  0  0  0  0  0  0  0  0
    0.0431   -0.5785   -0.5755 C   0  0  2  0  0  0  0  0  0  0  0  0
    0.5351    0.4023   -1.6317 C   0  0  0  0  0  0  0  0  0  0  0  0
    1.6404    0.3175   -2.1628 O   0  0  0  0  0  0  0  0  0  0  0  0
    0.0090   -1.9963   -1.1243 C   0  0  0  0  0  0  0  0  0  0  0  0
   -1.5766    0.7776   -0.4197 H   0  0  0  0  0  0  0  0  0  0  0  0
    0.6965   -0.5288    0.3024 H   0  0  0  0  0  0  0  0  0  0  0  0
   -0.6407   -2.0657   -2.0044 H   0  0  0  0  0  0  0  0  0  0  0  0
    1.0080   -2.3300   -1.4239 H   0  0  0  0  0  0  0  0  0  0  0  0
   -0.3732   -2.6959   -0.3731 H   0  0  0  0  0  0  0  0  0  0  0  0
   -0.3873    1.4121   -1.8833 N   0  0  0  0  0  0  0  0  0  0  0  0
   -0.1377    2.4840   -2.8107 C   0  0  2  0  0  0  0  0  0  0  0  0
   -0.8526    3.7267   -2.2968 C   0  0  0  0  0  0  0  0  0  0  0  0
   -1.9248    3.6838   -1.6970 O   0  0  0  0  0  0  0  0  0  0  0  0
   -0.6099    2.1254   -4.2111 C   0  0  0  0  0  0  0  0  0  0  0  0
   -1.2953    1.3777   -1.4241 H   0  0  0  0  0  0  0  0  0  0  0  0
    0.9440    2.6576   -2.8097 H   0  0  0  0  0  0  0  0  0  0  0  0
   -1.6913    1.9478   -4.2319 H   0  0  0  0  0  0  0  0  0  0  0  0
   -0.3934    2.9304   -4.9211 H   0  0  0  0  0  0  0  0  0  0  0  0
   -0.1166    1.2146   -4.5674 H   0  0  0  0  0  0  0  0  0  0  0  0
   -0.1741    4.8922   -2.6243 N   0  0  0  0  0  0  0  0  0  0  0  0
   -0.6712    6.2052   -2.2854 C   0  0  0  0  0  0  0  0  0  0  0  0
    0.7279    4.8319   -3.0874 H   0  0  0  0  0  0  0  0  0  0  0  0
   -1.2672    6.5993   -3.1217 H   0  0  0  0  0  0  0  0  0  0  0  0
   -1.3012    6.1378   -1.3862 H   0  0  0  0  0  0  0  0  0  0  0  0
    0.1762    6.8787   -2.0898 H   0  0  0  0  0  0  0  0  0  0  0  0
  1  3  1  0  0  0  0
  1  7  1  0  0  0  0
  1  2  2  0  0  0  0
 28 29  1  0  0  0  0
 29 37  1  0  0  0  0
 29 30  2  0  0  0  0
 18 19  1  0  0  0  0
 19 27  1  0  0  0  0
 19 20  2  0  0  0  0
  8  9  1  0  0  0  0
  9 17  1  0  0  0  0
  9 10  2  0  0  0  0
 28 31  1  0  0  0  0
 18 21  1  0  0  0  0
  8 11  1  0  0  0  0
 37 38  1  0  0  0  0
 27 28  1  0  0  0  0
 17 18  1  0  0  0  0
  7  8  1  0  0  0  0
  3  4  1  0  0  0  0
  3  5  1  0  0  0  0
  3  6  1  0  0  0  0
 31 34  1  0  0  0  0
 31 35  1  0  0  0  0
 31 36  1  0  0  0  0
 21 24  1  0  0  0  0
 21 25  1  0  0  0  0
 21 26  1  0  0  0  0
 11 14  1  0  0  0  0
 11 15  1  0  0  0  0
 11 16  1  0  0  0  0
 38 40  1  0  0  0  0
 38 41  1  0  0  0  0
 38 42  1  0  0  0  0
 28 33  1  0  0  0  0
 18 23  1  0  0  0  0
  8 13  1  0  0  0  0
 37 39  1  0  0  0  0
  7 12  1  0  0  0  0
 27 32  1  0  0  0  0
 17 22  1  0  0  0  0
M  END
$$$$

  -OEChem-05262214473D

 42 41  0     1  0  0  0  0  0999 V2000
   -5.7851   -0.9580    0.6237 C   0  0  0  0  0  0  0  0  0  0  0  0
   -6.2213    0.1296    0.2652 O   0  0  0  0  0  0  0  0  0  0  0  0
   -6.7088   -2.1270    0.7168 C   0  0  0  0  0  0  0  0  0  0  0  0
   -7.1713   -2.2193    1.7126 H   0  0  0  0  0  0  0  0  0  0  0  0
   -7.5511   -2.0547    0.0101 H   0  0  0  0  0  0  0  0  0  0  0  0
   -6.2485   -3.1083    0.5191 H   0  0  0  0  0  0  0  0  0  0  0  0
   -4.4733   -1.2411    0.9668 N   0  0  0  0  0  0  0  0  0  0  0  0
   -3.4203   -0.2603    0.9449 C   0  0  2  0  0  0  0  0  0  0  0  0
   -2.1242   -0.9699    0.5759 C   0  0  0  0  0  0  0  0  0  0  0  0
   -1.8694   -2.1225    0.9189 O   0  0  0  0  0  0  0  0  0  0  0  0
   -3.2916    0.4435    2.2868 C   0  0  0  0  0  0  0  0  0  0  0  0
   -4.2421   -2.1920    1.2489 H   0  0  0  0  0  0  0  0  0  0  0  0
   -3.6772    0.4622    0.1625 H   0  0  0  0  0  0  0  0  0  0  0  0
   -3.0345   -0.2644    3.0832 H   0  0  0  0  0  0  0  0  0  0  0  0
   -2.5093    1.2092    2.2599 H   0  0  0  0  0  0  0  0  0  0  0  0
   -4.2338    0.9283    2.5645 H   0  0  0  0  0  0  0  0  0  0  0  0
   -1.2626   -0.1515   -0.1463 N   0  0  0  0  0  0  0  0  0  0  0  0
    0.0431   -0.5785   -0.5755 C   0  0  2  0  0  0  0  0  0  0  0  0
    0.5351    0.4023   -1.6317 C   0  0  0  0  0  0  0  0  0  0  0  0
    1.5064    0.1812   -2.3519 O   0  0  0  0  0  0  0  0  0  0  0  0
    0.0090   -1.9963   -1.1243 C   0  0  0  0  0  0  0  0  0  0  0  0
   -1.5766    0.7776   -0.4197 H   0  0  0  0  0  0  0  0  0  0  0  0
    0.6965   -0.5288    0.3024 H   0  0  0  0  0  0  0  0  0  0  0  0
   -0.6407   -2.0657   -2.0044 H   0  0  0  0  0  0  0  0  0  0  0  0
    1.0080   -2.3300   -1.4239 H   0  0  0  0  0  0  0  0  0  0  0  0
   -0.3732   -2.6959   -0.3731 H   0  0  0  0  0  0  0  0  0  0  0  0
   -0.2108    1.5759   -1.6490 N   0  0  0  0  0  0  0  0  0  0  0  0
    0.0837    2.6750   -2.5302 C   0  0  2  0  0  0  0  0  0  0  0  0
   -0.2958    3.9653   -1.8158 C   0  0  0  0  0  0  0  0  0  0  0  0
   -1.2479    4.0489   -1.0427 O   0  0  0  0  0  0  0  0  0  0  0  0
   -0.6637    2.5433   -3.8481 C   0  0  0  0  0  0  0  0  0  0  0  0
   -1.0245    1.6533   -1.0420 H   0  0  0  0  0  0  0  0  0  0  0  0
    1.1649    2.6586   -2.7059 H   0  0  0  0  0  0  0  0  0  0  0  0
   -1.7486    2.5578   -3.6922 H   0  0  0  0  0  0  0  0  0  0  0  0
   -0.4166    3.3651   -4.5282 H   0  0  0  0  0  0  0  0  0  0  0  0
   -0.4121    1.6009   -4.3463 H   0  0  0  0  0  0  0  0  0  0  0  0
    0.5274    5.0230   -2.1761 N   0  0  0  0  0  0  0  0  0  0  0  0
    0.3443    6.3620   -1.6667 C   0  0  0  0  0  0  0  0  0  0  0  0
    1.3170    4.8542   -2.7924 H   0  0  0  0  0  0  0  0  0  0  0  0
   -0.2930    6.9337   -2.3574 H   0  0  0  0  0  0  0  0  0  0  0  0
   -0.1360    6.3157   -0.6782 H   0  0  0  0  0  0  0  0  0  0  0  0
    1.3226    6.8567   -1.5762 H   0  0  0  0  0  0  0  0  0  0  0  0
  1  3  1  0  0  0  0
  1  7  1  0  0  0  0
  1  2  2  0  0  0  0
 28 29  1  0  0  0  0
 29 37  1  0  0  0  0
 29 30  2  0  0  0  0
 18 19  1  0  0  0  0
 19 27  1  0  0  0  0
 19 20  2  0  0  0  0
  8  9  1  0  0  0  0
  9 17  1  0  0  0  0
  9 10  2  0  0  0  0
 28 31  1  0  0  0  0
 18 21  1  0  0  0  0
  8 11  1  0  0  0  0
 37 38  1  0  0  0  0
 27 28  1  0  0  0  0
 17 18  1  0  0  0  0
  7  8  1  0  0  0  0
  3  4  1  0  0  0  0
  3  5  1  0  0  0  0
  3  6  1  0  0  0  0
 31 34  1  0  0  0  0
 31 35  1  0  0  0  0
 31 36  1  0  0  0  0
 21 24  1  0  0  0  0
 21 25  1  0  0  0  0
 21 26  1  0  0  0  0
 11 14  1  0  0  0  0
 11 15  1  0  0  0  0
 11 16  1  0  0  0  0
 38 40  1  0  0  0  0
 38 41  1  0  0  0  0
 38 42  1  0  0  0  0
 28 33  1  0  0  0  0
 18 23  1  0  0  0  0
  8 13  1  0  0  0  0
 37 39  1  0  0  0  0
  7 12  1  0  0  0  0
 27 32  1  0  0  0  0
 17 22  1  0  0  0  0
M  END
$$$$

  -OEChem-05262214473D

 42 41  0     1  0  0  0  0  0999 V2000
   -5.7851   -0.9580    0.6237 C   0  0  0  0  0  0  0  0  0  0  0  0
   -6.2213    0.1296    0.2652 O   0  0  0  0  0  0  0  0  0  0  0  0
   -6.7088   -2.1270    0.7168 C   0  0  0  0  0  0  0  0  0  0  0  0
   -7.1713   -2.2193    1.7126 H   0  0  0  0  0  0  0  0  0  0  0  0
   -7.5511   -2.0547    0.0101 H   0  0  0  0  0  0  0  0  0  0  0  0
   -6.2485   -3.1083    0.5191 H   0  0  0  0  0  0  0  0  0  0  0  0
   -4.4733   -1.2411    0.9668 N   0  0  0  0  0  0  0  0  0  0  0  0
   -3.4203   -0.2603    0.9449 C   0  0  2  0  0  0  0  0  0  0  0  0
   -2.1242   -0.9699    0.5759 C   0  0  0  0  0  0  0  0  0  0  0  0
   -1.8694   -2.1225    0.9189 O   0  0  0  0  0  0  0  0  0  0  0  0
   -3.2916    0.4435    2.2868 C   0  0  0  0  0  0  0  0  0  0  0  0
   -4.2421   -2.1920    1.2489 H   0  0  0  0  0  0  0  0  0  0  0  0
   -3.6772    0.4622    0.1625 H   0  0  0  0  0  0  0  0  0  0  0  0
   -3.0345   -0.2644    3.0832 H   0  0  0  0  0  0  0  0  0  0  0  0
   -2.5093    1.2092    2.2599 H   0  0  0  0  0  0  0  0  0  0  0  0
   -4.2338    0.9283    2.5645 H   0  0  0  0  0  0  0  0  0  0  0  0
   -1.2626   -0.1515   -0.1463 N   0  0  0  0  0  0  0  0  0  0  0  0
    0.0431   -0.5785   -0.5755 C   0  0  2  0  0  0  0  0  0  0  0  0
    0.5351    0.4023   -1.6317 C   0  0  0  0  0  0  0  0  0  0  0  0
    1.3209    0.0893   -2.5236 O   0  0  0  0  0  0  0  0  0  0  0  0
    0.0090   -1.9963   -1.1243 C   0  0  0  0  0  0  0  0  0  0  0  0
   -1.5766    0.7776   -0.4197 H   0  0  0  0  0  0  0  0  0  0  0  0
    0.6965   -0.5288    0.3024 H   0  0  0  0  0  0  0  0  0  0  0  0
   -0.6407   -2.0657   -2.0044 H   0  0  0  0  0  0  0  0  0  0  0  0
    1.0080   -2.3300   -1.4239 H   0  0  0  0  0  0  0  0  0  0  0  0
   -0.3732   -2.6959   -0.3731 H   0  0  0  0  0  0  0  0  0  0  0  0
    0.0282    1.6828   -1.4385 N   0  0  0  0  0  0  0  0  0  0  0  0
    0.3786    2.7963   -2.2803 C   0  0  2  0  0  0  0  0  0  0  0  0
    0.3650    4.0557   -1.4240 C   0  0  0  0  0  0  0  0  0  0  0  0
   -0.4194    4.2254   -0.4929 O   0  0  0  0  0  0  0  0  0  0  0  0
   -0.5802    2.9263   -3.4535 C   0  0  0  0  0  0  0  0  0  0  0  0
   -0.6497    1.8390   -0.6950 H   0  0  0  0  0  0  0  0  0  0  0  0
    1.3958    2.6112   -2.6424 H   0  0  0  0  0  0  0  0  0  0  0  0
   -1.6045    3.1121   -3.1102 H   0  0  0  0  0  0  0  0  0  0  0  0
   -0.2955    3.7563   -4.1085 H   0  0  0  0  0  0  0  0  0  0  0  0
   -0.5913    2.0085   -4.0513 H   0  0  0  0  0  0  0  0  0  0  0  0
    1.3031    4.9860   -1.8491 N   0  0  0  0  0  0  0  0  0  0  0  0
    1.4565    6.2795   -1.2253 C   0  0  0  0  0  0  0  0  0  0  0  0
    1.9391    4.7453   -2.6037 H   0  0  0  0  0  0  0  0  0  0  0  0
    0.8355    7.0179   -1.7536 H   0  0  0  0  0  0  0  0  0  0  0  0
    1.1394    6.2193   -0.1737 H   0  0  0  0  0  0  0  0  0  0  0  0
    2.5117    6.5867   -1.2731 H   0  0  0  0  0  0  0  0  0  0  0  0
  1  3  1  0  0  0  0
  1  7  1  0  0  0  0
  1  2  2  0  0  0  0
 28 29  1  0  0  0  0
 29 37  1  0  0  0  0
 29 30  2  0  0  0  0
 18 19  1  0  0  0  0
 19 27  1  0  0  0  0
 19 20  2  0  0  0  0
  8  9  1  0  0  0  0
  9 17  1  0  0  0  0
  9 10  2  0  0  0  0
 28 31  1  0  0  0  0
 18 21  1  0  0  0  0
  8 11  1  0  0  0  0
 37 38  1  0  0  0  0
 27 28  1  0  0  0  0
 17 18  1  0  0  0  0
  7  8  1  0  0  0  0
  3  4  1  0  0  0  0
  3  5  1  0  0  0  0
  3  6  1  0  0  0  0
 31 34  1  0  0  0  0
 31 35  1  0  0  0  0
 31 36  1  0  0  0  0
 21 24  1  0  0  0  0
 21 25  1  0  0  0  0
 21 26  1  0  0  0  0
 11 14  1  0  0  0  0
 11 15  1  0  0  0  0
 11 16  1  0  0  0  0
 38 40  1  0  0  0  0
 38 41  1  0  0  0  0
 38 42  1  0  0  0  0
 28 33  1  0  0  0  0
 18 23  1  0  0  0  0
  8 13  1  0  0  0  0
 37 39  1  0  0  0  0
  7 12  1  0  0  0  0
 27 32  1  0  0  0  0
 17 22  1  0  0  0  0
M  END
$$$$

  -OEChem-05262214473D

 42 41  0     1  0  0  0  0  0999 V2000
   -5.7851   -0.9580    0.6237 C   0  0  0  0  0  0  0  0  0  0  0  0
   -6.2213    0.1296    0.2652 O   0  0  0  0  0  0  0  0  0  0  0  0
   -6.7088   -2.1270    0.7168 C   0  0  0  0  0  0  0  0  0  0  0  0
   -7.1713   -2.2193    1.7126 H   0  0  0  0  0  0  0  0  0  0  0  0
   -7.5511   -2.0547    0.0101 H   0  0  0  0  0  0  0  0  0  0  0  0
   -6.2485   -3.1083    0.5191 H   0  0  0  0  0  0  0  0  0  0  0  0
   -4.4733   -1.2411    0.9668 N   0  0  0  0  0  0  0  0  0  0  0  0
   -3.4203   -0.2603    0.9449 C   0  0  2  0  0  0  0  0  0  0  0  0
   -2.1242   -0.9699    0.5759 C   0  0  0  0  0  0  0  0  0  0  0  0
   -1.8694   -2.1225    0.9189 O   0  0  0  0  0  0  0  0  0  0  0  0
   -3.2916    0.4435    2.2868 C   0  0  0  0  0  0  0  0  0  0  0  0
   -4.2421   -2.1920    1.2489 H   0  0  0  0  0  0  0  0  0  0  0  0
   -3.6772    0.4622    0.1625 H   0  0  0  0  0  0  0  0  0  0  0  0
   -3.0345   -0.2644    3.0832 H   0  0  0  0  0  0  0  0  0  0  0  0
   -2.5093    1.2092    2.2599 H   0  0  0  0  0  0  0  0  0  0  0  0
   -4.2338    0.9283    2.5645 H   0  0  0  0  0  0  0  0  0  0  0  0
   -1.2626   -0.1515   -0.1463 N   0  0  0  0  0  0  0  0  0  0  0  0
    0.0431   -0.5785   -0.5755 C   0  0  2  0  0  0  0  0  0  0  0  0
    0.5351    0.4023   -1.6317 C   0  0  0  0  0  0  0  0  0  0  0  0
    1.0967    0.0482   -2.6662 O   0  0  0  0  0  0  0  0  0  0  0  0
    0.0090   -1.9963   -1.1243 C   0  0  0  0  0  0  0  0  0  0  0  0
   -1.5766    0.7776   -0.4197 H   0  0  0  0  0  0  0  0  0  0  0  0
    0.6965   -0.5288    0.3024 H   0  0  0  0  0  0  0  0  0  0  0  0
   -0.6407   -2.0657   -2.0044 H   0  0  0  0  0  0  0  0  0  0  0  0
    1.0080   -2.3300   -1.4239 H   0  0  0  0  0  0  0  0  0  0  0  0
   -0.3732   -2.6959   -0.3731 H   0  0  0  0  0  0  0  0  0  0  0  0
    0.3133    1.7255   -1.2660 N   0  0  0  0  0  0  0  0  0  0  0  0
    0.7269    2.8396   -2.0778 C   0  0  2  0  0  0  0  0  0  0  0  0
    1.0849    3.9917   -1.1482 C   0  0  0  0  0  0  0  0  0  0  0  0
    0.5041    4.2012   -0.0852 O   0  0  0  0  0  0  0  0  0  0  0  0
   -0.3650    3.2483   -3.0543 C   0  0  0  0  0  0  0  0  0  0  0  0
   -0.1965    1.9220   -0.4068 H   0  0  0  0  0  0  0  0  0  0  0  0
    1.6209    2.5186   -2.6235 H   0  0  0  0  0  0  0  0  0  0  0  0
   -1.2687    3.5730   -2.5258 H   0  0  0  0  0  0  0  0  0  0  0  0
   -0.0383    4.0774   -3.6905 H   0  0  0  0  0  0  0  0  0  0  0  0
   -0.6421    2.4098   -3.7023 H   0  0  0  0  0  0  0  0  0  0  0  0
    2.1003    4.7837   -1.6657 N   0  0  0  0  0  0  0  0  0  0  0  0
    2.5896    5.9633   -0.9912 C   0  0  0  0  0  0  0  0  0  0  0  0
    2.5519    4.5127   -2.5342 H   0  0  0  0  0  0  0  0  0  0  0  0
    2.0412    6.8463   -1.3514 H   0  0  0  0  0  0  0  0  0  0  0  0
    2.4382    5.8550    0.0930 H   0  0  0  0  0  0  0  0  0  0  0  0
    3.6622    6.0872   -1.2010 H   0  0  0  0  0  0  0  0  0  0  0  0
  1  3  1  0  0  0  0
  1  7  1  0  0  0  0
  1  2  2  0  0  0  0
 28 29  1  0  0  0  0
 29 37  1  0  0  0  0
 29 30  2  0  0  0  0
 18 19  1  0  0  0  0
 19 27  1  0  0  0  0
 19 20  2  0  0  0  0
  8  9  1  0  0  0  0
  9 17  1  0  0  0  0
  9 10  2  0  0  0  0
 28 31  1  0  0  0  0
 18 21  1  0  0  0  0
  8 11  1  0  0  0  0
 37 38  1  0  0  0  0
 27 28  1  0  0  0  0
 17 18  1  0  0  0  0
  7  8  1  0  0  0  0
  3  4  1  0  0  0  0
  3  5  1  0  0  0  0
  3  6  1  0  0  0  0
 31 34  1  0  0  0  0
 31 35  1  0  0  0  0
 31 36  1  0  0  0  0
 21 24  1  0  0  0  0
 21 25  1  0  0  0  0
 21 26  1  0  0  0  0
 11 14  1  0  0  0  0
 11 15  1  0  0  0  0
 11 16  1  0  0  0  0
 38 40  1  0  0  0  0
 38 41  1  0  0  0  0
 38 42  1  0  0  0  0
 28 33  1  0  0  0  0
 18 23  1  0  0  0  0
  8 13  1  0  0  0  0
 37 39  1  0  0  0  0
  7 12  1  0  0  0  0
 27 32  1  0  0  0  0
 17 22  1  0  0  0  0
M  END
$$$$

  -OEChem-05262214473D

 42 41  0     1  0  0  0  0  0999 V2000
   -5.7851   -0.9580    0.6237 C   0  0  0  0  0  0  0  0  0  0  0  0
   -6.2213    0.1296    0.2652 O   0  0  0  0  0  0  0  0  0  0  0  0
   -6.7088   -2.1270    0.7168 C   0  0  0  0  0  0  0  0  0  0  0  0
   -7.1713   -2.2193    1.7126 H   0  0  0  0  0  0  0  0  0  0  0  0
   -7.5511   -2.0547    0.0101 H   0  0  0  0  0  0  0  0  0  0  0  0
   -6.2485   -3.1083    0.5191 H   0  0  0  0  0  0  0  0  0  0  0  0
   -4.4733   -1.2411    0.9668 N   0  0  0  0  0  0  0  0  0  0  0  0
   -3.4203   -0.2603    0.9449 C   0  0  2  0  0  0  0  0  0  0  0  0
   -2.1242   -0.9699    0.5759 C   0  0  0  0  0  0  0  0  0  0  0  0
   -1.8694   -2.1225    0.9189 O   0  0  0  0  0  0  0  0  0  0  0  0
   -3.2916    0.4435    2.2868 C   0  0  0  0  0  0  0  0  0  0  0  0
   -4.2421   -2.1920    1.2489 H   0  0  0  0  0  0  0  0  0  0  0  0
   -3.6772    0.4622    0.1625 H   0  0  0  0  0  0  0  0  0  0  0  0
   -3.0345   -0.2644    3.0832 H   0  0  0  0  0  0  0  0  0  0  0  0
   -2.5093    1.2092    2.2599 H   0  0  0  0  0  0  0  0  0  0  0  0
   -4.2338    0.9283    2.5645 H   0  0  0  0  0  0  0  0  0  0  0  0
   -1.2626   -0.1515   -0.1463 N   0  0  0  0  0  0  0  0  0  0  0  0
    0.0431   -0.5785   -0.5755 C   0  0  2  0  0  0  0  0  0  0  0  0
    0.5351    0.4023   -1.6317 C   0  0  0  0  0  0  0  0  0  0  0  0
    0.8489    0.0607   -2.7700 O   0  0  0  0  0  0  0  0  0  0  0  0
    0.0090   -1.9963   -1.1243 C   0  0  0  0  0  0  0  0  0  0  0  0
   -1.5766    0.7776   -0.4197 H   0  0  0  0  0  0  0  0  0  0  0  0
    0.6965   -0.5288    0.3024 H   0  0  0  0  0  0  0  0  0  0  0  0
   -0.6407   -2.0657   -2.0044 H   0  0  0  0  0  0  0  0  0  0  0  0
    1.0080   -2.3300   -1.4239 H   0  0  0  0  0  0  0  0  0  0  0  0
   -0.3732   -2.6959   -0.3731 H   0  0  0  0  0  0  0  0  0  0  0  0
    0.6251    1.7012   -1.1433 N   0  0  0  0  0  0  0  0  0  0  0  0
    1.1048    2.8020   -1.9367 C   0  0  2  0  0  0  0  0  0  0  0  0
    1.8147    3.7775   -1.0071 C   0  0  0  0  0  0  0  0  0  0  0  0
    1.4598    3.9779    0.1526 O   0  0  0  0  0  0  0  0  0  0  0  0
   -0.0328    3.4873   -2.6776 C   0  0  0  0  0  0  0  0  0  0  0  0
    0.3042    1.8968   -0.1971 H   0  0  0  0  0  0  0  0  0  0  0  0
    1.8248    2.3872   -2.6505 H   0  0  0  0  0  0  0  0  0  0  0  0
   -0.7643    3.9091   -1.9787 H   0  0  0  0  0  0  0  0  0  0  0  0
    0.3374    4.3064   -3.3029 H   0  0  0  0  0  0  0  0  0  0  0  0
   -0.5610    2.7773   -3.3232 H   0  0  0  0  0  0  0  0  0  0  0  0
    2.8646    4.4298   -1.6383 N   0  0  0  0  0  0  0  0  0  0  0  0
    3.6663    5.4349   -0.9803 C   0  0  0  0  0  0  0  0  0  0  0  0
    3.1137    4.1722   -2.5887 H   0  0  0  0  0  0  0  0  0  0  0  0
    3.2421    6.4304   -1.1782 H   0  0  0  0  0  0  0  0  0  0  0  0
    3.6717    5.2477    0.1036 H   0  0  0  0  0  0  0  0  0  0  0  0
    4.6959    5.3922   -1.3650 H   0  0  0  0  0  0  0  0  0  0  0  0
  1  3  1  0  0  0  0
  1  7  1  0  0  0  0
  1  2  2  0  0  0  0
 28 29  1  0  0  0  0
 29 37  1  0  0  0  0
 29 30  2  0  0  0  0
 18 19  1  0  0  0  0
 19 27  1  0  0  0  0
 19 20  2  0  0  0  0
  8  9  1  0  0  0  0
  9 17  1  0  0  0  0
  9 10  2  0  0  0  0
 28 31  1  0  0  0  0
 18 21  1  0  0  0  0
  8 11  1  0  0  0  0
 37 38  1  0  0  0  0
 27 28  1  0  0  0  0
 17 18  1  0  0  0  0
  7  8  1  0  0  0  0
  3  4  1  0  0  0  0
  3  5  1  0  0  0  0
  3  6  1  0  0  0  0
 31 34  1  0  0  0  0
 31 35  1  0  0  0  0
 31 36  1  0  0  0  0
 21 24  1  0  0  0  0
 21 25  1  0  0  0  0
 21 26  1  0  0  0  0
 11 14  1  0  0  0  0
 11 15  1  0  0  0  0
 11 16  1  0  0  0  0
 38 40  1  0  0  0  0
 38 41  1  0  0  0  0
 38 42  1  0  0  0  0
 28 33  1  0  0  0  0
 18 23  1  0  0  0  0
  8 13  1  0  0  0  0
 37 39  1  0  0  0  0
  7 12  1  0  0  0  0
 27 32  1  0  0  0  0
 17 22  1  0  0  0  0
M  END
$$$$

  -OEChem-05262214473D

 42 41  0     1  0  0  0  0  0999 V2000
   -5.7851   -0.9580    0.6237 C   0  0  0  0  0  0  0  0  0  0  0  0
   -6.2213    0.1296    0.2652 O   0  0  0  0  0  0  0  0  0  0  0  0
   -6.7088   -2.1270    0.7168 C   0  0  0  0  0  0  0  0  0  0  0  0
   -7.1713   -2.2193    1.7126 H   0  0  0  0  0  0  0  0  0  0  0  0
   -7.5511   -2.0547    0.0101 H   0  0  0  0  0  0  0  0  0  0  0  0
   -6.2485   -3.1083    0.5191 H   0  0  0  0  0  0  0  0  0  0  0  0
   -4.4733   -1.2411    0.9668 N   0  0  0  0  0  0  0  0  0  0  0  0
   -3.4203   -0.2603    0.9449 C   0  0  2  0  0  0  0  0  0  0  0  0
   -2.1242   -0.9699    0.5759 C   0  0  0  0  0  0  0  0  0  0  0  0
   -1.8694   -2.1225    0.9189 O   0  0  0  0  0  0  0  0  0  0  0  0
   -3.2916    0.4435    2.2868 C   0  0  0  0  0  0  0  0  0  0  0  0
   -4.2421   -2.1920    1.2489 H   0  0  0  0  0  0  0  0  0  0  0  0
   -3.6772    0.4622    0.1625 H   0  0  0  0  0  0  0  0  0  0  0  0
   -3.0345   -0.2644    3.0832 H   0  0  0  0  0  0  0  0  0  0  0  0
   -2.5093    1.2092    2.2599 H   0  0  0  0  0  0  0  0  0  0  0  0
   -4.2338    0.9283    2.5645 H   0  0  0  0  0  0  0  0  0  0  0  0
   -1.2626   -0.1515   -0.1463 N   0  0  0  0  0  0  0  0  0  0  0  0
    0.0431   -0.5785   -0.5755 C   0  0  2  0  0  0  0  0  0  0  0  0
    0.5351    0.4023   -1.6317 C   0  0  0  0  0  0  0  0  0  0  0  0
    0.5945    0.1259   -2.8280 O   0  0  0  0  0  0  0  0  0  0  0  0
    0.0090   -1.9963   -1.1243 C   0  0  0  0  0  0  0  0  0  0  0  0
   -1.5766    0.7776   -0.4197 H   0  0  0  0  0  0  0  0  0  0  0  0
    0.6965   -0.5288    0.3024 H   0  0  0  0  0  0  0  0  0  0  0  0
   -0.6407   -2.0657   -2.0044 H   0  0  0  0  0  0  0  0  0  0  0  0
    1.0080   -2.3300   -1.4239 H   0  0  0  0  0  0  0  0  0  0  0  0
   -0.3732   -2.6959   -0.3731 H   0  0  0  0  0  0  0  0  0  0  0  0
    0.9424    1.6116   -1.0788 N   0  0  0  0  0  0  0  0  0  0  0  0
    1.4867    2.6861   -1.8665 C   0  0  2  0  0  0  0  0  0  0  0  0
    2.5047    3.4279   -1.0104 C   0  0  0  0  0  0  0  0  0  0  0  0
    2.3825    3.5709    0.2044 O   0  0  0  0  0  0  0  0  0  0  0  0
    0.3938    3.6270   -2.3491 C   0  0  0  0  0  0  0  0  0  0  0  0
    0.8182    1.7650   -0.0800 H   0  0  0  0  0  0  0  0  0  0  0  0
    1.9938    2.2260   -2.7216 H   0  0  0  0  0  0  0  0  0  0  0  0
   -0.1256    4.0975   -1.5063 H   0  0  0  0  0  0  0  0  0  0  0  0
    0.8061    4.4278   -2.9719 H   0  0  0  0  0  0  0  0  0  0  0  0
   -0.3534    3.0861   -2.9398 H   0  0  0  0  0  0  0  0  0  0  0  0
    3.5438    3.9485   -1.7688 N   0  0  0  0  0  0  0  0  0  0  0  0
    4.6133    4.7304   -1.1935 C   0  0  0  0  0  0  0  0  0  0  0  0
    3.5862    3.7470   -2.7635 H   0  0  0  0  0  0  0  0  0  0  0  0
    4.3563    5.7987   -1.2459 H   0  0  0  0  0  0  0  0  0  0  0  0
    4.7560    4.4388   -0.1425 H   0  0  0  0  0  0  0  0  0  0  0  0
    5.5423    4.5490   -1.7538 H   0  0  0  0  0  0  0  0  0  0  0  0
  1  3  1  0  0  0  0
  1  7  1  0  0  0  0
  1  2  2  0  0  0  0
 28 29  1  0  0  0  0
 29 37  1  0  0  0  0
 29 30  2  0  0  0  0
 18 19  1  0  0  0  0
 19 27  1  0  0  0  0
 19 20  2  0  0  0  0
  8  9  1  0  0  0  0
  9 17  1  0  0  0  0
  9 10  2  0  0  0  0
 28 31  1  0  0  0  0
 18 21  1  0  0  0  0
  8 11  1  0  0  0  0
 37 38  1  0  0  0  0
 27 28  1  0  0  0  0
 17 18  1  0  0  0  0
  7  8  1  0  0  0  0
  3  4  1  0  0  0  0
  3  5  1  0  0  0  0
  3  6  1  0  0  0  0
 31 34  1  0  0  0  0
 31 35  1  0  0  0  0
 31 36  1  0  0  0  0
 21 24  1  0  0  0  0
 21 25  1  0  0  0  0
 21 26  1  0  0  0  0
 11 14  1  0  0  0  0
 11 15  1  0  0  0  0
 11 16  1  0  0  0  0
 38 40  1  0  0  0  0
 38 41  1  0  0  0  0
 38 42  1  0  0  0  0
 28 33  1  0  0  0  0
 18 23  1  0  0  0  0
  8 13  1  0  0  0  0
 37 39  1  0  0  0  0
  7 12  1  0  0  0  0
 27 32  1  0  0  0  0
 17 22  1  0  0  0  0
M  END
$$$$

  -OEChem-05262214473D

 42 41  0     1  0  0  0  0  0999 V2000
   -5.7851   -0.9580    0.6237 C   0  0  0  0  0  0  0  0  0  0  0  0
   -6.2213    0.1296    0.2652 O   0  0  0  0  0  0  0  0  0  0  0  0
   -6.7088   -2.1270    0.7168 C   0  0  0  0  0  0  0  0  0  0  0  0
   -7.1713   -2.2193    1.7126 H   0  0  0  0  0  0  0  0  0  0  0  0
   -7.5511   -2.0547    0.0101 H   0  0  0  0  0  0  0  0  0  0  0  0
   -6.2485   -3.1083    0.5191 H   0  0  0  0  0  0  0  0  0  0  0  0
   -4.4733   -1.2411    0.9668 N   0  0  0  0  0  0  0  0  0  0  0  0
   -3.4203   -0.2603    0.9449 C   0  0  2  0  0  0  0  0  0  0  0  0
   -2.1242   -0.9699    0.5759 C   0  0  0  0  0  0  0  0  0  0  0  0
   -1.8694   -2.1225    0.9189 O   0  0  0  0  0  0  0  0  0  0  0  0
   -3.2916    0.4435    2.2868 C   0  0  0  0  0  0  0  0  0  0  0  0
   -4.2421   -2.1920    1.2489 H   0  0  0  0  0  0  0  0  0  0  0  0
   -3.6772    0.4622    0.1625 H   0  0  0  0  0  0  0  0  0  0  0  0
   -3.0345   -0.2644    3.0832 H   0  0  0  0  0  0  0  0  0  0  0  0
   -2.5093    1.2092    2.2599 H   0  0  0  0  0  0  0  0  0  0  0  0
   -4.2338    0.9283    2.5645 H   0  0  0  0  0  0  0  0  0  0  0  0
   -1.2626   -0.1515   -0.1463 N   0  0  0  0  0  0  0  0  0  0  0  0
    0.0431   -0.5785   -0.5755 C   0  0  2  0  0  0  0  0  0  0  0  0
    0.5351    0.4023   -1.6317 C   0  0  0  0  0  0  0  0  0  0  0  0
    0.3509    0.2394   -2.8361 O   0  0  0  0  0  0  0  0  0  0  0  0
    0.0090   -1.9963   -1.1243 C   0  0  0  0  0  0  0  0  0  0  0  0
   -1.5766    0.7776   -0.4197 H   0  0  0  0  0  0  0  0  0  0  0  0
    0.6965   -0.5288    0.3024 H   0  0  0  0  0  0  0  0  0  0  0  0
   -0.6407   -2.0657   -2.0044 H   0  0  0  0  0  0  0  0  0  0  0  0
    1.0080   -2.3300   -1.4239 H   0  0  0  0  0  0  0  0  0  0  0  0
   -0.3732   -2.6959   -0.3731 H   0  0  0  0  0  0  0  0  0  0  0  0
    1.2435    1.4626   -1.0769 N   0  0  0  0  0  0  0  0  0  0  0  0
    1.8464    2.4997   -1.8720 C   0  0  2  0  0  0  0  0  0  0  0  0
    3.1079    2.9666   -1.1578 C   0  0  0  0  0  0  0  0  0  0  0  0
    3.2093    3.0078    0.0666 O   0  0  0  0  0  0  0  0  0  0  0  0
    0.8856    3.6580   -2.0913 C   0  0  0  0  0  0  0  0  0  0  0  0
    1.3106    1.5357   -0.0636 H   0  0  0  0  0  0  0  0  0  0  0  0
    2.1161    2.0459   -2.8319 H   0  0  0  0  0  0  0  0  0  0  0  0
    0.6040    4.1253   -1.1406 H   0  0  0  0  0  0  0  0  0  0  0  0
    1.3357    4.4332   -2.7201 H   0  0  0  0  0  0  0  0  0  0  0  0
   -0.0336    3.3150   -2.5782 H   0  0  0  0  0  0  0  0  0  0  0  0
    4.0918    3.3727   -2.0484 N   0  0  0  0  0  0  0  0  0  0  0  0
    5.3660    3.8977   -1.6161 C   0  0  0  0  0  0  0  0  0  0  0  0
    3.9371    3.2662   -3.0466 H   0  0  0  0  0  0  0  0  0  0  0  0
    5.3079    4.9942   -1.5497 H   0  0  0  0  0  0  0  0  0  0  0  0
    5.6172    3.4835   -0.6285 H   0  0  0  0  0  0  0  0  0  0  0  0
    6.1438    3.6151   -2.3408 H   0  0  0  0  0  0  0  0  0  0  0  0
  1  3  1  0  0  0  0
  1  7  1  0  0  0  0
  1  2  2  0  0  0  0
 28 29  1  0  0  0  0
 29 37  1  0  0  0  0
 29 30  2  0  0  0  0
 18 19  1  0  0  0  0
 19 27  1  0  0  0  0
 19 20  2  0  0  0  0
  8  9  1  0  0  0  0
  9 17  1  0  0  0  0
  9 10  2  0  0  0  0
 28 31  1  0  0  0  0
 18 21  1  0  0  0  0
  8 11  1  0  0  0  0
 37 38  1  0  0  0  0
 27 28  1  0  0  0  0
 17 18  1  0  0  0  0
  7  8  1  0  0  0  0
  3  4  1  0  0  0  0
  3  5  1  0  0  0  0
  3  6  1  0  0  0  0
 31 34  1  0  0  0  0
 31 35  1  0  0  0  0
 31 36  1  0  0  0  0
 21 24  1  0  0  0  0
 21 25  1  0  0  0  0
 21 26  1  0  0  0  0
 11 14  1  0  0  0  0
 11 15  1  0  0  0  0
 11 16  1  0  0  0  0
 38 40  1  0  0  0  0
 38 41  1  0  0  0  0
 38 42  1  0  0  0  0
 28 33  1  0  0  0  0
 18 23  1  0  0  0  0
  8 13  1  0  0  0  0
 37 39  1  0  0  0  0
  7 12  1  0  0  0  0
 27 32  1  0  0  0  0
 17 22  1  0  0  0  0
M  END
$$$$

  -OEChem-05262214473D

 42 41  0     1  0  0  0  0  0999 V2000
   -5.7851   -0.9580    0.6237 C   0  0  0  0  0  0  0  0  0  0  0  0
   -6.2213    0.1296    0.2652 O   0  0  0  0  0  0  0  0  0  0  0  0
   -6.7088   -2.1270    0.7168 C   0  0  0  0  0  0  0  0  0  0  0  0
   -7.1713   -2.2193    1.7126 H   0  0  0  0  0  0  0  0  0  0  0  0
   -7.5511   -2.0547    0.0101 H   0  0  0  0  0  0  0  0  0  0  0  0
   -6.2485   -3.1083    0.5191 H   0  0  0  0  0  0  0  0  0  0  0  0
   -4.4733   -1.2411    0.9668 N   0  0  0  0  0  0  0  0  0  0  0  0
   -3.4203   -0.2603    0.9449 C   0  0  2  0  0  0  0  0  0  0  0  0
   -2.1242   -0.9699    0.5759 C   0  0  0  0  0  0  0  0  0  0  0  0
   -1.8694   -2.1225    0.9189 O   0  0  0  0  0  0  0  0  0  0  0  0
   -3.2916    0.4435    2.2868 C   0  0  0  0  0  0  0  0  0  0  0  0
   -4.2421   -2.1920    1.2489 H   0  0  0  0  0  0  0  0  0  0  0  0
   -3.6772    0.4622    0.1625 H   0  0  0  0  0  0  0  0  0  0  0  0
   -3.0345   -0.2644    3.0832 H   0  0  0  0  0  0  0  0  0  0  0  0
   -2.5093    1.2092    2.2599 H   0  0  0  0  0  0  0  0  0  0  0  0
   -4.2338    0.9283    2.5645 H   0  0  0  0  0  0  0  0  0  0  0  0
   -1.2626   -0.1515   -0.1463 N   0  0  0  0  0  0  0  0  0  0  0  0
    0.0431   -0.5785   -0.5755 C   0  0  2  0  0  0  0  0  0  0  0  0
    0.5351    0.4023   -1.6317 C   0  0  0  0  0  0  0  0  0  0  0  0
    0.1345    0.3934   -2.7938 O   0  0  0  0  0  0  0  0  0  0  0  0
    0.0090   -1.9963   -1.1243 C   0  0  0  0  0  0  0  0  0  0  0  0
   -1.5766    0.7776   -0.4197 H   0  0  0  0  0  0  0  0  0  0  0  0
    0.6965   -0.5288    0.3024 H   0  0  0  0  0  0  0  0  0  0  0  0
   -0.6407   -2.0657   -2.0044 H   0  0  0  0  0  0  0  0  0  0  0  0
    1.0080   -2.3300   -1.4239 H   0  0  0  0  0  0  0  0  0  0  0  0
   -0.3732   -2.6959   -0.3731 H   0  0  0  0  0  0  0  0  0  0  0  0
    1.5079    1.2645   -1.1376 N   0  0  0  0  0  0  0  0  0  0  0  0
    2.1594    2.2556   -1.9529 C   0  0  2  0  0  0  0  0  0  0  0  0
    3.5832    2.4251   -1.4393 C   0  0  0  0  0  0  0  0  0  0  0  0
    3.8839    2.3269   -0.2514 O   0  0  0  0  0  0  0  0  0  0  0  0
    1.4092    3.5780   -1.9216 C   0  0  0  0  0  0  0  0  0  0  0  0
    1.7478    1.2244   -0.1490 H   0  0  0  0  0  0  0  0  0  0  0  0
    2.1837    1.8591   -2.9738 H   0  0  0  0  0  0  0  0  0  0  0  0
    1.3746    3.9907   -0.9067 H   0  0  0  0  0  0  0  0  0  0  0  0
    1.8902    4.3224   -2.5648 H   0  0  0  0  0  0  0  0  0  0  0  0
    0.3766    3.4485   -2.2632 H   0  0  0  0  0  0  0  0  0  0  0  0
    4.4712    2.7414   -2.4578 N   0  0  0  0  0  0  0  0  0  0  0  0
    5.8732    2.9936   -2.2195 C   0  0  0  0  0  0  0  0  0  0  0  0
    4.1426    2.7624   -3.4187 H   0  0  0  0  0  0  0  0  0  0  0  0
    6.0320    4.0717   -2.0691 H   0  0  0  0  0  0  0  0  0  0  0  0
    6.1965    2.4468   -1.3214 H   0  0  0  0  0  0  0  0  0  0  0  0
    6.4592    2.6542   -3.0863 H   0  0  0  0  0  0  0  0  0  0  0  0
  1  3  1  0  0  0  0
  1  7  1  0  0  0  0
  1  2  2  0  0  0  0
 28 29  1  0  0  0  0
 29 37  1  0  0  0  0
 29 30  2  0  0  0  0
 18 19  1  0  0  0  0
 19 27  1  0  0  0  0
 19 20  2  0  0  0  0
  8  9  1  0  0  0  0
  9 17  1  0  0  0  0
  9 10  2  0  0  0  0
 28 31  1  0  0  0  0
 18 21  1  0  0  0  0
  8 11  1  0  0  0  0
 37 38  1  0  0  0  0
 27 28  1  0  0  0  0
 17 18  1  0  0  0  0
  7  8  1  0  0  0  0
  3  4  1  0  0  0  0
  3  5  1  0  0  0  0
  3  6  1  0  0  0  0
 31 34  1  0  0  0  0
 31 35  1  0  0  0  0
 31 36  1  0  0  0  0
 21 24  1  0  0  0  0
 21 25  1  0  0  0  0
 21 26  1  0  0  0  0
 11 14  1  0  0  0  0
 11 15  1  0  0  0  0
 11 16  1  0  0  0  0
 38 40  1  0  0  0  0
 38 41  1  0  0  0  0
 38 42  1  0  0  0  0
 28 33  1  0  0  0  0
 18 23  1  0  0  0  0
  8 13  1  0  0  0  0
 37 39  1  0  0  0  0
  7 12  1  0  0  0  0
 27 32  1  0  0  0  0
 17 22  1  0  0  0  0
M  END
$$$$

  -OEChem-05262214473D

 42 41  0     1  0  0  0  0  0999 V2000
   -5.7851   -0.9580    0.6237 C   0  0  0  0  0  0  0  0  0  0  0  0
   -6.2213    0.1296    0.2652 O   0  0  0  0  0  0  0  0  0  0  0  0
   -6.7088   -2.1270    0.7168 C   0  0  0  0  0  0  0  0  0  0  0  0
   -7.1713   -2.2193    1.7126 H   0  0  0  0  0  0  0  0  0  0  0  0
   -7.5511   -2.0547    0.0101 H   0  0  0  0  0  0  0  0  0  0  0  0
   -6.2485   -3.1083    0.5191 H   0  0  0  0  0  0  0  0  0  0  0  0
   -4.4733   -1.2411    0.9668 N   0  0  0  0  0  0  0  0  0  0  0  0
   -3.4203   -0.2603    0.9449 C   0  0  2  0  0  0  0  0  0  0  0  0
   -2.1242   -0.9699    0.5759 C   0  0  0  0  0  0  0  0  0  0  0  0
   -1.8694   -2.1225    0.9189 O   0  0  0  0  0  0  0  0  0  0  0  0
   -3.2916    0.4435    2.2868 C   0  0  0  0  0  0  0  0  0  0  0  0
   -4.2421   -2.1920    1.2489 H   0  0  0  0  0  0  0  0  0  0  0  0
   -3.6772    0.4622    0.1625 H   0  0  0  0  0  0  0  0  0  0  0  0
   -3.0345   -0.2644    3.0832 H   0  0  0  0  0  0  0  0  0  0  0  0
   -2.5093    1.2092    2.2599 H   0  0  0  0  0  0  0  0  0  0  0  0
   -4.2338    0.9283    2.5645 H   0  0  0  0  0  0  0  0  0  0  0  0
   -1.2626   -0.1515   -0.1463 N   0  0  0  0  0  0  0  0  0  0  0  0
    0.0431   -0.5785   -0.5755 C   0  0  2  0  0  0  0  0  0  0  0  0
    0.5351    0.4023   -1.6317 C   0  0  0  0  0  0  0  0  0  0  0  0
   -0.0397    0.5775   -2.7041 O   0  0  0  0  0  0  0  0  0  0  0  0
    0.0090   -1.9963   -1.1243 C   0  0  0  0  0  0  0  0  0  0  0  0
   -1.5766    0.7776   -0.4197 H   0  0  0  0  0  0  0  0  0  0  0  0
    0.6965   -0.5288    0.3024 H   0  0  0  0  0  0  0  0  0  0  0  0
   -0.6407   -2.0657   -2.0044 H   0  0  0  0  0  0  0  0  0  0  0  0
    1.0080   -2.3300   -1.4239 H   0  0  0  0  0  0  0  0  0  0  0  0
   -0.3732   -2.6959   -0.3731 H   0  0  0  0  0  0  0  0  0  0  0  0
    1.7176    1.0308   -1.2570 N   0  0  0  0  0  0  0  0  0  0  0  0
    2.4045    1.9703   -2.1036 C   0  0  2  0  0  0  0  0  0  0  0  0
    3.8981    1.8402   -1.8357 C   0  0  0  0  0  0  0  0  0  0  0  0
    4.3603    1.5748   -0.7280 O   0  0  0  0  0  0  0  0  0  0  0  0
    1.9290    3.3926   -1.8517 C   0  0  0  0  0  0  0  0  0  0  0  0
    2.1000    0.8524   -0.3304 H   0  0  0  0  0  0  0  0  0  0  0  0
    2.1917    1.6785   -3.1378 H   0  0  0  0  0  0  0  0  0  0  0  0
    2.1337    3.7028   -0.8205 H   0  0  0  0  0  0  0  0  0  0  0  0
    2.4318    4.1028   -2.5164 H   0  0  0  0  0  0  0  0  0  0  0  0
    0.8493    3.4775   -2.0161 H   0  0  0  0  0  0  0  0  0  0  0  0
    4.6561    2.0978   -2.9694 N   0  0  0  0  0  0  0  0  0  0  0  0
    6.1003    2.0797   -2.9624 C   0  0  0  0  0  0  0  0  0  0  0  0
    4.1886    2.2700   -3.8546 H   0  0  0  0  0  0  0  0  0  0  0  0
    6.4793    3.0941   -2.7686 H   0  0  0  0  0  0  0  0  0  0  0  0
    6.4545    1.3993   -2.1740 H   0  0  0  0  0  0  0  0  0  0  0  0
    6.4672    1.7317   -3.9392 H   0  0  0  0  0  0  0  0  0  0  0  0
  1  3  1  0  0  0  0
  1  7  1  0  0  0  0
  1  2  2  0  0  0  0
 28 29  1  0  0  0  0
 29 37  1  0  0  0  0
 29 30  2  0  0  0  0
 18 19  1  0  0  0  0
 19 27  1  0  0  0  0
 19 20  2  0  0  0  0
  8  9  1  0  0  0  0
  9 17  1  0  0  0  0
  9 10  2  0  0  0  0
 28 31  1  0  0  0  0
 18 21  1  0  0  0  0
  8 11  1  0  0  0  0
 37 38  1  0  0  0  0
 27 28  1  0  0  0  0
 17 18  1  0  0  0  0
  7  8  1  0  0  0  0
  3  4  1  0  0  0  0
  3  5  1  0  0  0  0
  3  6  1  0  0  0  0
 31 34  1  0  0  0  0
 31 35  1  0  0  0  0
 31 36  1  0  0  0  0
 21 24  1  0  0  0  0
 21 25  1  0  0  0  0
 21 26  1  0  0  0  0
 11 14  1  0  0  0  0
 11 15  1  0  0  0  0
 11 16  1  0  0  0  0
 38 40  1  0  0  0  0
 38 41  1  0  0  0  0
 38 42  1  0  0  0  0
 28 33  1  0  0  0  0
 18 23  1  0  0  0  0
  8 13  1  0  0  0  0
 37 39  1  0  0  0  0
  7 12  1  0  0  0  0
 27 32  1  0  0  0  0
 17 22  1  0  0  0  0
M  END
$$$$

  -OEChem-05262214473D

 42 41  0     1  0  0  0  0  0999 V2000
   -5.7851   -0.9580    0.6237 C   0  0  0  0  0  0  0  0  0  0  0  0
   -6.2213    0.1296    0.2652 O   0  0  0  0  0  0  0  0  0  0  0  0
   -6.7088   -2.1270    0.7168 C   0  0  0  0  0  0  0  0  0  0  0  0
   -7.1713   -2.2193    1.7126 H   0  0  0  0  0  0  0  0  0  0  0  0
   -7.5511   -2.0547    0.0101 H   0  0  0  0  0  0  0  0  0  0  0  0
   -6.2485   -3.1083    0.5191 H   0  0  0  0  0  0  0  0  0  0  0  0
   -4.4733   -1.2411    0.9668 N   0  0  0  0  0  0  0  0  0  0  0  0
   -3.4203   -0.2603    0.9449 C   0  0  2  0  0  0  0  0  0  0  0  0
   -2.1242   -0.9699    0.5759 C   0  0  0  0  0  0  0  0  0  0  0  0
   -1.8694   -2.1225    0.9189 O   0  0  0  0  0  0  0  0  0  0  0  0
   -3.2916    0.4435    2.2868 C   0  0  0  0  0  0  0  0  0  0  0  0
   -4.2421   -2.1920    1.2489 H   0  0  0  0  0  0  0  0  0  0  0  0
   -3.6772    0.4622    0.1625 H   0  0  0  0  0  0  0  0  0  0  0  0
   -3.0345   -0.2644    3.0832 H   0  0  0  0  0  0  0  0  0  0  0  0
   -2.5093    1.2092    2.2599 H   0  0  0  0  0  0  0  0  0  0  0  0
   -4.2338    0.9283    2.5645 H   0  0  0  0  0  0  0  0  0  0  0  0
   -1.2626   -0.1515   -0.1463 N   0  0  0  0  0  0  0  0  0  0  0  0
    0.0431   -0.5785   -0.5755 C   0  0  2  0  0  0  0  0  0  0  0  0
    0.5351    0.4023   -1.6317 C   0  0  0  0  0  0  0  0  0  0  0  0
   -0.1601    0.7791   -2.5729 O   0  0  0  0  0  0  0  0  0  0  0  0
    0.0090   -1.9963   -1.1243 C   0  0  0  0  0  0  0  0  0  0  0  0
   -1.5766    0.7776   -0.4197 H   0  0  0  0  0  0  0  0  0  0  0  0
    0.6965   -0.5288    0.3024 H   0  0  0  0  0  0  0  0  0  0  0  0
   -0.6407   -2.0657   -2.0044 H   0  0  0  0  0  0  0  0  0  0  0  0
    1.0080   -2.3300   -1.4239 H   0  0  0  0  0  0  0  0  0  0  0  0
   -0.3732   -2.6959   -0.3731 H   0  0  0  0  0  0  0  0  0  0  0  0
    1.8584    0.7773   -1.4268 N   0  0  0  0  0  0  0  0  0  0  0  0
    2.5650    1.6634   -2.3139 C   0  0  2  0  0  0  0  0  0  0  0  0
    4.0313    1.2519   -2.3200 C   0  0  0  0  0  0  0  0  0  0  0  0
    4.6060    0.8027   -1.3305 O   0  0  0  0  0  0  0  0  0  0  0  0
    2.4094    3.1144   -1.8863 C   0  0  0  0  0  0  0  0  0  0  0  0
    2.3432    0.4451   -0.5954 H   0  0  0  0  0  0  0  0  0  0  0  0
    2.1397    1.5163   -3.3127 H   0  0  0  0  0  0  0  0  0  0  0  0
    2.8298    3.2812   -0.8878 H   0  0  0  0  0  0  0  0  0  0  0  0
    2.9237    3.7894   -2.5783 H   0  0  0  0  0  0  0  0  0  0  0  0
    1.3524    3.4000   -1.8537 H   0  0  0  0  0  0  0  0  0  0  0  0
    4.6339    1.4858   -3.5481 N   0  0  0  0  0  0  0  0  0  0  0  0
    6.0317    1.2184   -3.7942 C   0  0  0  0  0  0  0  0  0  0  0  0
    4.0720    1.8226   -4.3244 H   0  0  0  0  0  0  0  0  0  0  0  0
    6.6192    2.1280   -3.6006 H   0  0  0  0  0  0  0  0  0  0  0  0
    6.3736    0.4125   -3.1280 H   0  0  0  0  0  0  0  0  0  0  0  0
    6.1672    0.9105   -4.8415 H   0  0  0  0  0  0  0  0  0  0  0  0
  1  3  1  0  0  0  0
  1  7  1  0  0  0  0
  1  2  2  0  0  0  0
 28 29  1  0  0  0  0
 29 37  1  0  0  0  0
 29 30  2  0  0  0  0
 18 19  1  0  0  0  0
 19 27  1  0  0  0  0
 19 20  2  0  0  0  0
  8  9  1  0  0  0  0
  9 17  1  0  0  0  0
  9 10  2  0  0  0  0
 28 31  1  0  0  0  0
 18 21  1  0  0  0  0
  8 11  1  0  0  0  0
 37 38  1  0  0  0  0
 27 28  1  0  0  0  0
 17 18  1  0  0  0  0
  7  8  1  0  0  0  0
  3  4  1  0  0  0  0
  3  5  1  0  0  0  0
  3  6  1  0  0  0  0
 31 34  1  0  0  0  0
 31 35  1  0  0  0  0
 31 36  1  0  0  0  0
 21 24  1  0  0  0  0
 21 25  1  0  0  0  0
 21 26  1  0  0  0  0
 11 14  1  0  0  0  0
 11 15  1  0  0  0  0
 11 16  1  0  0  0  0
 38 40  1  0  0  0  0
 38 41  1  0  0  0  0
 38 42  1  0  0  0  0
 28 33  1  0  0  0  0
 18 23  1  0  0  0  0
  8 13  1  0  0  0  0
 37 39  1  0  0  0  0
  7 12  1  0  0  0  0
 27 32  1  0  0  0  0
 17 22  1  0  0  0  0
M  END
$$$$

  -OEChem-05262214473D

 42 41  0     1  0  0  0  0  0999 V2000
   -5.7851   -0.9580    0.6237 C   0  0  0  0  0  0  0  0  0  0  0  0
   -6.2213    0.1296    0.2652 O   0  0  0  0  0  0  0  0  0  0  0  0
   -6.7088   -2.1270    0.7168 C   0  0  0  0  0  0  0  0  0  0  0  0
   -7.1713   -2.2193    1.7126 H   0  0  0  0  0  0  0  0  0  0  0  0
   -7.5511   -2.0547    0.0101 H   0  0  0  0  0  0  0  0  0  0  0  0
   -6.2485   -3.1083    0.5191 H   0  0  0  0  0  0  0  0  0  0  0  0
   -4.4733   -1.2411    0.9668 N   0  0  0  0  0  0  0  0  0  0  0  0
   -3.4203   -0.2603    0.9449 C   0  0  2  0  0  0  0  0  0  0  0  0
   -2.1242   -0.9699    0.5759 C   0  0  0  0  0  0  0  0  0  0  0  0
   -1.8694   -2.1225    0.9189 O   0  0  0  0  0  0  0  0  0  0  0  0
   -3.2916    0.4435    2.2868 C   0  0  0  0  0  0  0  0  0  0  0  0
   -4.2421   -2.1920    1.2489 H   0  0  0  0  0  0  0  0  0  0  0  0
   -3.6772    0.4622    0.1625 H   0  0  0  0  0  0  0  0  0  0  0  0
   -3.0345   -0.2644    3.0832 H   0  0  0  0  0  0  0  0  0  0  0  0
   -2.5093    1.2092    2.2599 H   0  0  0  0  0  0  0  0  0  0  0  0
   -4.2338    0.9283    2.5645 H   0  0  0  0  0  0  0  0  0  0  0  0
   -1.2626   -0.1515   -0.1463 N   0  0  0  0  0  0  0  0  0  0  0  0
    0.0431   -0.5785   -0.5755 C   0  0  2  0  0  0  0  0  0  0  0  0
    0.5351    0.4023   -1.6317 C   0  0  0  0  0  0  0  0  0  0  0  0
   -0.2183    0.9844   -2.4093 O   0  0  0  0  0  0  0  0  0  0  0  0
    0.0090   -1.9963   -1.1243 C   0  0  0  0  0  0  0  0  0  0  0  0
   -1.5766    0.7776   -0.4197 H   0  0  0  0  0  0  0  0  0  0  0  0
    0.6965   -0.5288    0.3024 H   0  0  0  0  0  0  0  0  0  0  0  0
   -0.6407   -2.0657   -2.0044 H   0  0  0  0  0  0  0  0  0  0  0  0
    1.0080   -2.3300   -1.4239 H   0  0  0  0  0  0  0  0  0  0  0  0
   -0.3732   -2.6959   -0.3731 H   0  0  0  0  0  0  0  0  0  0  0  0
    1.9206    0.5215   -1.6354 N   0  0  0  0  0  0  0  0  0  0  0  0
    2.6298    1.3557   -2.5695 C   0  0  2  0  0  0  0  0  0  0  0  0
    3.9737    0.7003   -2.8591 C   0  0  0  0  0  0  0  0  0  0  0  0
    4.6044    0.0631   -2.0181 O   0  0  0  0  0  0  0  0  0  0  0  0
    2.8177    2.7624   -2.0230 C   0  0  0  0  0  0  0  0  0  0  0  0
    2.4608    0.0301   -0.9260 H   0  0  0  0  0  0  0  0  0  0  0  0
    2.0312    1.3836   -3.4865 H   0  0  0  0  0  0  0  0  0  0  0  0
    3.4152    2.7546   -1.1041 H   0  0  0  0  0  0  0  0  0  0  0  0
    3.3321    3.4036   -2.7463 H   0  0  0  0  0  0  0  0  0  0  0  0
    1.8514    3.2212   -1.7873 H   0  0  0  0  0  0  0  0  0  0  0  0
    4.4062    0.9469   -4.1546 N   0  0  0  0  0  0  0  0  0  0  0  0
    5.6723    0.4682   -4.6583 C   0  0  0  0  0  0  0  0  0  0  0  0
    3.8008    1.4506   -4.7961 H   0  0  0  0  0  0  0  0  0  0  0  0
    6.4424    1.2392   -4.5083 H   0  0  0  0  0  0  0  0  0  0  0  0
    5.9593   -0.4464   -4.1186 H   0  0  0  0  0  0  0  0  0  0  0  0
    5.5796    0.2466   -5.7317 H   0  0  0  0  0  0  0  0  0  0  0  0
  1  3  1  0  0  0  0
  1  7  1  0  0  0  0
  1  2  2  0  0  0  0
 28 29  1  0  0  0  0
 29 37  1  0  0  0  0
 29 30  2  0  0  0  0
 18 19  1  0  0  0  0
 19 27  1  0  0  0  0
 19 20  2  0  0  0  0
  8  9  1  0  0  0  0
  9 17  1  0  0  0  0
  9 10  2  0  0  0  0
 28 31  1  0  0  0  0
 18 21  1  0  0  0  0
  8 11  1  0  0  0  0
 37 38  1  0  0  0  0
 27 28  1  0  0  0  0
 17 18  1  0  0  0  0
  7  8  1  0  0  0  0
  3  4  1  0  0  0  0
  3  5  1  0  0  0  0
  3  6  1  0  0  0  0
 31 34  1  0  0  0  0
 31 35  1  0  0  0  0
 31 36  1  0  0  0  0
 21 24  1  0  0  0  0
 21 25  1  0  0  0  0
 21 26  1  0  0  0  0
 11 14  1  0  0  0  0
 11 15  1  0  0  0  0
 11 16  1  0  0  0  0
 38 40  1  0  0  0  0
 38 41  1  0  0  0  0
 38 42  1  0  0  0  0
 28 33  1  0  0  0  0
 18 23  1  0  0  0  0
  8 13  1  0  0  0  0
 37 39  1  0  0  0  0
  7 12  1  0  0  0  0
 27 32  1  0  0  0  0
 17 22  1  0  0  0  0
M  END
$$$$

  -OEChem-05262214473D

 42 41  0     1  0  0  0  0  0999 V2000
   -5.7851   -0.9580    0.6237 C   0  0  0  0  0  0  0  0  0  0  0  0
   -6.2213    0.1296    0.2652 O   0  0  0  0  0  0  0  0  0  0  0  0
   -6.7088   -2.1270    0.7168 C   0  0  0  0  0  0  0  0  0  0  0  0
   -7.1713   -2.2193    1.7126 H   0  0  0  0  0  0  0  0  0  0  0  0
   -7.5511   -2.0547    0.0101 H   0  0  0  0  0  0  0  0  0  0  0  0
   -6.2485   -3.1083    0.5191 H   0  0  0  0  0  0  0  0  0  0  0  0
   -4.4733   -1.2411    0.9668 N   0  0  0  0  0  0  0  0  0  0  0  0
   -3.4203   -0.2603    0.9449 C   0  0  2  0  0  0  0  0  0  0  0  0
   -2.1242   -0.9699    0.5759 C   0  0  0  0  0  0  0  0  0  0  0  0
   -1.8694   -2.1225    0.9189 O   0  0  0  0  0  0  0  0  0  0  0  0
   -3.2916    0.4435    2.2868 C   0  0  0  0  0  0  0  0  0  0  0  0
   -4.2421   -2.1920    1.2489 H   0  0  0  0  0  0  0  0  0  0  0  0
   -3.6772    0.4622    0.1625 H   0  0  0  0  0  0  0  0  0  0  0  0
   -3.0345   -0.2644    3.0832 H   0  0  0  0  0  0  0  0  0  0  0  0
   -2.5093    1.2092    2.2599 H   0  0  0  0  0  0  0  0  0  0  0  0
   -4.2338    0.9283    2.5645 H   0  0  0  0  0  0  0  0  0  0  0  0
   -1.2626   -0.1515   -0.1463 N   0  0  0  0  0  0  0  0  0  0  0  0
    0.0431   -0.5785   -0.5755 C   0  0  2  0  0  0  0  0  0  0  0  0
    0.5351    0.4023   -1.6317 C   0  0  0  0  0  0  0  0  0  0  0  0
   -0.2104    1.1795   -2.2245 O   0  0  0  0  0  0  0  0  0  0  0  0
    0.0090   -1.9963   -1.1243 C   0  0  0  0  0  0  0  0  0  0  0  0
   -1.5766    0.7776   -0.4197 H   0  0  0  0  0  0  0  0  0  0  0  0
    0.6965   -0.5288    0.3024 H   0  0  0  0  0  0  0  0  0  0  0  0
   -0.6407   -2.0657   -2.0044 H   0  0  0  0  0  0  0  0  0  0  0  0
    1.0080   -2.3300   -1.4239 H   0  0  0  0  0  0  0  0  0  0  0  0
   -0.3732   -2.6959   -0.3731 H   0  0  0  0  0  0  0  0  0  0  0  0
    1.8999    0.2806   -1.8687 N   0  0  0  0  0  0  0  0  0  0  0  0
    2.5946    1.0682   -2.8528 C   0  0  2  0  0  0  0  0  0  0  0  0
    3.7291    0.2228   -3.4164 C   0  0  0  0  0  0  0  0  0  0  0  0
    4.3554   -0.5935   -2.7438 O   0  0  0  0  0  0  0  0  0  0  0  0
    3.1261    2.3605   -2.2526 C   0  0  0  0  0  0  0  0  0  0  0  0
    2.4448   -0.3642   -1.2996 H   0  0  0  0  0  0  0  0  0  0  0  0
    1.8736    1.2894   -3.6474 H   0  0  0  0  0  0  0  0  0  0  0  0
    3.8501    2.1591   -1.4546 H   0  0  0  0  0  0  0  0  0  0  0  0
    3.6295    2.9717   -3.0089 H   0  0  0  0  0  0  0  0  0  0  0  0
    2.3124    2.9534   -1.8212 H   0  0  0  0  0  0  0  0  0  0  0  0
    3.9884    0.5180   -4.7475 N   0  0  0  0  0  0  0  0  0  0  0  0
    5.0464   -0.1197   -5.4957 C   0  0  0  0  0  0  0  0  0  0  0  0
    3.3934    1.1794   -5.2377 H   0  0  0  0  0  0  0  0  0  0  0  0
    5.9607    0.4884   -5.4299 H   0  0  0  0  0  0  0  0  0  0  0  0
    5.2399   -1.1188   -5.0781 H   0  0  0  0  0  0  0  0  0  0  0  0
    4.7445   -0.2148   -6.5492 H   0  0  0  0  0  0  0  0  0  0  0  0
  1  3  1  0  0  0  0
  1  7  1  0  0  0  0
  1  2  2  0  0  0  0
 28 29  1  0  0  0  0
 29 37  1  0  0  0  0
 29 30  2  0  0  0  0
 18 19  1  0  0  0  0
 19 27  1  0  0  0  0
 19 20  2  0  0  0  0
  8  9  1  0  0  0  0
  9 17  1  0  0  0  0
  9 10  2  0  0  0  0
 28 31  1  0  0  0  0
 18 21  1  0  0  0  0
  8 11  1  0  0  0  0
 37 38  1  0  0  0  0
 27 28  1  0  0  0  0
 17 18  1  0  0  0  0
  7  8  1  0  0  0  0
  3  4  1  0  0  0  0
  3  5  1  0  0  0  0
  3  6  1  0  0  0  0
 31 34  1  0  0  0  0
 31 35  1  0  0  0  0
 31 36  1  0  0  0  0
 21 24  1  0  0  0  0
 21 25  1  0  0  0  0
 21 26  1  0  0  0  0
 11 14  1  0  0  0  0
 11 15  1  0  0  0  0
 11 16  1  0  0  0  0
 38 40  1  0  0  0  0
 38 41  1  0  0  0  0
 38 42  1  0  0  0  0
 28 33  1  0  0  0  0
 18 23  1  0  0  0  0
  8 13  1  0  0  0  0
 37 39  1  0  0  0  0
  7 12  1  0  0  0  0
 27 32  1  0  0  0  0
 17 22  1  0  0  0  0
M  END
$$$$
